=
 OpenBabel10232410223D

 29 32  0  0  1  0  0  0  0  0999 V2000
  183.7640  178.9130  144.9850 C   0  0  0  0  0  2  0  0  0  0  0  0
  186.2770  178.2160  143.8240 C   0  0  1  0  0  3  0  0  0  0  0  0
  180.5970  179.2830  140.9400 C   0  0  0  0  0  3  0  0  0  0  0  0
  186.6760  178.4500  140.9830 O   0  0  0  0  0  1  0  0  0  0  0  0
  185.2390  178.4860  142.9680 C   0  0  0  0  0  0  0  0  0  0  0  0
  181.4420  178.8780  143.1420 N   0  0  0  0  0  0  0  0  0  0  0  0
  186.0160  178.0080  145.2680 C   0  0  0  0  0  3  0  0  0  0  0  0
  182.8100  178.8190  142.6430 C   0  0  0  0  0  0  0  0  0  0  0  0
  184.8400  178.2900  145.8080 C   0  0  0  0  0  3  0  0  0  0  0  0
  181.9670  179.1330  140.4350 C   0  0  0  0  0  3  0  0  0  0  0  0
  183.9310  178.6730  143.5020 C   0  0  0  0  0  0  0  0  0  0  0  0
  181.0440  178.4290  144.4680 C   0  0  0  0  0  1  0  0  0  0  0  0
  183.0200  178.9210  141.2460 C   0  0  0  0  0  0  0  0  0  0  0  0
  180.3640  179.1560  142.2410 C   0  0  0  0  0  3  0  0  0  0  0  0
  185.4130  178.5670  141.5590 C   0  0  0  0  0  0  0  0  0  0  0  0
  184.3180  178.7980  140.7040 C   0  0  1  0  0  3  0  0  0  0  0  0
  189.2530  176.9260  144.5180 C   0  0  1  0  0  3  0  0  0  0  0  0
  187.6960  177.9970  143.3540 C   0  0  1  0  0  3  0  0  0  0  0  0
  188.7240  178.3430  144.4150 C   0  0  0  0  0  2  0  0  0  0  0  0
  188.1150  176.2280  143.2770 S   0  0  0  0  0  0  0  0  0  0  0  0
  190.6810  176.8780  144.0040 C   0  0  0  0  0  2  0  0  0  0  0  0
  191.5590  176.1100  144.9750 C   0  0  0  0  0  2  0  0  0  0  0  0
  192.2170  177.2350  148.5280 O   0  0  0  0  0  1  0  0  0  0  0  0
  191.9120  176.3990  147.4630 C   0  0  0  0  0  0  0  0  0  0  0  0
  191.6860  175.1770  147.6740 O   0  0  0  0  0  0  0  0  0  0  0  0
  191.8530  176.9330  146.1390 N   0  0  0  0  0  2  0  0  0  0  0  0
  184.5640  177.7360  138.4150 N   0  0  0  0  0  1  0  0  0  0  0  0
  184.5570  178.9010  139.2350 C   0  0  0  0  0  0  0  0  0  0  0  0
  184.7400  180.0260  138.6990 O   0  0  0  0  0  0  0  0  0  0  0  0
  1  9  1  0  0  0  0
  2  7  1  6  0  0  0
  3 14  2  0  0  0  0
  4 15  1  0  0  0  0
  5 11  1  0  0  0  0
  5  2  1  0  0  0  0
  6 12  1  0  0  0  0
  7  9  2  0  0  0  0
  8  6  1  0  0  0  0
  8 11  2  0  0  0  0
 10  3  1  0  0  0  0
 10 13  2  0  0  0  0
 11  1  1  0  0  0  0
 13  8  1  0  0  0  0
 14  6  1  0  0  0  0
 15  5  2  0  0  0  0
 16 28  1  6  0  0  0
 16 13  1  0  0  0  0
 16 15  1  0  0  0  0
 17 21  1  6  0  0  0
 18  2  1  0  0  0  0
 18 19  1  1  0  0  0
 19 17  1  0  0  0  0
 20 18  1  0  0  0  0
 20 17  1  0  0  0  0
 21 22  1  0  0  0  0
 22 26  1  0  0  0  0
 24 25  2  0  0  0  0
 24 23  1  0  0  0  0
 26 24  1  0  0  0  0
 27 28  1  0  0  0  0
 29 28  2  0  0  0  0
M  END
>  <MODEL>
1

>  <REMARK>
 VINA RESULT:      -8.4      0.000      0.000
  Name = 
  5 active torsions:
  status: ('A' for Active; 'I' for Inactive)
    1  A    between atoms: C_2  and  C_5
    2  A    between atoms: C_2  and  N_29
    3  A    between atoms: C_3  and  C_17
    4  A    between atoms: C_5  and  C_10
    5  A    between atoms: C_16  and  C_28
                            x       y       z     vdW  Elec       q    Type
                         _______ _______ _______ _____ _____    ______ ____

>  <TORSDO>
F 5

$$$$
=
 OpenBabel10232410223D

 29 32  0  0  1  0  0  0  0  0999 V2000
  186.3800  177.8930  146.6860 C   0  0  0  0  0  2  0  0  0  0  0  0
  185.9970  177.9630  143.8590 C   0  0  1  0  0  3  0  0  0  0  0  0
  191.3890  176.8170  147.2250 C   0  0  0  0  0  3  0  0  0  0  0  0
  188.0250  176.9330  142.0940 O   0  0  0  0  0  1  0  0  0  0  0  0
  187.2350  177.5930  144.3190 C   0  0  0  0  0  0  0  0  0  0  0  0
  189.1950  177.6980  147.5980 N   0  0  0  0  0  0  0  0  0  0  0  0
  185.0130  178.5780  144.7810 C   0  0  0  0  0  3  0  0  0  0  0  0
  188.8280  177.4640  146.2060 C   0  0  0  0  0  0  0  0  0  0  0  0
  185.2030  178.5870  146.0910 C   0  0  0  0  0  3  0  0  0  0  0  0
  191.0400  176.6690  145.8070 C   0  0  0  0  0  3  0  0  0  0  0  0
  187.5200  177.7060  145.7110 C   0  0  0  0  0  0  0  0  0  0  0  0
  188.4220  178.5270  148.5100 C   0  0  0  0  0  1  0  0  0  0  0  0
  189.8200  176.9690  145.3250 C   0  0  0  0  0  0  0  0  0  0  0  0
  190.4920  177.3130  148.0690 C   0  0  0  0  0  3  0  0  0  0  0  0
  188.2610  177.1190  143.4550 C   0  0  0  0  0  0  0  0  0  0  0  0
  189.5380  176.7940  143.9520 C   0  0  1  0  0  3  0  0  0  0  0  0
  184.0510  179.1560  141.4510 C   0  0  1  0  0  3  0  0  0  0  0  0
  185.6030  177.8850  142.4020 C   0  0  1  0  0  3  0  0  0  0  0  0
  184.1000  177.8410  142.2040 C   0  0  0  0  0  2  0  0  0  0  0  0
  185.8440  179.4750  141.5530 S   0  0  0  0  0  0  0  0  0  0  0  0
  183.6470  178.9020  140.0100 C   0  0  0  0  0  2  0  0  0  0  0  0
  182.2170  179.3570  139.7820 C   0  0  0  0  0  2  0  0  0  0  0  0
  181.2350  182.3020  137.6180 O   0  0  0  0  0  0  0  0  0  0  0  0
  181.2140  181.3940  138.6670 C   0  0  0  0  0  0  0  0  0  0  0  0
  180.3510  181.5120  139.5770 O   0  0  0  0  0  1  0  0  0  0  0  0
  182.1690  180.3320  138.7020 N   0  0  0  0  0  2  0  0  0  0  0  0
  191.4350  177.1680  142.3140 N   0  0  0  0  0  1  0  0  0  0  0  0
  190.5700  176.2750  143.0090 C   0  0  0  0  0  0  0  0  0  0  0  0
  190.7000  175.0350  142.8300 O   0  0  0  0  0  0  0  0  0  0  0  0
  2  5  1  0  0  0  0
  2  7  1  6  0  0  0
  3 14  2  0  0  0  0
  4 15  1  0  0  0  0
  5 11  1  0  0  0  0
  6 14  1  0  0  0  0
  6 12  1  0  0  0  0
  7  9  2  0  0  0  0
  8  6  1  0  0  0  0
  9  1  1  0  0  0  0
 10  3  1  0  0  0  0
 11  8  2  0  0  0  0
 11  1  1  0  0  0  0
 13 10  2  0  0  0  0
 13  8  1  0  0  0  0
 15 16  1  0  0  0  0
 15  5  2  0  0  0  0
 16 28  1  6  0  0  0
 16 13  1  0  0  0  0
 17 21  1  6  0  0  0
 17 20  1  0  0  0  0
 17 19  1  0  0  0  0
 18 19  1  1  0  0  0
 18  2  1  0  0  0  0
 20 18  1  0  0  0  0
 22 21  1  0  0  0  0
 23 24  2  0  0  0  0
 24 26  1  0  0  0  0
 24 25  1  0  0  0  0
 26 22  1  0  0  0  0
 27 28  1  0  0  0  0
 29 28  2  0  0  0  0
M  END
>  <MODEL>
2

>  <REMARK>
 VINA RESULT:      -8.4      2.638      8.607
  Name = 
  5 active torsions:
  status: ('A' for Active; 'I' for Inactive)
    1  A    between atoms: C_2  and  C_5
    2  A    between atoms: C_2  and  N_29
    3  A    between atoms: C_3  and  C_17
    4  A    between atoms: C_5  and  C_10
    5  A    between atoms: C_16  and  C_28
                            x       y       z     vdW  Elec       q    Type
                         _______ _______ _______ _____ _____    ______ ____

>  <TORSDO>
F 5

$$$$
=
 OpenBabel10232410223D

 29 32  0  0  1  0  0  0  0  0999 V2000
  186.3350  177.8350  146.6640 C   0  0  0  0  0  2  0  0  0  0  0  0
  186.0540  177.9420  143.8250 C   0  0  1  0  0  3  0  0  0  0  0  0
  191.3420  176.8560  147.3700 C   0  0  0  0  0  3  0  0  0  0  0  0
  188.1670  176.9830  142.1210 O   0  0  0  0  0  1  0  0  0  0  0  0
  187.2820  177.5910  144.3250 C   0  0  0  0  0  0  0  0  0  0  0  0
  189.1190  177.6840  147.6750 N   0  0  0  0  0  0  0  0  0  0  0  0
  185.0240  178.5210  144.7200 C   0  0  0  0  0  3  0  0  0  0  0  0
  188.8070  177.4650  146.2680 C   0  0  0  0  0  0  0  0  0  0  0  0
  185.1660  178.5140  146.0360 C   0  0  0  0  0  3  0  0  0  0  0  0
  191.0490  176.7230  145.9380 C   0  0  0  0  0  3  0  0  0  0  0  0
  187.5130  177.6880  145.7280 C   0  0  0  0  0  0  0  0  0  0  0  0
  188.2950  178.4830  148.5710 C   0  0  0  0  0  1  0  0  0  0  0  0
  189.8410  177.0050  145.4160 C   0  0  0  0  0  0  0  0  0  0  0  0
  190.4050  177.3190  148.1880 C   0  0  0  0  0  3  0  0  0  0  0  0
  188.3490  177.1520  143.4920 C   0  0  0  0  0  0  0  0  0  0  0  0
  189.6130  176.8450  144.0310 C   0  0  1  0  0  3  0  0  0  0  0  0
  184.2120  179.1710  141.3550 C   0  0  1  0  0  3  0  0  0  0  0  0
  185.7150  177.8790  142.3540 C   0  0  1  0  0  3  0  0  0  0  0  0
  184.2200  177.8500  142.0990 C   0  0  0  0  0  2  0  0  0  0  0  0
  186.0010  179.4740  141.5270 S   0  0  0  0  0  0  0  0  0  0  0  0
  183.8610  178.9320  139.8980 C   0  0  0  0  0  2  0  0  0  0  0  0
  182.4150  179.3170  139.6400 C   0  0  0  0  0  2  0  0  0  0  0  0
  179.9830  176.5560  140.5240 O   0  0  0  0  0  0  0  0  0  0  0  0
  180.7650  177.6940  140.6610 C   0  0  0  0  0  0  0  0  0  0  0  0
  180.7480  178.3360  141.7440 O   0  0  0  0  0  1  0  0  0  0  0  0
  181.5850  178.1230  139.5730 N   0  0  0  0  0  2  0  0  0  0  0  0
  191.5790  177.2830  142.4920 N   0  0  0  0  0  1  0  0  0  0  0  0
  190.6900  176.3630  143.1190 C   0  0  0  0  0  0  0  0  0  0  0  0
  190.8370  175.1310  142.9060 O   0  0  0  0  0  0  0  0  0  0  0  0
  2  5  1  0  0  0  0
  2  7  1  6  0  0  0
  3 14  2  0  0  0  0
  4 15  1  0  0  0  0
  5 11  1  0  0  0  0
  6 14  1  0  0  0  0
  6 12  1  0  0  0  0
  7  9  2  0  0  0  0
  8  6  1  0  0  0  0
  9  1  1  0  0  0  0
 10  3  1  0  0  0  0
 11  8  2  0  0  0  0
 11  1  1  0  0  0  0
 13 10  2  0  0  0  0
 13  8  1  0  0  0  0
 15 16  1  0  0  0  0
 15  5  2  0  0  0  0
 16 28  1  6  0  0  0
 16 13  1  0  0  0  0
 17 21  1  6  0  0  0
 17 20  1  0  0  0  0
 17 19  1  0  0  0  0
 18 19  1  1  0  0  0
 18  2  1  0  0  0  0
 20 18  1  0  0  0  0
 22 21  1  0  0  0  0
 23 24  2  0  0  0  0
 24 25  1  0  0  0  0
 26 22  1  0  0  0  0
 26 24  1  0  0  0  0
 27 28  1  0  0  0  0
 29 28  2  0  0  0  0
M  END
>  <MODEL>
3

>  <REMARK>
 VINA RESULT:      -8.3      2.577      8.253
  Name = 
  5 active torsions:
  status: ('A' for Active; 'I' for Inactive)
    1  A    between atoms: C_2  and  C_5
    2  A    between atoms: C_2  and  N_29
    3  A    between atoms: C_3  and  C_17
    4  A    between atoms: C_5  and  C_10
    5  A    between atoms: C_16  and  C_28
                            x       y       z     vdW  Elec       q    Type
                         _______ _______ _______ _____ _____    ______ ____

>  <TORSDO>
F 5

$$$$
=
 OpenBabel10232410223D

 29 32  0  0  1  0  0  0  0  0999 V2000
  185.9160  178.0370  142.7600 C   0  0  0  0  0  2  0  0  0  0  0  0
  188.2620  178.0940  141.1340 C   0  0  1  0  0  3  0  0  0  0  0  0
  187.7530  177.7180  147.5610 C   0  0  0  0  0  3  0  0  0  0  0  0
  190.8220  177.4100  142.2570 O   0  0  0  0  0  1  0  0  0  0  0  0
  188.4330  177.9080  142.4820 C   0  0  0  0  0  0  0  0  0  0  0  0
  186.3720  178.2530  145.6820 N   0  0  0  0  0  0  0  0  0  0  0  0
  186.9510  178.5400  140.6040 C   0  0  0  0  0  3  0  0  0  0  0  0
  187.4680  177.9890  144.7580 C   0  0  0  0  0  0  0  0  0  0  0  0
  185.8660  178.5560  141.3630 C   0  0  0  0  0  3  0  0  0  0  0  0
  188.8740  177.5420  146.6310 C   0  0  0  0  0  3  0  0  0  0  0  0
  187.3080  178.0400  143.3490 C   0  0  0  0  0  0  0  0  0  0  0  0
  185.1460  178.9420  145.3070 C   0  0  0  0  0  1  0  0  0  0  0  0
  188.7360  177.6630  145.2980 C   0  0  0  0  0  0  0  0  0  0  0  0
  186.5600  178.0600  147.0880 C   0  0  0  0  0  3  0  0  0  0  0  0
  189.6980  177.6070  143.0570 C   0  0  0  0  0  0  0  0  0  0  0  0
  189.8500  177.4690  144.4500 C   0  0  1  0  0  3  0  0  0  0  0  0
  189.2150  177.0280  138.1400 C   0  0  1  0  0  3  0  0  0  0  0  0
  189.3910  177.9820  140.1370 C   0  0  1  0  0  3  0  0  0  0  0  0
  189.5240  176.5860  139.5570 C   0  0  0  0  0  2  0  0  0  0  0  0
  188.9810  178.7880  138.5590 S   0  0  0  0  0  0  0  0  0  0  0  0
  190.4490  176.8580  137.2740 C   0  0  0  0  0  2  0  0  0  0  0  0
  190.1020  176.0780  136.0180 C   0  0  0  0  0  2  0  0  0  0  0  0
  191.9670  172.7920  136.2270 O   0  0  0  0  0  0  0  0  0  0  0  0
  191.0170  173.7690  136.4930 C   0  0  0  0  0  0  0  0  0  0  0  0
  190.1150  173.5460  137.3440 O   0  0  0  0  0  1  0  0  0  0  0  0
  191.0750  175.0180  135.8030 N   0  0  0  0  0  2  0  0  0  0  0  0
  191.6110  175.7690  145.1080 N   0  0  0  0  0  1  0  0  0  0  0  0
  191.1920  177.1270  145.0010 C   0  0  0  0  0  0  0  0  0  0  0  0
  191.9820  178.0390  145.3640 O   0  0  0  0  0  0  0  0  0  0  0  0
  1 11  1  0  0  0  0
  2  7  1  1  0  0  0
  2  5  1  0  0  0  0
  4 15  1  0  0  0  0
  5 15  2  0  0  0  0
  5 11  1  0  0  0  0
  6 14  1  0  0  0  0
  7  9  2  0  0  0  0
  8 13  1  0  0  0  0
  8  6  1  0  0  0  0
  9  1  1  0  0  0  0
 10  3  1  0  0  0  0
 11  8  2  0  0  0  0
 12  6  1  0  0  0  0
 13 10  2  0  0  0  0
 14  3  2  0  0  0  0
 15 16  1  0  0  0  0
 16 28  1  1  0  0  0
 16 13  1  0  0  0  0
 17 21  1  6  0  0  0
 17 20  1  0  0  0  0
 17 19  1  0  0  0  0
 18 19  1  6  0  0  0
 18  2  1  0  0  0  0
 20 18  1  0  0  0  0
 22 21  1  0  0  0  0
 23 24  2  0  0  0  0
 24 25  1  0  0  0  0
 26 22  1  0  0  0  0
 26 24  1  0  0  0  0
 28 27  1  0  0  0  0
 28 29  2  0  0  0  0
M  END
>  <MODEL>
4

>  <REMARK>
 VINA RESULT:      -8.0      4.297      7.408
  Name = 
  5 active torsions:
  status: ('A' for Active; 'I' for Inactive)
    1  A    between atoms: C_2  and  C_5
    2  A    between atoms: C_2  and  N_29
    3  A    between atoms: C_3  and  C_17
    4  A    between atoms: C_5  and  C_10
    5  A    between atoms: C_16  and  C_28
                            x       y       z     vdW  Elec       q    Type
                         _______ _______ _______ _____ _____    ______ ____

>  <TORSDO>
F 5

$$$$
=
 OpenBabel10232410223D

 29 32  0  0  1  0  0  0  0  0999 V2000
  186.5140  177.8540  146.8940 C   0  0  0  0  0  2  0  0  0  0  0  0
  185.9540  177.9720  144.0980 C   0  0  1  0  0  3  0  0  0  0  0  0
  191.5390  176.7400  147.1000 C   0  0  0  0  0  3  0  0  0  0  0  0
  187.8610  176.9590  142.1930 O   0  0  0  0  0  1  0  0  0  0  0  0
  187.2170  177.5880  144.4730 C   0  0  0  0  0  0  0  0  0  0  0  0
  189.3790  177.6280  147.6240 N   0  0  0  0  0  0  0  0  0  0  0  0
  185.0340  178.5780  145.0900 C   0  0  0  0  0  3  0  0  0  0  0  0
  188.9230  177.4190  146.2550 C   0  0  0  0  0  0  0  0  0  0  0  0
  185.3060  178.5640  146.3860 C   0  0  0  0  0  3  0  0  0  0  0  0
  191.1010  176.6180  145.7040 C   0  0  0  0  0  3  0  0  0  0  0  0
  187.5890  177.6760  145.8470 C   0  0  0  0  0  0  0  0  0  0  0  0
  188.6710  178.4470  148.5960 C   0  0  0  0  0  1  0  0  0  0  0  0
  189.8550  176.9320  145.3050 C   0  0  0  0  0  0  0  0  0  0  0  0
  190.7000  177.2270  148.0060 C   0  0  0  0  0  3  0  0  0  0  0  0
  188.1830  177.1220  143.5390 C   0  0  0  0  0  0  0  0  0  0  0  0
  189.4860  176.7810  143.9500 C   0  0  1  0  0  3  0  0  0  0  0  0
  183.8240  179.1680  141.8540 C   0  0  1  0  0  3  0  0  0  0  0  0
  185.4690  177.9200  142.6680 C   0  0  1  0  0  3  0  0  0  0  0  0
  183.9580  177.8370  142.5650 C   0  0  0  0  0  2  0  0  0  0  0  0
  185.6090  179.5390  141.8490 S   0  0  0  0  0  0  0  0  0  0  0  0
  183.3340  178.9410  140.4350 C   0  0  0  0  0  2  0  0  0  0  0  0
  184.3260  179.5190  139.4420 C   0  0  0  0  0  2  0  0  0  0  0  0
  186.0700  177.1090  137.1030 O   0  0  0  0  0  0  0  0  0  0  0  0
  185.8920  178.0380  138.1180 C   0  0  0  0  0  0  0  0  0  0  0  0
  186.8840  178.4180  138.7970 O   0  0  0  0  0  1  0  0  0  0  0  0
  184.5880  178.5580  138.3810 N   0  0  0  0  0  2  0  0  0  0  0  0
  191.3180  177.1660  142.2410 N   0  0  0  0  0  1  0  0  0  0  0  0
  190.4530  176.2720  142.9360 C   0  0  0  0  0  0  0  0  0  0  0  0
  190.5290  175.0380  142.6940 O   0  0  0  0  0  0  0  0  0  0  0  0
  2  5  1  0  0  0  0
  2  7  1  6  0  0  0
  3 14  2  0  0  0  0
  4 15  1  0  0  0  0
  5 11  1  0  0  0  0
  6 14  1  0  0  0  0
  6 12  1  0  0  0  0
  7  9  2  0  0  0  0
  8  6  1  0  0  0  0
  9  1  1  0  0  0  0
 10  3  1  0  0  0  0
 11  8  2  0  0  0  0
 11  1  1  0  0  0  0
 13 10  2  0  0  0  0
 13  8  1  0  0  0  0
 15 16  1  0  0  0  0
 15  5  2  0  0  0  0
 16 28  1  6  0  0  0
 16 13  1  0  0  0  0
 17 21  1  6  0  0  0
 17 19  1  0  0  0  0
 18 19  1  1  0  0  0
 18  2  1  0  0  0  0
 20 17  1  0  0  0  0
 20 18  1  0  0  0  0
 22 21  1  0  0  0  0
 23 24  2  0  0  0  0
 24 26  1  0  0  0  0
 24 25  1  0  0  0  0
 26 22  1  0  0  0  0
 27 28  1  0  0  0  0
 29 28  2  0  0  0  0
M  END
>  <MODEL>
5

>  <REMARK>
 VINA RESULT:      -8.0      2.587      7.829
  Name = 
  5 active torsions:
  status: ('A' for Active; 'I' for Inactive)
    1  A    between atoms: C_2  and  C_5
    2  A    between atoms: C_2  and  N_29
    3  A    between atoms: C_3  and  C_17
    4  A    between atoms: C_5  and  C_10
    5  A    between atoms: C_16  and  C_28
                            x       y       z     vdW  Elec       q    Type
                         _______ _______ _______ _____ _____    ______ ____

>  <TORSDO>
F 5

$$$$
=
 OpenBabel10232410223D

 29 32  0  0  1  0  0  0  0  0999 V2000
  190.1580  176.4850  139.1500 C   0  0  0  0  0  2  0  0  0  0  0  0
  189.2290  177.7540  141.5320 C   0  0  1  0  0  3  0  0  0  0  0  0
  186.5180  177.5720  135.6720 C   0  0  0  0  0  3  0  0  0  0  0  0
  186.5190  178.7130  141.7010 O   0  0  0  0  0  1  0  0  0  0  0  0
  188.4030  177.7850  140.4370 C   0  0  0  0  0  0  0  0  0  0  0  0
  188.6370  177.1100  136.6820 N   0  0  0  0  0  0  0  0  0  0  0  0
  190.6450  177.3440  141.3850 C   0  0  0  0  0  3  0  0  0  0  0  0
  188.1210  177.4530  138.0020 C   0  0  2  0  0  3  0  0  0  0  0  0
  191.0950  176.7930  140.2680 C   0  0  0  0  0  3  0  0  0  0  0  0
  186.0340  178.0030  136.9900 C   0  0  0  0  0  3  0  0  0  0  0  0
  188.8940  177.3130  139.1840 C   0  0  0  0  0  0  0  0  0  0  0  0
  190.0530  176.9580  136.3820 C   0  0  0  0  0  1  0  0  0  0  0  0
  186.7940  177.9380  138.0980 C   0  0  0  0  0  0  0  0  0  0  0  0
  187.7690  177.1480  135.5440 C   0  0  0  0  0  3  0  0  0  0  0  0
  187.0750  178.2910  140.4950 C   0  0  0  0  0  0  0  0  0  0  0  0
  186.2690  178.3530  139.3420 C   0  0  0  0  0  0  0  0  0  0  0  0
  189.4120  177.2910  144.8120 C   0  0  1  0  0  3  0  0  0  0  0  0
  188.8020  178.2360  142.8990 C   0  0  1  0  0  3  0  0  0  0  0  0
  188.3080  177.1120  143.7880 C   0  0  0  0  0  2  0  0  0  0  0  0
  190.2310  178.6660  143.9390 S   0  0  0  0  0  0  0  0  0  0  0  0
  188.8190  177.7820  146.1200 C   0  0  0  0  0  2  0  0  0  0  0  0
  189.6520  177.2880  147.2880 C   0  0  0  0  0  2  0  0  0  0  0  0
  192.8030  175.2240  146.9280 O   0  0  0  0  0  0  0  0  0  0  0  0
  191.9290  176.1930  147.4000 C   0  0  0  0  0  0  0  0  0  0  0  0
  192.2950  176.9640  148.3270 O   0  0  0  0  0  1  0  0  0  0  0  0
  190.6260  176.3090  146.8290 N   0  0  0  0  0  2  0  0  0  0  0  0
  183.8020  177.9910  139.7970 N   0  0  0  0  0  1  0  0  0  0  0  0
  184.8750  178.8670  139.4620 C   0  0  0  0  0  0  0  0  0  0  0  0
  184.6300  180.0900  139.2840 O   0  0  0  0  0  0  0  0  0  0  0  0
  1 11  1  0  0  0  0
  1  9  1  0  0  0  0
  2  7  1  6  0  0  0
  2 18  1  0  0  0  0
  3 10  1  0  0  0  0
  5 15  1  0  0  0  0
  5  2  1  0  0  0  0
  6  8  1  0  0  0  0
  8 13  1  1  0  0  0
  8 11  1  0  0  0  0
  9  7  2  0  0  0  0
 10 13  2  0  0  0  0
 11  5  2  0  0  0  0
 12  6  1  0  0  0  0
 13 16  1  0  0  0  0
 14  3  2  0  0  0  0
 14  6  1  0  0  0  0
 15  4  1  0  0  0  0
 16 28  1  0  0  0  0
 16 15  2  0  0  0  0
 17 21  1  1  0  0  0
 18 19  1  1  0  0  0
 18 20  1  0  0  0  0
 19 17  1  0  0  0  0
 20 17  1  0  0  0  0
 21 22  1  0  0  0  0
 23 24  2  0  0  0  0
 24 25  1  0  0  0  0
 26 22  1  0  0  0  0
 26 24  1  0  0  0  0
 28 27  1  0  0  0  0
 29 28  2  0  0  0  0
M  END
>  <MODEL>
6

>  <REMARK>
 VINA RESULT:      -7.9      2.975      5.407
  Name = 
  5 active torsions:
  status: ('A' for Active; 'I' for Inactive)
    1  A    between atoms: C_2  and  C_5
    2  A    between atoms: C_2  and  N_29
    3  A    between atoms: C_3  and  C_17
    4  A    between atoms: C_5  and  C_10
    5  A    between atoms: C_16  and  C_28
                            x       y       z     vdW  Elec       q    Type
                         _______ _______ _______ _____ _____    ______ ____

>  <TORSDO>
F 5

$$$$
=
 OpenBabel10232410223D

 29 32  0  0  1  0  0  0  0  0999 V2000
  187.7230  178.3330  139.3960 C   0  0  0  0  0  2  0  0  0  0  0  0
  189.7430  177.7050  141.3130 C   0  0  1  0  0  3  0  0  0  0  0  0
  189.5910  176.4580  134.9770 C   0  0  0  0  0  3  0  0  0  0  0  0
  192.3500  176.8480  140.4440 O   0  0  0  0  0  1  0  0  0  0  0  0
  190.0070  177.4120  139.9990 C   0  0  0  0  0  0  0  0  0  0  0  0
  188.0830  177.1330  136.7080 N   0  0  0  0  0  0  0  0  0  0  0  0
  188.3650  178.0500  141.7370 C   0  0  0  0  0  3  0  0  0  0  0  0
  189.1590  177.1330  137.6930 C   0  0  2  0  0  3  0  0  0  0  0  0
  187.4110  178.3010  140.8540 C   0  0  0  0  0  3  0  0  0  0  0  0
  190.6480  176.3730  135.9920 C   0  0  0  0  0  3  0  0  0  0  0  0
  188.9660  177.5530  139.0340 C   0  0  0  0  0  0  0  0  0  0  0  0
  186.6710  177.1900  137.0540 C   0  0  0  0  0  1  0  0  0  0  0  0
  190.4440  176.7030  137.2810 C   0  0  0  0  0  0  0  0  0  0  0  0
  188.3670  176.8230  135.3390 C   0  0  0  0  0  3  0  0  0  0  0  0
  191.2790  176.9510  139.5590 C   0  0  0  0  0  0  0  0  0  0  0  0
  191.5030  176.6140  138.2110 C   0  0  0  0  0  0  0  0  0  0  0  0
  190.3060  177.2030  144.5440 C   0  0  1  0  0  3  0  0  0  0  0  0
  190.7770  177.5810  142.4080 C   0  0  1  0  0  3  0  0  0  0  0  0
  190.4340  178.4080  143.6320 C   0  0  0  0  0  2  0  0  0  0  0  0
  190.6770  175.9720  143.2510 S   0  0  0  0  0  0  0  0  0  0  0  0
  191.4170  177.2260  145.5770 C   0  0  0  0  0  2  0  0  0  0  0  0
  190.8870  176.7650  146.9230 C   0  0  0  0  0  2  0  0  0  0  0  0
  187.3440  177.7730  147.7890 O   0  0  0  0  0  0  0  0  0  0  0  0
  188.7300  177.7220  147.8330 C   0  0  0  0  0  0  0  0  0  0  0  0
  189.3550  178.4400  148.6590 O   0  0  0  0  0  1  0  0  0  0  0  0
  189.4350  176.8540  146.9450 N   0  0  0  0  0  2  0  0  0  0  0  0
  193.1860  174.7740  137.7500 N   0  0  0  0  0  1  0  0  0  0  0  0
  192.8620  176.1610  137.7960 C   0  0  0  0  0  0  0  0  0  0  0  0
  193.7380  177.0030  137.4630 O   0  0  0  0  0  0  0  0  0  0  0  0
  1  9  1  0  0  0  0
  2  7  1  1  0  0  0
  2 18  1  0  0  0  0
  3 14  2  0  0  0  0
  3 10  1  0  0  0  0
  5  2  1  0  0  0  0
  6 12  1  0  0  0  0
  6  8  1  0  0  0  0
  8 13  1  6  0  0  0
  8 11  1  0  0  0  0
  9  7  2  0  0  0  0
 10 13  2  0  0  0  0
 11  1  1  0  0  0  0
 11  5  2  0  0  0  0
 13 16  1  0  0  0  0
 14  6  1  0  0  0  0
 15  5  1  0  0  0  0
 15  4  1  0  0  0  0
 16 15  2  0  0  0  0
 17 21  1  1  0  0  0
 18 20  1  0  0  0  0
 18 19  1  1  0  0  0
 19 17  1  0  0  0  0
 20 17  1  0  0  0  0
 21 22  1  0  0  0  0
 22 26  1  0  0  0  0
 23 24  2  0  0  0  0
 24 25  1  0  0  0  0
 26 24  1  0  0  0  0
 27 28  1  0  0  0  0
 28 16  1  0  0  0  0
 29 28  2  0  0  0  0
M  END
>  <MODEL>
7

>  <REMARK>
 VINA RESULT:      -7.7      4.702      6.800
  Name = 
  5 active torsions:
  status: ('A' for Active; 'I' for Inactive)
    1  A    between atoms: C_2  and  C_5
    2  A    between atoms: C_2  and  N_29
    3  A    between atoms: C_3  and  C_17
    4  A    between atoms: C_5  and  C_10
    5  A    between atoms: C_16  and  C_28
                            x       y       z     vdW  Elec       q    Type
                         _______ _______ _______ _____ _____    ______ ____

>  <TORSDO>
F 5

$$$$
=
 OpenBabel10232410223D

 29 32  0  0  1  0  0  0  0  0999 V2000
  191.1060  177.4790  144.6430 C   0  0  0  0  0  2  0  0  0  0  0  0
  189.3750  177.2770  142.3820 C   0  0  1  0  0  3  0  0  0  0  0  0
  187.8800  178.0490  148.6180 C   0  0  0  0  0  3  0  0  0  0  0  0
  186.5920  177.9760  142.6190 O   0  0  0  0  0  1  0  0  0  0  0  0
  188.7970  177.5410  143.5980 C   0  0  0  0  0  0  0  0  0  0  0  0
  189.7730  177.4300  147.2910 N   0  0  0  0  0  0  0  0  0  0  0  0
  190.7860  176.8280  142.3100 C   0  0  0  0  0  3  0  0  0  0  0  0
  189.0140  177.6160  146.0600 C   0  0  0  0  0  0  0  0  0  0  0  0
  191.5840  176.8790  143.3650 C   0  0  0  0  0  3  0  0  0  0  0  0
  187.0990  178.1460  147.3790 C   0  0  0  0  0  3  0  0  0  0  0  0
  189.6000  177.4840  144.7750 C   0  0  0  0  0  0  0  0  0  0  0  0
  191.0550  176.7450  147.3550 C   0  0  0  0  0  1  0  0  0  0  0  0
  187.6410  177.9480  146.1630 C   0  0  0  0  0  0  0  0  0  0  0  0
  189.1600  177.7040  148.5570 C   0  0  0  0  0  3  0  0  0  0  0  0
  187.4150  177.8500  143.7360 C   0  0  0  0  0  0  0  0  0  0  0  0
  186.8430  178.0680  145.0040 C   0  0  1  0  0  3  0  0  0  0  0  0
  189.3220  178.2850  139.2220 C   0  0  1  0  0  3  0  0  0  0  0  0
  188.6070  177.3070  141.0810 C   0  0  1  0  0  3  0  0  0  0  0  0
  188.5540  178.6910  140.4640 C   0  0  0  0  0  2  0  0  0  0  0  0
  189.5490  176.5470  139.7240 S   0  0  0  0  0  0  0  0  0  0  0  0
  188.4100  178.3630  138.0110 C   0  0  0  0  0  2  0  0  0  0  0  0
  189.2230  178.6590  136.7640 C   0  0  0  0  0  2  0  0  0  0  0  0
  189.9400  175.4720  134.8540 O   0  0  0  0  0  0  0  0  0  0  0  0
  190.1050  176.5140  135.7560 C   0  0  0  0  0  0  0  0  0  0  0  0
  191.1210  176.5380  136.5010 O   0  0  0  0  0  1  0  0  0  0  0  0
  189.1240  177.5490  135.8280 N   0  0  0  0  0  2  0  0  0  0  0  0
  184.8880  179.5900  144.4640 N   0  0  0  0  0  1  0  0  0  0  0  0
  185.3950  178.4160  145.0930 C   0  0  0  0  0  0  0  0  0  0  0  0
  184.5980  177.6630  145.7130 O   0  0  0  0  0  0  0  0  0  0  0  0
  1 11  1  0  0  0  0
  2  7  1  1  0  0  0
  2  5  1  0  0  0  0
  4 15  1  0  0  0  0
  5 15  2  0  0  0  0
  5 11  1  0  0  0  0
  6 12  1  0  0  0  0
  6 14  1  0  0  0  0
  7  9  2  0  0  0  0
  8 13  1  0  0  0  0
  8  6  1  0  0  0  0
  9  1  1  0  0  0  0
 10  3  1  0  0  0  0
 11  8  2  0  0  0  0
 13 10  2  0  0  0  0
 14  3  2  0  0  0  0
 15 16  1  0  0  0  0
 16 28  1  1  0  0  0
 16 13  1  0  0  0  0
 17 21  1  6  0  0  0
 17 20  1  0  0  0  0
 17 19  1  0  0  0  0
 18 19  1  6  0  0  0
 18  2  1  0  0  0  0
 20 18  1  0  0  0  0
 22 21  1  0  0  0  0
 23 24  2  0  0  0  0
 24 26  1  0  0  0  0
 24 25  1  0  0  0  0
 26 22  1  0  0  0  0
 27 28  1  0  0  0  0
 28 29  2  0  0  0  0
M  END
>  <MODEL>
8

>  <REMARK>
 VINA RESULT:      -7.7      3.898      7.756
  Name = 
  5 active torsions:
  status: ('A' for Active; 'I' for Inactive)
    1  A    between atoms: C_2  and  C_5
    2  A    between atoms: C_2  and  N_29
    3  A    between atoms: C_3  and  C_17
    4  A    between atoms: C_5  and  C_10
    5  A    between atoms: C_16  and  C_28
                            x       y       z     vdW  Elec       q    Type
                         _______ _______ _______ _____ _____    ______ ____

>  <TORSDO>
F 5

$$$$
=
 OpenBabel10232410223D

 29 32  0  0  1  0  0  0  0  0999 V2000
  190.8240  177.7010  142.7540 C   0  0  0  0  0  2  0  0  0  0  0  0
  189.1730  177.9020  140.4340 C   0  0  1  0  0  3  0  0  0  0  0  0
  187.4650  177.6440  146.6580 C   0  0  0  0  0  3  0  0  0  0  0  0
  186.3900  178.5880  140.6910 O   0  0  0  0  0  1  0  0  0  0  0  0
  188.5550  177.9660  141.6570 C   0  0  0  0  0  0  0  0  0  0  0  0
  189.3980  177.2300  145.3110 N   0  0  0  0  0  0  0  0  0  0  0  0
  190.5820  177.4510  140.3350 C   0  0  0  0  0  3  0  0  0  0  0  0
  188.6850  177.6280  144.1030 C   0  0  0  0  0  0  0  0  0  0  0  0
  191.3430  177.3150  141.4110 C   0  0  0  0  0  3  0  0  0  0  0  0
  186.7290  177.9560  145.4260 C   0  0  0  0  0  3  0  0  0  0  0  0
  189.3150  177.7040  142.8340 C   0  0  0  0  0  0  0  0  0  0  0  0
  190.6720  176.5260  145.3030 C   0  0  0  0  0  1  0  0  0  0  0  0
  187.3120  177.9570  144.2130 C   0  0  0  0  0  0  0  0  0  0  0  0
  188.7440  177.2970  146.5830 C   0  0  0  0  0  3  0  0  0  0  0  0
  187.1710  178.2670  141.7980 C   0  0  0  0  0  0  0  0  0  0  0  0
  186.5560  178.2790  143.0640 C   0  0  1  0  0  3  0  0  0  0  0  0
  189.2410  177.6120  137.1300 C   0  0  1  0  0  3  0  0  0  0  0  0
  188.4520  178.1580  139.1320 C   0  0  1  0  0  3  0  0  0  0  0  0
  189.3460  178.7880  138.0810 C   0  0  0  0  0  2  0  0  0  0  0  0
  188.1590  176.6180  138.2090 S   0  0  0  0  0  0  0  0  0  0  0  0
  188.4880  178.0330  135.8810 C   0  0  0  0  0  2  0  0  0  0  0  0
  189.1510  177.4450  134.6490 C   0  0  0  0  0  2  0  0  0  0  0  0
  189.3970  173.6890  135.0340 O   0  0  0  0  0  1  0  0  0  0  0  0
  188.8550  174.9350  134.7560 C   0  0  0  0  0  0  0  0  0  0  0  0
  187.6670  175.0210  134.3460 O   0  0  0  0  0  0  0  0  0  0  0  0
  189.6490  176.1090  134.9400 N   0  0  0  0  0  2  0  0  0  0  0  0
  184.6940  179.8630  143.7350 N   0  0  0  0  0  1  0  0  0  0  0  0
  185.1090  178.6260  143.1610 C   0  0  0  0  0  0  0  0  0  0  0  0
  184.2340  177.8350  142.7200 O   0  0  0  0  0  0  0  0  0  0  0  0
  1 11  1  0  0  0  0
  2  7  1  6  0  0  0
  2  5  1  0  0  0  0
  4 15  1  0  0  0  0
  5 15  2  0  0  0  0
  5 11  1  0  0  0  0
  6 14  1  0  0  0  0
  7  9  2  0  0  0  0
  8 13  1  0  0  0  0
  8  6  1  0  0  0  0
  9  1  1  0  0  0  0
 10  3  1  0  0  0  0
 11  8  2  0  0  0  0
 12  6  1  0  0  0  0
 13 10  2  0  0  0  0
 14  3  2  0  0  0  0
 15 16  1  0  0  0  0
 16 28  1  6  0  0  0
 16 13  1  0  0  0  0
 17 21  1  6  0  0  0
 17 19  1  0  0  0  0
 17 20  1  0  0  0  0
 18 19  1  6  0  0  0
 18  2  1  0  0  0  0
 20 18  1  0  0  0  0
 22 26  1  0  0  0  0
 22 21  1  0  0  0  0
 24 26  1  0  0  0  0
 24 23  1  0  0  0  0
 25 24  2  0  0  0  0
 28 27  1  0  0  0  0
 29 28  2  0  0  0  0
M  END
>  <MODEL>
9

>  <REMARK>
 VINA RESULT:      -7.4      3.993      7.871
  Name = 
  5 active torsions:
  status: ('A' for Active; 'I' for Inactive)
    1  A    between atoms: C_2  and  C_5
    2  A    between atoms: C_2  and  N_29
    3  A    between atoms: C_3  and  C_17
    4  A    between atoms: C_5  and  C_10
    5  A    between atoms: C_16  and  C_28
                            x       y       z     vdW  Elec       q    Type
                         _______ _______ _______ _____ _____    ______ ____

>  <TORSDO>
F 5

$$$$
