=
 OpenBabel10232409213D

 60 65  0  0  1  0  0  0  0  0999 V2000
  187.0990  174.8230  136.8840 C   0  0  0  0  0  0  0  0  0  0  0  0
  188.8350  173.3030  137.0380 N   0  0  0  0  0  0  0  0  0  0  0  0
  189.2810  174.5070  137.1860 C   0  0  0  0  0  0  0  0  0  0  0  0
  188.2210  175.4890  137.1090 C   0  0  0  0  0  0  0  0  0  0  0  0
  190.6410  174.8110  137.5120 N   0  0  0  0  0  2  0  0  0  0  0  0
  187.3940  173.3620  136.8010 C   0  0  0  0  0  2  0  0  0  0  0  0
  192.7640  174.0140  136.7510 C   0  0  0  0  0  0  0  0  0  0  0  0
  191.6870  173.8720  137.4660 N   0  0  0  0  0  0  0  0  0  0  0  0
  195.9800  172.1050  137.3560 C   0  0  0  0  0  3  0  0  0  0  0  0
  193.7640  172.9170  136.7610 C   0  0  0  0  0  0  0  0  0  0  0  0
  194.4690  170.6780  136.1210 C   0  0  0  0  0  3  0  0  0  0  0  0
  193.5060  171.6910  136.1320 C   0  0  0  0  0  3  0  0  0  0  0  0
  195.0150  173.1150  137.3640 C   0  0  0  0  0  3  0  0  0  0  0  0
  195.7090  170.8790  136.7320 C   0  0  0  0  0  0  0  0  0  0  0  0
  199.1410  169.1670  136.2950 C   0  0  0  0  0  2  0  0  0  0  0  0
  197.9950  168.2730  138.3610 C   0  0  0  0  0  2  0  0  0  0  0  0
  198.7740  167.9130  137.1000 C   0  0  0  0  0  2  0  0  0  0  0  0
  198.1220  170.3070  136.4290 C   0  0  0  0  0  2  0  0  0  0  0  0
  195.6590  167.9960  137.9250 O   0  0  0  0  0  1  0  0  0  0  0  0
  196.7170  169.7750  136.7170 C   0  0  1  0  0  3  0  0  0  0  0  0
  196.6660  168.9550  138.0190 C   0  0  2  0  0  3  0  0  0  0  0  0
  194.1550  175.9730  136.0810 C   0  0  0  0  0  1  0  0  0  0  0  0
  192.9600  175.2060  136.0370 O   0  0  0  0  0  0  0  0  0  0  0  0
  185.7890  175.4050  136.7710 C   0  0  0  0  0  0  0  0  0  0  0  0
  184.6910  175.8950  136.6830 C   0  0  0  0  0  0  0  0  0  0  0  0
  183.3570  176.4930  136.5810 C   0  0  0  0  0  2  0  0  0  0  0  0
  182.8490  176.8190  137.9040 N   0  0  0  0  0  2  0  0  0  0  0  0
  184.3570  178.5660  138.2830 O   0  0  0  0  0  0  0  0  0  0  0  0
  183.3900  177.8730  138.7040 C   0  0  0  0  0  0  0  0  0  0  0  0
  182.7870  178.1530  140.0420 C   0  0  2  0  0  3  0  0  0  0  0  0
  181.3350  178.4890  139.9120 C   0  0  0  0  0  0  0  0  0  0  0  0
  180.4960  177.9160  140.6520 O   0  0  0  0  0  1  0  0  0  0  0  0
  180.9070  179.4190  138.9730 O   0  0  0  0  0  0  0  0  0  0  0  0
  183.5540  179.2550  140.7630 C   0  0  0  0  0  2  0  0  0  0  0  0
  182.1030  178.5450  143.4250 O   0  0  0  0  0  1  0  0  0  0  0  0
  183.3710  179.1270  143.3820 C   0  0  2  0  0  3  0  0  0  0  0  0
  184.0340  178.7810  142.0990 C   0  0  0  0  0  0  0  0  0  0  0  0
  185.1180  178.0420  142.2490 C   0  0  0  0  0  3  0  0  0  0  0  0
  184.2620  178.4870  144.4420 C   0  0  1  0  0  3  0  0  0  0  0  0
  185.3650  177.7480  143.6860 C   0  0  0  0  0  2  0  0  0  0  0  0
  184.8650  179.5730  145.3180 C   0  0  0  0  0  2  0  0  0  0  0  0
  185.2170  179.0250  146.6170 N   0  0  0  0  0  1  0  0  0  0  0  0
  188.3610  176.9630  137.2930 C   0  0  0  0  0  2  0  0  0  0  0  0
  187.5220  177.4010  138.3970 N   0  0  0  0  0  2  0  0  0  0  0  0
  189.7300  178.3710  138.7110 C   0  0  0  0  0  1  0  0  0  0  0  0
  188.2770  178.3770  139.1670 C   0  0  2  0  0  3  0  0  0  0  0  0
  188.2020  178.0100  140.6390 C   0  0  0  0  0  2  0  0  0  0  0  0
  189.2720  176.9910  140.9980 C   0  0  0  0  0  2  0  0  0  0  0  0
  189.0790  176.4880  142.7330 S   0  0  0  0  0  0  0  0  0  0  0  0
  192.2770  179.6340  144.0660 F   0  0  0  0  0  0  0  0  0  0  0  0
  189.2000  178.2040  143.3610 C   0  0  1  0  0  3  0  0  0  0  0  0
  189.2190  178.2870  144.8810 C   0  0  2  0  0  3  0  0  0  0  0  0
  192.2020  177.4290  143.5990 F   0  0  0  0  0  0  0  0  0  0  0  0
  191.4450  178.5380  143.9490 C   0  0  0  0  0  0  0  0  0  0  0  0
  190.6960  178.3280  145.2640 C   0  0  2  0  0  3  0  0  0  0  0  0
  190.4540  178.7900  142.9020 N   0  0  0  0  0  2  0  0  0  0  0  0
  188.3540  177.2360  145.6040 C   0  0  0  0  0  2  0  0  0  0  0  0
  191.1630  177.1210  146.0470 C   0  0  0  0  0  3  0  0  0  0  0  0
  190.3270  176.4730  146.8650 C   0  0  0  0  0  3  0  0  0  0  0  0
  188.9060  176.9330  146.9950 C   0  0  0  0  0  2  0  0  0  0  0  0
  1  4  2  0  0  0  0
  2  3  2  0  0  0  0
  3  5  1  0  0  0  0
  4  3  1  0  0  0  0
  4 43  1  0  0  0  0
  6  1  1  0  0  0  0
  6  2  1  0  0  0  0
  7 10  1  0  0  0  0
  7  8  2  0  0  0  0
  8  5  1  0  0  0  0
  9 13  1  0  0  0  0
 10 13  2  0  0  0  0
 11 12  2  0  0  0  0
 11 14  1  0  0  0  0
 12 10  1  0  0  0  0
 14  9  2  0  0  0  0
 15 18  1  0  0  0  0
 15 17  1  0  0  0  0
 17 16  1  0  0  0  0
 18 20  1  0  0  0  0
 20 14  1  1  0  0  0
 20 21  1  0  0  0  0
 21 19  1  6  0  0  0
 21 16  1  0  0  0  0
 23 22  1  0  0  0  0
 23  7  1  0  0  0  0
 24  1  1  0  0  0  0
 25 24  3  0  0  0  0
 26 25  1  0  0  0  0
 26 27  1  0  0  0  0
 27 29  1  0  0  0  0
 28 29  2  0  0  0  0
 29 30  1  0  0  0  0
 30 34  1  6  0  0  0
 31 30  1  0  0  0  0
 31 32  1  0  0  0  0
 33 31  2  0  0  0  0
 34 37  1  0  0  0  0
 36 35  1  6  0  0  0
 36 39  1  0  0  0  0
 37 38  2  0  0  0  0
 37 36  1  0  0  0  0
 38 40  1  0  0  0  0
 39 41  1  1  0  0  0
 40 39  1  0  0  0  0
 41 42  1  0  0  0  0
 43 44  1  0  0  0  0
 44 46  1  0  0  0  0
 46 45  1  6  0  0  0
 46 47  1  0  0  0  0
 47 48  1  0  0  0  0
 48 49  1  0  0  0  0
 51 49  1  1  0  0  0
 51 52  1  0  0  0  0
 52 55  1  0  0  0  0
 52 57  1  1  0  0  0
 53 54  1  0  0  0  0
 54 50  1  0  0  0  0
 54 55  1  0  0  0  0
 55 58  1  6  0  0  0
 56 51  1  0  0  0  0
 56 54  1  0  0  0  0
 57 60  1  0  0  0  0
 58 59  2  0  0  0  0
 59 60  1  0  0  0  0
M  END
>  <MODEL>
1

>  <REMARK>
 VINA RESULT:      -7.2      0.000      0.000
  Name = 
  19 active torsions:
  status: ('A' for Active; 'I' for Inactive)
    1  A    between atoms: C_1  and  C_24
    2  A    between atoms: C_1  and  N_42
    3  A    between atoms: C_4  and  C_19
    4  A    between atoms: C_6  and  S_50
    5  A    between atoms: C_7  and  C_9
    6  A    between atoms: C_9  and  O_56
    7  A    between atoms: C_14  and  C_37
    8  A    between atoms: C_19  and  C_44
    9  A    between atoms: C_19  and  C_51
   10  A    between atoms: N_26  and  C_53
   11  A    between atoms: N_27  and  N_57
   12  A    between atoms: C_29  and  C_44
   13  A    between atoms: C_30  and  C_34
   14  A    between atoms: C_30  and  S_50
   15  A    between atoms: C_34  and  C_43
   16  A    between atoms: C_38  and  C_54
   17  A    between atoms: N_42  and  C_43
   18  A    between atoms: C_47  and  C_53
   19  A    between atoms: C_52  and  C_58
                            x       y       z     vdW  Elec       q    Type
                         _______ _______ _______ _____ _____    ______ ____

>  <TORSDO>
F 19

$$$$
=
 OpenBabel10232409213D

 60 65  0  0  1  0  0  0  0  0999 V2000
  188.9020  177.7180  140.4790 C   0  0  0  0  0  0  0  0  0  0  0  0
  191.0310  177.0160  139.9090 N   0  0  0  0  0  0  0  0  0  0  0  0
  190.3040  177.1470  138.8480 C   0  0  0  0  0  0  0  0  0  0  0  0
  188.9650  177.5980  139.1610 C   0  0  0  0  0  0  0  0  0  0  0  0
  190.8100  176.9840  137.5180 N   0  0  0  0  0  2  0  0  0  0  0  0
  190.2150  177.3380  141.0780 C   0  0  0  0  0  2  0  0  0  0  0  0
  192.2620  175.1800  136.9220 C   0  0  0  0  0  0  0  0  0  0  0  0
  192.0680  176.4310  137.2220 N   0  0  0  0  0  0  0  0  0  0  0  0
  195.4030  174.0640  135.1210 C   0  0  0  0  0  3  0  0  0  0  0  0
  193.6540  174.7230  136.6800 C   0  0  0  0  0  0  0  0  0  0  0  0
  195.8180  173.9750  137.5010 C   0  0  0  0  0  3  0  0  0  0  0  0
  194.5220  174.4360  137.7430 C   0  0  0  0  0  3  0  0  0  0  0  0
  194.1070  174.5240  135.3670 C   0  0  0  0  0  3  0  0  0  0  0  0
  196.2660  173.7880  136.1910 C   0  0  0  0  0  0  0  0  0  0  0  0
  199.1140  171.6190  134.7480 C   0  0  0  0  0  2  0  0  0  0  0  0
  199.8110  174.0470  134.7650 C   0  0  0  0  0  2  0  0  0  0  0  0
  200.2310  172.6150  135.0840 C   0  0  0  0  0  2  0  0  0  0  0  0
  197.7020  172.1980  134.9050 C   0  0  0  0  0  2  0  0  0  0  0  0
  199.0420  175.0870  136.7780 O   0  0  0  0  0  1  0  0  0  0  0  0
  197.6620  173.3060  135.9590 C   0  0  1  0  0  3  0  0  0  0  0  0
  198.6030  174.4730  135.6060 C   0  0  2  0  0  3  0  0  0  0  0  0
  191.1020  173.2160  135.9130 C   0  0  0  0  0  1  0  0  0  0  0  0
  191.1560  174.3260  136.7980 O   0  0  0  0  0  0  0  0  0  0  0  0
  187.7600  178.1750  141.2230 C   0  0  0  0  0  0  0  0  0  0  0  0
  186.8040  178.5650  141.8460 C   0  0  0  0  0  0  0  0  0  0  0  0
  185.6440  179.0440  142.6020 C   0  0  0  0  0  2  0  0  0  0  0  0
  185.9420  179.0610  144.0250 N   0  0  0  0  0  2  0  0  0  0  0  0
  186.5420  176.8030  144.1400 O   0  0  0  0  0  0  0  0  0  0  0  0
  186.3940  177.9050  144.7360 C   0  0  0  0  0  0  0  0  0  0  0  0
  186.7010  178.0230  146.1930 C   0  0  2  0  0  3  0  0  0  0  0  0
  185.6090  178.7530  146.9100 C   0  0  0  0  0  0  0  0  0  0  0  0
  184.4110  178.4270  146.7160 O   0  0  0  0  0  0  0  0  0  0  0  0
  185.9090  179.7940  147.7800 O   0  0  0  0  0  1  0  0  0  0  0  0
  188.0550  178.6860  146.4110 C   0  0  0  0  0  2  0  0  0  0  0  0
  188.6600  175.9930  147.8510 O   0  0  0  0  0  1  0  0  0  0  0  0
  189.6600  176.8720  147.4330 C   0  0  2  0  0  3  0  0  0  0  0  0
  189.1620  177.6860  146.2950 C   0  0  0  0  0  0  0  0  0  0  0  0
  189.8170  177.4720  145.1680 C   0  0  0  0  0  3  0  0  0  0  0  0
  190.8200  176.0800  146.8400 C   0  0  1  0  0  3  0  0  0  0  0  0
  190.8780  176.4470  145.3580 C   0  0  0  0  0  2  0  0  0  0  0  0
  192.1120  176.4840  147.5310 C   0  0  0  0  0  2  0  0  0  0  0  0
  191.8460  177.5110  148.5240 N   0  0  0  0  0  1  0  0  0  0  0  0
  187.8820  177.9120  138.1840 C   0  0  0  0  0  2  0  0  0  0  0  0
  187.0200  176.7530  138.0180 N   0  0  0  0  0  2  0  0  0  0  0  0
  186.6700  178.0480  135.9890 C   0  0  0  0  0  1  0  0  0  0  0  0
  186.6750  176.6560  136.6080 C   0  0  2  0  0  3  0  0  0  0  0  0
  185.2960  176.0350  136.4780 C   0  0  0  0  0  2  0  0  0  0  0  0
  184.3730  176.9310  135.6690 C   0  0  0  0  0  2  0  0  0  0  0  0
  182.8640  177.2740  136.6210 S   0  0  0  0  0  0  0  0  0  0  0  0
  180.4360  173.8710  138.7240 F   0  0  0  0  0  0  0  0  0  0  0  0
  183.1090  175.8420  137.7370 C   0  0  1  0  0  3  0  0  0  0  0  0
  182.9290  176.1910  139.2090 C   0  0  2  0  0  3  0  0  0  0  0  0
  180.0030  175.7830  137.6110 F   0  0  0  0  0  0  0  0  0  0  0  0
  180.9690  175.0760  138.3110 C   0  0  0  0  0  0  0  0  0  0  0  0
  181.4750  175.8490  139.5280 C   0  0  2  0  0  3  0  0  0  0  0  0
  182.1100  174.8250  137.4310 N   0  0  0  0  0  2  0  0  0  0  0  0
  183.4040  177.6010  139.6100 C   0  0  0  0  0  2  0  0  0  0  0  0
  180.6250  177.0480  139.8870 C   0  0  0  0  0  3  0  0  0  0  0  0
  181.1640  178.1080  140.5000 C   0  0  0  0  0  3  0  0  0  0  0  0
  182.6290  178.1190  140.8190 C   0  0  0  0  0  2  0  0  0  0  0  0
  1  6  1  0  0  0  0
  1 24  1  0  0  0  0
  2  6  1  0  0  0  0
  3  4  1  0  0  0  0
  3  2  2  0  0  0  0
  4  1  2  0  0  0  0
  5  3  1  0  0  0  0
  7  8  2  0  0  0  0
  8  5  1  0  0  0  0
  9 13  2  0  0  0  0
  9 14  1  0  0  0  0
 10  7  1  0  0  0  0
 10 12  2  0  0  0  0
 11 12  1  0  0  0  0
 13 10  1  0  0  0  0
 14 11  2  0  0  0  0
 15 18  1  0  0  0  0
 15 17  1  0  0  0  0
 16 17  1  0  0  0  0
 16 21  1  0  0  0  0
 18 20  1  0  0  0  0
 20 14  1  6  0  0  0
 21 20  1  0  0  0  0
 21 19  1  1  0  0  0
 22 23  1  0  0  0  0
 23  7  1  0  0  0  0
 24 25  3  0  0  0  0
 25 26  1  0  0  0  0
 26 27  1  0  0  0  0
 27 29  1  0  0  0  0
 28 29  2  0  0  0  0
 29 30  1  0  0  0  0
 30 34  1  6  0  0  0
 30 31  1  0  0  0  0
 31 33  1  0  0  0  0
 32 31  2  0  0  0  0
 36 35  1  6  0  0  0
 37 34  1  0  0  0  0
 37 36  1  0  0  0  0
 38 40  1  0  0  0  0
 38 37  2  0  0  0  0
 39 36  1  0  0  0  0
 39 41  1  1  0  0  0
 40 39  1  0  0  0  0
 41 42  1  0  0  0  0
 43  4  1  0  0  0  0
 44 43  1  0  0  0  0
 46 45  1  1  0  0  0
 46 44  1  0  0  0  0
 47 46  1  0  0  0  0
 48 47  1  0  0  0  0
 48 49  1  0  0  0  0
 51 49  1  6  0  0  0
 51 52  1  0  0  0  0
 52 55  1  0  0  0  0
 52 57  1  6  0  0  0
 53 54  1  0  0  0  0
 54 50  1  0  0  0  0
 54 55  1  0  0  0  0
 55 58  1  6  0  0  0
 56 51  1  0  0  0  0
 56 54  1  0  0  0  0
 57 60  1  0  0  0  0
 58 59  2  0  0  0  0
 59 60  1  0  0  0  0
M  END
>  <MODEL>
2

>  <REMARK>
 VINA RESULT:      -6.9      3.986      7.009
  Name = 
  19 active torsions:
  status: ('A' for Active; 'I' for Inactive)
    1  A    between atoms: C_1  and  C_24
    2  A    between atoms: C_1  and  N_42
    3  A    between atoms: C_4  and  C_19
    4  A    between atoms: C_6  and  S_50
    5  A    between atoms: C_7  and  C_9
    6  A    between atoms: C_9  and  O_56
    7  A    between atoms: C_14  and  C_37
    8  A    between atoms: C_19  and  C_44
    9  A    between atoms: C_19  and  C_51
   10  A    between atoms: N_26  and  C_53
   11  A    between atoms: N_27  and  N_57
   12  A    between atoms: C_29  and  C_44
   13  A    between atoms: C_30  and  C_34
   14  A    between atoms: C_30  and  S_50
   15  A    between atoms: C_34  and  C_43
   16  A    between atoms: C_38  and  C_54
   17  A    between atoms: N_42  and  C_43
   18  A    between atoms: C_47  and  C_53
   19  A    between atoms: C_52  and  C_58
                            x       y       z     vdW  Elec       q    Type
                         _______ _______ _______ _____ _____    ______ ____

>  <TORSDO>
F 19

$$$$
=
 OpenBabel10232409213D

 60 65  0  0  1  0  0  0  0  0999 V2000
  188.2160  174.8040  136.9420 C   0  0  0  0  0  0  0  0  0  0  0  0
  190.1290  173.5040  136.9820 N   0  0  0  0  0  0  0  0  0  0  0  0
  190.3830  174.6880  137.4340 C   0  0  0  0  0  0  0  0  0  0  0  0
  189.2080  175.5300  137.4380 C   0  0  0  0  0  0  0  0  0  0  0  0
  191.6510  175.0690  137.9800 N   0  0  0  0  0  2  0  0  0  0  0  0
  188.7230  173.4460  136.5880 C   0  0  0  0  0  2  0  0  0  0  0  0
  193.8580  174.6420  137.1650 C   0  0  0  0  0  0  0  0  0  0  0  0
  192.8190  174.2940  137.8650 N   0  0  0  0  0  0  0  0  0  0  0  0
  195.8530  171.4210  137.1790 C   0  0  0  0  0  3  0  0  0  0  0  0
  195.0040  173.7010  137.0920 C   0  0  0  0  0  0  0  0  0  0  0  0
  197.3920  173.2670  136.9210 C   0  0  0  0  0  3  0  0  0  0  0  0
  196.3200  174.1630  136.9550 C   0  0  0  0  0  3  0  0  0  0  0  0
  194.7840  172.3200  137.2130 C   0  0  0  0  0  3  0  0  0  0  0  0
  197.1650  171.8940  137.0320 C   0  0  0  0  0  0  0  0  0  0  0  0
  199.2840  168.7670  137.8290 C   0  0  0  0  0  2  0  0  0  0  0  0
  199.4260  169.2920  135.3620 C   0  0  0  0  0  2  0  0  0  0  0  0
  200.2100  168.9140  136.6150 C   0  0  0  0  0  2  0  0  0  0  0  0
  198.0510  169.6810  137.7800 C   0  0  0  0  0  2  0  0  0  0  0  0
  199.5670  171.6610  135.0550 O   0  0  0  0  0  1  0  0  0  0  0  0
  198.3270  170.9550  136.9810 C   0  0  1  0  0  3  0  0  0  0  0  0
  198.7330  170.6490  135.5270 C   0  0  2  0  0  3  0  0  0  0  0  0
  193.3850  176.1520  135.2360 C   0  0  0  0  0  1  0  0  0  0  0  0
  193.8760  175.9010  136.5460 O   0  0  0  0  0  0  0  0  0  0  0  0
  186.8540  175.2390  136.7960 C   0  0  0  0  0  0  0  0  0  0  0  0
  185.7100  175.6020  136.6800 C   0  0  0  0  0  0  0  0  0  0  0  0
  184.3200  176.0450  136.5450 C   0  0  0  0  0  2  0  0  0  0  0  0
  183.9530  176.9020  137.6620 N   0  0  0  0  0  2  0  0  0  0  0  0
  182.6200  178.3430  136.3900 O   0  0  0  0  0  0  0  0  0  0  0  0
  183.0930  178.0350  137.5190 C   0  0  0  0  0  0  0  0  0  0  0  0
  182.7510  178.8440  138.7270 C   0  0  2  0  0  3  0  0  0  0  0  0
  181.5940  179.7510  138.4500 C   0  0  0  0  0  0  0  0  0  0  0  0
  180.4970  179.2640  138.0770 O   0  0  0  0  0  0  0  0  0  0  0  0
  181.7260  181.1270  138.5910 O   0  0  0  0  0  1  0  0  0  0  0  0
  183.9650  179.6210  139.2220 C   0  0  0  0  0  2  0  0  0  0  0  0
  183.0850  177.2070  140.9800 O   0  0  0  0  0  1  0  0  0  0  0  0
  183.6260  178.3780  141.5130 C   0  0  2  0  0  3  0  0  0  0  0  0
  184.4860  179.0360  140.4970 C   0  0  0  0  0  0  0  0  0  0  0  0
  185.7590  179.0920  140.8420 C   0  0  0  0  0  3  0  0  0  0  0  0
  184.5890  178.0270  142.6420 C   0  0  1  0  0  3  0  0  0  0  0  0
  185.9780  178.4560  142.1690 C   0  0  0  0  0  2  0  0  0  0  0  0
  184.2010  178.7960  143.8940 C   0  0  0  0  0  2  0  0  0  0  0  0
  182.9160  179.4450  143.7020 N   0  0  0  0  0  1  0  0  0  0  0  0
  189.1190  176.9300  137.9460 C   0  0  0  0  0  2  0  0  0  0  0  0
  188.3880  176.9510  139.2030 N   0  0  0  0  0  2  0  0  0  0  0  0
  190.6560  177.7180  139.6290 C   0  0  0  0  0  1  0  0  0  0  0  0
  189.2660  177.5140  140.2160 C   0  0  2  0  0  3  0  0  0  0  0  0
  189.3440  176.5550  141.3910 C   0  0  0  0  0  2  0  0  0  0  0  0
  190.5520  176.8610  142.2610 C   0  0  0  0  0  2  0  0  0  0  0  0
  190.3810  176.0220  143.8630 S   0  0  0  0  0  0  0  0  0  0  0  0
  191.7940  177.2520  148.1510 F   0  0  0  0  0  0  0  0  0  0  0  0
  190.8810  177.5030  144.8180 C   0  0  1  0  0  3  0  0  0  0  0  0
  189.7230  178.1580  145.5590 C   0  0  2  0  0  3  0  0  0  0  0  0
  190.8990  175.4420  147.1460 F   0  0  0  0  0  0  0  0  0  0  0  0
  191.0860  176.8130  147.0490 C   0  0  0  0  0  0  0  0  0  0  0  0
  189.7600  177.5680  146.9670 C   0  0  2  0  0  3  0  0  0  0  0  0
  191.8480  177.1070  145.8360 N   0  0  0  0  0  2  0  0  0  0  0  0
  188.3660  178.1040  144.8300 C   0  0  0  0  0  2  0  0  0  0  0  0
  188.5540  176.7230  147.3120 C   0  0  0  0  0  3  0  0  0  0  0  0
  187.3560  176.9960  146.7840 C   0  0  0  0  0  3  0  0  0  0  0  0
  187.2070  178.1370  145.8230 C   0  0  0  0  0  2  0  0  0  0  0  0
  1  4  2  0  0  0  0
  2  3  2  0  0  0  0
  3  4  1  0  0  0  0
  3  5  1  0  0  0  0
  4 43  1  0  0  0  0
  6  1  1  0  0  0  0
  6  2  1  0  0  0  0
  7  8  2  0  0  0  0
  8  5  1  0  0  0  0
  9 13  1  0  0  0  0
 10  7  1  0  0  0  0
 10 13  2  0  0  0  0
 11 12  2  0  0  0  0
 11 14  1  0  0  0  0
 12 10  1  0  0  0  0
 14  9  2  0  0  0  0
 16 21  1  0  0  0  0
 16 17  1  0  0  0  0
 17 15  1  0  0  0  0
 18 15  1  0  0  0  0
 20 14  1  6  0  0  0
 20 18  1  0  0  0  0
 21 19  1  1  0  0  0
 21 20  1  0  0  0  0
 22 23  1  0  0  0  0
 23  7  1  0  0  0  0
 24  1  1  0  0  0  0
 25 24  3  0  0  0  0
 26 25  1  0  0  0  0
 26 27  1  0  0  0  0
 28 29  2  0  0  0  0
 29 27  1  0  0  0  0
 29 30  1  0  0  0  0
 30 34  1  6  0  0  0
 31 33  1  0  0  0  0
 31 30  1  0  0  0  0
 32 31  2  0  0  0  0
 34 37  1  0  0  0  0
 36 35  1  6  0  0  0
 36 39  1  0  0  0  0
 37 38  2  0  0  0  0
 37 36  1  0  0  0  0
 38 40  1  0  0  0  0
 39 41  1  1  0  0  0
 40 39  1  0  0  0  0
 42 41  1  0  0  0  0
 43 44  1  0  0  0  0
 44 46  1  0  0  0  0
 46 45  1  6  0  0  0
 46 47  1  0  0  0  0
 47 48  1  0  0  0  0
 48 49  1  0  0  0  0
 51 49  1  1  0  0  0
 51 52  1  0  0  0  0
 51 56  1  0  0  0  0
 52 57  1  6  0  0  0
 52 55  1  0  0  0  0
 54 53  1  0  0  0  0
 54 50  1  0  0  0  0
 55 54  1  0  0  0  0
 55 58  1  6  0  0  0
 56 54  1  0  0  0  0
 57 60  1  0  0  0  0
 59 58  2  0  0  0  0
 60 59  1  0  0  0  0
M  END
>  <MODEL>
3

>  <REMARK>
 VINA RESULT:      -6.8      1.841      2.322
  Name = 
  19 active torsions:
  status: ('A' for Active; 'I' for Inactive)
    1  A    between atoms: C_1  and  C_24
    2  A    between atoms: C_1  and  N_42
    3  A    between atoms: C_4  and  C_19
    4  A    between atoms: C_6  and  S_50
    5  A    between atoms: C_7  and  C_9
    6  A    between atoms: C_9  and  O_56
    7  A    between atoms: C_14  and  C_37
    8  A    between atoms: C_19  and  C_44
    9  A    between atoms: C_19  and  C_51
   10  A    between atoms: N_26  and  C_53
   11  A    between atoms: N_27  and  N_57
   12  A    between atoms: C_29  and  C_44
   13  A    between atoms: C_30  and  C_34
   14  A    between atoms: C_30  and  S_50
   15  A    between atoms: C_34  and  C_43
   16  A    between atoms: C_38  and  C_54
   17  A    between atoms: N_42  and  C_43
   18  A    between atoms: C_47  and  C_53
   19  A    between atoms: C_52  and  C_58
                            x       y       z     vdW  Elec       q    Type
                         _______ _______ _______ _____ _____    ______ ____

>  <TORSDO>
F 19

$$$$
=
 OpenBabel10232409213D

 60 65  0  0  1  0  0  0  0  0999 V2000
  189.2130  177.0690  141.8160 C   0  0  0  0  0  0  0  0  0  0  0  0
  191.2610  176.2640  141.1020 N   0  0  0  0  0  0  0  0  0  0  0  0
  190.7130  176.9780  140.1740 C   0  0  0  0  0  0  0  0  0  0  0  0
  189.4330  177.5110  140.5870 C   0  0  0  0  0  0  0  0  0  0  0  0
  191.3600  177.2980  138.9380 N   0  0  0  0  0  2  0  0  0  0  0  0
  190.3570  176.2140  142.2500 C   0  0  0  0  0  2  0  0  0  0  0  0
  192.6060  175.4610  138.0490 C   0  0  0  0  0  0  0  0  0  0  0  0
  192.5430  176.6830  138.4910 N   0  0  0  0  0  0  0  0  0  0  0  0
  195.7140  174.7360  136.0060 C   0  0  0  0  0  3  0  0  0  0  0  0
  193.9340  174.9250  137.6560 C   0  0  0  0  0  0  0  0  0  0  0  0
  195.8740  173.5240  138.0910 C   0  0  0  0  0  3  0  0  0  0  0  0
  194.6410  174.0470  138.4890 C   0  0  0  0  0  3  0  0  0  0  0  0
  194.4810  175.2560  136.4060 C   0  0  0  0  0  3  0  0  0  0  0  0
  196.4170  173.8650  136.8510 C   0  0  0  0  0  0  0  0  0  0  0  0
  198.9740  171.8060  134.8210 C   0  0  0  0  0  2  0  0  0  0  0  0
  199.9510  174.0660  135.3870 C   0  0  0  0  0  2  0  0  0  0  0  0
  200.2040  172.5620  135.3390 C   0  0  0  0  0  2  0  0  0  0  0  0
  197.6420  172.4830  135.1670 C   0  0  0  0  0  2  0  0  0  0  0  0
  199.3330  174.6680  137.6190 O   0  0  0  0  0  1  0  0  0  0  0  0
  197.7450  173.3020  136.4550 C   0  0  1  0  0  3  0  0  0  0  0  0
  198.8110  174.4080  136.3530 C   0  0  2  0  0  3  0  0  0  0  0  0
  191.1110  173.9070  136.7960 C   0  0  0  0  0  1  0  0  0  0  0  0
  191.4240  174.7170  137.9210 O   0  0  0  0  0  0  0  0  0  0  0  0
  188.0690  177.3860  142.6270 C   0  0  0  0  0  0  0  0  0  0  0  0
  187.1140  177.6550  143.3110 C   0  0  0  0  0  0  0  0  0  0  0  0
  185.9550  177.9860  144.1450 C   0  0  0  0  0  2  0  0  0  0  0  0
  184.7380  177.9640  143.3490 N   0  0  0  0  0  2  0  0  0  0  0  0
  185.3720  179.7290  141.9510 O   0  0  0  0  0  0  0  0  0  0  0  0
  184.5100  178.8610  142.2590 C   0  0  0  0  0  0  0  0  0  0  0  0
  183.2400  178.7490  141.4800 C   0  0  2  0  0  3  0  0  0  0  0  0
  182.0510  178.9260  142.3710 C   0  0  0  0  0  0  0  0  0  0  0  0
  180.9100  179.0680  141.8640 O   0  0  0  0  0  0  0  0  0  0  0  0
  182.2020  178.9470  143.7520 O   0  0  0  0  0  1  0  0  0  0  0  0
  183.1810  177.4270  140.7240 C   0  0  0  0  0  2  0  0  0  0  0  0
  184.0890  178.0910  137.8210 O   0  0  0  0  0  1  0  0  0  0  0  0
  182.8700  178.5160  138.3520 C   0  0  2  0  0  3  0  0  0  0  0  0
  182.4470  177.5860  139.4310 C   0  0  0  0  0  0  0  0  0  0  0  0
  181.3310  176.9360  139.1560 C   0  0  0  0  0  3  0  0  0  0  0  0
  181.7780  178.3790  137.2970 C   0  0  1  0  0  3  0  0  0  0  0  0
  180.8120  177.3150  137.8150 C   0  0  0  0  0  2  0  0  0  0  0  0
  181.0580  179.7080  137.1400 C   0  0  0  0  0  2  0  0  0  0  0  0
  181.6650  180.7080  138.0020 N   0  0  0  0  0  1  0  0  0  0  0  0
  188.5540  178.4230  139.7980 C   0  0  0  0  0  2  0  0  0  0  0  0
  187.5930  177.6410  139.0360 N   0  0  0  0  0  2  0  0  0  0  0  0
  187.2500  178.1120  136.6740 C   0  0  0  0  0  1  0  0  0  0  0  0
  188.1440  177.4360  137.7060 C   0  0  2  0  0  3  0  0  0  0  0  0
  188.2110  175.9450  137.4240 C   0  0  0  0  0  2  0  0  0  0  0  0
  187.3230  175.5760  136.2470 C   0  0  0  0  0  2  0  0  0  0  0  0
  186.5080  173.9840  136.5710 S   0  0  0  0  0  0  0  0  0  0  0  0
  182.2360  175.5580  135.4910 F   0  0  0  0  0  0  0  0  0  0  0  0
  185.3790  174.1440  135.1370 C   0  0  1  0  0  3  0  0  0  0  0  0
  184.4330  172.9610  134.9850 C   0  0  2  0  0  3  0  0  0  0  0  0
  183.4290  175.1190  137.3530 F   0  0  0  0  0  0  0  0  0  0  0  0
  183.3200  174.8660  135.9940 C   0  0  0  0  0  0  0  0  0  0  0  0
  183.1500  173.3770  135.7010 C   0  0  2  0  0  3  0  0  0  0  0  0
  184.5390  175.3210  135.3240 N   0  0  0  0  0  2  0  0  0  0  0  0
  185.0250  171.5940  135.3810 C   0  0  0  0  0  2  0  0  0  0  0  0
  182.8300  172.5460  136.9240 C   0  0  0  0  0  3  0  0  0  0  0  0
  183.1880  171.2580  136.9860 C   0  0  0  0  0  3  0  0  0  0  0  0
  183.9310  170.6350  135.8440 C   0  0  0  0  0  2  0  0  0  0  0  0
  1  6  1  0  0  0  0
  1 24  1  0  0  0  0
  2  6  1  0  0  0  0
  3  4  1  0  0  0  0
  3  2  2  0  0  0  0
  4  1  2  0  0  0  0
  5  3  1  0  0  0  0
  7  8  2  0  0  0  0
  8  5  1  0  0  0  0
  9 13  2  0  0  0  0
  9 14  1  0  0  0  0
 10  7  1  0  0  0  0
 10 12  2  0  0  0  0
 11 12  1  0  0  0  0
 13 10  1  0  0  0  0
 14 11  2  0  0  0  0
 15 18  1  0  0  0  0
 15 17  1  0  0  0  0
 16 21  1  0  0  0  0
 17 16  1  0  0  0  0
 18 20  1  0  0  0  0
 20 14  1  6  0  0  0
 21 20  1  0  0  0  0
 21 19  1  1  0  0  0
 22 23  1  0  0  0  0
 23  7  1  0  0  0  0
 24 25  3  0  0  0  0
 25 26  1  0  0  0  0
 27 26  1  0  0  0  0
 28 29  2  0  0  0  0
 29 27  1  0  0  0  0
 30 34  1  1  0  0  0
 30 29  1  0  0  0  0
 30 31  1  0  0  0  0
 31 33  1  0  0  0  0
 32 31  2  0  0  0  0
 36 35  1  6  0  0  0
 36 37  1  0  0  0  0
 37 34  1  0  0  0  0
 38 37  2  0  0  0  0
 39 41  1  1  0  0  0
 39 40  1  0  0  0  0
 39 36  1  0  0  0  0
 40 38  1  0  0  0  0
 41 42  1  0  0  0  0
 43  4  1  0  0  0  0
 44 43  1  0  0  0  0
 46 45  1  6  0  0  0
 46 44  1  0  0  0  0
 47 46  1  0  0  0  0
 48 49  1  0  0  0  0
 48 47  1  0  0  0  0
 50 54  1  0  0  0  0
 51 56  1  0  0  0  0
 51 49  1  1  0  0  0
 52 51  1  0  0  0  0
 52 57  1  1  0  0  0
 52 55  1  0  0  0  0
 54 53  1  0  0  0  0
 55 54  1  0  0  0  0
 55 58  1  1  0  0  0
 56 54  1  0  0  0  0
 57 60  1  0  0  0  0
 58 59  2  0  0  0  0
 60 59  1  0  0  0  0
M  END
>  <MODEL>
4

>  <REMARK>
 VINA RESULT:      -6.7      3.522      6.920
  Name = 
  19 active torsions:
  status: ('A' for Active; 'I' for Inactive)
    1  A    between atoms: C_1  and  C_24
    2  A    between atoms: C_1  and  N_42
    3  A    between atoms: C_4  and  C_19
    4  A    between atoms: C_6  and  S_50
    5  A    between atoms: C_7  and  C_9
    6  A    between atoms: C_9  and  O_56
    7  A    between atoms: C_14  and  C_37
    8  A    between atoms: C_19  and  C_44
    9  A    between atoms: C_19  and  C_51
   10  A    between atoms: N_26  and  C_53
   11  A    between atoms: N_27  and  N_57
   12  A    between atoms: C_29  and  C_44
   13  A    between atoms: C_30  and  C_34
   14  A    between atoms: C_30  and  S_50
   15  A    between atoms: C_34  and  C_43
   16  A    between atoms: C_38  and  C_54
   17  A    between atoms: N_42  and  C_43
   18  A    between atoms: C_47  and  C_53
   19  A    between atoms: C_52  and  C_58
                            x       y       z     vdW  Elec       q    Type
                         _______ _______ _______ _____ _____    ______ ____

>  <TORSDO>
F 19

$$$$
=
 OpenBabel10232409213D

 60 65  0  0  1  0  0  0  0  0999 V2000
  186.5000  174.7090  136.6560 C   0  0  0  0  0  0  0  0  0  0  0  0
  188.3230  173.3010  136.8620 N   0  0  0  0  0  0  0  0  0  0  0  0
  188.6960  174.5340  136.9660 C   0  0  0  0  0  0  0  0  0  0  0  0
  187.5810  175.4480  136.8540 C   0  0  0  0  0  0  0  0  0  0  0  0
  190.0360  174.9310  137.2780 N   0  0  0  0  0  2  0  0  0  0  0  0
  186.8810  173.2660  136.6250 C   0  0  0  0  0  2  0  0  0  0  0  0
  192.1940  174.2230  136.5270 C   0  0  0  0  0  0  0  0  0  0  0  0
  191.1360  174.0540  137.2640 N   0  0  0  0  0  0  0  0  0  0  0  0
  194.0430  170.9580  136.0020 C   0  0  0  0  0  3  0  0  0  0  0  0
  193.2580  173.1890  136.5780 C   0  0  0  0  0  0  0  0  0  0  0  0
  195.4220  172.4020  137.3640 C   0  0  0  0  0  3  0  0  0  0  0  0
  194.4430  173.3970  137.2970 C   0  0  0  0  0  3  0  0  0  0  0  0
  193.0660  171.9550  135.9390 C   0  0  0  0  0  3  0  0  0  0  0  0
  195.2280  171.1800  136.7180 C   0  0  0  0  0  0  0  0  0  0  0  0
  198.7770  169.7050  137.0780 C   0  0  0  0  0  2  0  0  0  0  0  0
  197.1320  168.3080  138.3920 C   0  0  0  0  0  2  0  0  0  0  0  0
  198.3030  168.2850  137.4140 C   0  0  0  0  0  2  0  0  0  0  0  0
  197.6580  170.7540  137.1160 C   0  0  0  0  0  2  0  0  0  0  0  0
  195.0970  168.0920  137.1520 O   0  0  0  0  0  1  0  0  0  0  0  0
  196.2960  170.1360  136.7940 C   0  0  1  0  0  3  0  0  0  0  0  0
  195.9180  169.0220  137.7870 C   0  0  2  0  0  3  0  0  0  0  0  0
  193.5280  175.8490  135.1860 C   0  0  0  0  0  1  0  0  0  0  0  0
  192.3090  175.3870  135.7510 O   0  0  0  0  0  0  0  0  0  0  0  0
  185.1580  175.2080  136.5240 C   0  0  0  0  0  0  0  0  0  0  0  0
  184.0320  175.6250  136.4200 C   0  0  0  0  0  0  0  0  0  0  0  0
  182.6630  176.1330  136.2990 C   0  0  0  0  0  2  0  0  0  0  0  0
  182.2950  176.8780  137.4940 N   0  0  0  0  0  2  0  0  0  0  0  0
  182.4650  178.9830  136.4890 O   0  0  0  0  0  0  0  0  0  0  0  0
  182.2090  178.3050  137.5210 C   0  0  0  0  0  0  0  0  0  0  0  0
  181.7980  178.9830  138.7870 C   0  0  2  0  0  3  0  0  0  0  0  0
  180.5420  179.7720  138.5860 C   0  0  0  0  0  0  0  0  0  0  0  0
  179.9850  180.3170  139.5720 O   0  0  0  0  0  1  0  0  0  0  0  0
  179.9820  179.8950  137.3200 O   0  0  0  0  0  0  0  0  0  0  0  0
  182.9260  179.8550  139.3270 C   0  0  0  0  0  2  0  0  0  0  0  0
  181.9230  178.1900  141.7580 O   0  0  0  0  0  1  0  0  0  0  0  0
  183.0350  179.0310  141.8200 C   0  0  2  0  0  3  0  0  0  0  0  0
  183.6230  179.1780  140.4640 C   0  0  0  0  0  0  0  0  0  0  0  0
  184.8440  178.6860  140.3640 C   0  0  0  0  0  3  0  0  0  0  0  0
  184.1380  178.3590  142.6300 C   0  0  1  0  0  3  0  0  0  0  0  0
  185.2880  178.1000  141.6570 C   0  0  0  0  0  2  0  0  0  0  0  0
  184.5920  179.2930  143.7390 C   0  0  0  0  0  2  0  0  0  0  0  0
  183.6500  179.2460  144.8460 N   0  0  0  0  0  1  0  0  0  0  0  0
  187.6320  176.9340  136.9850 C   0  0  0  0  0  2  0  0  0  0  0  0
  187.8190  177.2970  138.3810 N   0  0  0  0  0  2  0  0  0  0  0  0
  189.3250  178.6900  137.0740 C   0  0  0  0  0  1  0  0  0  0  0  0
  188.6370  178.4980  138.4200 C   0  0  2  0  0  3  0  0  0  0  0  0
  189.6830  178.3490  139.5110 C   0  0  0  0  0  2  0  0  0  0  0  0
  189.1410  177.5330  140.6730 C   0  0  0  0  0  2  0  0  0  0  0  0
  190.2870  177.6350  142.0790 S   0  0  0  0  0  0  0  0  0  0  0  0
  186.5750  176.6430  144.7500 F   0  0  0  0  0  0  0  0  0  0  0  0
  189.5110  176.2270  142.9570 C   0  0  1  0  0  3  0  0  0  0  0  0
  189.9550  176.1070  144.4090 C   0  0  2  0  0  3  0  0  0  0  0  0
  187.6210  178.4800  143.9660 F   0  0  0  0  0  0  0  0  0  0  0  0
  187.7600  177.1260  144.2310 C   0  0  0  0  0  0  0  0  0  0  0  0
  188.8940  176.8490  145.2170 C   0  0  2  0  0  3  0  0  0  0  0  0
  188.0660  176.4240  142.9850 N   0  0  0  0  0  2  0  0  0  0  0  0
  191.4210  176.5000  144.6790 C   0  0  0  0  0  2  0  0  0  0  0  0
  189.4090  178.0860  145.9200 C   0  0  0  0  0  3  0  0  0  0  0  0
  190.6750  178.1510  146.3470 C   0  0  0  0  0  3  0  0  0  0  0  0
  191.6010  176.9960  146.1110 C   0  0  0  0  0  2  0  0  0  0  0  0
  1  4  2  0  0  0  0
  2  3  2  0  0  0  0
  3  5  1  0  0  0  0
  4  3  1  0  0  0  0
  4 43  1  0  0  0  0
  6  1  1  0  0  0  0
  6  2  1  0  0  0  0
  7 10  1  0  0  0  0
  7  8  2  0  0  0  0
  8  5  1  0  0  0  0
  9 14  1  0  0  0  0
 10 12  2  0  0  0  0
 12 11  1  0  0  0  0
 13  9  2  0  0  0  0
 13 10  1  0  0  0  0
 14 11  2  0  0  0  0
 15 18  1  0  0  0  0
 15 17  1  0  0  0  0
 17 16  1  0  0  0  0
 20 14  1  1  0  0  0
 20 18  1  0  0  0  0
 20 21  1  0  0  0  0
 21 19  1  6  0  0  0
 21 16  1  0  0  0  0
 22 23  1  0  0  0  0
 23  7  1  0  0  0  0
 24  1  1  0  0  0  0
 25 24  3  0  0  0  0
 26 25  1  0  0  0  0
 26 27  1  0  0  0  0
 27 29  1  0  0  0  0
 28 29  2  0  0  0  0
 29 30  1  0  0  0  0
 30 34  1  6  0  0  0
 31 30  1  0  0  0  0
 31 32  1  0  0  0  0
 33 31  2  0  0  0  0
 34 37  1  0  0  0  0
 36 35  1  6  0  0  0
 36 39  1  0  0  0  0
 37 36  1  0  0  0  0
 38 37  2  0  0  0  0
 38 40  1  0  0  0  0
 39 41  1  1  0  0  0
 40 39  1  0  0  0  0
 41 42  1  0  0  0  0
 43 44  1  0  0  0  0
 44 46  1  0  0  0  0
 46 45  1  6  0  0  0
 46 47  1  0  0  0  0
 47 48  1  0  0  0  0
 48 49  1  0  0  0  0
 51 49  1  1  0  0  0
 51 56  1  0  0  0  0
 51 52  1  0  0  0  0
 52 57  1  6  0  0  0
 52 55  1  0  0  0  0
 53 54  1  0  0  0  0
 54 50  1  0  0  0  0
 54 55  1  0  0  0  0
 55 58  1  6  0  0  0
 56 54  1  0  0  0  0
 57 60  1  0  0  0  0
 58 59  2  0  0  0  0
 60 59  1  0  0  0  0
M  END
>  <MODEL>
5

>  <REMARK>
 VINA RESULT:      -6.1      1.557      2.003
  Name = 
  19 active torsions:
  status: ('A' for Active; 'I' for Inactive)
    1  A    between atoms: C_1  and  C_24
    2  A    between atoms: C_1  and  N_42
    3  A    between atoms: C_4  and  C_19
    4  A    between atoms: C_6  and  S_50
    5  A    between atoms: C_7  and  C_9
    6  A    between atoms: C_9  and  O_56
    7  A    between atoms: C_14  and  C_37
    8  A    between atoms: C_19  and  C_44
    9  A    between atoms: C_19  and  C_51
   10  A    between atoms: N_26  and  C_53
   11  A    between atoms: N_27  and  N_57
   12  A    between atoms: C_29  and  C_44
   13  A    between atoms: C_30  and  C_34
   14  A    between atoms: C_30  and  S_50
   15  A    between atoms: C_34  and  C_43
   16  A    between atoms: C_38  and  C_54
   17  A    between atoms: N_42  and  C_43
   18  A    between atoms: C_47  and  C_53
   19  A    between atoms: C_52  and  C_58
                            x       y       z     vdW  Elec       q    Type
                         _______ _______ _______ _____ _____    ______ ____

>  <TORSDO>
F 19

$$$$
=
 OpenBabel10232409213D

 60 65  0  0  1  0  0  0  0  0999 V2000
  189.0070  177.3280  139.3040 C   0  0  0  0  0  0  0  0  0  0  0  0
  191.0340  176.2150  139.3220 N   0  0  0  0  0  0  0  0  0  0  0  0
  190.5770  176.2920  138.1150 C   0  0  0  0  0  0  0  0  0  0  0  0
  189.3130  176.9940  138.0600 C   0  0  0  0  0  0  0  0  0  0  0  0
  191.3020  175.8440  136.9650 N   0  0  0  0  0  2  0  0  0  0  0  0
  190.0740  176.8420  140.2270 C   0  0  0  0  0  2  0  0  0  0  0  0
  192.5240  173.8090  136.6680 C   0  0  0  0  0  0  0  0  0  0  0  0
  192.4670  175.0580  137.0300 N   0  0  0  0  0  0  0  0  0  0  0  0
  195.1630  171.0980  136.4710 C   0  0  0  0  0  3  0  0  0  0  0  0
  193.8100  173.0880  136.8400 C   0  0  0  0  0  0  0  0  0  0  0  0
  196.0550  172.9340  137.7650 C   0  0  0  0  0  3  0  0  0  0  0  0
  194.8620  173.6390  137.5840 C   0  0  0  0  0  3  0  0  0  0  0  0
  193.9720  171.8050  136.2930 C   0  0  0  0  0  3  0  0  0  0  0  0
  196.2120  171.6630  137.2100 C   0  0  0  0  0  0  0  0  0  0  0  0
  198.5820  168.7080  137.9560 C   0  0  0  0  0  2  0  0  0  0  0  0
  199.4870  170.0660  136.0270 C   0  0  0  0  0  2  0  0  0  0  0  0
  199.8230  169.3680  137.3420 C   0  0  0  0  0  2  0  0  0  0  0  0
  197.2720  169.4400  137.6360 C   0  0  0  0  0  2  0  0  0  0  0  0
  199.1520  172.3950  136.4610 O   0  0  0  0  0  1  0  0  0  0  0  0
  197.5030  170.9350  137.4070 C   0  0  1  0  0  3  0  0  0  0  0  0
  198.4750  171.1970  136.2420 C   0  0  2  0  0  3  0  0  0  0  0  0
  190.8740  173.5480  134.8170 C   0  0  0  0  0  1  0  0  0  0  0  0
  191.3930  173.2090  136.0950 O   0  0  0  0  0  0  0  0  0  0  0  0
  187.8450  178.0720  139.7090 C   0  0  0  0  0  0  0  0  0  0  0  0
  186.8750  178.7020  140.0460 C   0  0  0  0  0  0  0  0  0  0  0  0
  185.6970  179.4730  140.4540 C   0  0  0  0  0  2  0  0  0  0  0  0
  185.5120  179.3850  141.8950 N   0  0  0  0  0  2  0  0  0  0  0  0
  184.3940  177.3310  141.8380 O   0  0  0  0  0  0  0  0  0  0  0  0
  184.8560  178.2830  142.5260 C   0  0  0  0  0  0  0  0  0  0  0  0
  184.7340  178.2660  144.0150 C   0  0  2  0  0  3  0  0  0  0  0  0
  183.4350  178.8670  144.4500 C   0  0  0  0  0  0  0  0  0  0  0  0
  182.5460  179.1130  143.5960 O   0  0  0  0  0  0  0  0  0  0  0  0
  183.2090  179.1660  145.7880 O   0  0  0  0  0  1  0  0  0  0  0  0
  185.9210  178.9670  144.6650 C   0  0  0  0  0  2  0  0  0  0  0  0
  187.4070  177.5290  146.9920 O   0  0  0  0  0  1  0  0  0  0  0  0
  188.0600  178.0140  145.8580 C   0  0  2  0  0  3  0  0  0  0  0  0
  187.1100  178.0610  144.7180 C   0  0  0  0  0  0  0  0  0  0  0  0
  187.4340  177.2470  143.7300 C   0  0  0  0  0  3  0  0  0  0  0  0
  189.1220  177.0140  145.4140 C   0  0  1  0  0  3  0  0  0  0  0  0
  188.6750  176.4910  144.0490 C   0  0  0  0  0  2  0  0  0  0  0  0
  190.4620  177.7210  145.2900 C   0  0  0  0  0  2  0  0  0  0  0  0
  191.0160  177.5080  143.9640 N   0  0  0  0  0  1  0  0  0  0  0  0
  188.5300  177.3190  136.8320 C   0  0  0  0  0  2  0  0  0  0  0  0
  188.1120  176.0900  136.1760 N   0  0  0  0  0  2  0  0  0  0  0  0
  188.9740  177.4920  134.3850 C   0  0  0  0  0  1  0  0  0  0  0  0
  188.0250  176.3570  134.7490 C   0  0  2  0  0  3  0  0  0  0  0  0
  186.6000  176.7540  134.4060 C   0  0  0  0  0  2  0  0  0  0  0  0
  185.6020  175.8420  135.1010 C   0  0  0  0  0  2  0  0  0  0  0  0
  184.4830  176.8330  136.1330 S   0  0  0  0  0  0  0  0  0  0  0  0
  183.6220  172.3780  137.2750 F   0  0  0  0  0  0  0  0  0  0  0  0
  184.6030  175.6880  137.5580 C   0  0  1  0  0  3  0  0  0  0  0  0
  183.3250  175.6200  138.3830 C   0  0  2  0  0  3  0  0  0  0  0  0
  183.1510  173.7830  135.5770 F   0  0  0  0  0  0  0  0  0  0  0  0
  183.5360  173.7060  136.9070 C   0  0  0  0  0  0  0  0  0  0  0  0
  182.5540  174.4240  137.8300 C   0  0  2  0  0  3  0  0  0  0  0  0
  184.8450  174.3380  137.0630 N   0  0  0  0  0  2  0  0  0  0  0  0
  182.5460  176.9450  138.4920 C   0  0  0  0  0  2  0  0  0  0  0  0
  181.2450  174.7890  137.1650 C   0  0  0  0  0  3  0  0  0  0  0  0
  180.5390  175.8460  137.5820 C   0  0  0  0  0  3  0  0  0  0  0  0
  181.0560  176.6910  138.7080 C   0  0  0  0  0  2  0  0  0  0  0  0
  1 24  1  0  0  0  0
  1  6  1  0  0  0  0
  2  6  1  0  0  0  0
  3  2  2  0  0  0  0
  4  3  1  0  0  0  0
  4  1  2  0  0  0  0
  5  8  1  0  0  0  0
  5  3  1  0  0  0  0
  7 10  1  0  0  0  0
  7  8  2  0  0  0  0
  9 14  1  0  0  0  0
 10 12  2  0  0  0  0
 12 11  1  0  0  0  0
 13  9  2  0  0  0  0
 13 10  1  0  0  0  0
 14 11  2  0  0  0  0
 16 21  1  0  0  0  0
 16 17  1  0  0  0  0
 17 15  1  0  0  0  0
 18 15  1  0  0  0  0
 20 14  1  6  0  0  0
 20 18  1  0  0  0  0
 21 19  1  1  0  0  0
 21 20  1  0  0  0  0
 22 23  1  0  0  0  0
 23  7  1  0  0  0  0
 24 25  3  0  0  0  0
 25 26  1  0  0  0  0
 26 27  1  0  0  0  0
 27 29  1  0  0  0  0
 28 29  2  0  0  0  0
 29 30  1  0  0  0  0
 30 31  1  0  0  0  0
 30 34  1  1  0  0  0
 31 33  1  0  0  0  0
 32 31  2  0  0  0  0
 34 37  1  0  0  0  0
 36 35  1  1  0  0  0
 37 36  1  0  0  0  0
 38 40  1  0  0  0  0
 38 37  2  0  0  0  0
 39 41  1  6  0  0  0
 39 36  1  0  0  0  0
 40 39  1  0  0  0  0
 42 41  1  0  0  0  0
 43  4  1  0  0  0  0
 44 43  1  0  0  0  0
 46 45  1  1  0  0  0
 46 44  1  0  0  0  0
 47 46  1  0  0  0  0
 47 48  1  0  0  0  0
 48 49  1  0  0  0  0
 51 49  1  6  0  0  0
 51 52  1  0  0  0  0
 52 57  1  6  0  0  0
 53 54  1  0  0  0  0
 54 56  1  0  0  0  0
 54 50  1  0  0  0  0
 54 55  1  0  0  0  0
 55 58  1  6  0  0  0
 55 52  1  0  0  0  0
 56 51  1  0  0  0  0
 57 60  1  0  0  0  0
 58 59  2  0  0  0  0
 59 60  1  0  0  0  0
M  END
>  <MODEL>
6

>  <REMARK>
 VINA RESULT:      -5.9      3.242      6.193
  Name = 
  19 active torsions:
  status: ('A' for Active; 'I' for Inactive)
    1  A    between atoms: C_1  and  C_24
    2  A    between atoms: C_1  and  N_42
    3  A    between atoms: C_4  and  C_19
    4  A    between atoms: C_6  and  S_50
    5  A    between atoms: C_7  and  C_9
    6  A    between atoms: C_9  and  O_56
    7  A    between atoms: C_14  and  C_37
    8  A    between atoms: C_19  and  C_44
    9  A    between atoms: C_19  and  C_51
   10  A    between atoms: N_26  and  C_53
   11  A    between atoms: N_27  and  N_57
   12  A    between atoms: C_29  and  C_44
   13  A    between atoms: C_30  and  C_34
   14  A    between atoms: C_30  and  S_50
   15  A    between atoms: C_34  and  C_43
   16  A    between atoms: C_38  and  C_54
   17  A    between atoms: N_42  and  C_43
   18  A    between atoms: C_47  and  C_53
   19  A    between atoms: C_52  and  C_58
                            x       y       z     vdW  Elec       q    Type
                         _______ _______ _______ _____ _____    ______ ____

>  <TORSDO>
F 19

$$$$
=
 OpenBabel10232409213D

 60 65  0  0  1  0  0  0  0  0999 V2000
  189.1330  177.0860  141.9570 C   0  0  0  0  0  0  0  0  0  0  0  0
  191.1240  176.2430  141.1330 N   0  0  0  0  0  0  0  0  0  0  0  0
  190.5680  177.0140  140.2570 C   0  0  0  0  0  0  0  0  0  0  0  0
  189.3240  177.5720  140.7400 C   0  0  0  0  0  0  0  0  0  0  0  0
  191.1810  177.3660  139.0110 N   0  0  0  0  0  2  0  0  0  0  0  0
  190.2610  176.1750  142.3110 C   0  0  0  0  0  2  0  0  0  0  0  0
  192.3210  175.5420  137.9660 C   0  0  0  0  0  0  0  0  0  0  0  0
  192.3240  176.7310  138.4940 N   0  0  0  0  0  0  0  0  0  0  0  0
  195.4290  173.3810  137.8020 C   0  0  0  0  0  3  0  0  0  0  0  0
  193.6140  174.9760  137.5050 C   0  0  0  0  0  0  0  0  0  0  0  0
  195.5310  174.9970  136.0070 C   0  0  0  0  0  3  0  0  0  0  0  0
  194.2990  175.5190  136.4100 C   0  0  0  0  0  3  0  0  0  0  0  0
  194.1980  173.9060  138.2020 C   0  0  0  0  0  3  0  0  0  0  0  0
  196.1010  173.9270  136.6990 C   0  0  0  0  0  0  0  0  0  0  0  0
  199.9060  173.8040  136.0560 C   0  0  0  0  0  2  0  0  0  0  0  0
  199.1060  171.5580  136.8910 C   0  0  0  0  0  2  0  0  0  0  0  0
  199.9640  172.2840  135.8590 C   0  0  0  0  0  2  0  0  0  0  0  0
  198.5710  174.3020  136.6260 C   0  0  0  0  0  2  0  0  0  0  0  0
  196.9890  171.0440  135.9000 O   0  0  0  0  0  1  0  0  0  0  0  0
  197.4150  173.3780  136.2410 C   0  0  1  0  0  3  0  0  0  0  0  0
  197.6280  171.9420  136.7530 C   0  0  2  0  0  3  0  0  0  0  0  0
  190.6550  174.2990  136.5870 C   0  0  0  0  0  1  0  0  0  0  0  0
  191.1030  174.8640  137.8120 O   0  0  0  0  0  0  0  0  0  0  0  0
  188.0310  177.4050  142.8230 C   0  0  0  0  0  0  0  0  0  0  0  0
  187.1110  177.6730  143.5540 C   0  0  0  0  0  0  0  0  0  0  0  0
  185.9970  177.9990  144.4480 C   0  0  0  0  0  2  0  0  0  0  0  0
  184.7490  178.0410  143.7010 N   0  0  0  0  0  2  0  0  0  0  0  0
  185.2300  180.0480  142.6000 O   0  0  0  0  0  0  0  0  0  0  0  0
  184.4280  179.0920  142.7870 C   0  0  0  0  0  0  0  0  0  0  0  0
  183.1330  179.0390  142.0450 C   0  0  2  0  0  3  0  0  0  0  0  0
  181.9740  179.1340  142.9870 C   0  0  0  0  0  0  0  0  0  0  0  0
  181.8790  178.3200  143.9400 O   0  0  0  0  0  1  0  0  0  0  0  0
  180.9990  180.1070  142.8100 O   0  0  0  0  0  0  0  0  0  0  0  0
  183.0520  177.7850  141.1830 C   0  0  0  0  0  2  0  0  0  0  0  0
  180.3940  176.5130  140.1770 O   0  0  0  0  0  1  0  0  0  0  0  0
  181.3980  176.9560  139.3150 C   0  0  2  0  0  3  0  0  0  0  0  0
  182.1910  178.0200  139.9820 C   0  0  0  0  0  0  0  0  0  0  0  0
  182.0970  179.1960  139.3890 C   0  0  0  0  0  3  0  0  0  0  0  0
  180.7680  177.6600  138.1180 C   0  0  1  0  0  3  0  0  0  0  0  0
  181.1950  179.1250  138.2080 C   0  0  0  0  0  2  0  0  0  0  0  0
  181.2930  177.0390  136.8340 C   0  0  0  0  0  2  0  0  0  0  0  0
  182.4650  176.2280  137.1160 N   0  0  0  0  0  1  0  0  0  0  0  0
  188.4490  178.5460  140.0230 C   0  0  0  0  0  2  0  0  0  0  0  0
  187.2100  177.8950  139.6280 N   0  0  0  0  0  2  0  0  0  0  0  0
  185.3880  178.2890  138.0650 C   0  0  0  0  0  1  0  0  0  0  0  0
  186.8960  178.3250  138.2750 C   0  0  2  0  0  3  0  0  0  0  0  0
  187.5700  177.3860  137.2890 C   0  0  0  0  0  2  0  0  0  0  0  0
  186.5380  176.6280  136.4710 C   0  0  0  0  0  2  0  0  0  0  0  0
  186.8860  174.8460  136.5460 S   0  0  0  0  0  0  0  0  0  0  0  0
  183.0600  173.2240  134.3960 F   0  0  0  0  0  0  0  0  0  0  0  0
  186.2330  174.5340  134.8630 C   0  0  1  0  0  3  0  0  0  0  0  0
  186.4980  173.1180  134.3700 C   0  0  2  0  0  3  0  0  0  0  0  0
  183.8970  173.2830  136.4880 F   0  0  0  0  0  0  0  0  0  0  0  0
  184.2120  173.3800  135.1410 C   0  0  0  0  0  0  0  0  0  0  0  0
  185.2360  172.3300  134.7150 C   0  0  2  0  0  3  0  0  0  0  0  0
  184.7840  174.7000  134.8780 N   0  0  0  0  0  2  0  0  0  0  0  0
  187.8340  172.5040  134.8290 C   0  0  0  0  0  2  0  0  0  0  0  0
  185.4530  171.2380  135.7390 C   0  0  0  0  0  3  0  0  0  0  0  0
  186.6260  170.5990  135.8180 C   0  0  0  0  0  3  0  0  0  0  0  0
  187.7460  170.9820  134.8970 C   0  0  0  0  0  2  0  0  0  0  0  0
  1  6  1  0  0  0  0
  1 24  1  0  0  0  0
  2  6  1  0  0  0  0
  3  4  1  0  0  0  0
  3  2  2  0  0  0  0
  4  1  2  0  0  0  0
  5  3  1  0  0  0  0
  7  8  2  0  0  0  0
  8  5  1  0  0  0  0
  9 13  1  0  0  0  0
 10  7  1  0  0  0  0
 10 13  2  0  0  0  0
 11 12  2  0  0  0  0
 11 14  1  0  0  0  0
 12 10  1  0  0  0  0
 14  9  2  0  0  0  0
 15 18  1  0  0  0  0
 17 15  1  0  0  0  0
 17 16  1  0  0  0  0
 20 18  1  0  0  0  0
 20 14  1  1  0  0  0
 20 21  1  0  0  0  0
 21 19  1  6  0  0  0
 21 16  1  0  0  0  0
 22 23  1  0  0  0  0
 23  7  1  0  0  0  0
 24 25  3  0  0  0  0
 25 26  1  0  0  0  0
 27 26  1  0  0  0  0
 28 29  2  0  0  0  0
 29 27  1  0  0  0  0
 30 34  1  1  0  0  0
 30 29  1  0  0  0  0
 30 31  1  0  0  0  0
 31 32  1  0  0  0  0
 33 31  2  0  0  0  0
 36 37  1  0  0  0  0
 36 35  1  1  0  0  0
 37 34  1  0  0  0  0
 38 37  2  0  0  0  0
 39 41  1  6  0  0  0
 39 40  1  0  0  0  0
 39 36  1  0  0  0  0
 40 38  1  0  0  0  0
 41 42  1  0  0  0  0
 43  4  1  0  0  0  0
 44 43  1  0  0  0  0
 46 45  1  1  0  0  0
 46 44  1  0  0  0  0
 47 46  1  0  0  0  0
 48 49  1  0  0  0  0
 48 47  1  0  0  0  0
 50 54  1  0  0  0  0
 51 56  1  0  0  0  0
 51 49  1  1  0  0  0
 52 55  1  0  0  0  0
 52 57  1  1  0  0  0
 52 51  1  0  0  0  0
 54 53  1  0  0  0  0
 55 54  1  0  0  0  0
 55 58  1  1  0  0  0
 56 54  1  0  0  0  0
 57 60  1  0  0  0  0
 58 59  2  0  0  0  0
 60 59  1  0  0  0  0
M  END
>  <MODEL>
7

>  <REMARK>
 VINA RESULT:      -5.6      3.409      6.899
  Name = 
  19 active torsions:
  status: ('A' for Active; 'I' for Inactive)
    1  A    between atoms: C_1  and  C_24
    2  A    between atoms: C_1  and  N_42
    3  A    between atoms: C_4  and  C_19
    4  A    between atoms: C_6  and  S_50
    5  A    between atoms: C_7  and  C_9
    6  A    between atoms: C_9  and  O_56
    7  A    between atoms: C_14  and  C_37
    8  A    between atoms: C_19  and  C_44
    9  A    between atoms: C_19  and  C_51
   10  A    between atoms: N_26  and  C_53
   11  A    between atoms: N_27  and  N_57
   12  A    between atoms: C_29  and  C_44
   13  A    between atoms: C_30  and  C_34
   14  A    between atoms: C_30  and  S_50
   15  A    between atoms: C_34  and  C_43
   16  A    between atoms: C_38  and  C_54
   17  A    between atoms: N_42  and  C_43
   18  A    between atoms: C_47  and  C_53
   19  A    between atoms: C_52  and  C_58
                            x       y       z     vdW  Elec       q    Type
                         _______ _______ _______ _____ _____    ______ ____

>  <TORSDO>
F 19

$$$$
=
 OpenBabel10232409213D

 60 65  0  0  1  0  0  0  0  0999 V2000
  188.9890  177.8190  140.1590 C   0  0  0  0  0  0  0  0  0  0  0  0
  191.0630  176.9310  139.6500 N   0  0  0  0  0  0  0  0  0  0  0  0
  190.3410  177.0210  138.5820 C   0  0  0  0  0  0  0  0  0  0  0  0
  189.0380  177.5850  138.8560 C   0  0  0  0  0  0  0  0  0  0  0  0
  190.8280  176.7140  137.2710 N   0  0  0  0  0  2  0  0  0  0  0  0
  190.2770  177.4030  140.7880 C   0  0  0  0  0  2  0  0  0  0  0  0
  192.2180  174.7720  137.1490 C   0  0  0  0  0  0  0  0  0  0  0  0
  192.0460  176.0550  137.0220 N   0  0  0  0  0  0  0  0  0  0  0  0
  195.9340  174.1110  137.4830 C   0  0  0  0  0  3  0  0  0  0  0  0
  193.5730  174.2180  136.9000 C   0  0  0  0  0  0  0  0  0  0  0  0
  195.1080  172.8680  135.5810 C   0  0  0  0  0  3  0  0  0  0  0  0
  193.8210  173.3560  135.8230 C   0  0  0  0  0  3  0  0  0  0  0  0
  194.6460  174.5970  137.7210 C   0  0  0  0  0  3  0  0  0  0  0  0
  196.1690  173.2420  136.4090 C   0  0  0  0  0  0  0  0  0  0  0  0
  199.9680  173.2690  135.7190 C   0  0  0  0  0  2  0  0  0  0  0  0
  199.4060  171.4200  137.3460 C   0  0  0  0  0  2  0  0  0  0  0  0
  200.1870  171.7970  136.0900 C   0  0  0  0  0  2  0  0  0  0  0  0
  198.5860  173.8070  136.1140 C   0  0  0  0  0  2  0  0  0  0  0  0
  197.3590  170.3700  136.6890 O   0  0  0  0  0  1  0  0  0  0  0  0
  197.5350  172.6960  136.1360 C   0  0  1  0  0  3  0  0  0  0  0  0
  197.8970  171.5770  137.1310 C   0  0  2  0  0  3  0  0  0  0  0  0
  190.0690  173.6490  136.5660 C   0  0  0  0  0  1  0  0  0  0  0  0
  191.1190  173.9610  137.4700 O   0  0  0  0  0  0  0  0  0  0  0  0
  187.8850  178.4130  140.8620 C   0  0  0  0  0  0  0  0  0  0  0  0
  186.9620  178.9140  141.4540 C   0  0  0  0  0  0  0  0  0  0  0  0
  185.8450  179.5280  142.1770 C   0  0  0  0  0  2  0  0  0  0  0  0
  185.9320  179.2190  143.5960 N   0  0  0  0  0  2  0  0  0  0  0  0
  185.6390  176.9140  143.3260 O   0  0  0  0  0  0  0  0  0  0  0  0
  185.8260  177.8880  144.1060 C   0  0  0  0  0  0  0  0  0  0  0  0
  185.9530  177.6620  145.5770 C   0  0  2  0  0  3  0  0  0  0  0  0
  185.9630  178.9630  146.3170 C   0  0  0  0  0  0  0  0  0  0  0  0
  185.2750  179.9250  145.8920 O   0  0  0  0  0  0  0  0  0  0  0  0
  186.7350  179.1170  147.4620 O   0  0  0  0  0  1  0  0  0  0  0  0
  187.1890  176.8280  145.8940 C   0  0  0  0  0  2  0  0  0  0  0  0
  188.4160  175.9290  143.1780 O   0  0  0  0  0  1  0  0  0  0  0  0
  189.1870  176.4010  144.2410 C   0  0  2  0  0  3  0  0  0  0  0  0
  188.3640  177.2950  145.0950 C   0  0  0  0  0  0  0  0  0  0  0  0
  188.7910  178.5440  145.1120 C   0  0  0  0  0  3  0  0  0  0  0  0
  190.2890  177.3100  143.7080 C   0  0  1  0  0  3  0  0  0  0  0  0
  189.9890  178.7080  144.2460 C   0  0  0  0  0  2  0  0  0  0  0  0
  191.6350  176.8280  144.2230 C   0  0  0  0  0  2  0  0  0  0  0  0
  191.7910  175.4080  143.9560 N   0  0  0  0  0  1  0  0  0  0  0  0
  187.9730  177.8890  137.8560 C   0  0  0  0  0  2  0  0  0  0  0  0
  186.9020  176.9110  137.9660 N   0  0  0  0  0  2  0  0  0  0  0  0
  186.5390  177.3550  135.6020 C   0  0  0  0  0  1  0  0  0  0  0  0
  186.7420  176.2820  136.6650 C   0  0  2  0  0  3  0  0  0  0  0  0
  185.5310  175.3670  136.7040 C   0  0  0  0  0  2  0  0  0  0  0  0
  184.5340  175.7410  135.6190 C   0  0  0  0  0  2  0  0  0  0  0  0
  183.1870  176.7250  136.3390 S   0  0  0  0  0  0  0  0  0  0  0  0
  180.6870  175.0490  139.9220 F   0  0  0  0  0  0  0  0  0  0  0  0
  183.4120  176.0140  138.0120 C   0  0  1  0  0  3  0  0  0  0  0  0
  183.3610  177.0580  139.1200 C   0  0  2  0  0  3  0  0  0  0  0  0
  180.3080  176.1950  138.0170 F   0  0  0  0  0  0  0  0  0  0  0  0
  181.2710  175.8370  138.9490 C   0  0  0  0  0  0  0  0  0  0  0  0
  181.9130  177.0570  139.6060 C   0  0  2  0  0  3  0  0  0  0  0  0
  182.3260  175.0780  138.2800 N   0  0  0  0  0  2  0  0  0  0  0  0
  183.9590  178.4300  138.7530 C   0  0  0  0  0  2  0  0  0  0  0  0
  181.1760  178.3520  139.3440 C   0  0  0  0  0  3  0  0  0  0  0  0
  181.8280  179.5200  139.3350 C   0  0  0  0  0  3  0  0  0  0  0  0
  183.3090  179.5480  139.5650 C   0  0  0  0  0  2  0  0  0  0  0  0
  1  6  1  0  0  0  0
  1 24  1  0  0  0  0
  2  6  1  0  0  0  0
  3  4  1  0  0  0  0
  3  2  2  0  0  0  0
  4  1  2  0  0  0  0
  5  3  1  0  0  0  0
  7 23  1  0  0  0  0
  8  7  2  0  0  0  0
  8  5  1  0  0  0  0
  9 13  1  0  0  0  0
 10  7  1  0  0  0  0
 10 13  2  0  0  0  0
 11 12  2  0  0  0  0
 11 14  1  0  0  0  0
 12 10  1  0  0  0  0
 14  9  2  0  0  0  0
 15 17  1  0  0  0  0
 15 18  1  0  0  0  0
 17 16  1  0  0  0  0
 18 20  1  0  0  0  0
 20 14  1  1  0  0  0
 20 21  1  0  0  0  0
 21 19  1  6  0  0  0
 21 16  1  0  0  0  0
 22 23  1  0  0  0  0
 24 25  3  0  0  0  0
 25 26  1  0  0  0  0
 26 27  1  0  0  0  0
 27 29  1  0  0  0  0
 28 29  2  0  0  0  0
 29 30  1  0  0  0  0
 30 34  1  6  0  0  0
 30 31  1  0  0  0  0
 31 33  1  0  0  0  0
 32 31  2  0  0  0  0
 36 35  1  6  0  0  0
 36 37  1  0  0  0  0
 37 38  2  0  0  0  0
 37 34  1  0  0  0  0
 39 41  1  1  0  0  0
 39 36  1  0  0  0  0
 39 40  1  0  0  0  0
 40 38  1  0  0  0  0
 42 41  1  0  0  0  0
 43 44  1  0  0  0  0
 43  4  1  0  0  0  0
 46 45  1  6  0  0  0
 46 47  1  0  0  0  0
 46 44  1  0  0  0  0
 48 49  1  0  0  0  0
 48 47  1  0  0  0  0
 51 49  1  6  0  0  0
 51 56  1  0  0  0  0
 51 52  1  0  0  0  0
 52 57  1  6  0  0  0
 52 55  1  0  0  0  0
 53 54  1  0  0  0  0
 54 55  1  0  0  0  0
 54 50  1  0  0  0  0
 55 58  1  6  0  0  0
 56 54  1  0  0  0  0
 57 60  1  0  0  0  0
 59 58  2  0  0  0  0
 59 60  1  0  0  0  0
M  END
>  <MODEL>
8

>  <REMARK>
 VINA RESULT:      -5.4      3.507      6.562
  Name = 
  19 active torsions:
  status: ('A' for Active; 'I' for Inactive)
    1  A    between atoms: C_1  and  C_24
    2  A    between atoms: C_1  and  N_42
    3  A    between atoms: C_4  and  C_19
    4  A    between atoms: C_6  and  S_50
    5  A    between atoms: C_7  and  C_9
    6  A    between atoms: C_9  and  O_56
    7  A    between atoms: C_14  and  C_37
    8  A    between atoms: C_19  and  C_44
    9  A    between atoms: C_19  and  C_51
   10  A    between atoms: N_26  and  C_53
   11  A    between atoms: N_27  and  N_57
   12  A    between atoms: C_29  and  C_44
   13  A    between atoms: C_30  and  C_34
   14  A    between atoms: C_30  and  S_50
   15  A    between atoms: C_34  and  C_43
   16  A    between atoms: C_38  and  C_54
   17  A    between atoms: N_42  and  C_43
   18  A    between atoms: C_47  and  C_53
   19  A    between atoms: C_52  and  C_58
                            x       y       z     vdW  Elec       q    Type
                         _______ _______ _______ _____ _____    ______ ____

>  <TORSDO>
F 19

$$$$
=
 OpenBabel10232409213D

 60 65  0  0  1  0  0  0  0  0999 V2000
  193.1000  176.7330  140.4110 C   0  0  0  0  0  0  0  0  0  0  0  0
  190.9510  177.0790  141.1930 N   0  0  0  0  0  0  0  0  0  0  0  0
  190.9380  176.9070  139.9120 C   0  0  0  0  0  0  0  0  0  0  0  0
  192.2650  176.6750  139.3850 C   0  0  0  0  0  0  0  0  0  0  0  0
  189.7370  176.8320  139.1360 N   0  0  0  0  0  2  0  0  0  0  0  0
  192.3340  177.0160  141.6610 C   0  0  0  0  0  2  0  0  0  0  0  0
  187.7370  178.1440  139.1480 C   0  0  0  0  0  0  0  0  0  0  0  0
  188.4650  177.1780  139.6270 N   0  0  0  0  0  0  0  0  0  0  0  0
  185.1510  178.8790  141.8180 C   0  0  0  0  0  3  0  0  0  0  0  0
  186.4330  178.4290  139.7980 C   0  0  0  0  0  0  0  0  0  0  0  0
  184.0150  178.6790  139.6940 C   0  0  0  0  0  3  0  0  0  0  0  0
  185.2400  178.4420  139.0630 C   0  0  0  0  0  3  0  0  0  0  0  0
  186.3730  178.6410  141.1840 C   0  0  0  0  0  3  0  0  0  0  0  0
  183.9650  178.8990  141.0710 C   0  0  0  0  0  0  0  0  0  0  0  0
  180.1380  178.8080  141.5760 C   0  0  0  0  0  2  0  0  0  0  0  0
  181.3030  178.4410  143.7880 C   0  0  0  0  0  2  0  0  0  0  0  0
  180.1860  179.1850  143.0620 C   0  0  0  0  0  2  0  0  0  0  0  0
  181.5080  178.4470  140.9870 C   0  0  0  0  0  2  0  0  0  0  0  0
  183.2100  179.8780  143.9370 O   0  0  0  0  0  1  0  0  0  0  0  0
  182.6430  179.1630  141.7200 C   0  0  1  0  0  3  0  0  0  0  0  0
  182.6770  178.8090  143.2180 C   0  0  2  0  0  3  0  0  0  0  0  0
  187.5520  178.7990  136.7480 C   0  0  0  0  0  1  0  0  0  0  0  0
  188.1860  178.8450  138.0190 O   0  0  0  0  0  0  0  0  0  0  0  0
  194.5210  176.5240  140.3470 C   0  0  0  0  0  0  0  0  0  0  0  0
  195.7110  176.3420  140.2940 C   0  0  0  0  0  0  0  0  0  0  0  0
  197.1580  176.1160  140.2280 C   0  0  0  0  0  2  0  0  0  0  0  0
  197.4380  174.8270  139.6150 N   0  0  0  0  0  2  0  0  0  0  0  0
  197.6100  175.6640  137.4380 O   0  0  0  0  0  0  0  0  0  0  0  0
  197.6610  174.6690  138.2110 C   0  0  0  0  0  0  0  0  0  0  0  0
  197.9670  173.3100  137.6730 C   0  0  2  0  0  3  0  0  0  0  0  0
  199.4440  173.0780  137.6220 C   0  0  0  0  0  0  0  0  0  0  0  0
  200.2310  174.0510  137.7410 O   0  0  0  0  0  1  0  0  0  0  0  0
  199.9520  171.7980  137.4330 O   0  0  0  0  0  0  0  0  0  0  0  0
  197.3210  173.1080  136.3070 C   0  0  0  0  0  2  0  0  0  0  0  0
  195.4090  172.3330  138.6380 O   0  0  0  0  0  1  0  0  0  0  0  0
  195.7880  171.4380  137.6370 C   0  0  2  0  0  3  0  0  0  0  0  0
  196.1440  172.1900  136.4070 C   0  0  0  0  0  0  0  0  0  0  0  0
  195.3420  171.9420  135.3880 C   0  0  0  0  0  3  0  0  0  0  0  0
  194.5850  170.5980  137.2220 C   0  0  1  0  0  3  0  0  0  0  0  0
  194.2810  170.9730  135.7710 C   0  0  0  0  0  2  0  0  0  0  0  0
  194.9410  169.1230  137.3170 C   0  0  0  0  0  2  0  0  0  0  0  0
  194.0210  168.4470  138.2160 N   0  0  0  0  0  1  0  0  0  0  0  0
  192.6180  176.3790  137.9650 C   0  0  0  0  0  2  0  0  0  0  0  0
  192.2040  175.0260  137.6280 N   0  0  0  0  0  2  0  0  0  0  0  0
  190.9700  176.1530  135.8600 C   0  0  0  0  0  1  0  0  0  0  0  0
  191.9010  174.9980  136.2060 C   0  0  2  0  0  3  0  0  0  0  0  0
  191.2260  173.6800  135.8700 C   0  0  0  0  0  2  0  0  0  0  0  0
  189.9560  173.9110  135.0670 C   0  0  0  0  0  2  0  0  0  0  0  0
  188.5350  173.2070  135.9530 S   0  0  0  0  0  0  0  0  0  0  0  0
  185.3930  176.6640  135.6800 F   0  0  0  0  0  0  0  0  0  0  0  0
  187.3140  173.9210  134.7890 C   0  0  1  0  0  3  0  0  0  0  0  0
  185.9150  173.3420  134.9570 C   0  0  2  0  0  3  0  0  0  0  0  0
  186.6370  175.6650  137.2730 F   0  0  0  0  0  0  0  0  0  0  0  0
  186.1060  175.5250  135.9990 C   0  0  0  0  0  0  0  0  0  0  0  0
  185.1900  174.3080  135.8910 C   0  0  2  0  0  3  0  0  0  0  0  0
  187.1980  175.3530  135.0420 N   0  0  0  0  0  2  0  0  0  0  0  0
  185.8670  171.8510  135.3430 C   0  0  0  0  0  2  0  0  0  0  0  0
  184.8130  173.7060  137.2270 C   0  0  0  0  0  3  0  0  0  0  0  0
  184.5240  172.4040  137.3320 C   0  0  0  0  0  3  0  0  0  0  0  0
  184.5930  171.5250  136.1200 C   0  0  0  0  0  2  0  0  0  0  0  0
  1  6  1  0  0  0  0
  2  6  1  0  0  0  0
  3  2  2  0  0  0  0
  4  3  1  0  0  0  0
  4  1  2  0  0  0  0
  5  8  1  0  0  0  0
  5  3  1  0  0  0  0
  7  8  2  0  0  0  0
  7 10  1  0  0  0  0
 10 13  2  0  0  0  0
 11 14  1  0  0  0  0
 12 11  2  0  0  0  0
 12 10  1  0  0  0  0
 13  9  1  0  0  0  0
 14  9  2  0  0  0  0
 15 17  1  0  0  0  0
 17 16  1  0  0  0  0
 18 15  1  0  0  0  0
 18 20  1  0  0  0  0
 20 14  1  6  0  0  0
 20 21  1  0  0  0  0
 21 16  1  0  0  0  0
 21 19  1  1  0  0  0
 22 23  1  0  0  0  0
 23  7  1  0  0  0  0
 24  1  1  0  0  0  0
 25 24  3  0  0  0  0
 26 25  1  0  0  0  0
 27 26  1  0  0  0  0
 28 29  2  0  0  0  0
 29 27  1  0  0  0  0
 30 34  1  6  0  0  0
 30 29  1  0  0  0  0
 31 30  1  0  0  0  0
 31 32  1  0  0  0  0
 33 31  2  0  0  0  0
 34 37  1  0  0  0  0
 36 35  1  1  0  0  0
 37 36  1  0  0  0  0
 38 40  1  0  0  0  0
 38 37  2  0  0  0  0
 39 41  1  6  0  0  0
 39 36  1  0  0  0  0
 40 39  1  0  0  0  0
 41 42  1  0  0  0  0
 43  4  1  0  0  0  0
 44 43  1  0  0  0  0
 46 45  1  1  0  0  0
 46 44  1  0  0  0  0
 47 46  1  0  0  0  0
 48 47  1  0  0  0  0
 48 49  1  0  0  0  0
 50 54  1  0  0  0  0
 51 52  1  0  0  0  0
 51 56  1  0  0  0  0
 51 49  1  1  0  0  0
 52 57  1  1  0  0  0
 52 55  1  0  0  0  0
 54 53  1  0  0  0  0
 55 54  1  0  0  0  0
 55 58  1  1  0  0  0
 56 54  1  0  0  0  0
 57 60  1  0  0  0  0
 58 59  2  0  0  0  0
 60 59  1  0  0  0  0
M  END
>  <MODEL>
9

>  <REMARK>
 VINA RESULT:      -4.6      3.604     13.027
  Name = 
  19 active torsions:
  status: ('A' for Active; 'I' for Inactive)
    1  A    between atoms: C_1  and  C_24
    2  A    between atoms: C_1  and  N_42
    3  A    between atoms: C_4  and  C_19
    4  A    between atoms: C_6  and  S_50
    5  A    between atoms: C_7  and  C_9
    6  A    between atoms: C_9  and  O_56
    7  A    between atoms: C_14  and  C_37
    8  A    between atoms: C_19  and  C_44
    9  A    between atoms: C_19  and  C_51
   10  A    between atoms: N_26  and  C_53
   11  A    between atoms: N_27  and  N_57
   12  A    between atoms: C_29  and  C_44
   13  A    between atoms: C_30  and  C_34
   14  A    between atoms: C_30  and  S_50
   15  A    between atoms: C_34  and  C_43
   16  A    between atoms: C_38  and  C_54
   17  A    between atoms: N_42  and  C_43
   18  A    between atoms: C_47  and  C_53
   19  A    between atoms: C_52  and  C_58
                            x       y       z     vdW  Elec       q    Type
                         _______ _______ _______ _____ _____    ______ ____

>  <TORSDO>
F 19

$$$$
