=
 OpenBabel10232411363D

 46 50  0  0  1  0  0  0  0  0999 V2000
  190.0010  176.8660  138.9150 C   0  0  0  0  0  0  0  0  0  0  0  0
  188.6810  177.4450  138.4750 C   0  0  0  0  0  2  0  0  0  0  0  0
  189.5890  177.5740  141.2770 C   0  0  0  0  0  2  0  0  0  0  0  0
  188.1230  177.7280  140.8940 C   0  0  2  0  0  3  0  0  0  0  0  0
  190.3690  176.8650  140.2060 C   0  0  0  0  0  2  0  0  0  0  0  0
  188.0500  178.3730  139.5150 C   0  0  0  0  0  2  0  0  0  0  0  0
  190.8030  176.1990  137.9340 N   0  0  0  0  0  0  0  0  0  0  0  0
  193.2090  176.5020  137.8610 C   0  0  0  0  0  2  0  0  0  0  0  0
  192.0790  175.5670  138.2370 C   0  0  2  0  0  3  0  0  0  0  0  0
  192.8460  175.3470  136.9500 C   0  0  2  0  0  3  0  0  0  0  0  0
  193.7920  174.2620  137.1460 N   0  0  0  0  0  2  0  0  0  0  0  0
  194.1180  173.7660  135.8730 N   0  0  0  0  0  0  0  0  0  0  0  0
  193.7640  174.7330  134.9900 O   0  0  0  0  0  1  0  0  0  0  0  0
  196.2300  174.9670  135.5250 C   0  0  0  0  0  2  0  0  0  0  0  0
  196.1350  173.1990  137.1590 C   0  0  0  0  0  2  0  0  0  0  0  0
  197.4710  173.9110  137.3290 C   0  0  1  0  0  0  0  0  0  0  0  0
  195.5740  173.6300  135.8130 C   0  0  1  0  0  3  0  0  0  0  0  0
  197.6000  174.8860  136.1620 C   0  0  0  0  0  2  0  0  0  0  0  0
  197.4700  174.6380  138.6490 C   0  0  0  0  0  0  0  0  0  0  0  0
  198.3130  175.5500  138.8760 O   0  0  0  0  0  0  0  0  0  0  0  0
  196.4880  174.3540  139.5960 O   0  0  0  0  0  0  0  0  0  0  0  0
  195.6370  175.3030  140.0090 O   0  0  0  0  0  1  0  0  0  0  0  0
  198.1540  171.5980  137.1380 O   0  0  0  0  0  1  0  0  0  0  0  0
  198.6230  172.9070  137.2890 C   0  0  0  0  0  2  0  0  0  0  0  0
  187.4280  178.5990  141.9220 C   0  0  0  0  0  2  0  0  0  0  0  0
  185.9560  178.7710  141.5660 C   0  0  0  0  0  2  0  0  0  0  0  0
  185.0670  178.8940  142.8110 C   0  0  1  0  0  3  0  0  0  0  0  0
  181.1760  178.9020  143.1310 C   0  0  0  0  0  2  0  0  0  0  0  0
  183.2870  178.6530  141.0430 C   0  0  0  0  0  2  0  0  0  0  0  0
  181.9010  178.1250  140.7160 C   0  0  0  0  0  2  0  0  0  0  0  0
  182.6100  179.3710  143.3500 C   0  0  2  0  0  3  0  0  0  0  0  0
  180.6430  179.2320  141.4220 S   0  0  0  0  0  0  0  0  0  0  0  0
  183.5960  178.5090  142.5380 C   0  0  2  0  0  3  0  0  0  0  0  0
  182.8760  179.2950  144.7050 F   0  0  0  0  0  0  0  0  0  0  0  0
  185.6720  178.0700  143.9460 C   0  0  0  0  0  2  0  0  0  0  0  0
  185.9180  178.9160  145.1930 C   0  0  0  0  0  2  0  0  0  0  0  0
  185.8990  178.1220  146.5040 C   0  0  2  0  0  3  0  0  0  0  0  0
  184.7080  178.3400  147.1940 O   0  0  0  0  0  1  0  0  0  0  0  0
  187.0920  178.4320  147.4030 C   0  0  0  0  0  2  0  0  0  0  0  0
  188.0300  177.2330  147.5440 C   0  0  0  0  0  2  0  0  0  0  0  0
  190.7470  177.7960  144.8430 C   0  0  0  0  0  2  0  0  0  0  0  0
  191.7480  176.6120  146.6410 C   0  0  0  0  0  2  0  0  0  0  0  0
  191.5760  176.6420  145.1900 N   0  0  0  0  0  2  0  0  0  0  0  0
  189.4110  177.4570  146.9240 C   0  0  0  0  0  3  0  0  0  0  0  0
  189.3400  177.6150  145.4050 C   0  0  0  0  0  2  0  0  0  0  0  0
  190.4040  176.3630  147.3250 C   0  0  0  0  0  2  0  0  0  0  0  0
  1  5  1  0  0  0  0
  2  1  1  0  0  0  0
  2  6  1  0  0  0  0
  4  3  1  0  0  0  0
  4 25  1  1  0  0  0
  5  3  1  0  0  0  0
  6  4  1  0  0  0  0
  7  1  2  0  0  0  0
  8  9  1  0  0  0  0
  9  7  1  6  0  0  0
 10 11  1  1  0  0  0
 10  8  1  0  0  0  0
 10  9  1  0  0  0  0
 12 11  1  0  0  0  0
 13 12  1  0  0  0  0
 14 17  1  0  0  0  0
 14 18  1  0  0  0  0
 15 16  1  0  0  0  0
 16 24  1  6  0  0  0
 16 19  1  0  0  0  0
 17 12  1  1  0  0  0
 17 15  1  0  0  0  0
 18 16  1  0  0  0  0
 19 20  2  0  0  0  0
 19 21  1  0  0  0  0
 21 22  1  0  0  0  0
 23 24  1  0  0  0  0
 26 25  1  0  0  0  0
 27 26  1  6  0  0  0
 27 35  1  0  0  0  0
 28 31  1  0  0  0  0
 29 33  1  0  0  0  0
 30 29  1  0  0  0  0
 30 32  1  0  0  0  0
 31 34  1  1  0  0  0
 32 28  1  0  0  0  0
 33 27  1  6  0  0  0
 33 31  1  0  0  0  0
 35 36  1  0  0  0  0
 36 37  1  0  0  0  0
 37 38  1  1  0  0  0
 37 39  1  0  0  0  0
 39 40  1  0  0  0  0
 41 43  1  0  0  0  0
 41 45  1  0  0  0  0
 42 46  1  0  0  0  0
 43 42  1  0  0  0  0
 44 46  1  0  0  0  0
 44 40  1  0  0  0  0
 45 44  1  0  0  0  0
M  END
>  <MODEL>
1

>  <REMARK>
 VINA RESULT:      -8.1      0.000      0.000
  Name = 
  18 active torsions:
  status: ('A' for Active; 'I' for Inactive)
    1  A    between atoms: N_1  and  N_11
    2  A    between atoms: N_1  and  C_33
    3  A    between atoms: C_3  and  N_44
    4  A    between atoms: N_11  and  C_20
    5  A    between atoms: C_12  and  C_21
    6  A    between atoms: C_12  and  C_30
    7  A    between atoms: C_14  and  C_23
    8  A    between atoms: C_14  and  C_29
    9  A    between atoms: C_14  and  C_32
   10  A    between atoms: O_17  and  C_21
   11  A    between atoms: C_18  and  N_44
   12  A    between atoms: C_19  and  C_23
   13  A    between atoms: C_19  and  C_27
   14  A    between atoms: C_27  and  C_28
   15  A    between atoms: C_28  and  C_42
   16  A    between atoms: C_29  and  C_37
   17  A    between atoms: C_31  and  C_37
   18  A    between atoms: C_40  and  C_42
                            x       y       z     vdW  Elec       q    Type
                         _______ _______ _______ _____ _____    ______ ____

>  <TORSDO>
F 18

$$$$
=
 OpenBabel10232411363D

 46 50  0  0  1  0  0  0  0  0999 V2000
  184.4150  178.9170  143.1170 C   0  0  0  0  0  0  0  0  0  0  0  0
  185.4440  178.7520  142.0270 C   0  0  0  0  0  2  0  0  0  0  0  0
  182.5520  178.5540  141.4890 C   0  0  0  0  0  2  0  0  0  0  0  0
  183.5930  177.9610  140.5480 C   0  0  2  0  0  3  0  0  0  0  0  0
  183.1060  178.7500  142.8720 C   0  0  0  0  0  3  0  0  0  0  0  0
  184.8510  178.8190  140.6190 C   0  0  0  0  0  2  0  0  0  0  0  0
  184.8800  179.1320  144.4540 N   0  0  0  0  0  2  0  0  0  0  0  0
  185.0760  178.3920  146.7550 C   0  0  0  0  0  2  0  0  0  0  0  0
  185.3810  178.0660  145.3090 C   0  0  2  0  0  3  0  0  0  0  0  0
  186.4700  178.6150  146.2060 C   0  0  2  0  0  3  0  0  0  0  0  0
  187.3330  177.5220  146.6210 N   0  0  0  0  0  2  0  0  0  0  0  0
  188.1880  178.0270  147.6140 N   0  0  0  0  0  0  0  0  0  0  0  0
  188.1590  177.1270  148.6290 O   0  0  0  0  0  1  0  0  0  0  0  0
  190.2010  176.6710  147.2500 C   0  0  0  0  0  2  0  0  0  0  0  0
  189.5270  178.2560  145.5650 C   0  0  0  0  0  2  0  0  0  0  0  0
  190.6420  177.4040  144.9740 C   0  0  1  0  0  0  0  0  0  0  0  0
  189.5450  178.0270  147.0680 C   0  0  1  0  0  3  0  0  0  0  0  0
  191.1930  176.5510  146.1140 C   0  0  0  0  0  2  0  0  0  0  0  0
  190.0700  176.5440  143.8780 C   0  0  0  0  0  0  0  0  0  0  0  0
  190.8170  176.0880  142.9670 O   0  0  0  0  0  0  0  0  0  0  0  0
  188.7230  176.1870  143.9090 O   0  0  0  0  0  0  0  0  0  0  0  0
  187.9580  176.2940  142.8140 O   0  0  0  0  0  1  0  0  0  0  0  0
  191.2410  179.4800  143.8870 O   0  0  0  0  0  1  0  0  0  0  0  0
  191.7540  178.2910  144.4120 C   0  0  0  0  0  2  0  0  0  0  0  0
  183.0390  177.9510  139.1370 C   0  0  0  0  0  2  0  0  0  0  0  0
  182.9100  176.5210  138.6260 C   0  0  0  0  0  2  0  0  0  0  0  0
  184.0750  176.1240  137.7090 C   0  0  1  0  0  3  0  0  0  0  0  0
  184.4460  172.3390  136.8270 C   0  0  0  0  0  2  0  0  0  0  0  0
  182.3420  174.4410  136.9940 C   0  0  0  0  0  2  0  0  0  0  0  0
  182.0530  173.2140  136.1450 C   0  0  0  0  0  2  0  0  0  0  0  0
  184.6290  173.6250  137.6240 C   0  0  2  0  0  3  0  0  0  0  0  0
  182.7340  171.7360  136.9570 S   0  0  0  0  0  0  0  0  0  0  0  0
  183.8360  174.7810  136.9830 C   0  0  2  0  0  3  0  0  0  0  0  0
  185.9820  173.9070  137.6650 F   0  0  0  0  0  0  0  0  0  0  0  0
  184.3570  177.2610  136.7280 C   0  0  0  0  0  2  0  0  0  0  0  0
  185.8470  177.3880  136.4190 C   0  0  0  0  0  2  0  0  0  0  0  0
  186.7330  177.5590  137.6570 C   0  0  2  0  0  3  0  0  0  0  0  0
  187.1860  178.8730  137.7610 O   0  0  0  0  0  1  0  0  0  0  0  0
  187.9130  176.5930  137.6810 C   0  0  0  0  0  2  0  0  0  0  0  0
  188.9990  177.0400  138.6610 C   0  0  0  0  0  2  0  0  0  0  0  0
  191.9690  175.8690  136.4690 C   0  0  0  0  0  2  0  0  0  0  0  0
  192.8520  176.6320  138.5380 C   0  0  0  0  0  2  0  0  0  0  0  0
  192.8740  175.5370  137.5690 N   0  0  0  0  0  2  0  0  0  0  0  0
  190.4150  176.9680  138.0850 C   0  0  0  0  0  3  0  0  0  0  0  0
  190.5300  175.9220  136.9750 C   0  0  0  0  0  2  0  0  0  0  0  0
  191.4670  176.7430  139.1740 C   0  0  0  0  0  2  0  0  0  0  0  0
  1  7  1  0  0  0  0
  2  1  1  0  0  0  0
  3  5  1  0  0  0  0
  4 25  1  6  0  0  0
  4  6  1  0  0  0  0
  4  3  1  0  0  0  0
  5  1  2  0  0  0  0
  6  2  1  0  0  0  0
  9  7  1  6  0  0  0
  9 10  1  0  0  0  0
  9  8  1  0  0  0  0
 10 11  1  1  0  0  0
 10  8  1  0  0  0  0
 11 12  1  0  0  0  0
 12 13  1  0  0  0  0
 15 17  1  0  0  0  0
 16 24  1  6  0  0  0
 16 15  1  0  0  0  0
 16 18  1  0  0  0  0
 17 14  1  0  0  0  0
 17 12  1  6  0  0  0
 18 14  1  0  0  0  0
 19 21  1  0  0  0  0
 19 16  1  0  0  0  0
 20 19  2  0  0  0  0
 22 21  1  0  0  0  0
 23 24  1  0  0  0  0
 26 25  1  0  0  0  0
 27 35  1  6  0  0  0
 27 26  1  0  0  0  0
 28 32  1  0  0  0  0
 28 31  1  0  0  0  0
 30 32  1  0  0  0  0
 30 29  1  0  0  0  0
 31 34  1  6  0  0  0
 33 29  1  0  0  0  0
 33 31  1  0  0  0  0
 33 27  1  1  0  0  0
 36 35  1  0  0  0  0
 36 37  1  0  0  0  0
 37 39  1  0  0  0  0
 37 38  1  6  0  0  0
 39 40  1  0  0  0  0
 41 45  1  0  0  0  0
 41 43  1  0  0  0  0
 42 46  1  0  0  0  0
 43 42  1  0  0  0  0
 44 40  1  0  0  0  0
 44 46  1  0  0  0  0
 45 44  1  0  0  0  0
M  END
>  <MODEL>
2

>  <REMARK>
 VINA RESULT:      -7.6      4.149      9.394
  Name = 
  18 active torsions:
  status: ('A' for Active; 'I' for Inactive)
    1  A    between atoms: N_1  and  N_11
    2  A    between atoms: N_1  and  C_33
    3  A    between atoms: C_3  and  N_44
    4  A    between atoms: N_11  and  C_20
    5  A    between atoms: C_12  and  C_21
    6  A    between atoms: C_12  and  C_30
    7  A    between atoms: C_14  and  C_23
    8  A    between atoms: C_14  and  C_29
    9  A    between atoms: C_14  and  C_32
   10  A    between atoms: O_17  and  C_21
   11  A    between atoms: C_18  and  N_44
   12  A    between atoms: C_19  and  C_23
   13  A    between atoms: C_19  and  C_27
   14  A    between atoms: C_27  and  C_28
   15  A    between atoms: C_28  and  C_42
   16  A    between atoms: C_29  and  C_37
   17  A    between atoms: C_31  and  C_37
   18  A    between atoms: C_40  and  C_42
                            x       y       z     vdW  Elec       q    Type
                         _______ _______ _______ _____ _____    ______ ____

>  <TORSDO>
F 18

$$$$
=
 OpenBabel10232411363D

 46 50  0  0  1  0  0  0  0  0999 V2000
  184.3360  179.0240  144.3060 C   0  0  0  0  0  0  0  0  0  0  0  0
  185.2460  178.6100  143.1770 C   0  0  0  0  0  2  0  0  0  0  0  0
  182.3310  178.8730  142.8220 C   0  0  0  0  0  2  0  0  0  0  0  0
  183.1900  178.0460  141.8740 C   0  0  2  0  0  3  0  0  0  0  0  0
  183.0040  179.0680  144.1510 C   0  0  0  0  0  3  0  0  0  0  0  0
  184.5750  178.6790  141.8040 C   0  0  0  0  0  2  0  0  0  0  0  0
  184.9230  179.2490  145.5930 N   0  0  0  0  0  2  0  0  0  0  0  0
  185.9870  178.7600  147.7170 C   0  0  0  0  0  2  0  0  0  0  0  0
  185.5670  178.2030  146.3740 C   0  0  2  0  0  3  0  0  0  0  0  0
  187.0130  178.5790  146.6170 C   0  0  2  0  0  3  0  0  0  0  0  0
  187.7790  177.3700  146.8650 N   0  0  0  0  0  2  0  0  0  0  0  0
  189.0750  177.5950  146.3760 N   0  0  0  0  0  0  0  0  0  0  0  0
  189.6660  176.3770  146.2980 O   0  0  0  0  0  1  0  0  0  0  0  0
  190.2540  178.7170  144.5370 C   0  0  0  0  0  2  0  0  0  0  0  0
  188.6620  176.9800  144.0320 C   0  0  0  0  0  2  0  0  0  0  0  0
  189.4000  177.3160  142.7430 C   0  0  1  0  0  0  0  0  0  0  0  0
  188.9480  178.1080  145.0110 C   0  0  1  0  0  3  0  0  0  0  0  0
  190.2510  178.5490  143.0340 C   0  0  0  0  0  2  0  0  0  0  0  0
  190.2590  176.1420  142.3520 C   0  0  0  0  0  0  0  0  0  0  0  0
  190.6310  175.9920  141.1550 O   0  0  0  0  0  0  0  0  0  0  0  0
  190.7070  175.2560  143.3310 O   0  0  0  0  0  0  0  0  0  0  0  0
  191.8740  175.4580  143.9570 O   0  0  0  0  0  1  0  0  0  0  0  0
  188.2970  179.0080  141.4110 O   0  0  0  0  0  1  0  0  0  0  0  0
  188.4080  177.6300  141.6220 C   0  0  0  0  0  2  0  0  0  0  0  0
  182.5460  178.0330  140.5010 C   0  0  0  0  0  2  0  0  0  0  0  0
  182.6920  176.6590  139.8580 C   0  0  0  0  0  2  0  0  0  0  0  0
  183.5710  176.6960  138.6010 C   0  0  1  0  0  3  0  0  0  0  0  0
  183.6850  173.3150  136.6510 C   0  0  0  0  0  2  0  0  0  0  0  0
  181.6980  175.2740  137.6950 C   0  0  0  0  0  2  0  0  0  0  0  0
  181.2530  174.3350  136.5870 C   0  0  0  0  0  2  0  0  0  0  0  0
  184.0200  174.3250  137.7430 C   0  0  2  0  0  3  0  0  0  0  0  0
  181.9860  172.6920  136.8480 S   0  0  0  0  0  0  0  0  0  0  0  0
  183.1880  175.6110  137.5700 C   0  0  2  0  0  3  0  0  0  0  0  0
  185.3750  174.5910  137.6690 F   0  0  0  0  0  0  0  0  0  0  0  0
  183.5300  178.0980  137.9970 C   0  0  0  0  0  2  0  0  0  0  0  0
  184.8910  178.7870  138.0700 C   0  0  0  0  0  2  0  0  0  0  0  0
  186.0800  177.8580  137.8010 C   0  0  2  0  0  3  0  0  0  0  0  0
  187.2440  178.3720  138.3690 O   0  0  0  0  0  1  0  0  0  0  0  0
  186.2960  177.5850  136.3160 C   0  0  0  0  0  2  0  0  0  0  0  0
  187.7810  177.4800  135.9640 C   0  0  0  0  0  2  0  0  0  0  0  0
  187.7200  173.7340  134.9860 C   0  0  0  0  0  2  0  0  0  0  0  0
  189.2130  173.9800  136.8160 C   0  0  0  0  0  2  0  0  0  0  0  0
  188.0840  173.2060  136.3000 N   0  0  0  0  0  2  0  0  0  0  0  0
  188.2650  176.0420  135.7640 C   0  0  0  0  0  3  0  0  0  0  0  0
  187.1940  175.1600  135.1220 C   0  0  0  0  0  2  0  0  0  0  0  0
  188.7880  175.4270  137.0650 C   0  0  0  0  0  2  0  0  0  0  0  0
  1  7  1  0  0  0  0
  2  1  1  0  0  0  0
  3  5  1  0  0  0  0
  4 25  1  6  0  0  0
  4  3  1  0  0  0  0
  5  1  2  0  0  0  0
  6  4  1  0  0  0  0
  6  2  1  0  0  0  0
  9  7  1  6  0  0  0
  9 10  1  0  0  0  0
  9  8  1  0  0  0  0
 10 11  1  1  0  0  0
 10  8  1  0  0  0  0
 12 11  1  0  0  0  0
 13 12  1  0  0  0  0
 14 17  1  0  0  0  0
 15 17  1  0  0  0  0
 16 24  1  6  0  0  0
 16 18  1  0  0  0  0
 16 15  1  0  0  0  0
 17 12  1  1  0  0  0
 18 14  1  0  0  0  0
 19 16  1  0  0  0  0
 19 21  1  0  0  0  0
 20 19  2  0  0  0  0
 21 22  1  0  0  0  0
 23 24  1  0  0  0  0
 26 25  1  0  0  0  0
 27 35  1  6  0  0  0
 27 26  1  0  0  0  0
 28 32  1  0  0  0  0
 28 31  1  0  0  0  0
 30 32  1  0  0  0  0
 30 29  1  0  0  0  0
 31 34  1  6  0  0  0
 33 29  1  0  0  0  0
 33 31  1  0  0  0  0
 33 27  1  1  0  0  0
 35 36  1  0  0  0  0
 37 36  1  0  0  0  0
 37 38  1  6  0  0  0
 39 37  1  0  0  0  0
 40 39  1  0  0  0  0
 41 45  1  0  0  0  0
 41 43  1  0  0  0  0
 42 46  1  0  0  0  0
 43 42  1  0  0  0  0
 44 40  1  0  0  0  0
 44 46  1  0  0  0  0
 45 44  1  0  0  0  0
M  END
>  <MODEL>
3

>  <REMARK>
 VINA RESULT:      -7.5      4.894      9.334
  Name = 
  18 active torsions:
  status: ('A' for Active; 'I' for Inactive)
    1  A    between atoms: N_1  and  N_11
    2  A    between atoms: N_1  and  C_33
    3  A    between atoms: C_3  and  N_44
    4  A    between atoms: N_11  and  C_20
    5  A    between atoms: C_12  and  C_21
    6  A    between atoms: C_12  and  C_30
    7  A    between atoms: C_14  and  C_23
    8  A    between atoms: C_14  and  C_29
    9  A    between atoms: C_14  and  C_32
   10  A    between atoms: O_17  and  C_21
   11  A    between atoms: C_18  and  N_44
   12  A    between atoms: C_19  and  C_23
   13  A    between atoms: C_19  and  C_27
   14  A    between atoms: C_27  and  C_28
   15  A    between atoms: C_28  and  C_42
   16  A    between atoms: C_29  and  C_37
   17  A    between atoms: C_31  and  C_37
   18  A    between atoms: C_40  and  C_42
                            x       y       z     vdW  Elec       q    Type
                         _______ _______ _______ _____ _____    ______ ____

>  <TORSDO>
F 18

$$$$
=
 OpenBabel10232411363D

 46 50  0  0  1  0  0  0  0  0999 V2000
  185.1440  179.0550  141.2440 C   0  0  0  0  0  0  0  0  0  0  0  0
  186.5550  178.5320  141.1510 C   0  0  0  0  0  2  0  0  0  0  0  0
  184.8960  178.9920  138.7580 C   0  0  0  0  0  2  0  0  0  0  0  0
  186.1080  178.0690  138.7370 C   0  0  2  0  0  3  0  0  0  0  0  0
  184.3750  179.1890  140.1530 C   0  0  0  0  0  3  0  0  0  0  0  0
  187.1320  178.5960  139.7350 C   0  0  0  0  0  2  0  0  0  0  0  0
  184.5980  179.2870  142.5480 N   0  0  0  0  0  2  0  0  0  0  0  0
  183.9460  178.8570  144.8440 C   0  0  0  0  0  2  0  0  0  0  0  0
  184.6760  178.3190  143.6320 C   0  0  2  0  0  3  0  0  0  0  0  0
  185.4580  178.9180  144.7820 C   0  0  2  0  0  3  0  0  0  0  0  0
  186.0180  177.8420  145.5820 N   0  0  0  0  0  2  0  0  0  0  0  0
  187.2520  178.2950  146.0750 N   0  0  0  0  0  0  0  0  0  0  0  0
  187.1570  178.2490  147.4280 O   0  0  0  0  0  1  0  0  0  0  0  0
  188.0020  176.8040  144.2750 C   0  0  0  0  0  2  0  0  0  0  0  0
  189.6420  177.9730  145.5970 C   0  0  0  0  0  2  0  0  0  0  0  0
  190.3720  177.3280  144.4260 C   0  0  1  0  0  0  0  0  0  0  0  0
  188.2700  177.3230  145.6750 C   0  0  1  0  0  3  0  0  0  0  0  0
  189.3590  176.4290  143.7210 C   0  0  0  0  0  2  0  0  0  0  0  0
  190.8710  178.4120  143.5070 C   0  0  0  0  0  0  0  0  0  0  0  0
  191.1720  179.5490  143.9640 O   0  0  0  0  0  0  0  0  0  0  0  0
  191.0730  178.1350  142.1560 O   0  0  0  0  0  0  0  0  0  0  0  0
  192.1140  177.3920  141.7550 O   0  0  0  0  0  1  0  0  0  0  0  0
  191.7210  175.3410  144.1400 O   0  0  0  0  0  1  0  0  0  0  0  0
  191.5470  176.4860  144.9240 C   0  0  0  0  0  2  0  0  0  0  0  0
  186.6950  178.0490  137.3390 C   0  0  0  0  0  2  0  0  0  0  0  0
  188.2180  178.0220  137.4030 C   0  0  0  0  0  2  0  0  0  0  0  0
  188.8030  176.7480  136.7790 C   0  0  1  0  0  3  0  0  0  0  0  0
  192.3970  176.3830  138.2600 C   0  0  0  0  0  2  0  0  0  0  0  0
  190.8780  175.7210  135.7840 C   0  0  0  0  0  2  0  0  0  0  0  0
  192.3930  175.7830  135.6910 C   0  0  0  0  0  2  0  0  0  0  0  0
  190.8740  176.3170  138.2220 C   0  0  2  0  0  3  0  0  0  0  0  0
  193.1270  175.0930  137.2040 S   0  0  0  0  0  0  0  0  0  0  0  0
  190.3470  176.7100  136.8280 C   0  0  2  0  0  3  0  0  0  0  0  0
  190.3900  177.1660  139.1990 F   0  0  0  0  0  0  0  0  0  0  0  0
  188.1800  175.5250  137.4490 C   0  0  0  0  0  2  0  0  0  0  0  0
  187.2350  174.7800  136.5080 C   0  0  0  0  0  2  0  0  0  0  0  0
  185.9930  174.2020  137.1950 C   0  0  2  0  0  3  0  0  0  0  0  0
  186.1970  172.8650  137.5340 O   0  0  0  0  0  1  0  0  0  0  0  0
  184.7290  174.3430  136.3530 C   0  0  0  0  0  2  0  0  0  0  0  0
  184.2000  175.7780  136.3510 C   0  0  0  0  0  2  0  0  0  0  0  0
  180.9600  177.4250  137.6870 C   0  0  0  0  0  2  0  0  0  0  0  0
  181.8100  176.0090  139.3940 C   0  0  0  0  0  2  0  0  0  0  0  0
  181.3020  177.3500  139.1070 N   0  0  0  0  0  2  0  0  0  0  0  0
  182.9040  175.9560  137.1450 C   0  0  0  0  0  3  0  0  0  0  0  0
  182.2220  177.2890  136.8390 C   0  0  0  0  0  2  0  0  0  0  0  0
  183.1230  175.7740  138.6500 C   0  0  0  0  0  2  0  0  0  0  0  0
  1  7  1  0  0  0  0
  2  1  1  0  0  0  0
  3  5  1  0  0  0  0
  4 25  1  6  0  0  0
  4  3  1  0  0  0  0
  4  6  1  0  0  0  0
  5  1  2  0  0  0  0
  6  2  1  0  0  0  0
  9  7  1  6  0  0  0
  9 10  1  0  0  0  0
  9  8  1  0  0  0  0
 10  8  1  0  0  0  0
 10 11  1  1  0  0  0
 11 12  1  0  0  0  0
 12 13  1  0  0  0  0
 14 17  1  0  0  0  0
 15 17  1  0  0  0  0
 16 24  1  1  0  0  0
 16 15  1  0  0  0  0
 17 12  1  6  0  0  0
 18 14  1  0  0  0  0
 18 16  1  0  0  0  0
 19 20  2  0  0  0  0
 19 16  1  0  0  0  0
 21 19  1  0  0  0  0
 22 21  1  0  0  0  0
 23 24  1  0  0  0  0
 25 26  1  0  0  0  0
 27 26  1  1  0  0  0
 27 35  1  0  0  0  0
 29 33  1  0  0  0  0
 30 29  1  0  0  0  0
 30 32  1  0  0  0  0
 31 28  1  0  0  0  0
 31 34  1  1  0  0  0
 32 28  1  0  0  0  0
 33 27  1  1  0  0  0
 33 31  1  0  0  0  0
 36 37  1  0  0  0  0
 36 35  1  0  0  0  0
 37 38  1  6  0  0  0
 39 37  1  0  0  0  0
 40 39  1  0  0  0  0
 40 44  1  0  0  0  0
 41 43  1  0  0  0  0
 43 42  1  0  0  0  0
 44 46  1  0  0  0  0
 45 44  1  0  0  0  0
 45 41  1  0  0  0  0
 46 42  1  0  0  0  0
M  END
>  <MODEL>
4

>  <REMARK>
 VINA RESULT:      -7.4      5.116     10.106
  Name = 
  18 active torsions:
  status: ('A' for Active; 'I' for Inactive)
    1  A    between atoms: N_1  and  N_11
    2  A    between atoms: N_1  and  C_33
    3  A    between atoms: C_3  and  N_44
    4  A    between atoms: N_11  and  C_20
    5  A    between atoms: C_12  and  C_21
    6  A    between atoms: C_12  and  C_30
    7  A    between atoms: C_14  and  C_23
    8  A    between atoms: C_14  and  C_29
    9  A    between atoms: C_14  and  C_32
   10  A    between atoms: O_17  and  C_21
   11  A    between atoms: C_18  and  N_44
   12  A    between atoms: C_19  and  C_23
   13  A    between atoms: C_19  and  C_27
   14  A    between atoms: C_27  and  C_28
   15  A    between atoms: C_28  and  C_42
   16  A    between atoms: C_29  and  C_37
   17  A    between atoms: C_31  and  C_37
   18  A    between atoms: C_40  and  C_42
                            x       y       z     vdW  Elec       q    Type
                         _______ _______ _______ _____ _____    ______ ____

>  <TORSDO>
F 18

$$$$
=
 OpenBabel10232411363D

 46 50  0  0  1  0  0  0  0  0999 V2000
  182.5660  178.7680  142.8960 C   0  0  0  0  0  0  0  0  0  0  0  0
  182.3990  178.7480  144.3940 C   0  0  0  0  0  2  0  0  0  0  0  0
  185.0560  178.7300  143.1160 C   0  0  0  0  0  2  0  0  0  0  0  0
  184.8440  178.2630  144.5520 C   0  0  2  0  0  3  0  0  0  0  0  0
  183.7780  178.6830  142.3270 C   0  0  0  0  0  2  0  0  0  0  0  0
  183.6910  179.0590  145.1510 C   0  0  0  0  0  2  0  0  0  0  0  0
  181.3840  178.7500  142.0870 N   0  0  0  0  0  0  0  0  0  0  0  0
  179.9820  178.9670  140.1200 C   0  0  0  0  0  2  0  0  0  0  0  0
  181.4020  178.8980  140.6390 C   0  0  2  0  0  3  0  0  0  0  0  0
  180.7690  177.6770  140.0040 C   0  0  2  0  0  3  0  0  0  0  0  0
  181.2720  177.5380  138.6490 N   0  0  0  0  0  2  0  0  0  0  0  0
  182.5890  177.0610  138.7450 N   0  0  0  0  0  0  0  0  0  0  0  0
  182.5220  175.9130  139.4660 O   0  0  0  0  0  1  0  0  0  0  0  0
  184.5410  176.7200  137.2960 C   0  0  0  0  0  2  0  0  0  0  0  0
  182.6270  175.2770  137.0520 C   0  0  0  0  0  2  0  0  0  0  0  0
  183.7540  174.6910  136.2120 C   0  0  1  0  0  0  0  0  0  0  0  0
  183.0270  176.7040  137.3950 C   0  0  1  0  0  3  0  0  0  0  0  0
  184.8820  175.7190  136.2150 C   0  0  0  0  0  2  0  0  0  0  0  0
  184.1980  173.3920  136.8320 C   0  0  0  0  0  0  0  0  0  0  0  0
  184.8020  173.3870  137.9410 O   0  0  0  0  0  0  0  0  0  0  0  0
  183.8760  172.1840  136.2160 O   0  0  0  0  0  0  0  0  0  0  0  0
  183.5050  171.1210  136.9410 O   0  0  0  0  0  1  0  0  0  0  0  0
  181.9190  174.7210  134.6360 O   0  0  0  0  0  1  0  0  0  0  0  0
  183.2830  174.4480  134.7780 C   0  0  0  0  0  2  0  0  0  0  0  0
  186.1150  178.4990  145.3440 C   0  0  0  0  0  2  0  0  0  0  0  0
  187.0690  177.3210  145.1810 C   0  0  0  0  0  2  0  0  0  0  0  0
  188.3390  177.7040  144.4090 C   0  0  1  0  0  3  0  0  0  0  0  0
  190.5820  177.2550  147.5730 C   0  0  0  0  0  2  0  0  0  0  0  0
  190.5330  176.4980  144.6910 C   0  0  0  0  0  2  0  0  0  0  0  0
  191.8720  176.4710  145.4090 C   0  0  0  0  0  2  0  0  0  0  0  0
  189.3050  177.2670  146.7400 C   0  0  2  0  0  3  0  0  0  0  0  0
  191.6450  175.8530  147.1040 S   0  0  0  0  0  0  0  0  0  0  0  0
  189.6190  177.5870  145.2650 C   0  0  2  0  0  3  0  0  0  0  0  0
  188.4550  178.2100  147.2870 F   0  0  0  0  0  0  0  0  0  0  0  0
  188.4260  176.8680  143.1330 C   0  0  0  0  0  2  0  0  0  0  0  0
  188.3770  177.7380  141.8790 C   0  0  0  0  0  2  0  0  0  0  0  0
  189.3630  177.3160  140.7840 C   0  0  2  0  0  3  0  0  0  0  0  0
  190.6780  177.4600  141.2240 O   0  0  0  0  0  1  0  0  0  0  0  0
  189.1610  178.0780  139.4780 C   0  0  0  0  0  2  0  0  0  0  0  0
  187.9490  177.5640  138.6980 C   0  0  0  0  0  2  0  0  0  0  0  0
  188.6270  174.9110  135.9600 C   0  0  0  0  0  2  0  0  0  0  0  0
  189.9840  176.8020  135.4880 C   0  0  0  0  0  2  0  0  0  0  0  0
  189.9840  175.3470  135.6310 N   0  0  0  0  0  2  0  0  0  0  0  0
  188.3030  176.9710  137.3330 C   0  0  0  0  0  3  0  0  0  0  0  0
  188.2270  175.4440  137.3330 C   0  0  0  0  0  2  0  0  0  0  0  0
  189.6640  177.4610  136.8290 C   0  0  0  0  0  2  0  0  0  0  0  0
  1  2  1  0  0  0  0
  2  6  1  0  0  0  0
  3  4  1  0  0  0  0
  4  6  1  0  0  0  0
  4 25  1  1  0  0  0
  5  1  1  0  0  0  0
  5  3  1  0  0  0  0
  7  1  2  0  0  0  0
  8  9  1  0  0  0  0
  9  7  1  1  0  0  0
 10 11  1  6  0  0  0
 10  8  1  0  0  0  0
 10  9  1  0  0  0  0
 11 12  1  0  0  0  0
 12 13  1  0  0  0  0
 14 17  1  0  0  0  0
 15 17  1  0  0  0  0
 16 24  1  6  0  0  0
 16 18  1  0  0  0  0
 16 19  1  0  0  0  0
 16 15  1  0  0  0  0
 17 12  1  1  0  0  0
 18 14  1  0  0  0  0
 19 20  2  0  0  0  0
 21 19  1  0  0  0  0
 21 22  1  0  0  0  0
 23 24  1  0  0  0  0
 26 25  1  0  0  0  0
 27 35  1  6  0  0  0
 27 26  1  0  0  0  0
 29 33  1  0  0  0  0
 29 30  1  0  0  0  0
 30 32  1  0  0  0  0
 31 34  1  1  0  0  0
 31 28  1  0  0  0  0
 32 28  1  0  0  0  0
 33 27  1  6  0  0  0
 33 31  1  0  0  0  0
 36 35  1  0  0  0  0
 37 38  1  1  0  0  0
 37 36  1  0  0  0  0
 39 37  1  0  0  0  0
 40 39  1  0  0  0  0
 41 45  1  0  0  0  0
 42 43  1  0  0  0  0
 42 46  1  0  0  0  0
 43 41  1  0  0  0  0
 44 45  1  0  0  0  0
 44 40  1  0  0  0  0
 46 44  1  0  0  0  0
M  END
>  <MODEL>
5

>  <REMARK>
 VINA RESULT:      -7.3      5.352     10.423
  Name = 
  18 active torsions:
  status: ('A' for Active; 'I' for Inactive)
    1  A    between atoms: N_1  and  N_11
    2  A    between atoms: N_1  and  C_33
    3  A    between atoms: C_3  and  N_44
    4  A    between atoms: N_11  and  C_20
    5  A    between atoms: C_12  and  C_21
    6  A    between atoms: C_12  and  C_30
    7  A    between atoms: C_14  and  C_23
    8  A    between atoms: C_14  and  C_29
    9  A    between atoms: C_14  and  C_32
   10  A    between atoms: O_17  and  C_21
   11  A    between atoms: C_18  and  N_44
   12  A    between atoms: C_19  and  C_23
   13  A    between atoms: C_19  and  C_27
   14  A    between atoms: C_27  and  C_28
   15  A    between atoms: C_28  and  C_42
   16  A    between atoms: C_29  and  C_37
   17  A    between atoms: C_31  and  C_37
   18  A    between atoms: C_40  and  C_42
                            x       y       z     vdW  Elec       q    Type
                         _______ _______ _______ _____ _____    ______ ____

>  <TORSDO>
F 18

$$$$
=
 OpenBabel10232411363D

 46 50  0  0  1  0  0  0  0  0999 V2000
  188.0130  177.6190  144.6310 C   0  0  0  0  0  0  0  0  0  0  0  0
  189.4720  177.9380  144.8390 C   0  0  0  0  0  2  0  0  0  0  0  0
  188.4380  176.9570  142.2580 C   0  0  0  0  0  2  0  0  0  0  0  0
  189.9110  176.8530  142.6310 C   0  0  2  0  0  3  0  0  0  0  0  0
  187.5680  177.1030  143.4750 C   0  0  0  0  0  3  0  0  0  0  0  0
  190.2630  178.0310  143.5330 C   0  0  0  0  0  2  0  0  0  0  0  0
  187.1280  177.7630  145.7470 N   0  0  0  0  0  2  0  0  0  0  0  0
  185.1690  178.4760  146.9880 C   0  0  0  0  0  2  0  0  0  0  0  0
  186.0740  178.7660  145.8100 C   0  0  2  0  0  3  0  0  0  0  0  0
  184.7340  178.0970  145.5870 C   0  0  2  0  0  3  0  0  0  0  0  0
  183.7920  179.0850  145.0910 N   0  0  0  0  0  2  0  0  0  0  0  0
  182.9460  178.4270  144.1830 N   0  0  0  0  0  0  0  0  0  0  0  0
  181.6830  178.8040  144.5030 O   0  0  0  0  0  1  0  0  0  0  0  0
  184.3450  178.1650  142.1830 C   0  0  0  0  0  2  0  0  0  0  0  0
  182.0340  178.7970  141.9300 C   0  0  0  0  0  2  0  0  0  0  0  0
  182.5770  178.4790  140.5430 C   0  0  1  0  0  0  0  0  0  0  0  0
  183.2350  178.9550  142.8490 C   0  0  1  0  0  3  0  0  0  0  0  0
  184.0830  178.2820  140.6980 C   0  0  0  0  0  2  0  0  0  0  0  0
  181.9130  177.2260  140.0360 C   0  0  0  0  0  0  0  0  0  0  0  0
  180.7160  177.2540  139.6340 O   0  0  0  0  0  0  0  0  0  0  0  0
  182.6450  176.0430  139.9410 O   0  0  0  0  0  0  0  0  0  0  0  0
  182.8350  175.4470  138.7560 O   0  0  0  0  0  1  0  0  0  0  0  0
  182.7790  179.3520  138.2970 O   0  0  0  0  0  1  0  0  0  0  0  0
  182.3070  179.6360  139.5820 C   0  0  0  0  0  2  0  0  0  0  0  0
  190.7490  176.8880  141.3680 C   0  0  0  0  0  2  0  0  0  0  0  0
  190.0320  177.6740  140.2760 C   0  0  0  0  0  2  0  0  0  0  0  0
  189.8330  176.8470  138.9990 C   0  0  1  0  0  3  0  0  0  0  0  0
  187.4700  178.7860  136.5710 C   0  0  0  0  0  2  0  0  0  0  0  0
  188.0050  176.0020  137.4850 C   0  0  0  0  0  2  0  0  0  0  0  0
  186.6520  176.2950  136.8590 C   0  0  0  0  0  2  0  0  0  0  0  0
  188.7780  178.3760  137.2360 C   0  0  2  0  0  3  0  0  0  0  0  0
  186.8560  177.4640  135.4820 S   0  0  0  0  0  0  0  0  0  0  0  0
  188.5450  177.2250  138.2350 C   0  0  2  0  0  3  0  0  0  0  0  0
  189.2980  179.4900  137.8690 F   0  0  0  0  0  0  0  0  0  0  0  0
  191.0760  176.9690  138.1200 C   0  0  0  0  0  2  0  0  0  0  0  0
  191.9020  175.6840  138.1240 C   0  0  0  0  0  2  0  0  0  0  0  0
  191.5600  174.7150  136.9870 C   0  0  2  0  0  3  0  0  0  0  0  0
  190.7250  173.6960  137.4430 O   0  0  0  0  0  1  0  0  0  0  0  0
  192.7970  174.1200  136.3210 C   0  0  0  0  0  2  0  0  0  0  0  0
  193.8810  173.7650  137.3400 C   0  0  0  0  0  2  0  0  0  0  0  0
  197.6430  174.6810  137.4170 C   0  0  0  0  0  2  0  0  0  0  0  0
  196.7830  175.3240  135.2980 C   0  0  0  0  0  2  0  0  0  0  0  0
  197.5740  175.7710  136.4440 N   0  0  0  0  0  2  0  0  0  0  0  0
  195.3040  174.0250  136.8410 C   0  0  0  0  0  3  0  0  0  0  0  0
  196.2530  174.3970  137.9800 C   0  0  0  0  0  2  0  0  0  0  0  0
  195.3380  175.0710  135.7240 C   0  0  0  0  0  2  0  0  0  0  0  0
  1  2  1  0  0  0  0
  1  7  1  0  0  0  0
  3  4  1  0  0  0  0
  3  5  1  0  0  0  0
  4 25  1  6  0  0  0
  4  6  1  0  0  0  0
  5  1  2  0  0  0  0
  6  2  1  0  0  0  0
  9  7  1  1  0  0  0
  9  8  1  0  0  0  0
 10 11  1  6  0  0  0
 10  9  1  0  0  0  0
 10  8  1  0  0  0  0
 12 13  1  0  0  0  0
 12 11  1  0  0  0  0
 14 17  1  0  0  0  0
 15 17  1  0  0  0  0
 16 24  1  6  0  0  0
 16 18  1  0  0  0  0
 16 15  1  0  0  0  0
 17 12  1  1  0  0  0
 18 14  1  0  0  0  0
 19 16  1  0  0  0  0
 20 19  2  0  0  0  0
 21 19  1  0  0  0  0
 22 21  1  0  0  0  0
 23 24  1  0  0  0  0
 26 25  1  0  0  0  0
 27 35  1  6  0  0  0
 27 26  1  0  0  0  0
 28 31  1  0  0  0  0
 29 33  1  0  0  0  0
 30 29  1  0  0  0  0
 31 34  1  1  0  0  0
 31 33  1  0  0  0  0
 32 28  1  0  0  0  0
 32 30  1  0  0  0  0
 33 27  1  6  0  0  0
 35 36  1  0  0  0  0
 37 38  1  1  0  0  0
 37 36  1  0  0  0  0
 39 37  1  0  0  0  0
 39 40  1  0  0  0  0
 41 45  1  0  0  0  0
 42 46  1  0  0  0  0
 42 43  1  0  0  0  0
 43 41  1  0  0  0  0
 44 40  1  0  0  0  0
 44 45  1  0  0  0  0
 46 44  1  0  0  0  0
M  END
>  <MODEL>
6

>  <REMARK>
 VINA RESULT:      -7.2      4.038     11.469
  Name = 
  18 active torsions:
  status: ('A' for Active; 'I' for Inactive)
    1  A    between atoms: N_1  and  N_11
    2  A    between atoms: N_1  and  C_33
    3  A    between atoms: C_3  and  N_44
    4  A    between atoms: N_11  and  C_20
    5  A    between atoms: C_12  and  C_21
    6  A    between atoms: C_12  and  C_30
    7  A    between atoms: C_14  and  C_23
    8  A    between atoms: C_14  and  C_29
    9  A    between atoms: C_14  and  C_32
   10  A    between atoms: O_17  and  C_21
   11  A    between atoms: C_18  and  N_44
   12  A    between atoms: C_19  and  C_23
   13  A    between atoms: C_19  and  C_27
   14  A    between atoms: C_27  and  C_28
   15  A    between atoms: C_28  and  C_42
   16  A    between atoms: C_29  and  C_37
   17  A    between atoms: C_31  and  C_37
   18  A    between atoms: C_40  and  C_42
                            x       y       z     vdW  Elec       q    Type
                         _______ _______ _______ _____ _____    ______ ____

>  <TORSDO>
F 18

$$$$
=
 OpenBabel10232411363D

 46 50  0  0  1  0  0  0  0  0999 V2000
  186.4450  177.8850  146.8460 C   0  0  0  0  0  0  0  0  0  0  0  0
  186.7290  177.0670  145.6120 C   0  0  0  0  0  2  0  0  0  0  0  0
  185.2400  179.6090  145.4940 C   0  0  0  0  0  2  0  0  0  0  0  0
  185.1510  178.5660  144.3860 C   0  0  2  0  0  3  0  0  0  0  0  0
  185.7020  179.0020  146.7880 C   0  0  0  0  0  3  0  0  0  0  0  0
  186.4840  177.8300  144.3090 C   0  0  0  0  0  2  0  0  0  0  0  0
  186.8830  177.3720  148.1090 N   0  0  0  0  0  2  0  0  0  0  0  0
  188.9920  178.4130  148.7020 C   0  0  0  0  0  2  0  0  0  0  0  0
  188.2790  177.1070  148.4250 C   0  0  2  0  0  3  0  0  0  0  0  0
  189.1590  177.7280  147.3620 C   0  0  2  0  0  3  0  0  0  0  0  0
  190.4300  177.0250  147.3340 N   0  0  0  0  0  2  0  0  0  0  0  0
  191.1080  177.4460  146.1790 N   0  0  0  0  0  0  0  0  0  0  0  0
  191.9430  176.4310  145.8410 O   0  0  0  0  0  1  0  0  0  0  0  0
  190.2700  178.8970  144.3850 C   0  0  0  0  0  2  0  0  0  0  0  0
  190.3350  176.5140  144.0390 C   0  0  0  0  0  2  0  0  0  0  0  0
  190.0090  177.1630  142.7010 C   0  0  1  0  0  0  0  0  0  0  0  0
  190.1180  177.5730  145.1090 C   0  0  1  0  0  3  0  0  0  0  0  0
  189.7700  178.6450  142.9800 C   0  0  0  0  0  2  0  0  0  0  0  0
  191.1740  176.9650  141.7660 C   0  0  0  0  0  0  0  0  0  0  0  0
  192.3570  176.9900  142.2060 O   0  0  0  0  0  0  0  0  0  0  0  0
  190.9420  176.6790  140.4220 O   0  0  0  0  0  0  0  0  0  0  0  0
  190.7050  177.6610  139.5410 O   0  0  0  0  0  1  0  0  0  0  0  0
  188.2490  175.5150  142.9020 O   0  0  0  0  0  1  0  0  0  0  0  0
  188.7470  176.5450  142.0970 C   0  0  0  0  0  2  0  0  0  0  0  0
  184.8560  179.2610  143.0710 C   0  0  0  0  0  2  0  0  0  0  0  0
  183.5690  178.7180  142.4610 C   0  0  0  0  0  2  0  0  0  0  0  0
  183.8070  178.0550  141.0980 C   0  0  1  0  0  3  0  0  0  0  0  0
  180.7950  178.2750  138.6230 C   0  0  0  0  0  2  0  0  0  0  0  0
  182.6070  176.2400  139.8260 C   0  0  0  0  0  2  0  0  0  0  0  0
  181.2780  175.7630  139.2650 C   0  0  0  0  0  2  0  0  0  0  0  0
  182.1410  178.6350  139.2410 C   0  0  2  0  0  3  0  0  0  0  0  0
  180.8910  176.6830  137.7460 S   0  0  0  0  0  0  0  0  0  0  0  0
  182.4940  177.6630  140.3840 C   0  0  2  0  0  3  0  0  0  0  0  0
  182.0620  179.9370  139.6970 F   0  0  0  0  0  0  0  0  0  0  0  0
  184.6740  178.9690  140.2350 C   0  0  0  0  0  2  0  0  0  0  0  0
  186.1410  178.5430  140.2530 C   0  0  0  0  0  2  0  0  0  0  0  0
  186.6580  178.0200  138.9080 C   0  0  2  0  0  3  0  0  0  0  0  0
  187.7320  178.7880  138.4610 O   0  0  0  0  0  1  0  0  0  0  0  0
  185.5730  177.9610  137.8370 C   0  0  0  0  0  2  0  0  0  0  0  0
  186.0830  177.3320  136.5390 C   0  0  0  0  0  2  0  0  0  0  0  0
  184.5080  173.8520  137.1720 C   0  0  0  0  0  2  0  0  0  0  0  0
  186.8420  173.5450  136.8600 C   0  0  0  0  0  2  0  0  0  0  0  0
  185.7060  173.2180  137.7210 N   0  0  0  0  0  2  0  0  0  0  0  0
  185.8760  175.8180  136.4680 C   0  0  0  0  0  3  0  0  0  0  0  0
  184.6400  175.3700  137.2480 C   0  0  0  0  0  2  0  0  0  0  0  0
  187.1230  175.0460  136.9070 C   0  0  0  0  0  2  0  0  0  0  0  0
  1  7  1  0  0  0  0
  2  1  1  0  0  0  0
  3  5  1  0  0  0  0
  4 25  1  6  0  0  0
  4  3  1  0  0  0  0
  5  1  2  0  0  0  0
  6  4  1  0  0  0  0
  6  2  1  0  0  0  0
  9  7  1  6  0  0  0
  9  8  1  0  0  0  0
 10 11  1  1  0  0  0
 10  9  1  0  0  0  0
 10  8  1  0  0  0  0
 12 11  1  0  0  0  0
 13 12  1  0  0  0  0
 14 17  1  0  0  0  0
 15 17  1  0  0  0  0
 16 24  1  6  0  0  0
 16 18  1  0  0  0  0
 16 15  1  0  0  0  0
 17 12  1  1  0  0  0
 18 14  1  0  0  0  0
 19 20  2  0  0  0  0
 19 16  1  0  0  0  0
 21 19  1  0  0  0  0
 22 21  1  0  0  0  0
 24 23  1  0  0  0  0
 26 25  1  0  0  0  0
 27 35  1  6  0  0  0
 27 26  1  0  0  0  0
 28 31  1  0  0  0  0
 29 33  1  0  0  0  0
 30 29  1  0  0  0  0
 31 34  1  1  0  0  0
 31 33  1  0  0  0  0
 32 28  1  0  0  0  0
 32 30  1  0  0  0  0
 33 27  1  6  0  0  0
 35 36  1  0  0  0  0
 37 38  1  6  0  0  0
 37 36  1  0  0  0  0
 39 37  1  0  0  0  0
 40 39  1  0  0  0  0
 41 45  1  0  0  0  0
 41 43  1  0  0  0  0
 42 46  1  0  0  0  0
 42 43  1  0  0  0  0
 44 40  1  0  0  0  0
 44 46  1  0  0  0  0
 44 45  1  0  0  0  0
M  END
>  <MODEL>
7

>  <REMARK>
 VINA RESULT:      -7.2      4.879      8.607
  Name = 
  18 active torsions:
  status: ('A' for Active; 'I' for Inactive)
    1  A    between atoms: N_1  and  N_11
    2  A    between atoms: N_1  and  C_33
    3  A    between atoms: C_3  and  N_44
    4  A    between atoms: N_11  and  C_20
    5  A    between atoms: C_12  and  C_21
    6  A    between atoms: C_12  and  C_30
    7  A    between atoms: C_14  and  C_23
    8  A    between atoms: C_14  and  C_29
    9  A    between atoms: C_14  and  C_32
   10  A    between atoms: O_17  and  C_21
   11  A    between atoms: C_18  and  N_44
   12  A    between atoms: C_19  and  C_23
   13  A    between atoms: C_19  and  C_27
   14  A    between atoms: C_27  and  C_28
   15  A    between atoms: C_28  and  C_42
   16  A    between atoms: C_29  and  C_37
   17  A    between atoms: C_31  and  C_37
   18  A    between atoms: C_40  and  C_42
                            x       y       z     vdW  Elec       q    Type
                         _______ _______ _______ _____ _____    ______ ____

>  <TORSDO>
F 18

$$$$
=
 OpenBabel10232411363D

 46 50  0  0  1  0  0  0  0  0999 V2000
  190.4770  177.3550  144.9960 C   0  0  0  0  0  0  0  0  0  0  0  0
  190.3200  178.5980  144.1570 C   0  0  0  0  0  2  0  0  0  0  0  0
  190.1940  175.8950  142.9870 C   0  0  0  0  0  2  0  0  0  0  0  0
  190.4890  177.1300  142.1440 C   0  0  2  0  0  3  0  0  0  0  0  0
  190.4920  176.1340  144.4400 C   0  0  0  0  0  3  0  0  0  0  0  0
  189.7630  178.3190  142.7600 C   0  0  0  0  0  2  0  0  0  0  0  0
  190.7390  177.5170  146.3950 N   0  0  0  0  0  2  0  0  0  0  0  0
  189.0570  176.5420  147.8460 C   0  0  0  0  0  2  0  0  0  0  0  0
  189.7050  177.8250  147.3720 C   0  0  2  0  0  3  0  0  0  0  0  0
  188.3570  177.4120  146.8220 C   0  0  2  0  0  3  0  0  0  0  0  0
  187.3220  178.1910  147.4780 N   0  0  0  0  0  2  0  0  0  0  0  0
  186.1700  178.1020  146.6800 N   0  0  0  0  0  0  0  0  0  0  0  0
  185.4010  179.1710  147.0060 O   0  0  0  0  0  1  0  0  0  0  0  0
  186.5810  176.9420  144.5550 C   0  0  0  0  0  2  0  0  0  0  0  0
  185.5980  179.1420  144.5270 C   0  0  0  0  0  2  0  0  0  0  0  0
  185.5110  178.5820  143.1130 C   0  0  1  0  0  0  0  0  0  0  0  0
  186.5860  178.2710  145.2870 C   0  0  1  0  0  3  0  0  0  0  0  0
  186.3160  177.2850  143.1060 C   0  0  0  0  0  2  0  0  0  0  0  0
  184.0650  178.3270  142.7780 C   0  0  0  0  0  0  0  0  0  0  0  0
  183.1740  178.4360  143.6660 O   0  0  0  0  0  0  0  0  0  0  0  0
  183.6980  178.0420  141.4640 O   0  0  0  0  0  0  0  0  0  0  0  0
  182.4090  178.0370  141.0960 O   0  0  0  0  0  1  0  0  0  0  0  0
  186.7510  178.8960  141.0600 O   0  0  0  0  0  1  0  0  0  0  0  0
  186.1120  179.5650  142.1080 C   0  0  0  0  0  2  0  0  0  0  0  0
  190.0050  176.8920  140.7270 C   0  0  0  0  0  2  0  0  0  0  0  0
  191.1210  177.1780  139.7290 C   0  0  0  0  0  2  0  0  0  0  0  0
  190.6000  177.2880  138.2900 C   0  0  1  0  0  3  0  0  0  0  0  0
  193.4610  175.1900  136.6610 C   0  0  0  0  0  2  0  0  0  0  0  0
  190.5650  174.9620  137.3210 C   0  0  0  0  0  2  0  0  0  0  0  0
  191.1260  174.0320  136.2590 C   0  0  0  0  0  2  0  0  0  0  0  0
  192.7790  176.0840  137.6900 C   0  0  2  0  0  3  0  0  0  0  0  0
  192.7970  173.4970  136.7340 S   0  0  0  0  0  0  0  0  0  0  0  0
  191.2990  176.3080  137.3220 C   0  0  2  0  0  3  0  0  0  0  0  0
  193.4710  177.2810  137.7340 F   0  0  0  0  0  0  0  0  0  0  0  0
  189.0830  177.1090  138.2870 C   0  0  0  0  0  2  0  0  0  0  0  0
  188.3560  178.4210  137.9970 C   0  0  0  0  0  2  0  0  0  0  0  0
  187.3110  178.3260  136.8800 C   0  0  2  0  0  3  0  0  0  0  0  0
  186.0220  178.4080  137.4040 O   0  0  0  0  0  1  0  0  0  0  0  0
  187.4550  177.0620  136.0380 C   0  0  0  0  0  2  0  0  0  0  0  0
  186.1040  176.5500  135.5380 C   0  0  0  0  0  2  0  0  0  0  0  0
  184.3320  173.6880  137.4520 C   0  0  0  0  0  2  0  0  0  0  0  0
  186.5870  173.0340  137.0950 C   0  0  0  0  0  2  0  0  0  0  0  0
  185.5280  173.1470  138.0970 N   0  0  0  0  0  2  0  0  0  0  0  0
  185.7690  175.1340  136.0110 C   0  0  0  0  0  3  0  0  0  0  0  0
  184.5920  175.1180  136.9870 C   0  0  0  0  0  2  0  0  0  0  0  0
  186.9900  174.4210  136.5980 C   0  0  0  0  0  2  0  0  0  0  0  0
  1  7  1  0  0  0  0
  2  1  1  0  0  0  0
  3  5  1  0  0  0  0
  4 25  1  6  0  0  0
  4  6  1  0  0  0  0
  4  3  1  0  0  0  0
  5  1  2  0  0  0  0
  6  2  1  0  0  0  0
  9  7  1  6  0  0  0
  9  8  1  0  0  0  0
 10  9  1  0  0  0  0
 10 11  1  1  0  0  0
 10  8  1  0  0  0  0
 12 13  1  0  0  0  0
 12 11  1  0  0  0  0
 14 17  1  0  0  0  0
 15 17  1  0  0  0  0
 16 24  1  6  0  0  0
 16 15  1  0  0  0  0
 17 12  1  1  0  0  0
 18 16  1  0  0  0  0
 18 14  1  0  0  0  0
 19 16  1  0  0  0  0
 19 20  2  0  0  0  0
 21 19  1  0  0  0  0
 22 21  1  0  0  0  0
 23 24  1  0  0  0  0
 26 25  1  0  0  0  0
 27 35  1  1  0  0  0
 27 26  1  0  0  0  0
 28 32  1  0  0  0  0
 28 31  1  0  0  0  0
 29 33  1  0  0  0  0
 30 32  1  0  0  0  0
 30 29  1  0  0  0  0
 31 34  1  6  0  0  0
 33 31  1  0  0  0  0
 33 27  1  1  0  0  0
 36 35  1  0  0  0  0
 37 38  1  1  0  0  0
 37 36  1  0  0  0  0
 39 37  1  0  0  0  0
 40 44  1  0  0  0  0
 40 39  1  0  0  0  0
 41 43  1  0  0  0  0
 42 43  1  0  0  0  0
 44 46  1  0  0  0  0
 44 45  1  0  0  0  0
 45 41  1  0  0  0  0
 46 42  1  0  0  0  0
M  END
>  <MODEL>
8

>  <REMARK>
 VINA RESULT:      -7.1      5.447     11.158
  Name = 
  18 active torsions:
  status: ('A' for Active; 'I' for Inactive)
    1  A    between atoms: N_1  and  N_11
    2  A    between atoms: N_1  and  C_33
    3  A    between atoms: C_3  and  N_44
    4  A    between atoms: N_11  and  C_20
    5  A    between atoms: C_12  and  C_21
    6  A    between atoms: C_12  and  C_30
    7  A    between atoms: C_14  and  C_23
    8  A    between atoms: C_14  and  C_29
    9  A    between atoms: C_14  and  C_32
   10  A    between atoms: O_17  and  C_21
   11  A    between atoms: C_18  and  N_44
   12  A    between atoms: C_19  and  C_23
   13  A    between atoms: C_19  and  C_27
   14  A    between atoms: C_27  and  C_28
   15  A    between atoms: C_28  and  C_42
   16  A    between atoms: C_29  and  C_37
   17  A    between atoms: C_31  and  C_37
   18  A    between atoms: C_40  and  C_42
                            x       y       z     vdW  Elec       q    Type
                         _______ _______ _______ _____ _____    ______ ____

>  <TORSDO>
F 18

$$$$
=
 OpenBabel10232411363D

 46 50  0  0  1  0  0  0  0  0999 V2000
  183.1010  178.7970  142.8380 C   0  0  0  0  0  0  0  0  0  0  0  0
  182.7130  178.7880  144.2950 C   0  0  0  0  0  2  0  0  0  0  0  0
  185.5290  178.8810  143.4280 C   0  0  0  0  0  2  0  0  0  0  0  0
  185.1270  178.4220  144.8240 C   0  0  2  0  0  3  0  0  0  0  0  0
  184.3880  178.7640  142.4580 C   0  0  0  0  0  2  0  0  0  0  0  0
  183.8620  179.1690  145.2300 C   0  0  0  0  0  2  0  0  0  0  0  0
  182.0560  178.7140  141.8630 N   0  0  0  0  0  0  0  0  0  0  0  0
  180.9870  179.1930  139.7390 C   0  0  0  0  0  2  0  0  0  0  0  0
  182.2840  178.8330  140.4310 C   0  0  2  0  0  3  0  0  0  0  0  0
  181.4920  177.7650  139.7070 C   0  0  2  0  0  3  0  0  0  0  0  0
  182.1190  177.5030  138.4230 N   0  0  0  0  0  2  0  0  0  0  0  0
  183.4230  177.0530  138.6850 N   0  0  0  0  0  0  0  0  0  0  0  0
  183.3740  175.6990  138.6240 O   0  0  0  0  0  1  0  0  0  0  0  0
  185.6000  178.0330  138.1120 C   0  0  0  0  0  2  0  0  0  0  0  0
  184.6450  176.3560  136.6690 C   0  0  0  0  0  2  0  0  0  0  0  0
  186.0750  176.5980  136.2070 C   0  0  1  0  0  0  0  0  0  0  0  0
  184.2750  177.5100  137.5870 C   0  0  1  0  0  3  0  0  0  0  0  0
  186.5920  177.7990  136.9940 C   0  0  0  0  0  2  0  0  0  0  0  0
  186.8940  175.3660  136.4930 C   0  0  0  0  0  0  0  0  0  0  0  0
  186.4710  174.4890  137.2970 O   0  0  0  0  0  0  0  0  0  0  0  0
  188.0920  175.1570  135.8110 O   0  0  0  0  0  0  0  0  0  0  0  0
  188.4420  173.9310  135.3990 O   0  0  0  0  0  1  0  0  0  0  0  0
  186.4370  178.2490  134.4780 O   0  0  0  0  0  1  0  0  0  0  0  0
  186.1110  176.9100  134.7110 C   0  0  0  0  0  2  0  0  0  0  0  0
  186.2530  178.7270  145.7920 C   0  0  0  0  0  2  0  0  0  0  0  0
  187.2780  177.5980  145.7880 C   0  0  0  0  0  2  0  0  0  0  0  0
  188.4920  177.9180  144.9060 C   0  0  1  0  0  3  0  0  0  0  0  0
  190.9840  177.2870  147.8450 C   0  0  0  0  0  2  0  0  0  0  0  0
  190.6310  176.5880  144.9710 C   0  0  0  0  0  2  0  0  0  0  0  0
  192.0260  176.4740  145.5620 C   0  0  0  0  0  2  0  0  0  0  0  0
  189.6390  177.3860  147.1330 C   0  0  2  0  0  3  0  0  0  0  0  0
  191.9190  175.8380  147.2620 S   0  0  0  0  0  0  0  0  0  0  0  0
  189.8360  177.7150  145.6400 C   0  0  2  0  0  3  0  0  0  0  0  0
  188.8970  178.3640  147.7680 F   0  0  0  0  0  0  0  0  0  0  0  0
  188.4130  177.0960  143.6210 C   0  0  0  0  0  2  0  0  0  0  0  0
  189.0910  177.8060  142.4510 C   0  0  0  0  0  2  0  0  0  0  0  0
  189.4930  176.8760  141.3010 C   0  0  2  0  0  3  0  0  0  0  0  0
  190.5090  176.0090  141.7000 O   0  0  0  0  0  1  0  0  0  0  0  0
  189.9120  177.6320  140.0440 C   0  0  0  0  0  2  0  0  0  0  0  0
  189.7000  176.8000  138.7780 C   0  0  0  0  0  2  0  0  0  0  0  0
  193.4730  176.0200  138.3910 C   0  0  0  0  0  2  0  0  0  0  0  0
  192.5530  176.2470  136.2130 C   0  0  0  0  0  2  0  0  0  0  0  0
  193.6490  176.6620  137.0880 N   0  0  0  0  0  2  0  0  0  0  0  0
  190.9980  176.2620  138.1720 C   0  0  0  0  0  3  0  0  0  0  0  0
  192.2080  176.5440  139.0640 C   0  0  0  0  0  2  0  0  0  0  0  0
  191.2240  176.7770  136.7480 C   0  0  0  0  0  2  0  0  0  0  0  0
  1  2  1  0  0  0  0
  2  6  1  0  0  0  0
  3  4  1  0  0  0  0
  4  6  1  0  0  0  0
  4 25  1  1  0  0  0
  5  1  1  0  0  0  0
  5  3  1  0  0  0  0
  7  1  2  0  0  0  0
  8  9  1  0  0  0  0
  9  7  1  1  0  0  0
 10 11  1  6  0  0  0
 10  8  1  0  0  0  0
 10  9  1  0  0  0  0
 11 12  1  0  0  0  0
 13 12  1  0  0  0  0
 15 17  1  0  0  0  0
 16 24  1  6  0  0  0
 16 19  1  0  0  0  0
 16 15  1  0  0  0  0
 16 18  1  0  0  0  0
 17 14  1  0  0  0  0
 17 12  1  1  0  0  0
 18 14  1  0  0  0  0
 19 20  2  0  0  0  0
 21 19  1  0  0  0  0
 22 21  1  0  0  0  0
 23 24  1  0  0  0  0
 26 25  1  0  0  0  0
 27 35  1  6  0  0  0
 27 26  1  0  0  0  0
 29 30  1  0  0  0  0
 29 33  1  0  0  0  0
 30 32  1  0  0  0  0
 31 34  1  1  0  0  0
 31 28  1  0  0  0  0
 32 28  1  0  0  0  0
 33 27  1  6  0  0  0
 33 31  1  0  0  0  0
 36 35  1  0  0  0  0
 37 38  1  1  0  0  0
 37 36  1  0  0  0  0
 39 37  1  0  0  0  0
 40 39  1  0  0  0  0
 41 45  1  0  0  0  0
 42 46  1  0  0  0  0
 42 43  1  0  0  0  0
 43 41  1  0  0  0  0
 44 40  1  0  0  0  0
 44 45  1  0  0  0  0
 46 44  1  0  0  0  0
M  END
>  <MODEL>
9

>  <REMARK>
 VINA RESULT:      -7.1      4.397      9.488
  Name = 
  18 active torsions:
  status: ('A' for Active; 'I' for Inactive)
    1  A    between atoms: N_1  and  N_11
    2  A    between atoms: N_1  and  C_33
    3  A    between atoms: C_3  and  N_44
    4  A    between atoms: N_11  and  C_20
    5  A    between atoms: C_12  and  C_21
    6  A    between atoms: C_12  and  C_30
    7  A    between atoms: C_14  and  C_23
    8  A    between atoms: C_14  and  C_29
    9  A    between atoms: C_14  and  C_32
   10  A    between atoms: O_17  and  C_21
   11  A    between atoms: C_18  and  N_44
   12  A    between atoms: C_19  and  C_23
   13  A    between atoms: C_19  and  C_27
   14  A    between atoms: C_27  and  C_28
   15  A    between atoms: C_28  and  C_42
   16  A    between atoms: C_29  and  C_37
   17  A    between atoms: C_31  and  C_37
   18  A    between atoms: C_40  and  C_42
                            x       y       z     vdW  Elec       q    Type
                         _______ _______ _______ _____ _____    ______ ____

>  <TORSDO>
F 18

$$$$
