=
 OpenBabel10232409113D

 59 68  0  0  1  0  0  0  0  0999 V2000
  190.0990  177.6730  145.9620 N   0  0  0  0  0  2  0  0  0  0  0  0
  190.9400  176.9060  145.0540 C   0  0  0  0  0  2  0  0  0  0  0  0
  188.2740  178.8720  141.2230 C   0  0  0  0  0  1  0  0  0  0  0  0
  189.4520  177.9580  143.2680 C   0  0  0  0  0  3  0  0  0  0  0  0
  190.5430  177.1860  143.6490 C   0  0  0  0  0  0  0  0  0  0  0  0
  190.3560  177.4180  141.1780 C   0  0  0  0  0  0  0  0  0  0  0  0
  189.3520  178.0830  141.8760 C   0  0  0  0  0  0  0  0  0  0  0  0
  191.3790  176.6710  142.2850 S   0  0  0  0  0  0  0  0  0  0  0  0
  190.5270  177.4110  139.6930 C   0  0  1  0  0  3  0  0  0  0  0  0
  189.2230  174.8240  137.0360 N   0  0  0  0  0  2  0  0  0  0  0  0
  191.0810  175.4960  138.3650 N   0  0  0  0  0  0  0  0  0  0  0  0
  191.5230  176.4230  139.3100 N   0  0  0  0  0  2  0  0  0  0  0  0
  189.8380  175.6290  138.0460 C   0  0  0  0  0  0  0  0  0  0  0  0
  188.9600  176.9520  138.8600 S   0  0  0  0  0  0  0  0  0  0  0  0
  189.9110  173.7200  136.3730 C   0  0  0  0  0  2  0  0  0  0  0  0
  189.0970  173.2650  135.1730 C   0  0  0  0  0  2  0  0  0  0  0  0
  186.8640  174.3680  134.9000 C   0  0  0  0  0  3  0  0  0  0  0  0
  187.6340  173.3360  135.4480 C   0  0  0  0  0  0  0  0  0  0  0  0
  185.4880  174.4180  135.1420 C   0  0  0  0  0  3  0  0  0  0  0  0
  184.8720  173.4360  135.9250 C   0  0  0  0  0  0  0  0  0  0  0  0
  185.6490  172.4030  136.4720 C   0  0  0  0  0  3  0  0  0  0  0  0
  187.0260  172.3560  136.2370 C   0  0  0  0  0  3  0  0  0  0  0  0
  183.4930  173.5040  136.1360 O   0  0  0  0  0  0  0  0  0  0  0  0
  181.4410  174.6650  135.6210 C   0  0  0  0  0  2  0  0  0  0  0  0
  181.5310  174.5270  137.1210 C   0  0  2  0  0  0  0  0  0  0  0  0
  182.8000  174.7360  136.3130 C   0  0  1  0  0  3  0  0  0  0  0  0
  181.3040  173.2230  137.5810 O   0  0  0  0  0  1  0  0  0  0  0  0
  181.4810  175.6440  139.3830 C   0  0  0  0  0  2  0  0  0  0  0  0
  181.0370  175.7270  137.9310 C   0  0  0  0  0  3  0  0  0  0  0  0
  180.0650  175.2620  139.0040 C   0  0  0  0  0  2  0  0  0  0  0  0
  188.9300  176.9300  146.1710 N   0  0  0  0  0  2  0  0  0  0  0  0
  185.5820  178.3180  145.2080 C   0  0  0  0  0  0  0  0  0  0  0  0
  187.6500  177.5570  146.2560 C   0  0  0  0  0  0  0  0  0  0  0  0
  185.1440  178.7860  146.4610 C   0  0  0  0  0  3  0  0  0  0  0  0
  186.8370  177.6970  145.1210 C   0  0  0  0  0  3  0  0  0  0  0  0
  185.9470  178.6430  147.5950 C   0  0  0  0  0  3  0  0  0  0  0  0
  187.2000  178.0340  147.4910 C   0  0  0  0  0  3  0  0  0  0  0  0
  181.0870  179.2710  141.1190 C   0  0  0  0  0  0  0  0  0  0  0  0
  181.1350  180.1460  139.1930 C   0  0  0  0  0  0  0  0  0  0  0  0
  184.7520  178.4990  143.9910 C   0  0  0  0  0  0  0  0  0  0  0  0
  183.3060  178.9530  144.1390 C   0  0  0  0  0  2  0  0  0  0  0  0
  180.3940  180.1040  140.3300 N   0  0  0  0  0  0  0  0  0  0  0  0
  180.4530  179.7670  143.4090 O   0  0  0  0  0  0  0  0  0  0  0  0
  182.3520  179.4640  139.3100 C   0  0  0  0  0  3  0  0  0  0  0  0
  183.2140  178.6300  141.6160 C   0  0  0  0  0  0  0  0  0  0  0  0
  185.2860  178.2640  142.7700 C   0  0  0  0  0  3  0  0  0  0  0  0
  182.5790  178.8350  142.8780 N   0  0  0  0  0  0  0  0  0  0  0  0
  182.2480  178.8800  140.5500 C   0  0  1  0  0  3  0  0  0  0  0  0
  184.5130  178.3840  141.5190 C   0  0  0  0  0  3  0  0  0  0  0  0
  181.2670  179.3030  142.5670 C   0  0  0  0  0  0  0  0  0  0  0  0
  180.0820  181.1100  135.7040 C   0  0  0  0  0  2  0  0  0  0  0  0
  180.1200  183.2450  134.6480 O   0  0  0  0  0  1  0  0  0  0  0  0
  180.6650  182.5210  135.7060 C   0  0  1  0  0  3  0  0  0  0  0  0
  180.2980  183.1740  137.0380 C   0  0  1  0  0  3  0  0  0  0  0  0
  180.7580  180.9530  138.0260 C   0  0  0  0  0  0  0  0  0  0  0  0
  180.5020  180.3680  136.8910 N   0  0  0  0  0  0  0  0  0  0  0  0
  180.7120  182.3520  138.1300 O   0  0  0  0  0  0  0  0  0  0  0  0
  182.2650  184.4970  137.4680 O   0  0  0  0  0  1  0  0  0  0  0  0
  180.8990  184.5710  137.1710 C   0  0  0  0  0  2  0  0  0  0  0  0
  1 31  1  0  0  0  0
  2  1  1  0  0  0  0
  3  7  1  0  0  0  0
  4  5  2  0  0  0  0
  5  2  1  0  0  0  0
  6  7  2  0  0  0  0
  6  8  1  0  0  0  0
  7  4  1  0  0  0  0
  8  5  1  0  0  0  0
  9  6  1  1  0  0  0
 10 13  1  0  0  0  0
 11 12  1  0  0  0  0
 12  9  1  0  0  0  0
 13 11  2  0  0  0  0
 13 14  1  0  0  0  0
 14  9  1  0  0  0  0
 15 10  1  0  0  0  0
 16 18  1  0  0  0  0
 16 15  1  0  0  0  0
 17 19  2  0  0  0  0
 17 18  1  0  0  0  0
 18 22  2  0  0  0  0
 19 20  1  0  0  0  0
 20 23  1  0  0  0  0
 20 21  2  0  0  0  0
 22 21  1  0  0  0  0
 24 26  1  0  0  0  0
 24 25  1  0  0  0  0
 25 27  1  1  0  0  0
 25 29  1  0  0  0  0
 26 23  1  6  0  0  0
 26 25  1  0  0  0  0
 29 30  1  0  0  0  0
 29 28  1  0  0  0  0
 30 28  1  0  0  0  0
 31 33  1  0  0  0  0
 32 34  1  0  0  0  0
 33 37  2  0  0  0  0
 34 36  2  0  0  0  0
 35 32  2  0  0  0  0
 35 33  1  0  0  0  0
 37 36  1  0  0  0  0
 38 50  1  0  0  0  0
 39 44  2  0  0  0  0
 39 42  1  0  0  0  0
 40 41  1  0  0  0  0
 40 32  1  0  0  0  0
 42 38  2  0  0  0  0
 45 47  1  0  0  0  0
 46 40  2  0  0  0  0
 47 41  1  0  0  0  0
 48 44  1  6  0  0  0
 48 38  1  0  0  0  0
 48 45  1  0  0  0  0
 49 45  2  0  0  0  0
 49 46  1  0  0  0  0
 50 47  1  0  0  0  0
 50 43  2  0  0  0  0
 51 53  1  0  0  0  0
 51 56  1  0  0  0  0
 53 52  1  6  0  0  0
 53 54  1  0  0  0  0
 54 59  1  1  0  0  0
 54 57  1  0  0  0  0
 55 57  1  0  0  0  0
 55 39  1  0  0  0  0
 56 55  2  0  0  0  0
 59 58  1  0  0  0  0
M  END
>  <MODEL>
1

>  <REMARK>
 VINA RESULT:      -9.5      0.000      0.000
  Name = 
  14 active torsions:
  status: ('A' for Active; 'I' for Inactive)
    1  A    between atoms: C_4  and  C_26
    2  A    between atoms: C_5  and  N_58
    3  A    between atoms: C_9  and  C_22
    4  A    between atoms: C_12  and  C_14
    5  A    between atoms: C_13  and  C_20
    6  A    between atoms: N_16  and  C_45
    7  A    between atoms: N_16  and  N_58
    8  A    between atoms: C_17  and  C_36
    9  A    between atoms: C_22  and  C_46
   10  A    between atoms: C_23  and  O_55
   11  A    between atoms: C_24  and  C_29
   12  A    between atoms: N_28  and  C_46
   13  A    between atoms: C_31  and  C_45
   14  A    between atoms: C_39  and  O_55
                            x       y       z     vdW  Elec       q    Type
                         _______ _______ _______ _____ _____    ______ ____

>  <TORSDO>
F 14

$$$$
=
 OpenBabel10232409113D

 59 68  0  0  1  0  0  0  0  0999 V2000
  190.3750  177.2000  147.3110 N   0  0  0  0  0  2  0  0  0  0  0  0
  191.4770  177.1410  146.3620 C   0  0  0  0  0  2  0  0  0  0  0  0
  189.4710  179.3140  142.2500 C   0  0  0  0  0  1  0  0  0  0  0  0
  190.4260  178.4070  144.4110 C   0  0  0  0  0  3  0  0  0  0  0  0
  190.9490  177.2500  144.9760 C   0  0  0  0  0  0  0  0  0  0  0  0
  190.2730  176.9310  142.6020 C   0  0  0  0  0  0  0  0  0  0  0  0
  190.0460  178.2190  143.0760 C   0  0  0  0  0  0  0  0  0  0  0  0
  190.9510  176.0120  143.8390 S   0  0  0  0  0  0  0  0  0  0  0  0
  190.0070  176.4540  141.2100 C   0  0  1  0  0  3  0  0  0  0  0  0
  189.7660  178.5060  137.8650 N   0  0  0  0  0  2  0  0  0  0  0  0
  188.5340  177.5020  139.6380 N   0  0  0  0  0  0  0  0  0  0  0  0
  188.6410  176.7750  140.8250 N   0  0  0  0  0  2  0  0  0  0  0  0
  189.6700  177.8290  139.1210 C   0  0  0  0  0  0  0  0  0  0  0  0
  191.1180  177.2890  140.0140 S   0  0  0  0  0  0  0  0  0  0  0  0
  188.5990  178.9800  137.1280 C   0  0  0  0  0  2  0  0  0  0  0  0
  188.4250  178.1490  135.8680 C   0  0  0  0  0  2  0  0  0  0  0  0
  186.5040  176.9370  136.9260 C   0  0  0  0  0  3  0  0  0  0  0  0
  187.0640  177.5460  135.7980 C   0  0  0  0  0  0  0  0  0  0  0  0
  185.2180  176.3910  136.8620 C   0  0  0  0  0  3  0  0  0  0  0  0
  184.4820  176.4580  135.6750 C   0  0  0  0  0  0  0  0  0  0  0  0
  185.0470  177.0700  134.5450 C   0  0  0  0  0  3  0  0  0  0  0  0
  186.3360  177.6080  134.6070 C   0  0  0  0  0  3  0  0  0  0  0  0
  183.1940  175.9190  135.6460 O   0  0  0  0  0  0  0  0  0  0  0  0
  181.1610  174.9760  136.5430 C   0  0  0  0  0  2  0  0  0  0  0  0
  182.0600  173.8340  136.1350 C   0  0  2  0  0  0  0  0  0  0  0  0
  182.6750  175.1060  136.6950 C   0  0  1  0  0  3  0  0  0  0  0  0
  182.1600  173.6640  134.7470 O   0  0  0  0  0  1  0  0  0  0  0  0
  183.3380  171.8110  136.9340 C   0  0  0  0  0  2  0  0  0  0  0  0
  182.0550  172.6180  137.0620 C   0  0  0  0  0  3  0  0  0  0  0  0
  182.0790  171.3400  136.2380 C   0  0  0  0  0  2  0  0  0  0  0  0
  189.2280  176.7520  146.6430 N   0  0  0  0  0  2  0  0  0  0  0  0
  186.0430  178.3520  145.4780 C   0  0  0  0  0  0  0  0  0  0  0  0
  188.0190  177.5120  146.6370 C   0  0  0  0  0  0  0  0  0  0  0  0
  185.6540  179.0070  146.6610 C   0  0  0  0  0  3  0  0  0  0  0  0
  187.2280  177.6000  145.4820 C   0  0  0  0  0  3  0  0  0  0  0  0
  186.4360  178.9180  147.8150 C   0  0  0  0  0  3  0  0  0  0  0  0
  187.6200  178.1750  147.8010 C   0  0  0  0  0  3  0  0  0  0  0  0
  181.6060  178.9200  141.2560 C   0  0  0  0  0  0  0  0  0  0  0  0
  181.6250  179.8380  139.3490 C   0  0  0  0  0  0  0  0  0  0  0  0
  185.2380  178.4730  144.2370 C   0  0  0  0  0  0  0  0  0  0  0  0
  183.7490  178.7700  144.3430 C   0  0  0  0  0  2  0  0  0  0  0  0
  180.8560  179.6930  140.4590 N   0  0  0  0  0  0  0  0  0  0  0  0
  180.8510  179.2960  143.5310 O   0  0  0  0  0  0  0  0  0  0  0  0
  182.9020  179.2840  139.4950 C   0  0  0  0  0  3  0  0  0  0  0  0
  183.7720  178.4940  141.8130 C   0  0  0  0  0  0  0  0  0  0  0  0
  185.8330  178.3220  143.0300 C   0  0  0  0  0  3  0  0  0  0  0  0
  183.0790  178.6040  143.0560 N   0  0  0  0  0  0  0  0  0  0  0  0
  182.8210  178.6650  140.7200 C   0  0  1  0  0  3  0  0  0  0  0  0
  185.0920  178.3880  141.7560 C   0  0  0  0  0  3  0  0  0  0  0  0
  181.7360  178.9390  142.7100 C   0  0  0  0  0  0  0  0  0  0  0  0
  180.4520  180.7480  135.8840 C   0  0  0  0  0  2  0  0  0  0  0  0
  180.4350  182.8700  134.8010 O   0  0  0  0  0  1  0  0  0  0  0  0
  181.0210  182.1640  135.8500 C   0  0  1  0  0  3  0  0  0  0  0  0
  180.6890  182.8300  137.1850 C   0  0  1  0  0  3  0  0  0  0  0  0
  181.2020  180.6260  138.1850 C   0  0  0  0  0  0  0  0  0  0  0  0
  180.9170  180.0250  137.0650 N   0  0  0  0  0  0  0  0  0  0  0  0
  181.1460  182.0260  138.2730 O   0  0  0  0  0  0  0  0  0  0  0  0
  180.2790  185.2040  137.1620 O   0  0  0  0  0  1  0  0  0  0  0  0
  181.2810  184.2350  137.2810 C   0  0  0  0  0  2  0  0  0  0  0  0
  2  1  1  0  0  0  0
  3  7  1  0  0  0  0
  4  5  2  0  0  0  0
  5  2  1  0  0  0  0
  6  7  2  0  0  0  0
  6  8  1  0  0  0  0
  7  4  1  0  0  0  0
  8  5  1  0  0  0  0
  9  6  1  1  0  0  0
 10 13  1  0  0  0  0
 11 12  1  0  0  0  0
 12  9  1  0  0  0  0
 13 11  2  0  0  0  0
 13 14  1  0  0  0  0
 14  9  1  0  0  0  0
 15 10  1  0  0  0  0
 16 15  1  0  0  0  0
 18 16  1  0  0  0  0
 18 17  2  0  0  0  0
 19 17  1  0  0  0  0
 20 19  2  0  0  0  0
 21 22  2  0  0  0  0
 21 20  1  0  0  0  0
 22 18  1  0  0  0  0
 23 20  1  0  0  0  0
 24 26  1  0  0  0  0
 25 27  1  6  0  0  0
 25 24  1  0  0  0  0
 25 26  1  0  0  0  0
 25 29  1  0  0  0  0
 26 23  1  6  0  0  0
 28 29  1  0  0  0  0
 30 28  1  0  0  0  0
 30 29  1  0  0  0  0
 31  1  1  0  0  0  0
 32 35  2  0  0  0  0
 32 34  1  0  0  0  0
 33 31  1  0  0  0  0
 33 37  2  0  0  0  0
 34 36  2  0  0  0  0
 35 33  1  0  0  0  0
 37 36  1  0  0  0  0
 38 50  1  0  0  0  0
 39 44  2  0  0  0  0
 39 42  1  0  0  0  0
 40 41  1  0  0  0  0
 40 32  1  0  0  0  0
 42 38  2  0  0  0  0
 45 47  1  0  0  0  0
 46 40  2  0  0  0  0
 47 41  1  0  0  0  0
 48 44  1  6  0  0  0
 48 38  1  0  0  0  0
 48 45  1  0  0  0  0
 49 45  2  0  0  0  0
 49 46  1  0  0  0  0
 50 47  1  0  0  0  0
 50 43  2  0  0  0  0
 51 56  1  0  0  0  0
 53 52  1  6  0  0  0
 53 51  1  0  0  0  0
 53 54  1  0  0  0  0
 54 59  1  6  0  0  0
 54 57  1  0  0  0  0
 55 57  1  0  0  0  0
 55 39  1  0  0  0  0
 56 55  2  0  0  0  0
 58 59  1  0  0  0  0
M  END
>  <MODEL>
2

>  <REMARK>
 VINA RESULT:      -9.2      1.893      2.339
  Name = 
  14 active torsions:
  status: ('A' for Active; 'I' for Inactive)
    1  A    between atoms: C_4  and  C_26
    2  A    between atoms: C_5  and  N_58
    3  A    between atoms: C_9  and  C_22
    4  A    between atoms: C_12  and  C_14
    5  A    between atoms: C_13  and  C_20
    6  A    between atoms: N_16  and  C_45
    7  A    between atoms: N_16  and  N_58
    8  A    between atoms: C_17  and  C_36
    9  A    between atoms: C_22  and  C_46
   10  A    between atoms: C_23  and  O_55
   11  A    between atoms: C_24  and  C_29
   12  A    between atoms: N_28  and  C_46
   13  A    between atoms: C_31  and  C_45
   14  A    between atoms: C_39  and  O_55
                            x       y       z     vdW  Elec       q    Type
                         _______ _______ _______ _____ _____    ______ ____

>  <TORSDO>
F 14

$$$$
=
 OpenBabel10232409113D

 59 68  0  0  1  0  0  0  0  0999 V2000
  190.1950  177.1820  147.2940 N   0  0  0  0  0  2  0  0  0  0  0  0
  191.2810  177.0230  146.3380 C   0  0  0  0  0  2  0  0  0  0  0  0
  189.3680  179.3270  142.2530 C   0  0  0  0  0  1  0  0  0  0  0  0
  190.2850  178.3540  144.4030 C   0  0  0  0  0  3  0  0  0  0  0  0
  190.7560  177.1700  144.9550 C   0  0  0  0  0  0  0  0  0  0  0  0
  190.0620  176.9050  142.5790 C   0  0  0  0  0  0  0  0  0  0  0  0
  189.8950  178.1980  143.0670 C   0  0  0  0  0  0  0  0  0  0  0  0
  190.6990  175.9450  143.8060 S   0  0  0  0  0  0  0  0  0  0  0  0
  189.7710  176.4550  141.1840 C   0  0  1  0  0  3  0  0  0  0  0  0
  189.8510  178.5010  137.8270 N   0  0  0  0  0  2  0  0  0  0  0  0
  188.4680  177.6610  139.5750 N   0  0  0  0  0  0  0  0  0  0  0  0
  188.4620  176.9350  140.7670 N   0  0  0  0  0  2  0  0  0  0  0  0
  189.6470  177.8480  139.0830 C   0  0  0  0  0  0  0  0  0  0  0  0
  191.0000  177.1440  140.0100 S   0  0  0  0  0  0  0  0  0  0  0  0
  188.7650  179.1060  137.0620 C   0  0  0  0  0  2  0  0  0  0  0  0
  188.0680  178.0360  136.2390 C   0  0  0  0  0  2  0  0  0  0  0  0
  189.8740  177.1790  134.7290 C   0  0  0  0  0  3  0  0  0  0  0  0
  189.0180  176.9690  135.8160 C   0  0  0  0  0  0  0  0  0  0  0  0
  190.7800  176.1830  134.3490 C   0  0  0  0  0  3  0  0  0  0  0  0
  190.8420  174.9780  135.0560 C   0  0  0  0  0  0  0  0  0  0  0  0
  189.9820  174.7720  136.1460 C   0  0  0  0  0  3  0  0  0  0  0  0
  189.0710  175.7640  136.5210 C   0  0  0  0  0  3  0  0  0  0  0  0
  191.7680  174.0100  134.6630 O   0  0  0  0  0  0  0  0  0  0  0  0
  193.3920  172.2340  134.8480 C   0  0  0  0  0  2  0  0  0  0  0  0
  193.8890  173.4020  135.6640 C   0  0  2  0  0  0  0  0  0  0  0  0
  192.3970  173.1260  135.5860 C   0  0  1  0  0  3  0  0  0  0  0  0
  194.3560  174.4730  134.8900 O   0  0  0  0  0  1  0  0  0  0  0  0
  194.4280  174.1610  138.0090 C   0  0  0  0  0  2  0  0  0  0  0  0
  194.5770  173.0480  136.9830 C   0  0  0  0  0  3  0  0  0  0  0  0
  195.7250  174.0110  137.2430 C   0  0  0  0  0  2  0  0  0  0  0  0
  189.0250  176.7320  146.6680 N   0  0  0  0  0  2  0  0  0  0  0  0
  185.8780  178.3900  145.4790 C   0  0  0  0  0  0  0  0  0  0  0  0
  187.8340  177.5220  146.6510 C   0  0  0  0  0  0  0  0  0  0  0  0
  185.5050  179.0730  146.6520 C   0  0  0  0  0  3  0  0  0  0  0  0
  187.0440  177.6100  145.4950 C   0  0  0  0  0  3  0  0  0  0  0  0
  186.2860  178.9820  147.8070 C   0  0  0  0  0  3  0  0  0  0  0  0
  187.4510  178.2120  147.8050 C   0  0  0  0  0  3  0  0  0  0  0  0
  181.4560  179.0110  141.2490 C   0  0  0  0  0  0  0  0  0  0  0  0
  181.5010  179.8880  139.3230 C   0  0  0  0  0  0  0  0  0  0  0  0
  185.0760  178.5100  144.2370 C   0  0  0  0  0  0  0  0  0  0  0  0
  183.5970  178.8560  144.3370 C   0  0  0  0  0  2  0  0  0  0  0  0
  180.7300  179.7910  140.4370 N   0  0  0  0  0  0  0  0  0  0  0  0
  180.7160  179.4570  143.5170 O   0  0  0  0  0  0  0  0  0  0  0  0
  182.7610  179.2970  139.4800 C   0  0  0  0  0  3  0  0  0  0  0  0
  183.6080  178.5280  141.8140 C   0  0  0  0  0  0  0  0  0  0  0  0
  185.6640  178.3160  143.0330 C   0  0  0  0  0  3  0  0  0  0  0  0
  182.9200  178.6860  143.0540 N   0  0  0  0  0  0  0  0  0  0  0  0
  182.6610  178.7070  140.7170 C   0  0  1  0  0  3  0  0  0  0  0  0
  184.9240  178.3790  141.7580 C   0  0  0  0  0  3  0  0  0  0  0  0
  181.5880  179.0560  142.7020 C   0  0  0  0  0  0  0  0  0  0  0  0
  180.4620  180.7700  135.8090 C   0  0  0  0  0  2  0  0  0  0  0  0
  180.4040  182.8970  134.7370 O   0  0  0  0  0  1  0  0  0  0  0  0
  180.9680  182.2100  135.8100 C   0  0  1  0  0  3  0  0  0  0  0  0
  180.5420  182.8520  137.1300 C   0  0  1  0  0  3  0  0  0  0  0  0
  181.1020  180.6650  138.1440 C   0  0  0  0  0  0  0  0  0  0  0  0
  180.8990  180.0600  137.0080 N   0  0  0  0  0  0  0  0  0  0  0  0
  180.9800  182.0600  138.2360 O   0  0  0  0  0  0  0  0  0  0  0  0
  182.3650  184.2860  137.7800 O   0  0  0  0  0  1  0  0  0  0  0  0
  181.0650  184.2800  137.2630 C   0  0  0  0  0  2  0  0  0  0  0  0
  2  1  1  0  0  0  0
  3  7  1  0  0  0  0
  4  5  2  0  0  0  0
  5  2  1  0  0  0  0
  6  7  2  0  0  0  0
  6  8  1  0  0  0  0
  7  4  1  0  0  0  0
  8  5  1  0  0  0  0
  9  6  1  1  0  0  0
 10 13  1  0  0  0  0
 11 12  1  0  0  0  0
 12  9  1  0  0  0  0
 13 11  2  0  0  0  0
 13 14  1  0  0  0  0
 14  9  1  0  0  0  0
 15 10  1  0  0  0  0
 16 15  1  0  0  0  0
 17 18  1  0  0  0  0
 18 16  1  0  0  0  0
 18 22  2  0  0  0  0
 19 17  2  0  0  0  0
 19 20  1  0  0  0  0
 20 21  2  0  0  0  0
 21 22  1  0  0  0  0
 23 20  1  0  0  0  0
 24 26  1  0  0  0  0
 24 25  1  0  0  0  0
 25 27  1  6  0  0  0
 25 29  1  0  0  0  0
 26 23  1  6  0  0  0
 26 25  1  0  0  0  0
 29 30  1  0  0  0  0
 29 28  1  0  0  0  0
 30 28  1  0  0  0  0
 31  1  1  0  0  0  0
 32 35  2  0  0  0  0
 32 34  1  0  0  0  0
 33 31  1  0  0  0  0
 33 37  2  0  0  0  0
 34 36  2  0  0  0  0
 35 33  1  0  0  0  0
 37 36  1  0  0  0  0
 38 50  1  0  0  0  0
 39 44  2  0  0  0  0
 39 42  1  0  0  0  0
 40 41  1  0  0  0  0
 40 32  1  0  0  0  0
 42 38  2  0  0  0  0
 45 47  1  0  0  0  0
 46 40  2  0  0  0  0
 47 41  1  0  0  0  0
 48 44  1  6  0  0  0
 48 38  1  0  0  0  0
 48 45  1  0  0  0  0
 49 45  2  0  0  0  0
 49 46  1  0  0  0  0
 50 47  1  0  0  0  0
 50 43  2  0  0  0  0
 51 53  1  0  0  0  0
 51 56  1  0  0  0  0
 53 52  1  6  0  0  0
 53 54  1  0  0  0  0
 54 59  1  1  0  0  0
 54 57  1  0  0  0  0
 55 57  1  0  0  0  0
 55 39  1  0  0  0  0
 56 55  2  0  0  0  0
 59 58  1  0  0  0  0
M  END
>  <MODEL>
3

>  <REMARK>
 VINA RESULT:      -8.6      2.789      5.110
  Name = 
  14 active torsions:
  status: ('A' for Active; 'I' for Inactive)
    1  A    between atoms: C_4  and  C_26
    2  A    between atoms: C_5  and  N_58
    3  A    between atoms: C_9  and  C_22
    4  A    between atoms: C_12  and  C_14
    5  A    between atoms: C_13  and  C_20
    6  A    between atoms: N_16  and  C_45
    7  A    between atoms: N_16  and  N_58
    8  A    between atoms: C_17  and  C_36
    9  A    between atoms: C_22  and  C_46
   10  A    between atoms: C_23  and  O_55
   11  A    between atoms: C_24  and  C_29
   12  A    between atoms: N_28  and  C_46
   13  A    between atoms: C_31  and  C_45
   14  A    between atoms: C_39  and  O_55
                            x       y       z     vdW  Elec       q    Type
                         _______ _______ _______ _____ _____    ______ ____

>  <TORSDO>
F 14

$$$$
=
 OpenBabel10232409113D

 59 68  0  0  1  0  0  0  0  0999 V2000
  190.1050  177.2880  147.9290 N   0  0  0  0  0  2  0  0  0  0  0  0
  191.3820  176.9080  147.3420 C   0  0  0  0  0  2  0  0  0  0  0  0
  190.4970  175.0760  142.7040 C   0  0  0  0  0  1  0  0  0  0  0  0
  190.9280  175.7910  145.0940 C   0  0  0  0  0  3  0  0  0  0  0  0
  191.2680  176.8990  145.8600 C   0  0  0  0  0  0  0  0  0  0  0  0
  191.1340  177.4240  143.4300 C   0  0  0  0  0  0  0  0  0  0  0  0
  190.8560  176.0930  143.7280 C   0  0  0  0  0  0  0  0  0  0  0  0
  191.4700  178.2390  144.8650 S   0  0  0  0  0  0  0  0  0  0  0  0
  191.0910  178.0410  142.0700 C   0  0  1  0  0  3  0  0  0  0  0  0
  189.3130  176.7710  138.8010 N   0  0  0  0  0  2  0  0  0  0  0  0
  191.3690  176.8660  140.0000 N   0  0  0  0  0  0  0  0  0  0  0  0
  191.9800  177.3230  141.1680 N   0  0  0  0  0  2  0  0  0  0  0  0
  190.0990  177.0940  139.9520 C   0  0  0  0  0  0  0  0  0  0  0  0
  189.4030  177.9380  141.3610 S   0  0  0  0  0  0  0  0  0  0  0  0
  189.8520  176.0600  137.6460 C   0  0  0  0  0  2  0  0  0  0  0  0
  191.1240  176.7460  137.1770 C   0  0  0  0  0  2  0  0  0  0  0  0
  193.4770  176.1960  136.5170 C   0  0  0  0  0  3  0  0  0  0  0  0
  192.2020  175.7580  136.8900 C   0  0  0  0  0  0  0  0  0  0  0  0
  194.4920  175.2660  136.2700 C   0  0  0  0  0  3  0  0  0  0  0  0
  194.2420  173.8970  136.4010 C   0  0  0  0  0  0  0  0  0  0  0  0
  192.9610  173.4620  136.7770 C   0  0  0  0  0  3  0  0  0  0  0  0
  191.9440  174.3910  137.0160 C   0  0  0  0  0  3  0  0  0  0  0  0
  195.2800  172.9930  136.1640 O   0  0  0  0  0  0  0  0  0  0  0  0
  196.3790  170.8510  136.3380 C   0  0  0  0  0  2  0  0  0  0  0  0
  195.3110  170.9100  137.4020 C   0  0  2  0  0  0  0  0  0  0  0  0
  195.0700  171.5870  136.0630 C   0  0  1  0  0  3  0  0  0  0  0  0
  195.6270  171.7590  138.4710 O   0  0  0  0  0  1  0  0  0  0  0  0
  195.0710  168.8780  138.8780 C   0  0  0  0  0  2  0  0  0  0  0  0
  194.5460  169.6090  137.6510 C   0  0  0  0  0  3  0  0  0  0  0  0
  195.4830  168.4210  137.4940 C   0  0  0  0  0  2  0  0  0  0  0  0
  189.1060  176.9200  147.0190 N   0  0  0  0  0  2  0  0  0  0  0  0
  186.0160  178.4340  145.5290 C   0  0  0  0  0  0  0  0  0  0  0  0
  187.9060  177.6810  146.8750 C   0  0  0  0  0  0  0  0  0  0  0  0
  185.5550  179.1800  146.6300 C   0  0  0  0  0  3  0  0  0  0  0  0
  187.1920  177.6810  145.6680 C   0  0  0  0  0  3  0  0  0  0  0  0
  186.2610  179.1780  147.8360 C   0  0  0  0  0  3  0  0  0  0  0  0
  187.4370  178.4330  147.9570 C   0  0  0  0  0  3  0  0  0  0  0  0
  184.3380  178.7900  139.6220 C   0  0  0  0  0  0  0  0  0  0  0  0
  182.7860  177.8130  138.5660 C   0  0  0  0  0  0  0  0  0  0  0  0
  185.2940  178.4600  144.2320 C   0  0  0  0  0  0  0  0  0  0  0  0
  186.0930  178.5440  142.9390 C   0  0  0  0  0  2  0  0  0  0  0  0
  184.0850  178.1910  138.4500 N   0  0  0  0  0  0  0  0  0  0  0  0
  186.7410  178.7110  139.9580 O   0  0  0  0  0  0  0  0  0  0  0  0
  182.2640  178.0410  139.8450 C   0  0  0  0  0  3  0  0  0  0  0  0
  183.8060  178.6940  141.8330 C   0  0  0  0  0  0  0  0  0  0  0  0
  183.9420  178.4070  144.2110 C   0  0  0  0  0  3  0  0  0  0  0  0
  185.2280  178.8120  141.7940 N   0  0  0  0  0  0  0  0  0  0  0  0
  183.2880  178.7140  140.4690 C   0  0  1  0  0  3  0  0  0  0  0  0
  183.1540  178.4700  142.9660 C   0  0  0  0  0  3  0  0  0  0  0  0
  185.5680  178.8030  140.4080 C   0  0  0  0  0  0  0  0  0  0  0  0
  179.9870  176.4320  136.4520 C   0  0  0  0  0  2  0  0  0  0  0  0
  180.0530  174.7510  134.7650 O   0  0  0  0  0  1  0  0  0  0  0  0
  180.7510  175.2480  135.8630 C   0  0  1  0  0  3  0  0  0  0  0  0
  182.1260  175.7530  135.4300 C   0  0  1  0  0  3  0  0  0  0  0  0
  182.0650  177.1030  137.5030 C   0  0  0  0  0  0  0  0  0  0  0  0
  180.7630  177.0860  137.5040 N   0  0  0  0  0  0  0  0  0  0  0  0
  182.7830  176.4130  136.5130 O   0  0  0  0  0  0  0  0  0  0  0  0
  183.2400  173.6650  135.8800 O   0  0  0  0  0  1  0  0  0  0  0  0
  183.0020  174.6250  134.8900 C   0  0  0  0  0  2  0  0  0  0  0  0
  2  1  1  0  0  0  0
  3  7  1  0  0  0  0
  4  5  2  0  0  0  0
  5  2  1  0  0  0  0
  6  7  2  0  0  0  0
  6  8  1  0  0  0  0
  7  4  1  0  0  0  0
  8  5  1  0  0  0  0
  9  6  1  1  0  0  0
 10 13  1  0  0  0  0
 11 12  1  0  0  0  0
 12  9  1  0  0  0  0
 13 11  2  0  0  0  0
 13 14  1  0  0  0  0
 14  9  1  0  0  0  0
 15 10  1  0  0  0  0
 16 15  1  0  0  0  0
 17 18  1  0  0  0  0
 18 22  2  0  0  0  0
 18 16  1  0  0  0  0
 19 20  1  0  0  0  0
 19 17  2  0  0  0  0
 20 21  2  0  0  0  0
 21 22  1  0  0  0  0
 23 20  1  0  0  0  0
 24 25  1  0  0  0  0
 25 29  1  0  0  0  0
 25 27  1  1  0  0  0
 26 23  1  1  0  0  0
 26 24  1  0  0  0  0
 26 25  1  0  0  0  0
 29 28  1  0  0  0  0
 30 29  1  0  0  0  0
 30 28  1  0  0  0  0
 31  1  1  0  0  0  0
 32 35  2  0  0  0  0
 32 34  1  0  0  0  0
 33 31  1  0  0  0  0
 33 37  2  0  0  0  0
 34 36  2  0  0  0  0
 35 33  1  0  0  0  0
 36 37  1  0  0  0  0
 38 50  1  0  0  0  0
 38 48  1  0  0  0  0
 39 44  2  0  0  0  0
 40 32  1  0  0  0  0
 41 40  1  0  0  0  0
 42 39  1  0  0  0  0
 42 38  2  0  0  0  0
 43 50  2  0  0  0  0
 45 49  2  0  0  0  0
 46 40  2  0  0  0  0
 47 45  1  0  0  0  0
 47 41  1  0  0  0  0
 48 44  1  6  0  0  0
 48 45  1  0  0  0  0
 49 46  1  0  0  0  0
 50 47  1  0  0  0  0
 51 56  1  0  0  0  0
 53 52  1  6  0  0  0
 53 51  1  0  0  0  0
 54 59  1  1  0  0  0
 54 53  1  0  0  0  0
 54 57  1  0  0  0  0
 55 56  2  0  0  0  0
 55 39  1  0  0  0  0
 57 55  1  0  0  0  0
 59 58  1  0  0  0  0
M  END
>  <MODEL>
4

>  <REMARK>
 VINA RESULT:      -7.3      3.783      6.905
  Name = 
  14 active torsions:
  status: ('A' for Active; 'I' for Inactive)
    1  A    between atoms: C_4  and  C_26
    2  A    between atoms: C_5  and  N_58
    3  A    between atoms: C_9  and  C_22
    4  A    between atoms: C_12  and  C_14
    5  A    between atoms: C_13  and  C_20
    6  A    between atoms: N_16  and  C_45
    7  A    between atoms: N_16  and  N_58
    8  A    between atoms: C_17  and  C_36
    9  A    between atoms: C_22  and  C_46
   10  A    between atoms: C_23  and  O_55
   11  A    between atoms: C_24  and  C_29
   12  A    between atoms: N_28  and  C_46
   13  A    between atoms: C_31  and  C_45
   14  A    between atoms: C_39  and  O_55
                            x       y       z     vdW  Elec       q    Type
                         _______ _______ _______ _____ _____    ______ ____

>  <TORSDO>
F 14

$$$$
=
 OpenBabel10232409113D

 59 68  0  0  1  0  0  0  0  0999 V2000
  183.2010  177.1770  137.3960 N   0  0  0  0  0  2  0  0  0  0  0  0
  182.4560  176.6900  138.5480 C   0  0  0  0  0  2  0  0  0  0  0  0
  185.7610  178.7460  141.7890 C   0  0  0  0  0  1  0  0  0  0  0  0
  184.2760  177.6430  140.0600 C   0  0  0  0  0  3  0  0  0  0  0  0
  182.9440  177.3630  139.7800 C   0  0  0  0  0  0  0  0  0  0  0  0
  183.2310  178.5740  141.9360 C   0  0  0  0  0  0  0  0  0  0  0  0
  184.4300  178.3230  141.2760 C   0  0  0  0  0  0  0  0  0  0  0  0
  181.9670  177.9540  141.0130 S   0  0  0  0  0  0  0  0  0  0  0  0
  183.0850  179.3150  143.2260 C   0  0  1  0  0  3  0  0  0  0  0  0
  185.6510  179.7400  146.1730 N   0  0  0  0  0  2  0  0  0  0  0  0
  183.7710  178.5140  145.3770 N   0  0  0  0  0  0  0  0  0  0  0  0
  182.8720  178.3780  144.3190 N   0  0  0  0  0  2  0  0  0  0  0  0
  184.6870  179.4010  145.1730 C   0  0  0  0  0  0  0  0  0  0  0  0
  184.6090  180.2590  143.6100 S   0  0  0  0  0  0  0  0  0  0  0  0
  185.7520  179.0380  147.4490 C   0  0  0  0  0  2  0  0  0  0  0  0
  186.1660  177.5970  147.2020 C   0  0  0  0  0  2  0  0  0  0  0  0
  187.3390  177.2920  145.0100 C   0  0  0  0  0  3  0  0  0  0  0  0
  187.4120  177.5210  146.3880 C   0  0  0  0  0  0  0  0  0  0  0  0
  188.5090  177.2430  144.2450 C   0  0  0  0  0  3  0  0  0  0  0  0
  189.7560  177.4300  144.8510 C   0  0  0  0  0  0  0  0  0  0  0  0
  189.8240  177.6590  146.2340 C   0  0  0  0  0  3  0  0  0  0  0  0
  188.6550  177.7000  147.0000 C   0  0  0  0  0  3  0  0  0  0  0  0
  190.9050  177.3920  144.0590 O   0  0  0  0  0  0  0  0  0  0  0  0
  192.2740  177.6440  142.0870 C   0  0  0  0  0  2  0  0  0  0  0  0
  190.9250  177.1240  141.6510 C   0  0  2  0  0  0  0  0  0  0  0  0
  191.0120  178.0890  142.8210 C   0  0  1  0  0  3  0  0  0  0  0  0
  190.7070  175.7790  141.9800 O   0  0  0  0  0  1  0  0  0  0  0  0
  188.8930  177.9830  140.4270 C   0  0  0  0  0  2  0  0  0  0  0  0
  190.3840  177.6940  140.3390 C   0  0  0  0  0  3  0  0  0  0  0  0
  189.3790  176.7280  139.7310 C   0  0  0  0  0  2  0  0  0  0  0  0
  184.2870  176.3130  137.2090 N   0  0  0  0  0  2  0  0  0  0  0  0
  187.9460  176.4180  136.3950 C   0  0  0  0  0  0  0  0  0  0  0  0
  185.5990  176.8070  136.9380 C   0  0  0  0  0  0  0  0  0  0  0  0
  188.1570  177.8100  136.4050 C   0  0  0  0  0  3  0  0  0  0  0  0
  186.6570  175.9290  136.6570 C   0  0  0  0  0  3  0  0  0  0  0  0
  187.1050  178.6870  136.6790 C   0  0  0  0  0  3  0  0  0  0  0  0
  185.8290  178.1860  136.9500 C   0  0  0  0  0  3  0  0  0  0  0  0
  193.3810  173.7130  135.4050 C   0  0  0  0  0  0  0  0  0  0  0  0
  194.0820  171.7880  135.9380 C   0  0  0  0  0  0  0  0  0  0  0  0
  189.0650  175.4770  136.1430 C   0  0  0  0  0  0  0  0  0  0  0  0
  190.4960  175.9920  136.2010 C   0  0  0  0  0  2  0  0  0  0  0  0
  194.4680  173.0890  135.8780 N   0  0  0  0  0  2  0  0  0  0  0  0
  193.5480  176.0410  136.0710 O   0  0  0  0  0  0  0  0  0  0  0  0
  192.7250  171.6090  135.6430 C   0  0  0  0  0  3  0  0  0  0  0  0
  191.1060  173.6340  135.4620 C   0  0  0  0  0  0  0  0  0  0  0  0
  188.8050  174.1770  135.8700 C   0  0  0  0  0  3  0  0  0  0  0  0
  191.4410  175.0040  135.6860 N   0  0  0  0  0  0  0  0  0  0  0  0
  192.3340  172.8700  135.2610 C   0  0  0  0  0  0  0  0  0  0  0  0
  189.8610  173.1920  135.5690 C   0  0  0  0  0  3  0  0  0  0  0  0
  192.8670  175.0430  135.7190 C   0  0  0  0  0  0  0  0  0  0  0  0
  195.2810  168.5630  137.4770 C   0  0  0  0  0  2  0  0  0  0  0  0
  197.4840  167.9180  138.1150 O   0  0  0  0  0  1  0  0  0  0  0  0
  196.6900  169.0280  137.8350 C   0  0  1  0  0  3  0  0  0  0  0  0
  197.2480  169.7870  136.6320 C   0  0  1  0  0  3  0  0  0  0  0  0
  194.9660  170.7160  136.4100 C   0  0  0  0  0  0  0  0  0  0  0  0
  194.4600  169.6820  137.0190 N   0  0  0  0  0  0  0  0  0  0  0  0
  196.3540  170.8290  136.2380 O   0  0  0  0  0  0  0  0  0  0  0  0
  198.5430  171.6830  137.3630 O   0  0  0  0  0  1  0  0  0  0  0  0
  198.6350  170.3600  136.9160 C   0  0  0  0  0  2  0  0  0  0  0  0
  1  2  1  0  0  0  0
  2  5  1  0  0  0  0
  4  7  1  0  0  0  0
  5  4  2  0  0  0  0
  5  8  1  0  0  0  0
  7  3  1  0  0  0  0
  7  6  2  0  0  0  0
  8  6  1  0  0  0  0
  9  6  1  6  0  0  0
  9 14  1  0  0  0  0
  9 12  1  0  0  0  0
 10 15  1  0  0  0  0
 12 11  1  0  0  0  0
 13 11  2  0  0  0  0
 13 10  1  0  0  0  0
 14 13  1  0  0  0  0
 16 15  1  0  0  0  0
 17 18  1  0  0  0  0
 18 22  2  0  0  0  0
 18 16  1  0  0  0  0
 19 20  1  0  0  0  0
 19 17  2  0  0  0  0
 20 21  2  0  0  0  0
 21 22  1  0  0  0  0
 23 20  1  0  0  0  0
 24 26  1  0  0  0  0
 25 27  1  1  0  0  0
 25 24  1  0  0  0  0
 25 26  1  0  0  0  0
 26 23  1  1  0  0  0
 29 28  1  0  0  0  0
 29 25  1  0  0  0  0
 30 29  1  0  0  0  0
 30 28  1  0  0  0  0
 31  1  1  0  0  0  0
 32 34  2  0  0  0  0
 32 35  1  0  0  0  0
 33 37  1  0  0  0  0
 33 31  1  0  0  0  0
 34 36  1  0  0  0  0
 35 33  2  0  0  0  0
 36 37  2  0  0  0  0
 38 50  1  0  0  0  0
 38 42  1  0  0  0  0
 39 55  1  0  0  0  0
 40 41  1  0  0  0  0
 40 32  1  0  0  0  0
 42 39  1  0  0  0  0
 44 39  2  0  0  0  0
 45 49  2  0  0  0  0
 45 47  1  0  0  0  0
 46 40  2  0  0  0  0
 47 50  1  0  0  0  0
 47 41  1  0  0  0  0
 48 38  2  0  0  0  0
 48 45  1  0  0  0  0
 48 44  1  0  0  0  0
 49 46  1  0  0  0  0
 50 43  2  0  0  0  0
 51 53  1  0  0  0  0
 53 52  1  6  0  0  0
 54 59  1  1  0  0  0
 54 53  1  0  0  0  0
 55 56  2  0  0  0  0
 56 51  1  0  0  0  0
 57 55  1  0  0  0  0
 57 54  1  0  0  0  0
 59 58  1  0  0  0  0
M  END
>  <MODEL>
5

>  <REMARK>
 VINA RESULT:      -6.7      5.378     12.842
  Name = 
  14 active torsions:
  status: ('A' for Active; 'I' for Inactive)
    1  A    between atoms: C_4  and  C_26
    2  A    between atoms: C_5  and  N_58
    3  A    between atoms: C_9  and  C_22
    4  A    between atoms: C_12  and  C_14
    5  A    between atoms: C_13  and  C_20
    6  A    between atoms: N_16  and  C_45
    7  A    between atoms: N_16  and  N_58
    8  A    between atoms: C_17  and  C_36
    9  A    between atoms: C_22  and  C_46
   10  A    between atoms: C_23  and  O_55
   11  A    between atoms: C_24  and  C_29
   12  A    between atoms: N_28  and  C_46
   13  A    between atoms: C_31  and  C_45
   14  A    between atoms: C_39  and  O_55
                            x       y       z     vdW  Elec       q    Type
                         _______ _______ _______ _____ _____    ______ ____

>  <TORSDO>
F 14

$$$$
