=
 OpenBabel10232410133D

 66 74  0  0  1  0  0  0  0  0999 V2000
  187.5100  178.6360  140.6740 C   0  0  0  0  0  3  0  0  0  0  0  0
  188.0190  178.0970  139.5540 C   0  0  0  0  0  0  0  0  0  0  0  0
  189.4640  178.4050  139.2920 C   0  0  0  0  0  2  0  0  0  0  0  0
  187.9750  176.7110  137.3760 C   0  0  1  0  0  3  0  0  0  0  0  0
  187.1810  177.2930  138.5580 C   0  0  2  0  0  3  0  0  0  0  0  0
  190.0530  177.5460  138.1830 C   0  0  0  0  0  2  0  0  0  0  0  0
  189.1530  177.5170  137.0370 N   0  0  0  0  0  2  0  0  0  0  0  0
  185.9460  178.0730  138.0630 C   0  0  1  0  0  3  0  0  0  0  0  0
  186.3280  179.1520  137.2650 O   0  0  0  0  0  1  0  0  0  0  0  0
  184.6370  176.0040  138.0490 C   0  0  0  0  0  1  0  0  0  0  0  0
  184.9110  177.2680  137.3700 N   0  0  0  0  0  0  0  0  0  0  0  0
  183.6340  178.0020  137.3130 C   0  0  1  0  0  3  0  0  0  0  0  0
  182.5820  177.2980  136.4490 C   0  0  0  0  0  2  0  0  0  0  0  0
  182.2660  178.0830  135.3440 O   0  0  0  0  0  1  0  0  0  0  0  0
  183.0830  178.2650  138.7160 C   0  0  0  0  0  2  0  0  0  0  0  0
  180.9420  178.7470  140.0570 C   0  0  0  0  0  0  0  0  0  0  0  0
  180.4850  181.0980  139.6560 O   0  0  0  0  0  0  0  0  0  0  0  0
  180.6450  177.5840  140.6320 C   0  0  0  0  0  2  0  0  0  0  0  0
  180.3680  180.0350  140.5880 C   0  0  0  0  0  2  0  0  0  0  0  0
  181.0740  180.9690  136.9120 O   0  0  0  0  0  0  0  0  0  0  0  0
  181.6520  178.8360  138.7490 C   0  0  1  0  0  3  0  0  0  0  0  0
  181.6110  180.6000  138.4770 P   0  0  2  0  0  0  0  0  0  0  0  0
  182.9510  181.2470  138.7220 O   0  0  0  0  0  1  0  0  0  0  0  0
  188.3270  175.2270  137.5820 C   0  0  0  0  0  2  0  0  0  0  0  0
  191.3600  174.7750  137.3850 C   0  0  0  0  0  3  0  0  0  0  0  0
  188.1060  174.1460  135.3060 C   0  0  0  0  0  0  0  0  0  0  0  0
  192.9830  172.0500  135.4830 C   0  0  0  0  0  3  0  0  0  0  0  0
  188.9400  174.6800  136.3710 N   0  0  0  0  0  0  0  0  0  0  0  0
  196.7190  171.5680  137.3680 C   0  0  0  0  0  3  0  0  0  0  0  0
  195.8660  172.5980  137.7800 C   0  0  0  0  0  3  0  0  0  0  0  0
  192.1430  173.0600  135.9470 C   0  0  0  0  0  0  0  0  0  0  0  0
  192.4960  173.8820  137.0000 C   0  0  0  0  0  0  0  0  0  0  0  0
  195.0960  170.8680  135.7080 C   0  0  0  0  0  3  0  0  0  0  0  0
  194.6190  172.7700  137.1660 C   0  0  0  0  0  0  0  0  0  0  0  0
  189.9440  172.7260  134.6300 N   0  0  0  0  0  0  0  0  0  0  0  0
  188.5850  173.1790  134.5000 C   0  0  0  0  0  3  0  0  0  0  0  0
  193.7350  173.7610  137.6290 C   0  0  0  0  0  3  0  0  0  0  0  0
  194.2350  171.8990  136.1040 C   0  0  0  0  0  0  0  0  0  0  0  0
  196.3350  170.7020  136.3420 C   0  0  0  0  0  3  0  0  0  0  0  0
  190.3270  174.3220  136.3910 C   0  0  0  0  0  0  0  0  0  0  0  0
  190.7870  173.3860  135.5750 C   0  0  0  0  0  0  0  0  0  0  0  0
  186.7990  174.6020  135.1120 O   0  0  0  0  0  0  0  0  0  0  0  0
  185.7220  172.9630  136.4640 C   0  0  0  0  0  3  0  0  0  0  0  0
  183.2130  172.7630  136.4640 C   0  0  1  0  0  3  0  0  0  0  0  0
  184.3550  174.2110  134.8020 C   0  0  0  0  0  2  0  0  0  0  0  0
  184.5420  172.1400  136.9010 C   0  0  0  0  0  2  0  0  0  0  0  0
  183.2950  173.1250  134.9870 C   0  0  0  0  0  2  0  0  0  0  0  0
  182.0960  171.7740  136.6880 C   0  0  0  0  0  1  0  0  0  0  0  0
  185.6610  173.8730  135.4780 C   0  0  0  0  0  0  0  0  0  0  0  0
  186.0640  178.5850  141.0790 C   0  0  0  0  0  2  0  0  0  0  0  0
  185.8610  178.0890  142.5140 C   0  0  2  0  0  3  0  0  0  0  0  0
  184.4540  178.3650  143.0480 C   0  0  0  0  0  2  0  0  0  0  0  0
  184.4340  179.6430  143.7520 N   0  0  0  0  0  1  0  0  0  0  0  0
  186.8670  178.6160  143.3510 O   0  0  0  0  0  0  0  0  0  0  0  0
  187.4150  177.6030  144.1850 C   0  0  1  0  0  3  0  0  0  0  0  0
  186.4230  177.0600  145.0000 O   0  0  0  0  0  1  0  0  0  0  0  0
  188.1900  176.4880  143.4610 C   0  0  0  0  0  2  0  0  0  0  0  0
  191.5940  178.7440  143.7460 C   0  0  0  0  0  2  0  0  0  0  0  0
  190.4900  175.6400  143.0920 O   0  0  0  0  0  1  0  0  0  0  0  0
  189.6890  176.6360  143.6630 C   0  0  1  0  0  0  0  0  0  0  0  0
  190.1870  178.1150  143.6520 C   0  0  0  0  0  0  0  0  0  0  0  0
  191.2090  178.0660  142.5000 C   0  0  0  0  0  2  0  0  0  0  0  0
  190.1510  177.2120  144.9510 C   0  0  2  0  0  3  0  0  0  0  0  0
  191.9670  176.8520  146.5470 O   0  0  0  0  0  1  0  0  0  0  0  0
  191.3750  176.4850  145.4870 C   0  0  0  0  0  0  0  0  0  0  0  0
  191.9430  175.4770  144.7140 O   0  0  0  0  0  0  0  0  0  0  0  0
  1 50  1  0  0  0  0
  2  1  2  0  0  0  0
  3  2  1  0  0  0  0
  4 24  1  1  0  0  0
  4  5  1  0  0  0  0
  5  8  1  6  0  0  0
  5  2  1  0  0  0  0
  6  3  1  0  0  0  0
  7  4  1  0  0  0  0
  7  6  1  0  0  0  0
  8  9  1  6  0  0  0
 11 10  1  0  0  0  0
 11  8  1  0  0  0  0
 12 13  1  6  0  0  0
 12 11  1  0  0  0  0
 12 15  1  0  0  0  0
 14 13  1  0  0  0  0
 16 19  1  0  0  0  0
 16 18  2  0  0  0  0
 17 19  1  0  0  0  0
 21 15  1  1  0  0  0
 21 16  1  0  0  0  0
 22 20  2  6  0  0  0
 22 23  1  0  0  0  0
 22 21  1  0  0  0  0
 22 17  1  0  0  0  0
 26 28  1  0  0  0  0
 27 31  2  0  0  0  0
 27 38  1  0  0  0  0
 28 40  1  0  0  0  0
 28 24  1  0  0  0  0
 29 30  1  0  0  0  0
 31 32  1  0  0  0  0
 32 25  1  0  0  0  0
 32 37  2  0  0  0  0
 33 38  2  0  0  0  0
 33 39  1  0  0  0  0
 34 37  1  0  0  0  0
 34 30  2  0  0  0  0
 35 41  2  0  0  0  0
 36 35  1  0  0  0  0
 36 26  2  0  0  0  0
 38 34  1  0  0  0  0
 39 29  2  0  0  0  0
 40 25  2  0  0  0  0
 41 31  1  0  0  0  0
 41 40  1  0  0  0  0
 42 26  1  0  0  0  0
 42 49  1  0  0  0  0
 43 46  1  0  0  0  0
 44 48  1  6  0  0  0
 44 46  1  0  0  0  0
 45 47  1  0  0  0  0
 45 49  1  0  0  0  0
 47 44  1  0  0  0  0
 49 43  2  0  0  0  0
 51 50  1  6  0  0  0
 51 52  1  0  0  0  0
 51 54  1  0  0  0  0
 52 53  1  0  0  0  0
 54 55  1  0  0  0  0
 55 56  1  6  0  0  0
 57 60  1  0  0  0  0
 57 55  1  0  0  0  0
 60 59  1  6  0  0  0
 60 63  1  0  0  0  0
 61 60  1  0  0  0  0
 61 58  1  0  0  0  0
 61 63  1  0  0  0  0
 62 61  1  0  0  0  0
 62 58  1  0  0  0  0
 63 65  1  6  0  0  0
 65 64  1  0  0  0  0
 66 65  2  0  0  0  0
M  END
>  <MODEL>
1

>  <REMARK>
 VINA RESULT:      -7.6      0.000      0.000
  Name = 
  18 active torsions:
  status: ('A' for Active; 'I' for Inactive)
    1  A    between atoms: C_1  and  C_36
    2  A    between atoms: C_1  and  N_62
    3  A    between atoms: O_2  and  C_25
    4  A    between atoms: O_2  and  C_39
    5  A    between atoms: C_6  and  O_12
    6  A    between atoms: C_11  and  C_23
    7  A    between atoms: C_11  and  C_25
    8  A    between atoms: O_12  and  C_53
    9  A    between atoms: C_13  and  C_19
   10  A    between atoms: C_14  and  C_39
   11  A    between atoms: C_14  and  C_49
   12  A    between atoms: C_19  and  C_41
   13  A    between atoms: C_19  and  N_62
   14  A    between atoms: N_20  and  C_33
   15  A    between atoms: C_21  and  C_25
   16  A    between atoms: C_32  and  C_33
   17  A    between atoms: C_41  and  C_58
   18  A    between atoms: C_60  and  C_64
                            x       y       z     vdW  Elec       q    Type
                         _______ _______ _______ _____ _____    ______ ____

>  <TORSDO>
F 18

$$$$
=
 OpenBabel10232410133D

 66 74  0  0  1  0  0  0  0  0999 V2000
  191.3630  172.4260  135.7370 C   0  0  0  0  0  3  0  0  0  0  0  0
  190.3370  173.2760  135.9130 C   0  0  0  0  0  0  0  0  0  0  0  0
  188.9890  172.7460  135.5230 C   0  0  0  0  0  2  0  0  0  0  0  0
  189.2090  175.4960  136.5910 C   0  0  1  0  0  3  0  0  0  0  0  0
  190.5190  174.7160  136.3960 C   0  0  2  0  0  3  0  0  0  0  0  0
  187.8500  173.6310  136.0060 C   0  0  0  0  0  2  0  0  0  0  0  0
  188.1370  175.0280  135.7050 N   0  0  0  0  0  2  0  0  0  0  0  0
  191.5100  175.5100  135.5210 C   0  0  1  0  0  3  0  0  0  0  0  0
  190.8300  176.3080  134.6010 O   0  0  0  0  0  1  0  0  0  0  0  0
  192.4050  176.1650  137.7040 C   0  0  0  0  0  1  0  0  0  0  0  0
  192.5110  176.3210  136.2540 N   0  0  0  0  0  0  0  0  0  0  0  0
  193.8800  175.9150  135.8860 C   0  0  1  0  0  3  0  0  0  0  0  0
  194.4960  176.8140  134.8090 C   0  0  0  0  0  2  0  0  0  0  0  0
  194.9580  177.9960  135.3800 O   0  0  0  0  0  1  0  0  0  0  0  0
  194.7900  175.8530  137.1150 C   0  0  0  0  0  2  0  0  0  0  0  0
  197.1680  174.9820  136.6700 C   0  0  0  0  0  0  0  0  0  0  0  0
  197.7960  173.8400  138.7190 O   0  0  0  0  0  0  0  0  0  0  0  0
  197.4430  175.3930  135.4330 C   0  0  0  0  0  2  0  0  0  0  0  0
  198.2760  174.5850  137.6110 C   0  0  0  0  0  2  0  0  0  0  0  0
  195.2990  172.5950  139.0480 O   0  0  0  0  0  0  0  0  0  0  0  0
  195.7820  174.6730  137.1220 C   0  0  1  0  0  3  0  0  0  0  0  0
  196.1060  174.0600  138.7670 P   0  0  2  0  0  0  0  0  0  0  0  0
  195.7340  175.0590  139.8330 O   0  0  0  0  0  1  0  0  0  0  0  0
  188.7670  175.5380  138.0650 C   0  0  0  0  0  2  0  0  0  0  0  0
  186.1830  176.5760  136.7660 C   0  0  0  0  0  3  0  0  0  0  0  0
  188.7850  177.6270  139.4920 C   0  0  0  0  0  0  0  0  0  0  0  0
  183.7140  178.7830  138.4130 C   0  0  0  0  0  3  0  0  0  0  0  0
  188.2250  176.8580  138.3920 N   0  0  0  0  0  0  0  0  0  0  0  0
  180.1220  178.0240  136.3490 C   0  0  0  0  0  3  0  0  0  0  0  0
  181.3070  177.4160  135.9190 C   0  0  0  0  0  3  0  0  0  0  0  0
  184.8660  178.1290  137.9820 C   0  0  0  0  0  0  0  0  0  0  0  0
  184.8540  177.2430  136.9220 C   0  0  0  0  0  0  0  0  0  0  0  0
  181.3240  179.1350  138.1390 C   0  0  0  0  0  3  0  0  0  0  0  0
  182.5100  177.6550  136.5960 C   0  0  0  0  0  0  0  0  0  0  0  0
  186.6600  178.7570  139.7350 N   0  0  0  0  0  0  0  0  0  0  0  0
  188.0130  178.5090  140.1560 C   0  0  0  0  0  3  0  0  0  0  0  0
  183.6840  176.9890  136.2050 C   0  0  0  0  0  3  0  0  0  0  0  0
  182.5190  178.5390  137.7150 C   0  0  0  0  0  0  0  0  0  0  0  0
  180.1280  178.8740  137.4570 C   0  0  0  0  0  3  0  0  0  0  0  0
  186.9300  177.2230  137.8990 C   0  0  0  0  0  0  0  0  0  0  0  0
  186.1930  178.1100  138.5500 C   0  0  0  0  0  0  0  0  0  0  0  0
  190.1120  177.4540  139.8940 O   0  0  0  0  0  0  0  0  0  0  0  0
  191.5270  177.8370  141.7720 C   0  0  0  0  0  3  0  0  0  0  0  0
  190.9210  176.9070  144.0310 C   0  0  1  0  0  3  0  0  0  0  0  0
  189.6540  176.2170  142.0110 C   0  0  0  0  0  2  0  0  0  0  0  0
  191.9960  177.5880  143.1790 C   0  0  0  0  0  2  0  0  0  0  0  0
  190.3640  175.7130  143.2670 C   0  0  0  0  0  2  0  0  0  0  0  0
  191.5300  176.4450  145.3320 C   0  0  0  0  0  1  0  0  0  0  0  0
  190.4940  177.1830  141.2130 C   0  0  0  0  0  0  0  0  0  0  0  0
  192.8130  172.7690  135.9240 C   0  0  0  0  0  2  0  0  0  0  0  0
  193.7480  171.5880  135.6490 C   0  0  2  0  0  3  0  0  0  0  0  0
  193.4170  170.8540  134.3470 C   0  0  0  0  0  2  0  0  0  0  0  0
  192.4740  169.7730  134.6150 N   0  0  0  0  0  1  0  0  0  0  0  0
  193.7700  170.7230  136.7640 O   0  0  0  0  0  0  0  0  0  0  0  0
  195.0210  170.0560  136.8640 C   0  0  1  0  0  3  0  0  0  0  0  0
  194.8310  168.6750  136.9000 O   0  0  0  0  0  1  0  0  0  0  0  0
  196.0650  170.4300  135.7980 C   0  0  0  0  0  2  0  0  0  0  0  0
  199.9120  171.1580  136.9910 C   0  0  0  0  0  2  0  0  0  0  0  0
  197.9630  168.8600  135.5080 O   0  0  0  0  0  1  0  0  0  0  0  0
  197.4570  169.9670  136.1990 C   0  0  1  0  0  0  0  0  0  0  0  0
  198.4220  171.1290  136.5910 C   0  0  0  0  0  0  0  0  0  0  0  0
  199.5670  170.9040  135.5860 C   0  0  0  0  0  2  0  0  0  0  0  0
  197.8310  170.0930  137.6310 C   0  0  2  0  0  3  0  0  0  0  0  0
  198.0390  167.9150  138.7200 O   0  0  0  0  0  1  0  0  0  0  0  0
  198.6050  168.8790  138.1200 C   0  0  0  0  0  0  0  0  0  0  0  0
  199.9940  168.8950  138.0340 O   0  0  0  0  0  0  0  0  0  0  0  0
  1  2  2  0  0  0  0
  1 50  1  0  0  0  0
  2  5  1  0  0  0  0
  3  2  1  0  0  0  0
  3  6  1  0  0  0  0
  4 24  1  1  0  0  0
  5  8  1  6  0  0  0
  5  4  1  0  0  0  0
  7  6  1  0  0  0  0
  7  4  1  0  0  0  0
  8  9  1  6  0  0  0
  8 11  1  0  0  0  0
 11 10  1  0  0  0  0
 12 13  1  6  0  0  0
 12 11  1  0  0  0  0
 12 15  1  0  0  0  0
 13 14  1  0  0  0  0
 16 21  1  0  0  0  0
 16 19  1  0  0  0  0
 17 22  1  0  0  0  0
 18 16  2  0  0  0  0
 19 17  1  0  0  0  0
 21 15  1  1  0  0  0
 21 22  1  0  0  0  0
 22 20  2  1  0  0  0
 22 23  1  0  0  0  0
 24 28  1  0  0  0  0
 25 32  1  0  0  0  0
 25 40  2  0  0  0  0
 26 42  1  0  0  0  0
 26 36  2  0  0  0  0
 28 26  1  0  0  0  0
 29 39  1  0  0  0  0
 30 29  2  0  0  0  0
 30 34  1  0  0  0  0
 31 27  1  0  0  0  0
 31 41  1  0  0  0  0
 32 31  2  0  0  0  0
 34 38  1  0  0  0  0
 35 36  1  0  0  0  0
 37 34  2  0  0  0  0
 37 32  1  0  0  0  0
 38 33  1  0  0  0  0
 38 27  2  0  0  0  0
 39 33  2  0  0  0  0
 40 28  1  0  0  0  0
 40 41  1  0  0  0  0
 41 35  2  0  0  0  0
 42 49  1  0  0  0  0
 43 46  1  0  0  0  0
 44 48  1  1  0  0  0
 45 47  1  0  0  0  0
 46 44  1  0  0  0  0
 47 44  1  0  0  0  0
 49 43  2  0  0  0  0
 49 45  1  0  0  0  0
 51 52  1  6  0  0  0
 51 50  1  0  0  0  0
 51 54  1  0  0  0  0
 52 53  1  0  0  0  0
 54 55  1  0  0  0  0
 55 56  1  6  0  0  0
 57 60  1  0  0  0  0
 57 55  1  0  0  0  0
 60 59  1  6  0  0  0
 60 61  1  0  0  0  0
 60 63  1  0  0  0  0
 61 58  1  0  0  0  0
 61 63  1  0  0  0  0
 62 61  1  0  0  0  0
 62 58  1  0  0  0  0
 63 65  1  6  0  0  0
 65 64  1  0  0  0  0
 66 65  2  0  0  0  0
M  END
>  <MODEL>
2

>  <REMARK>
 VINA RESULT:      -5.3      4.515     11.796
  Name = 
  18 active torsions:
  status: ('A' for Active; 'I' for Inactive)
    1  A    between atoms: C_1  and  C_36
    2  A    between atoms: C_1  and  N_62
    3  A    between atoms: O_2  and  C_25
    4  A    between atoms: O_2  and  C_39
    5  A    between atoms: C_6  and  O_12
    6  A    between atoms: C_11  and  C_23
    7  A    between atoms: C_11  and  C_25
    8  A    between atoms: O_12  and  C_53
    9  A    between atoms: C_13  and  C_19
   10  A    between atoms: C_14  and  C_39
   11  A    between atoms: C_14  and  C_49
   12  A    between atoms: C_19  and  C_41
   13  A    between atoms: C_19  and  N_62
   14  A    between atoms: N_20  and  C_33
   15  A    between atoms: C_21  and  C_25
   16  A    between atoms: C_32  and  C_33
   17  A    between atoms: C_41  and  C_58
   18  A    between atoms: C_60  and  C_64
                            x       y       z     vdW  Elec       q    Type
                         _______ _______ _______ _____ _____    ______ ____

>  <TORSDO>
F 18

$$$$
=
 OpenBabel10232410133D

 66 74  0  0  1  0  0  0  0  0999 V2000
  192.4810  176.0290  136.7550 C   0  0  0  0  0  3  0  0  0  0  0  0
  191.6360  176.2750  137.7700 C   0  0  0  0  0  0  0  0  0  0  0  0
  192.2490  176.2480  139.1390 C   0  0  0  0  0  2  0  0  0  0  0  0
  189.3600  176.8220  138.8590 C   0  0  1  0  0  3  0  0  0  0  0  0
  190.1330  176.4890  137.5720 C   0  0  2  0  0  3  0  0  0  0  0  0
  191.3220  176.8100  140.2060 C   0  0  0  0  0  2  0  0  0  0  0  0
  189.9850  176.2500  140.0560 N   0  0  0  0  0  2  0  0  0  0  0  0
  189.4680  175.3230  136.8130 C   0  0  1  0  0  3  0  0  0  0  0  0
  189.1550  174.2790  137.6840 O   0  0  0  0  0  1  0  0  0  0  0  0
  188.3120  177.0670  135.5420 C   0  0  0  0  0  1  0  0  0  0  0  0
  188.2820  175.6790  135.9980 N   0  0  0  0  0  0  0  0  0  0  0  0
  188.2120  174.8390  134.7880 C   0  0  1  0  0  3  0  0  0  0  0  0
  189.2380  173.7010  134.7950 C   0  0  0  0  0  2  0  0  0  0  0  0
  188.6220  172.5030  135.1440 O   0  0  0  0  0  1  0  0  0  0  0  0
  186.8010  174.2850  134.5790 C   0  0  0  0  0  2  0  0  0  0  0  0
  184.5320  175.2750  135.2750 C   0  0  0  0  0  0  0  0  0  0  0  0
  183.5090  173.5550  136.6500 O   0  0  0  0  0  0  0  0  0  0  0  0
  184.5030  176.4720  134.6910 C   0  0  0  0  0  2  0  0  0  0  0  0
  183.2600  174.6180  135.7430 C   0  0  0  0  0  2  0  0  0  0  0  0
  185.8760  172.9500  138.0380 O   0  0  0  0  0  1  0  0  0  0  0  0
  185.8030  174.6240  135.7030 C   0  0  1  0  0  3  0  0  0  0  0  0
  185.1630  173.1680  136.5140 P   0  0  2  0  0  0  0  0  0  0  0  0
  185.3480  171.9240  135.6830 O   0  0  0  0  0  0  0  0  0  0  0  0
  189.0930  178.3310  139.0070 C   0  0  0  0  0  2  0  0  0  0  0  0
  186.1300  178.6110  138.2440 C   0  0  0  0  0  3  0  0  0  0  0  0
  188.3920  178.4670  141.4340 C   0  0  0  0  0  0  0  0  0  0  0  0
  183.2850  177.5070  140.3330 C   0  0  0  0  0  3  0  0  0  0  0  0
  188.0640  178.5650  140.0200 N   0  0  0  0  0  0  0  0  0  0  0  0
  180.1660  176.8850  137.5720 C   0  0  0  0  0  3  0  0  0  0  0  0
  181.3870  177.4060  137.1290 C   0  0  0  0  0  3  0  0  0  0  0  0
  184.5000  177.9880  139.8490 C   0  0  0  0  0  0  0  0  0  0  0  0
  184.7040  178.2480  138.5080 C   0  0  0  0  0  0  0  0  0  0  0  0
  181.0160  176.7850  139.8410 C   0  0  0  0  0  3  0  0  0  0  0  0
  182.4360  177.6160  138.0330 C   0  0  0  0  0  0  0  0  0  0  0  0
  186.0800  177.9260  141.8950 N   0  0  0  0  0  0  0  0  0  0  0  0
  187.4400  178.1210  142.3210 C   0  0  0  0  0  3  0  0  0  0  0  0
  183.6830  178.0730  137.5740 C   0  0  0  0  0  3  0  0  0  0  0  0
  182.2410  177.3130  139.4130 C   0  0  0  0  0  0  0  0  0  0  0  0
  179.9820  176.5690  138.9200 C   0  0  0  0  0  3  0  0  0  0  0  0
  186.6830  178.5100  139.6390 C   0  0  0  0  0  0  0  0  0  0  0  0
  185.7560  178.1920  140.5290 C   0  0  0  0  0  0  0  0  0  0  0  0
  189.6900  178.7050  141.8930 O   0  0  0  0  0  0  0  0  0  0  0  0
  190.6190  178.9790  144.0700 C   0  0  0  0  0  3  0  0  0  0  0  0
  190.8060  177.0130  145.6290 C   0  0  1  0  0  3  0  0  0  0  0  0
  190.1790  176.6710  143.2510 C   0  0  0  0  0  2  0  0  0  0  0  0
  191.1880  178.4720  145.3660 C   0  0  0  0  0  2  0  0  0  0  0  0
  191.0920  176.1900  144.3800 C   0  0  0  0  0  2  0  0  0  0  0  0
  191.6140  176.4830  146.7880 C   0  0  0  0  0  1  0  0  0  0  0  0
  190.2030  178.1700  143.0810 C   0  0  0  0  0  0  0  0  0  0  0  0
  192.0830  175.8670  135.3160 C   0  0  0  0  0  2  0  0  0  0  0  0
  193.0010  174.9160  134.5440 C   0  0  2  0  0  3  0  0  0  0  0  0
  192.3970  173.5210  134.3580 C   0  0  0  0  0  2  0  0  0  0  0  0
  193.4570  172.5190  134.3640 N   0  0  0  0  0  1  0  0  0  0  0  0
  194.2720  174.8740  135.1550 O   0  0  0  0  0  0  0  0  0  0  0  0
  195.2010  175.6890  134.4520 C   0  0  1  0  0  3  0  0  0  0  0  0
  195.2130  176.9770  134.9850 O   0  0  0  0  0  1  0  0  0  0  0  0
  196.6320  175.1350  134.3470 C   0  0  0  0  0  2  0  0  0  0  0  0
  199.3050  173.6620  137.0740 C   0  0  0  0  0  2  0  0  0  0  0  0
  196.3210  173.0530  135.6590 O   0  0  0  0  0  1  0  0  0  0  0  0
  196.9850  174.2810  135.5540 C   0  0  1  0  0  0  0  0  0  0  0  0
  198.4830  174.3770  135.9810 C   0  0  0  0  0  0  0  0  0  0  0  0
  198.9060  172.8990  135.8840 C   0  0  0  0  0  2  0  0  0  0  0  0
  197.2910  174.9890  136.8230 C   0  0  2  0  0  3  0  0  0  0  0  0
  196.2510  173.0910  137.9600 O   0  0  0  0  0  0  0  0  0  0  0  0
  196.6790  174.2840  138.0240 C   0  0  0  0  0  0  0  0  0  0  0  0
  196.4520  175.0180  139.1840 O   0  0  0  0  0  1  0  0  0  0  0  0
  1  2  2  0  0  0  0
  2  3  1  0  0  0  0
  3  6  1  0  0  0  0
  4 24  1  1  0  0  0
  4  7  1  0  0  0  0
  5  8  1  1  0  0  0
  5  2  1  0  0  0  0
  5  4  1  0  0  0  0
  7  6  1  0  0  0  0
  8  9  1  1  0  0  0
 10 11  1  0  0  0  0
 11  8  1  0  0  0  0
 12 15  1  1  0  0  0
 12 13  1  0  0  0  0
 12 11  1  0  0  0  0
 13 14  1  0  0  0  0
 16 21  1  0  0  0  0
 16 19  1  0  0  0  0
 18 16  2  0  0  0  0
 19 17  1  0  0  0  0
 21 15  1  6  0  0  0
 21 22  1  0  0  0  0
 22 23  2  6  0  0  0
 22 17  1  0  0  0  0
 22 20  1  0  0  0  0
 24 28  1  0  0  0  0
 25 32  1  0  0  0  0
 25 40  2  0  0  0  0
 26 42  1  0  0  0  0
 26 36  2  0  0  0  0
 28 26  1  0  0  0  0
 29 39  1  0  0  0  0
 30 29  2  0  0  0  0
 30 34  1  0  0  0  0
 31 27  1  0  0  0  0
 31 41  1  0  0  0  0
 32 31  2  0  0  0  0
 34 38  1  0  0  0  0
 35 36  1  0  0  0  0
 37 34  2  0  0  0  0
 37 32  1  0  0  0  0
 38 33  1  0  0  0  0
 38 27  2  0  0  0  0
 39 33  2  0  0  0  0
 40 28  1  0  0  0  0
 40 41  1  0  0  0  0
 41 35  2  0  0  0  0
 42 49  1  0  0  0  0
 43 46  1  0  0  0  0
 44 48  1  1  0  0  0
 45 47  1  0  0  0  0
 46 44  1  0  0  0  0
 47 44  1  0  0  0  0
 49 45  1  0  0  0  0
 49 43  2  0  0  0  0
 50  1  1  0  0  0  0
 51 52  1  1  0  0  0
 51 54  1  0  0  0  0
 51 50  1  0  0  0  0
 52 53  1  0  0  0  0
 55 56  1  1  0  0  0
 55 54  1  0  0  0  0
 57 55  1  0  0  0  0
 57 60  1  0  0  0  0
 60 59  1  1  0  0  0
 60 61  1  0  0  0  0
 60 63  1  0  0  0  0
 61 63  1  0  0  0  0
 61 58  1  0  0  0  0
 62 61  1  0  0  0  0
 62 58  1  0  0  0  0
 63 65  1  1  0  0  0
 64 65  2  0  0  0  0
 65 66  1  0  0  0  0
M  END
>  <MODEL>
3

>  <REMARK>
 VINA RESULT:      -5.1      3.282      9.986
  Name = 
  18 active torsions:
  status: ('A' for Active; 'I' for Inactive)
    1  A    between atoms: C_1  and  C_36
    2  A    between atoms: C_1  and  N_62
    3  A    between atoms: O_2  and  C_25
    4  A    between atoms: O_2  and  C_39
    5  A    between atoms: C_6  and  O_12
    6  A    between atoms: C_11  and  C_23
    7  A    between atoms: C_11  and  C_25
    8  A    between atoms: O_12  and  C_53
    9  A    between atoms: C_13  and  C_19
   10  A    between atoms: C_14  and  C_39
   11  A    between atoms: C_14  and  C_49
   12  A    between atoms: C_19  and  C_41
   13  A    between atoms: C_19  and  N_62
   14  A    between atoms: N_20  and  C_33
   15  A    between atoms: C_21  and  C_25
   16  A    between atoms: C_32  and  C_33
   17  A    between atoms: C_41  and  C_58
   18  A    between atoms: C_60  and  C_64
                            x       y       z     vdW  Elec       q    Type
                         _______ _______ _______ _____ _____    ______ ____

>  <TORSDO>
F 18

$$$$
