=
 OpenBabel10232412383D

 37 40  0  0  1  0  0  0  0  0999 V2000
  184.0220  179.1980  140.7310 C   0  0  1  0  0  3  0  0  0  0  0  0
  184.9550  177.9830  138.7800 C   0  0  0  0  0  0  0  0  0  0  0  0
  180.7360  176.1060  139.8730 O   0  0  0  0  0  0  0  0  0  0  0  0
  181.8640  176.2750  139.3390 C   0  0  0  0  0  0  0  0  0  0  0  0
  182.3610  175.4900  138.3590 N   0  0  0  0  0  2  0  0  0  0  0  0
  184.4070  175.4100  137.0140 C   0  0  0  0  0  1  0  0  0  0  0  0
  183.5570  175.9760  138.0470 N   0  0  0  0  0  0  0  0  0  0  0  0
  184.9910  178.9760  139.6310 N   0  0  0  0  0  0  0  0  0  0  0  0
  182.7640  177.2700  139.6470 C   0  0  0  0  0  0  0  0  0  0  0  0
  183.8180  177.0530  138.8170 C   0  0  0  0  0  0  0  0  0  0  0  0
  182.7420  178.4030  140.5680 C   0  0  0  0  0  0  0  0  0  0  0  0
  185.9750  177.8460  137.7910 N   0  0  0  0  0  2  0  0  0  0  0  0
  181.6960  178.6740  141.2770 N   0  0  0  0  0  2  0  0  0  0  0  0
  184.6680  178.8600  142.0330 C   0  0  0  0  0  0  0  0  0  0  0  0
  185.9710  178.2280  146.2150 C   0  0  0  0  0  3  0  0  0  0  0  0
  184.1300  179.1420  143.2090 O   0  0  0  0  0  0  0  0  0  0  0  0
  184.9810  178.7140  144.0980 C   0  0  0  0  0  0  0  0  0  0  0  0
  185.8770  178.2460  142.1220 N   0  0  0  0  0  0  0  0  0  0  0  0
  187.0890  177.6560  145.5510 C   0  0  0  0  0  0  0  0  0  0  0  0
  184.8960  178.7680  145.4860 C   0  0  0  0  0  3  0  0  0  0  0  0
  187.1290  177.6240  144.1430 C   0  0  0  0  0  3  0  0  0  0  0  0
  186.0490  178.1660  143.4530 C   0  0  0  0  0  0  0  0  0  0  0  0
  189.5110  177.2260  145.8170 C   0  0  0  0  0  1  0  0  0  0  0  0
  188.1650  177.1200  146.2640 O   0  0  0  0  0  0  0  0  0  0  0  0
  186.9950  178.7980  137.6670 N   0  0  0  0  0  2  0  0  0  0  0  0
  188.2460  178.1210  137.9940 C   0  0  1  0  0  3  0  0  0  0  0  0
  188.8750  178.7200  139.1630 N   0  0  0  0  0  2  0  0  0  0  0  0
  188.8260  177.7300  140.2260 C   0  0  0  0  0  2  0  0  0  0  0  0
  190.2060  177.4350  140.7140 C   0  0  0  0  0  0  0  0  0  0  0  0
  191.1410  177.3950  139.9290 O   0  0  0  0  0  0  0  0  0  0  0  0
  190.1810  175.7890  142.4740 N   0  0  0  0  0  1  0  0  0  0  0  0
  190.4390  177.1860  142.1670 C   0  0  0  0  0  2  0  0  0  0  0  0
  188.0950  176.7200  138.1340 O   0  0  0  0  0  0  0  0  0  0  0  0
  190.1100  176.9770  136.2290 O   0  0  0  0  0  1  0  0  0  0  0  0
  188.2620  174.9430  135.9540 O   0  0  0  0  0  0  0  0  0  0  0  0
  189.1350  175.8750  137.0660 P   0  0  0  0  0  0  0  0  0  0  0  0
  190.0240  174.9590  137.8750 O   0  0  0  0  0  1  0  0  0  0  0  0
  1 14  1  1  0  0  0
  2 10  1  0  0  0  0
  2  8  2  0  0  0  0
  4  9  1  0  0  0  0
  4  3  2  0  0  0  0
  5  4  1  0  0  0  0
  6  7  1  0  0  0  0
  7  5  1  0  0  0  0
  7 10  1  0  0  0  0
  8  1  1  0  0  0  0
  9 11  1  0  0  0  0
 10  9  2  0  0  0  0
 11  1  1  0  0  0  0
 11 13  2  0  0  0  0
 12  2  1  0  0  0  0
 14 18  2  0  0  0  0
 14 16  1  0  0  0  0
 16 17  1  0  0  0  0
 17 20  1  0  0  0  0
 18 22  1  0  0  0  0
 19 15  1  0  0  0  0
 19 24  1  0  0  0  0
 20 15  2  0  0  0  0
 21 19  2  0  0  0  0
 22 17  2  0  0  0  0
 22 21  1  0  0  0  0
 23 24  1  0  0  0  0
 25 12  1  0  0  0  0
 26 25  1  1  0  0  0
 26 33  1  0  0  0  0
 26 27  1  0  0  0  0
 27 28  1  0  0  0  0
 28 29  1  0  0  0  0
 29 32  1  0  0  0  0
 30 29  2  0  0  0  0
 32 31  1  0  0  0  0
 34 36  1  0  0  0  0
 35 36  2  0  0  0  0
 36 37  1  0  0  0  0
 36 33  1  0  0  0  0
M  END
>  <MODEL>
1

>  <REMARK>
 VINA RESULT:      -7.9      0.000      0.000
  Name = 
  10 active torsions:
  status: ('A' for Active; 'I' for Inactive)
    1  A    between atoms: C_1  and  C_3
    2  A    between atoms: C_7  and  C_29
    3  A    between atoms: C_7  and  C_33
    4  A    between atoms: C_16  and  N_19
    5  A    between atoms: C_16  and  N_30
    6  A    between atoms: C_16  and  O_36
    7  A    between atoms: N_19  and  C_29
    8  A    between atoms: C_24  and  O_34
    9  A    between atoms: P_26  and  O_36
   10  A    between atoms: N_30  and  N_31
                            x       y       z     vdW  Elec       q    Type
                         _______ _______ _______ _____ _____    ______ ____

>  <TORSDO>
F 10

$$$$
=
 OpenBabel10232412383D

 37 40  0  0  1  0  0  0  0  0999 V2000
  184.2410  179.1270  140.6990 C   0  0  1  0  0  3  0  0  0  0  0  0
  185.0000  178.0650  138.5910 C   0  0  0  0  0  0  0  0  0  0  0  0
  180.9700  175.9830  139.9830 O   0  0  0  0  0  0  0  0  0  0  0  0
  182.0310  176.2230  139.3490 C   0  0  0  0  0  0  0  0  0  0  0  0
  182.4460  175.5160  138.2770 N   0  0  0  0  0  2  0  0  0  0  0  0
  184.3450  175.5870  136.7290 C   0  0  0  0  0  1  0  0  0  0  0  0
  183.5900  176.0600  137.8760 N   0  0  0  0  0  0  0  0  0  0  0  0
  185.0960  179.0050  139.4960 N   0  0  0  0  0  0  0  0  0  0  0  0
  182.9310  177.2270  139.6280 C   0  0  0  0  0  0  0  0  0  0  0  0
  183.8990  177.0960  138.6830 C   0  0  0  0  0  0  0  0  0  0  0  0
  182.9730  178.3010  140.6170 C   0  0  0  0  0  0  0  0  0  0  0  0
  185.9170  178.0230  137.4970 N   0  0  0  0  0  2  0  0  0  0  0  0
  181.9980  178.4930  141.4430 N   0  0  0  0  0  2  0  0  0  0  0  0
  185.0260  178.7320  141.9060 C   0  0  0  0  0  0  0  0  0  0  0  0
  186.7470  177.8490  145.8860 C   0  0  0  0  0  3  0  0  0  0  0  0
  184.5750  178.8610  143.1440 O   0  0  0  0  0  0  0  0  0  0  0  0
  185.5350  178.4320  143.9150 C   0  0  0  0  0  0  0  0  0  0  0  0
  186.2830  178.2220  141.8350 N   0  0  0  0  0  0  0  0  0  0  0  0
  187.8430  177.4380  145.0800 C   0  0  0  0  0  0  0  0  0  0  0  0
  185.5710  178.3550  145.3030 C   0  0  0  0  0  3  0  0  0  0  0  0
  187.7570  177.5340  143.6780 C   0  0  0  0  0  3  0  0  0  0  0  0
  186.5800  178.0400  143.1340 C   0  0  0  0  0  0  0  0  0  0  0  0
  189.2460  176.9230  147.0520 C   0  0  0  0  0  1  0  0  0  0  0  0
  189.0180  176.9380  145.6480 O   0  0  0  0  0  0  0  0  0  0  0  0
  186.8920  179.0140  137.3320 N   0  0  0  0  0  2  0  0  0  0  0  0
  188.1880  178.3560  137.4550 C   0  0  1  0  0  3  0  0  0  0  0  0
  188.8160  178.6690  138.7310 N   0  0  0  0  0  2  0  0  0  0  0  0
  188.8640  177.4350  139.4960 C   0  0  0  0  0  2  0  0  0  0  0  0
  190.2490  177.2030  140.0060 C   0  0  0  0  0  0  0  0  0  0  0  0
  190.5210  177.4390  141.1730 O   0  0  0  0  0  0  0  0  0  0  0  0
  190.9030  175.3930  138.5550 N   0  0  0  0  0  1  0  0  0  0  0  0
  191.3010  176.6880  139.0820 C   0  0  0  0  0  2  0  0  0  0  0  0
  188.1220  176.9590  137.2270 O   0  0  0  0  0  0  0  0  0  0  0  0
  189.3040  175.0670  135.5620 O   0  0  0  0  0  1  0  0  0  0  0  0
  189.5600  177.7430  134.9350 O   0  0  0  0  0  1  0  0  0  0  0  0
  188.5380  176.5750  135.6100 P   0  0  0  0  0  0  0  0  0  0  0  0
  187.2730  176.5020  134.7860 O   0  0  0  0  0  0  0  0  0  0  0  0
  1 14  1  1  0  0  0
  2 10  1  0  0  0  0
  2  8  2  0  0  0  0
  4  9  1  0  0  0  0
  4  3  2  0  0  0  0
  5  4  1  0  0  0  0
  6  7  1  0  0  0  0
  7  5  1  0  0  0  0
  7 10  1  0  0  0  0
  8  1  1  0  0  0  0
  9 11  1  0  0  0  0
 10  9  2  0  0  0  0
 11  1  1  0  0  0  0
 11 13  2  0  0  0  0
 12  2  1  0  0  0  0
 14 16  1  0  0  0  0
 16 17  1  0  0  0  0
 17 20  2  0  0  0  0
 18 14  2  0  0  0  0
 18 22  1  0  0  0  0
 19 24  1  0  0  0  0
 19 15  2  0  0  0  0
 20 15  1  0  0  0  0
 21 19  1  0  0  0  0
 22 21  2  0  0  0  0
 22 17  1  0  0  0  0
 24 23  1  0  0  0  0
 25 26  1  0  0  0  0
 25 12  1  0  0  0  0
 26 33  1  1  0  0  0
 26 27  1  0  0  0  0
 27 28  1  0  0  0  0
 28 29  1  0  0  0  0
 29 30  2  0  0  0  0
 31 32  1  0  0  0  0
 32 29  1  0  0  0  0
 34 36  1  0  0  0  0
 35 36  1  0  0  0  0
 36 33  1  0  0  0  0
 37 36  2  0  0  0  0
M  END
>  <MODEL>
2

>  <REMARK>
 VINA RESULT:      -7.6      1.111      1.444
  Name = 
  10 active torsions:
  status: ('A' for Active; 'I' for Inactive)
    1  A    between atoms: C_1  and  C_3
    2  A    between atoms: C_7  and  C_29
    3  A    between atoms: C_7  and  C_33
    4  A    between atoms: C_16  and  N_19
    5  A    between atoms: C_16  and  N_30
    6  A    between atoms: C_16  and  O_36
    7  A    between atoms: N_19  and  C_29
    8  A    between atoms: C_24  and  O_34
    9  A    between atoms: P_26  and  O_36
   10  A    between atoms: N_30  and  N_31
                            x       y       z     vdW  Elec       q    Type
                         _______ _______ _______ _____ _____    ______ ____

>  <TORSDO>
F 10

$$$$
=
 OpenBabel10232412383D

 37 40  0  0  1  0  0  0  0  0999 V2000
  189.5380  177.9570  139.2900 C   0  0  1  0  0  3  0  0  0  0  0  0
  190.5800  175.9340  138.3020 C   0  0  0  0  0  0  0  0  0  0  0  0
  186.0950  176.2360  136.7820 O   0  0  0  0  0  0  0  0  0  0  0  0
  187.2520  175.7900  137.0040 C   0  0  0  0  0  0  0  0  0  0  0  0
  187.7100  174.6110  136.5320 N   0  0  0  0  0  2  0  0  0  0  0  0
  189.8060  173.3470  136.6470 C   0  0  0  0  0  1  0  0  0  0  0  0
  188.9600  174.4850  136.9630 N   0  0  0  0  0  0  0  0  0  0  0  0
  190.6690  177.0530  138.9760 N   0  0  0  0  0  0  0  0  0  0  0  0
  188.2300  176.4130  137.7460 C   0  0  0  0  0  0  0  0  0  0  0  0
  189.2910  175.5650  137.7000 C   0  0  0  0  0  0  0  0  0  0  0  0
  188.3120  177.6970  138.4360 C   0  0  0  0  0  0  0  0  0  0  0  0
  191.7360  175.1190  138.1060 N   0  0  0  0  0  2  0  0  0  0  0  0
  187.3430  178.5510  138.3860 N   0  0  0  0  0  2  0  0  0  0  0  0
  189.1870  177.8260  140.7350 C   0  0  0  0  0  0  0  0  0  0  0  0
  188.9170  177.3350  145.1240 C   0  0  0  0  0  3  0  0  0  0  0  0
  190.0880  177.6730  141.6930 O   0  0  0  0  0  0  0  0  0  0  0  0
  189.4090  177.5800  142.8020 C   0  0  0  0  0  0  0  0  0  0  0  0
  187.9060  177.8350  141.1880 N   0  0  0  0  0  0  0  0  0  0  0  0
  187.5300  177.4340  144.8320 C   0  0  0  0  0  0  0  0  0  0  0  0
  189.8790  177.4080  144.1000 C   0  0  0  0  0  3  0  0  0  0  0  0
  187.1040  177.6090  143.5000 C   0  0  0  0  0  3  0  0  0  0  0  0
  188.0810  177.6770  142.5120 C   0  0  0  0  0  0  0  0  0  0  0  0
  185.5920  178.3760  146.0480 C   0  0  0  0  0  1  0  0  0  0  0  0
  186.5650  177.3590  145.8400 O   0  0  0  0  0  0  0  0  0  0  0  0
  192.9940  175.5240  138.5690 N   0  0  0  0  0  2  0  0  0  0  0  0
  193.8990  175.4790  137.4260 C   0  0  1  0  0  3  0  0  0  0  0  0
  193.9380  176.7620  136.7390 N   0  0  0  0  0  2  0  0  0  0  0  0
  194.3930  176.5040  135.3830 C   0  0  0  0  0  2  0  0  0  0  0  0
  195.6850  177.2090  135.1340 C   0  0  0  0  0  0  0  0  0  0  0  0
  195.7430  178.4270  135.1930 O   0  0  0  0  0  0  0  0  0  0  0  0
  197.6140  176.0730  136.0290 N   0  0  0  0  0  1  0  0  0  0  0  0
  196.9080  176.4180  134.8060 C   0  0  0  0  0  2  0  0  0  0  0  0
  195.1960  175.0220  137.7670 O   0  0  0  0  0  0  0  0  0  0  0  0
  196.7920  172.8520  137.0620 O   0  0  0  0  0  1  0  0  0  0  0  0
  194.0570  172.6620  136.7290 O   0  0  0  0  0  0  0  0  0  0  0  0
  195.2900  173.3120  137.6900 P   0  0  0  0  0  0  0  0  0  0  0  0
  195.1590  172.7550  139.0890 O   0  0  0  0  0  1  0  0  0  0  0  0
  1 14  1  1  0  0  0
  2  8  2  0  0  0  0
  3  4  2  0  0  0  0
  4  9  1  0  0  0  0
  5  7  1  0  0  0  0
  5  4  1  0  0  0  0
  6  7  1  0  0  0  0
  7 10  1  0  0  0  0
  8  1  1  0  0  0  0
  9 11  1  0  0  0  0
 10  9  2  0  0  0  0
 10  2  1  0  0  0  0
 11  1  1  0  0  0  0
 12  2  1  0  0  0  0
 12 25  1  0  0  0  0
 13 11  2  0  0  0  0
 14 18  2  0  0  0  0
 14 16  1  0  0  0  0
 16 17  1  0  0  0  0
 17 20  1  0  0  0  0
 18 22  1  0  0  0  0
 19 15  1  0  0  0  0
 19 24  1  0  0  0  0
 20 15  2  0  0  0  0
 21 19  2  0  0  0  0
 22 17  2  0  0  0  0
 22 21  1  0  0  0  0
 24 23  1  0  0  0  0
 26 27  1  1  0  0  0
 26 33  1  0  0  0  0
 26 25  1  0  0  0  0
 28 27  1  0  0  0  0
 29 30  2  0  0  0  0
 29 28  1  0  0  0  0
 32 29  1  0  0  0  0
 32 31  1  0  0  0  0
 34 36  1  0  0  0  0
 35 36  2  0  0  0  0
 36 33  1  0  0  0  0
 36 37  1  0  0  0  0
M  END
>  <MODEL>
3

>  <REMARK>
 VINA RESULT:      -7.4      4.444      5.994
  Name = 
  10 active torsions:
  status: ('A' for Active; 'I' for Inactive)
    1  A    between atoms: C_1  and  C_3
    2  A    between atoms: C_7  and  C_29
    3  A    between atoms: C_7  and  C_33
    4  A    between atoms: C_16  and  N_19
    5  A    between atoms: C_16  and  N_30
    6  A    between atoms: C_16  and  O_36
    7  A    between atoms: N_19  and  C_29
    8  A    between atoms: C_24  and  O_34
    9  A    between atoms: P_26  and  O_36
   10  A    between atoms: N_30  and  N_31
                            x       y       z     vdW  Elec       q    Type
                         _______ _______ _______ _____ _____    ______ ____

>  <TORSDO>
F 10

$$$$
=
 OpenBabel10232412383D

 37 40  0  0  1  0  0  0  0  0999 V2000
  184.1990  179.1810  140.6590 C   0  0  1  0  0  3  0  0  0  0  0  0
  185.1320  178.0470  138.6600 C   0  0  0  0  0  0  0  0  0  0  0  0
  181.0190  175.9770  139.8070 O   0  0  0  0  0  0  0  0  0  0  0  0
  182.1260  176.2040  139.2510 C   0  0  0  0  0  0  0  0  0  0  0  0
  182.6310  175.4610  138.2430 N   0  0  0  0  0  2  0  0  0  0  0  0
  184.6470  175.4930  136.8490 C   0  0  0  0  0  1  0  0  0  0  0  0
  183.7980  176.0020  137.9140 N   0  0  0  0  0  0  0  0  0  0  0  0
  185.1490  179.0220  139.5330 N   0  0  0  0  0  0  0  0  0  0  0  0
  182.9930  177.2270  139.5610 C   0  0  0  0  0  0  0  0  0  0  0  0
  184.0350  177.0710  138.7020 C   0  0  0  0  0  0  0  0  0  0  0  0
  182.9480  178.3380  140.5080 C   0  0  0  0  0  0  0  0  0  0  0  0
  186.1340  177.9730  137.6460 N   0  0  0  0  0  2  0  0  0  0  0  0
  181.9080  178.5510  141.2460 N   0  0  0  0  0  2  0  0  0  0  0  0
  184.8880  178.8400  141.9390 C   0  0  0  0  0  0  0  0  0  0  0  0
  187.3650  177.3490  145.2890 C   0  0  0  0  0  3  0  0  0  0  0  0
  185.9250  178.0200  142.0120 O   0  0  0  0  0  0  0  0  0  0  0  0
  186.2360  177.9590  143.2770 C   0  0  0  0  0  0  0  0  0  0  0  0
  184.4960  179.3310  143.1430 N   0  0  0  0  0  0  0  0  0  0  0  0
  186.4730  178.1710  146.0290 C   0  0  0  0  0  0  0  0  0  0  0  0
  187.2530  177.2350  143.8910 C   0  0  0  0  0  3  0  0  0  0  0  0
  185.4600  178.8860  145.3600 C   0  0  0  0  0  3  0  0  0  0  0  0
  185.3760  178.7510  143.9770 C   0  0  0  0  0  0  0  0  0  0  0  0
  187.7690  178.0010  148.1280 C   0  0  0  0  0  1  0  0  0  0  0  0
  186.5720  178.2890  147.4170 O   0  0  0  0  0  0  0  0  0  0  0  0
  187.1120  178.9680  137.5210 N   0  0  0  0  0  2  0  0  0  0  0  0
  188.3820  178.3610  137.9030 C   0  0  1  0  0  3  0  0  0  0  0  0
  189.3020  178.3160  136.7750 N   0  0  0  0  0  2  0  0  0  0  0  0
  188.9000  177.1940  135.9430 C   0  0  0  0  0  2  0  0  0  0  0  0
  189.2200  175.9080  136.6310 C   0  0  0  0  0  0  0  0  0  0  0  0
  188.3240  175.1430  136.9520 O   0  0  0  0  0  0  0  0  0  0  0  0
  190.6980  174.3220  137.6850 N   0  0  0  0  0  1  0  0  0  0  0  0
  190.6410  175.5630  136.9300 C   0  0  0  0  0  2  0  0  0  0  0  0
  188.9670  178.9740  139.0380 O   0  0  0  0  0  0  0  0  0  0  0  0
  189.4570  178.3590  141.7090 O   0  0  0  0  0  1  0  0  0  0  0  0
  191.2260  177.4640  139.7870 O   0  0  0  0  0  0  0  0  0  0  0  0
  189.6000  177.8030  140.1170 P   0  0  0  0  0  0  0  0  0  0  0  0
  188.8000  176.5280  139.9760 O   0  0  0  0  0  1  0  0  0  0  0  0
  1 14  1  1  0  0  0
  2 10  1  0  0  0  0
  2  8  2  0  0  0  0
  4  9  1  0  0  0  0
  4  3  2  0  0  0  0
  5  4  1  0  0  0  0
  6  7  1  0  0  0  0
  7  5  1  0  0  0  0
  7 10  1  0  0  0  0
  8  1  1  0  0  0  0
  9 11  1  0  0  0  0
 10  9  2  0  0  0  0
 11  1  1  0  0  0  0
 11 13  2  0  0  0  0
 12  2  1  0  0  0  0
 14 16  1  0  0  0  0
 14 18  2  0  0  0  0
 15 19  1  0  0  0  0
 16 17  1  0  0  0  0
 17 20  1  0  0  0  0
 17 22  2  0  0  0  0
 18 22  1  0  0  0  0
 19 24  1  0  0  0  0
 20 15  2  0  0  0  0
 21 19  2  0  0  0  0
 22 21  1  0  0  0  0
 24 23  1  0  0  0  0
 25 12  1  0  0  0  0
 25 26  1  0  0  0  0
 26 27  1  6  0  0  0
 26 33  1  0  0  0  0
 28 29  1  0  0  0  0
 28 27  1  0  0  0  0
 29 32  1  0  0  0  0
 29 30  2  0  0  0  0
 32 31  1  0  0  0  0
 33 36  1  0  0  0  0
 35 36  2  0  0  0  0
 36 34  1  0  0  0  0
 37 36  1  0  0  0  0
M  END
>  <MODEL>
4

>  <REMARK>
 VINA RESULT:      -7.3      1.756      2.663
  Name = 
  10 active torsions:
  status: ('A' for Active; 'I' for Inactive)
    1  A    between atoms: C_1  and  C_3
    2  A    between atoms: C_7  and  C_29
    3  A    between atoms: C_7  and  C_33
    4  A    between atoms: C_16  and  N_19
    5  A    between atoms: C_16  and  N_30
    6  A    between atoms: C_16  and  O_36
    7  A    between atoms: N_19  and  C_29
    8  A    between atoms: C_24  and  O_34
    9  A    between atoms: P_26  and  O_36
   10  A    between atoms: N_30  and  N_31
                            x       y       z     vdW  Elec       q    Type
                         _______ _______ _______ _____ _____    ______ ____

>  <TORSDO>
F 10

$$$$
=
 OpenBabel10232412383D

 37 40  0  0  1  0  0  0  0  0999 V2000
  190.7570  177.6040  139.3080 C   0  0  1  0  0  3  0  0  0  0  0  0
  191.0820  175.4770  138.0750 C   0  0  0  0  0  0  0  0  0  0  0  0
  186.6210  176.9540  137.4190 O   0  0  0  0  0  0  0  0  0  0  0  0
  187.6510  176.2300  137.4090 C   0  0  0  0  0  0  0  0  0  0  0  0
  187.7160  175.0170  136.8190 N   0  0  0  0  0  2  0  0  0  0  0  0
  189.4210  173.2860  136.5010 C   0  0  0  0  0  1  0  0  0  0  0  0
  188.9500  174.5640  137.0070 N   0  0  0  0  0  0  0  0  0  0  0  0
  191.5590  176.4850  138.7590 N   0  0  0  0  0  0  0  0  0  0  0  0
  188.8650  176.5420  137.9790 C   0  0  0  0  0  0  0  0  0  0  0  0
  189.6590  175.4730  137.7080 C   0  0  0  0  0  0  0  0  0  0  0  0
  189.3790  177.7110  138.6870 C   0  0  0  0  0  0  0  0  0  0  0  0
  191.9490  174.4290  137.6400 N   0  0  0  0  0  2  0  0  0  0  0  0
  188.6580  178.7720  138.8460 N   0  0  0  0  0  2  0  0  0  0  0  0
  190.6360  177.4460  140.7870 C   0  0  0  0  0  0  0  0  0  0  0  0
  189.5050  176.9840  145.0400 C   0  0  0  0  0  3  0  0  0  0  0  0
  189.4790  177.3010  141.4130 O   0  0  0  0  0  0  0  0  0  0  0  0
  189.7720  177.2110  142.6800 C   0  0  0  0  0  0  0  0  0  0  0  0
  191.7080  177.4570  141.6220 N   0  0  0  0  0  0  0  0  0  0  0  0
  190.9130  177.0800  145.2000 C   0  0  0  0  0  0  0  0  0  0  0  0
  188.9160  177.0490  143.7640 C   0  0  0  0  0  3  0  0  0  0  0  0
  191.7380  177.2420  144.0700 C   0  0  0  0  0  3  0  0  0  0  0  0
  191.1240  177.3040  142.8230 C   0  0  0  0  0  0  0  0  0  0  0  0
  192.1160  175.8390  146.9700 C   0  0  0  0  0  1  0  0  0  0  0  0
  191.5090  177.0210  146.4630 O   0  0  0  0  0  0  0  0  0  0  0  0
  193.3280  174.4850  137.8770 N   0  0  0  0  0  2  0  0  0  0  0  0
  193.9830  173.9400  136.6930 C   0  0  1  0  0  3  0  0  0  0  0  0
  194.1550  174.9640  135.6720 N   0  0  0  0  0  2  0  0  0  0  0  0
  195.5390  174.8980  135.2340 C   0  0  0  0  0  2  0  0  0  0  0  0
  196.1670  176.2500  135.3150 C   0  0  0  0  0  0  0  0  0  0  0  0
  197.1980  176.4130  135.9480 O   0  0  0  0  0  0  0  0  0  0  0  0
  195.9120  178.6470  135.2730 N   0  0  0  0  0  1  0  0  0  0  0  0
  195.5240  177.4060  134.6230 C   0  0  0  0  0  2  0  0  0  0  0  0
  195.2000  173.2790  136.9900 O   0  0  0  0  0  0  0  0  0  0  0  0
  193.4640  171.1960  136.3580 O   0  0  0  0  0  1  0  0  0  0  0  0
  195.2510  170.8610  138.4360 O   0  0  0  0  0  1  0  0  0  0  0  0
  195.0140  171.5770  136.9200 P   0  0  0  0  0  0  0  0  0  0  0  0
  196.0310  171.0160  135.9530 O   0  0  0  0  0  0  0  0  0  0  0  0
  1 14  1  1  0  0  0
  2  8  2  0  0  0  0
  4  3  2  0  0  0  0
  4  9  1  0  0  0  0
  5  7  1  0  0  0  0
  5  4  1  0  0  0  0
  6  7  1  0  0  0  0
  7 10  1  0  0  0  0
  8  1  1  0  0  0  0
  9 11  1  0  0  0  0
 10  9  2  0  0  0  0
 10  2  1  0  0  0  0
 11 13  2  0  0  0  0
 11  1  1  0  0  0  0
 12 25  1  0  0  0  0
 12  2  1  0  0  0  0
 14 16  1  0  0  0  0
 14 18  2  0  0  0  0
 15 19  1  0  0  0  0
 16 17  1  0  0  0  0
 17 22  2  0  0  0  0
 17 20  1  0  0  0  0
 18 22  1  0  0  0  0
 19 24  1  0  0  0  0
 20 15  2  0  0  0  0
 21 19  2  0  0  0  0
 22 21  1  0  0  0  0
 24 23  1  0  0  0  0
 26 27  1  6  0  0  0
 26 33  1  0  0  0  0
 26 25  1  0  0  0  0
 28 29  1  0  0  0  0
 28 27  1  0  0  0  0
 29 30  2  0  0  0  0
 32 31  1  0  0  0  0
 32 29  1  0  0  0  0
 34 36  1  0  0  0  0
 36 33  1  0  0  0  0
 36 35  1  0  0  0  0
 37 36  2  0  0  0  0
M  END
>  <MODEL>
5

>  <REMARK>
 VINA RESULT:      -7.1      4.745      6.637
  Name = 
  10 active torsions:
  status: ('A' for Active; 'I' for Inactive)
    1  A    between atoms: C_1  and  C_3
    2  A    between atoms: C_7  and  C_29
    3  A    between atoms: C_7  and  C_33
    4  A    between atoms: C_16  and  N_19
    5  A    between atoms: C_16  and  N_30
    6  A    between atoms: C_16  and  O_36
    7  A    between atoms: N_19  and  C_29
    8  A    between atoms: C_24  and  O_34
    9  A    between atoms: P_26  and  O_36
   10  A    between atoms: N_30  and  N_31
                            x       y       z     vdW  Elec       q    Type
                         _______ _______ _______ _____ _____    ______ ____

>  <TORSDO>
F 10

$$$$
=
 OpenBabel10232412383D

 37 40  0  0  1  0  0  0  0  0999 V2000
  187.3840  177.9210  137.7810 C   0  0  1  0  0  3  0  0  0  0  0  0
  187.5130  178.3450  140.2210 C   0  0  0  0  0  0  0  0  0  0  0  0
  191.7450  176.8200  138.7130 O   0  0  0  0  0  0  0  0  0  0  0  0
  190.8060  177.1700  139.4750 C   0  0  0  0  0  0  0  0  0  0  0  0
  190.9160  177.2580  140.8180 N   0  0  0  0  0  2  0  0  0  0  0  0
  189.4560  177.8930  142.6820 C   0  0  0  0  0  1  0  0  0  0  0  0
  189.7350  177.6610  141.2750 N   0  0  0  0  0  0  0  0  0  0  0  0
  186.8780  178.4220  139.0790 N   0  0  0  0  0  0  0  0  0  0  0  0
  189.5340  177.5210  139.0830 C   0  0  0  0  0  0  0  0  0  0  0  0
  188.8860  177.8240  140.2390 C   0  0  0  0  0  0  0  0  0  0  0  0
  188.8770  177.6530  137.7860 C   0  0  0  0  0  0  0  0  0  0  0  0
  186.8990  178.8200  141.4190 N   0  0  0  0  0  2  0  0  0  0  0  0
  189.5240  177.4740  136.6820 N   0  0  0  0  0  2  0  0  0  0  0  0
  186.6470  176.6770  137.4100 C   0  0  0  0  0  0  0  0  0  0  0  0
  185.1490  172.6300  136.4290 C   0  0  0  0  0  3  0  0  0  0  0  0
  187.1930  175.4710  137.4340 O   0  0  0  0  0  0  0  0  0  0  0  0
  186.2590  174.6540  137.0360 C   0  0  0  0  0  0  0  0  0  0  0  0
  185.3530  176.6800  136.9960 N   0  0  0  0  0  0  0  0  0  0  0  0
  183.9710  173.3720  136.1440 C   0  0  0  0  0  0  0  0  0  0  0  0
  186.3160  173.2720  136.8830 C   0  0  0  0  0  3  0  0  0  0  0  0
  183.9640  174.7700  136.3170 C   0  0  0  0  0  3  0  0  0  0  0  0
  185.1340  175.3740  136.7660 C   0  0  0  0  0  0  0  0  0  0  0  0
  181.7970  172.2730  136.5700 C   0  0  0  0  0  1  0  0  0  0  0  0
  182.8080  172.7460  135.6890 O   0  0  0  0  0  0  0  0  0  0  0  0
  185.6400  179.4330  141.3930 N   0  0  0  0  0  2  0  0  0  0  0  0
  184.6950  178.4830  141.9700 C   0  0  1  0  0  3  0  0  0  0  0  0
  185.1570  178.0080  143.2660 N   0  0  0  0  0  2  0  0  0  0  0  0
  184.6730  178.9500  144.2610 C   0  0  0  0  0  2  0  0  0  0  0  0
  185.3940  178.7450  145.5530 C   0  0  0  0  0  0  0  0  0  0  0  0
  184.9140  179.1580  146.5970 O   0  0  0  0  0  0  0  0  0  0  0  0
  187.1480  177.8310  146.9320 N   0  0  0  0  0  1  0  0  0  0  0  0
  186.7090  178.0380  145.5620 C   0  0  0  0  0  2  0  0  0  0  0  0
  183.3730  178.9860  142.0310 O   0  0  0  0  0  0  0  0  0  0  0  0
  180.8400  178.1430  141.2400 O   0  0  0  0  0  1  0  0  0  0  0  0
  183.0590  176.9740  140.0840 O   0  0  0  0  0  1  0  0  0  0  0  0
  182.4290  178.4100  140.7230 P   0  0  0  0  0  0  0  0  0  0  0  0
  182.4130  179.4600  139.6350 O   0  0  0  0  0  0  0  0  0  0  0  0
  1 14  1  1  0  0  0
  1 11  1  0  0  0  0
  1  8  1  0  0  0  0
  2 10  1  0  0  0  0
  2 12  1  0  0  0  0
  3  4  2  0  0  0  0
  4  5  1  0  0  0  0
  5  7  1  0  0  0  0
  7  6  1  0  0  0  0
  8  2  2  0  0  0  0
  9  4  1  0  0  0  0
  9 10  2  0  0  0  0
 10  7  1  0  0  0  0
 11  9  1  0  0  0  0
 13 11  2  0  0  0  0
 14 16  1  0  0  0  0
 15 20  1  0  0  0  0
 17 16  1  0  0  0  0
 18 14  2  0  0  0  0
 19 21  1  0  0  0  0
 19 15  2  0  0  0  0
 20 17  2  0  0  0  0
 21 22  2  0  0  0  0
 22 18  1  0  0  0  0
 22 17  1  0  0  0  0
 24 19  1  0  0  0  0
 24 23  1  0  0  0  0
 25 12  1  0  0  0  0
 26 25  1  1  0  0  0
 26 33  1  0  0  0  0
 26 27  1  0  0  0  0
 27 28  1  0  0  0  0
 28 29  1  0  0  0  0
 29 32  1  0  0  0  0
 29 30  2  0  0  0  0
 32 31  1  0  0  0  0
 35 36  1  0  0  0  0
 36 34  1  0  0  0  0
 36 33  1  0  0  0  0
 37 36  2  0  0  0  0
M  END
>  <MODEL>
6

>  <REMARK>
 VINA RESULT:      -7.0      2.634      7.893
  Name = 
  10 active torsions:
  status: ('A' for Active; 'I' for Inactive)
    1  A    between atoms: C_1  and  C_3
    2  A    between atoms: C_7  and  C_29
    3  A    between atoms: C_7  and  C_33
    4  A    between atoms: C_16  and  N_19
    5  A    between atoms: C_16  and  N_30
    6  A    between atoms: C_16  and  O_36
    7  A    between atoms: N_19  and  C_29
    8  A    between atoms: C_24  and  O_34
    9  A    between atoms: P_26  and  O_36
   10  A    between atoms: N_30  and  N_31
                            x       y       z     vdW  Elec       q    Type
                         _______ _______ _______ _____ _____    ______ ____

>  <TORSDO>
F 10

$$$$
=
 OpenBabel10232412383D

 37 40  0  0  1  0  0  0  0  0999 V2000
  189.6840  177.9440  139.3980 C   0  0  1  0  0  3  0  0  0  0  0  0
  190.5690  175.9150  138.2780 C   0  0  0  0  0  0  0  0  0  0  0  0
  186.0900  176.6030  136.8730 O   0  0  0  0  0  0  0  0  0  0  0  0
  187.2170  176.0680  137.0460 C   0  0  0  0  0  0  0  0  0  0  0  0
  187.5850  174.8900  136.4990 N   0  0  0  0  0  2  0  0  0  0  0  0
  189.5920  173.4830  136.4990 C   0  0  0  0  0  1  0  0  0  0  0  0
  188.8310  174.6560  136.8950 N   0  0  0  0  0  0  0  0  0  0  0  0
  190.7450  176.9850  139.0110 N   0  0  0  0  0  0  0  0  0  0  0  0
  188.2480  176.5810  137.7990 C   0  0  0  0  0  0  0  0  0  0  0  0
  189.2480  175.6680  137.6840 C   0  0  0  0  0  0  0  0  0  0  0  0
  188.4290  177.8160  138.5580 C   0  0  0  0  0  0  0  0  0  0  0  0
  191.6630  175.0370  138.0120 N   0  0  0  0  0  2  0  0  0  0  0  0
  187.5200  178.7340  138.5760 N   0  0  0  0  0  2  0  0  0  0  0  0
  189.3500  177.7550  140.8410 C   0  0  0  0  0  0  0  0  0  0  0  0
  187.6180  177.2880  144.8860 C   0  0  0  0  0  3  0  0  0  0  0  0
  188.1110  177.7180  141.3040 O   0  0  0  0  0  0  0  0  0  0  0  0
  188.2210  177.5570  142.5930 C   0  0  0  0  0  0  0  0  0  0  0  0
  190.2960  177.6230  141.8070 N   0  0  0  0  0  0  0  0  0  0  0  0
  188.9950  177.2260  145.2320 C   0  0  0  0  0  0  0  0  0  0  0  0
  187.2150  177.4570  143.5480 C   0  0  0  0  0  3  0  0  0  0  0  0
  189.9760  177.3320  144.2270 C   0  0  0  0  0  3  0  0  0  0  0  0
  189.5440  177.4980  142.9140 C   0  0  0  0  0  0  0  0  0  0  0  0
  190.7730  176.9130  146.9230 C   0  0  0  0  0  1  0  0  0  0  0  0
  189.4070  177.0630  146.5570 O   0  0  0  0  0  0  0  0  0  0  0  0
  192.9540  175.3300  138.4710 N   0  0  0  0  0  2  0  0  0  0  0  0
  193.8830  174.6420  137.5820 C   0  0  1  0  0  3  0  0  0  0  0  0
  193.3780  174.6140  136.2160 N   0  0  0  0  0  2  0  0  0  0  0  0
  194.2240  173.6980  135.4690 C   0  0  0  0  0  2  0  0  0  0  0  0
  193.8790  172.2860  135.8150 C   0  0  0  0  0  0  0  0  0  0  0  0
  192.7130  171.9280  135.8460 O   0  0  0  0  0  0  0  0  0  0  0  0
  194.4320  170.2040  136.8970 N   0  0  0  0  0  1  0  0  0  0  0  0
  194.9680  171.3150  136.1280 C   0  0  0  0  0  2  0  0  0  0  0  0
  195.1990  175.1640  137.6480 O   0  0  0  0  0  0  0  0  0  0  0  0
  195.3540  172.8680  139.2150 O   0  0  0  0  0  1  0  0  0  0  0  0
  196.4900  175.2040  140.1520 O   0  0  0  0  0  1  0  0  0  0  0  0
  196.1570  174.2890  138.7670 P   0  0  0  0  0  0  0  0  0  0  0  0
  197.4630  173.9180  138.1040 O   0  0  0  0  0  0  0  0  0  0  0  0
  1 14  1  1  0  0  0
  2  8  2  0  0  0  0
  3  4  2  0  0  0  0
  4  9  1  0  0  0  0
  5  7  1  0  0  0  0
  5  4  1  0  0  0  0
  6  7  1  0  0  0  0
  7 10  1  0  0  0  0
  8  1  1  0  0  0  0
  9 11  1  0  0  0  0
 10  9  2  0  0  0  0
 10  2  1  0  0  0  0
 11 13  2  0  0  0  0
 11  1  1  0  0  0  0
 12  2  1  0  0  0  0
 12 25  1  0  0  0  0
 14 16  1  0  0  0  0
 14 18  2  0  0  0  0
 15 19  1  0  0  0  0
 16 17  1  0  0  0  0
 17 22  2  0  0  0  0
 17 20  1  0  0  0  0
 18 22  1  0  0  0  0
 19 24  1  0  0  0  0
 20 15  2  0  0  0  0
 21 19  2  0  0  0  0
 22 21  1  0  0  0  0
 24 23  1  0  0  0  0
 26 27  1  6  0  0  0
 26 33  1  0  0  0  0
 26 25  1  0  0  0  0
 28 29  1  0  0  0  0
 28 27  1  0  0  0  0
 29 30  2  0  0  0  0
 29 32  1  0  0  0  0
 32 31  1  0  0  0  0
 33 36  1  0  0  0  0
 36 34  1  0  0  0  0
 36 35  1  0  0  0  0
 37 36  2  0  0  0  0
M  END
>  <MODEL>
7

>  <REMARK>
 VINA RESULT:      -6.9      4.528      6.104
  Name = 
  10 active torsions:
  status: ('A' for Active; 'I' for Inactive)
    1  A    between atoms: C_1  and  C_3
    2  A    between atoms: C_7  and  C_29
    3  A    between atoms: C_7  and  C_33
    4  A    between atoms: C_16  and  N_19
    5  A    between atoms: C_16  and  N_30
    6  A    between atoms: C_16  and  O_36
    7  A    between atoms: N_19  and  C_29
    8  A    between atoms: C_24  and  O_34
    9  A    between atoms: P_26  and  O_36
   10  A    between atoms: N_30  and  N_31
                            x       y       z     vdW  Elec       q    Type
                         _______ _______ _______ _____ _____    ______ ____

>  <TORSDO>
F 10

$$$$
=
 OpenBabel10232412383D

 37 40  0  0  1  0  0  0  0  0999 V2000
  184.4810  179.1660  138.8080 C   0  0  1  0  0  3  0  0  0  0  0  0
  186.2090  177.6340  137.9030 C   0  0  0  0  0  0  0  0  0  0  0  0
  181.9240  175.8740  136.8780 O   0  0  0  0  0  0  0  0  0  0  0  0
  183.1720  175.9730  137.0090 C   0  0  0  0  0  0  0  0  0  0  0  0
  184.0520  175.0340  136.6010 N   0  0  0  0  0  2  0  0  0  0  0  0
  186.4870  174.7630  136.5950 C   0  0  0  0  0  1  0  0  0  0  0  0
  185.2640  175.4870  136.8970 N   0  0  0  0  0  0  0  0  0  0  0  0
  185.8640  178.7700  138.4550 N   0  0  0  0  0  0  0  0  0  0  0  0
  183.8450  177.0340  137.5740 C   0  0  0  0  0  0  0  0  0  0  0  0
  185.1580  176.6950  137.4880 C   0  0  0  0  0  0  0  0  0  0  0  0
  183.4250  178.3180  138.1270 C   0  0  0  0  0  0  0  0  0  0  0  0
  187.5850  177.3440  137.6540 N   0  0  0  0  0  2  0  0  0  0  0  0
  182.1870  178.6870  138.1070 N   0  0  0  0  0  2  0  0  0  0  0  0
  184.3100  179.0960  140.2900 C   0  0  0  0  0  0  0  0  0  0  0  0
  183.0430  178.7940  144.5190 C   0  0  0  0  0  3  0  0  0  0  0  0
  183.1490  178.8610  140.8790 O   0  0  0  0  0  0  0  0  0  0  0  0
  183.3920  178.8900  142.1600 C   0  0  0  0  0  0  0  0  0  0  0  0
  185.3350  179.2850  141.1620 N   0  0  0  0  0  0  0  0  0  0  0  0
  184.4230  179.0620  144.7250 C   0  0  0  0  0  0  0  0  0  0  0  0
  182.5100  178.7050  143.2200 C   0  0  0  0  0  3  0  0  0  0  0  0
  185.2760  179.2410  143.6180 C   0  0  0  0  0  3  0  0  0  0  0  0
  184.7160  179.1470  142.3480 C   0  0  0  0  0  0  0  0  0  0  0  0
  185.0850  178.0350  146.8760 C   0  0  0  0  0  1  0  0  0  0  0  0
  184.9630  179.1570  146.0100 O   0  0  0  0  0  0  0  0  0  0  0  0
  188.5850  178.2850  137.9330 N   0  0  0  0  0  2  0  0  0  0  0  0
  189.7060  177.5520  138.5100 C   0  0  1  0  0  3  0  0  0  0  0  0
  190.0140  178.0340  139.8490 N   0  0  0  0  0  2  0  0  0  0  0  0
  189.2900  177.1870  140.7820 C   0  0  0  0  0  2  0  0  0  0  0  0
  190.1540  176.8670  141.9580 C   0  0  0  0  0  0  0  0  0  0  0  0
  191.2350  177.4170  142.0940 O   0  0  0  0  0  0  0  0  0  0  0  0
  188.3140  176.1440  143.3370 N   0  0  0  0  0  1  0  0  0  0  0  0
  189.6920  175.8670  142.9650 C   0  0  0  0  0  2  0  0  0  0  0  0
  189.5200  176.1480  138.4830 O   0  0  0  0  0  0  0  0  0  0  0  0
  192.2120  175.5530  138.0910 O   0  0  0  0  0  1  0  0  0  0  0  0
  190.6220  176.0600  135.8910 O   0  0  0  0  0  0  0  0  0  0  0  0
  190.6550  175.3920  137.4460 P   0  0  0  0  0  0  0  0  0  0  0  0
  190.3220  173.9210  137.3490 O   0  0  0  0  0  1  0  0  0  0  0  0
  1 14  1  1  0  0  0
  2  8  2  0  0  0  0
  3  4  2  0  0  0  0
  4  9  1  0  0  0  0
  5  7  1  0  0  0  0
  5  4  1  0  0  0  0
  6  7  1  0  0  0  0
  7 10  1  0  0  0  0
  8  1  1  0  0  0  0
  9 11  1  0  0  0  0
 10  9  2  0  0  0  0
 10  2  1  0  0  0  0
 11  1  1  0  0  0  0
 12  2  1  0  0  0  0
 12 25  1  0  0  0  0
 13 11  2  0  0  0  0
 14 16  1  0  0  0  0
 14 18  2  0  0  0  0
 15 19  1  0  0  0  0
 16 17  1  0  0  0  0
 17 22  2  0  0  0  0
 17 20  1  0  0  0  0
 18 22  1  0  0  0  0
 19 24  1  0  0  0  0
 20 15  2  0  0  0  0
 21 19  2  0  0  0  0
 22 21  1  0  0  0  0
 24 23  1  0  0  0  0
 26 25  1  1  0  0  0
 26 27  1  0  0  0  0
 27 28  1  0  0  0  0
 28 29  1  0  0  0  0
 29 30  2  0  0  0  0
 29 32  1  0  0  0  0
 32 31  1  0  0  0  0
 33 26  1  0  0  0  0
 35 36  2  0  0  0  0
 36 34  1  0  0  0  0
 36 33  1  0  0  0  0
 37 36  1  0  0  0  0
M  END
>  <MODEL>
8

>  <REMARK>
 VINA RESULT:      -6.9      1.912      2.400
  Name = 
  10 active torsions:
  status: ('A' for Active; 'I' for Inactive)
    1  A    between atoms: C_1  and  C_3
    2  A    between atoms: C_7  and  C_29
    3  A    between atoms: C_7  and  C_33
    4  A    between atoms: C_16  and  N_19
    5  A    between atoms: C_16  and  N_30
    6  A    between atoms: C_16  and  O_36
    7  A    between atoms: N_19  and  C_29
    8  A    between atoms: C_24  and  O_34
    9  A    between atoms: P_26  and  O_36
   10  A    between atoms: N_30  and  N_31
                            x       y       z     vdW  Elec       q    Type
                         _______ _______ _______ _____ _____    ______ ____

>  <TORSDO>
F 10

$$$$
=
 OpenBabel10232412383D

 37 40  0  0  1  0  0  0  0  0999 V2000
  189.5700  178.0460  139.5270 C   0  0  1  0  0  3  0  0  0  0  0  0
  190.7750  176.1850  138.4140 C   0  0  0  0  0  0  0  0  0  0  0  0
  186.2230  176.0700  137.0790 O   0  0  0  0  0  0  0  0  0  0  0  0
  187.4280  175.7410  137.2380 C   0  0  0  0  0  0  0  0  0  0  0  0
  187.9860  174.6360  136.6980 N   0  0  0  0  0  2  0  0  0  0  0  0
  190.2060  173.5970  136.6790 C   0  0  0  0  0  1  0  0  0  0  0  0
  189.2600  174.6260  137.0750 N   0  0  0  0  0  0  0  0  0  0  0  0
  190.7750  177.2800  139.1320 N   0  0  0  0  0  0  0  0  0  0  0  0
  188.3670  176.4340  137.9680 C   0  0  0  0  0  0  0  0  0  0  0  0
  189.5070  175.7060  137.8450 C   0  0  0  0  0  0  0  0  0  0  0  0
  188.3430  177.6920  138.7100 C   0  0  0  0  0  0  0  0  0  0  0  0
  192.0000  175.5050  138.1390 N   0  0  0  0  0  2  0  0  0  0  0  0
  187.2890  178.4400  138.7330 N   0  0  0  0  0  2  0  0  0  0  0  0
  189.2960  177.8230  140.9770 C   0  0  0  0  0  0  0  0  0  0  0  0
  187.7350  177.2910  145.0830 C   0  0  0  0  0  3  0  0  0  0  0  0
  188.0780  177.8200  141.4970 O   0  0  0  0  0  0  0  0  0  0  0  0
  188.2410  177.6110  142.7730 C   0  0  0  0  0  0  0  0  0  0  0  0
  190.2790  177.6200  141.8930 N   0  0  0  0  0  0  0  0  0  0  0  0
  189.1220  177.1610  145.3610 C   0  0  0  0  0  0  0  0  0  0  0  0
  187.2780  177.5200  143.7720 C   0  0  0  0  0  3  0  0  0  0  0  0
  190.0590  177.2610  144.3140 C   0  0  0  0  0  3  0  0  0  0  0  0
  189.5740  177.4880  143.0300 C   0  0  0  0  0  0  0  0  0  0  0  0
  190.9560  176.6800  146.9500 C   0  0  0  0  0  1  0  0  0  0  0  0
  189.5880  176.9380  146.6590 O   0  0  0  0  0  0  0  0  0  0  0  0
  193.2270  176.0230  138.5720 N   0  0  0  0  0  2  0  0  0  0  0  0
  194.2570  175.4320  137.7240 C   0  0  1  0  0  3  0  0  0  0  0  0
  195.3450  174.8880  138.5240 N   0  0  0  0  0  2  0  0  0  0  0  0
  196.1870  174.1150  137.6260 C   0  0  0  0  0  2  0  0  0  0  0  0
  197.4770  174.8300  137.3910 C   0  0  0  0  0  0  0  0  0  0  0  0
  197.5720  175.6450  136.4880 O   0  0  0  0  0  0  0  0  0  0  0  0
  198.7830  175.5750  139.2750 N   0  0  0  0  0  1  0  0  0  0  0  0
  198.6520  174.5400  138.2640 C   0  0  0  0  0  2  0  0  0  0  0  0
  193.7410  174.4770  136.8130 O   0  0  0  0  0  0  0  0  0  0  0  0
  194.9610  173.9770  134.3610 O   0  0  0  0  0  0  0  0  0  0  0  0
  194.5070  176.5930  135.1180 O   0  0  0  0  0  1  0  0  0  0  0  0
  193.9110  175.0100  135.1940 P   0  0  0  0  0  0  0  0  0  0  0  0
  192.5570  174.9680  134.5230 O   0  0  0  0  0  1  0  0  0  0  0  0
  1 14  1  1  0  0  0
  2  8  2  0  0  0  0
  3  4  2  0  0  0  0
  4  9  1  0  0  0  0
  5  7  1  0  0  0  0
  5  4  1  0  0  0  0
  6  7  1  0  0  0  0
  7 10  1  0  0  0  0
  8  1  1  0  0  0  0
  9 11  1  0  0  0  0
 10  9  2  0  0  0  0
 10  2  1  0  0  0  0
 11 13  2  0  0  0  0
 11  1  1  0  0  0  0
 12  2  1  0  0  0  0
 12 25  1  0  0  0  0
 14 16  1  0  0  0  0
 14 18  2  0  0  0  0
 15 19  1  0  0  0  0
 16 17  1  0  0  0  0
 17 22  2  0  0  0  0
 17 20  1  0  0  0  0
 18 22  1  0  0  0  0
 19 24  1  0  0  0  0
 20 15  2  0  0  0  0
 21 19  2  0  0  0  0
 22 21  1  0  0  0  0
 24 23  1  0  0  0  0
 26 33  1  1  0  0  0
 26 27  1  0  0  0  0
 26 25  1  0  0  0  0
 28 27  1  0  0  0  0
 29 28  1  0  0  0  0
 29 32  1  0  0  0  0
 30 29  2  0  0  0  0
 32 31  1  0  0  0  0
 34 36  2  0  0  0  0
 35 36  1  0  0  0  0
 36 33  1  0  0  0  0
 37 36  1  0  0  0  0
M  END
>  <MODEL>
9

>  <REMARK>
 VINA RESULT:      -6.9      4.397      5.888
  Name = 
  10 active torsions:
  status: ('A' for Active; 'I' for Inactive)
    1  A    between atoms: C_1  and  C_3
    2  A    between atoms: C_7  and  C_29
    3  A    between atoms: C_7  and  C_33
    4  A    between atoms: C_16  and  N_19
    5  A    between atoms: C_16  and  N_30
    6  A    between atoms: C_16  and  O_36
    7  A    between atoms: N_19  and  C_29
    8  A    between atoms: C_24  and  O_34
    9  A    between atoms: P_26  and  O_36
   10  A    between atoms: N_30  and  N_31
                            x       y       z     vdW  Elec       q    Type
                         _______ _______ _______ _____ _____    ______ ____

>  <TORSDO>
F 10

$$$$
