=
 OpenBabel10222421343D

 43 47  0  0  1  0  0  0  0  0999 V2000
  183.2770  178.7140  142.5140 C   0  0  0  0  0  2  0  0  0  0  0  0
  186.3290  178.4600  142.6600 C   0  0  0  0  0  2  0  0  0  0  0  0
  185.6400  179.0740  141.4310 C   0  0  2  0  0  3  0  0  0  0  0  0
  185.7970  178.5130  145.1510 N   0  0  0  0  0  0  0  0  0  0  0  0
  184.5290  178.5010  147.0700 O   0  0  0  0  0  0  0  0  0  0  0  0
  184.2010  178.6010  141.3210 C   0  0  0  0  0  0  0  0  0  0  0  0
  184.0640  178.6330  143.7860 C   0  0  0  0  0  0  0  0  0  0  0  0
  183.5850  178.6140  145.0080 O   0  0  0  0  0  0  0  0  0  0  0  0
  183.7680  178.1740  140.2650 O   0  0  0  0  0  0  0  0  0  0  0  0
  185.4380  178.5780  143.8550 C   0  0  0  0  0  0  0  0  0  0  0  0
  184.6230  178.5460  145.8140 C   0  0  0  0  0  0  0  0  0  0  0  0
  189.4350  177.9680  144.8580 C   0  0  0  0  0  2  0  0  0  0  0  0
  187.9970  177.4910  144.8620 C   0  0  0  0  0  2  0  0  0  0  0  0
  190.3630  176.9070  145.4500 C   0  0  2  0  0  3  0  0  0  0  0  0
  190.4900  176.9610  146.9810 C   0  0  2  0  0  3  0  0  0  0  0  0
  191.4040  176.0010  147.4090 O   0  0  0  0  0  1  0  0  0  0  0  0
  187.1390  178.4050  145.7220 C   0  0  2  0  0  3  0  0  0  0  0  0
  187.0590  177.9320  147.1710 C   0  0  0  0  0  2  0  0  0  0  0  0
  189.1600  176.7030  147.6700 C   0  0  0  0  0  2  0  0  0  0  0  0
  188.4030  178.0000  147.8720 C   0  0  0  0  0  2  0  0  0  0  0  0
  191.7250  177.9990  143.9680 C   0  0  0  0  0  1  0  0  0  0  0  0
  191.6120  176.8670  144.7910 O   0  0  0  0  0  0  0  0  0  0  0  0
  186.3700  178.7440  140.2860 O   0  0  0  0  0  0  0  0  0  0  0  0
  187.6620  178.4400  140.7360 C   0  0  0  0  0  2  0  0  0  0  0  0
  188.6470  178.3730  139.5710 C   0  0  0  0  0  2  0  0  0  0  0  0
  188.0010  178.6780  138.3700 O   0  0  0  0  0  0  0  0  0  0  0  0
  189.0200  178.7170  137.4160 C   0  0  0  0  0  2  0  0  0  0  0  0
  188.7760  177.6990  136.3020 C   0  0  2  0  0  3  0  0  0  0  0  0
  187.5380  177.9330  135.6930 O   0  0  0  0  0  0  0  0  0  0  0  0
  186.8640  176.7140  135.7730 C   0  0  0  0  0  2  0  0  0  0  0  0
  184.5190  175.8580  136.3610 C   0  0  2  0  0  3  0  0  0  0  0  0
  185.3050  174.7280  137.0210 C   0  0  0  0  0  1  0  0  0  0  0  0
  185.3660  176.9520  135.7030 C   0  0  1  0  0  3  0  0  0  0  0  0
  184.8060  177.1550  137.0900 C   0  0  0  0  0  2  0  0  0  0  0  0
  188.8080  176.2810  136.8510 C   0  0  0  0  0  2  0  0  0  0  0  0
  190.1290  175.6880  136.6510 N   0  0  0  0  0  0  0  0  0  0  0  0
  192.3980  176.9100  139.1760 O   0  0  0  0  0  1  0  0  0  0  0  0
  192.1640  174.9900  137.8070 C   0  0  0  0  0  2  0  0  0  0  0  0
  190.8050  175.6500  137.9440 C   0  0  1  0  0  3  0  0  0  0  0  0
  192.0680  176.4960  137.8860 C   0  0  1  0  0  3  0  0  0  0  0  0
  189.9760  174.3230  136.1250 C   0  0  0  0  0  2  0  0  0  0  0  0
  188.8390  173.5350  136.7870 C   0  0  0  0  0  2  0  0  0  0  0  0
  188.1730  172.6500  135.7590 C   0  0  0  0  0  1  0  0  0  0  0  0
  1  7  1  0  0  0  0
  2 10  1  0  0  0  0
  3 23  1  6  0  0  0
  3  2  1  0  0  0  0
  4 17  1  0  0  0  0
  4 11  1  0  0  0  0
  6  3  1  0  0  0  0
  6  1  1  0  0  0  0
  7 10  2  0  0  0  0
  7  8  1  0  0  0  0
  8 11  1  0  0  0  0
  9  6  2  0  0  0  0
 10  4  1  0  0  0  0
 11  5  2  0  0  0  0
 12 13  1  0  0  0  0
 12 14  1  0  0  0  0
 14 22  1  6  0  0  0
 14 15  1  0  0  0  0
 15 16  1  1  0  0  0
 15 19  1  0  0  0  0
 17 13  1  6  0  0  0
 17 18  1  0  0  0  0
 18 20  1  0  0  0  0
 19 20  1  0  0  0  0
 21 22  1  0  0  0  0
 23 24  1  0  0  0  0
 25 24  1  0  0  0  0
 26 25  1  0  0  0  0
 27 26  1  0  0  0  0
 28 35  1  1  0  0  0
 28 27  1  0  0  0  0
 29 30  1  0  0  0  0
 29 28  1  0  0  0  0
 31 32  1  1  0  0  0
 31 34  1  0  0  0  0
 33 30  1  1  0  0  0
 33 31  1  0  0  0  0
 33 34  1  0  0  0  0
 36 35  1  0  0  0  0
 38 40  1  0  0  0  0
 38 39  1  0  0  0  0
 39 36  1  6  0  0  0
 40 39  1  0  0  0  0
 40 37  1  1  0  0  0
 41 36  1  0  0  0  0
 41 42  1  0  0  0  0
 43 42  1  0  0  0  0
M  END
>  <MODEL>
1

>  <REMARK>
 VINA RESULT:      -8.2      0.000      0.000
  Name = 
  16 active torsions:
  status: ('A' for Active; 'I' for Inactive)
    1  A    between atoms: C_7  and  O_39
    2  A    between atoms: N_9  and  C_20
    3  A    between atoms: C_11  and  C_24
    4  A    between atoms: C_11  and  O_30
    5  A    between atoms: C_13  and  O_42
    6  A    between atoms: C_15  and  C_17
    7  A    between atoms: C_15  and  N_33
    8  A    between atoms: C_16  and  C_18
    9  A    between atoms: C_16  and  O_21
   10  A    between atoms: O_21  and  C_22
   11  A    between atoms: C_22  and  C_26
   12  A    between atoms: C_22  and  C_43
   13  A    between atoms: C_24  and  O_39
   14  A    between atoms: C_26  and  N_33
   15  A    between atoms: O_30  and  C_43
   16  A    between atoms: C_32  and  N_33
                            x       y       z     vdW  Elec       q    Type
                         _______ _______ _______ _____ _____    ______ ____

>  <TORSDO>
F 16

$$$$
=
 OpenBabel10222421343D

 43 47  0  0  1  0  0  0  0  0999 V2000
  183.3210  178.6830  142.4330 C   0  0  0  0  0  2  0  0  0  0  0  0
  186.3710  178.4440  142.6330 C   0  0  0  0  0  2  0  0  0  0  0  0
  185.7000  179.0450  141.3880 C   0  0  2  0  0  3  0  0  0  0  0  0
  185.7960  178.5150  145.1140 N   0  0  0  0  0  0  0  0  0  0  0  0
  184.4960  178.5140  147.0110 O   0  0  0  0  0  0  0  0  0  0  0  0
  184.2650  178.5650  141.2570 C   0  0  0  0  0  0  0  0  0  0  0  0
  184.0870  178.6170  143.7190 C   0  0  0  0  0  0  0  0  0  0  0  0
  183.5870  178.6060  144.9330 O   0  0  0  0  0  0  0  0  0  0  0  0
  183.8520  178.1270  140.1970 O   0  0  0  0  0  0  0  0  0  0  0  0
  185.4590  178.5680  143.8120 C   0  0  0  0  0  0  0  0  0  0  0  0
  184.6120  178.5490  145.7570 C   0  0  0  0  0  0  0  0  0  0  0  0
  189.4470  178.0320  144.8800 C   0  0  0  0  0  2  0  0  0  0  0  0
  188.0180  177.5320  144.8490 C   0  0  0  0  0  2  0  0  0  0  0  0
  190.3810  176.9750  145.4710 C   0  0  2  0  0  3  0  0  0  0  0  0
  190.4780  177.0040  147.0060 C   0  0  2  0  0  3  0  0  0  0  0  0
  191.3990  176.0500  147.4340 O   0  0  0  0  0  1  0  0  0  0  0  0
  187.1290  178.4190  145.7080 C   0  0  2  0  0  3  0  0  0  0  0  0
  187.0300  177.9180  147.1480 C   0  0  0  0  0  2  0  0  0  0  0  0
  189.1400  176.7130  147.6640 C   0  0  0  0  0  2  0  0  0  0  0  0
  188.3590  177.9950  147.8750 C   0  0  0  0  0  2  0  0  0  0  0  0
  191.7190  178.0670  143.9680 C   0  0  0  0  0  1  0  0  0  0  0  0
  191.6420  176.9650  144.8360 O   0  0  0  0  0  0  0  0  0  0  0  0
  186.4510  178.7080  140.2570 O   0  0  0  0  0  0  0  0  0  0  0  0
  187.7260  178.3780  140.7360 C   0  0  0  0  0  2  0  0  0  0  0  0
  188.7590  178.4090  139.6110 C   0  0  0  0  0  2  0  0  0  0  0  0
  188.1460  178.7320  138.3970 O   0  0  0  0  0  0  0  0  0  0  0  0
  189.1550  178.6010  137.4410 C   0  0  0  0  0  2  0  0  0  0  0  0
  189.3240  177.1430  137.0110 C   0  0  2  0  0  3  0  0  0  0  0  0
  190.6760  176.8560  136.7910 O   0  0  0  0  0  0  0  0  0  0  0  0
  191.0520  176.0560  137.8710 C   0  0  0  0  0  2  0  0  0  0  0  0
  193.4770  175.2240  137.8440 C   0  0  2  0  0  3  0  0  0  0  0  0
  192.8590  174.0340  137.1150 C   0  0  0  0  0  1  0  0  0  0  0  0
  192.4990  176.3360  138.2360 C   0  0  1  0  0  3  0  0  0  0  0  0
  193.3360  176.4630  136.9850 C   0  0  0  0  0  2  0  0  0  0  0  0
  188.5330  176.8590  135.7440 C   0  0  0  0  0  2  0  0  0  0  0  0
  187.7540  175.6320  135.8960 N   0  0  0  0  0  0  0  0  0  0  0  0
  184.5470  176.9100  136.9470 O   0  0  0  0  0  1  0  0  0  0  0  0
  185.4650  174.8470  136.2260 C   0  0  0  0  0  2  0  0  0  0  0  0
  186.3460  175.9700  135.7120 C   0  0  1  0  0  3  0  0  0  0  0  0
  185.6660  176.0860  137.0680 C   0  0  1  0  0  3  0  0  0  0  0  0
  188.1730  174.6580  134.8770 C   0  0  0  0  0  2  0  0  0  0  0  0
  189.2220  173.6600  135.3790 C   0  0  0  0  0  2  0  0  0  0  0  0
  188.9880  173.3760  136.8440 C   0  0  0  0  0  1  0  0  0  0  0  0
  1  7  1  0  0  0  0
  2 10  1  0  0  0  0
  3 23  1  6  0  0  0
  3  2  1  0  0  0  0
  4 17  1  0  0  0  0
  4 11  1  0  0  0  0
  6  3  1  0  0  0  0
  6  1  1  0  0  0  0
  7 10  2  0  0  0  0
  7  8  1  0  0  0  0
  8 11  1  0  0  0  0
  9  6  2  0  0  0  0
 10  4  1  0  0  0  0
 11  5  2  0  0  0  0
 12 14  1  0  0  0  0
 13 12  1  0  0  0  0
 14 22  1  6  0  0  0
 14 15  1  0  0  0  0
 15 16  1  1  0  0  0
 15 19  1  0  0  0  0
 17 13  1  6  0  0  0
 17 18  1  0  0  0  0
 18 20  1  0  0  0  0
 19 20  1  0  0  0  0
 21 22  1  0  0  0  0
 23 24  1  0  0  0  0
 25 24  1  0  0  0  0
 26 25  1  0  0  0  0
 27 26  1  0  0  0  0
 28 35  1  6  0  0  0
 28 27  1  0  0  0  0
 29 28  1  0  0  0  0
 29 30  1  0  0  0  0
 31 32  1  6  0  0  0
 31 33  1  0  0  0  0
 33 30  1  6  0  0  0
 34 31  1  0  0  0  0
 34 33  1  0  0  0  0
 35 36  1  0  0  0  0
 38 40  1  0  0  0  0
 39 36  1  1  0  0  0
 39 38  1  0  0  0  0
 39 40  1  0  0  0  0
 40 37  1  6  0  0  0
 41 42  1  0  0  0  0
 41 36  1  0  0  0  0
 42 43  1  0  0  0  0
M  END
>  <MODEL>
2

>  <REMARK>
 VINA RESULT:      -8.1      1.025      3.428
  Name = 
  16 active torsions:
  status: ('A' for Active; 'I' for Inactive)
    1  A    between atoms: C_7  and  O_39
    2  A    between atoms: N_9  and  C_20
    3  A    between atoms: C_11  and  C_24
    4  A    between atoms: C_11  and  O_30
    5  A    between atoms: C_13  and  O_42
    6  A    between atoms: C_15  and  C_17
    7  A    between atoms: C_15  and  N_33
    8  A    between atoms: C_16  and  C_18
    9  A    between atoms: C_16  and  O_21
   10  A    between atoms: O_21  and  C_22
   11  A    between atoms: C_22  and  C_26
   12  A    between atoms: C_22  and  C_43
   13  A    between atoms: C_24  and  O_39
   14  A    between atoms: C_26  and  N_33
   15  A    between atoms: O_30  and  C_43
   16  A    between atoms: C_32  and  N_33
                            x       y       z     vdW  Elec       q    Type
                         _______ _______ _______ _____ _____    ______ ____

>  <TORSDO>
F 16

$$$$
=
 OpenBabel10222421343D

 43 47  0  0  1  0  0  0  0  0999 V2000
  189.3930  177.1830  147.2050 C   0  0  0  0  0  2  0  0  0  0  0  0
  188.6050  177.8420  144.3170 C   0  0  0  0  0  2  0  0  0  0  0  0
  189.7460  176.8610  144.6250 C   0  0  2  0  0  3  0  0  0  0  0  0
  186.3930  178.3450  145.4770 N   0  0  0  0  0  0  0  0  0  0  0  0
  184.9060  178.6770  147.2000 O   0  0  0  0  0  0  0  0  0  0  0  0
  190.3180  177.1090  146.0100 C   0  0  0  0  0  0  0  0  0  0  0  0
  188.0420  177.6750  146.7830 C   0  0  0  0  0  0  0  0  0  0  0  0
  187.0210  177.9370  147.5650 O   0  0  0  0  0  0  0  0  0  0  0  0
  191.5220  177.2020  146.1770 O   0  0  0  0  0  0  0  0  0  0  0  0
  187.6680  177.9160  145.4810 C   0  0  0  0  0  0  0  0  0  0  0  0
  186.0420  178.3320  146.7790 C   0  0  0  0  0  0  0  0  0  0  0  0
  183.2010  179.4320  143.9770 C   0  0  0  0  0  2  0  0  0  0  0  0
  184.1170  178.3920  144.5880 C   0  0  0  0  0  2  0  0  0  0  0  0
  182.3080  178.8090  142.9040 C   0  0  2  0  0  3  0  0  0  0  0  0
  182.9480  178.7460  141.5070 C   0  0  2  0  0  3  0  0  0  0  0  0
  182.0320  178.2250  140.5960 O   0  0  0  0  0  1  0  0  0  0  0  0
  185.5720  178.7570  144.3380 C   0  0  2  0  0  3  0  0  0  0  0  0
  186.1110  178.1410  143.0490 C   0  0  0  0  0  2  0  0  0  0  0  0
  184.1920  177.8750  141.4930 C   0  0  0  0  0  2  0  0  0  0  0  0
  185.4240  178.6980  141.8160 C   0  0  0  0  0  2  0  0  0  0  0  0
  180.2830  178.8470  143.9730 C   0  0  0  0  0  1  0  0  0  0  0  0
  181.0130  179.3740  142.8960 O   0  0  0  0  0  0  0  0  0  0  0  0
  190.7320  176.9830  143.6410 O   0  0  0  0  0  0  0  0  0  0  0  0
  190.2830  176.2160  142.5590 C   0  0  0  0  0  2  0  0  0  0  0  0
  190.5970  176.9020  141.2320 C   0  0  0  0  0  2  0  0  0  0  0  0
  189.4760  177.5910  140.7620 O   0  0  0  0  0  0  0  0  0  0  0  0
  189.2280  177.0520  139.4970 C   0  0  0  0  0  2  0  0  0  0  0  0
  189.3800  178.1110  138.4060 C   0  0  2  0  0  3  0  0  0  0  0  0
  188.1960  178.8450  138.2730 O   0  0  0  0  0  0  0  0  0  0  0  0
  187.1770  177.8940  138.3470 C   0  0  0  0  0  2  0  0  0  0  0  0
  185.4170  177.1310  136.6440 C   0  0  2  0  0  3  0  0  0  0  0  0
  186.0080  175.7540  136.9370 C   0  0  0  0  0  1  0  0  0  0  0  0
  186.0360  178.2930  137.4270 C   0  0  1  0  0  3  0  0  0  0  0  0
  184.7460  177.6620  137.8940 C   0  0  0  0  0  2  0  0  0  0  0  0
  189.7270  177.4670  137.0730 C   0  0  0  0  0  2  0  0  0  0  0  0
  190.3280  176.1520  137.2850 N   0  0  0  0  0  0  0  0  0  0  0  0
  188.4150  173.1810  136.5580 O   0  0  0  0  0  1  0  0  0  0  0  0
  190.5720  174.0390  136.0840 C   0  0  0  0  0  2  0  0  0  0  0  0
  189.6520  175.2020  136.4060 C   0  0  1  0  0  3  0  0  0  0  0  0
  189.4870  173.8710  137.1220 C   0  0  1  0  0  3  0  0  0  0  0  0
  191.7600  176.2110  136.9540 C   0  0  0  0  0  2  0  0  0  0  0  0
  192.6740  176.2120  138.1850 C   0  0  0  0  0  2  0  0  0  0  0  0
  193.9370  175.4430  137.8760 C   0  0  0  0  0  1  0  0  0  0  0  0
  2  3  1  0  0  0  0
  2 10  1  0  0  0  0
  3 23  1  6  0  0  0
  3  6  1  0  0  0  0
  4 10  1  0  0  0  0
  4 11  1  0  0  0  0
  6  9  2  0  0  0  0
  6  1  1  0  0  0  0
  7  1  1  0  0  0  0
  7  8  1  0  0  0  0
 10  7  2  0  0  0  0
 11  5  2  0  0  0  0
 11  8  1  0  0  0  0
 12 13  1  0  0  0  0
 14 22  1  6  0  0  0
 14 12  1  0  0  0  0
 15 16  1  6  0  0  0
 15 14  1  0  0  0  0
 17 18  1  6  0  0  0
 17 13  1  0  0  0  0
 17  4  1  0  0  0  0
 19 15  1  0  0  0  0
 19 20  1  0  0  0  0
 20 18  1  0  0  0  0
 22 21  1  0  0  0  0
 24 23  1  0  0  0  0
 25 24  1  0  0  0  0
 26 25  1  0  0  0  0
 27 26  1  0  0  0  0
 28 35  1  6  0  0  0
 28 27  1  0  0  0  0
 29 30  1  0  0  0  0
 29 28  1  0  0  0  0
 31 32  1  1  0  0  0
 31 33  1  0  0  0  0
 31 34  1  0  0  0  0
 33 34  1  0  0  0  0
 33 30  1  1  0  0  0
 35 36  1  0  0  0  0
 38 39  1  0  0  0  0
 38 40  1  0  0  0  0
 39 40  1  0  0  0  0
 39 36  1  1  0  0  0
 40 37  1  6  0  0  0
 41 36  1  0  0  0  0
 41 42  1  0  0  0  0
 43 42  1  0  0  0  0
M  END
>  <MODEL>
3

>  <REMARK>
 VINA RESULT:      -8.0      1.677      5.519
  Name = 
  16 active torsions:
  status: ('A' for Active; 'I' for Inactive)
    1  A    between atoms: C_7  and  O_39
    2  A    between atoms: N_9  and  C_20
    3  A    between atoms: C_11  and  C_24
    4  A    between atoms: C_11  and  O_30
    5  A    between atoms: C_13  and  O_42
    6  A    between atoms: C_15  and  C_17
    7  A    between atoms: C_15  and  N_33
    8  A    between atoms: C_16  and  C_18
    9  A    between atoms: C_16  and  O_21
   10  A    between atoms: O_21  and  C_22
   11  A    between atoms: C_22  and  C_26
   12  A    between atoms: C_22  and  C_43
   13  A    between atoms: C_24  and  O_39
   14  A    between atoms: C_26  and  N_33
   15  A    between atoms: O_30  and  C_43
   16  A    between atoms: C_32  and  N_33
                            x       y       z     vdW  Elec       q    Type
                         _______ _______ _______ _____ _____    ______ ____

>  <TORSDO>
F 16

$$$$
=
 OpenBabel10222421343D

 43 47  0  0  1  0  0  0  0  0999 V2000
  182.5400  179.4030  144.1010 C   0  0  0  0  0  2  0  0  0  0  0  0
  184.7910  177.9370  142.6250 C   0  0  0  0  0  2  0  0  0  0  0  0
  183.8320  178.8770  141.8780 C   0  0  2  0  0  3  0  0  0  0  0  0
  185.7940  177.9880  144.9660 N   0  0  0  0  0  0  0  0  0  0  0  0
  185.9090  178.3220  147.2380 O   0  0  0  0  0  0  0  0  0  0  0  0
  182.5230  179.0320  142.6350 C   0  0  0  0  0  0  0  0  0  0  0  0
  183.7980  178.9070  144.7460 C   0  0  0  0  0  0  0  0  0  0  0  0
  184.1110  178.9780  146.0190 O   0  0  0  0  0  0  0  0  0  0  0  0
  181.4560  178.9050  142.0590 O   0  0  0  0  0  0  0  0  0  0  0  0
  184.8350  178.3000  144.0740 C   0  0  0  0  0  0  0  0  0  0  0  0
  185.3020  178.4320  146.1400 C   0  0  0  0  0  0  0  0  0  0  0  0
  189.2280  177.0640  145.9520 C   0  0  0  0  0  2  0  0  0  0  0  0
  188.1890  178.0430  145.4470 C   0  0  0  0  0  2  0  0  0  0  0  0
  190.5860  177.3270  145.3010 C   0  0  2  0  0  3  0  0  0  0  0  0
  190.7840  176.6320  143.9440 C   0  0  2  0  0  3  0  0  0  0  0  0
  192.0710  176.8830  143.4740 O   0  0  0  0  0  1  0  0  0  0  0  0
  187.0660  177.3040  144.7360 C   0  0  2  0  0  3  0  0  0  0  0  0
  187.3240  177.1610  143.2370 C   0  0  0  0  0  2  0  0  0  0  0  0
  189.7870  177.1200  142.9070 C   0  0  0  0  0  2  0  0  0  0  0  0
  188.5250  176.2810  142.9440 C   0  0  0  0  0  2  0  0  0  0  0  0
  191.1320  176.9120  147.4870 C   0  0  0  0  0  1  0  0  0  0  0  0
  191.6560  177.1070  146.1980 O   0  0  0  0  0  0  0  0  0  0  0  0
  183.6160  178.3810  140.5890 O   0  0  0  0  0  0  0  0  0  0  0  0
  184.4540  179.1290  139.7520 C   0  0  0  0  0  2  0  0  0  0  0  0
  184.8960  178.3060  138.5430 C   0  0  0  0  0  2  0  0  0  0  0  0
  186.2730  178.4350  138.3450 O   0  0  0  0  0  0  0  0  0  0  0  0
  186.4690  178.1490  136.9920 C   0  0  0  0  0  2  0  0  0  0  0  0
  187.3720  176.9300  136.8090 C   0  0  2  0  0  3  0  0  0  0  0  0
  188.6940  177.3340  136.5890 O   0  0  0  0  0  0  0  0  0  0  0  0
  189.4740  176.3440  137.1880 C   0  0  0  0  0  2  0  0  0  0  0  0
  190.7560  176.5580  139.3990 C   0  0  2  0  0  3  0  0  0  0  0  0
  191.9710  176.5370  138.4760 C   0  0  0  0  0  1  0  0  0  0  0  0
  189.3960  176.4770  138.6990 C   0  0  1  0  0  3  0  0  0  0  0  0
  189.9510  177.8130  139.1340 C   0  0  0  0  0  2  0  0  0  0  0  0
  186.9020  176.0800  135.6380 C   0  0  0  0  0  2  0  0  0  0  0  0
  186.3420  174.8190  136.1180 N   0  0  0  0  0  0  0  0  0  0  0  0
  183.3270  174.9790  138.0940 O   0  0  0  0  0  1  0  0  0  0  0  0
  184.1930  173.6760  136.3140 C   0  0  0  0  0  2  0  0  0  0  0  0
  184.9100  175.0130  136.3230 C   0  0  1  0  0  3  0  0  0  0  0  0
  184.4870  174.3590  137.6290 C   0  0  1  0  0  3  0  0  0  0  0  0
  186.5670  173.7700  135.1110 C   0  0  0  0  0  2  0  0  0  0  0  0
  187.7130  172.8160  135.4670 C   0  0  0  0  0  2  0  0  0  0  0  0
  187.9060  172.7960  136.9660 C   0  0  0  0  0  1  0  0  0  0  0  0
  1  7  1  0  0  0  0
  2 10  1  0  0  0  0
  3 23  1  6  0  0  0
  3  2  1  0  0  0  0
  3  6  1  0  0  0  0
  4 11  1  0  0  0  0
  6  1  1  0  0  0  0
  7  8  1  0  0  0  0
  8 11  1  0  0  0  0
  9  6  2  0  0  0  0
 10  7  2  0  0  0  0
 10  4  1  0  0  0  0
 11  5  2  0  0  0  0
 13 12  1  0  0  0  0
 14 12  1  0  0  0  0
 14 22  1  1  0  0  0
 15 16  1  6  0  0  0
 15 14  1  0  0  0  0
 17 18  1  6  0  0  0
 17  4  1  0  0  0  0
 17 13  1  0  0  0  0
 19 20  1  0  0  0  0
 19 15  1  0  0  0  0
 20 18  1  0  0  0  0
 22 21  1  0  0  0  0
 24 23  1  0  0  0  0
 25 24  1  0  0  0  0
 26 25  1  0  0  0  0
 27 26  1  0  0  0  0
 28 35  1  6  0  0  0
 28 27  1  0  0  0  0
 29 28  1  0  0  0  0
 29 30  1  0  0  0  0
 31 32  1  6  0  0  0
 33 30  1  6  0  0  0
 33 34  1  0  0  0  0
 33 31  1  0  0  0  0
 34 31  1  0  0  0  0
 35 36  1  0  0  0  0
 38 39  1  0  0  0  0
 38 40  1  0  0  0  0
 39 36  1  1  0  0  0
 39 40  1  0  0  0  0
 40 37  1  6  0  0  0
 41 42  1  0  0  0  0
 41 36  1  0  0  0  0
 42 43  1  0  0  0  0
M  END
>  <MODEL>
4

>  <REMARK>
 VINA RESULT:      -7.9      1.674      3.889
  Name = 
  16 active torsions:
  status: ('A' for Active; 'I' for Inactive)
    1  A    between atoms: C_7  and  O_39
    2  A    between atoms: N_9  and  C_20
    3  A    between atoms: C_11  and  C_24
    4  A    between atoms: C_11  and  O_30
    5  A    between atoms: C_13  and  O_42
    6  A    between atoms: C_15  and  C_17
    7  A    between atoms: C_15  and  N_33
    8  A    between atoms: C_16  and  C_18
    9  A    between atoms: C_16  and  O_21
   10  A    between atoms: O_21  and  C_22
   11  A    between atoms: C_22  and  C_26
   12  A    between atoms: C_22  and  C_43
   13  A    between atoms: C_24  and  O_39
   14  A    between atoms: C_26  and  N_33
   15  A    between atoms: O_30  and  C_43
   16  A    between atoms: C_32  and  N_33
                            x       y       z     vdW  Elec       q    Type
                         _______ _______ _______ _____ _____    ______ ____

>  <TORSDO>
F 16

$$$$
=
 OpenBabel10222421343D

 43 47  0  0  1  0  0  0  0  0999 V2000
  183.2700  178.8380  142.9460 C   0  0  0  0  0  2  0  0  0  0  0  0
  186.3150  178.4890  142.8700 C   0  0  0  0  0  2  0  0  0  0  0  0
  185.5580  179.1250  141.6930 C   0  0  2  0  0  3  0  0  0  0  0  0
  185.9680  178.5560  145.3920 N   0  0  0  0  0  0  0  0  0  0  0  0
  184.8440  178.5830  147.3990 O   0  0  0  0  0  0  0  0  0  0  0  0
  184.1000  178.6970  141.6890 C   0  0  0  0  0  0  0  0  0  0  0  0
  184.1450  178.7320  144.1580 C   0  0  0  0  0  0  0  0  0  0  0  0
  183.7560  178.7270  145.4110 O   0  0  0  0  0  0  0  0  0  0  0  0
  183.5780  178.2850  140.6680 O   0  0  0  0  0  0  0  0  0  0  0  0
  185.5170  178.6330  144.1260 C   0  0  0  0  0  0  0  0  0  0  0  0
  184.8480  178.6260  146.1400 C   0  0  0  0  0  0  0  0  0  0  0  0
  189.5640  177.9510  144.8280 C   0  0  0  0  0  2  0  0  0  0  0  0
  188.1210  177.5020  144.9210 C   0  0  0  0  0  2  0  0  0  0  0  0
  190.5090  176.8560  145.3240 C   0  0  2  0  0  3  0  0  0  0  0  0
  190.7440  176.8620  146.8430 C   0  0  2  0  0  3  0  0  0  0  0  0
  191.6660  175.8730  147.1780 O   0  0  0  0  0  1  0  0  0  0  0  0
  187.3450  178.4070  145.8640 C   0  0  2  0  0  3  0  0  0  0  0  0
  187.3560  177.8920  147.3020 C   0  0  0  0  0  2  0  0  0  0  0  0
  189.4610  176.6090  147.6160 C   0  0  0  0  0  2  0  0  0  0  0  0
  188.7470  177.9140  147.9080 C   0  0  0  0  0  2  0  0  0  0  0  0
  191.5630  177.6230  143.4400 C   0  0  0  0  0  1  0  0  0  0  0  0
  191.7080  176.8110  144.5770 O   0  0  0  0  0  0  0  0  0  0  0  0
  186.1920  178.7730  140.4980 O   0  0  0  0  0  0  0  0  0  0  0  0
  187.4020  178.1750  140.8750 C   0  0  0  0  0  2  0  0  0  0  0  0
  188.5280  178.5680  139.9200 C   0  0  0  0  0  2  0  0  0  0  0  0
  188.1110  178.4300  138.5940 O   0  0  0  0  0  0  0  0  0  0  0  0
  189.2870  178.4770  137.8420 C   0  0  0  0  0  2  0  0  0  0  0  0
  189.4840  177.1900  137.0410 C   0  0  2  0  0  3  0  0  0  0  0  0
  190.8460  176.9590  136.8210 O   0  0  0  0  0  0  0  0  0  0  0  0
  191.3060  176.3830  138.0060 C   0  0  0  0  0  2  0  0  0  0  0  0
  193.6360  175.3260  137.8190 C   0  0  2  0  0  3  0  0  0  0  0  0
  192.8340  174.0930  137.4090 C   0  0  0  0  0  1  0  0  0  0  0  0
  192.8080  176.5790  138.1210 C   0  0  1  0  0  3  0  0  0  0  0  0
  193.4600  176.4050  136.7700 C   0  0  0  0  0  2  0  0  0  0  0  0
  188.7620  177.2700  135.7050 C   0  0  0  0  0  2  0  0  0  0  0  0
  188.1070  175.9990  135.4050 N   0  0  0  0  0  0  0  0  0  0  0  0
  189.4440  173.2880  137.3740 O   0  0  0  0  0  1  0  0  0  0  0  0
  187.3670  173.9000  136.4100 C   0  0  0  0  0  2  0  0  0  0  0  0
  188.2010  175.1550  136.5910 C   0  0  1  0  0  3  0  0  0  0  0  0
  188.8660  173.8360  136.2290 C   0  0  1  0  0  3  0  0  0  0  0  0
  186.6940  176.2450  135.0750 C   0  0  0  0  0  2  0  0  0  0  0  0
  186.0770  177.4100  135.8570 C   0  0  0  0  0  2  0  0  0  0  0  0
  184.7860  176.9590  136.5000 C   0  0  0  0  0  1  0  0  0  0  0  0
  1  7  1  0  0  0  0
  2 10  1  0  0  0  0
  3 23  1  6  0  0  0
  3  2  1  0  0  0  0
  4 17  1  0  0  0  0
  4 11  1  0  0  0  0
  6  3  1  0  0  0  0
  6  1  1  0  0  0  0
  7  8  1  0  0  0  0
  8 11  1  0  0  0  0
  9  6  2  0  0  0  0
 10  7  2  0  0  0  0
 10  4  1  0  0  0  0
 11  5  2  0  0  0  0
 12 13  1  0  0  0  0
 12 14  1  0  0  0  0
 14 22  1  6  0  0  0
 14 15  1  0  0  0  0
 15 16  1  6  0  0  0
 15 19  1  0  0  0  0
 17 13  1  6  0  0  0
 17 18  1  0  0  0  0
 18 20  1  0  0  0  0
 19 20  1  0  0  0  0
 21 22  1  0  0  0  0
 23 24  1  0  0  0  0
 25 24  1  0  0  0  0
 26 25  1  0  0  0  0
 27 26  1  0  0  0  0
 28 35  1  6  0  0  0
 28 27  1  0  0  0  0
 29 28  1  0  0  0  0
 29 30  1  0  0  0  0
 31 32  1  6  0  0  0
 31 33  1  0  0  0  0
 33 30  1  6  0  0  0
 34 31  1  0  0  0  0
 34 33  1  0  0  0  0
 36 35  1  0  0  0  0
 38 39  1  0  0  0  0
 39 36  1  6  0  0  0
 40 38  1  0  0  0  0
 40 39  1  0  0  0  0
 40 37  1  1  0  0  0
 41 36  1  0  0  0  0
 41 42  1  0  0  0  0
 42 43  1  0  0  0  0
M  END
>  <MODEL>
5

>  <REMARK>
 VINA RESULT:      -7.9      1.169      3.343
  Name = 
  16 active torsions:
  status: ('A' for Active; 'I' for Inactive)
    1  A    between atoms: C_7  and  O_39
    2  A    between atoms: N_9  and  C_20
    3  A    between atoms: C_11  and  C_24
    4  A    between atoms: C_11  and  O_30
    5  A    between atoms: C_13  and  O_42
    6  A    between atoms: C_15  and  C_17
    7  A    between atoms: C_15  and  N_33
    8  A    between atoms: C_16  and  C_18
    9  A    between atoms: C_16  and  O_21
   10  A    between atoms: O_21  and  C_22
   11  A    between atoms: C_22  and  C_26
   12  A    between atoms: C_22  and  C_43
   13  A    between atoms: C_24  and  O_39
   14  A    between atoms: C_26  and  N_33
   15  A    between atoms: O_30  and  C_43
   16  A    between atoms: C_32  and  N_33
                            x       y       z     vdW  Elec       q    Type
                         _______ _______ _______ _____ _____    ______ ____

>  <TORSDO>
F 16

$$$$
=
 OpenBabel10222421343D

 43 47  0  0  1  0  0  0  0  0999 V2000
  189.5000  177.1070  147.0800 C   0  0  0  0  0  2  0  0  0  0  0  0
  188.5760  177.7760  144.2350 C   0  0  0  0  0  2  0  0  0  0  0  0
  189.7060  176.7650  144.4870 C   0  0  2  0  0  3  0  0  0  0  0  0
  186.4440  178.3450  145.5090 N   0  0  0  0  0  0  0  0  0  0  0  0
  185.0620  178.7240  147.3070 O   0  0  0  0  0  0  0  0  0  0  0  0
  190.3570  177.0030  145.8380 C   0  0  0  0  0  0  0  0  0  0  0  0
  188.1420  177.6340  146.7290 C   0  0  0  0  0  0  0  0  0  0  0  0
  187.1720  177.9280  147.5620 O   0  0  0  0  0  0  0  0  0  0  0  0
  191.5700  177.0630  145.9400 O   0  0  0  0  0  0  0  0  0  0  0  0
  187.7060  177.8800  145.4470 C   0  0  0  0  0  0  0  0  0  0  0  0
  186.1640  178.3470  146.8270 C   0  0  0  0  0  0  0  0  0  0  0  0
  183.2010  179.4930  144.1730 C   0  0  0  0  0  2  0  0  0  0  0  0
  184.1280  178.4350  144.7350 C   0  0  0  0  0  2  0  0  0  0  0  0
  182.2460  178.8890  143.1440 C   0  0  2  0  0  3  0  0  0  0  0  0
  182.8140  178.8200  141.7170 C   0  0  2  0  0  3  0  0  0  0  0  0
  181.8440  178.3180  140.8510 O   0  0  0  0  0  1  0  0  0  0  0  0
  185.5750  178.7750  144.4130 C   0  0  2  0  0  3  0  0  0  0  0  0
  186.0380  178.1540  143.0980 C   0  0  0  0  0  2  0  0  0  0  0  0
  184.0400  177.9270  141.6380 C   0  0  0  0  0  2  0  0  0  0  0  0
  185.3010  178.7260  141.9020 C   0  0  0  0  0  2  0  0  0  0  0  0
  180.1270  178.6640  143.9840 C   0  0  0  0  0  1  0  0  0  0  0  0
  180.9620  179.4780  143.2020 O   0  0  0  0  0  0  0  0  0  0  0  0
  190.6400  176.8570  143.4510 O   0  0  0  0  0  0  0  0  0  0  0  0
  190.0860  177.7460  142.5210 C   0  0  0  0  0  2  0  0  0  0  0  0
  190.4650  177.3530  141.0950 C   0  0  0  0  0  2  0  0  0  0  0  0
  189.3210  177.2570  140.2970 O   0  0  0  0  0  0  0  0  0  0  0  0
  189.6180  178.0030  139.1540 C   0  0  0  0  0  2  0  0  0  0  0  0
  189.6570  177.1170  137.9100 C   0  0  2  0  0  3  0  0  0  0  0  0
  190.9610  177.0440  137.4060 O   0  0  0  0  0  0  0  0  0  0  0  0
  191.4520  175.8200  137.8630 C   0  0  0  0  0  2  0  0  0  0  0  0
  193.7420  174.7390  137.4600 C   0  0  2  0  0  3  0  0  0  0  0  0
  192.9050  173.6880  136.7340 C   0  0  0  0  0  1  0  0  0  0  0  0
  192.9560  175.9110  138.0540 C   0  0  1  0  0  3  0  0  0  0  0  0
  193.6420  176.0550  136.7160 C   0  0  0  0  0  2  0  0  0  0  0  0
  188.7290  177.6570  136.8330 C   0  0  0  0  0  2  0  0  0  0  0  0
  187.4510  176.9480  136.8610 N   0  0  0  0  0  0  0  0  0  0  0  0
  185.1910  179.2550  138.4690 O   0  0  0  0  0  1  0  0  0  0  0  0
  185.0510  177.2790  137.1680 C   0  0  0  0  0  2  0  0  0  0  0  0
  186.3850  177.9450  136.8880 C   0  0  1  0  0  3  0  0  0  0  0  0
  185.7740  178.0020  138.2800 C   0  0  1  0  0  3  0  0  0  0  0  0
  187.3280  176.1150  135.6540 C   0  0  0  0  0  2  0  0  0  0  0  0
  188.5790  176.1350  134.7670 C   0  0  0  0  0  2  0  0  0  0  0  0
  189.2270  174.7700  134.7780 C   0  0  0  0  0  1  0  0  0  0  0  0
  2  3  1  0  0  0  0
  2 10  1  0  0  0  0
  3 23  1  6  0  0  0
  3  6  1  0  0  0  0
  4 11  1  0  0  0  0
  6  9  2  0  0  0  0
  6  1  1  0  0  0  0
  7  1  1  0  0  0  0
  7  8  1  0  0  0  0
 10  4  1  0  0  0  0
 10  7  2  0  0  0  0
 11  5  2  0  0  0  0
 11  8  1  0  0  0  0
 12 13  1  0  0  0  0
 14 22  1  6  0  0  0
 14 12  1  0  0  0  0
 15 16  1  6  0  0  0
 15 14  1  0  0  0  0
 17 18  1  6  0  0  0
 17 13  1  0  0  0  0
 17  4  1  0  0  0  0
 19 15  1  0  0  0  0
 19 20  1  0  0  0  0
 20 18  1  0  0  0  0
 22 21  1  0  0  0  0
 24 23  1  0  0  0  0
 25 24  1  0  0  0  0
 26 25  1  0  0  0  0
 27 26  1  0  0  0  0
 28 35  1  6  0  0  0
 28 27  1  0  0  0  0
 29 30  1  0  0  0  0
 29 28  1  0  0  0  0
 31 32  1  6  0  0  0
 31 33  1  0  0  0  0
 33 30  1  6  0  0  0
 34 31  1  0  0  0  0
 34 33  1  0  0  0  0
 35 36  1  0  0  0  0
 38 40  1  0  0  0  0
 39 36  1  1  0  0  0
 39 38  1  0  0  0  0
 39 40  1  0  0  0  0
 40 37  1  6  0  0  0
 41 36  1  0  0  0  0
 42 43  1  0  0  0  0
 42 41  1  0  0  0  0
M  END
>  <MODEL>
6

>  <REMARK>
 VINA RESULT:      -7.8      1.669      6.256
  Name = 
  16 active torsions:
  status: ('A' for Active; 'I' for Inactive)
    1  A    between atoms: C_7  and  O_39
    2  A    between atoms: N_9  and  C_20
    3  A    between atoms: C_11  and  C_24
    4  A    between atoms: C_11  and  O_30
    5  A    between atoms: C_13  and  O_42
    6  A    between atoms: C_15  and  C_17
    7  A    between atoms: C_15  and  N_33
    8  A    between atoms: C_16  and  C_18
    9  A    between atoms: C_16  and  O_21
   10  A    between atoms: O_21  and  C_22
   11  A    between atoms: C_22  and  C_26
   12  A    between atoms: C_22  and  C_43
   13  A    between atoms: C_24  and  O_39
   14  A    between atoms: C_26  and  N_33
   15  A    between atoms: O_30  and  C_43
   16  A    between atoms: C_32  and  N_33
                            x       y       z     vdW  Elec       q    Type
                         _______ _______ _______ _____ _____    ______ ____

>  <TORSDO>
F 16

$$$$
=
 OpenBabel10222421343D

 43 47  0  0  1  0  0  0  0  0999 V2000
  189.6030  177.1340  147.2090 C   0  0  0  0  0  2  0  0  0  0  0  0
  188.7240  177.7620  144.3400 C   0  0  0  0  0  2  0  0  0  0  0  0
  189.8500  176.7560  144.6240 C   0  0  2  0  0  3  0  0  0  0  0  0
  186.5710  178.3440  145.5710 N   0  0  0  0  0  0  0  0  0  0  0  0
  185.1590  178.7450  147.3420 O   0  0  0  0  0  0  0  0  0  0  0  0
  190.4800  177.0140  145.9820 C   0  0  0  0  0  0  0  0  0  0  0  0
  188.2500  177.6540  146.8280 C   0  0  0  0  0  0  0  0  0  0  0  0
  187.2660  177.9570  147.6420 O   0  0  0  0  0  0  0  0  0  0  0  0
  191.6910  177.0790  146.1020 O   0  0  0  0  0  0  0  0  0  0  0  0
  187.8340  177.8810  145.5360 C   0  0  0  0  0  0  0  0  0  0  0  0
  186.2690  178.3640  146.8850 C   0  0  0  0  0  0  0  0  0  0  0  0
  183.3580  179.5030  144.1740 C   0  0  0  0  0  2  0  0  0  0  0  0
  184.2630  178.4470  144.7730 C   0  0  0  0  0  2  0  0  0  0  0  0
  182.4030  178.8860  143.1520 C   0  0  2  0  0  3  0  0  0  0  0  0
  182.9830  178.7680  141.7330 C   0  0  2  0  0  3  0  0  0  0  0  0
  182.0130  178.2570  140.8730 O   0  0  0  0  0  1  0  0  0  0  0  0
  185.7180  178.7570  144.4560 C   0  0  2  0  0  3  0  0  0  0  0  0
  186.1840  178.0920  143.1630 C   0  0  0  0  0  2  0  0  0  0  0  0
  184.1960  177.8550  141.6910 C   0  0  0  0  0  2  0  0  0  0  0  0
  185.4660  178.6430  141.9450 C   0  0  0  0  0  2  0  0  0  0  0  0
  180.2660  178.7010  143.9560 C   0  0  0  0  0  1  0  0  0  0  0  0
  181.1280  179.4950  143.1820 O   0  0  0  0  0  0  0  0  0  0  0  0
  190.8010  176.8350  143.6020 O   0  0  0  0  0  0  0  0  0  0  0  0
  190.1730  176.3180  142.4620 C   0  0  0  0  0  2  0  0  0  0  0  0
  190.6540  177.0310  141.2000 C   0  0  0  0  0  2  0  0  0  0  0  0
  190.4900  176.2070  140.0830 O   0  0  0  0  0  0  0  0  0  0  0  0
  189.7610  176.9770  139.1740 C   0  0  0  0  0  2  0  0  0  0  0  0
  190.4990  177.1040  137.8410 C   0  0  2  0  0  3  0  0  0  0  0  0
  189.7020  177.7770  136.9080 O   0  0  0  0  0  0  0  0  0  0  0  0
  188.3890  177.4850  137.2830 C   0  0  0  0  0  2  0  0  0  0  0  0
  186.8150  175.9720  135.9380 C   0  0  2  0  0  3  0  0  0  0  0  0
  187.0470  175.0160  137.1060 C   0  0  0  0  0  1  0  0  0  0  0  0
  187.5260  177.3240  136.0440 C   0  0  1  0  0  3  0  0  0  0  0  0
  186.0730  177.1950  136.4360 C   0  0  0  0  0  2  0  0  0  0  0  0
  190.8690  175.7340  137.2950 C   0  0  0  0  0  2  0  0  0  0  0  0
  191.5050  175.8630  135.9860 N   0  0  0  0  0  0  0  0  0  0  0  0
  195.0070  175.7300  136.8420 O   0  0  0  0  0  1  0  0  0  0  0  0
  193.6750  175.6590  134.8840 C   0  0  0  0  0  2  0  0  0  0  0  0
  192.8200  175.2330  136.0620 C   0  0  1  0  0  3  0  0  0  0  0  0
  193.8890  176.3010  136.2350 C   0  0  1  0  0  3  0  0  0  0  0  0
  190.6810  175.1830  134.9740 C   0  0  0  0  0  2  0  0  0  0  0  0
  190.0530  173.8770  135.4730 C   0  0  0  0  0  2  0  0  0  0  0  0
  189.2380  173.2530  134.3640 C   0  0  0  0  0  1  0  0  0  0  0  0
  2  3  1  0  0  0  0
  2 10  1  0  0  0  0
  3 23  1  6  0  0  0
  3  6  1  0  0  0  0
  4 11  1  0  0  0  0
  6  9  2  0  0  0  0
  6  1  1  0  0  0  0
  7  1  1  0  0  0  0
  7  8  1  0  0  0  0
 10  4  1  0  0  0  0
 10  7  2  0  0  0  0
 11  5  2  0  0  0  0
 11  8  1  0  0  0  0
 12 13  1  0  0  0  0
 14 22  1  6  0  0  0
 14 12  1  0  0  0  0
 15 16  1  6  0  0  0
 15 14  1  0  0  0  0
 17 18  1  6  0  0  0
 17 13  1  0  0  0  0
 17  4  1  0  0  0  0
 19 15  1  0  0  0  0
 19 20  1  0  0  0  0
 20 18  1  0  0  0  0
 22 21  1  0  0  0  0
 24 23  1  0  0  0  0
 25 24  1  0  0  0  0
 26 25  1  0  0  0  0
 27 26  1  0  0  0  0
 28 35  1  6  0  0  0
 28 27  1  0  0  0  0
 29 30  1  0  0  0  0
 29 28  1  0  0  0  0
 31 33  1  0  0  0  0
 31 34  1  0  0  0  0
 31 32  1  1  0  0  0
 33 34  1  0  0  0  0
 33 30  1  1  0  0  0
 36 35  1  0  0  0  0
 38 39  1  0  0  0  0
 38 40  1  0  0  0  0
 39 36  1  6  0  0  0
 39 40  1  0  0  0  0
 40 37  1  1  0  0  0
 41 42  1  0  0  0  0
 41 36  1  0  0  0  0
 43 42  1  0  0  0  0
M  END
>  <MODEL>
7

>  <REMARK>
 VINA RESULT:      -7.6      1.759      5.339
  Name = 
  16 active torsions:
  status: ('A' for Active; 'I' for Inactive)
    1  A    between atoms: C_7  and  O_39
    2  A    between atoms: N_9  and  C_20
    3  A    between atoms: C_11  and  C_24
    4  A    between atoms: C_11  and  O_30
    5  A    between atoms: C_13  and  O_42
    6  A    between atoms: C_15  and  C_17
    7  A    between atoms: C_15  and  N_33
    8  A    between atoms: C_16  and  C_18
    9  A    between atoms: C_16  and  O_21
   10  A    between atoms: O_21  and  C_22
   11  A    between atoms: C_22  and  C_26
   12  A    between atoms: C_22  and  C_43
   13  A    between atoms: C_24  and  O_39
   14  A    between atoms: C_26  and  N_33
   15  A    between atoms: O_30  and  C_43
   16  A    between atoms: C_32  and  N_33
                            x       y       z     vdW  Elec       q    Type
                         _______ _______ _______ _____ _____    ______ ____

>  <TORSDO>
F 16

$$$$
=
 OpenBabel10222421343D

 43 47  0  0  1  0  0  0  0  0999 V2000
  183.0500  178.7410  143.6290 C   0  0  0  0  0  2  0  0  0  0  0  0
  186.0540  178.3110  143.1930 C   0  0  0  0  0  2  0  0  0  0  0  0
  185.1620  178.8750  142.0770 C   0  0  2  0  0  3  0  0  0  0  0  0
  186.0360  178.5790  145.7270 N   0  0  0  0  0  0  0  0  0  0  0  0
  185.1800  178.7860  147.8520 O   0  0  0  0  0  0  0  0  0  0  0  0
  183.7090  178.4850  142.2920 C   0  0  0  0  0  0  0  0  0  0  0  0
  184.0720  178.7060  144.7240 C   0  0  0  0  0  0  0  0  0  0  0  0
  183.8480  178.8060  146.0140 O   0  0  0  0  0  0  0  0  0  0  0  0
  183.0530  178.0090  141.3810 O   0  0  0  0  0  0  0  0  0  0  0  0
  185.4270  178.5710  144.5260 C   0  0  0  0  0  0  0  0  0  0  0  0
  185.0230  178.7330  146.6030 C   0  0  0  0  0  0  0  0  0  0  0  0
  189.5500  178.0580  144.7260 C   0  0  0  0  0  2  0  0  0  0  0  0
  188.1320  177.5810  144.9630 C   0  0  0  0  0  2  0  0  0  0  0  0
  190.5570  176.9570  145.0590 C   0  0  2  0  0  3  0  0  0  0  0  0
  190.9660  176.9010  146.5400 C   0  0  2  0  0  3  0  0  0  0  0  0
  191.9310  175.9120  146.7210 O   0  0  0  0  0  1  0  0  0  0  0  0
  187.4600  178.4310  146.0300 C   0  0  2  0  0  3  0  0  0  0  0  0
  187.6430  177.8540  147.4320 C   0  0  0  0  0  2  0  0  0  0  0  0
  189.7840  176.5930  147.4430 C   0  0  0  0  0  2  0  0  0  0  0  0
  189.0940  177.8720  147.8740 C   0  0  0  0  0  2  0  0  0  0  0  0
  191.3780  176.1250  143.0890 C   0  0  0  0  0  1  0  0  0  0  0  0
  191.6620  176.9650  144.1780 O   0  0  0  0  0  0  0  0  0  0  0  0
  185.6310  178.4170  140.8420 O   0  0  0  0  0  0  0  0  0  0  0  0
  184.9340  179.1560  139.8770 C   0  0  0  0  0  2  0  0  0  0  0  0
  185.2160  178.6260  138.4720 C   0  0  0  0  0  2  0  0  0  0  0  0
  186.5930  178.5090  138.2650 O   0  0  0  0  0  0  0  0  0  0  0  0
  186.7290  178.2580  136.8970 C   0  0  0  0  0  2  0  0  0  0  0  0
  187.6860  177.0940  136.6410 C   0  0  2  0  0  3  0  0  0  0  0  0
  187.4790  176.0790  137.5810 O   0  0  0  0  0  0  0  0  0  0  0  0
  186.5890  175.1980  136.9630 C   0  0  0  0  0  2  0  0  0  0  0  0
  186.5970  172.6340  137.0210 C   0  0  2  0  0  3  0  0  0  0  0  0
  185.2530  172.8360  137.7160 C   0  0  0  0  0  1  0  0  0  0  0  0
  187.3140  173.9170  136.5900 C   0  0  1  0  0  3  0  0  0  0  0  0
  186.4970  173.1290  135.5930 C   0  0  0  0  0  2  0  0  0  0  0  0
  189.1330  177.5600  136.7100 C   0  0  0  0  0  2  0  0  0  0  0  0
  189.8430  176.8520  137.7720 N   0  0  0  0  0  0  0  0  0  0  0  0
  192.4170  174.5040  136.8360 O   0  0  0  0  0  1  0  0  0  0  0  0
  192.1260  176.2560  138.4050 C   0  0  0  0  0  2  0  0  0  0  0  0
  191.1550  176.4710  137.2590 C   0  0  1  0  0  3  0  0  0  0  0  0
  191.4970  175.0640  137.7220 C   0  0  1  0  0  3  0  0  0  0  0  0
  189.9990  177.7440  138.9330 C   0  0  0  0  0  2  0  0  0  0  0  0
  189.2470  177.2640  140.1790 C   0  0  0  0  0  2  0  0  0  0  0  0
  189.0710  178.4180  141.1390 C   0  0  0  0  0  1  0  0  0  0  0  0
  1  7  1  0  0  0  0
  2 10  1  0  0  0  0
  3 23  1  6  0  0  0
  3  6  1  0  0  0  0
  3  2  1  0  0  0  0
  4 17  1  0  0  0  0
  4 11  1  0  0  0  0
  6  1  1  0  0  0  0
  7  8  1  0  0  0  0
  8 11  1  0  0  0  0
  9  6  2  0  0  0  0
 10  7  2  0  0  0  0
 10  4  1  0  0  0  0
 11  5  2  0  0  0  0
 12 13  1  0  0  0  0
 12 14  1  0  0  0  0
 14 22  1  6  0  0  0
 14 15  1  0  0  0  0
 15 16  1  6  0  0  0
 15 19  1  0  0  0  0
 17 13  1  6  0  0  0
 17 18  1  0  0  0  0
 18 20  1  0  0  0  0
 19 20  1  0  0  0  0
 21 22  1  0  0  0  0
 24 23  1  0  0  0  0
 25 24  1  0  0  0  0
 26 25  1  0  0  0  0
 27 26  1  0  0  0  0
 28 35  1  1  0  0  0
 28 27  1  0  0  0  0
 28 29  1  0  0  0  0
 30 29  1  0  0  0  0
 31 32  1  1  0  0  0
 33 30  1  1  0  0  0
 33 31  1  0  0  0  0
 34 33  1  0  0  0  0
 34 31  1  0  0  0  0
 35 36  1  0  0  0  0
 36 41  1  0  0  0  0
 39 40  1  0  0  0  0
 39 36  1  1  0  0  0
 39 38  1  0  0  0  0
 40 37  1  6  0  0  0
 40 38  1  0  0  0  0
 41 42  1  0  0  0  0
 42 43  1  0  0  0  0
M  END
>  <MODEL>
8

>  <REMARK>
 VINA RESULT:      -7.6      1.351      2.386
  Name = 
  16 active torsions:
  status: ('A' for Active; 'I' for Inactive)
    1  A    between atoms: C_7  and  O_39
    2  A    between atoms: N_9  and  C_20
    3  A    between atoms: C_11  and  C_24
    4  A    between atoms: C_11  and  O_30
    5  A    between atoms: C_13  and  O_42
    6  A    between atoms: C_15  and  C_17
    7  A    between atoms: C_15  and  N_33
    8  A    between atoms: C_16  and  C_18
    9  A    between atoms: C_16  and  O_21
   10  A    between atoms: O_21  and  C_22
   11  A    between atoms: C_22  and  C_26
   12  A    between atoms: C_22  and  C_43
   13  A    between atoms: C_24  and  O_39
   14  A    between atoms: C_26  and  N_33
   15  A    between atoms: O_30  and  C_43
   16  A    between atoms: C_32  and  N_33
                            x       y       z     vdW  Elec       q    Type
                         _______ _______ _______ _____ _____    ______ ____

>  <TORSDO>
F 16

$$$$
=
 OpenBabel10222421343D

 43 47  0  0  1  0  0  0  0  0999 V2000
  188.1740  176.7220  135.4750 C   0  0  0  0  0  2  0  0  0  0  0  0
  186.5960  177.8130  137.8660 C   0  0  0  0  0  2  0  0  0  0  0  0
  187.9150  178.4630  137.4210 C   0  0  2  0  0  3  0  0  0  0  0  0
  184.6940  176.7020  136.5860 N   0  0  0  0  0  0  0  0  0  0  0  0
  183.6530  175.4220  134.9830 O   0  0  0  0  0  0  0  0  0  0  0  0
  188.7700  177.4790  136.6410 C   0  0  0  0  0  0  0  0  0  0  0  0
  186.7010  176.5350  135.6790 C   0  0  0  0  0  0  0  0  0  0  0  0
  185.8800  175.8570  134.9120 O   0  0  0  0  0  0  0  0  0  0  0  0
  189.9480  177.3280  136.9150 O   0  0  0  0  0  0  0  0  0  0  0  0
  185.9810  177.0740  136.7210 C   0  0  0  0  0  0  0  0  0  0  0  0
  184.6870  175.9640  135.4570 C   0  0  0  0  0  0  0  0  0  0  0  0
  182.1980  179.0070  138.0260 C   0  0  0  0  0  2  0  0  0  0  0  0
  183.6030  178.4580  137.8880 C   0  0  0  0  0  2  0  0  0  0  0  0
  181.9280  179.4570  139.4620 C   0  0  2  0  0  3  0  0  0  0  0  0
  181.4390  178.3380  140.3960 C   0  0  2  0  0  3  0  0  0  0  0  0
  181.1620  178.8660  141.6540 O   0  0  0  0  0  1  0  0  0  0  0  0
  183.5610  176.9990  137.4620 C   0  0  2  0  0  3  0  0  0  0  0  0
  183.5550  176.0470  138.6560 C   0  0  0  0  0  2  0  0  0  0  0  0
  182.4750  177.2380  140.5510 C   0  0  0  0  0  2  0  0  0  0  0  0
  182.2910  176.1760  139.4850 C   0  0  0  0  0  2  0  0  0  0  0  0
  181.0700  181.1880  138.2310 C   0  0  0  0  0  1  0  0  0  0  0  0
  181.1180  180.6140  139.5120 O   0  0  0  0  0  0  0  0  0  0  0  0
  188.5930  178.9400  138.5470 O   0  0  0  0  0  0  0  0  0  0  0  0
  188.1430  178.1550  139.6180 C   0  0  0  0  0  2  0  0  0  0  0  0
  189.3170  177.5490  140.3840 C   0  0  0  0  0  2  0  0  0  0  0  0
  188.8580  176.8590  141.5090 O   0  0  0  0  0  0  0  0  0  0  0  0
  187.9760  177.7420  142.1360 C   0  0  0  0  0  2  0  0  0  0  0  0
  187.5960  177.2480  143.5310 C   0  0  2  0  0  3  0  0  0  0  0  0
  187.1450  178.3150  144.3180 O   0  0  0  0  0  0  0  0  0  0  0  0
  185.9170  177.8890  144.8250 C   0  0  0  0  0  2  0  0  0  0  0  0
  184.3540  179.7710  144.0560 C   0  0  2  0  0  3  0  0  0  0  0  0
  184.5440  179.1120  142.6920 C   0  0  0  0  0  1  0  0  0  0  0  0
  185.0810  179.0940  145.2210 C   0  0  1  0  0  3  0  0  0  0  0  0
  183.6180  178.8170  144.9720 C   0  0  0  0  0  2  0  0  0  0  0  0
  188.7850  176.5860  144.2120 C   0  0  0  0  0  2  0  0  0  0  0  0
  189.3500  177.4740  145.2250 N   0  0  0  0  0  0  0  0  0  0  0  0
  188.1180  177.5940  148.6140 O   0  0  0  0  0  1  0  0  0  0  0  0
  190.1750  177.1940  147.5070 C   0  0  0  0  0  2  0  0  0  0  0  0
  189.0440  176.9100  146.5360 C   0  0  1  0  0  3  0  0  0  0  0  0
  188.9170  178.0300  147.5580 C   0  0  1  0  0  3  0  0  0  0  0  0
  190.8070  177.5570  145.0430 C   0  0  0  0  0  2  0  0  0  0  0  0
  191.2300  178.4950  143.9060 C   0  0  0  0  0  2  0  0  0  0  0  0
  191.9660  177.7060  142.8480 C   0  0  0  0  0  1  0  0  0  0  0  0
  1  7  1  0  0  0  0
  1  6  1  0  0  0  0
  3  2  1  0  0  0  0
  3 23  1  1  0  0  0
  4 10  1  0  0  0  0
  5 11  2  0  0  0  0
  6  9  2  0  0  0  0
  6  3  1  0  0  0  0
  7 10  2  0  0  0  0
  8 11  1  0  0  0  0
  8  7  1  0  0  0  0
 10  2  1  0  0  0  0
 11  4  1  0  0  0  0
 12 14  1  0  0  0  0
 13 12  1  0  0  0  0
 14 22  1  6  0  0  0
 14 15  1  0  0  0  0
 15 19  1  0  0  0  0
 15 16  1  1  0  0  0
 17  4  1  6  0  0  0
 17 13  1  0  0  0  0
 17 18  1  0  0  0  0
 18 20  1  0  0  0  0
 20 19  1  0  0  0  0
 21 22  1  0  0  0  0
 23 24  1  0  0  0  0
 24 25  1  0  0  0  0
 25 26  1  0  0  0  0
 26 27  1  0  0  0  0
 28 27  1  6  0  0  0
 28 35  1  0  0  0  0
 28 29  1  0  0  0  0
 29 30  1  0  0  0  0
 31 32  1  6  0  0  0
 31 34  1  0  0  0  0
 31 33  1  0  0  0  0
 33 30  1  6  0  0  0
 34 33  1  0  0  0  0
 35 36  1  0  0  0  0
 38 40  1  0  0  0  0
 39 36  1  6  0  0  0
 39 38  1  0  0  0  0
 39 40  1  0  0  0  0
 40 37  1  1  0  0  0
 41 36  1  0  0  0  0
 42 41  1  0  0  0  0
 43 42  1  0  0  0  0
M  END
>  <MODEL>
9

>  <REMARK>
 VINA RESULT:      -7.4      2.471      8.881
  Name = 
  16 active torsions:
  status: ('A' for Active; 'I' for Inactive)
    1  A    between atoms: C_7  and  O_39
    2  A    between atoms: N_9  and  C_20
    3  A    between atoms: C_11  and  C_24
    4  A    between atoms: C_11  and  O_30
    5  A    between atoms: C_13  and  O_42
    6  A    between atoms: C_15  and  C_17
    7  A    between atoms: C_15  and  N_33
    8  A    between atoms: C_16  and  C_18
    9  A    between atoms: C_16  and  O_21
   10  A    between atoms: O_21  and  C_22
   11  A    between atoms: C_22  and  C_26
   12  A    between atoms: C_22  and  C_43
   13  A    between atoms: C_24  and  O_39
   14  A    between atoms: C_26  and  N_33
   15  A    between atoms: O_30  and  C_43
   16  A    between atoms: C_32  and  N_33
                            x       y       z     vdW  Elec       q    Type
                         _______ _______ _______ _____ _____    ______ ____

>  <TORSDO>
F 16

$$$$
