=
 OpenBabel10232411403D

 52 57  0  0  1  0  0  0  0  0999 V2000
  184.1750  176.8490  137.4100 C   0  0  0  0  0  0  0  0  0  0  0  0
  187.5370  178.4490  136.9780 C   0  0  0  0  0  2  0  0  0  0  0  0
  181.6420  174.0450  136.6620 C   0  0  0  0  0  1  0  0  0  0  0  0
  187.8110  175.9370  137.0270 C   0  0  1  0  0  3  0  0  0  0  0  0
  188.3580  177.2830  137.5220 C   0  0  1  0  0  3  0  0  0  0  0  0
  183.5130  175.5150  137.6320 C   0  0  0  0  0  2  0  0  0  0  0  0
  186.3840  175.7360  137.5470 C   0  0  0  0  0  2  0  0  0  0  0  0
  186.1210  178.2550  137.2750 N   0  0  0  0  0  2  0  0  0  0  0  0
  182.0330  177.7840  136.6260 C   0  0  0  0  0  0  0  0  0  0  0  0
  182.2220  175.3960  136.8700 C   0  0  0  0  0  0  0  0  0  0  0  0
  185.5120  176.9570  137.3640 C   0  0  0  0  0  0  0  0  0  0  0  0
  183.3070  178.0730  137.3670 C   0  0  1  0  0  3  0  0  0  0  0  0
  181.5680  176.4390  136.4540 N   0  0  0  0  0  0  0  0  0  0  0  0
  181.3610  178.7350  136.1480 O   0  0  0  0  0  0  0  0  0  0  0  0
  188.3850  174.7510  134.8900 C   0  0  0  0  0  3  0  0  0  0  0  0
  187.8540  175.8040  135.5260 C   0  0  0  0  0  3  0  0  0  0  0  0
  189.0100  173.5780  135.5900 C   0  0  0  0  0  2  0  0  0  0  0  0
  190.2290  173.0600  134.8410 C   0  0  0  0  0  2  0  0  0  0  0  0
  192.6700  174.4900  134.9530 O   0  0  0  0  0  0  0  0  0  0  0  0
  192.5340  173.5260  135.7550 C   0  0  0  0  0  0  0  0  0  0  0  0
  191.3140  172.7830  135.7720 N   0  0  0  0  0  2  0  0  0  0  0  0
  196.0310  174.4860  139.3250 S   0  0  0  0  0  0  0  0  0  0  0  0
  194.1780  174.1110  137.4990 N   0  0  0  0  0  0  0  0  0  0  0  0
  194.2560  171.9200  136.7430 C   0  0  1  0  0  3  0  0  0  0  0  0
  195.4830  171.9930  137.8900 S   0  0  0  0  0  0  0  0  0  0  0  0
  193.6450  173.1780  136.6620 C   0  0  0  0  0  0  0  0  0  0  0  0
  193.9210  170.6970  135.9620 C   0  0  0  0  0  1  0  0  0  0  0  0
  195.1920  173.6070  138.2330 C   0  0  0  0  0  0  0  0  0  0  0  0
  189.8570  177.4590  137.2810 C   0  0  0  0  0  2  0  0  0  0  0  0
  190.5240  176.2340  137.3220 O   0  0  0  0  0  1  0  0  0  0  0  0
  183.0240  178.5480  138.7890 C   0  0  0  0  0  2  0  0  0  0  0  0
  182.5580  177.4440  139.6270 N   0  0  0  0  0  0  0  0  0  0  0  0
  182.8520  177.6130  141.0470 C   0  0  2  0  0  3  0  0  0  0  0  0
  181.6440  177.9660  140.5300 O   0  0  0  0  0  0  0  0  0  0  0  0
  183.6130  178.8860  141.4390 C   0  0  0  0  0  2  0  0  0  0  0  0
  187.3800  178.5500  141.3090 C   0  0  0  0  0  0  0  0  0  0  0  0
  185.2990  178.0740  143.1130 C   0  0  0  0  0  3  0  0  0  0  0  0
  188.3780  178.7970  140.4250 F   0  0  0  0  0  0  0  0  0  0  0  0
  186.0570  178.8130  140.9400 C   0  0  0  0  0  3  0  0  0  0  0  0
  186.6210  177.8050  143.4800 C   0  0  0  0  0  3  0  0  0  0  0  0
  185.0150  178.5690  141.8370 C   0  0  0  0  0  0  0  0  0  0  0  0
  187.6720  178.0440  142.5830 C   0  0  0  0  0  0  0  0  0  0  0  0
  189.0400  177.7700  142.9290 N   0  0  0  0  0  0  0  0  0  0  0  0
  190.9010  176.5340  147.1820 C   0  0  0  0  0  3  0  0  0  0  0  0
  191.9300  178.5730  144.5280 O   0  0  0  0  0  0  0  0  0  0  0  0
  191.8870  176.4110  143.3580 O   0  0  0  0  0  0  0  0  0  0  0  0
  188.5930  177.3560  146.5600 C   0  0  0  0  0  2  0  0  0  0  0  0
  189.5640  177.3760  144.2050 C   0  0  0  0  0  0  0  0  0  0  0  0
  189.7800  177.5230  147.4620 C   0  0  0  0  0  2  0  0  0  0  0  0
  191.2860  177.2160  144.4770 S   0  0  0  0  0  0  0  0  0  0  0  0
  188.8860  177.3900  145.3030 C   0  0  0  0  0  2  0  0  0  0  0  0
  191.5720  176.3570  146.0160 C   0  0  0  0  0  3  0  0  0  0  0  0
  1  6  1  0  0  0  0
  2  8  1  0  0  0  0
  2  5  1  0  0  0  0
  3 10  1  0  0  0  0
  4 16  1  6  0  0  0
  4  5  1  0  0  0  0
  4  7  1  0  0  0  0
  5 29  1  6  0  0  0
  8 11  1  0  0  0  0
  9 12  1  0  0  0  0
 10  6  1  0  0  0  0
 11  1  2  0  0  0  0
 11  7  1  0  0  0  0
 12  1  1  0  0  0  0
 12 31  1  1  0  0  0
 13  9  1  0  0  0  0
 13 10  2  0  0  0  0
 14  9  2  0  0  0  0
 15 16  2  0  0  0  0
 15 17  1  0  0  0  0
 18 17  1  0  0  0  0
 18 21  1  0  0  0  0
 19 20  2  0  0  0  0
 20 21  1  0  0  0  0
 20 26  1  0  0  0  0
 23 28  1  0  0  0  0
 24 27  1  6  0  0  0
 24 25  1  0  0  0  0
 25 28  1  0  0  0  0
 26 24  1  0  0  0  0
 26 23  2  0  0  0  0
 28 22  2  0  0  0  0
 29 30  1  0  0  0  0
 31 32  1  0  0  0  0
 32 34  1  0  0  0  0
 32 33  1  0  0  0  0
 33 35  1  6  0  0  0
 34 33  1  0  0  0  0
 35 41  1  0  0  0  0
 36 42  1  0  0  0  0
 37 40  1  0  0  0  0
 38 36  1  0  0  0  0
 39 36  2  0  0  0  0
 39 41  1  0  0  0  0
 41 37  2  0  0  0  0
 42 43  1  0  0  0  0
 42 40  2  0  0  0  0
 43 48  2  0  0  0  0
 44 49  1  0  0  0  0
 46 50  2  0  0  0  0
 47 49  1  0  0  0  0
 48 50  1  0  0  0  0
 48 51  1  0  0  0  0
 50 45  2  0  0  0  0
 50 52  1  0  0  0  0
 51 47  1  0  0  0  0
 52 44  2  0  0  0  0
M  END
>  <MODEL>
1

>  <REMARK>
 VINA RESULT:      -8.3      0.000      0.000
  Name = 
  12 active torsions:
  status: ('A' for Active; 'I' for Inactive)
    1  A    between atoms: N_6  and  C_19
    2  A    between atoms: C_8  and  C_21
    3  A    between atoms: C_11  and  C_47
    4  A    between atoms: C_12  and  C_15
    5  A    between atoms: C_15  and  C_45
    6  A    between atoms: C_18  and  C_29
    7  A    between atoms: C_19  and  C_41
    8  A    between atoms: C_20  and  C_21
    9  A    between atoms: C_20  and  N_30
   10  A    between atoms: C_23  and  C_25
   11  A    between atoms: N_33  and  C_34
   12  A    between atoms: N_33  and  C_49
                            x       y       z     vdW  Elec       q    Type
                         _______ _______ _______ _____ _____    ______ ____

>  <TORSDO>
F 12

$$$$
=
 OpenBabel10232411403D

 52 57  0  0  1  0  0  0  0  0999 V2000
  187.2700  177.9850  139.8380 C   0  0  0  0  0  0  0  0  0  0  0  0
  183.8120  179.3390  140.3450 C   0  0  0  0  0  2  0  0  0  0  0  0
  190.8460  177.2850  141.0870 C   0  0  0  0  0  1  0  0  0  0  0  0
  184.6190  178.2910  142.4980 C   0  0  1  0  0  3  0  0  0  0  0  0
  183.4420  178.4430  141.5240 C   0  0  1  0  0  3  0  0  0  0  0  0
  188.3420  177.1770  140.5190 C   0  0  0  0  0  2  0  0  0  0  0  0
  185.7920  177.6070  141.7910 C   0  0  0  0  0  2  0  0  0  0  0  0
  185.0330  178.8600  139.7070 N   0  0  0  0  0  2  0  0  0  0  0  0
  188.9430  178.8850  138.2660 C   0  0  0  0  0  0  0  0  0  0  0  0
  189.7170  177.7020  140.2150 C   0  0  0  0  0  0  0  0  0  0  0  0
  186.0820  178.1930  140.4280 C   0  0  0  0  0  0  0  0  0  0  0  0
  187.5150  178.4470  138.4300 C   0  0  1  0  0  3  0  0  0  0  0  0
  189.9580  178.4480  139.1780 N   0  0  0  0  0  0  0  0  0  0  0  0
  189.2540  179.6470  137.3140 O   0  0  0  0  0  0  0  0  0  0  0  0
  185.0470  179.8540  144.4170 C   0  0  0  0  0  3  0  0  0  0  0  0
  185.0530  179.6030  143.1000 C   0  0  0  0  0  3  0  0  0  0  0  0
  184.6010  178.8640  145.4550 C   0  0  0  0  0  2  0  0  0  0  0  0
  185.5700  178.8010  146.6260 C   0  0  0  0  0  2  0  0  0  0  0  0
  187.7520  178.2570  148.3470 O   0  0  0  0  0  0  0  0  0  0  0  0
  187.9030  177.9810  147.1260 C   0  0  0  0  0  0  0  0  0  0  0  0
  186.8300  178.2010  146.2090 N   0  0  0  0  0  2  0  0  0  0  0  0
  192.4430  175.7630  147.7270 S   0  0  0  0  0  0  0  0  0  0  0  0
  190.0740  176.8870  147.5430 N   0  0  0  0  0  0  0  0  0  0  0  0
  189.6440  177.4470  145.3350 C   0  0  1  0  0  3  0  0  0  0  0  0
  191.1710  176.7470  145.2800 S   0  0  0  0  0  0  0  0  0  0  0  0
  189.1950  177.4370  146.6610 C   0  0  0  0  0  0  0  0  0  0  0  0
  188.9320  177.9820  144.1410 C   0  0  0  0  0  1  0  0  0  0  0  0
  191.2010  176.4640  146.9320 C   0  0  0  0  0  0  0  0  0  0  0  0
  182.1410  178.8700  142.2010 C   0  0  0  0  0  2  0  0  0  0  0  0
  181.0410  178.2170  141.6430 O   0  0  0  0  0  1  0  0  0  0  0  0
  187.1660  177.3240  137.4570 C   0  0  0  0  0  2  0  0  0  0  0  0
  187.6680  177.6190  136.1150 N   0  0  0  0  0  0  0  0  0  0  0  0
  188.6820  176.6820  135.6430 C   0  0  2  0  0  3  0  0  0  0  0  0
  187.3720  176.5280  135.3130 O   0  0  0  0  0  0  0  0  0  0  0  0
  189.0830  175.5630  136.6140 C   0  0  0  0  0  2  0  0  0  0  0  0
  192.1960  173.4540  136.1840 C   0  0  0  0  0  0  0  0  0  0  0  0
  191.4940  176.1590  136.2410 C   0  0  0  0  0  3  0  0  0  0  0  0
  192.5180  172.1370  136.1490 F   0  0  0  0  0  0  0  0  0  0  0  0
  190.8650  173.8300  136.3900 C   0  0  0  0  0  3  0  0  0  0  0  0
  192.8250  175.7840  136.0410 C   0  0  0  0  0  3  0  0  0  0  0  0
  190.5120  175.1800  136.4260 C   0  0  0  0  0  0  0  0  0  0  0  0
  193.1870  174.4290  136.0080 C   0  0  0  0  0  0  0  0  0  0  0  0
  194.5490  174.0140  135.8120 N   0  0  0  0  0  2  0  0  0  0  0  0
  198.2720  174.5950  138.7910 C   0  0  0  0  0  3  0  0  0  0  0  0
  196.9900  176.3670  136.0570 O   0  0  0  0  0  0  0  0  0  0  0  0
  197.5920  174.2750  134.9120 O   0  0  0  0  0  0  0  0  0  0  0  0
  195.8400  174.0940  139.2590 C   0  0  0  0  0  2  0  0  0  0  0  0
  195.6520  174.1520  136.7190 C   0  0  1  0  0  3  0  0  0  0  0  0
  197.0210  174.9630  139.5730 C   0  0  0  0  0  2  0  0  0  0  0  0
  197.1630  174.8820  136.2190 S   0  0  0  0  0  0  0  0  0  0  0  0
  195.5540  174.0380  138.0000 C   0  0  0  0  0  2  0  0  0  0  0  0
  198.4200  174.5540  137.4430 C   0  0  0  0  0  3  0  0  0  0  0  0
  1 11  2  0  0  0  0
  1  6  1  0  0  0  0
  2  5  1  0  0  0  0
  4 16  1  6  0  0  0
  5 29  1  1  0  0  0
  5  4  1  0  0  0  0
  7  4  1  0  0  0  0
  8  2  1  0  0  0  0
  8 11  1  0  0  0  0
  9 12  1  0  0  0  0
  9 13  1  0  0  0  0
 10  6  1  0  0  0  0
 10  3  1  0  0  0  0
 11  7  1  0  0  0  0
 12 31  1  6  0  0  0
 12  1  1  0  0  0  0
 13 10  2  0  0  0  0
 14  9  2  0  0  0  0
 15 17  1  0  0  0  0
 16 15  2  0  0  0  0
 17 18  1  0  0  0  0
 20 19  2  0  0  0  0
 21 18  1  0  0  0  0
 21 20  1  0  0  0  0
 24 27  1  1  0  0  0
 24 26  1  0  0  0  0
 25 24  1  0  0  0  0
 25 28  1  0  0  0  0
 26 20  1  0  0  0  0
 26 23  2  0  0  0  0
 28 23  1  0  0  0  0
 28 22  2  0  0  0  0
 30 29  1  0  0  0  0
 32 31  1  0  0  0  0
 33 32  1  0  0  0  0
 33 35  1  1  0  0  0
 34 33  1  0  0  0  0
 34 32  1  0  0  0  0
 36 39  1  0  0  0  0
 37 41  1  0  0  0  0
 38 36  1  0  0  0  0
 39 41  2  0  0  0  0
 40 37  2  0  0  0  0
 41 35  1  0  0  0  0
 42 40  1  0  0  0  0
 42 36  2  0  0  0  0
 43 42  1  0  0  0  0
 44 49  1  0  0  0  0
 45 50  2  0  0  0  0
 46 50  2  0  0  0  0
 47 49  1  0  0  0  0
 48 43  1  1  0  0  0
 48 51  1  0  0  0  0
 50 48  1  0  0  0  0
 50 52  1  0  0  0  0
 51 47  1  0  0  0  0
 52 44  2  0  0  0  0
M  END
>  <MODEL>
2

>  <REMARK>
 VINA RESULT:      -8.3      3.160      9.455
  Name = 
  12 active torsions:
  status: ('A' for Active; 'I' for Inactive)
    1  A    between atoms: N_6  and  C_19
    2  A    between atoms: C_8  and  C_21
    3  A    between atoms: C_11  and  C_47
    4  A    between atoms: C_12  and  C_15
    5  A    between atoms: C_15  and  C_45
    6  A    between atoms: C_18  and  C_29
    7  A    between atoms: C_19  and  C_41
    8  A    between atoms: C_20  and  C_21
    9  A    between atoms: C_20  and  N_30
   10  A    between atoms: C_23  and  C_25
   11  A    between atoms: N_33  and  C_34
   12  A    between atoms: N_33  and  C_49
                            x       y       z     vdW  Elec       q    Type
                         _______ _______ _______ _____ _____    ______ ____

>  <TORSDO>
F 12

$$$$
=
 OpenBabel10232411403D

 52 57  0  0  1  0  0  0  0  0999 V2000
  189.4300  176.9770  139.6260 C   0  0  0  0  0  0  0  0  0  0  0  0
  190.9770  176.3790  142.9870 C   0  0  0  0  0  2  0  0  0  0  0  0
  186.3580  177.4750  137.3570 C   0  0  0  0  0  1  0  0  0  0  0  0
  188.9740  177.8960  143.2520 C   0  0  1  0  0  3  0  0  0  0  0  0
  190.4310  177.6350  143.6600 C   0  0  1  0  0  3  0  0  0  0  0  0
  188.3610  177.7820  138.9360 C   0  0  0  0  0  2  0  0  0  0  0  0
  188.8950  178.1480  141.7440 C   0  0  0  0  0  2  0  0  0  0  0  0
  190.7850  176.4510  141.5430 N   0  0  0  0  0  2  0  0  0  0  0  0
  189.4710  175.4020  137.7300 C   0  0  0  0  0  0  0  0  0  0  0  0
  187.6660  176.9890  137.8650 C   0  0  0  0  0  0  0  0  0  0  0  0
  189.6790  177.1390  140.9350 C   0  0  0  0  0  0  0  0  0  0  0  0
  190.2950  176.0790  138.7890 C   0  0  1  0  0  3  0  0  0  0  0  0
  188.2050  175.9360  137.3260 N   0  0  0  0  0  0  0  0  0  0  0  0
  189.8990  174.3490  137.1880 O   0  0  0  0  0  0  0  0  0  0  0  0
  187.1160  176.8940  144.6120 C   0  0  0  0  0  3  0  0  0  0  0  0
  188.0450  176.7780  143.6530 C   0  0  0  0  0  3  0  0  0  0  0  0
  186.8880  178.1470  145.4100 C   0  0  0  0  0  2  0  0  0  0  0  0
  185.4390  178.6040  145.3380 C   0  0  0  0  0  2  0  0  0  0  0  0
  183.1640  179.9090  144.2690 O   0  0  0  0  0  0  0  0  0  0  0  0
  183.7340  179.0570  143.5340 C   0  0  0  0  0  0  0  0  0  0  0  0
  184.9050  178.3860  144.0000 N   0  0  0  0  0  2  0  0  0  0  0  0
  179.9950  178.0150  140.2430 S   0  0  0  0  0  0  0  0  0  0  0  0
  181.8360  178.5700  142.0350 N   0  0  0  0  0  0  0  0  0  0  0  0
  183.9200  178.6350  141.0220 C   0  0  1  0  0  3  0  0  0  0  0  0
  182.8720  178.2760  139.7590 S   0  0  0  0  0  0  0  0  0  0  0  0
  183.1740  178.7630  142.2000 C   0  0  0  0  0  0  0  0  0  0  0  0
  185.3950  178.7730  140.8640 C   0  0  0  0  0  1  0  0  0  0  0  0
  181.5220  178.2960  140.7520 C   0  0  0  0  0  0  0  0  0  0  0  0
  190.6510  177.6340  145.1710 C   0  0  0  0  0  2  0  0  0  0  0  0
  190.9270  176.3500  145.6430 O   0  0  0  0  0  1  0  0  0  0  0  0
  191.4280  176.8930  138.1720 C   0  0  0  0  0  2  0  0  0  0  0  0
  192.6810  176.6790  138.8950 N   0  0  0  0  0  0  0  0  0  0  0  0
  193.7040  175.9890  138.1160 C   0  0  2  0  0  3  0  0  0  0  0  0
  193.6790  177.3460  138.2020 O   0  0  0  0  0  0  0  0  0  0  0  0
  193.3150  175.5770  136.6900 C   0  0  0  0  0  2  0  0  0  0  0  0
  193.8520  171.8650  136.1850 C   0  0  0  0  0  0  0  0  0  0  0  0
  195.2010  174.2610  135.6820 C   0  0  0  0  0  3  0  0  0  0  0  0
  193.1790  170.7120  136.4280 F   0  0  0  0  0  0  0  0  0  0  0  0
  193.2800  173.0850  136.5590 C   0  0  0  0  0  3  0  0  0  0  0  0
  195.7760  173.0410  135.3140 C   0  0  0  0  0  3  0  0  0  0  0  0
  193.9540  174.2830  136.3150 C   0  0  0  0  0  0  0  0  0  0  0  0
  195.1060  171.8340  135.5590 C   0  0  0  0  0  0  0  0  0  0  0  0
  195.6750  170.5640  135.1990 N   0  0  0  0  0  2  0  0  0  0  0  0
  198.6870  167.9190  137.8450 C   0  0  0  0  0  3  0  0  0  0  0  0
  198.3950  171.3250  137.0890 O   0  0  0  0  0  0  0  0  0  0  0  0
  198.8350  170.4650  134.8280 O   0  0  0  0  0  0  0  0  0  0  0  0
  196.1610  167.9630  137.7580 C   0  0  0  0  0  2  0  0  0  0  0  0
  196.5550  169.7400  135.9760 C   0  0  1  0  0  3  0  0  0  0  0  0
  197.3840  168.0150  138.6240 C   0  0  0  0  0  2  0  0  0  0  0  0
  198.2480  170.1420  136.1740 S   0  0  0  0  0  0  0  0  0  0  0  0
  196.1570  168.8400  136.8100 C   0  0  0  0  0  2  0  0  0  0  0  0
  199.1190  168.7410  136.8570 C   0  0  0  0  0  3  0  0  0  0  0  0
  1 11  2  0  0  0  0
  2  5  1  0  0  0  0
  3 10  1  0  0  0  0
  4 16  1  6  0  0  0
  4  5  1  0  0  0  0
  5 29  1  1  0  0  0
  6  1  1  0  0  0  0
  7  4  1  0  0  0  0
  8  2  1  0  0  0  0
  9 12  1  0  0  0  0
 10  6  1  0  0  0  0
 11  8  1  0  0  0  0
 11  7  1  0  0  0  0
 12 31  1  6  0  0  0
 12  1  1  0  0  0  0
 13  9  1  0  0  0  0
 13 10  2  0  0  0  0
 14  9  2  0  0  0  0
 15 17  1  0  0  0  0
 16 15  2  0  0  0  0
 18 17  1  0  0  0  0
 20 21  1  0  0  0  0
 20 19  2  0  0  0  0
 21 18  1  0  0  0  0
 22 28  2  0  0  0  0
 23 26  2  0  0  0  0
 24 27  1  1  0  0  0
 24 26  1  0  0  0  0
 25 28  1  0  0  0  0
 25 24  1  0  0  0  0
 26 20  1  0  0  0  0
 28 23  1  0  0  0  0
 29 30  1  0  0  0  0
 31 32  1  0  0  0  0
 33 35  1  6  0  0  0
 33 34  1  0  0  0  0
 33 32  1  0  0  0  0
 34 32  1  0  0  0  0
 36 38  1  0  0  0  0
 36 39  1  0  0  0  0
 37 41  1  0  0  0  0
 40 42  1  0  0  0  0
 40 37  2  0  0  0  0
 41 39  2  0  0  0  0
 41 35  1  0  0  0  0
 42 36  2  0  0  0  0
 43 42  1  0  0  0  0
 44 49  1  0  0  0  0
 46 50  2  0  0  0  0
 47 49  1  0  0  0  0
 48 43  1  1  0  0  0
 48 50  1  0  0  0  0
 48 51  1  0  0  0  0
 50 52  1  0  0  0  0
 50 45  2  0  0  0  0
 51 47  1  0  0  0  0
 52 44  2  0  0  0  0
M  END
>  <MODEL>
3

>  <REMARK>
 VINA RESULT:      -8.2      3.899     11.184
  Name = 
  12 active torsions:
  status: ('A' for Active; 'I' for Inactive)
    1  A    between atoms: N_6  and  C_19
    2  A    between atoms: C_8  and  C_21
    3  A    between atoms: C_11  and  C_47
    4  A    between atoms: C_12  and  C_15
    5  A    between atoms: C_15  and  C_45
    6  A    between atoms: C_18  and  C_29
    7  A    between atoms: C_19  and  C_41
    8  A    between atoms: C_20  and  C_21
    9  A    between atoms: C_20  and  N_30
   10  A    between atoms: C_23  and  C_25
   11  A    between atoms: N_33  and  C_34
   12  A    between atoms: N_33  and  C_49
                            x       y       z     vdW  Elec       q    Type
                         _______ _______ _______ _____ _____    ______ ____

>  <TORSDO>
F 12

$$$$
=
 OpenBabel10232411403D

 52 57  0  0  1  0  0  0  0  0999 V2000
  187.2300  178.0450  139.8470 C   0  0  0  0  0  0  0  0  0  0  0  0
  183.8010  179.4420  140.4290 C   0  0  0  0  0  2  0  0  0  0  0  0
  190.8030  177.2400  141.0400 C   0  0  0  0  0  1  0  0  0  0  0  0
  184.6070  178.3090  142.5390 C   0  0  1  0  0  3  0  0  0  0  0  0
  183.4250  178.5130  141.5810 C   0  0  1  0  0  3  0  0  0  0  0  0
  188.2930  177.1950  140.4920 C   0  0  0  0  0  2  0  0  0  0  0  0
  185.7620  177.6280  141.7990 C   0  0  0  0  0  2  0  0  0  0  0  0
  185.0080  178.9630  139.7640 N   0  0  0  0  0  2  0  0  0  0  0  0
  188.9060  178.9660  138.2910 C   0  0  0  0  0  0  0  0  0  0  0  0
  189.6750  177.7060  140.1930 C   0  0  0  0  0  0  0  0  0  0  0  0
  186.0510  178.2540  140.4540 C   0  0  0  0  0  0  0  0  0  0  0  0
  187.4720  178.5480  138.4530 C   0  0  1  0  0  3  0  0  0  0  0  0
  189.9200  178.4810  139.1790 N   0  0  0  0  0  0  0  0  0  0  0  0
  189.2230  179.7530  137.3620 O   0  0  0  0  0  0  0  0  0  0  0  0
  185.0180  179.8230  144.4990 C   0  0  0  0  0  3  0  0  0  0  0  0
  185.0700  179.5920  143.1800 C   0  0  0  0  0  3  0  0  0  0  0  0
  184.4870  178.8380  145.5010 C   0  0  0  0  0  2  0  0  0  0  0  0
  185.4260  178.6810  146.6880 C   0  0  0  0  0  2  0  0  0  0  0  0
  187.7330  178.4350  148.3120 O   0  0  0  0  0  0  0  0  0  0  0  0
  187.8200  178.0170  147.1250 C   0  0  0  0  0  0  0  0  0  0  0  0
  186.6830  178.0830  146.2630 N   0  0  0  0  0  2  0  0  0  0  0  0
  192.3640  175.7920  147.6680 S   0  0  0  0  0  0  0  0  0  0  0  0
  189.9950  176.9200  147.5150 N   0  0  0  0  0  0  0  0  0  0  0  0
  189.5340  177.4740  145.3110 C   0  0  1  0  0  3  0  0  0  0  0  0
  191.0590  176.7720  145.2370 S   0  0  0  0  0  0  0  0  0  0  0  0
  189.1040  177.4700  146.6440 C   0  0  0  0  0  0  0  0  0  0  0  0
  188.8070  178.0080  144.1260 C   0  0  0  0  0  1  0  0  0  0  0  0
  191.1120  176.4940  146.8890 C   0  0  0  0  0  0  0  0  0  0  0  0
  182.1370  178.9410  142.2830 C   0  0  0  0  0  2  0  0  0  0  0  0
  181.0110  178.5780  141.5420 O   0  0  0  0  0  1  0  0  0  0  0  0
  187.0950  177.4650  137.4470 C   0  0  0  0  0  2  0  0  0  0  0  0
  186.8590  178.0380  136.1220 N   0  0  0  0  0  0  0  0  0  0  0  0
  186.9450  177.0700  135.0340 C   0  0  2  0  0  3  0  0  0  0  0  0
  185.7480  177.4050  135.5870 O   0  0  0  0  0  0  0  0  0  0  0  0
  187.2850  175.6270  135.4280 C   0  0  0  0  0  2  0  0  0  0  0  0
  190.6290  173.8580  135.5140 C   0  0  0  0  0  0  0  0  0  0  0  0
  189.5750  176.2970  134.6450 C   0  0  0  0  0  3  0  0  0  0  0  0
  191.1230  172.6650  135.9310 F   0  0  0  0  0  0  0  0  0  0  0  0
  189.2710  174.1380  135.6890 C   0  0  0  0  0  3  0  0  0  0  0  0
  190.9340  176.0200  134.4750 C   0  0  0  0  0  3  0  0  0  0  0  0
  188.7420  175.3580  135.2630 C   0  0  0  0  0  0  0  0  0  0  0  0
  191.4730  174.7980  134.9050 C   0  0  0  0  0  0  0  0  0  0  0  0
  192.8670  174.4880  134.7490 N   0  0  0  0  0  2  0  0  0  0  0  0
  195.9020  173.1990  138.2430 C   0  0  0  0  0  3  0  0  0  0  0  0
  192.7870  174.7960  138.1330 O   0  0  0  0  0  0  0  0  0  0  0  0
  194.1180  176.4630  136.9110 O   0  0  0  0  0  0  0  0  0  0  0  0
  195.0010  171.9020  136.2700 C   0  0  0  0  0  2  0  0  0  0  0  0
  193.8000  174.0910  135.7640 C   0  0  1  0  0  3  0  0  0  0  0  0
  195.2290  171.9270  137.7520 C   0  0  0  0  0  2  0  0  0  0  0  0
  193.9840  175.0040  137.2470 S   0  0  0  0  0  0  0  0  0  0  0  0
  194.3500  172.9250  135.8260 C   0  0  0  0  0  2  0  0  0  0  0  0
  195.4610  174.4740  138.0970 C   0  0  0  0  0  3  0  0  0  0  0  0
  1 11  2  0  0  0  0
  1  6  1  0  0  0  0
  2  5  1  0  0  0  0
  4 16  1  6  0  0  0
  5 29  1  1  0  0  0
  5  4  1  0  0  0  0
  7  4  1  0  0  0  0
  8  2  1  0  0  0  0
  8 11  1  0  0  0  0
  9 12  1  0  0  0  0
  9 13  1  0  0  0  0
 10  6  1  0  0  0  0
 10  3  1  0  0  0  0
 11  7  1  0  0  0  0
 12 31  1  6  0  0  0
 12  1  1  0  0  0  0
 13 10  2  0  0  0  0
 14  9  2  0  0  0  0
 15 17  1  0  0  0  0
 16 15  2  0  0  0  0
 17 18  1  0  0  0  0
 20 19  2  0  0  0  0
 21 18  1  0  0  0  0
 21 20  1  0  0  0  0
 24 27  1  1  0  0  0
 24 26  1  0  0  0  0
 25 24  1  0  0  0  0
 25 28  1  0  0  0  0
 26 20  1  0  0  0  0
 26 23  2  0  0  0  0
 28 23  1  0  0  0  0
 28 22  2  0  0  0  0
 30 29  1  0  0  0  0
 32 31  1  0  0  0  0
 33 35  1  1  0  0  0
 33 34  1  0  0  0  0
 33 32  1  0  0  0  0
 34 32  1  0  0  0  0
 36 39  1  0  0  0  0
 36 38  1  0  0  0  0
 37 41  1  0  0  0  0
 40 37  2  0  0  0  0
 40 42  1  0  0  0  0
 41 35  1  0  0  0  0
 41 39  2  0  0  0  0
 42 36  2  0  0  0  0
 43 42  1  0  0  0  0
 46 50  2  0  0  0  0
 47 49  1  0  0  0  0
 48 43  1  1  0  0  0
 48 51  1  0  0  0  0
 48 50  1  0  0  0  0
 49 44  1  0  0  0  0
 50 52  1  0  0  0  0
 50 45  2  0  0  0  0
 51 47  1  0  0  0  0
 52 44  2  0  0  0  0
M  END
>  <MODEL>
4

>  <REMARK>
 VINA RESULT:      -8.1      2.874      9.304
  Name = 
  12 active torsions:
  status: ('A' for Active; 'I' for Inactive)
    1  A    between atoms: N_6  and  C_19
    2  A    between atoms: C_8  and  C_21
    3  A    between atoms: C_11  and  C_47
    4  A    between atoms: C_12  and  C_15
    5  A    between atoms: C_15  and  C_45
    6  A    between atoms: C_18  and  C_29
    7  A    between atoms: C_19  and  C_41
    8  A    between atoms: C_20  and  C_21
    9  A    between atoms: C_20  and  N_30
   10  A    between atoms: C_23  and  C_25
   11  A    between atoms: N_33  and  C_34
   12  A    between atoms: N_33  and  C_49
                            x       y       z     vdW  Elec       q    Type
                         _______ _______ _______ _____ _____    ______ ____

>  <TORSDO>
F 12

$$$$
=
 OpenBabel10232411403D

 52 57  0  0  1  0  0  0  0  0999 V2000
  189.1720  177.0790  139.5460 C   0  0  0  0  0  0  0  0  0  0  0  0
  190.4650  176.0320  142.9050 C   0  0  0  0  0  2  0  0  0  0  0  0
  186.2980  178.1080  137.1970 C   0  0  0  0  0  1  0  0  0  0  0  0
  188.6260  177.7370  143.2150 C   0  0  1  0  0  3  0  0  0  0  0  0
  190.0220  177.2810  143.6620 C   0  0  1  0  0  3  0  0  0  0  0  0
  188.2360  178.0540  138.8840 C   0  0  0  0  0  2  0  0  0  0  0  0
  188.6550  178.1220  141.7340 C   0  0  0  0  0  2  0  0  0  0  0  0
  190.3580  176.2460  141.4650 N   0  0  0  0  0  2  0  0  0  0  0  0
  189.1440  175.6740  137.5210 C   0  0  0  0  0  0  0  0  0  0  0  0
  187.5160  177.4360  137.7180 C   0  0  0  0  0  0  0  0  0  0  0  0
  189.3680  177.1020  140.8740 C   0  0  0  0  0  0  0  0  0  0  0  0
  189.9780  176.1630  138.6710 C   0  0  1  0  0  3  0  0  0  0  0  0
  187.9670  176.3790  137.1110 N   0  0  0  0  0  0  0  0  0  0  0  0
  189.4830  174.6290  136.9070 O   0  0  0  0  0  0  0  0  0  0  0  0
  186.3850  176.9760  144.0550 C   0  0  0  0  0  3  0  0  0  0  0  0
  187.5610  176.7020  143.4750 C   0  0  0  0  0  3  0  0  0  0  0  0
  185.9830  178.3450  144.5250 C   0  0  0  0  0  2  0  0  0  0  0  0
  185.3910  179.1770  143.3960 C   0  0  0  0  0  2  0  0  0  0  0  0
  184.8010  179.5260  140.6480 O   0  0  0  0  0  0  0  0  0  0  0  0
  184.1480  178.6420  141.2660 C   0  0  0  0  0  0  0  0  0  0  0  0
  184.4190  178.3930  142.6460 N   0  0  0  0  0  2  0  0  0  0  0  0
  182.4430  175.1890  137.9400 S   0  0  0  0  0  0  0  0  0  0  0  0
  183.4450  176.9320  139.6340 N   0  0  0  0  0  0  0  0  0  0  0  0
  181.7260  178.0540  140.7100 C   0  0  1  0  0  3  0  0  0  0  0  0
  180.9280  176.9930  139.6810 S   0  0  0  0  0  0  0  0  0  0  0  0
  183.1060  177.8800  140.5500 C   0  0  0  0  0  0  0  0  0  0  0  0
  181.0320  179.0110  141.6170 C   0  0  0  0  0  1  0  0  0  0  0  0
  182.3570  176.3600  139.0760 C   0  0  0  0  0  0  0  0  0  0  0  0
  190.1600  177.1290  145.1760 C   0  0  0  0  0  2  0  0  0  0  0  0
  189.8740  178.3260  145.8340 O   0  0  0  0  0  1  0  0  0  0  0  0
  191.2240  176.8930  138.1790 C   0  0  0  0  0  2  0  0  0  0  0  0
  192.3680  176.6230  139.0500 N   0  0  0  0  0  0  0  0  0  0  0  0
  193.3760  175.7530  138.4520 C   0  0  2  0  0  3  0  0  0  0  0  0
  193.4990  177.1070  138.4110 O   0  0  0  0  0  0  0  0  0  0  0  0
  193.0820  175.2400  137.0370 C   0  0  0  0  0  2  0  0  0  0  0  0
  194.4480  171.9580  135.7390 C   0  0  0  0  0  0  0  0  0  0  0  0
  195.4220  174.3750  136.7490 C   0  0  0  0  0  3  0  0  0  0  0  0
  193.9580  170.7950  135.2410 F   0  0  0  0  0  0  0  0  0  0  0  0
  193.5590  172.9620  136.1360 C   0  0  0  0  0  3  0  0  0  0  0  0
  196.3100  173.3700  136.3570 C   0  0  0  0  0  3  0  0  0  0  0  0
  194.0420  174.1670  136.6480 C   0  0  0  0  0  0  0  0  0  0  0  0
  195.8310  172.1540  135.8460 C   0  0  0  0  0  0  0  0  0  0  0  0
  196.7200  171.1000  135.4420 N   0  0  0  0  0  2  0  0  0  0  0  0
  199.0000  167.9140  138.2230 C   0  0  0  0  0  3  0  0  0  0  0  0
  195.9570  167.9580  136.4910 O   0  0  0  0  0  0  0  0  0  0  0  0
  195.5220  169.7830  138.0810 O   0  0  0  0  0  0  0  0  0  0  0  0
  199.8190  169.2920  136.2680 C   0  0  0  0  0  2  0  0  0  0  0  0
  197.4300  170.1760  136.2800 C   0  0  1  0  0  3  0  0  0  0  0  0
  199.7230  167.9280  136.8840 C   0  0  0  0  0  2  0  0  0  0  0  0
  196.5870  169.0460  137.3170 S   0  0  0  0  0  0  0  0  0  0  0  0
  198.6810  169.8880  136.1430 C   0  0  0  0  0  2  0  0  0  0  0  0
  197.7350  168.3290  138.4800 C   0  0  0  0  0  3  0  0  0  0  0  0
  1 11  2  0  0  0  0
  2  5  1  0  0  0  0
  3 10  1  0  0  0  0
  4 16  1  6  0  0  0
  4  5  1  0  0  0  0
  5 29  1  1  0  0  0
  6  1  1  0  0  0  0
  7  4  1  0  0  0  0
  8  2  1  0  0  0  0
  9 12  1  0  0  0  0
 10  6  1  0  0  0  0
 11  8  1  0  0  0  0
 11  7  1  0  0  0  0
 12 31  1  6  0  0  0
 12  1  1  0  0  0  0
 13  9  1  0  0  0  0
 13 10  2  0  0  0  0
 14  9  2  0  0  0  0
 15 17  1  0  0  0  0
 16 15  2  0  0  0  0
 18 17  1  0  0  0  0
 19 20  2  0  0  0  0
 20 21  1  0  0  0  0
 21 18  1  0  0  0  0
 22 28  2  0  0  0  0
 23 26  2  0  0  0  0
 24 27  1  6  0  0  0
 25 24  1  0  0  0  0
 26 24  1  0  0  0  0
 26 20  1  0  0  0  0
 28 23  1  0  0  0  0
 28 25  1  0  0  0  0
 29 30  1  0  0  0  0
 31 32  1  0  0  0  0
 33 35  1  6  0  0  0
 33 32  1  0  0  0  0
 34 33  1  0  0  0  0
 34 32  1  0  0  0  0
 36 42  2  0  0  0  0
 36 39  1  0  0  0  0
 38 36  1  0  0  0  0
 39 41  2  0  0  0  0
 40 37  2  0  0  0  0
 41 37  1  0  0  0  0
 41 35  1  0  0  0  0
 42 40  1  0  0  0  0
 43 42  1  0  0  0  0
 44 52  2  0  0  0  0
 45 50  2  0  0  0  0
 47 49  1  0  0  0  0
 48 43  1  6  0  0  0
 48 50  1  0  0  0  0
 49 44  1  0  0  0  0
 50 46  2  0  0  0  0
 50 52  1  0  0  0  0
 51 47  1  0  0  0  0
 51 48  1  0  0  0  0
M  END
>  <MODEL>
5

>  <REMARK>
 VINA RESULT:      -7.8      4.007     11.047
  Name = 
  12 active torsions:
  status: ('A' for Active; 'I' for Inactive)
    1  A    between atoms: N_6  and  C_19
    2  A    between atoms: C_8  and  C_21
    3  A    between atoms: C_11  and  C_47
    4  A    between atoms: C_12  and  C_15
    5  A    between atoms: C_15  and  C_45
    6  A    between atoms: C_18  and  C_29
    7  A    between atoms: C_19  and  C_41
    8  A    between atoms: C_20  and  C_21
    9  A    between atoms: C_20  and  N_30
   10  A    between atoms: C_23  and  C_25
   11  A    between atoms: N_33  and  C_34
   12  A    between atoms: N_33  and  C_49
                            x       y       z     vdW  Elec       q    Type
                         _______ _______ _______ _____ _____    ______ ____

>  <TORSDO>
F 12

$$$$
=
 OpenBabel10232411403D

 52 57  0  0  1  0  0  0  0  0999 V2000
  186.8720  174.4280  136.0720 C   0  0  0  0  0  0  0  0  0  0  0  0
  185.3370  177.5080  137.5570 C   0  0  0  0  0  2  0  0  0  0  0  0
  186.9120  170.6250  135.4620 C   0  0  0  0  0  1  0  0  0  0  0  0
  183.5010  175.9530  136.7840 C   0  0  1  0  0  3  0  0  0  0  0  0
  183.9980  177.4050  136.8320 C   0  0  1  0  0  3  0  0  0  0  0  0
  186.5220  173.1620  135.3360 C   0  0  0  0  0  2  0  0  0  0  0  0
  184.4870  175.0950  135.9870 C   0  0  0  0  0  2  0  0  0  0  0  0
  186.3030  176.5850  136.9720 N   0  0  0  0  0  2  0  0  0  0  0  0
  189.0430  173.4560  136.7190 C   0  0  0  0  0  0  0  0  0  0  0  0
  187.3660  172.0020  135.7860 C   0  0  0  0  0  0  0  0  0  0  0  0
  185.9270  175.3300  136.3820 C   0  0  0  0  0  0  0  0  0  0  0  0
  188.3210  174.7170  136.3380 C   0  0  1  0  0  3  0  0  0  0  0  0
  188.5080  172.1700  136.3830 N   0  0  0  0  0  0  0  0  0  0  0  0
  190.1340  173.5270  137.3420 O   0  0  0  0  0  0  0  0  0  0  0  0
  182.0650  175.2730  138.7290 C   0  0  0  0  0  3  0  0  0  0  0  0
  183.2730  175.3670  138.1540 C   0  0  0  0  0  3  0  0  0  0  0  0
  180.7930  175.7460  138.0850 C   0  0  0  0  0  2  0  0  0  0  0  0
  179.9820  176.6290  139.0230 C   0  0  0  0  0  2  0  0  0  0  0  0
  180.6770  179.2140  139.9440 O   0  0  0  0  0  0  0  0  0  0  0  0
  181.0800  178.2350  140.6280 C   0  0  0  0  0  0  0  0  0  0  0  0
  180.7380  176.9050  140.2370 N   0  0  0  0  0  2  0  0  0  0  0  0
  185.4620  178.7050  143.1720 S   0  0  0  0  0  0  0  0  0  0  0  0
  183.2670  178.4510  141.7480 N   0  0  0  0  0  0  0  0  0  0  0  0
  181.4130  178.7410  143.1090 C   0  0  1  0  0  3  0  0  0  0  0  0
  182.7130  178.9350  144.1570 S   0  0  0  0  0  0  0  0  0  0  0  0
  181.9080  178.4820  141.8250 C   0  0  0  0  0  0  0  0  0  0  0  0
  179.9870  178.8310  143.5310 C   0  0  0  0  0  1  0  0  0  0  0  0
  183.8440  178.6820  142.9460 C   0  0  0  0  0  0  0  0  0  0  0  0
  182.9610  178.3870  137.3740 C   0  0  0  0  0  2  0  0  0  0  0  0
  183.5240  179.2520  138.3150 O   0  0  0  0  0  1  0  0  0  0  0  0
  188.9480  175.3620  135.1060 C   0  0  0  0  0  2  0  0  0  0  0  0
  188.5290  176.7570  134.9740 N   0  0  0  0  0  0  0  0  0  0  0  0
  189.1510  177.6560  135.9400 C   0  0  2  0  0  3  0  0  0  0  0  0
  189.6610  177.5050  134.6880 O   0  0  0  0  0  0  0  0  0  0  0  0
  190.1160  177.0160  136.9470 C   0  0  0  0  0  2  0  0  0  0  0  0
  189.6920  176.7200  140.6950 C   0  0  0  0  0  0  0  0  0  0  0  0
  189.0210  178.5020  138.6490 C   0  0  0  0  0  3  0  0  0  0  0  0
  190.0350  175.8500  141.6780 F   0  0  0  0  0  0  0  0  0  0  0  0
  190.0440  176.4350  139.3730 C   0  0  0  0  0  3  0  0  0  0  0  0
  188.6630  178.7840  139.9710 C   0  0  0  0  0  3  0  0  0  0  0  0
  189.7040  177.3190  138.3470 C   0  0  0  0  0  0  0  0  0  0  0  0
  188.9990  177.8980  141.0050 C   0  0  0  0  0  0  0  0  0  0  0  0
  188.6380  178.1590  142.3720 N   0  0  0  0  0  2  0  0  0  0  0  0
  191.0320  176.9210  146.3490 C   0  0  0  0  0  3  0  0  0  0  0  0
  191.0880  179.6690  144.1800 O   0  0  0  0  0  0  0  0  0  0  0  0
  191.8040  177.9220  142.6060 O   0  0  0  0  0  0  0  0  0  0  0  0
  188.5570  176.9130  145.8350 C   0  0  0  0  0  2  0  0  0  0  0  0
  189.3340  177.7530  143.5590 C   0  0  1  0  0  3  0  0  0  0  0  0
  189.6360  177.3390  146.7860 C   0  0  0  0  0  2  0  0  0  0  0  0
  191.0010  178.2070  143.8440 S   0  0  0  0  0  0  0  0  0  0  0  0
  188.7540  177.2980  144.6180 C   0  0  0  0  0  2  0  0  0  0  0  0
  191.6620  177.2400  145.1910 C   0  0  0  0  0  3  0  0  0  0  0  0
  1 12  1  0  0  0  0
  1 11  2  0  0  0  0
  3 10  1  0  0  0  0
  4  5  1  0  0  0  0
  4 16  1  1  0  0  0
  5 29  1  1  0  0  0
  5  2  1  0  0  0  0
  6 10  1  0  0  0  0
  6  1  1  0  0  0  0
  7 11  1  0  0  0  0
  7  4  1  0  0  0  0
  8  2  1  0  0  0  0
  9 14  2  0  0  0  0
 10 13  2  0  0  0  0
 11  8  1  0  0  0  0
 12 31  1  6  0  0  0
 12  9  1  0  0  0  0
 13  9  1  0  0  0  0
 16 15  2  0  0  0  0
 17 15  1  0  0  0  0
 17 18  1  0  0  0  0
 18 21  1  0  0  0  0
 19 20  2  0  0  0  0
 20 26  1  0  0  0  0
 21 20  1  0  0  0  0
 23 26  2  0  0  0  0
 23 28  1  0  0  0  0
 24 27  1  1  0  0  0
 24 25  1  0  0  0  0
 26 24  1  0  0  0  0
 28 22  2  0  0  0  0
 28 25  1  0  0  0  0
 29 30  1  0  0  0  0
 32 31  1  0  0  0  0
 32 33  1  0  0  0  0
 33 35  1  1  0  0  0
 34 32  1  0  0  0  0
 34 33  1  0  0  0  0
 35 41  1  0  0  0  0
 36 42  1  0  0  0  0
 36 38  1  0  0  0  0
 37 40  1  0  0  0  0
 39 36  2  0  0  0  0
 40 42  2  0  0  0  0
 41 37  2  0  0  0  0
 41 39  1  0  0  0  0
 42 43  1  0  0  0  0
 44 49  1  0  0  0  0
 46 50  2  0  0  0  0
 47 49  1  0  0  0  0
 48 43  1  1  0  0  0
 48 50  1  0  0  0  0
 48 51  1  0  0  0  0
 50 45  2  0  0  0  0
 50 52  1  0  0  0  0
 51 47  1  0  0  0  0
 52 44  2  0  0  0  0
M  END
>  <MODEL>
6

>  <REMARK>
 VINA RESULT:      -7.8      3.018      8.034
  Name = 
  12 active torsions:
  status: ('A' for Active; 'I' for Inactive)
    1  A    between atoms: N_6  and  C_19
    2  A    between atoms: C_8  and  C_21
    3  A    between atoms: C_11  and  C_47
    4  A    between atoms: C_12  and  C_15
    5  A    between atoms: C_15  and  C_45
    6  A    between atoms: C_18  and  C_29
    7  A    between atoms: C_19  and  C_41
    8  A    between atoms: C_20  and  C_21
    9  A    between atoms: C_20  and  N_30
   10  A    between atoms: C_23  and  C_25
   11  A    between atoms: N_33  and  C_34
   12  A    between atoms: N_33  and  C_49
                            x       y       z     vdW  Elec       q    Type
                         _______ _______ _______ _____ _____    ______ ____

>  <TORSDO>
F 12

$$$$
=
 OpenBabel10232411403D

 52 57  0  0  1  0  0  0  0  0999 V2000
  186.4160  176.2160  136.5600 C   0  0  0  0  0  0  0  0  0  0  0  0
  184.4920  173.2180  137.7250 C   0  0  0  0  0  2  0  0  0  0  0  0
  189.3080  177.8220  134.5860 C   0  0  0  0  0  1  0  0  0  0  0  0
  185.2620  172.8400  135.3470 C   0  0  1  0  0  3  0  0  0  0  0  0
  184.0970  172.7120  136.3400 C   0  0  1  0  0  3  0  0  0  0  0  0
  187.0700  176.8080  135.3400 C   0  0  0  0  0  2  0  0  0  0  0  0
  185.6350  174.3150  135.1750 C   0  0  0  0  0  2  0  0  0  0  0  0
  185.0310  174.5710  137.6370 N   0  0  0  0  0  2  0  0  0  0  0  0
  187.7380  177.7170  138.0000 C   0  0  0  0  0  0  0  0  0  0  0  0
  188.3500  177.5200  135.6800 C   0  0  0  0  0  0  0  0  0  0  0  0
  185.7510  175.0520  136.4900 C   0  0  0  0  0  0  0  0  0  0  0  0
  186.4180  177.0200  137.8280 C   0  0  1  0  0  3  0  0  0  0  0  0
  188.6070  177.9390  136.8830 N   0  0  0  0  0  0  0  0  0  0  0  0
  188.0870  178.1140  139.1430 O   0  0  0  0  0  0  0  0  0  0  0  0
  187.7190  172.3250  135.3760 C   0  0  0  0  0  3  0  0  0  0  0  0
  186.4670  172.0300  135.7520 C   0  0  0  0  0  3  0  0  0  0  0  0
  188.0780  173.4920  134.5000 C   0  0  0  0  0  2  0  0  0  0  0  0
  189.5840  173.6380  134.3460 C   0  0  0  0  0  2  0  0  0  0  0  0
  191.4640  173.0340  136.3750 O   0  0  0  0  0  0  0  0  0  0  0  0
  191.0280  174.2160  136.3330 C   0  0  0  0  0  0  0  0  0  0  0  0
  190.1010  174.5960  135.3140 N   0  0  0  0  0  2  0  0  0  0  0  0
  190.6110  176.9150  140.6260 S   0  0  0  0  0  0  0  0  0  0  0  0
  190.7170  175.4580  138.4410 N   0  0  0  0  0  0  0  0  0  0  0  0
  192.6700  175.9250  137.2830 C   0  0  1  0  0  3  0  0  0  0  0  0
  192.7580  176.9220  138.6340 S   0  0  0  0  0  0  0  0  0  0  0  0
  191.4800  175.1900  137.3450 C   0  0  0  0  0  0  0  0  0  0  0  0
  193.7110  175.8760  136.2190 C   0  0  0  0  0  1  0  0  0  0  0  0
  191.2890  176.3850  139.2380 C   0  0  0  0  0  0  0  0  0  0  0  0
  183.4800  171.3150  136.3800 C   0  0  0  0  0  2  0  0  0  0  0  0
  182.1990  171.3420  136.9340 O   0  0  0  0  0  1  0  0  0  0  0  0
  185.2650  178.0190  137.8000 C   0  0  0  0  0  2  0  0  0  0  0  0
  184.0370  177.4150  138.3170 N   0  0  0  0  0  0  0  0  0  0  0  0
  183.5560  178.0200  139.5550 C   0  0  2  0  0  3  0  0  0  0  0  0
  183.0680  178.4060  138.3450 O   0  0  0  0  0  0  0  0  0  0  0  0
  184.4040  179.1600  140.1330 C   0  0  0  0  0  2  0  0  0  0  0  0
  184.6120  178.4140  143.8370 C   0  0  0  0  0  0  0  0  0  0  0  0
  186.2930  178.4010  141.6040 C   0  0  0  0  0  3  0  0  0  0  0  0
  183.7800  178.4160  144.9090 F   0  0  0  0  0  0  0  0  0  0  0  0
  184.1170  178.7880  142.5840 C   0  0  0  0  0  3  0  0  0  0  0  0
  186.7890  178.0330  142.8580 C   0  0  0  0  0  3  0  0  0  0  0  0
  184.9560  178.7900  141.4680 C   0  0  0  0  0  0  0  0  0  0  0  0
  185.9530  178.0330  143.9840 C   0  0  0  0  0  0  0  0  0  0  0  0
  186.4370  177.6660  145.2860 N   0  0  0  0  0  2  0  0  0  0  0  0
  190.9510  177.4510  146.9150 C   0  0  0  0  0  3  0  0  0  0  0  0
  187.8670  176.1920  147.9940 O   0  0  0  0  0  0  0  0  0  0  0  0
  187.3880  178.5960  148.1790 O   0  0  0  0  0  0  0  0  0  0  0  0
  190.0020  177.0420  144.6080 C   0  0  0  0  0  2  0  0  0  0  0  0
  187.7970  177.6270  145.7420 C   0  0  1  0  0  3  0  0  0  0  0  0
  190.8710  176.5210  145.7130 C   0  0  0  0  0  2  0  0  0  0  0  0
  188.1890  177.5550  147.4470 S   0  0  0  0  0  0  0  0  0  0  0  0
  188.8060  177.3510  144.9880 C   0  0  0  0  0  2  0  0  0  0  0  0
  189.9250  177.9010  147.6780 C   0  0  0  0  0  3  0  0  0  0  0  0
  1 12  1  0  0  0  0
  3 10  1  0  0  0  0
  4 16  1  1  0  0  0
  4  5  1  0  0  0  0
  5 29  1  1  0  0  0
  5  2  1  0  0  0  0
  6 10  1  0  0  0  0
  6  1  1  0  0  0  0
  7  4  1  0  0  0  0
  7 11  1  0  0  0  0
  8  2  1  0  0  0  0
  9 14  2  0  0  0  0
 10 13  2  0  0  0  0
 11  1  2  0  0  0  0
 11  8  1  0  0  0  0
 12 31  1  6  0  0  0
 12  9  1  0  0  0  0
 13  9  1  0  0  0  0
 15 16  2  0  0  0  0
 17 15  1  0  0  0  0
 18 17  1  0  0  0  0
 18 21  1  0  0  0  0
 20 19  2  0  0  0  0
 20 26  1  0  0  0  0
 21 20  1  0  0  0  0
 23 28  1  0  0  0  0
 24 27  1  6  0  0  0
 24 26  1  0  0  0  0
 24 25  1  0  0  0  0
 25 28  1  0  0  0  0
 26 23  2  0  0  0  0
 28 22  2  0  0  0  0
 29 30  1  0  0  0  0
 31 32  1  0  0  0  0
 32 34  1  0  0  0  0
 32 33  1  0  0  0  0
 33 35  1  6  0  0  0
 34 33  1  0  0  0  0
 35 41  1  0  0  0  0
 36 42  1  0  0  0  0
 36 38  1  0  0  0  0
 37 40  1  0  0  0  0
 39 36  2  0  0  0  0
 40 42  2  0  0  0  0
 41 37  2  0  0  0  0
 41 39  1  0  0  0  0
 42 43  1  0  0  0  0
 44 52  2  0  0  0  0
 47 51  1  0  0  0  0
 47 49  1  0  0  0  0
 48 43  1  1  0  0  0
 48 50  1  0  0  0  0
 49 44  1  0  0  0  0
 50 52  1  0  0  0  0
 50 45  2  0  0  0  0
 50 46  2  0  0  0  0
 51 48  1  0  0  0  0
M  END
>  <MODEL>
7

>  <REMARK>
 VINA RESULT:      -7.5      2.849      4.450
  Name = 
  12 active torsions:
  status: ('A' for Active; 'I' for Inactive)
    1  A    between atoms: N_6  and  C_19
    2  A    between atoms: C_8  and  C_21
    3  A    between atoms: C_11  and  C_47
    4  A    between atoms: C_12  and  C_15
    5  A    between atoms: C_15  and  C_45
    6  A    between atoms: C_18  and  C_29
    7  A    between atoms: C_19  and  C_41
    8  A    between atoms: C_20  and  C_21
    9  A    between atoms: C_20  and  N_30
   10  A    between atoms: C_23  and  C_25
   11  A    between atoms: N_33  and  C_34
   12  A    between atoms: N_33  and  C_49
                            x       y       z     vdW  Elec       q    Type
                         _______ _______ _______ _____ _____    ______ ____

>  <TORSDO>
F 12

$$$$
=
 OpenBabel10232411403D

 52 57  0  0  1  0  0  0  0  0999 V2000
  189.2590  177.6230  145.3790 C   0  0  0  0  0  0  0  0  0  0  0  0
  187.3800  177.6000  142.1360 C   0  0  0  0  0  2  0  0  0  0  0  0
  192.3630  176.7750  147.4960 C   0  0  0  0  0  1  0  0  0  0  0  0
  189.8350  177.9840  141.6730 C   0  0  1  0  0  3  0  0  0  0  0  0
  188.3980  178.4090  141.3360 C   0  0  1  0  0  3  0  0  0  0  0  0
  190.6250  177.8790  145.9600 C   0  0  0  0  0  2  0  0  0  0  0  0
  190.1260  178.2680  143.1490 C   0  0  0  0  0  2  0  0  0  0  0  0
  187.6850  177.6680  143.5610 N   0  0  0  0  0  2  0  0  0  0  0  0
  188.6260  176.3780  147.4100 C   0  0  0  0  0  0  0  0  0  0  0  0
  190.9470  176.9240  147.0750 C   0  0  0  0  0  0  0  0  0  0  0  0
  189.0230  177.7980  144.0690 C   0  0  0  0  0  0  0  0  0  0  0  0
  188.1380  177.2900  146.3200 C   0  0  1  0  0  3  0  0  0  0  0  0
  190.0210  176.2840  147.7240 N   0  0  0  0  0  0  0  0  0  0  0  0
  187.7990  175.6850  148.0570 O   0  0  0  0  0  0  0  0  0  0  0  0
  190.7760  176.1400  140.2520 C   0  0  0  0  0  3  0  0  0  0  0  0
  190.1090  176.5390  141.3450 C   0  0  0  0  0  3  0  0  0  0  0  0
  191.3240  177.0790  139.2170 C   0  0  0  0  0  2  0  0  0  0  0  0
  191.1200  176.5440  137.8070 C   0  0  0  0  0  2  0  0  0  0  0  0
  189.3470  176.8550  135.6210 O   0  0  0  0  0  0  0  0  0  0  0  0
  188.9600  176.1250  136.5740 C   0  0  0  0  0  0  0  0  0  0  0  0
  189.8190  175.9020  137.6930 N   0  0  0  0  0  2  0  0  0  0  0  0
  185.6630  172.3070  135.9090 S   0  0  0  0  0  0  0  0  0  0  0  0
  187.4630  174.1930  136.2410 N   0  0  0  0  0  0  0  0  0  0  0  0
  186.4110  176.2030  136.7160 C   0  0  1  0  0  3  0  0  0  0  0  0
  185.1390  175.1190  136.5370 S   0  0  0  0  0  0  0  0  0  0  0  0
  187.6150  175.5170  136.5190 C   0  0  0  0  0  0  0  0  0  0  0  0
  186.2310  177.6500  137.0230 C   0  0  0  0  0  1  0  0  0  0  0  0
  186.1630  173.8300  136.2180 C   0  0  0  0  0  0  0  0  0  0  0  0
  188.0970  178.4120  139.8380 C   0  0  0  0  0  2  0  0  0  0  0  0
  188.9910  179.2290  139.1430 O   0  0  0  0  0  1  0  0  0  0  0  0
  187.5570  178.5780  146.8970 C   0  0  0  0  0  2  0  0  0  0  0  0
  186.2470  178.3360  147.5030 N   0  0  0  0  0  0  0  0  0  0  0  0
  185.1260  178.7980  146.6910 C   0  0  2  0  0  3  0  0  0  0  0  0
  185.5420  177.5040  146.6480 O   0  0  0  0  0  0  0  0  0  0  0  0
  185.4780  179.4750  145.3610 C   0  0  0  0  0  2  0  0  0  0  0  0
  183.7660  178.8570  142.0430 C   0  0  0  0  0  0  0  0  0  0  0  0
  183.0690  179.1350  144.7360 C   0  0  0  0  0  3  0  0  0  0  0  0
  184.1220  178.7150  140.7420 F   0  0  0  0  0  0  0  0  0  0  0  0
  184.7530  179.1020  143.0020 C   0  0  0  0  0  3  0  0  0  0  0  0
  182.0810  178.8960  143.7770 C   0  0  0  0  0  3  0  0  0  0  0  0
  184.4080  179.2480  144.3470 C   0  0  0  0  0  0  0  0  0  0  0  0
  182.4200  178.7520  142.4230 C   0  0  0  0  0  0  0  0  0  0  0  0
  181.4250  178.5140  141.4150 N   0  0  0  0  0  2  0  0  0  0  0  0
  181.8570  178.6440  136.6320 C   0  0  0  0  0  3  0  0  0  0  0  0
  180.2480  176.5330  138.9160 O   0  0  0  0  0  0  0  0  0  0  0  0
  182.5750  176.1540  139.6140 O   0  0  0  0  0  0  0  0  0  0  0  0
  181.2460  180.4520  138.2890 C   0  0  0  0  0  2  0  0  0  0  0  0
  181.5800  178.5850  139.9900 C   0  0  1  0  0  3  0  0  0  0  0  0
  180.8830  179.7470  137.0170 C   0  0  0  0  0  2  0  0  0  0  0  0
  181.6200  177.1410  139.0010 S   0  0  0  0  0  0  0  0  0  0  0  0
  181.4100  179.6590  139.2950 C   0  0  0  0  0  2  0  0  0  0  0  0
  182.1980  177.5530  137.3630 C   0  0  0  0  0  3  0  0  0  0  0  0
  1  6  1  0  0  0  0
  1 12  1  0  0  0  0
  2  8  1  0  0  0  0
  4 16  1  1  0  0  0
  4  7  1  0  0  0  0
  5 29  1  6  0  0  0
  5  4  1  0  0  0  0
  5  2  1  0  0  0  0
  6 10  1  0  0  0  0
  7 11  1  0  0  0  0
  8 11  1  0  0  0  0
  9 13  1  0  0  0  0
  9 14  2  0  0  0  0
 10  3  1  0  0  0  0
 10 13  2  0  0  0  0
 11  1  2  0  0  0  0
 12 31  1  1  0  0  0
 12  9  1  0  0  0  0
 15 16  2  0  0  0  0
 17 15  1  0  0  0  0
 18 17  1  0  0  0  0
 19 20  2  0  0  0  0
 20 21  1  0  0  0  0
 21 18  1  0  0  0  0
 22 28  2  0  0  0  0
 23 26  2  0  0  0  0
 24 27  1  6  0  0  0
 25 24  1  0  0  0  0
 26 20  1  0  0  0  0
 26 24  1  0  0  0  0
 28 23  1  0  0  0  0
 28 25  1  0  0  0  0
 30 29  1  0  0  0  0
 31 32  1  0  0  0  0
 33 35  1  6  0  0  0
 33 32  1  0  0  0  0
 34 33  1  0  0  0  0
 34 32  1  0  0  0  0
 36 42  2  0  0  0  0
 36 39  1  0  0  0  0
 38 36  1  0  0  0  0
 39 41  2  0  0  0  0
 40 37  2  0  0  0  0
 41 37  1  0  0  0  0
 41 35  1  0  0  0  0
 42 40  1  0  0  0  0
 43 42  1  0  0  0  0
 44 49  1  0  0  0  0
 44 52  2  0  0  0  0
 45 50  2  0  0  0  0
 47 51  1  0  0  0  0
 48 43  1  1  0  0  0
 49 47  1  0  0  0  0
 50 46  2  0  0  0  0
 50 48  1  0  0  0  0
 51 48  1  0  0  0  0
 52 50  1  0  0  0  0
M  END
>  <MODEL>
8

>  <REMARK>
 VINA RESULT:      -7.4      3.878      8.806
  Name = 
  12 active torsions:
  status: ('A' for Active; 'I' for Inactive)
    1  A    between atoms: N_6  and  C_19
    2  A    between atoms: C_8  and  C_21
    3  A    between atoms: C_11  and  C_47
    4  A    between atoms: C_12  and  C_15
    5  A    between atoms: C_15  and  C_45
    6  A    between atoms: C_18  and  C_29
    7  A    between atoms: C_19  and  C_41
    8  A    between atoms: C_20  and  C_21
    9  A    between atoms: C_20  and  N_30
   10  A    between atoms: C_23  and  C_25
   11  A    between atoms: N_33  and  C_34
   12  A    between atoms: N_33  and  C_49
                            x       y       z     vdW  Elec       q    Type
                         _______ _______ _______ _____ _____    ______ ____

>  <TORSDO>
F 12

$$$$
=
 OpenBabel10232411403D

 52 57  0  0  1  0  0  0  0  0999 V2000
  183.3150  177.8040  137.9490 C   0  0  0  0  0  0  0  0  0  0  0  0
  186.9590  178.4090  137.3130 C   0  0  0  0  0  2  0  0  0  0  0  0
  179.9820  176.0570  137.1260 C   0  0  0  0  0  1  0  0  0  0  0  0
  186.4420  175.9660  136.9250 C   0  0  1  0  0  3  0  0  0  0  0  0
  187.4210  176.9730  137.5460 C   0  0  1  0  0  3  0  0  0  0  0  0
  182.2930  176.7030  138.0470 C   0  0  0  0  0  2  0  0  0  0  0  0
  185.0730  176.0920  137.5990 C   0  0  0  0  0  2  0  0  0  0  0  0
  185.5840  178.5820  137.7690 N   0  0  0  0  0  2  0  0  0  0  0  0
  181.5130  179.4540  137.6280 C   0  0  0  0  0  0  0  0  0  0  0  0
  180.9700  177.1140  137.4630 C   0  0  0  0  0  0  0  0  0  0  0  0
  184.6110  177.5250  137.7350 C   0  0  0  0  0  0  0  0  0  0  0  0
  182.8710  179.2120  138.2210 C   0  0  1  0  0  3  0  0  0  0  0  0
  180.6400  178.3620  137.3120 N   0  0  0  0  0  0  0  0  0  0  0  0
  181.1320  180.6330  137.4050 O   0  0  0  0  0  0  0  0  0  0  0  0
  185.3040  175.6060  134.7160 C   0  0  0  0  0  3  0  0  0  0  0  0
  186.3150  176.1190  135.4310 C   0  0  0  0  0  3  0  0  0  0  0  0
  184.1770  174.8100  135.3110 C   0  0  0  0  0  2  0  0  0  0  0  0
  183.9780  173.4870  134.5850 C   0  0  0  0  0  2  0  0  0  0  0  0
  185.1210  171.4930  136.2390 O   0  0  0  0  0  0  0  0  0  0  0  0
  185.7940  171.8630  135.2390 C   0  0  0  0  0  0  0  0  0  0  0  0
  185.2620  172.8430  134.3470 N   0  0  0  0  0  2  0  0  0  0  0  0
  190.8300  172.0370  134.5290 S   0  0  0  0  0  0  0  0  0  0  0  0
  188.2310  172.0760  134.9170 N   0  0  0  0  0  0  0  0  0  0  0  0
  187.3980  169.9130  134.8540 C   0  0  1  0  0  3  0  0  0  0  0  0
  189.0470  169.7150  134.5950 S   0  0  0  0  0  0  0  0  0  0  0  0
  187.1310  171.2790  135.0110 C   0  0  0  0  0  0  0  0  0  0  0  0
  186.4230  168.7880  134.8900 C   0  0  0  0  0  1  0  0  0  0  0  0
  189.3530  171.3610  134.6910 C   0  0  0  0  0  0  0  0  0  0  0  0
  188.8730  176.7490  137.1300 C   0  0  0  0  0  2  0  0  0  0  0  0
  189.6050  177.9360  137.1820 O   0  0  0  0  0  1  0  0  0  0  0  0
  182.8710  179.4640  139.7260 C   0  0  0  0  0  2  0  0  0  0  0  0
  182.1880  178.3850  140.4380 N   0  0  0  0  0  0  0  0  0  0  0  0
  182.5030  178.3230  141.8620 C   0  0  2  0  0  3  0  0  0  0  0  0
  181.3930  178.9680  141.4130 O   0  0  0  0  0  0  0  0  0  0  0  0
  183.5020  179.3640  142.3860 C   0  0  0  0  0  2  0  0  0  0  0  0
  187.0790  178.2290  141.9050 C   0  0  0  0  0  0  0  0  0  0  0  0
  185.1140  178.1620  143.8910 C   0  0  0  0  0  3  0  0  0  0  0  0
  188.0250  178.2800  140.9340 F   0  0  0  0  0  0  0  0  0  0  0  0
  185.8180  178.7800  141.6630 C   0  0  0  0  0  3  0  0  0  0  0  0
  186.3730  177.6060  144.1320 C   0  0  0  0  0  3  0  0  0  0  0  0
  184.8310  178.7420  142.6500 C   0  0  0  0  0  0  0  0  0  0  0  0
  187.3680  177.6370  143.1420 C   0  0  0  0  0  0  0  0  0  0  0  0
  188.6690  177.0670  143.3590 N   0  0  0  0  0  2  0  0  0  0  0  0
  191.1060  176.6530  147.4780 C   0  0  0  0  0  3  0  0  0  0  0  0
  191.5810  178.4100  144.4860 O   0  0  0  0  0  0  0  0  0  0  0  0
  191.6970  176.1160  143.6080 O   0  0  0  0  0  0  0  0  0  0  0  0
  188.6590  177.1120  147.0400 C   0  0  0  0  0  2  0  0  0  0  0  0
  189.3690  176.9160  144.6020 C   0  0  1  0  0  3  0  0  0  0  0  0
  189.9010  177.5370  147.7650 C   0  0  0  0  0  2  0  0  0  0  0  0
  191.1170  176.9940  144.6830 S   0  0  0  0  0  0  0  0  0  0  0  0
  188.8130  177.0050  145.7620 C   0  0  0  0  0  2  0  0  0  0  0  0
  191.6690  176.3950  146.2710 C   0  0  0  0  0  3  0  0  0  0  0  0
  1  6  1  0  0  0  0
  1 12  1  0  0  0  0
  2  5  1  0  0  0  0
  2  8  1  0  0  0  0
  3 10  1  0  0  0  0
  4 16  1  6  0  0  0
  4  5  1  0  0  0  0
  4  7  1  0  0  0  0
  5 29  1  6  0  0  0
  7 11  1  0  0  0  0
  9 12  1  0  0  0  0
 10  6  1  0  0  0  0
 11  8  1  0  0  0  0
 11  1  2  0  0  0  0
 12 31  1  1  0  0  0
 13 10  2  0  0  0  0
 13  9  1  0  0  0  0
 14  9  2  0  0  0  0
 15 17  1  0  0  0  0
 15 16  2  0  0  0  0
 18 17  1  0  0  0  0
 20 19  2  0  0  0  0
 21 18  1  0  0  0  0
 21 20  1  0  0  0  0
 22 28  2  0  0  0  0
 23 26  2  0  0  0  0
 24 27  1  6  0  0  0
 24 26  1  0  0  0  0
 25 28  1  0  0  0  0
 25 24  1  0  0  0  0
 26 20  1  0  0  0  0
 28 23  1  0  0  0  0
 29 30  1  0  0  0  0
 31 32  1  0  0  0  0
 32 34  1  0  0  0  0
 32 33  1  0  0  0  0
 33 35  1  6  0  0  0
 34 33  1  0  0  0  0
 35 41  1  0  0  0  0
 36 42  1  0  0  0  0
 37 40  1  0  0  0  0
 38 36  1  0  0  0  0
 39 36  2  0  0  0  0
 39 41  1  0  0  0  0
 41 37  2  0  0  0  0
 42 43  1  0  0  0  0
 42 40  2  0  0  0  0
 44 49  1  0  0  0  0
 45 50  2  0  0  0  0
 46 50  2  0  0  0  0
 47 49  1  0  0  0  0
 48 43  1  6  0  0  0
 48 50  1  0  0  0  0
 48 51  1  0  0  0  0
 50 52  1  0  0  0  0
 51 47  1  0  0  0  0
 52 44  2  0  0  0  0
M  END
>  <MODEL>
9

>  <REMARK>
 VINA RESULT:      -7.3      2.721      3.585
  Name = 
  12 active torsions:
  status: ('A' for Active; 'I' for Inactive)
    1  A    between atoms: N_6  and  C_19
    2  A    between atoms: C_8  and  C_21
    3  A    between atoms: C_11  and  C_47
    4  A    between atoms: C_12  and  C_15
    5  A    between atoms: C_15  and  C_45
    6  A    between atoms: C_18  and  C_29
    7  A    between atoms: C_19  and  C_41
    8  A    between atoms: C_20  and  C_21
    9  A    between atoms: C_20  and  N_30
   10  A    between atoms: C_23  and  C_25
   11  A    between atoms: N_33  and  C_34
   12  A    between atoms: N_33  and  C_49
                            x       y       z     vdW  Elec       q    Type
                         _______ _______ _______ _____ _____    ______ ____

>  <TORSDO>
F 12

$$$$
