=
 OpenBabel10232412093D

 39 40  0  0  1  0  0  0  0  0999 V2000
  189.4160  177.7340  140.6590 C   0  0  2  0  0  3  0  0  0  0  0  0
  192.9060  176.4750  138.4550 C   0  0  0  0  0  0  0  0  0  0  0  0
  191.6260  176.2520  137.9230 C   0  0  0  0  0  3  0  0  0  0  0  0
  190.6180  177.2900  139.8730 C   0  0  0  0  0  0  0  0  0  0  0  0
  190.4890  176.6550  138.6280 C   0  0  0  0  0  3  0  0  0  0  0  0
  191.8930  177.5150  140.4020 C   0  0  0  0  0  3  0  0  0  0  0  0
  193.0300  177.1090  139.6970 C   0  0  0  0  0  3  0  0  0  0  0  0
  195.8030  174.5040  137.0010 O   0  0  0  0  0  0  0  0  0  0  0  0
  194.5950  174.7230  137.6510 C   0  0  0  0  0  0  0  0  0  0  0  0
  194.0950  176.0620  137.7680 N   0  0  0  0  0  2  0  0  0  0  0  0
  193.9510  173.7400  138.1090 O   0  0  0  0  0  1  0  0  0  0  0  0
  188.3410  178.4010  139.8470 C   0  0  0  0  0  0  0  0  0  0  0  0
  188.6780  179.1650  138.9000 O   0  0  0  0  0  0  0  0  0  0  0  0
  186.9560  178.1670  140.1330 N   0  0  0  0  0  0  0  0  0  0  0  0
  186.2910  178.8960  140.9720 C   0  0  0  0  0  3  0  0  0  0  0  0
  184.8580  178.5960  141.2590 C   0  0  0  0  0  2  0  0  0  0  0  0
  184.6310  178.3290  142.7420 C   0  0  0  0  0  2  0  0  0  0  0  0
  182.2080  178.8040  142.1990 N   0  0  0  0  0  2  0  0  0  0  0  0
  183.2640  178.7660  143.1610 C   0  0  0  0  0  0  0  0  0  0  0  0
  183.0460  179.0760  144.3660 O   0  0  0  0  0  0  0  0  0  0  0  0
  180.8530  179.1950  142.5600 C   0  0  0  0  0  1  0  0  0  0  0  0
  189.7640  178.4710  141.9570 C   0  0  0  0  0  2  0  0  0  0  0  0
  189.4450  177.6720  143.2180 C   0  0  1  0  0  3  0  0  0  0  0  0
  187.4420  176.2460  143.4520 C   0  0  0  0  0  2  0  0  0  0  0  0
  188.6250  176.4570  142.8790 C   0  0  0  0  0  3  0  0  0  0  0  0
  191.4710  178.6450  144.3070 C   0  0  0  0  0  1  0  0  0  0  0  0
  190.7330  177.3520  143.9970 C   0  0  1  0  0  3  0  0  0  0  0  0
  189.4670  177.1600  146.1540 C   0  0  0  0  0  3  0  0  0  0  0  0
  191.6940  176.5560  146.1270 N   0  0  0  0  0  0  0  0  0  0  0  0
  190.5080  176.5280  145.2770 C   0  0  2  0  0  3  0  0  0  0  0  0
  190.0730  177.4590  147.2880 C   0  0  0  0  0  0  0  0  0  0  0  0
  191.4390  177.0820  147.2520 N   0  0  0  0  0  0  0  0  0  0  0  0
  188.0750  178.1830  148.5670 C   0  0  0  0  0  3  0  0  0  0  0  0
  189.3970  178.0740  148.4390 C   0  0  0  0  0  3  0  0  0  0  0  0
  187.1980  177.7000  147.6020 O   0  0  0  0  0  0  0  0  0  0  0  0
  185.9970  178.7230  146.9330 P   0  0  0  0  0  0  0  0  0  0  0  0
  184.6360  178.0910  147.1200 O   0  0  0  0  0  1  0  0  0  0  0  0
  186.2920  178.9490  145.2830 O   0  0  0  0  0  0  0  0  0  0  0  0
  186.0350  180.2180  147.7210 O   0  0  0  0  0  1  0  0  0  0  0  0
  1 22  1  1  0  0  0
  2  7  1  0  0  0  0
  3  2  2  0  0  0  0
  3  5  1  0  0  0  0
  4  6  1  0  0  0  0
  4  1  1  0  0  0  0
  5  4  2  0  0  0  0
  7  6  2  0  0  0  0
  8  9  2  0  0  0  0
  9 10  1  0  0  0  0
  9 11  1  0  0  0  0
 10  2  1  0  0  0  0
 12 14  1  0  0  0  0
 12  1  1  0  0  0  0
 13 12  2  0  0  0  0
 14 15  2  0  0  0  0
 15 16  1  0  0  0  0
 16 17  1  0  0  0  0
 17 19  1  0  0  0  0
 18 21  1  0  0  0  0
 18 19  1  0  0  0  0
 19 20  2  0  0  0  0
 23 22  1  6  0  0  0
 23 27  1  0  0  0  0
 25 23  1  0  0  0  0
 25 24  2  0  0  0  0
 27 26  1  1  0  0  0
 28 31  2  0  0  0  0
 29 32  2  0  0  0  0
 30 27  1  6  0  0  0
 30 29  1  0  0  0  0
 30 28  1  0  0  0  0
 31 34  1  0  0  0  0
 32 31  1  0  0  0  0
 34 33  2  0  0  0  0
 35 33  1  0  0  0  0
 36 37  1  0  0  0  0
 36 35  1  0  0  0  0
 36 39  1  0  0  0  0
 38 36  2  0  0  0  0
M  END
>  <MODEL>
1

>  <REMARK>
 VINA RESULT:      -7.9      0.000      0.000
  Name = 
  15 active torsions:
  status: ('A' for Active; 'I' for Inactive)
    1  A    between atoms: C_1  and  O_5
    2  A    between atoms: C_2  and  N_21
    3  A    between atoms: O_5  and  P_7
    4  A    between atoms: C_12  and  C_35
    5  A    between atoms: C_13  and  C_15
    6  A    between atoms: C_15  and  C_35
    7  A    between atoms: C_16  and  C_25
    8  A    between atoms: C_16  and  C_37
    9  A    between atoms: C_17  and  C_19
   10  A    between atoms: C_18  and  C_31
   11  A    between atoms: C_18  and  C_35
   12  A    between atoms: C_22  and  C_25
   13  A    between atoms: C_23  and  C_31
   14  A    between atoms: N_28  and  C_32
   15  A    between atoms: C_31  and  C_32
                            x       y       z     vdW  Elec       q    Type
                         _______ _______ _______ _____ _____    ______ ____

>  <TORSDO>
F 15

$$$$
=
 OpenBabel10232412093D

 39 40  0  0  1  0  0  0  0  0999 V2000
  189.9620  177.1640  140.6290 C   0  0  2  0  0  3  0  0  0  0  0  0
  186.4200  177.9510  142.9650 C   0  0  0  0  0  0  0  0  0  0  0  0
  187.3020  176.9320  143.3560 C   0  0  0  0  0  3  0  0  0  0  0  0
  188.7350  177.4230  141.4590 C   0  0  0  0  0  0  0  0  0  0  0  0
  188.4520  176.6690  142.6080 C   0  0  0  0  0  3  0  0  0  0  0  0
  187.8580  178.4410  141.0700 C   0  0  0  0  0  3  0  0  0  0  0  0
  186.7070  178.7020  141.8180 C   0  0  0  0  0  3  0  0  0  0  0  0
  183.8930  178.8910  145.6340 O   0  0  0  0  0  0  0  0  0  0  0  0
  185.1410  178.7210  145.0490 C   0  0  0  0  0  0  0  0  0  0  0  0
  185.2230  178.2420  143.6990 N   0  0  0  0  0  2  0  0  0  0  0  0
  186.1770  179.0070  145.7070 O   0  0  0  0  0  1  0  0  0  0  0  0
  191.2660  177.3820  141.3430 C   0  0  0  0  0  0  0  0  0  0  0  0
  192.2930  177.6650  140.6650 O   0  0  0  0  0  0  0  0  0  0  0  0
  191.3450  177.2830  142.7710 N   0  0  0  0  0  0  0  0  0  0  0  0
  191.4940  178.3230  143.5280 C   0  0  0  0  0  3  0  0  0  0  0  0
  191.6010  178.1680  145.0080 C   0  0  0  0  0  2  0  0  0  0  0  0
  191.0260  176.8360  145.4730 C   0  0  0  0  0  2  0  0  0  0  0  0
  188.9320  177.1630  146.8510 N   0  0  0  0  0  2  0  0  0  0  0  0
  190.3490  176.9770  146.7970 C   0  0  0  0  0  0  0  0  0  0  0  0
  191.0270  176.9060  147.8600 O   0  0  0  0  0  0  0  0  0  0  0  0
  188.2190  177.2780  148.1150 C   0  0  0  0  0  1  0  0  0  0  0  0
  189.9050  177.7890  139.2310 C   0  0  0  0  0  2  0  0  0  0  0  0
  189.6700  176.7740  138.1160 C   0  0  1  0  0  3  0  0  0  0  0  0
  188.4610  178.5100  136.8430 C   0  0  0  0  0  2  0  0  0  0  0  0
  189.2920  177.4710  136.8380 C   0  0  0  0  0  3  0  0  0  0  0  0
  190.4250  174.5020  137.4040 C   0  0  0  0  0  1  0  0  0  0  0  0
  190.8820  175.8350  137.9750 C   0  0  1  0  0  3  0  0  0  0  0  0
  192.5530  175.4230  136.1490 C   0  0  0  0  0  3  0  0  0  0  0  0
  193.2100  176.6560  137.9860 N   0  0  0  0  0  0  0  0  0  0  0  0
  192.0390  176.4210  137.1470 C   0  0  2  0  0  3  0  0  0  0  0  0
  193.8150  175.2020  136.4670 C   0  0  0  0  0  0  0  0  0  0  0  0
  194.2000  175.9660  137.5970 N   0  0  0  0  0  0  0  0  0  0  0  0
  196.0250  174.2670  135.8410 C   0  0  0  0  0  3  0  0  0  0  0  0
  194.7000  174.3000  135.7160 C   0  0  0  0  0  3  0  0  0  0  0  0
  196.7040  175.0980  136.7270 O   0  0  0  0  0  0  0  0  0  0  0  0
  197.4870  174.4430  138.1030 P   0  0  0  0  0  0  0  0  0  0  0  0
  198.1410  175.5570  138.8880 O   0  0  0  0  0  1  0  0  0  0  0  0
  198.6640  173.3300  137.6150 O   0  0  0  0  0  0  0  0  0  0  0  0
  196.3460  173.6640  139.0760 O   0  0  0  0  0  1  0  0  0  0  0  0
  1 22  1  6  0  0  0
  1 12  1  0  0  0  0
  1  4  1  0  0  0  0
  2  3  1  0  0  0  0
  2 10  1  0  0  0  0
  4  5  1  0  0  0  0
  5  3  2  0  0  0  0
  6  4  2  0  0  0  0
  6  7  1  0  0  0  0
  7  2  2  0  0  0  0
  9  8  2  0  0  0  0
  9 11  1  0  0  0  0
 10  9  1  0  0  0  0
 12 14  1  0  0  0  0
 13 12  2  0  0  0  0
 14 15  2  0  0  0  0
 15 16  1  0  0  0  0
 16 17  1  0  0  0  0
 17 19  1  0  0  0  0
 18 21  1  0  0  0  0
 19 18  1  0  0  0  0
 19 20  2  0  0  0  0
 23 25  1  6  0  0  0
 23 22  1  0  0  0  0
 25 24  2  0  0  0  0
 27 26  1  6  0  0  0
 27 23  1  0  0  0  0
 28 31  2  0  0  0  0
 28 30  1  0  0  0  0
 30 27  1  1  0  0  0
 30 29  1  0  0  0  0
 31 32  1  0  0  0  0
 32 29  2  0  0  0  0
 33 35  1  0  0  0  0
 34 33  2  0  0  0  0
 34 31  1  0  0  0  0
 35 36  1  0  0  0  0
 36 37  1  0  0  0  0
 36 39  1  0  0  0  0
 38 36  2  0  0  0  0
M  END
>  <MODEL>
2

>  <REMARK>
 VINA RESULT:      -7.9      3.142      9.739
  Name = 
  15 active torsions:
  status: ('A' for Active; 'I' for Inactive)
    1  A    between atoms: C_1  and  O_5
    2  A    between atoms: C_2  and  N_21
    3  A    between atoms: O_5  and  P_7
    4  A    between atoms: C_12  and  C_35
    5  A    between atoms: C_13  and  C_15
    6  A    between atoms: C_15  and  C_35
    7  A    between atoms: C_16  and  C_25
    8  A    between atoms: C_16  and  C_37
    9  A    between atoms: C_17  and  C_19
   10  A    between atoms: C_18  and  C_31
   11  A    between atoms: C_18  and  C_35
   12  A    between atoms: C_22  and  C_25
   13  A    between atoms: C_23  and  C_31
   14  A    between atoms: N_28  and  C_32
   15  A    between atoms: C_31  and  C_32
                            x       y       z     vdW  Elec       q    Type
                         _______ _______ _______ _____ _____    ______ ____

>  <TORSDO>
F 15

$$$$
=
 OpenBabel10232412093D

 39 40  0  0  1  0  0  0  0  0999 V2000
  188.9110  177.8740  140.8710 C   0  0  2  0  0  3  0  0  0  0  0  0
  191.1960  177.2500  144.4770 C   0  0  0  0  0  0  0  0  0  0  0  0
  190.8210  176.1500  143.6900 C   0  0  0  0  0  3  0  0  0  0  0  0
  189.7100  177.6340  142.1220 C   0  0  0  0  0  0  0  0  0  0  0  0
  190.0820  176.3410  142.5200 C   0  0  0  0  0  3  0  0  0  0  0  0
  190.0850  178.7300  142.9040 C   0  0  0  0  0  3  0  0  0  0  0  0
  190.8230  178.5390  144.0760 C   0  0  0  0  0  3  0  0  0  0  0  0
  192.2800  176.6510  148.0630 O   0  0  0  0  0  1  0  0  0  0  0  0
  191.4260  176.6910  146.9690 C   0  0  0  0  0  0  0  0  0  0  0  0
  191.9430  177.0940  145.6920 N   0  0  0  0  0  2  0  0  0  0  0  0
  190.2200  176.3550  147.1110 O   0  0  0  0  0  0  0  0  0  0  0  0
  187.4750  178.2550  141.1010 C   0  0  0  0  0  0  0  0  0  0  0  0
  186.7940  178.6830  140.1270 O   0  0  0  0  0  0  0  0  0  0  0  0
  186.8820  178.1260  142.3990 N   0  0  0  0  0  0  0  0  0  0  0  0
  185.7260  178.6360  142.6840 C   0  0  0  0  0  3  0  0  0  0  0  0
  185.1620  178.5010  144.0580 C   0  0  0  0  0  2  0  0  0  0  0  0
  186.0480  177.6330  144.9430 C   0  0  0  0  0  2  0  0  0  0  0  0
  187.3510  177.8290  147.1000 N   0  0  0  0  0  2  0  0  0  0  0  0
  186.2780  178.2800  146.2700 C   0  0  0  0  0  0  0  0  0  0  0  0
  185.5410  179.2370  146.6380 O   0  0  0  0  0  0  0  0  0  0  0  0
  187.6370  178.4430  148.3890 C   0  0  0  0  0  1  0  0  0  0  0  0
  189.1050  176.7960  139.7980 C   0  0  0  0  0  2  0  0  0  0  0  0
  189.4900  177.3570  138.4320 C   0  0  1  0  0  3  0  0  0  0  0  0
  188.8830  179.4520  137.2750 C   0  0  0  0  0  2  0  0  0  0  0  0
  189.2740  178.8450  138.3920 C   0  0  0  0  0  3  0  0  0  0  0  0
  191.6980  176.5950  139.3180 C   0  0  0  0  0  1  0  0  0  0  0  0
  190.9190  176.9280  138.0550 C   0  0  1  0  0  3  0  0  0  0  0  0
  189.6860  175.6150  136.3080 C   0  0  0  0  0  3  0  0  0  0  0  0
  191.1000  174.4860  137.7400 N   0  0  0  0  0  0  0  0  0  0  0  0
  190.9840  175.7660  137.0470 C   0  0  2  0  0  3  0  0  0  0  0  0
  189.2300  174.4130  136.6060 C   0  0  0  0  0  0  0  0  0  0  0  0
  190.1100  173.7350  137.4860 N   0  0  0  0  0  0  0  0  0  0  0  0
  186.7730  174.3620  136.2750 C   0  0  0  0  0  3  0  0  0  0  0  0
  187.9850  173.8530  136.0610 C   0  0  0  0  0  3  0  0  0  0  0  0
  186.5770  175.5050  137.0430 O   0  0  0  0  0  0  0  0  0  0  0  0
  185.8180  176.8850  136.3670 P   0  0  0  0  0  0  0  0  0  0  0  0
  185.5860  177.9140  137.4510 O   0  0  0  0  0  1  0  0  0  0  0  0
  184.3370  176.4430  135.6810 O   0  0  0  0  0  1  0  0  0  0  0  0
  186.8180  177.5420  135.1730 O   0  0  0  0  0  0  0  0  0  0  0  0
  1 22  1  6  0  0  0
  1 12  1  0  0  0  0
  1  4  1  0  0  0  0
  2 10  1  0  0  0  0
  3  2  2  0  0  0  0
  4  5  2  0  0  0  0
  4  6  1  0  0  0  0
  5  3  1  0  0  0  0
  6  7  2  0  0  0  0
  7  2  1  0  0  0  0
  9 11  2  0  0  0  0
  9  8  1  0  0  0  0
 10  9  1  0  0  0  0
 12 14  1  0  0  0  0
 13 12  2  0  0  0  0
 14 15  2  0  0  0  0
 15 16  1  0  0  0  0
 16 17  1  0  0  0  0
 17 19  1  0  0  0  0
 18 21  1  0  0  0  0
 19 20  2  0  0  0  0
 19 18  1  0  0  0  0
 23 25  1  1  0  0  0
 23 22  1  0  0  0  0
 24 25  2  0  0  0  0
 27 23  1  0  0  0  0
 27 26  1  1  0  0  0
 28 31  2  0  0  0  0
 28 30  1  0  0  0  0
 30 29  1  0  0  0  0
 30 27  1  1  0  0  0
 31 32  1  0  0  0  0
 32 29  2  0  0  0  0
 33 35  1  0  0  0  0
 34 33  2  0  0  0  0
 34 31  1  0  0  0  0
 36 35  1  0  0  0  0
 36 37  1  0  0  0  0
 38 36  1  0  0  0  0
 39 36  2  0  0  0  0
M  END
>  <MODEL>
3

>  <REMARK>
 VINA RESULT:      -7.8      3.276      7.710
  Name = 
  15 active torsions:
  status: ('A' for Active; 'I' for Inactive)
    1  A    between atoms: C_1  and  O_5
    2  A    between atoms: C_2  and  N_21
    3  A    between atoms: O_5  and  P_7
    4  A    between atoms: C_12  and  C_35
    5  A    between atoms: C_13  and  C_15
    6  A    between atoms: C_15  and  C_35
    7  A    between atoms: C_16  and  C_25
    8  A    between atoms: C_16  and  C_37
    9  A    between atoms: C_17  and  C_19
   10  A    between atoms: C_18  and  C_31
   11  A    between atoms: C_18  and  C_35
   12  A    between atoms: C_22  and  C_25
   13  A    between atoms: C_23  and  C_31
   14  A    between atoms: N_28  and  C_32
   15  A    between atoms: C_31  and  C_32
                            x       y       z     vdW  Elec       q    Type
                         _______ _______ _______ _____ _____    ______ ____

>  <TORSDO>
F 15

$$$$
=
 OpenBabel10232412093D

 39 40  0  0  1  0  0  0  0  0999 V2000
  188.7290  178.1220  141.0530 C   0  0  2  0  0  3  0  0  0  0  0  0
  191.1350  177.2370  144.5240 C   0  0  0  0  0  0  0  0  0  0  0  0
  190.7190  176.1970  143.6790 C   0  0  0  0  0  3  0  0  0  0  0  0
  189.5690  177.7920  142.2550 C   0  0  0  0  0  0  0  0  0  0  0  0
  189.9410  176.4710  142.5520 C   0  0  0  0  0  3  0  0  0  0  0  0
  189.9860  178.8290  143.0950 C   0  0  0  0  0  3  0  0  0  0  0  0
  190.7630  178.5530  144.2230 C   0  0  0  0  0  3  0  0  0  0  0  0
  192.3360  176.4390  148.0330 O   0  0  0  0  0  1  0  0  0  0  0  0
  191.4400  176.5680  146.9790 C   0  0  0  0  0  0  0  0  0  0  0  0
  191.9230  176.9930  145.6970 N   0  0  0  0  0  2  0  0  0  0  0  0
  190.2240  176.2910  147.1630 O   0  0  0  0  0  0  0  0  0  0  0  0
  187.2820  178.4000  141.3500 C   0  0  0  0  0  0  0  0  0  0  0  0
  186.5540  178.8840  140.4380 O   0  0  0  0  0  0  0  0  0  0  0  0
  186.7310  178.1110  142.6410 N   0  0  0  0  0  0  0  0  0  0  0  0
  185.6960  178.7360  143.1060 C   0  0  0  0  0  3  0  0  0  0  0  0
  185.1760  178.4220  144.4680 C   0  0  0  0  0  2  0  0  0  0  0  0
  186.1700  177.5890  145.2670 C   0  0  0  0  0  2  0  0  0  0  0  0
  187.5330  177.7600  147.3900 N   0  0  0  0  0  2  0  0  0  0  0  0
  186.4140  178.1920  146.6130 C   0  0  0  0  0  0  0  0  0  0  0  0
  185.6450  179.0970  147.0440 O   0  0  0  0  0  0  0  0  0  0  0  0
  187.8320  178.3330  148.6940 C   0  0  0  0  0  1  0  0  0  0  0  0
  188.9510  177.1780  139.8660 C   0  0  0  0  0  2  0  0  0  0  0  0
  189.5090  177.8740  138.6270 C   0  0  1  0  0  3  0  0  0  0  0  0
  191.5890  176.6040  139.0220 C   0  0  0  0  0  2  0  0  0  0  0  0
  190.7640  177.1910  138.1590 C   0  0  0  0  0  3  0  0  0  0  0  0
  189.0830  178.0040  136.1690 C   0  0  0  0  0  1  0  0  0  0  0  0
  188.4250  177.9940  137.5400 C   0  0  1  0  0  3  0  0  0  0  0  0
  187.5550  175.8400  136.5910 C   0  0  0  0  0  2  0  0  0  0  0  0
  186.0360  177.4570  137.2270 N   0  0  0  0  0  2  0  0  0  0  0  0
  187.3330  176.9120  137.6180 C   0  0  2  0  0  3  0  0  0  0  0  0
  186.4980  175.8630  135.8000 C   0  0  0  0  0  0  0  0  0  0  0  0
  185.5780  176.8630  136.2050 N   0  0  0  0  0  0  0  0  0  0  0  0
  185.9200  173.6740  134.7880 C   0  0  0  0  0  3  0  0  0  0  0  0
  186.3040  174.9440  134.6700 C   0  0  0  0  0  3  0  0  0  0  0  0
  185.6510  173.0960  136.0240 O   0  0  0  0  0  0  0  0  0  0  0  0
  184.0960  173.2410  136.7290 P   0  0  0  0  0  0  0  0  0  0  0  0
  184.1660  174.1760  137.9160 O   0  0  0  0  0  1  0  0  0  0  0  0
  183.5560  171.7220  137.2380 O   0  0  0  0  0  1  0  0  0  0  0  0
  183.0210  173.8660  135.5840 O   0  0  0  0  0  0  0  0  0  0  0  0
  1 22  1  6  0  0  0
  1 12  1  0  0  0  0
  1  4  1  0  0  0  0
  2 10  1  0  0  0  0
  3  2  2  0  0  0  0
  4  5  2  0  0  0  0
  4  6  1  0  0  0  0
  5  3  1  0  0  0  0
  6  7  2  0  0  0  0
  7  2  1  0  0  0  0
  9 11  2  0  0  0  0
  9  8  1  0  0  0  0
 10  9  1  0  0  0  0
 12 14  1  0  0  0  0
 13 12  2  0  0  0  0
 14 15  2  0  0  0  0
 15 16  1  0  0  0  0
 16 17  1  0  0  0  0
 17 19  1  0  0  0  0
 18 21  1  0  0  0  0
 19 20  2  0  0  0  0
 19 18  1  0  0  0  0
 23 25  1  6  0  0  0
 23 22  1  0  0  0  0
 25 24  2  0  0  0  0
 27 26  1  6  0  0  0
 27 23  1  0  0  0  0
 28 30  1  0  0  0  0
 29 30  1  0  0  0  0
 30 27  1  6  0  0  0
 31 32  2  0  0  0  0
 31 28  1  0  0  0  0
 32 29  1  0  0  0  0
 33 35  1  0  0  0  0
 34 33  2  0  0  0  0
 34 31  1  0  0  0  0
 35 36  1  0  0  0  0
 36 38  1  0  0  0  0
 36 37  1  0  0  0  0
 39 36  2  0  0  0  0
M  END
>  <MODEL>
4

>  <REMARK>
 VINA RESULT:      -7.8      4.146      8.324
  Name = 
  15 active torsions:
  status: ('A' for Active; 'I' for Inactive)
    1  A    between atoms: C_1  and  O_5
    2  A    between atoms: C_2  and  N_21
    3  A    between atoms: O_5  and  P_7
    4  A    between atoms: C_12  and  C_35
    5  A    between atoms: C_13  and  C_15
    6  A    between atoms: C_15  and  C_35
    7  A    between atoms: C_16  and  C_25
    8  A    between atoms: C_16  and  C_37
    9  A    between atoms: C_17  and  C_19
   10  A    between atoms: C_18  and  C_31
   11  A    between atoms: C_18  and  C_35
   12  A    between atoms: C_22  and  C_25
   13  A    between atoms: C_23  and  C_31
   14  A    between atoms: N_28  and  C_32
   15  A    between atoms: C_31  and  C_32
                            x       y       z     vdW  Elec       q    Type
                         _______ _______ _______ _____ _____    ______ ____

>  <TORSDO>
F 15

$$$$
=
 OpenBabel10232412093D

 39 40  0  0  1  0  0  0  0  0999 V2000
  189.8370  177.7020  140.8630 C   0  0  2  0  0  3  0  0  0  0  0  0
  191.5700  176.8750  144.7270 C   0  0  0  0  0  0  0  0  0  0  0  0
  191.3820  178.2040  144.3160 C   0  0  0  0  0  3  0  0  0  0  0  0
  190.4400  177.4370  142.2140 C   0  0  0  0  0  0  0  0  0  0  0  0
  190.8210  178.4830  143.0670 C   0  0  0  0  0  3  0  0  0  0  0  0
  190.6240  176.1130  142.6240 C   0  0  0  0  0  3  0  0  0  0  0  0
  191.1870  175.8340  143.8720 C   0  0  0  0  0  3  0  0  0  0  0  0
  192.2660  176.3650  148.4210 O   0  0  0  0  0  1  0  0  0  0  0  0
  191.5320  176.6670  147.2810 C   0  0  0  0  0  0  0  0  0  0  0  0
  192.1550  176.5480  145.9950 N   0  0  0  0  0  2  0  0  0  0  0  0
  190.3280  177.0200  147.3960 O   0  0  0  0  0  0  0  0  0  0  0  0
  188.4430  178.2650  140.8920 C   0  0  0  0  0  0  0  0  0  0  0  0
  188.1090  179.1130  140.0170 O   0  0  0  0  0  0  0  0  0  0  0  0
  187.5020  177.8400  141.8860 N   0  0  0  0  0  0  0  0  0  0  0  0
  186.3690  178.4400  142.0670 C   0  0  0  0  0  3  0  0  0  0  0  0
  185.4350  177.9800  143.1350 C   0  0  0  0  0  2  0  0  0  0  0  0
  184.9880  179.1350  144.0220 C   0  0  0  0  0  2  0  0  0  0  0  0
  186.5660  178.4410  145.8700 N   0  0  0  0  0  2  0  0  0  0  0  0
  185.2550  178.8400  145.4620 C   0  0  0  0  0  0  0  0  0  0  0  0
  184.3300  178.9680  146.3120 O   0  0  0  0  0  0  0  0  0  0  0  0
  186.8880  178.1680  147.2630 C   0  0  0  0  0  1  0  0  0  0  0  0
  190.0240  176.5530  139.8660 C   0  0  0  0  0  2  0  0  0  0  0  0
  190.7780  176.9570  138.6020 C   0  0  1  0  0  3  0  0  0  0  0  0
  193.0040  176.5800  137.6010 C   0  0  0  0  0  2  0  0  0  0  0  0
  192.1950  176.4530  138.6500 C   0  0  0  0  0  3  0  0  0  0  0  0
  189.6290  175.0480  137.4740 C   0  0  0  0  0  1  0  0  0  0  0  0
  190.0050  176.5160  137.3470 C   0  0  1  0  0  3  0  0  0  0  0  0
  187.5340  176.8040  137.6730 C   0  0  0  0  0  2  0  0  0  0  0  0
  188.4390  177.3170  135.6130 N   0  0  0  0  0  2  0  0  0  0  0  0
  188.7660  177.3760  137.0350 C   0  0  2  0  0  3  0  0  0  0  0  0
  186.7120  176.5050  136.6840 C   0  0  0  0  0  0  0  0  0  0  0  0
  187.2850  176.8250  135.4280 N   0  0  0  0  0  0  0  0  0  0  0  0
  184.2980  176.6510  137.2350 C   0  0  0  0  0  3  0  0  0  0  0  0
  185.3690  175.9420  136.8810 C   0  0  0  0  0  3  0  0  0  0  0  0
  184.3590  178.0250  137.4430 O   0  0  0  0  0  0  0  0  0  0  0  0
  183.7010  178.7150  138.8670 P   0  0  0  0  0  0  0  0  0  0  0  0
  184.6110  179.8170  139.3600 O   0  0  0  0  0  1  0  0  0  0  0  0
  183.5530  177.5280  140.0620 O   0  0  0  0  0  1  0  0  0  0  0  0
  182.1760  179.3580  138.5220 O   0  0  0  0  0  0  0  0  0  0  0  0
  1 22  1  6  0  0  0
  1 12  1  0  0  0  0
  1  4  1  0  0  0  0
  2 10  1  0  0  0  0
  3  2  1  0  0  0  0
  4  6  2  0  0  0  0
  4  5  1  0  0  0  0
  5  3  2  0  0  0  0
  6  7  1  0  0  0  0
  7  2  2  0  0  0  0
  9 11  2  0  0  0  0
  9  8  1  0  0  0  0
 10  9  1  0  0  0  0
 12 14  1  0  0  0  0
 13 12  2  0  0  0  0
 14 15  2  0  0  0  0
 15 16  1  0  0  0  0
 16 17  1  0  0  0  0
 17 19  1  0  0  0  0
 18 21  1  0  0  0  0
 19 18  1  0  0  0  0
 19 20  2  0  0  0  0
 23 25  1  1  0  0  0
 23 22  1  0  0  0  0
 24 25  2  0  0  0  0
 27 26  1  1  0  0  0
 27 23  1  0  0  0  0
 29 30  1  0  0  0  0
 30 27  1  6  0  0  0
 30 28  1  0  0  0  0
 31 34  1  0  0  0  0
 31 28  1  0  0  0  0
 32 29  1  0  0  0  0
 32 31  2  0  0  0  0
 33 35  1  0  0  0  0
 34 33  2  0  0  0  0
 35 36  1  0  0  0  0
 36 37  1  0  0  0  0
 36 38  1  0  0  0  0
 39 36  2  0  0  0  0
M  END
>  <MODEL>
5

>  <REMARK>
 VINA RESULT:      -7.6      3.251      7.458
  Name = 
  15 active torsions:
  status: ('A' for Active; 'I' for Inactive)
    1  A    between atoms: C_1  and  O_5
    2  A    between atoms: C_2  and  N_21
    3  A    between atoms: O_5  and  P_7
    4  A    between atoms: C_12  and  C_35
    5  A    between atoms: C_13  and  C_15
    6  A    between atoms: C_15  and  C_35
    7  A    between atoms: C_16  and  C_25
    8  A    between atoms: C_16  and  C_37
    9  A    between atoms: C_17  and  C_19
   10  A    between atoms: C_18  and  C_31
   11  A    between atoms: C_18  and  C_35
   12  A    between atoms: C_22  and  C_25
   13  A    between atoms: C_23  and  C_31
   14  A    between atoms: N_28  and  C_32
   15  A    between atoms: C_31  and  C_32
                            x       y       z     vdW  Elec       q    Type
                         _______ _______ _______ _____ _____    ______ ____

>  <TORSDO>
F 15

$$$$
=
 OpenBabel10232412093D

 39 40  0  0  1  0  0  0  0  0999 V2000
  188.1850  177.9660  140.6110 C   0  0  2  0  0  3  0  0  0  0  0  0
  190.7950  177.0210  143.9150 C   0  0  0  0  0  0  0  0  0  0  0  0
  190.3380  178.3360  143.7410 C   0  0  0  0  0  3  0  0  0  0  0  0
  189.0920  177.6580  141.7710 C   0  0  0  0  0  0  0  0  0  0  0  0
  189.4920  178.6540  142.6750 C   0  0  0  0  0  3  0  0  0  0  0  0
  189.5440  176.3470  141.9450 C   0  0  0  0  0  3  0  0  0  0  0  0
  190.3920  176.0310  143.0110 C   0  0  0  0  0  3  0  0  0  0  0  0
  192.3370  176.2820  147.3020 O   0  0  0  0  0  1  0  0  0  0  0  0
  191.3420  176.5900  146.3820 C   0  0  0  0  0  0  0  0  0  0  0  0
  191.6750  176.6590  144.9880 N   0  0  0  0  0  2  0  0  0  0  0  0
  190.1640  176.7830  146.7850 O   0  0  0  0  0  0  0  0  0  0  0  0
  186.8030  178.4180  140.9920 C   0  0  0  0  0  0  0  0  0  0  0  0
  186.1200  179.0670  140.1500 O   0  0  0  0  0  0  0  0  0  0  0  0
  186.2610  178.1110  142.2830 N   0  0  0  0  0  0  0  0  0  0  0  0
  185.2640  178.7650  142.7870 C   0  0  0  0  0  3  0  0  0  0  0  0
  184.7530  178.4280  144.1470 C   0  0  0  0  0  2  0  0  0  0  0  0
  185.1850  179.4630  145.1780 C   0  0  0  0  0  2  0  0  0  0  0  0
  186.9300  178.6730  146.8280 N   0  0  0  0  0  2  0  0  0  0  0  0
  185.5520  178.8100  146.4720 C   0  0  0  0  0  0  0  0  0  0  0  0
  184.6450  178.4070  147.2520 O   0  0  0  0  0  0  0  0  0  0  0  0
  187.3420  178.0700  148.0880 C   0  0  0  0  0  1  0  0  0  0  0  0
  188.2110  176.9030  139.5080 C   0  0  0  0  0  2  0  0  0  0  0  0
  188.5880  177.4550  138.1360 C   0  0  1  0  0  3  0  0  0  0  0  0
  188.9830  179.7620  137.3480 C   0  0  0  0  0  2  0  0  0  0  0  0
  189.1970  178.8240  138.2670 C   0  0  0  0  0  3  0  0  0  0  0  0
  189.3070  176.6650  135.8780 C   0  0  0  0  0  1  0  0  0  0  0  0
  189.4740  176.4530  137.3740 C   0  0  1  0  0  3  0  0  0  0  0  0
  191.8480  176.2820  136.5820 C   0  0  0  0  0  3  0  0  0  0  0  0
  191.3000  175.3610  138.6270 N   0  0  0  0  0  0  0  0  0  0  0  0
  190.9600  176.4960  137.7730 C   0  0  2  0  0  3  0  0  0  0  0  0
  192.5330  175.1800  136.8280 C   0  0  0  0  0  0  0  0  0  0  0  0
  192.1830  174.6290  138.0860 N   0  0  0  0  0  0  0  0  0  0  0  0
  194.8550  174.6100  136.1660 C   0  0  0  0  0  3  0  0  0  0  0  0
  193.5460  174.6290  135.9170 C   0  0  0  0  0  3  0  0  0  0  0  0
  195.3880  175.1140  137.3480 O   0  0  0  0  0  0  0  0  0  0  0  0
  196.2960  174.1020  138.3900 P   0  0  0  0  0  0  0  0  0  0  0  0
  195.3550  173.2300  139.1910 O   0  0  0  0  0  1  0  0  0  0  0  0
  197.2220  175.0480  139.4420 O   0  0  0  0  0  1  0  0  0  0  0  0
  197.3190  173.1240  137.4660 O   0  0  0  0  0  0  0  0  0  0  0  0
  1 22  1  6  0  0  0
  1 12  1  0  0  0  0
  1  4  1  0  0  0  0
  2 10  1  0  0  0  0
  3  2  1  0  0  0  0
  4  6  2  0  0  0  0
  4  5  1  0  0  0  0
  5  3  2  0  0  0  0
  6  7  1  0  0  0  0
  7  2  2  0  0  0  0
  9 11  2  0  0  0  0
  9  8  1  0  0  0  0
 10  9  1  0  0  0  0
 12 14  1  0  0  0  0
 13 12  2  0  0  0  0
 14 15  2  0  0  0  0
 15 16  1  0  0  0  0
 16 17  1  0  0  0  0
 17 19  1  0  0  0  0
 18 21  1  0  0  0  0
 19 18  1  0  0  0  0
 19 20  2  0  0  0  0
 23 25  1  1  0  0  0
 23 22  1  0  0  0  0
 24 25  2  0  0  0  0
 27 26  1  6  0  0  0
 27 23  1  0  0  0  0
 28 31  2  0  0  0  0
 28 30  1  0  0  0  0
 30 27  1  6  0  0  0
 30 29  1  0  0  0  0
 31 32  1  0  0  0  0
 32 29  2  0  0  0  0
 33 35  1  0  0  0  0
 34 33  2  0  0  0  0
 34 31  1  0  0  0  0
 35 36  1  0  0  0  0
 36 37  1  0  0  0  0
 36 38  1  0  0  0  0
 39 36  2  0  0  0  0
M  END
>  <MODEL>
6

>  <REMARK>
 VINA RESULT:      -7.2      3.134      8.443
  Name = 
  15 active torsions:
  status: ('A' for Active; 'I' for Inactive)
    1  A    between atoms: C_1  and  O_5
    2  A    between atoms: C_2  and  N_21
    3  A    between atoms: O_5  and  P_7
    4  A    between atoms: C_12  and  C_35
    5  A    between atoms: C_13  and  C_15
    6  A    between atoms: C_15  and  C_35
    7  A    between atoms: C_16  and  C_25
    8  A    between atoms: C_16  and  C_37
    9  A    between atoms: C_17  and  C_19
   10  A    between atoms: C_18  and  C_31
   11  A    between atoms: C_18  and  C_35
   12  A    between atoms: C_22  and  C_25
   13  A    between atoms: C_23  and  C_31
   14  A    between atoms: N_28  and  C_32
   15  A    between atoms: C_31  and  C_32
                            x       y       z     vdW  Elec       q    Type
                         _______ _______ _______ _____ _____    ______ ____

>  <TORSDO>
F 15

$$$$
=
 OpenBabel10232412093D

 39 40  0  0  1  0  0  0  0  0999 V2000
  187.9240  177.7960  142.0170 C   0  0  2  0  0  3  0  0  0  0  0  0
  190.5680  177.4830  145.4120 C   0  0  0  0  0  0  0  0  0  0  0  0
  190.9620  178.2230  144.2870 C   0  0  0  0  0  3  0  0  0  0  0  0
  188.8600  177.7020  143.1900 C   0  0  0  0  0  0  0  0  0  0  0  0
  190.1140  178.3320  143.1820 C   0  0  0  0  0  3  0  0  0  0  0  0
  188.4660  176.9670  144.3120 C   0  0  0  0  0  3  0  0  0  0  0  0
  189.3160  176.8560  145.4160 C   0  0  0  0  0  3  0  0  0  0  0  0
  192.8050  176.1500  148.1720 O   0  0  0  0  0  1  0  0  0  0  0  0
  192.0640  176.1320  146.9980 C   0  0  0  0  0  0  0  0  0  0  0  0
  191.4170  177.3360  146.5590 N   0  0  0  0  0  2  0  0  0  0  0  0
  191.9880  175.0670  146.3290 O   0  0  0  0  0  0  0  0  0  0  0  0
  188.5990  177.9160  140.6790 C   0  0  0  0  0  0  0  0  0  0  0  0
  188.2300  178.8320  139.8900 O   0  0  0  0  0  0  0  0  0  0  0  0
  189.6500  177.0170  140.3050 N   0  0  0  0  0  0  0  0  0  0  0  0
  190.3220  177.1590  139.2070 C   0  0  0  0  0  3  0  0  0  0  0  0
  191.3880  176.1800  138.8460 C   0  0  0  0  0  2  0  0  0  0  0  0
  192.0180  176.5130  137.4990 C   0  0  0  0  0  2  0  0  0  0  0  0
  193.6970  174.6970  138.0220 N   0  0  0  0  0  2  0  0  0  0  0  0
  193.3980  175.9480  137.3980 C   0  0  0  0  0  0  0  0  0  0  0  0
  194.2840  176.5650  136.7430 O   0  0  0  0  0  0  0  0  0  0  0  0
  195.0160  174.0880  137.9320 C   0  0  0  0  0  1  0  0  0  0  0  0
  186.7710  178.7840  142.2240 C   0  0  0  0  0  2  0  0  0  0  0  0
  185.4310  178.1080  142.5060 C   0  0  1  0  0  3  0  0  0  0  0  0
  184.8910  179.1590  144.6750 C   0  0  0  0  0  2  0  0  0  0  0  0
  185.1690  178.0550  143.9860 C   0  0  0  0  0  3  0  0  0  0  0  0
  184.8220  179.1490  140.3190 C   0  0  0  0  0  1  0  0  0  0  0  0
  184.3060  178.7820  141.7010 C   0  0  1  0  0  3  0  0  0  0  0  0
  182.9880  177.1360  140.3400 C   0  0  0  0  0  3  0  0  0  0  0  0
  181.8500  178.8140  141.4440 N   0  0  0  0  0  0  0  0  0  0  0  0
  183.0150  177.9480  141.6030 C   0  0  2  0  0  3  0  0  0  0  0  0
  181.9410  177.5560  139.6550 C   0  0  0  0  0  0  0  0  0  0  0  0
  181.2560  178.5860  140.3470 N   0  0  0  0  0  0  0  0  0  0  0  0
  182.2360  177.1160  137.2320 C   0  0  0  0  0  3  0  0  0  0  0  0
  181.5360  176.9950  138.3580 C   0  0  0  0  0  3  0  0  0  0  0  0
  183.4510  177.7920  137.1880 O   0  0  0  0  0  0  0  0  0  0  0  0
  184.8910  176.9610  136.7750 P   0  0  0  0  0  0  0  0  0  0  0  0
  184.8190  175.5410  137.2920 O   0  0  0  0  0  1  0  0  0  0  0  0
  186.2220  177.7450  137.4640 O   0  0  0  0  0  1  0  0  0  0  0  0
  185.0600  176.9380  135.0940 O   0  0  0  0  0  0  0  0  0  0  0  0
  1 22  1  1  0  0  0
  1  4  1  0  0  0  0
  2  7  1  0  0  0  0
  2 10  1  0  0  0  0
  3  2  2  0  0  0  0
  4  6  1  0  0  0  0
  5  4  2  0  0  0  0
  5  3  1  0  0  0  0
  6  7  2  0  0  0  0
  9  8  1  0  0  0  0
 10  9  1  0  0  0  0
 11  9  2  0  0  0  0
 12  1  1  0  0  0  0
 13 12  2  0  0  0  0
 14 12  1  0  0  0  0
 15 14  2  0  0  0  0
 16 15  1  0  0  0  0
 17 16  1  0  0  0  0
 19 17  1  0  0  0  0
 19 18  1  0  0  0  0
 20 19  2  0  0  0  0
 21 18  1  0  0  0  0
 23 22  1  1  0  0  0
 23 25  1  0  0  0  0
 25 24  2  0  0  0  0
 27 26  1  6  0  0  0
 27 23  1  0  0  0  0
 28 30  1  0  0  0  0
 29 30  1  0  0  0  0
 30 27  1  6  0  0  0
 31 28  2  0  0  0  0
 31 32  1  0  0  0  0
 32 29  2  0  0  0  0
 33 34  2  0  0  0  0
 34 31  1  0  0  0  0
 35 33  1  0  0  0  0
 36 35  1  0  0  0  0
 36 37  1  0  0  0  0
 36 38  1  0  0  0  0
 39 36  2  0  0  0  0
M  END
>  <MODEL>
7

>  <REMARK>
 VINA RESULT:      -7.2      3.358      8.974
  Name = 
  15 active torsions:
  status: ('A' for Active; 'I' for Inactive)
    1  A    between atoms: C_1  and  O_5
    2  A    between atoms: C_2  and  N_21
    3  A    between atoms: O_5  and  P_7
    4  A    between atoms: C_12  and  C_35
    5  A    between atoms: C_13  and  C_15
    6  A    between atoms: C_15  and  C_35
    7  A    between atoms: C_16  and  C_25
    8  A    between atoms: C_16  and  C_37
    9  A    between atoms: C_17  and  C_19
   10  A    between atoms: C_18  and  C_31
   11  A    between atoms: C_18  and  C_35
   12  A    between atoms: C_22  and  C_25
   13  A    between atoms: C_23  and  C_31
   14  A    between atoms: N_28  and  C_32
   15  A    between atoms: C_31  and  C_32
                            x       y       z     vdW  Elec       q    Type
                         _______ _______ _______ _____ _____    ______ ____

>  <TORSDO>
F 15

$$$$
=
 OpenBabel10232412093D

 39 40  0  0  1  0  0  0  0  0999 V2000
  183.3010  178.5240  139.9100 C   0  0  2  0  0  3  0  0  0  0  0  0
  181.4400  175.5000  137.4590 C   0  0  0  0  0  0  0  0  0  0  0  0
  181.7920  176.7360  136.8950 C   0  0  0  0  0  3  0  0  0  0  0  0
  182.6560  177.4840  139.0380 C   0  0  0  0  0  0  0  0  0  0  0  0
  182.3960  177.7220  137.6800 C   0  0  0  0  0  3  0  0  0  0  0  0
  182.3080  176.2510  139.5990 C   0  0  0  0  0  3  0  0  0  0  0  0
  181.7020  175.2660  138.8150 C   0  0  0  0  0  3  0  0  0  0  0  0
  180.6820  172.6220  135.1070 O   0  0  0  0  0  0  0  0  0  0  0  0
  181.4550  173.5190  135.8320 C   0  0  0  0  0  0  0  0  0  0  0  0
  180.8060  174.4680  136.6900 N   0  0  0  0  0  2  0  0  0  0  0  0
  182.7110  173.4710  135.7390 O   0  0  0  0  0  1  0  0  0  0  0  0
  184.3810  179.3300  139.2420 C   0  0  0  0  0  0  0  0  0  0  0  0
  184.1110  180.4960  138.8400 O   0  0  0  0  0  0  0  0  0  0  0  0
  185.6970  178.7900  139.0730 N   0  0  0  0  0  0  0  0  0  0  0  0
  186.0450  178.1380  138.0100 C   0  0  0  0  0  3  0  0  0  0  0  0
  187.4190  177.5690  137.8900 C   0  0  0  0  0  2  0  0  0  0  0  0
  188.2660  177.8950  139.1140 C   0  0  0  0  0  2  0  0  0  0  0  0
  190.0820  176.9050  137.6600 N   0  0  0  0  0  2  0  0  0  0  0  0
  189.6870  177.4800  138.9080 C   0  0  0  0  0  0  0  0  0  0  0  0
  190.5350  177.6640  139.8260 O   0  0  0  0  0  0  0  0  0  0  0  0
  191.4580  176.5100  137.3960 C   0  0  0  0  0  1  0  0  0  0  0  0
  183.6780  178.0130  141.3050 C   0  0  0  0  0  2  0  0  0  0  0  0
  183.5420  179.0680  142.4000 C   0  0  1  0  0  3  0  0  0  0  0  0
  181.1110  178.8870  142.7900 C   0  0  0  0  0  2  0  0  0  0  0  0
  182.3480  178.7770  143.2670 C   0  0  0  0  0  3  0  0  0  0  0  0
  184.5510  179.5450  144.6350 C   0  0  0  0  0  1  0  0  0  0  0  0
  184.8590  179.2060  143.1850 C   0  0  1  0  0  3  0  0  0  0  0  0
  186.2510  177.5460  144.4510 C   0  0  0  0  0  2  0  0  0  0  0  0
  187.0300  178.3130  142.4190 N   0  0  0  0  0  2  0  0  0  0  0  0
  185.7800  177.9750  143.0920 C   0  0  2  0  0  3  0  0  0  0  0  0
  187.5660  177.6610  144.4380 C   0  0  0  0  0  0  0  0  0  0  0  0
  188.0260  178.1350  143.1840 N   0  0  0  0  0  0  0  0  0  0  0  0
  189.7580  177.2700  145.5300 C   0  0  0  0  0  3  0  0  0  0  0  0
  188.4280  177.3110  145.5760 C   0  0  0  0  0  3  0  0  0  0  0  0
  190.4660  177.5740  144.3720 O   0  0  0  0  0  0  0  0  0  0  0  0
  191.1840  176.3270  143.4420 P   0  0  0  0  0  0  0  0  0  0  0  0
  190.1110  175.5940  142.6680 O   0  0  0  0  0  1  0  0  0  0  0  0
  191.9850  175.2420  144.4620 O   0  0  0  0  0  1  0  0  0  0  0  0
  192.2920  177.0050  142.3600 O   0  0  0  0  0  0  0  0  0  0  0  0
  1 22  1  1  0  0  0
  2  7  1  0  0  0  0
  3  2  2  0  0  0  0
  3  5  1  0  0  0  0
  4  6  1  0  0  0  0
  4  1  1  0  0  0  0
  5  4  2  0  0  0  0
  7  6  2  0  0  0  0
  8  9  2  0  0  0  0
  9 10  1  0  0  0  0
 10  2  1  0  0  0  0
 11  9  1  0  0  0  0
 12  1  1  0  0  0  0
 13 12  2  0  0  0  0
 14 12  1  0  0  0  0
 15 14  2  0  0  0  0
 16 15  1  0  0  0  0
 16 17  1  0  0  0  0
 18 19  1  0  0  0  0
 19 17  1  0  0  0  0
 19 20  2  0  0  0  0
 21 18  1  0  0  0  0
 23 22  1  6  0  0  0
 23 27  1  0  0  0  0
 23 25  1  0  0  0  0
 24 25  2  0  0  0  0
 27 26  1  1  0  0  0
 29 30  1  0  0  0  0
 29 32  1  0  0  0  0
 30 27  1  1  0  0  0
 30 28  1  0  0  0  0
 31 28  1  0  0  0  0
 31 34  1  0  0  0  0
 32 31  2  0  0  0  0
 33 34  2  0  0  0  0
 35 33  1  0  0  0  0
 36 35  1  0  0  0  0
 36 38  1  0  0  0  0
 37 36  1  0  0  0  0
 39 36  2  0  0  0  0
M  END
>  <MODEL>
8

>  <REMARK>
 VINA RESULT:      -7.2      4.326      7.963
  Name = 
  15 active torsions:
  status: ('A' for Active; 'I' for Inactive)
    1  A    between atoms: C_1  and  O_5
    2  A    between atoms: C_2  and  N_21
    3  A    between atoms: O_5  and  P_7
    4  A    between atoms: C_12  and  C_35
    5  A    between atoms: C_13  and  C_15
    6  A    between atoms: C_15  and  C_35
    7  A    between atoms: C_16  and  C_25
    8  A    between atoms: C_16  and  C_37
    9  A    between atoms: C_17  and  C_19
   10  A    between atoms: C_18  and  C_31
   11  A    between atoms: C_18  and  C_35
   12  A    between atoms: C_22  and  C_25
   13  A    between atoms: C_23  and  C_31
   14  A    between atoms: N_28  and  C_32
   15  A    between atoms: C_31  and  C_32
                            x       y       z     vdW  Elec       q    Type
                         _______ _______ _______ _____ _____    ______ ____

>  <TORSDO>
F 15

$$$$
=
 OpenBabel10232412093D

 39 40  0  0  1  0  0  0  0  0999 V2000
  189.9790  177.3580  139.5010 C   0  0  2  0  0  3  0  0  0  0  0  0
  191.2250  176.5110  143.5450 C   0  0  0  0  0  0  0  0  0  0  0  0
  191.9540  177.4240  142.7670 C   0  0  0  0  0  3  0  0  0  0  0  0
  190.4290  177.0790  140.9090 C   0  0  0  0  0  0  0  0  0  0  0  0
  191.5590  177.7060  141.4570 C   0  0  0  0  0  3  0  0  0  0  0  0
  189.7020  176.1720  141.6840 C   0  0  0  0  0  3  0  0  0  0  0  0
  190.0980  175.8880  142.9940 C   0  0  0  0  0  3  0  0  0  0  0  0
  191.6070  176.3710  147.3170 O   0  0  0  0  0  1  0  0  0  0  0  0
  191.0770  176.7580  146.0920 C   0  0  0  0  0  0  0  0  0  0  0  0
  191.6070  176.1840  144.8880 N   0  0  0  0  0  2  0  0  0  0  0  0
  190.1300  177.5890  146.0610 O   0  0  0  0  0  0  0  0  0  0  0  0
  188.8550  178.3480  139.3810 C   0  0  0  0  0  0  0  0  0  0  0  0
  188.9950  179.3400  138.6120 O   0  0  0  0  0  0  0  0  0  0  0  0
  187.6380  178.1670  140.1170 N   0  0  0  0  0  0  0  0  0  0  0  0
  187.3420  178.8880  141.1510 C   0  0  0  0  0  3  0  0  0  0  0  0
  186.0770  178.6430  141.9020 C   0  0  0  0  0  2  0  0  0  0  0  0
  186.2890  177.6610  143.0470 C   0  0  0  0  0  2  0  0  0  0  0  0
  186.5460  177.9860  145.5410 N   0  0  0  0  0  2  0  0  0  0  0  0
  185.8090  178.2340  144.3410 C   0  0  0  0  0  0  0  0  0  0  0  0
  184.7720  178.9540  144.3630 O   0  0  0  0  0  0  0  0  0  0  0  0
  186.1390  178.5440  146.8230 C   0  0  0  0  0  1  0  0  0  0  0  0
  189.7910  176.0960  138.6520 C   0  0  0  0  0  2  0  0  0  0  0  0
  190.9780  175.7880  137.7440 C   0  0  1  0  0  3  0  0  0  0  0  0
  193.1570  176.8690  138.1700 C   0  0  0  0  0  2  0  0  0  0  0  0
  192.2710  175.9330  138.4990 C   0  0  0  0  0  3  0  0  0  0  0  0
  189.3310  174.0350  137.0720 C   0  0  0  0  0  1  0  0  0  0  0  0
  190.8030  174.4140  137.0720 C   0  0  1  0  0  3  0  0  0  0  0  0
  192.7310  173.6460  135.6610 C   0  0  0  0  0  2  0  0  0  0  0  0
  191.7210  175.6560  135.1450 N   0  0  0  0  0  2  0  0  0  0  0  0
  191.3930  174.3270  135.6520 C   0  0  2  0  0  3  0  0  0  0  0  0
  193.5990  174.5350  135.2140 C   0  0  0  0  0  0  0  0  0  0  0  0
  192.9610  175.7620  134.9040 N   0  0  0  0  0  0  0  0  0  0  0  0
  195.9650  174.5040  135.9570 C   0  0  0  0  0  3  0  0  0  0  0  0
  195.0320  174.2590  135.0380 C   0  0  0  0  0  3  0  0  0  0  0  0
  195.6530  175.0440  137.2000 O   0  0  0  0  0  0  0  0  0  0  0  0
  196.1490  174.2530  138.6380 P   0  0  0  0  0  0  0  0  0  0  0  0
  197.6330  173.9720  138.5720 O   0  0  0  0  0  0  0  0  0  0  0  0
  195.3060  172.7970  138.8090 O   0  0  0  0  0  1  0  0  0  0  0  0
  195.8240  175.2500  139.9630 O   0  0  0  0  0  1  0  0  0  0  0  0
  1 22  1  1  0  0  0
  1  4  1  0  0  0  0
  2 10  1  0  0  0  0
  3  2  2  0  0  0  0
  4  5  2  0  0  0  0
  4  6  1  0  0  0  0
  5  3  1  0  0  0  0
  6  7  2  0  0  0  0
  7  2  1  0  0  0  0
  9  8  1  0  0  0  0
 10  9  1  0  0  0  0
 11  9  2  0  0  0  0
 12  1  1  0  0  0  0
 12 14  1  0  0  0  0
 13 12  2  0  0  0  0
 14 15  2  0  0  0  0
 15 16  1  0  0  0  0
 16 17  1  0  0  0  0
 17 19  1  0  0  0  0
 18 21  1  0  0  0  0
 19 20  2  0  0  0  0
 19 18  1  0  0  0  0
 23 25  1  1  0  0  0
 23 22  1  0  0  0  0
 24 25  2  0  0  0  0
 27 26  1  6  0  0  0
 27 23  1  0  0  0  0
 29 30  1  0  0  0  0
 30 28  1  0  0  0  0
 30 27  1  1  0  0  0
 31 28  1  0  0  0  0
 32 29  1  0  0  0  0
 32 31  2  0  0  0  0
 33 35  1  0  0  0  0
 34 31  1  0  0  0  0
 34 33  2  0  0  0  0
 35 36  1  0  0  0  0
 36 38  1  0  0  0  0
 36 39  1  0  0  0  0
 37 36  2  0  0  0  0
M  END
>  <MODEL>
9

>  <REMARK>
 VINA RESULT:      -7.2      3.133      8.703
  Name = 
  15 active torsions:
  status: ('A' for Active; 'I' for Inactive)
    1  A    between atoms: C_1  and  O_5
    2  A    between atoms: C_2  and  N_21
    3  A    between atoms: O_5  and  P_7
    4  A    between atoms: C_12  and  C_35
    5  A    between atoms: C_13  and  C_15
    6  A    between atoms: C_15  and  C_35
    7  A    between atoms: C_16  and  C_25
    8  A    between atoms: C_16  and  C_37
    9  A    between atoms: C_17  and  C_19
   10  A    between atoms: C_18  and  C_31
   11  A    between atoms: C_18  and  C_35
   12  A    between atoms: C_22  and  C_25
   13  A    between atoms: C_23  and  C_31
   14  A    between atoms: N_28  and  C_32
   15  A    between atoms: C_31  and  C_32
                            x       y       z     vdW  Elec       q    Type
                         _______ _______ _______ _____ _____    ______ ____

>  <TORSDO>
F 15

$$$$
