=
 OpenBabel10232408353D

 41 45  0  0  1  0  0  0  0  0999 V2000
  188.1570  177.9850  140.4850 C   0  0  0  0  0  0  0  0  0  0  0  0
  187.7130  177.7300  139.2480 C   0  0  0  0  0  3  0  0  0  0  0  0
  186.3460  178.1060  138.8470 C   0  0  0  0  0  0  0  0  0  0  0  0
  185.9950  178.9660  141.1600 C   0  0  0  0  0  0  0  0  0  0  0  0
  185.9060  177.8680  137.6060 C   0  0  0  0  0  3  0  0  0  0  0  0
  187.2510  178.6120  141.4730 C   0  0  0  0  0  3  0  0  0  0  0  0
  185.4950  178.7370  139.8270 N   0  0  0  0  0  0  0  0  0  0  0  0
  190.5780  177.8540  140.0230 C   0  0  0  0  0  3  0  0  0  0  0  0
  189.7910  176.9120  142.1250 C   0  0  0  0  0  0  0  0  0  0  0  0
  191.8860  177.5100  140.3480 C   0  0  0  0  0  3  0  0  0  0  0  0
  189.5200  177.5750  140.8990 C   0  0  0  0  0  0  0  0  0  0  0  0
  188.4630  176.3220  143.1340 Cl  0  0  0  0  0  0  0  0  0  0  0  0
  191.1280  176.5970  142.4660 C   0  0  0  0  0  0  0  0  0  0  0  0
  192.1580  176.8880  141.5630 C   0  0  0  0  0  3  0  0  0  0  0  0
  192.1440  174.8210  143.8190 N   0  0  0  0  0  0  0  0  0  0  0  0
  192.3120  175.4450  148.4350 N   0  0  0  0  0  1  0  0  0  0  0  0
  191.4970  175.9520  143.7410 C   0  0  0  0  0  0  0  0  0  0  0  0
  191.2510  177.2670  147.1720 C   0  0  0  0  0  3  0  0  0  0  0  0
  192.4200  174.5410  145.2100 C   0  0  0  0  0  3  0  0  0  0  0  0
  191.8350  176.0640  147.2460 C   0  0  0  0  0  0  0  0  0  0  0  0
  190.9350  177.5600  145.7410 C   0  0  0  0  0  3  0  0  0  0  0  0
  191.3380  176.4840  145.0790 C   0  0  0  0  0  0  0  0  0  0  0  0
  191.9190  175.5410  145.9120 C   0  0  0  0  0  0  0  0  0  0  0  0
  186.7360  177.2260  136.5370 C   0  0  2  0  0  3  0  0  0  0  0  0
  186.4990  177.8410  135.3050 O   0  0  0  0  0  1  0  0  0  0  0  0
  184.9380  174.1190  135.6330 C   0  0  0  0  0  3  0  0  0  0  0  0
  186.4400  175.8020  136.4500 N   0  0  0  0  0  0  0  0  0  0  0  0
  187.4190  174.8180  136.9330 C   0  0  0  0  0  2  0  0  0  0  0  0
  185.7510  173.0900  136.2950 C   0  0  0  0  0  0  0  0  0  0  0  0
  185.3320  171.8010  136.2670 F   0  0  0  0  0  0  0  0  0  0  0  0
  186.8810  173.4110  136.9350 C   0  0  0  0  0  0  0  0  0  0  0  0
  187.6070  172.4390  137.5400 F   0  0  0  0  0  0  0  0  0  0  0  0
  185.2750  175.4030  135.7160 C   0  0  0  0  0  3  0  0  0  0  0  0
  184.0550  180.4030  139.0500 O   0  0  0  0  0  1  0  0  0  0  0  0
  184.1130  179.0860  139.5080 C   0  0  0  0  0  2  0  0  0  0  0  0
  185.1490  179.5720  142.1450 N   0  0  0  0  0  2  0  0  0  0  0  0
  184.3540  178.8100  143.0970 C   0  0  0  0  0  2  0  0  0  0  0  0
  184.9340  178.9760  144.4840 C   0  0  0  0  0  2  0  0  0  0  0  0
  185.9370  177.8680  144.7460 C   0  0  0  0  0  2  0  0  0  0  0  0
  185.8090  178.9290  146.9990 C   0  0  0  0  0  1  0  0  0  0  0  0
  186.6700  178.1140  146.0530 C   0  0  0  0  0  2  0  0  0  0  0  0
  1 11  1  0  0  0  0
  1  6  1  0  0  0  0
  2  1  2  0  0  0  0
  3  2  1  0  0  0  0
  3  7  1  0  0  0  0
  4  6  2  0  0  0  0
  4 36  1  0  0  0  0
  5  3  2  0  0  0  0
  7  4  1  0  0  0  0
  8 10  2  0  0  0  0
  8 11  1  0  0  0  0
  9 13  1  0  0  0  0
  9 12  1  0  0  0  0
 10 14  1  0  0  0  0
 11  9  2  0  0  0  0
 13 17  1  0  0  0  0
 14 13  2  0  0  0  0
 15 19  1  0  0  0  0
 17 15  2  0  0  0  0
 17 22  1  0  0  0  0
 18 20  2  0  0  0  0
 19 23  2  0  0  0  0
 20 16  1  0  0  0  0
 21 18  1  0  0  0  0
 22 21  2  0  0  0  0
 22 23  1  0  0  0  0
 23 20  1  0  0  0  0
 24 25  1  6  0  0  0
 24  5  1  0  0  0  0
 26 33  2  0  0  0  0
 26 29  1  0  0  0  0
 27 24  1  0  0  0  0
 27 28  1  0  0  0  0
 28 31  1  0  0  0  0
 29 31  2  0  0  0  0
 30 29  1  0  0  0  0
 31 32  1  0  0  0  0
 33 27  1  0  0  0  0
 34 35  1  0  0  0  0
 35  7  1  0  0  0  0
 36 37  1  0  0  0  0
 37 38  1  0  0  0  0
 38 39  1  0  0  0  0
 39 41  1  0  0  0  0
 41 40  1  0  0  0  0
M  END
>  <MODEL>
1

>  <REMARK>
 VINA RESULT:      -8.2      0.000      0.000
  Name = 
  10 active torsions:
  status: ('A' for Active; 'I' for Inactive)
    1  A    between atoms: C_2  and  C_18
    2  A    between atoms: C_6  and  N_11
    3  A    between atoms: C_6  and  C_29
    4  A    between atoms: C_8  and  C_25
    5  A    between atoms: C_8  and  N_40
    6  A    between atoms: C_9  and  C_22
    7  A    between atoms: C_20  and  C_35
    8  A    between atoms: C_25  and  C_35
    9  A    between atoms: C_26  and  N_40
   10  A    between atoms: C_28  and  N_31
                            x       y       z     vdW  Elec       q    Type
                         _______ _______ _______ _____ _____    ______ ____

>  <TORSDO>
F 10

$$$$
=
 OpenBabel10232408353D

 41 45  0  0  1  0  0  0  0  0999 V2000
  185.1730  178.3940  141.5510 C   0  0  0  0  0  0  0  0  0  0  0  0
  186.1960  178.3780  140.6890 C   0  0  0  0  0  3  0  0  0  0  0  0
  185.9680  178.1370  139.2540 C   0  0  0  0  0  0  0  0  0  0  0  0
  183.5420  177.8900  139.7680 C   0  0  0  0  0  0  0  0  0  0  0  0
  186.9870  178.1390  138.3880 C   0  0  0  0  0  3  0  0  0  0  0  0
  183.8010  178.1230  141.0640 C   0  0  0  0  0  3  0  0  0  0  0  0
  184.6160  177.8990  138.8070 N   0  0  0  0  0  0  0  0  0  0  0  0
  184.4630  179.3560  143.7100 C   0  0  0  0  0  3  0  0  0  0  0  0
  186.5370  178.0810  143.6840 C   0  0  0  0  0  0  0  0  0  0  0  0
  184.6100  179.5820  145.0750 C   0  0  0  0  0  3  0  0  0  0  0  0
  185.4070  178.6010  142.9990 C   0  0  0  0  0  0  0  0  0  0  0  0
  187.8670  177.3430  142.7820 Cl  0  0  0  0  0  0  0  0  0  0  0  0
  186.6610  178.2850  145.0800 C   0  0  0  0  0  0  0  0  0  0  0  0
  185.7000  179.0480  145.7540 C   0  0  0  0  0  3  0  0  0  0  0  0
  187.6200  177.0450  146.9670 N   0  0  0  0  0  0  0  0  0  0  0  0
  192.2240  176.3230  146.9680 N   0  0  0  0  0  1  0  0  0  0  0  0
  187.7800  177.7370  145.8720 C   0  0  0  0  0  0  0  0  0  0  0  0
  191.3660  177.5980  145.0490 C   0  0  0  0  0  3  0  0  0  0  0  0
  188.9140  176.5880  147.4180 C   0  0  0  0  0  3  0  0  0  0  0  0
  191.2000  176.9670  146.2190 C   0  0  0  0  0  0  0  0  0  0  0  0
  190.0390  178.1010  144.5830 C   0  0  0  0  0  3  0  0  0  0  0  0
  189.1880  177.7460  145.5360 C   0  0  0  0  0  0  0  0  0  0  0  0
  189.8050  177.0320  146.5510 C   0  0  0  0  0  0  0  0  0  0  0  0
  188.4130  178.3870  138.7790 C   0  0  2  0  0  3  0  0  0  0  0  0
  188.8970  179.5330  138.1440 O   0  0  0  0  0  1  0  0  0  0  0  0
  191.3400  176.1210  138.7530 C   0  0  0  0  0  3  0  0  0  0  0  0
  189.2410  177.2380  138.4360 N   0  0  0  0  0  0  0  0  0  0  0  0
  188.6770  176.1400  137.6390 C   0  0  0  0  0  2  0  0  0  0  0  0
  190.9310  175.1020  137.7770 C   0  0  0  0  0  0  0  0  0  0  0  0
  191.8130  174.1350  137.4250 F   0  0  0  0  0  0  0  0  0  0  0  0
  189.7120  175.1260  137.2260 C   0  0  0  0  0  0  0  0  0  0  0  0
  189.3650  174.1740  136.3260 F   0  0  0  0  0  0  0  0  0  0  0  0
  190.5290  177.1310  139.0540 C   0  0  0  0  0  3  0  0  0  0  0  0
  184.3940  176.2250  137.1940 O   0  0  0  0  0  1  0  0  0  0  0  0
  184.3290  177.6030  137.4060 C   0  0  0  0  0  2  0  0  0  0  0  0
  182.2000  177.6330  139.3350 N   0  0  0  0  0  2  0  0  0  0  0  0
  181.0230  178.0400  140.0880 C   0  0  0  0  0  2  0  0  0  0  0  0
  180.1720  178.9560  139.2370 C   0  0  0  0  0  2  0  0  0  0  0  0
  180.7810  179.0660  137.8510 C   0  0  0  0  0  2  0  0  0  0  0  0
  181.7920  181.2610  138.4640 C   0  0  0  0  0  1  0  0  0  0  0  0
  180.9350  180.5230  137.4530 C   0  0  0  0  0  2  0  0  0  0  0  0
  1 11  1  0  0  0  0
  2  1  2  0  0  0  0
  3  2  1  0  0  0  0
  4  6  2  0  0  0  0
  5 24  1  0  0  0  0
  5  3  2  0  0  0  0
  6  1  1  0  0  0  0
  7  3  1  0  0  0  0
  7  4  1  0  0  0  0
  8 10  1  0  0  0  0
  9 13  2  0  0  0  0
 10 14  2  0  0  0  0
 11  9  1  0  0  0  0
 11  8  2  0  0  0  0
 12  9  1  0  0  0  0
 13 14  1  0  0  0  0
 13 17  1  0  0  0  0
 15 19  1  0  0  0  0
 17 15  2  0  0  0  0
 18 20  2  0  0  0  0
 20 23  1  0  0  0  0
 20 16  1  0  0  0  0
 21 18  1  0  0  0  0
 21 22  2  0  0  0  0
 22 17  1  0  0  0  0
 22 23  1  0  0  0  0
 23 19  2  0  0  0  0
 24 25  1  6  0  0  0
 26 33  2  0  0  0  0
 27 24  1  0  0  0  0
 27 33  1  0  0  0  0
 28 27  1  0  0  0  0
 29 26  1  0  0  0  0
 30 29  1  0  0  0  0
 31 28  1  0  0  0  0
 31 29  2  0  0  0  0
 32 31  1  0  0  0  0
 34 35  1  0  0  0  0
 35  7  1  0  0  0  0
 36  4  1  0  0  0  0
 36 37  1  0  0  0  0
 38 37  1  0  0  0  0
 39 38  1  0  0  0  0
 41 39  1  0  0  0  0
 41 40  1  0  0  0  0
M  END
>  <MODEL>
2

>  <REMARK>
 VINA RESULT:      -7.9      2.451      5.065
  Name = 
  10 active torsions:
  status: ('A' for Active; 'I' for Inactive)
    1  A    between atoms: C_2  and  C_18
    2  A    between atoms: C_6  and  N_11
    3  A    between atoms: C_6  and  C_29
    4  A    between atoms: C_8  and  C_25
    5  A    between atoms: C_8  and  N_40
    6  A    between atoms: C_9  and  C_22
    7  A    between atoms: C_20  and  C_35
    8  A    between atoms: C_25  and  C_35
    9  A    between atoms: C_26  and  N_40
   10  A    between atoms: C_28  and  N_31
                            x       y       z     vdW  Elec       q    Type
                         _______ _______ _______ _____ _____    ______ ____

>  <TORSDO>
F 10

$$$$
=
 OpenBabel10232408353D

 41 45  0  0  1  0  0  0  0  0999 V2000
  186.9280  178.1860  141.6450 C   0  0  0  0  0  0  0  0  0  0  0  0
  188.0200  177.7330  141.0190 C   0  0  0  0  0  3  0  0  0  0  0  0
  188.1250  177.7950  139.5510 C   0  0  0  0  0  0  0  0  0  0  0  0
  185.8380  178.7850  139.5130 C   0  0  0  0  0  0  0  0  0  0  0  0
  189.2240  177.3590  138.9230 C   0  0  0  0  0  3  0  0  0  0  0  0
  185.7950  178.7140  140.8520 C   0  0  0  0  0  3  0  0  0  0  0  0
  187.0130  178.3370  138.8070 N   0  0  0  0  0  0  0  0  0  0  0  0
  185.5180  178.1160  143.6700 C   0  0  0  0  0  3  0  0  0  0  0  0
  187.9290  177.9870  143.9830 C   0  0  0  0  0  0  0  0  0  0  0  0
  185.3260  178.0200  145.0450 C   0  0  0  0  0  3  0  0  0  0  0  0
  186.8070  178.0910  143.1190 C   0  0  0  0  0  0  0  0  0  0  0  0
  189.5670  178.2040  143.3520 Cl  0  0  0  0  0  0  0  0  0  0  0  0
  187.7240  177.8540  145.3790 C   0  0  0  0  0  0  0  0  0  0  0  0
  186.4220  177.8880  145.8920 C   0  0  0  0  0  3  0  0  0  0  0  0
  188.7960  178.1280  147.5670 N   0  0  0  0  0  0  0  0  0  0  0  0
  192.9060  176.0360  148.2430 N   0  0  0  0  0  1  0  0  0  0  0  0
  188.8350  177.6940  146.3370 C   0  0  0  0  0  0  0  0  0  0  0  0
  191.9280  175.7240  146.0090 C   0  0  0  0  0  3  0  0  0  0  0  0
  190.0050  177.7130  148.2420 C   0  0  0  0  0  3  0  0  0  0  0  0
  191.9190  176.2500  147.2410 C   0  0  0  0  0  0  0  0  0  0  0  0
  190.6960  176.1670  145.2880 C   0  0  0  0  0  3  0  0  0  0  0  0
  190.0620  176.9480  146.1510 C   0  0  0  0  0  0  0  0  0  0  0  0
  190.7220  177.0320  147.3680 C   0  0  0  0  0  0  0  0  0  0  0  0
  190.4180  176.7930  139.6300 C   0  0  2  0  0  3  0  0  0  0  0  0
  191.1260  177.8110  140.2750 O   0  0  0  0  0  1  0  0  0  0  0  0
  193.4980  175.8970  137.7830 C   0  0  0  0  0  3  0  0  0  0  0  0
  191.2850  176.1000  138.6870 N   0  0  0  0  0  0  0  0  0  0  0  0
  190.7840  174.9290  137.9540 C   0  0  0  0  0  2  0  0  0  0  0  0
  193.0100  174.8730  136.8500 C   0  0  0  0  0  0  0  0  0  0  0  0
  193.8590  174.3690  135.9210 F   0  0  0  0  0  0  0  0  0  0  0  0
  191.7420  174.4480  136.8950 C   0  0  0  0  0  0  0  0  0  0  0  0
  191.3200  173.5040  136.0180 F   0  0  0  0  0  0  0  0  0  0  0  0
  192.6680  176.4730  138.6480 C   0  0  0  0  0  3  0  0  0  0  0  0
  187.6300  179.5650  136.9190 O   0  0  0  0  0  1  0  0  0  0  0  0
  187.0340  178.3780  137.3470 C   0  0  0  0  0  2  0  0  0  0  0  0
  184.7220  179.3040  138.7800 N   0  0  0  0  0  2  0  0  0  0  0  0
  183.4120  178.6700  138.7590 C   0  0  0  0  0  2  0  0  0  0  0  0
  182.3370  179.7290  138.8630 C   0  0  0  0  0  2  0  0  0  0  0  0
  181.4700  179.4510  140.0760 C   0  0  0  0  0  2  0  0  0  0  0  0
  181.9640  178.8790  142.4530 C   0  0  0  0  0  1  0  0  0  0  0  0
  182.1580  178.4670  141.0060 C   0  0  0  0  0  2  0  0  0  0  0  0
  1 11  1  0  0  0  0
  2  1  2  0  0  0  0
  3  2  1  0  0  0  0
  4  6  2  0  0  0  0
  5  3  2  0  0  0  0
  5 24  1  0  0  0  0
  6  1  1  0  0  0  0
  7  4  1  0  0  0  0
  7  3  1  0  0  0  0
  8 10  1  0  0  0  0
  9 13  2  0  0  0  0
 10 14  2  0  0  0  0
 11  8  2  0  0  0  0
 11  9  1  0  0  0  0
 12  9  1  0  0  0  0
 13 14  1  0  0  0  0
 13 17  1  0  0  0  0
 15 19  1  0  0  0  0
 17 15  2  0  0  0  0
 18 20  2  0  0  0  0
 20 23  1  0  0  0  0
 20 16  1  0  0  0  0
 21 18  1  0  0  0  0
 21 22  2  0  0  0  0
 22 17  1  0  0  0  0
 22 23  1  0  0  0  0
 23 19  2  0  0  0  0
 24 25  1  6  0  0  0
 26 33  2  0  0  0  0
 27 24  1  0  0  0  0
 28 27  1  0  0  0  0
 29 31  2  0  0  0  0
 29 26  1  0  0  0  0
 30 29  1  0  0  0  0
 31 28  1  0  0  0  0
 32 31  1  0  0  0  0
 33 27  1  0  0  0  0
 34 35  1  0  0  0  0
 35  7  1  0  0  0  0
 36  4  1  0  0  0  0
 37 36  1  0  0  0  0
 37 38  1  0  0  0  0
 38 39  1  0  0  0  0
 39 41  1  0  0  0  0
 41 40  1  0  0  0  0
M  END
>  <MODEL>
3

>  <REMARK>
 VINA RESULT:      -7.9      2.696      4.916
  Name = 
  10 active torsions:
  status: ('A' for Active; 'I' for Inactive)
    1  A    between atoms: C_2  and  C_18
    2  A    between atoms: C_6  and  N_11
    3  A    between atoms: C_6  and  C_29
    4  A    between atoms: C_8  and  C_25
    5  A    between atoms: C_8  and  N_40
    6  A    between atoms: C_9  and  C_22
    7  A    between atoms: C_20  and  C_35
    8  A    between atoms: C_25  and  C_35
    9  A    between atoms: C_26  and  N_40
   10  A    between atoms: C_28  and  N_31
                            x       y       z     vdW  Elec       q    Type
                         _______ _______ _______ _____ _____    ______ ____

>  <TORSDO>
F 10

$$$$
=
 OpenBabel10232408353D

 41 45  0  0  1  0  0  0  0  0999 V2000
  184.0820  178.5730  141.3760 C   0  0  0  0  0  0  0  0  0  0  0  0
  184.9110  178.3670  140.3460 C   0  0  0  0  0  3  0  0  0  0  0  0
  184.4080  178.3800  138.9610 C   0  0  0  0  0  0  0  0  0  0  0  0
  182.1290  178.7850  139.8820 C   0  0  0  0  0  0  0  0  0  0  0  0
  185.2390  178.1920  137.9280 C   0  0  0  0  0  3  0  0  0  0  0  0
  182.6370  178.7720  141.1240 C   0  0  0  0  0  3  0  0  0  0  0  0
  182.9980  178.6000  138.7470 N   0  0  0  0  0  0  0  0  0  0  0  0
  183.6920  178.8810  143.7930 C   0  0  0  0  0  3  0  0  0  0  0  0
  185.9090  178.1470  143.1050 C   0  0  0  0  0  0  0  0  0  0  0  0
  184.0860  178.8490  145.1270 C   0  0  0  0  0  3  0  0  0  0  0  0
  184.5820  178.5250  142.7700 C   0  0  0  0  0  0  0  0  0  0  0  0
  187.1250  177.9350  141.8380 Cl  0  0  0  0  0  0  0  0  0  0  0  0
  186.2920  178.0830  144.4670 C   0  0  0  0  0  0  0  0  0  0  0  0
  185.3770  178.4500  145.4600 C   0  0  0  0  0  3  0  0  0  0  0  0
  188.5830  177.3010  144.0730 N   0  0  0  0  0  0  0  0  0  0  0  0
  191.4300  176.9950  147.7500 N   0  0  0  0  0  1  0  0  0  0  0  0
  187.6370  177.6530  144.8990 C   0  0  0  0  0  0  0  0  0  0  0  0
  189.1490  177.7620  148.2540 C   0  0  0  0  0  3  0  0  0  0  0  0
  189.7850  177.0390  144.8310 C   0  0  0  0  0  3  0  0  0  0  0  0
  190.0870  177.3150  147.4080 C   0  0  0  0  0  0  0  0  0  0  0  0
  187.8910  178.0110  147.4890 C   0  0  0  0  0  3  0  0  0  0  0  0
  188.1790  177.6650  146.2420 C   0  0  0  0  0  0  0  0  0  0  0  0
  189.4970  177.2570  146.1010 C   0  0  0  0  0  0  0  0  0  0  0  0
  186.7130  177.9670  138.0750 C   0  0  2  0  0  3  0  0  0  0  0  0
  187.4230  179.0380  137.5260 O   0  0  0  0  0  1  0  0  0  0  0  0
  186.3720  174.6280  136.5120 C   0  0  0  0  0  3  0  0  0  0  0  0
  187.1040  176.7230  137.4260 N   0  0  0  0  0  0  0  0  0  0  0  0
  188.4900  176.5340  136.9770 C   0  0  0  0  0  2  0  0  0  0  0  0
  187.7720  174.2700  136.2450 C   0  0  0  0  0  0  0  0  0  0  0  0
  188.0540  173.0400  135.7530 F   0  0  0  0  0  0  0  0  0  0  0  0
  188.7630  175.1330  136.4960 C   0  0  0  0  0  0  0  0  0  0  0  0
  190.0450  174.7720  136.2420 F   0  0  0  0  0  0  0  0  0  0  0  0
  186.0700  175.7950  137.0760 C   0  0  0  0  0  3  0  0  0  0  0  0
  182.0570  177.2680  137.0760 O   0  0  0  0  0  1  0  0  0  0  0  0
  182.4290  178.5730  137.4020 C   0  0  0  0  0  2  0  0  0  0  0  0
  180.7240  178.9820  139.6790 N   0  0  0  0  0  2  0  0  0  0  0  0
  180.0300  180.2150  140.0200 C   0  0  0  0  0  2  0  0  0  0  0  0
  180.6090  181.3580  139.2160 C   0  0  0  0  0  2  0  0  0  0  0  0
  180.0300  181.3320  137.8140 C   0  0  0  0  0  2  0  0  0  0  0  0
  180.4880  182.0850  135.4810 C   0  0  0  0  0  1  0  0  0  0  0  0
  180.6790  182.4010  136.9520 C   0  0  0  0  0  2  0  0  0  0  0  0
  1 11  1  0  0  0  0
  2  1  2  0  0  0  0
  3  2  1  0  0  0  0
  4  6  2  0  0  0  0
  5 24  1  0  0  0  0
  5  3  2  0  0  0  0
  6  1  1  0  0  0  0
  7  3  1  0  0  0  0
  7  4  1  0  0  0  0
  8 10  1  0  0  0  0
  9 13  2  0  0  0  0
 10 14  2  0  0  0  0
 11  9  1  0  0  0  0
 11  8  2  0  0  0  0
 12  9  1  0  0  0  0
 13 17  1  0  0  0  0
 13 14  1  0  0  0  0
 15 19  2  0  0  0  0
 15 17  1  0  0  0  0
 17 22  2  0  0  0  0
 19 23  1  0  0  0  0
 20 16  1  0  0  0  0
 20 18  1  0  0  0  0
 21 18  2  0  0  0  0
 22 21  1  0  0  0  0
 23 22  1  0  0  0  0
 23 20  2  0  0  0  0
 24 25  1  6  0  0  0
 26 33  2  0  0  0  0
 27 24  1  0  0  0  0
 28 27  1  0  0  0  0
 29 31  2  0  0  0  0
 29 26  1  0  0  0  0
 30 29  1  0  0  0  0
 31 28  1  0  0  0  0
 32 31  1  0  0  0  0
 33 27  1  0  0  0  0
 34 35  1  0  0  0  0
 35  7  1  0  0  0  0
 36  4  1  0  0  0  0
 36 37  1  0  0  0  0
 38 37  1  0  0  0  0
 39 38  1  0  0  0  0
 40 41  1  0  0  0  0
 41 39  1  0  0  0  0
M  END
>  <MODEL>
4

>  <REMARK>
 VINA RESULT:      -7.9      2.670      5.094
  Name = 
  10 active torsions:
  status: ('A' for Active; 'I' for Inactive)
    1  A    between atoms: C_2  and  C_18
    2  A    between atoms: C_6  and  N_11
    3  A    between atoms: C_6  and  C_29
    4  A    between atoms: C_8  and  C_25
    5  A    between atoms: C_8  and  N_40
    6  A    between atoms: C_9  and  C_22
    7  A    between atoms: C_20  and  C_35
    8  A    between atoms: C_25  and  C_35
    9  A    between atoms: C_26  and  N_40
   10  A    between atoms: C_28  and  N_31
                            x       y       z     vdW  Elec       q    Type
                         _______ _______ _______ _____ _____    ______ ____

>  <TORSDO>
F 10

$$$$
=
 OpenBabel10232408353D

 41 45  0  0  1  0  0  0  0  0999 V2000
  185.9860  178.4310  141.3350 C   0  0  0  0  0  0  0  0  0  0  0  0
  184.9030  178.6170  140.5700 C   0  0  0  0  0  3  0  0  0  0  0  0
  185.0020  178.5630  139.1010 C   0  0  0  0  0  0  0  0  0  0  0  0
  187.4480  178.1650  139.3650 C   0  0  0  0  0  0  0  0  0  0  0  0
  183.9170  178.7300  138.3350 C   0  0  0  0  0  3  0  0  0  0  0  0
  187.3040  178.2140  140.6970 C   0  0  0  0  0  3  0  0  0  0  0  0
  186.2970  178.3260  138.5100 N   0  0  0  0  0  0  0  0  0  0  0  0
  184.7180  179.0540  143.3590 C   0  0  0  0  0  3  0  0  0  0  0  0
  186.9350  178.1010  143.6800 C   0  0  0  0  0  0  0  0  0  0  0  0
  184.5540  179.1580  144.7370 C   0  0  0  0  0  3  0  0  0  0  0  0
  185.8930  178.5200  142.8110 C   0  0  0  0  0  0  0  0  0  0  0  0
  188.5190  177.6590  143.0270 Cl  0  0  0  0  0  0  0  0  0  0  0  0
  186.7470  178.1770  145.0810 C   0  0  0  0  0  0  0  0  0  0  0  0
  185.5620  178.7200  145.5910 C   0  0  0  0  0  3  0  0  0  0  0  0
  187.4700  177.2060  147.2150 N   0  0  0  0  0  0  0  0  0  0  0  0
  192.0160  176.3360  147.7680 N   0  0  0  0  0  1  0  0  0  0  0  0
  187.7620  177.7170  146.0500 C   0  0  0  0  0  0  0  0  0  0  0  0
  191.3970  177.3330  145.6070 C   0  0  0  0  0  3  0  0  0  0  0  0
  188.6950  176.7780  147.8510 C   0  0  0  0  0  3  0  0  0  0  0  0
  191.0960  176.8930  146.8360 C   0  0  0  0  0  0  0  0  0  0  0  0
  190.1430  177.8050  144.9450 C   0  0  0  0  0  3  0  0  0  0  0  0
  189.1940  177.6280  145.8540 C   0  0  0  0  0  0  0  0  0  0  0  0
  189.6810  177.0550  147.0190 C   0  0  0  0  0  0  0  0  0  0  0  0
  182.5420  178.9700  138.8790 C   0  0  2  0  0  3  0  0  0  0  0  0
  181.8070  177.7820  138.8790 O   0  0  0  0  0  1  0  0  0  0  0  0
  180.4260  180.4280  136.2130 C   0  0  0  0  0  3  0  0  0  0  0  0
  181.8540  179.9840  138.0900 N   0  0  0  0  0  0  0  0  0  0  0  0
  181.8370  181.3810  138.5450 C   0  0  0  0  0  2  0  0  0  0  0  0
  180.5560  181.8690  136.4720 C   0  0  0  0  0  0  0  0  0  0  0  0
  179.9820  182.7460  135.6130 F   0  0  0  0  0  0  0  0  0  0  0  0
  181.2430  182.3200  137.5280 C   0  0  0  0  0  0  0  0  0  0  0  0
  181.3480  183.6550  137.7380 F   0  0  0  0  0  0  0  0  0  0  0  0
  181.0500  179.5450  136.9880 C   0  0  0  0  0  3  0  0  0  0  0  0
  187.1030  179.4890  136.6530 O   0  0  0  0  0  1  0  0  0  0  0  0
  186.4710  178.3140  137.0600 C   0  0  0  0  0  2  0  0  0  0  0  0
  188.7410  177.9510  138.7850 N   0  0  0  0  0  2  0  0  0  0  0  0
  189.3250  176.6320  138.5910 C   0  0  0  0  0  2  0  0  0  0  0  0
  190.7560  176.6390  139.0810 C   0  0  0  0  0  2  0  0  0  0  0  0
  190.8180  177.2900  140.4490 C   0  0  0  0  0  2  0  0  0  0  0  0
  193.2190  177.2980  139.7730 C   0  0  0  0  0  1  0  0  0  0  0  0
  192.2530  177.3550  140.9420 C   0  0  0  0  0  2  0  0  0  0  0  0
  1 11  1  0  0  0  0
  2  1  2  0  0  0  0
  3  2  1  0  0  0  0
  4  6  2  0  0  0  0
  5 24  1  0  0  0  0
  5  3  2  0  0  0  0
  6  1  1  0  0  0  0
  7  3  1  0  0  0  0
  7  4  1  0  0  0  0
  8 10  1  0  0  0  0
  9 13  2  0  0  0  0
 10 14  2  0  0  0  0
 11  8  2  0  0  0  0
 11  9  1  0  0  0  0
 12  9  1  0  0  0  0
 13 14  1  0  0  0  0
 13 17  1  0  0  0  0
 15 19  1  0  0  0  0
 17 15  2  0  0  0  0
 18 20  2  0  0  0  0
 20 23  1  0  0  0  0
 20 16  1  0  0  0  0
 21 18  1  0  0  0  0
 21 22  2  0  0  0  0
 22 17  1  0  0  0  0
 22 23  1  0  0  0  0
 23 19  2  0  0  0  0
 24 25  1  6  0  0  0
 26 29  1  0  0  0  0
 26 33  2  0  0  0  0
 27 28  1  0  0  0  0
 27 24  1  0  0  0  0
 29 31  2  0  0  0  0
 30 29  1  0  0  0  0
 31 32  1  0  0  0  0
 31 28  1  0  0  0  0
 33 27  1  0  0  0  0
 34 35  1  0  0  0  0
 35  7  1  0  0  0  0
 36  4  1  0  0  0  0
 37 36  1  0  0  0  0
 37 38  1  0  0  0  0
 38 39  1  0  0  0  0
 39 41  1  0  0  0  0
 40 41  1  0  0  0  0
M  END
>  <MODEL>
5

>  <REMARK>
 VINA RESULT:      -7.6      3.619      6.200
  Name = 
  10 active torsions:
  status: ('A' for Active; 'I' for Inactive)
    1  A    between atoms: C_2  and  C_18
    2  A    between atoms: C_6  and  N_11
    3  A    between atoms: C_6  and  C_29
    4  A    between atoms: C_8  and  C_25
    5  A    between atoms: C_8  and  N_40
    6  A    between atoms: C_9  and  C_22
    7  A    between atoms: C_20  and  C_35
    8  A    between atoms: C_25  and  C_35
    9  A    between atoms: C_26  and  N_40
   10  A    between atoms: C_28  and  N_31
                            x       y       z     vdW  Elec       q    Type
                         _______ _______ _______ _____ _____    ______ ____

>  <TORSDO>
F 10

$$$$
=
 OpenBabel10232408353D

 41 45  0  0  1  0  0  0  0  0999 V2000
  189.7470  176.3740  138.8020 C   0  0  0  0  0  0  0  0  0  0  0  0
  190.0110  176.5040  140.1080 C   0  0  0  0  0  3  0  0  0  0  0  0
  189.2100  177.4090  140.9500 C   0  0  0  0  0  0  0  0  0  0  0  0
  187.9160  178.0250  138.9120 C   0  0  0  0  0  0  0  0  0  0  0  0
  189.4610  177.5270  142.2600 C   0  0  0  0  0  3  0  0  0  0  0  0
  188.6680  177.1810  138.1900 C   0  0  0  0  0  3  0  0  0  0  0  0
  188.1510  178.1650  140.3280 N   0  0  0  0  0  0  0  0  0  0  0  0
  189.9440  174.3950  137.3400 C   0  0  0  0  0  3  0  0  0  0  0  0
  191.9620  175.6990  137.7300 C   0  0  0  0  0  0  0  0  0  0  0  0
  190.6540  173.5280  136.5150 C   0  0  0  0  0  3  0  0  0  0  0  0
  190.5750  175.4900  137.9480 C   0  0  0  0  0  0  0  0  0  0  0  0
  192.8410  176.9120  138.6720 Cl  0  0  0  0  0  0  0  0  0  0  0  0
  192.6700  174.8340  136.8610 C   0  0  0  0  0  0  0  0  0  0  0  0
  192.0060  173.7490  136.2760 C   0  0  0  0  0  3  0  0  0  0  0  0
  194.5380  175.7490  135.5620 N   0  0  0  0  0  0  0  0  0  0  0  0
  198.8580  174.9430  137.1150 N   0  0  0  0  0  1  0  0  0  0  0  0
  194.1010  175.0130  136.5470 C   0  0  0  0  0  0  0  0  0  0  0  0
  197.0580  173.9610  138.4720 C   0  0  0  0  0  3  0  0  0  0  0  0
  195.9820  175.7760  135.6100 C   0  0  0  0  0  3  0  0  0  0  0  0
  197.4970  174.6450  137.4070 C   0  0  0  0  0  0  0  0  0  0  0  0
  195.5660  173.9020  138.4220 C   0  0  0  0  0  3  0  0  0  0  0  0
  195.2390  174.5390  137.3070 C   0  0  0  0  0  0  0  0  0  0  0  0
  196.3480  175.0440  136.6450 C   0  0  0  0  0  0  0  0  0  0  0  0
  190.5380  176.7680  142.9740 C   0  0  2  0  0  3  0  0  0  0  0  0
  190.4810  175.4130  142.6360 O   0  0  0  0  0  1  0  0  0  0  0  0
  189.0000  177.6470  146.2250 C   0  0  0  0  0  3  0  0  0  0  0  0
  190.4030  176.9300  144.4150 N   0  0  0  0  0  0  0  0  0  0  0  0
  191.4340  176.3910  145.3130 C   0  0  0  0  0  2  0  0  0  0  0  0
  190.0850  177.3460  147.1690 C   0  0  0  0  0  0  0  0  0  0  0  0
  189.9170  177.6440  148.4800 F   0  0  0  0  0  0  0  0  0  0  0  0
  191.2320  176.8020  146.7490 C   0  0  0  0  0  0  0  0  0  0  0  0
  192.2160  176.5390  147.6430 F   0  0  0  0  0  0  0  0  0  0  0  0
  189.1660  177.4470  144.9200 C   0  0  0  0  0  3  0  0  0  0  0  0
  186.3280  178.4450  141.7600 O   0  0  0  0  0  1  0  0  0  0  0  0
  187.3550  179.1180  141.0980 C   0  0  0  0  0  2  0  0  0  0  0  0
  186.8800  178.7880  138.2820 N   0  0  0  0  0  2  0  0  0  0  0  0
  185.9090  178.2160  137.3610 C   0  0  0  0  0  2  0  0  0  0  0  0
  184.6120  177.9560  138.0950 C   0  0  0  0  0  2  0  0  0  0  0  0
  184.2620  179.1620  138.9460 C   0  0  0  0  0  2  0  0  0  0  0  0
  182.9710  177.2940  139.9750 C   0  0  0  0  0  1  0  0  0  0  0  0
  183.3460  178.7590  140.0870 C   0  0  0  0  0  2  0  0  0  0  0  0
  1  2  2  0  0  0  0
  2  3  1  0  0  0  0
  3  5  2  0  0  0  0
  4  7  1  0  0  0  0
  5 24  1  0  0  0  0
  6  1  1  0  0  0  0
  6  4  2  0  0  0  0
  7  3  1  0  0  0  0
  7 35  1  0  0  0  0
  8 11  1  0  0  0  0
  9 11  2  0  0  0  0
  9 12  1  0  0  0  0
 10  8  2  0  0  0  0
 11  1  1  0  0  0  0
 13  9  1  0  0  0  0
 14 10  1  0  0  0  0
 14 13  2  0  0  0  0
 15 19  2  0  0  0  0
 15 17  1  0  0  0  0
 16 20  1  0  0  0  0
 17 13  1  0  0  0  0
 17 22  2  0  0  0  0
 19 23  1  0  0  0  0
 20 18  1  0  0  0  0
 21 18  2  0  0  0  0
 22 21  1  0  0  0  0
 23 22  1  0  0  0  0
 23 20  2  0  0  0  0
 24 25  1  1  0  0  0
 24 27  1  0  0  0  0
 26 29  1  0  0  0  0
 27 33  1  0  0  0  0
 27 28  1  0  0  0  0
 28 31  1  0  0  0  0
 29 30  1  0  0  0  0
 31 29  2  0  0  0  0
 31 32  1  0  0  0  0
 33 26  2  0  0  0  0
 35 34  1  0  0  0  0
 36  4  1  0  0  0  0
 37 38  1  0  0  0  0
 37 36  1  0  0  0  0
 38 39  1  0  0  0  0
 39 41  1  0  0  0  0
 40 41  1  0  0  0  0
M  END
>  <MODEL>
6

>  <REMARK>
 VINA RESULT:      -7.5      4.857      8.085
  Name = 
  10 active torsions:
  status: ('A' for Active; 'I' for Inactive)
    1  A    between atoms: C_2  and  C_18
    2  A    between atoms: C_6  and  N_11
    3  A    between atoms: C_6  and  C_29
    4  A    between atoms: C_8  and  C_25
    5  A    between atoms: C_8  and  N_40
    6  A    between atoms: C_9  and  C_22
    7  A    between atoms: C_20  and  C_35
    8  A    between atoms: C_25  and  C_35
    9  A    between atoms: C_26  and  N_40
   10  A    between atoms: C_28  and  N_31
                            x       y       z     vdW  Elec       q    Type
                         _______ _______ _______ _____ _____    ______ ____

>  <TORSDO>
F 10

$$$$
=
 OpenBabel10232408353D

 41 45  0  0  1  0  0  0  0  0999 V2000
  190.1420  177.5090  140.2980 C   0  0  0  0  0  0  0  0  0  0  0  0
  191.0350  176.8940  139.5150 C   0  0  0  0  0  3  0  0  0  0  0  0
  190.7850  176.7290  138.0720 C   0  0  0  0  0  0  0  0  0  0  0  0
  188.5890  177.8580  138.4120 C   0  0  0  0  0  0  0  0  0  0  0  0
  191.6850  176.1300  137.2840 C   0  0  0  0  0  3  0  0  0  0  0  0
  188.8680  177.9910  139.7170 C   0  0  0  0  0  3  0  0  0  0  0  0
  189.5440  177.2300  137.5320 N   0  0  0  0  0  0  0  0  0  0  0  0
  191.6860  177.9160  142.1800 C   0  0  0  0  0  3  0  0  0  0  0  0
  189.3500  177.4980  142.7230 C   0  0  0  0  0  0  0  0  0  0  0  0
  191.9820  178.0670  143.5310 C   0  0  0  0  0  3  0  0  0  0  0  0
  190.3780  177.6430  141.7540 C   0  0  0  0  0  0  0  0  0  0  0  0
  187.7510  176.9100  142.2480 Cl  0  0  0  0  0  0  0  0  0  0  0  0
  189.6520  177.6880  144.0940 C   0  0  0  0  0  0  0  0  0  0  0  0
  190.9710  177.9560  144.4800 C   0  0  0  0  0  3  0  0  0  0  0  0
  188.8820  177.1900  146.3690 N   0  0  0  0  0  0  0  0  0  0  0  0
  184.4970  178.3260  147.4680 N   0  0  0  0  0  1  0  0  0  0  0  0
  188.6310  177.6030  145.1560 C   0  0  0  0  0  0  0  0  0  0  0  0
  185.1630  178.8400  145.1580 C   0  0  0  0  0  3  0  0  0  0  0  0
  187.6820  177.3300  147.1620 C   0  0  0  0  0  3  0  0  0  0  0  0
  185.4060  178.3320  146.3730 C   0  0  0  0  0  0  0  0  0  0  0  0
  186.3870  178.6780  144.3160 C   0  0  0  0  0  3  0  0  0  0  0  0
  187.2570  178.0580  145.1000 C   0  0  0  0  0  0  0  0  0  0  0  0
  186.7520  177.8350  146.3720 C   0  0  0  0  0  0  0  0  0  0  0  0
  192.9960  175.5950  137.7740 C   0  0  2  0  0  3  0  0  0  0  0  0
  194.0340  176.4610  137.4230 O   0  0  0  0  0  1  0  0  0  0  0  0
  192.4300  172.5130  135.8010 C   0  0  0  0  0  3  0  0  0  0  0  0
  193.2420  174.2690  137.2200 N   0  0  0  0  0  0  0  0  0  0  0  0
  194.5360  173.6110  137.4420 C   0  0  0  0  0  2  0  0  0  0  0  0
  193.5960  171.6960  136.1670 C   0  0  0  0  0  0  0  0  0  0  0  0
  193.6820  170.4260  135.7010 F   0  0  0  0  0  0  0  0  0  0  0  0
  194.5570  172.1830  136.9600 C   0  0  0  0  0  0  0  0  0  0  0  0
  195.6180  171.4040  137.2820 F   0  0  0  0  0  0  0  0  0  0  0  0
  192.2730  173.7320  136.3110 C   0  0  0  0  0  3  0  0  0  0  0  0
  188.4990  175.8650  135.9520 O   0  0  0  0  0  1  0  0  0  0  0  0
  189.2120  177.0530  136.1210 C   0  0  0  0  0  2  0  0  0  0  0  0
  187.3450  178.3390  137.8870 N   0  0  0  0  0  2  0  0  0  0  0  0
  186.0480  177.8160  138.2910 C   0  0  0  0  0  2  0  0  0  0  0  0
  185.0690  178.9590  138.4420 C   0  0  0  0  0  2  0  0  0  0  0  0
  183.9020  178.5120  139.3010 C   0  0  0  0  0  2  0  0  0  0  0  0
  183.9980  178.0300  141.7460 C   0  0  0  0  0  1  0  0  0  0  0  0
  184.0030  179.1180  140.6900 C   0  0  0  0  0  2  0  0  0  0  0  0
  1 11  1  0  0  0  0
  2  1  2  0  0  0  0
  3  2  1  0  0  0  0
  4  6  2  0  0  0  0
  5 24  1  0  0  0  0
  5  3  2  0  0  0  0
  6  1  1  0  0  0  0
  7  3  1  0  0  0  0
  7  4  1  0  0  0  0
  8 10  1  0  0  0  0
  9 13  2  0  0  0  0
 10 14  2  0  0  0  0
 11  8  2  0  0  0  0
 11  9  1  0  0  0  0
 12  9  1  0  0  0  0
 13 14  1  0  0  0  0
 13 17  1  0  0  0  0
 15 19  1  0  0  0  0
 17 15  2  0  0  0  0
 18 20  2  0  0  0  0
 20 16  1  0  0  0  0
 21 22  2  0  0  0  0
 21 18  1  0  0  0  0
 22 17  1  0  0  0  0
 22 23  1  0  0  0  0
 23 20  1  0  0  0  0
 23 19  2  0  0  0  0
 24 25  1  6  0  0  0
 26 29  1  0  0  0  0
 26 33  2  0  0  0  0
 27 28  1  0  0  0  0
 27 24  1  0  0  0  0
 29 31  2  0  0  0  0
 30 29  1  0  0  0  0
 31 32  1  0  0  0  0
 31 28  1  0  0  0  0
 33 27  1  0  0  0  0
 34 35  1  0  0  0  0
 35  7  1  0  0  0  0
 36 37  1  0  0  0  0
 36  4  1  0  0  0  0
 37 38  1  0  0  0  0
 38 39  1  0  0  0  0
 39 41  1  0  0  0  0
 41 40  1  0  0  0  0
M  END
>  <MODEL>
7

>  <REMARK>
 VINA RESULT:      -7.4      3.667      5.687
  Name = 
  10 active torsions:
  status: ('A' for Active; 'I' for Inactive)
    1  A    between atoms: C_2  and  C_18
    2  A    between atoms: C_6  and  N_11
    3  A    between atoms: C_6  and  C_29
    4  A    between atoms: C_8  and  C_25
    5  A    between atoms: C_8  and  N_40
    6  A    between atoms: C_9  and  C_22
    7  A    between atoms: C_20  and  C_35
    8  A    between atoms: C_25  and  C_35
    9  A    between atoms: C_26  and  N_40
   10  A    between atoms: C_28  and  N_31
                            x       y       z     vdW  Elec       q    Type
                         _______ _______ _______ _____ _____    ______ ____

>  <TORSDO>
F 10

$$$$
=
 OpenBabel10232408353D

 41 45  0  0  1  0  0  0  0  0999 V2000
  190.3880  176.3350  138.8540 C   0  0  0  0  0  0  0  0  0  0  0  0
  189.2220  176.8720  138.4760 C   0  0  0  0  0  3  0  0  0  0  0  0
  188.4370  177.7000  139.4080 C   0  0  0  0  0  0  0  0  0  0  0  0
  190.1920  177.2780  141.1270 C   0  0  0  0  0  0  0  0  0  0  0  0
  187.2800  178.2520  139.0270 C   0  0  0  0  0  3  0  0  0  0  0  0
  190.8730  176.5390  140.2380 C   0  0  0  0  0  3  0  0  0  0  0  0
  188.9480  177.8990  140.7430 N   0  0  0  0  0  0  0  0  0  0  0  0
  190.4970  174.3840  137.3460 C   0  0  0  0  0  3  0  0  0  0  0  0
  192.5270  175.7000  137.6170 C   0  0  0  0  0  0  0  0  0  0  0  0
  191.1540  173.5380  136.4580 C   0  0  0  0  0  3  0  0  0  0  0  0
  191.1600  175.4740  137.9280 C   0  0  0  0  0  0  0  0  0  0  0  0
  193.4610  176.9040  138.5160 Cl  0  0  0  0  0  0  0  0  0  0  0  0
  193.1790  174.8560  136.6850 C   0  0  0  0  0  0  0  0  0  0  0  0
  192.4840  173.7750  136.1290 C   0  0  0  0  0  3  0  0  0  0  0  0
  194.9450  175.8330  135.2920 N   0  0  0  0  0  0  0  0  0  0  0  0
  199.3690  174.9770  136.4870 N   0  0  0  0  0  1  0  0  0  0  0  0
  194.5830  175.0540  136.2740 C   0  0  0  0  0  0  0  0  0  0  0  0
  197.6740  173.9320  137.9300 C   0  0  0  0  0  3  0  0  0  0  0  0
  196.3890  175.8630  135.2340 C   0  0  0  0  0  3  0  0  0  0  0  0
  198.0340  174.6620  136.8650 C   0  0  0  0  0  0  0  0  0  0  0  0
  196.1820  173.8690  137.9870 C   0  0  0  0  0  3  0  0  0  0  0  0
  195.7740  174.5520  136.9270 C   0  0  0  0  0  0  0  0  0  0  0  0
  196.8310  175.0880  136.2080 C   0  0  0  0  0  0  0  0  0  0  0  0
  186.6940  178.0950  137.6560 C   0  0  2  0  0  3  0  0  0  0  0  0
  187.1270  179.1300  136.8230 O   0  0  0  0  0  1  0  0  0  0  0  0
  183.1980  177.2400  136.7850 C   0  0  0  0  0  3  0  0  0  0  0  0
  185.2380  178.0840  137.7250 N   0  0  0  0  0  0  0  0  0  0  0  0
  184.5520  178.7420  138.8460 C   0  0  0  0  0  2  0  0  0  0  0  0
  182.4360  178.0620  137.7350 C   0  0  0  0  0  0  0  0  0  0  0  0
  181.0830  178.0850  137.6460 F   0  0  0  0  0  0  0  0  0  0  0  0
  183.0570  178.7920  138.6670 C   0  0  0  0  0  0  0  0  0  0  0  0
  182.3250  179.5430  139.5270 F   0  0  0  0  0  0  0  0  0  0  0  0
  184.5290  177.2630  136.7900 C   0  0  0  0  0  3  0  0  0  0  0  0
  187.4230  177.7990  142.5080 O   0  0  0  0  0  1  0  0  0  0  0  0
  188.1930  178.6650  141.7310 C   0  0  0  0  0  2  0  0  0  0  0  0
  190.6960  177.4530  142.4570 N   0  0  0  0  0  2  0  0  0  0  0  0
  190.9830  176.3460  143.3580 C   0  0  0  0  0  2  0  0  0  0  0  0
  191.0850  176.8640  144.7750 C   0  0  0  0  0  2  0  0  0  0  0  0
  190.1380  178.0360  144.9530 C   0  0  0  0  0  2  0  0  0  0  0  0
  189.3360  176.9580  147.0540 C   0  0  0  0  0  1  0  0  0  0  0  0
  188.9180  177.6160  145.7530 C   0  0  0  0  0  2  0  0  0  0  0  0
  1  6  1  0  0  0  0
  2  1  2  0  0  0  0
  2  3  1  0  0  0  0
  3  7  1  0  0  0  0
  4 36  1  0  0  0  0
  5  3  2  0  0  0  0
  6  4  2  0  0  0  0
  7  4  1  0  0  0  0
  7 35  1  0  0  0  0
  8 11  1  0  0  0  0
  9 11  2  0  0  0  0
  9 12  1  0  0  0  0
 10  8  2  0  0  0  0
 11  1  1  0  0  0  0
 13  9  1  0  0  0  0
 14 10  1  0  0  0  0
 14 13  2  0  0  0  0
 15 17  1  0  0  0  0
 16 20  1  0  0  0  0
 17 13  1  0  0  0  0
 17 22  2  0  0  0  0
 18 21  2  0  0  0  0
 19 15  2  0  0  0  0
 19 23  1  0  0  0  0
 20 18  1  0  0  0  0
 22 21  1  0  0  0  0
 23 20  2  0  0  0  0
 23 22  1  0  0  0  0
 24 25  1  6  0  0  0
 24 27  1  0  0  0  0
 24  5  1  0  0  0  0
 26 33  2  0  0  0  0
 26 29  1  0  0  0  0
 27 28  1  0  0  0  0
 29 31  2  0  0  0  0
 30 29  1  0  0  0  0
 31 28  1  0  0  0  0
 31 32  1  0  0  0  0
 33 27  1  0  0  0  0
 35 34  1  0  0  0  0
 36 37  1  0  0  0  0
 37 38  1  0  0  0  0
 38 39  1  0  0  0  0
 39 41  1  0  0  0  0
 41 40  1  0  0  0  0
M  END
>  <MODEL>
8

>  <REMARK>
 VINA RESULT:      -7.4      4.630      6.731
  Name = 
  10 active torsions:
  status: ('A' for Active; 'I' for Inactive)
    1  A    between atoms: C_2  and  C_18
    2  A    between atoms: C_6  and  N_11
    3  A    between atoms: C_6  and  C_29
    4  A    between atoms: C_8  and  C_25
    5  A    between atoms: C_8  and  N_40
    6  A    between atoms: C_9  and  C_22
    7  A    between atoms: C_20  and  C_35
    8  A    between atoms: C_25  and  C_35
    9  A    between atoms: C_26  and  N_40
   10  A    between atoms: C_28  and  N_31
                            x       y       z     vdW  Elec       q    Type
                         _______ _______ _______ _____ _____    ______ ____

>  <TORSDO>
F 10

$$$$
=
 OpenBabel10232408353D

 41 45  0  0  1  0  0  0  0  0999 V2000
  187.8980  178.0330  139.9070 C   0  0  0  0  0  0  0  0  0  0  0  0
  187.2150  177.7260  138.7980 C   0  0  0  0  0  3  0  0  0  0  0  0
  185.7850  178.0620  138.6770 C   0  0  0  0  0  0  0  0  0  0  0  0
  185.8980  178.9970  140.9850 C   0  0  0  0  0  0  0  0  0  0  0  0
  185.1050  177.7720  137.5620 C   0  0  0  0  0  3  0  0  0  0  0  0
  187.1990  178.6770  141.0420 C   0  0  0  0  0  3  0  0  0  0  0  0
  185.1390  178.7110  139.7920 N   0  0  0  0  0  0  0  0  0  0  0  0
  189.9170  177.7970  141.3060 C   0  0  0  0  0  3  0  0  0  0  0  0
  190.1120  177.1950  138.9560 C   0  0  0  0  0  0  0  0  0  0  0  0
  191.2510  177.4580  141.5120 C   0  0  0  0  0  3  0  0  0  0  0  0
  189.3260  177.6630  140.0420 C   0  0  0  0  0  0  0  0  0  0  0  0
  189.4780  177.2500  137.3050 Cl  0  0  0  0  0  0  0  0  0  0  0  0
  191.4590  176.8180  139.1800 C   0  0  0  0  0  0  0  0  0  0  0  0
  192.0140  176.9700  140.4560 C   0  0  0  0  0  3  0  0  0  0  0  0
  193.5030  176.7610  137.8260 N   0  0  0  0  0  0  0  0  0  0  0  0
  194.0180  173.2270  134.8310 N   0  0  0  0  0  1  0  0  0  0  0  0
  192.3260  176.2770  138.1150 C   0  0  0  0  0  0  0  0  0  0  0  0
  191.9250  173.2090  136.1200 C   0  0  0  0  0  3  0  0  0  0  0  0
  194.1060  175.9320  136.8080 C   0  0  0  0  0  3  0  0  0  0  0  0
  193.0920  173.7640  135.7680 C   0  0  0  0  0  0  0  0  0  0  0  0
  191.2760  174.0700  137.1540 C   0  0  0  0  0  3  0  0  0  0  0  0
  192.1070  175.0900  137.3150 C   0  0  0  0  0  0  0  0  0  0  0  0
  193.2450  174.9690  136.5330 C   0  0  0  0  0  0  0  0  0  0  0  0
  185.7120  177.1080  136.3640 C   0  0  2  0  0  3  0  0  0  0  0  0
  185.1510  177.6180  135.1910 O   0  0  0  0  0  1  0  0  0  0  0  0
  184.0340  173.8290  135.9870 C   0  0  0  0  0  3  0  0  0  0  0  0
  185.5140  175.6650  136.4280 N   0  0  0  0  0  0  0  0  0  0  0  0
  186.6280  174.7890  136.8140 C   0  0  0  0  0  2  0  0  0  0  0  0
  185.0160  172.9120  136.5810 C   0  0  0  0  0  0  0  0  0  0  0  0
  184.6970  171.6010  136.7120 F   0  0  0  0  0  0  0  0  0  0  0  0
  186.2040  173.3550  137.0040 C   0  0  0  0  0  0  0  0  0  0  0  0
  187.0880  172.4840  137.5510 F   0  0  0  0  0  0  0  0  0  0  0  0
  184.2820  175.1350  135.9240 C   0  0  0  0  0  3  0  0  0  0  0  0
  183.5160  180.2500  139.1200 O   0  0  0  0  0  1  0  0  0  0  0  0
  183.7130  179.0230  139.7560 C   0  0  0  0  0  2  0  0  0  0  0  0
  185.2580  179.6210  142.1040 N   0  0  0  0  0  2  0  0  0  0  0  0
  184.4960  178.8880  143.1040 C   0  0  0  0  0  2  0  0  0  0  0  0
  185.2090  178.9630  144.4360 C   0  0  0  0  0  2  0  0  0  0  0  0
  186.2690  177.8790  144.5020 C   0  0  0  0  0  2  0  0  0  0  0  0
  188.3890  177.4270  145.7350 C   0  0  0  0  0  1  0  0  0  0  0  0
  186.9480  177.8830  145.8600 C   0  0  0  0  0  2  0  0  0  0  0  0
  1 11  1  0  0  0  0
  1  6  1  0  0  0  0
  2  1  2  0  0  0  0
  3  2  1  0  0  0  0
  3  7  1  0  0  0  0
  4  6  2  0  0  0  0
  4 36  1  0  0  0  0
  5  3  2  0  0  0  0
  7  4  1  0  0  0  0
  8 10  1  0  0  0  0
  9 13  2  0  0  0  0
  9 11  1  0  0  0  0
 11  8  2  0  0  0  0
 12  9  1  0  0  0  0
 13 14  1  0  0  0  0
 14 10  2  0  0  0  0
 15 17  1  0  0  0  0
 16 20  1  0  0  0  0
 17 13  1  0  0  0  0
 18 21  2  0  0  0  0
 19 15  2  0  0  0  0
 20 18  1  0  0  0  0
 20 23  2  0  0  0  0
 21 22  1  0  0  0  0
 22 17  2  0  0  0  0
 23 19  1  0  0  0  0
 23 22  1  0  0  0  0
 24 25  1  6  0  0  0
 24 27  1  0  0  0  0
 24  5  1  0  0  0  0
 26 29  1  0  0  0  0
 27 28  1  0  0  0  0
 28 31  1  0  0  0  0
 29 30  1  0  0  0  0
 29 31  2  0  0  0  0
 31 32  1  0  0  0  0
 33 26  2  0  0  0  0
 33 27  1  0  0  0  0
 34 35  1  0  0  0  0
 35  7  1  0  0  0  0
 36 37  1  0  0  0  0
 37 38  1  0  0  0  0
 38 39  1  0  0  0  0
 39 41  1  0  0  0  0
 40 41  1  0  0  0  0
M  END
>  <MODEL>
9

>  <REMARK>
 VINA RESULT:      -7.3      2.724      4.799
  Name = 
  10 active torsions:
  status: ('A' for Active; 'I' for Inactive)
    1  A    between atoms: C_2  and  C_18
    2  A    between atoms: C_6  and  N_11
    3  A    between atoms: C_6  and  C_29
    4  A    between atoms: C_8  and  C_25
    5  A    between atoms: C_8  and  N_40
    6  A    between atoms: C_9  and  C_22
    7  A    between atoms: C_20  and  C_35
    8  A    between atoms: C_25  and  C_35
    9  A    between atoms: C_26  and  N_40
   10  A    between atoms: C_28  and  N_31
                            x       y       z     vdW  Elec       q    Type
                         _______ _______ _______ _____ _____    ______ ____

>  <TORSDO>
F 10

$$$$
