=
 OpenBabel10232411483D

 47 54  0  0  1  0  0  0  0  0999 V2000
  182.6160  178.7150  140.2400 C   0  0  0  0  0  0  0  0  0  0  0  0
  182.2830  178.7940  141.6700 C   0  0  0  0  0  0  0  0  0  0  0  0
  184.3790  178.4550  138.5900 O   0  0  0  0  0  0  0  0  0  0  0  0
  181.2110  178.8960  143.5230 C   0  0  0  0  0  3  0  0  0  0  0  0
  182.4490  178.0340  137.2090 C   0  0  0  0  0  3  0  0  0  0  0  0
  183.7490  177.9070  137.4680 C   0  0  0  0  0  0  0  0  0  0  0  0
  181.5250  179.0040  139.3010 C   0  0  0  0  0  3  0  0  0  0  0  0
  182.5620  178.8660  143.8350 C   0  0  0  0  0  0  0  0  0  0  0  0
  184.6940  178.8140  142.3400 C   0  0  0  0  0  2  0  0  0  0  0  0
  181.0860  178.8610  142.2080 O   0  0  0  0  0  0  0  0  0  0  0  0
  181.4210  178.7220  138.0060 C   0  0  0  0  0  0  0  0  0  0  0  0
  184.9480  178.1600  140.9710 C   0  0  0  0  0  2  0  0  0  0  0  0
  183.2360  178.7870  142.6420 C   0  0  0  0  0  0  0  0  0  0  0  0
  183.9060  178.4730  139.9020 C   0  0  0  0  0  0  0  0  0  0  0  0
  184.4810  175.1140  137.4570 O   0  0  0  0  0  0  0  0  0  0  0  0
  184.5520  177.2420  136.4880 N   0  0  0  0  0  2  0  0  0  0  0  0
  185.0050  175.8920  136.6100 C   0  0  0  0  0  0  0  0  0  0  0  0
  186.0360  175.4400  135.7870 O   0  0  0  0  0  0  0  0  0  0  0  0
  187.3310  175.1480  136.2990 C   0  0  2  0  0  3  0  0  0  0  0  0
  187.7590  178.1000  135.4170 O   0  0  0  0  0  1  0  0  0  0  0  0
  188.4690  177.8780  138.6910 C   0  0  2  0  0  3  0  0  0  0  0  0
  189.1040  178.3530  137.3940 C   0  0  1  0  0  0  0  0  0  0  0  0
  189.9840  177.8370  138.5140 C   0  0  0  0  0  2  0  0  0  0  0  0
  187.8930  176.3560  136.9990 C   0  0  0  0  0  0  0  0  0  0  0  0
  188.6320  177.4230  136.2740 C   0  0  1  0  0  3  0  0  0  0  0  0
  188.9880  179.7340  137.2480 O   0  0  0  0  0  1  0  0  0  0  0  0
  187.8320  176.5830  138.3090 C   0  0  0  0  0  3  0  0  0  0  0  0
  188.2160  174.6230  135.2110 C   0  0  0  0  0  3  0  0  0  0  0  0
  187.8260  173.5940  134.4640 C   0  0  0  0  0  2  0  0  0  0  0  0
  180.2200  179.0690  137.3870 O   0  0  0  0  0  0  0  0  0  0  0  0
  180.1490  180.1120  136.5430 O   0  0  0  0  0  1  0  0  0  0  0  0
  183.1450  178.7830  145.2040 C   0  0  0  0  0  2  0  0  0  0  0  0
  184.5440  179.3760  145.1930 C   0  0  0  0  0  2  0  0  0  0  0  0
  186.5820  178.0880  145.8270 C   0  0  0  0  0  3  0  0  0  0  0  0
  185.4300  178.6770  146.1760 C   0  0  0  0  0  3  0  0  0  0  0  0
  189.1550  176.8150  145.4920 C   0  0  0  0  0  2  0  0  0  0  0  0
  191.3080  177.7880  144.5220 C   0  0  1  0  0  3  0  0  0  0  0  0
  189.3190  177.7120  143.0070 C   0  0  1  0  0  0  0  0  0  0  0  0
  191.8530  176.4790  143.9280 C   0  0  0  0  0  2  0  0  0  0  0  0
  190.5050  178.5580  143.4700 C   0  0  0  0  0  2  0  0  0  0  0  0
  187.1610  176.6340  143.9270 C   0  0  0  0  0  2  0  0  0  0  0  0
  189.8680  176.4360  142.3430 C   0  0  0  0  0  2  0  0  0  0  0  0
  187.0910  178.0750  144.4140 C   0  0  2  0  0  3  0  0  0  0  0  0
  190.7540  175.6160  143.2890 C   0  0  0  0  0  2  0  0  0  0  0  0
  188.4430  177.3760  144.2500 C   0  0  1  0  0  0  0  0  0  0  0  0
  190.4590  177.5710  145.7820 C   0  0  0  0  0  2  0  0  0  0  0  0
  188.5700  178.5100  141.9440 C   0  0  0  0  0  1  0  0  0  0  0  0
  1  2  1  0  0  0  0
  2 10  1  0  0  0  0
  2 13  2  0  0  0  0
  3 14  1  0  0  0  0
  4  8  2  0  0  0  0
  5  6  2  0  0  0  0
  5 11  1  0  0  0  0
  6  3  1  0  0  0  0
  7  1  1  0  0  0  0
  8 32  1  0  0  0  0
  9 13  1  0  0  0  0
 10  4  1  0  0  0  0
 11  7  2  0  0  0  0
 12  9  1  0  0  0  0
 13  8  1  0  0  0  0
 14  1  2  0  0  0  0
 14 12  1  0  0  0  0
 16 17  1  0  0  0  0
 16  6  1  0  0  0  0
 17 15  2  0  0  0  0
 18 19  1  0  0  0  0
 18 17  1  0  0  0  0
 19 28  1  6  0  0  0
 19 24  1  0  0  0  0
 21 27  1  6  0  0  0
 22 26  1  6  0  0  0
 22 23  1  0  0  0  0
 22 21  1  0  0  0  0
 23 21  1  0  0  0  0
 24 27  2  0  0  0  0
 25 20  1  6  0  0  0
 25 24  1  0  0  0  0
 25 22  1  0  0  0  0
 29 28  2  0  0  0  0
 30 11  1  0  0  0  0
 31 30  1  0  0  0  0
 33 32  1  0  0  0  0
 33 35  1  0  0  0  0
 34 35  2  0  0  0  0
 36 46  1  0  0  0  0
 37 40  1  6  0  0  0
 37 46  1  0  0  0  0
 38 47  1  6  0  0  0
 38 40  1  0  0  0  0
 38 45  1  0  0  0  0
 39 37  1  0  0  0  0
 41 43  1  0  0  0  0
 42 38  1  0  0  0  0
 42 44  1  0  0  0  0
 43 34  1  1  0  0  0
 44 39  1  0  0  0  0
 45 41  1  6  0  0  0
 45 43  1  0  0  0  0
 45 36  1  0  0  0  0
M  END
>  <MODEL>
1

>  <REMARK>
 VINA RESULT:      -9.5      0.000      0.000
  Name = 
  10 active torsions:
  status: ('A' for Active; 'I' for Inactive)
    1  A    between atoms: C_2  and  C_16
    2  A    between atoms: C_2  and  C_32
    3  A    between atoms: C_3  and  C_25
    4  A    between atoms: O_13  and  C_40
    5  A    between atoms: C_16  and  C_26
    6  A    between atoms: C_20  and  C_36
    7  A    between atoms: O_23  and  C_36
    8  A    between atoms: O_23  and  C_39
    9  A    between atoms: C_27  and  C_36
   10  A    between atoms: N_28  and  C_29
                            x       y       z     vdW  Elec       q    Type
                         _______ _______ _______ _____ _____    ______ ____

>  <TORSDO>
F 10

$$$$
=
 OpenBabel10232411483D

 47 54  0  0  1  0  0  0  0  0999 V2000
  183.9060  178.3040  139.3100 C   0  0  0  0  0  0  0  0  0  0  0  0
  183.1960  178.4570  140.5890 C   0  0  0  0  0  0  0  0  0  0  0  0
  186.0470  178.3880  138.1690 O   0  0  0  0  0  0  0  0  0  0  0  0
  181.6820  178.4600  142.1050 C   0  0  0  0  0  3  0  0  0  0  0  0
  184.7350  177.2290  136.5100 C   0  0  0  0  0  3  0  0  0  0  0  0
  185.9050  177.5380  137.0670 C   0  0  0  0  0  0  0  0  0  0  0  0
  183.0670  178.1270  138.1170 C   0  0  0  0  0  3  0  0  0  0  0  0
  182.8600  178.8820  142.7050 C   0  0  0  0  0  0  0  0  0  0  0  0
  185.2470  179.2940  141.7500 C   0  0  0  0  0  2  0  0  0  0  0  0
  181.9250  178.2240  140.8290 O   0  0  0  0  0  0  0  0  0  0  0  0
  183.3890  177.6660  136.9130 C   0  0  0  0  0  0  0  0  0  0  0  0
  186.0200  178.5810  140.6260 C   0  0  0  0  0  2  0  0  0  0  0  0
  183.8220  178.8620  141.7270 C   0  0  0  0  0  0  0  0  0  0  0  0
  185.2550  178.4250  139.3150 C   0  0  0  0  0  0  0  0  0  0  0  0
  187.0060  174.8840  137.3630 O   0  0  0  0  0  0  0  0  0  0  0  0
  187.0860  177.0310  136.4360 N   0  0  0  0  0  2  0  0  0  0  0  0
  187.6660  175.7590  136.7320 C   0  0  0  0  0  0  0  0  0  0  0  0
  188.9720  175.4920  136.3240 O   0  0  0  0  0  0  0  0  0  0  0  0
  189.7400  174.4450  136.9040 C   0  0  2  0  0  3  0  0  0  0  0  0
  190.7060  176.4250  139.0990 O   0  0  0  0  0  1  0  0  0  0  0  0
  193.4160  175.0660  137.6570 C   0  0  2  0  0  3  0  0  0  0  0  0
  192.8270  176.4330  137.9670 C   0  0  1  0  0  0  0  0  0  0  0  0
  193.7220  176.2600  136.7580 C   0  0  0  0  0  2  0  0  0  0  0  0
  191.1000  174.9590  137.2950 C   0  0  0  0  0  0  0  0  0  0  0  0
  191.3060  176.3260  137.8410 C   0  0  1  0  0  3  0  0  0  0  0  0
  193.3940  176.9810  139.1160 O   0  0  0  0  0  1  0  0  0  0  0  0
  192.2420  174.2880  137.1630 C   0  0  0  0  0  3  0  0  0  0  0  0
  189.7900  173.2620  135.9850 C   0  0  0  0  0  3  0  0  0  0  0  0
  189.3940  173.3760  134.7200 C   0  0  0  0  0  2  0  0  0  0  0  0
  182.3490  177.5510  135.9910 O   0  0  0  0  0  0  0  0  0  0  0  0
  182.5300  177.8580  134.6950 O   0  0  0  0  0  1  0  0  0  0  0  0
  183.0580  179.1520  144.1570 C   0  0  0  0  0  2  0  0  0  0  0  0
  184.5100  179.5270  144.4050 C   0  0  0  0  0  2  0  0  0  0  0  0
  186.2300  178.0150  145.3890 C   0  0  0  0  0  3  0  0  0  0  0  0
  185.0910  178.7100  145.5150 C   0  0  0  0  0  3  0  0  0  0  0  0
  188.8470  176.8130  145.6410 C   0  0  0  0  0  2  0  0  0  0  0  0
  191.1320  177.8320  145.1300 C   0  0  1  0  0  3  0  0  0  0  0  0
  189.5150  177.6710  143.2270 C   0  0  1  0  0  0  0  0  0  0  0  0
  191.8240  176.5300  144.6960 C   0  0  0  0  0  2  0  0  0  0  0  0
  190.5530  178.5600  143.9130 C   0  0  0  0  0  2  0  0  0  0  0  0
  187.2390  176.5450  143.6910 C   0  0  0  0  0  2  0  0  0  0  0  0
  190.2260  176.4000  142.7260 C   0  0  0  0  0  2  0  0  0  0  0  0
  187.0300  177.9930  144.1180 C   0  0  2  0  0  3  0  0  0  0  0  0
  190.9090  175.6240  143.8580 C   0  0  0  0  0  2  0  0  0  0  0  0
  188.4030  177.3310  144.2620 C   0  0  1  0  0  0  0  0  0  0  0  0
  190.0390  177.6120  146.1840 C   0  0  0  0  0  2  0  0  0  0  0  0
  188.9910  178.4270  142.0110 C   0  0  0  0  0  1  0  0  0  0  0  0
  1 14  2  0  0  0  0
  1  2  1  0  0  0  0
  2 10  1  0  0  0  0
  2 13  2  0  0  0  0
  3 14  1  0  0  0  0
  4  8  2  0  0  0  0
  5 11  1  0  0  0  0
  5  6  2  0  0  0  0
  6  3  1  0  0  0  0
  7  1  1  0  0  0  0
  8 32  1  0  0  0  0
 10  4  1  0  0  0  0
 11  7  2  0  0  0  0
 12  9  1  0  0  0  0
 13  9  1  0  0  0  0
 13  8  1  0  0  0  0
 14 12  1  0  0  0  0
 16 17  1  0  0  0  0
 16  6  1  0  0  0  0
 17 15  2  0  0  0  0
 18 17  1  0  0  0  0
 18 19  1  0  0  0  0
 19 28  1  6  0  0  0
 19 24  1  0  0  0  0
 21 23  1  6  0  0  0
 21 22  1  0  0  0  0
 22 26  1  1  0  0  0
 23 22  1  0  0  0  0
 24 25  1  0  0  0  0
 25 22  1  0  0  0  0
 25 20  1  1  0  0  0
 27 24  2  0  0  0  0
 27 21  1  0  0  0  0
 29 28  2  0  0  0  0
 30 11  1  0  0  0  0
 31 30  1  0  0  0  0
 32 33  1  0  0  0  0
 33 35  1  0  0  0  0
 34 35  2  0  0  0  0
 36 46  1  0  0  0  0
 37 40  1  6  0  0  0
 37 46  1  0  0  0  0
 38 47  1  6  0  0  0
 38 40  1  0  0  0  0
 38 45  1  0  0  0  0
 39 37  1  0  0  0  0
 41 43  1  0  0  0  0
 42 38  1  0  0  0  0
 42 44  1  0  0  0  0
 43 45  1  0  0  0  0
 43 34  1  1  0  0  0
 44 39  1  0  0  0  0
 45 41  1  6  0  0  0
 45 36  1  0  0  0  0
M  END
>  <MODEL>
2

>  <REMARK>
 VINA RESULT:      -9.3      2.129      2.481
  Name = 
  10 active torsions:
  status: ('A' for Active; 'I' for Inactive)
    1  A    between atoms: C_2  and  C_16
    2  A    between atoms: C_2  and  C_32
    3  A    between atoms: C_3  and  C_25
    4  A    between atoms: O_13  and  C_40
    5  A    between atoms: C_16  and  C_26
    6  A    between atoms: C_20  and  C_36
    7  A    between atoms: O_23  and  C_36
    8  A    between atoms: O_23  and  C_39
    9  A    between atoms: C_27  and  C_36
   10  A    between atoms: N_28  and  C_29
                            x       y       z     vdW  Elec       q    Type
                         _______ _______ _______ _____ _____    ______ ____

>  <TORSDO>
F 10

$$$$
=
 OpenBabel10232411483D

 47 54  0  0  1  0  0  0  0  0999 V2000
  188.4710  177.2880  143.5680 C   0  0  0  0  0  0  0  0  0  0  0  0
  187.4320  177.7110  144.5190 C   0  0  0  0  0  0  0  0  0  0  0  0
  189.0630  176.9730  141.2340 O   0  0  0  0  0  0  0  0  0  0  0  0
  186.3930  178.2520  146.3130 C   0  0  0  0  0  3  0  0  0  0  0  0
  191.2520  176.8600  142.2400 C   0  0  0  0  0  3  0  0  0  0  0  0
  190.4570  177.0850  141.1950 C   0  0  0  0  0  0  0  0  0  0  0  0
  189.6730  176.6740  144.1490 C   0  0  0  0  0  3  0  0  0  0  0  0
  185.5000  178.4060  145.2630 C   0  0  0  0  0  0  0  0  0  0  0  0
  185.7240  177.9560  142.7080 C   0  0  0  0  0  2  0  0  0  0  0  0
  187.5420  177.8230  145.8240 O   0  0  0  0  0  0  0  0  0  0  0  0
  190.8740  176.4830  143.6110 C   0  0  0  0  0  0  0  0  0  0  0  0
  186.9310  178.0920  141.7630 C   0  0  0  0  0  2  0  0  0  0  0  0
  186.1820  178.0700  144.1200 C   0  0  0  0  0  0  0  0  0  0  0  0
  188.2080  177.4110  142.2450 C   0  0  0  0  0  0  0  0  0  0  0  0
  190.4900  175.3860  138.8610 O   0  0  0  0  0  0  0  0  0  0  0  0
  191.0860  177.3730  139.9420 N   0  0  0  0  0  2  0  0  0  0  0  0
  191.1950  176.4340  138.8700 C   0  0  0  0  0  0  0  0  0  0  0  0
  192.0950  176.6830  137.8340 O   0  0  0  0  0  0  0  0  0  0  0  0
  192.3970  175.7000  136.8510 C   0  0  2  0  0  3  0  0  0  0  0  0
  194.9270  177.3280  136.0620 O   0  0  0  0  0  1  0  0  0  0  0  0
  195.9360  174.4690  137.5040 C   0  0  2  0  0  3  0  0  0  0  0  0
  196.1420  175.2590  136.2220 C   0  0  1  0  0  0  0  0  0  0  0  0
  196.2630  173.7490  136.1990 C   0  0  0  0  0  2  0  0  0  0  0  0
  193.8690  175.3830  136.8740 C   0  0  0  0  0  0  0  0  0  0  0  0
  194.8190  175.9460  135.8790 C   0  0  1  0  0  3  0  0  0  0  0  0
  197.3210  176.0010  136.2660 O   0  0  0  0  0  1  0  0  0  0  0  0
  194.4640  174.5590  137.7320 C   0  0  0  0  0  3  0  0  0  0  0  0
  191.9010  176.1360  135.5060 C   0  0  0  0  0  3  0  0  0  0  0  0
  190.5960  176.2300  135.2690 C   0  0  0  0  0  2  0  0  0  0  0  0
  191.8460  175.9260  144.4410 O   0  0  0  0  0  0  0  0  0  0  0  0
  191.8750  176.1960  145.7570 O   0  0  0  0  0  1  0  0  0  0  0  0
  184.1240  178.9720  145.3560 C   0  0  0  0  0  2  0  0  0  0  0  0
  183.6270  179.3160  143.9620 C   0  0  0  0  0  2  0  0  0  0  0  0
  181.6650  178.7290  142.5410 C   0  0  0  0  0  3  0  0  0  0  0  0
  182.2340  178.8100  143.7510 C   0  0  0  0  0  3  0  0  0  0  0  0
  180.9670  177.1690  140.2090 C   0  0  0  0  0  2  0  0  0  0  0  0
  182.4950  175.8130  138.6760 C   0  0  1  0  0  3  0  0  0  0  0  0
  182.9440  178.2690  138.8350 C   0  0  1  0  0  0  0  0  0  0  0  0
  181.6850  176.0110  137.3840 C   0  0  0  0  0  2  0  0  0  0  0  0
  183.5850  176.8810  138.7910 C   0  0  0  0  0  2  0  0  0  0  0  0
  181.3480  179.6810  140.2920 C   0  0  0  0  0  2  0  0  0  0  0  0
  182.1960  178.4960  137.5080 C   0  0  0  0  0  2  0  0  0  0  0  0
  182.3730  179.1400  141.2820 C   0  0  2  0  0  3  0  0  0  0  0  0
  181.1210  177.4330  137.2510 C   0  0  0  0  0  2  0  0  0  0  0  0
  181.9740  178.3200  140.0520 C   0  0  1  0  0  0  0  0  0  0  0  0
  181.6240  175.8080  139.9390 C   0  0  0  0  0  2  0  0  0  0  0  0
  184.0700  179.2950  138.9210 C   0  0  0  0  0  1  0  0  0  0  0  0
  1  7  1  0  0  0  0
  1  2  1  0  0  0  0
  2 10  1  0  0  0  0
  3 14  1  0  0  0  0
  5 11  1  0  0  0  0
  6  3  1  0  0  0  0
  6  5  2  0  0  0  0
  8 32  1  0  0  0  0
  8  4  2  0  0  0  0
  9 13  1  0  0  0  0
 10  4  1  0  0  0  0
 11  7  2  0  0  0  0
 11 30  1  0  0  0  0
 12 14  1  0  0  0  0
 12  9  1  0  0  0  0
 13  2  2  0  0  0  0
 13  8  1  0  0  0  0
 14  1  2  0  0  0  0
 15 17  2  0  0  0  0
 16  6  1  0  0  0  0
 17 16  1  0  0  0  0
 18 17  1  0  0  0  0
 19 28  1  6  0  0  0
 19 24  1  0  0  0  0
 19 18  1  0  0  0  0
 21 23  1  6  0  0  0
 21 27  1  0  0  0  0
 22 26  1  6  0  0  0
 22 21  1  0  0  0  0
 23 22  1  0  0  0  0
 24 27  2  0  0  0  0
 25 20  1  1  0  0  0
 25 22  1  0  0  0  0
 25 24  1  0  0  0  0
 29 28  2  0  0  0  0
 30 31  1  0  0  0  0
 33 32  1  0  0  0  0
 34 35  2  0  0  0  0
 35 33  1  0  0  0  0
 37 39  1  6  0  0  0
 37 40  1  0  0  0  0
 37 46  1  0  0  0  0
 38 47  1  1  0  0  0
 38 45  1  0  0  0  0
 40 38  1  0  0  0  0
 41 43  1  0  0  0  0
 42 38  1  0  0  0  0
 43 34  1  1  0  0  0
 44 39  1  0  0  0  0
 44 42  1  0  0  0  0
 45 36  1  1  0  0  0
 45 41  1  0  0  0  0
 45 43  1  0  0  0  0
 46 36  1  0  0  0  0
M  END
>  <MODEL>
3

>  <REMARK>
 VINA RESULT:      -9.1      4.157      7.751
  Name = 
  10 active torsions:
  status: ('A' for Active; 'I' for Inactive)
    1  A    between atoms: C_2  and  C_16
    2  A    between atoms: C_2  and  C_32
    3  A    between atoms: C_3  and  C_25
    4  A    between atoms: O_13  and  C_40
    5  A    between atoms: C_16  and  C_26
    6  A    between atoms: C_20  and  C_36
    7  A    between atoms: O_23  and  C_36
    8  A    between atoms: O_23  and  C_39
    9  A    between atoms: C_27  and  C_36
   10  A    between atoms: N_28  and  C_29
                            x       y       z     vdW  Elec       q    Type
                         _______ _______ _______ _____ _____    ______ ____

>  <TORSDO>
F 10

$$$$
=
 OpenBabel10232411483D

 47 54  0  0  1  0  0  0  0  0999 V2000
  186.2260  178.4270  143.0890 C   0  0  0  0  0  0  0  0  0  0  0  0
  187.6230  177.9830  143.2050 C   0  0  0  0  0  0  0  0  0  0  0  0
  184.4760  179.2120  141.6000 O   0  0  0  0  0  0  0  0  0  0  0  0
  189.4720  177.2110  143.9650 C   0  0  0  0  0  3  0  0  0  0  0  0
  183.1530  178.6340  143.5320 C   0  0  0  0  0  3  0  0  0  0  0  0
  183.2780  178.8450  142.2230 C   0  0  0  0  0  0  0  0  0  0  0  0
  185.4990  178.6240  144.3500 C   0  0  0  0  0  3  0  0  0  0  0  0
  189.6750  177.5100  142.6250 C   0  0  0  0  0  0  0  0  0  0  0  0
  188.1150  178.5520  140.8190 C   0  0  0  0  0  2  0  0  0  0  0  0
  188.2270  177.5200  144.2770 O   0  0  0  0  0  0  0  0  0  0  0  0
  184.1910  178.7110  144.5720 C   0  0  0  0  0  0  0  0  0  0  0  0
  186.5950  178.4320  140.6100 C   0  0  0  0  0  2  0  0  0  0  0  0
  188.4810  177.9900  142.1490 C   0  0  0  0  0  0  0  0  0  0  0  0
  185.7500  178.7030  141.8520 C   0  0  0  0  0  0  0  0  0  0  0  0
  182.6910  176.8880  140.1810 O   0  0  0  0  0  0  0  0  0  0  0  0
  182.0880  178.7730  141.4300 N   0  0  0  0  0  2  0  0  0  0  0  0
  181.9130  177.8720  140.3340 C   0  0  0  0  0  0  0  0  0  0  0  0
  180.8770  178.0940  139.4270 O   0  0  0  0  0  0  0  0  0  0  0  0
  181.1250  178.5320  138.0970 C   0  0  2  0  0  3  0  0  0  0  0  0
  180.0700  176.2140  136.3140 O   0  0  0  0  0  1  0  0  0  0  0  0
  183.4150  176.2950  136.0430 C   0  0  2  0  0  3  0  0  0  0  0  0
  182.3010  175.3210  136.3900 C   0  0  1  0  0  0  0  0  0  0  0  0
  183.6720  175.1410  137.0080 C   0  0  0  0  0  2  0  0  0  0  0  0
  181.8130  177.4450  137.3160 C   0  0  0  0  0  0  0  0  0  0  0  0
  181.2060  176.1020  137.1200 C   0  0  1  0  0  3  0  0  0  0  0  0
  181.9730  174.5160  135.3000 O   0  0  0  0  0  1  0  0  0  0  0  0
  183.0200  177.5410  136.7640 C   0  0  0  0  0  3  0  0  0  0  0  0
  181.8770  179.8290  138.1060 C   0  0  0  0  0  3  0  0  0  0  0  0
  181.3230  180.9240  138.6190 C   0  0  0  0  0  2  0  0  0  0  0  0
  183.7920  178.8340  145.9030 O   0  0  0  0  0  0  0  0  0  0  0  0
  184.5810  178.4160  146.9080 O   0  0  0  0  0  1  0  0  0  0  0  0
  190.9060  177.2180  141.8360 C   0  0  0  0  0  2  0  0  0  0  0  0
  190.5190  176.5410  140.5330 C   0  0  0  0  0  2  0  0  0  0  0  0
  191.2890  176.5340  138.1620 C   0  0  0  0  0  3  0  0  0  0  0  0
  191.4640  176.9150  139.4340 C   0  0  0  0  0  3  0  0  0  0  0  0
  189.4270  177.8920  136.4160 C   0  0  0  0  0  2  0  0  0  0  0  0
  186.9220  178.2730  136.7350 C   0  0  1  0  0  3  0  0  0  0  0  0
  187.7010  175.8970  136.6440 C   0  0  1  0  0  0  0  0  0  0  0  0
  186.5370  178.2390  135.2480 C   0  0  0  0  0  2  0  0  0  0  0  0
  186.7720  176.8810  137.3560 C   0  0  0  0  0  2  0  0  0  0  0  0
  190.2120  175.4830  136.2130 C   0  0  0  0  0  2  0  0  0  0  0  0
  187.2660  175.8070  135.1690 C   0  0  0  0  0  2  0  0  0  0  0  0
  190.1250  175.6940  137.7190 C   0  0  2  0  0  3  0  0  0  0  0  0
  187.3060  177.1670  134.4610 C   0  0  0  0  0  2  0  0  0  0  0  0
  189.1610  176.4200  136.7760 C   0  0  1  0  0  0  0  0  0  0  0  0
  188.3370  178.8130  136.9810 C   0  0  0  0  0  2  0  0  0  0  0  0
  187.4940  174.5260  137.2790 C   0  0  0  0  0  1  0  0  0  0  0  0
  1  2  1  0  0  0  0
  1  7  1  0  0  0  0
  2 10  1  0  0  0  0
  3 14  1  0  0  0  0
  3  6  1  0  0  0  0
  4 10  1  0  0  0  0
  5 11  1  0  0  0  0
  6  5  2  0  0  0  0
  7 11  2  0  0  0  0
  8  4  2  0  0  0  0
  9 13  1  0  0  0  0
 11 30  1  0  0  0  0
 12  9  1  0  0  0  0
 12 14  1  0  0  0  0
 13  8  1  0  0  0  0
 13  2  2  0  0  0  0
 14  1  2  0  0  0  0
 15 17  2  0  0  0  0
 16  6  1  0  0  0  0
 17 16  1  0  0  0  0
 18 17  1  0  0  0  0
 19 28  1  1  0  0  0
 19 18  1  0  0  0  0
 21 22  1  0  0  0  0
 21 27  1  1  0  0  0
 21 23  1  0  0  0  0
 22 26  1  6  0  0  0
 22 23  1  0  0  0  0
 22 25  1  0  0  0  0
 24 19  1  0  0  0  0
 25 20  1  6  0  0  0
 25 24  1  0  0  0  0
 27 24  2  0  0  0  0
 28 29  2  0  0  0  0
 30 31  1  0  0  0  0
 32  8  1  0  0  0  0
 33 32  1  0  0  0  0
 34 35  2  0  0  0  0
 35 33  1  0  0  0  0
 36 45  1  0  0  0  0
 36 46  1  0  0  0  0
 37 39  1  6  0  0  0
 37 46  1  0  0  0  0
 37 40  1  0  0  0  0
 38 45  1  0  0  0  0
 38 47  1  1  0  0  0
 38 40  1  0  0  0  0
 41 43  1  0  0  0  0
 42 38  1  0  0  0  0
 43 34  1  6  0  0  0
 44 42  1  0  0  0  0
 44 39  1  0  0  0  0
 45 41  1  6  0  0  0
 45 43  1  0  0  0  0
M  END
>  <MODEL>
4

>  <REMARK>
 VINA RESULT:      -8.9      2.398      7.407
  Name = 
  10 active torsions:
  status: ('A' for Active; 'I' for Inactive)
    1  A    between atoms: C_2  and  C_16
    2  A    between atoms: C_2  and  C_32
    3  A    between atoms: C_3  and  C_25
    4  A    between atoms: O_13  and  C_40
    5  A    between atoms: C_16  and  C_26
    6  A    between atoms: C_20  and  C_36
    7  A    between atoms: O_23  and  C_36
    8  A    between atoms: O_23  and  C_39
    9  A    between atoms: C_27  and  C_36
   10  A    between atoms: N_28  and  C_29
                            x       y       z     vdW  Elec       q    Type
                         _______ _______ _______ _____ _____    ______ ____

>  <TORSDO>
F 10

$$$$
=
 OpenBabel10232411483D

 47 54  0  0  1  0  0  0  0  0999 V2000
  190.1630  176.7440  137.8370 C   0  0  0  0  0  0  0  0  0  0  0  0
  189.2690  176.2520  136.7780 C   0  0  0  0  0  0  0  0  0  0  0  0
  190.3390  178.0140  139.8990 O   0  0  0  0  0  0  0  0  0  0  0  0
  188.4920  175.2280  135.0630 C   0  0  0  0  0  3  0  0  0  0  0  0
  192.4630  176.8720  139.9290 C   0  0  0  0  0  3  0  0  0  0  0  0
  191.4630  177.4940  140.5510 C   0  0  0  0  0  0  0  0  0  0  0  0
  191.6010  176.5380  137.6220 C   0  0  0  0  0  3  0  0  0  0  0  0
  187.4420  175.9420  135.6220 C   0  0  0  0  0  0  0  0  0  0  0  0
  187.3260  177.5530  137.6650 C   0  0  0  0  0  2  0  0  0  0  0  0
  189.5770  175.4500  135.7830 O   0  0  0  0  0  0  0  0  0  0  0  0
  192.6050  176.5800  138.4930 C   0  0  0  0  0  0  0  0  0  0  0  0
  188.0930  177.5460  138.9990 C   0  0  0  0  0  2  0  0  0  0  0  0
  187.9500  176.5800  136.7260 C   0  0  0  0  0  0  0  0  0  0  0  0
  189.6080  177.4200  138.8720 C   0  0  0  0  0  0  0  0  0  0  0  0
  190.3450  175.8680  142.6600 O   0  0  0  0  0  0  0  0  0  0  0  0
  191.6010  177.7140  141.9580 N   0  0  0  0  0  2  0  0  0  0  0  0
  190.9050  176.9620  142.9550 C   0  0  0  0  0  0  0  0  0  0  0  0
  190.8440  177.4510  144.2600 O   0  0  0  0  0  0  0  0  0  0  0  0
  190.6540  176.5890  145.3750 C   0  0  2  0  0  3  0  0  0  0  0  0
  187.6750  176.8880  144.5330 O   0  0  0  0  0  1  0  0  0  0  0  0
  187.8580  177.2690  147.8630 C   0  0  2  0  0  3  0  0  0  0  0  0
  187.3320  177.9980  146.6370 C   0  0  1  0  0  0  0  0  0  0  0  0
  187.7860  178.7920  147.8440 C   0  0  0  0  0  2  0  0  0  0  0  0
  189.4100  176.9850  146.1260 C   0  0  0  0  0  0  0  0  0  0  0  0
  188.2890  177.7150  145.4780 C   0  0  1  0  0  3  0  0  0  0  0  0
  185.9630  177.7960  146.4750 O   0  0  0  0  0  1  0  0  0  0  0  0
  189.1950  176.7720  147.4220 C   0  0  0  0  0  3  0  0  0  0  0  0
  191.8840  176.5610  146.2300 C   0  0  0  0  0  3  0  0  0  0  0  0
  192.3460  175.4090  146.7080 C   0  0  0  0  0  2  0  0  0  0  0  0
  193.8720  176.2730  137.9990 O   0  0  0  0  0  0  0  0  0  0  0  0
  194.6810  175.4130  138.6420 O   0  0  0  0  0  1  0  0  0  0  0  0
  186.0170  175.8920  135.1890 C   0  0  0  0  0  2  0  0  0  0  0  0
  185.2310  175.0100  136.1440 C   0  0  0  0  0  2  0  0  0  0  0  0
  183.0000  175.9160  136.7880 C   0  0  0  0  0  3  0  0  0  0  0  0
  183.7580  175.1940  135.9520 C   0  0  0  0  0  3  0  0  0  0  0  0
  181.1740  177.7600  138.0640 C   0  0  0  0  0  2  0  0  0  0  0  0
  181.4790  180.2540  138.5210 C   0  0  1  0  0  3  0  0  0  0  0  0
  183.1270  178.7000  139.5840 C   0  0  1  0  0  0  0  0  0  0  0  0
  180.6480  180.3100  139.8130 C   0  0  0  0  0  2  0  0  0  0  0  0
  182.9580  180.0300  138.8480 C   0  0  0  0  0  2  0  0  0  0  0  0
  182.7780  176.1680  139.2270 C   0  0  0  0  0  2  0  0  0  0  0  0
  182.3560  178.7850  140.9140 C   0  0  0  0  0  2  0  0  0  0  0  0
  183.5590  176.6110  137.9970 C   0  0  2  0  0  3  0  0  0  0  0  0
  180.8650  179.0820  140.7100 C   0  0  0  0  0  2  0  0  0  0  0  0
  182.5730  177.5650  138.6750 C   0  0  1  0  0  0  0  0  0  0  0  0
  180.9880  179.1880  137.5330 C   0  0  0  0  0  2  0  0  0  0  0  0
  184.6080  178.5390  139.9100 C   0  0  0  0  0  1  0  0  0  0  0  0
  1 14  2  0  0  0  0
  2  1  1  0  0  0  0
  3  6  1  0  0  0  0
  4  8  2  0  0  0  0
  4 10  1  0  0  0  0
  5  6  2  0  0  0  0
  6 16  1  0  0  0  0
  7  1  1  0  0  0  0
  7 11  2  0  0  0  0
  8 13  1  0  0  0  0
  9 12  1  0  0  0  0
 10  2  1  0  0  0  0
 11  5  1  0  0  0  0
 13  2  2  0  0  0  0
 13  9  1  0  0  0  0
 14 12  1  0  0  0  0
 14  3  1  0  0  0  0
 15 17  2  0  0  0  0
 16 17  1  0  0  0  0
 17 18  1  0  0  0  0
 18 19  1  0  0  0  0
 19 24  1  0  0  0  0
 19 28  1  1  0  0  0
 21 27  1  6  0  0  0
 22 26  1  6  0  0  0
 22 23  1  0  0  0  0
 22 21  1  0  0  0  0
 23 21  1  0  0  0  0
 24 27  2  0  0  0  0
 25 20  1  6  0  0  0
 25 24  1  0  0  0  0
 25 22  1  0  0  0  0
 28 29  2  0  0  0  0
 30 11  1  0  0  0  0
 30 31  1  0  0  0  0
 32  8  1  0  0  0  0
 32 33  1  0  0  0  0
 35 33  1  0  0  0  0
 35 34  2  0  0  0  0
 37 46  1  6  0  0  0
 37 40  1  0  0  0  0
 37 39  1  0  0  0  0
 38 47  1  1  0  0  0
 38 42  1  0  0  0  0
 39 44  1  0  0  0  0
 40 38  1  0  0  0  0
 43 34  1  6  0  0  0
 43 45  1  0  0  0  0
 43 41  1  0  0  0  0
 44 42  1  0  0  0  0
 45 36  1  6  0  0  0
 45 41  1  0  0  0  0
 45 38  1  0  0  0  0
 46 36  1  0  0  0  0
M  END
>  <MODEL>
5

>  <REMARK>
 VINA RESULT:      -8.9      3.448      9.758
  Name = 
  10 active torsions:
  status: ('A' for Active; 'I' for Inactive)
    1  A    between atoms: C_2  and  C_16
    2  A    between atoms: C_2  and  C_32
    3  A    between atoms: C_3  and  C_25
    4  A    between atoms: O_13  and  C_40
    5  A    between atoms: C_16  and  C_26
    6  A    between atoms: C_20  and  C_36
    7  A    between atoms: O_23  and  C_36
    8  A    between atoms: O_23  and  C_39
    9  A    between atoms: C_27  and  C_36
   10  A    between atoms: N_28  and  C_29
                            x       y       z     vdW  Elec       q    Type
                         _______ _______ _______ _____ _____    ______ ____

>  <TORSDO>
F 10

$$$$
=
 OpenBabel10232411483D

 47 54  0  0  1  0  0  0  0  0999 V2000
  183.2220  178.6310  140.3690 C   0  0  0  0  0  0  0  0  0  0  0  0
  182.9100  178.6890  141.8050 C   0  0  0  0  0  0  0  0  0  0  0  0
  184.9410  178.8420  138.6680 O   0  0  0  0  0  0  0  0  0  0  0  0
  181.8990  178.5610  143.6910 C   0  0  0  0  0  3  0  0  0  0  0  0
  183.2190  177.7430  137.3870 C   0  0  0  0  0  3  0  0  0  0  0  0
  184.4960  178.0530  137.6020 C   0  0  0  0  0  0  0  0  0  0  0  0
  182.0760  178.4980  139.4600 C   0  0  0  0  0  3  0  0  0  0  0  0
  183.1950  178.9820  143.9510 C   0  0  0  0  0  0  0  0  0  0  0  0
  185.2000  179.5170  142.3780 C   0  0  0  0  0  2  0  0  0  0  0  0
  181.7660  178.4060  142.3860 O   0  0  0  0  0  0  0  0  0  0  0  0
  182.0410  178.1170  138.1870 C   0  0  0  0  0  0  0  0  0  0  0  0
  185.6230  178.8930  141.0360 C   0  0  0  0  0  2  0  0  0  0  0  0
  183.8340  179.0460  142.7380 C   0  0  0  0  0  0  0  0  0  0  0  0
  184.5130  178.7910  139.9940 C   0  0  0  0  0  0  0  0  0  0  0  0
  186.0350  175.6100  137.6760 O   0  0  0  0  0  0  0  0  0  0  0  0
  185.4500  177.6180  136.6270 N   0  0  0  0  0  2  0  0  0  0  0  0
  186.2890  176.4720  136.7880 C   0  0  0  0  0  0  0  0  0  0  0  0
  187.3980  176.3170  135.9570 O   0  0  0  0  0  0  0  0  0  0  0  0
  188.6730  176.8430  136.3020 C   0  0  2  0  0  3  0  0  0  0  0  0
  191.5030  176.7280  137.5860 O   0  0  0  0  0  1  0  0  0  0  0  0
  190.5150  173.5810  136.9630 C   0  0  2  0  0  3  0  0  0  0  0  0
  191.6800  174.5110  136.6710 C   0  0  1  0  0  0  0  0  0  0  0  0
  191.3300  173.4170  135.6840 C   0  0  0  0  0  2  0  0  0  0  0  0
  189.6480  175.7200  136.5370 C   0  0  0  0  0  0  0  0  0  0  0  0
  191.1200  175.9260  136.5080 C   0  0  1  0  0  3  0  0  0  0  0  0
  192.7440  174.2800  137.5410 O   0  0  0  0  0  1  0  0  0  0  0  0
  189.3190  174.4480  136.7490 C   0  0  0  0  0  3  0  0  0  0  0  0
  188.5540  177.7830  137.4630 C   0  0  0  0  0  3  0  0  0  0  0  0
  189.0010  179.0320  137.3660 C   0  0  0  0  0  2  0  0  0  0  0  0
  180.7810  178.0250  137.5980 O   0  0  0  0  0  0  0  0  0  0  0  0
  180.2770  179.0360  136.8700 O   0  0  0  0  0  1  0  0  0  0  0  0
  183.8020  179.1740  145.2990 C   0  0  0  0  0  2  0  0  0  0  0  0
  184.5650  177.9200  145.6900 C   0  0  0  0  0  2  0  0  0  0  0  0
  186.9650  178.3800  146.1790 C   0  0  0  0  0  3  0  0  0  0  0  0
  185.7020  178.2490  146.6060 C   0  0  0  0  0  3  0  0  0  0  0  0
  189.4210  176.9090  145.7720 C   0  0  0  0  0  2  0  0  0  0  0  0
  191.5440  177.6440  144.5580 C   0  0  1  0  0  3  0  0  0  0  0  0
  189.4380  177.5720  143.2090 C   0  0  1  0  0  0  0  0  0  0  0  0
  191.9580  176.2550  144.0480 C   0  0  0  0  0  2  0  0  0  0  0  0
  190.7070  178.3720  143.5020 C   0  0  0  0  0  2  0  0  0  0  0  0
  187.2990  176.7280  144.3840 C   0  0  0  0  0  2  0  0  0  0  0  0
  189.8530  176.2070  142.6270 C   0  0  0  0  0  2  0  0  0  0  0  0
  187.3570  178.2080  144.7390 C   0  0  2  0  0  3  0  0  0  0  0  0
  190.7600  175.4160  143.5760 C   0  0  0  0  0  2  0  0  0  0  0  0
  188.6470  177.4070  144.5400 C   0  0  1  0  0  0  0  0  0  0  0  0
  190.7870  177.5970  145.8920 C   0  0  0  0  0  2  0  0  0  0  0  0
  188.6560  178.3220  142.1360 C   0  0  0  0  0  1  0  0  0  0  0  0
  1  2  1  0  0  0  0
  2 10  1  0  0  0  0
  2 13  2  0  0  0  0
  3 14  1  0  0  0  0
  4  8  2  0  0  0  0
  5  6  2  0  0  0  0
  5 11  1  0  0  0  0
  6  3  1  0  0  0  0
  7  1  1  0  0  0  0
  8 32  1  0  0  0  0
  9 13  1  0  0  0  0
 10  4  1  0  0  0  0
 11  7  2  0  0  0  0
 12  9  1  0  0  0  0
 13  8  1  0  0  0  0
 14  1  2  0  0  0  0
 14 12  1  0  0  0  0
 16 17  1  0  0  0  0
 16  6  1  0  0  0  0
 17 15  2  0  0  0  0
 18 19  1  0  0  0  0
 18 17  1  0  0  0  0
 19 24  1  0  0  0  0
 19 28  1  1  0  0  0
 21 23  1  6  0  0  0
 22 21  1  0  0  0  0
 22 26  1  1  0  0  0
 23 22  1  0  0  0  0
 24 27  2  0  0  0  0
 25 24  1  0  0  0  0
 25 22  1  0  0  0  0
 25 20  1  1  0  0  0
 27 21  1  0  0  0  0
 29 28  2  0  0  0  0
 30 11  1  0  0  0  0
 31 30  1  0  0  0  0
 32 33  1  0  0  0  0
 33 35  1  0  0  0  0
 34 35  2  0  0  0  0
 36 46  1  0  0  0  0
 37 40  1  6  0  0  0
 37 46  1  0  0  0  0
 38 47  1  6  0  0  0
 38 40  1  0  0  0  0
 38 45  1  0  0  0  0
 39 37  1  0  0  0  0
 41 43  1  0  0  0  0
 42 38  1  0  0  0  0
 42 44  1  0  0  0  0
 43 34  1  1  0  0  0
 44 39  1  0  0  0  0
 45 41  1  6  0  0  0
 45 43  1  0  0  0  0
 45 36  1  0  0  0  0
M  END
>  <MODEL>
6

>  <REMARK>
 VINA RESULT:      -8.7      1.689      2.291
  Name = 
  10 active torsions:
  status: ('A' for Active; 'I' for Inactive)
    1  A    between atoms: C_2  and  C_16
    2  A    between atoms: C_2  and  C_32
    3  A    between atoms: C_3  and  C_25
    4  A    between atoms: O_13  and  C_40
    5  A    between atoms: C_16  and  C_26
    6  A    between atoms: C_20  and  C_36
    7  A    between atoms: O_23  and  C_36
    8  A    between atoms: O_23  and  C_39
    9  A    between atoms: C_27  and  C_36
   10  A    between atoms: N_28  and  C_29
                            x       y       z     vdW  Elec       q    Type
                         _______ _______ _______ _____ _____    ______ ____

>  <TORSDO>
F 10

$$$$
=
 OpenBabel10232411483D

 47 54  0  0  1  0  0  0  0  0999 V2000
  190.1990  176.8070  137.8460 C   0  0  0  0  0  0  0  0  0  0  0  0
  189.2820  176.3600  136.7860 C   0  0  0  0  0  0  0  0  0  0  0  0
  190.4350  178.0600  139.9120 O   0  0  0  0  0  0  0  0  0  0  0  0
  188.4570  175.3790  135.0680 C   0  0  0  0  0  3  0  0  0  0  0  0
  192.5040  176.8210  139.9350 C   0  0  0  0  0  3  0  0  0  0  0  0
  191.5350  177.4860  140.5600 C   0  0  0  0  0  0  0  0  0  0  0  0
  191.6260  176.5350  137.6290 C   0  0  0  0  0  3  0  0  0  0  0  0
  187.4410  176.1390  135.6310 C   0  0  0  0  0  0  0  0  0  0  0  0
  187.4010  177.7470  137.6790 C   0  0  0  0  0  2  0  0  0  0  0  0
  189.5510  175.5490  135.7880 O   0  0  0  0  0  0  0  0  0  0  0  0
  192.6310  176.5280  138.4980 C   0  0  0  0  0  0  0  0  0  0  0  0
  188.1680  177.6990  139.0120 C   0  0  0  0  0  2  0  0  0  0  0  0
  187.9790  176.7490  136.7360 C   0  0  0  0  0  0  0  0  0  0  0  0
  189.6760  177.5040  138.8830 C   0  0  0  0  0  0  0  0  0  0  0  0
  190.3980  175.8680  142.6650 O   0  0  0  0  0  0  0  0  0  0  0  0
  191.6840  177.6950  141.9690 N   0  0  0  0  0  2  0  0  0  0  0  0
  190.9790  176.9500  142.9650 C   0  0  0  0  0  0  0  0  0  0  0  0
  190.9340  177.4310  144.2720 O   0  0  0  0  0  0  0  0  0  0  0  0
  190.7090  176.5690  145.3810 C   0  0  2  0  0  3  0  0  0  0  0  0
  187.7370  176.7250  144.4790 O   0  0  0  0  0  1  0  0  0  0  0  0
  187.8520  177.2850  147.7870 C   0  0  2  0  0  3  0  0  0  0  0  0
  187.3230  177.9310  146.5170 C   0  0  1  0  0  0  0  0  0  0  0  0
  187.7310  178.8020  147.6870 C   0  0  0  0  0  2  0  0  0  0  0  0
  189.4420  176.9620  146.0910 C   0  0  0  0  0  0  0  0  0  0  0  0
  188.3080  177.6190  145.3890 C   0  0  1  0  0  3  0  0  0  0  0  0
  185.9640  177.6760  146.3450 O   0  0  0  0  0  1  0  0  0  0  0  0
  189.2110  176.8110  147.3930 C   0  0  0  0  0  3  0  0  0  0  0  0
  191.9120  176.5440  146.2750 C   0  0  0  0  0  3  0  0  0  0  0  0
  192.3570  175.3940  146.7720 C   0  0  0  0  0  2  0  0  0  0  0  0
  193.8820  176.1650  138.0010 O   0  0  0  0  0  0  0  0  0  0  0  0
  194.2590  176.4970  136.7550 O   0  0  0  0  0  1  0  0  0  0  0  0
  186.0150  176.1560  135.1990 C   0  0  0  0  0  2  0  0  0  0  0  0
  185.4360  174.7570  135.3180 C   0  0  0  0  0  2  0  0  0  0  0  0
  184.3480  175.0760  137.5380 C   0  0  0  0  0  3  0  0  0  0  0  0
  185.1940  174.3970  136.7500 C   0  0  0  0  0  3  0  0  0  0  0  0
  182.5770  176.2260  139.5120 C   0  0  0  0  0  2  0  0  0  0  0  0
  180.0500  176.5720  139.3860 C   0  0  1  0  0  3  0  0  0  0  0  0
  181.4380  177.7400  137.6620 C   0  0  1  0  0  0  0  0  0  0  0  0
  179.9920  177.8420  140.2490 C   0  0  0  0  0  2  0  0  0  0  0  0
  180.1580  176.9390  137.9030 C   0  0  0  0  0  2  0  0  0  0  0  0
  184.0020  177.4960  137.8330 C   0  0  0  0  0  2  0  0  0  0  0  0
  181.3450  179.0480  138.4690 C   0  0  0  0  0  2  0  0  0  0  0  0
  183.5630  176.2610  137.0550 C   0  0  2  0  0  3  0  0  0  0  0  0
  181.1600  178.8010  139.9710 C   0  0  0  0  0  2  0  0  0  0  0  0
  182.6490  176.8740  138.1190 C   0  0  1  0  0  0  0  0  0  0  0  0
  181.1910  175.6250  139.7810 C   0  0  0  0  0  2  0  0  0  0  0  0
  181.4840  178.1030  136.1820 C   0  0  0  0  0  1  0  0  0  0  0  0
  1 14  2  0  0  0  0
  2  1  1  0  0  0  0
  3  6  1  0  0  0  0
  4  8  2  0  0  0  0
  4 10  1  0  0  0  0
  5  6  2  0  0  0  0
  6 16  1  0  0  0  0
  7  1  1  0  0  0  0
  7 11  2  0  0  0  0
  8 13  1  0  0  0  0
  9 12  1  0  0  0  0
 10  2  1  0  0  0  0
 11  5  1  0  0  0  0
 13  2  2  0  0  0  0
 13  9  1  0  0  0  0
 14 12  1  0  0  0  0
 14  3  1  0  0  0  0
 15 17  2  0  0  0  0
 16 17  1  0  0  0  0
 17 18  1  0  0  0  0
 18 19  1  0  0  0  0
 19 24  1  0  0  0  0
 19 28  1  1  0  0  0
 21 27  1  6  0  0  0
 22 26  1  6  0  0  0
 22 23  1  0  0  0  0
 22 21  1  0  0  0  0
 23 21  1  0  0  0  0
 24 27  2  0  0  0  0
 25 20  1  6  0  0  0
 25 24  1  0  0  0  0
 25 22  1  0  0  0  0
 28 29  2  0  0  0  0
 30 11  1  0  0  0  0
 31 30  1  0  0  0  0
 32 33  1  0  0  0  0
 32  8  1  0  0  0  0
 33 35  1  0  0  0  0
 35 34  2  0  0  0  0
 36 46  1  0  0  0  0
 37 40  1  6  0  0  0
 37 46  1  0  0  0  0
 37 39  1  0  0  0  0
 38 47  1  6  0  0  0
 38 40  1  0  0  0  0
 38 45  1  0  0  0  0
 38 42  1  0  0  0  0
 42 44  1  0  0  0  0
 43 34  1  1  0  0  0
 43 41  1  0  0  0  0
 43 45  1  0  0  0  0
 44 39  1  0  0  0  0
 45 41  1  1  0  0  0
 45 36  1  0  0  0  0
M  END
>  <MODEL>
7

>  <REMARK>
 VINA RESULT:      -8.3      3.594      9.884
  Name = 
  10 active torsions:
  status: ('A' for Active; 'I' for Inactive)
    1  A    between atoms: C_2  and  C_16
    2  A    between atoms: C_2  and  C_32
    3  A    between atoms: C_3  and  C_25
    4  A    between atoms: O_13  and  C_40
    5  A    between atoms: C_16  and  C_26
    6  A    between atoms: C_20  and  C_36
    7  A    between atoms: O_23  and  C_36
    8  A    between atoms: O_23  and  C_39
    9  A    between atoms: C_27  and  C_36
   10  A    between atoms: N_28  and  C_29
                            x       y       z     vdW  Elec       q    Type
                         _______ _______ _______ _____ _____    ______ ____

>  <TORSDO>
F 10

$$$$
=
 OpenBabel10232411483D

 47 54  0  0  1  0  0  0  0  0999 V2000
  188.3400  177.3920  144.8320 C   0  0  0  0  0  0  0  0  0  0  0  0
  187.1920  178.0400  145.4840 C   0  0  0  0  0  0  0  0  0  0  0  0
  189.1540  176.2510  142.8490 O   0  0  0  0  0  0  0  0  0  0  0  0
  185.9610  179.1270  146.8620 C   0  0  0  0  0  3  0  0  0  0  0  0
  191.2500  176.7810  143.9170 C   0  0  0  0  0  3  0  0  0  0  0  0
  190.5330  176.4890  142.8340 C   0  0  0  0  0  0  0  0  0  0  0  0
  189.5330  177.1910  145.6650 C   0  0  0  0  0  3  0  0  0  0  0  0
  185.1520  178.7570  145.7970 C   0  0  0  0  0  0  0  0  0  0  0  0
  185.6310  177.3650  143.6490 C   0  0  0  0  0  2  0  0  0  0  0  0
  187.1790  178.6670  146.6390 O   0  0  0  0  0  0  0  0  0  0  0  0
  190.7870  176.9360  145.3050 C   0  0  0  0  0  0  0  0  0  0  0  0
  186.9000  177.2480  142.7860 C   0  0  0  0  0  2  0  0  0  0  0  0
  185.9550  178.0750  144.9170 C   0  0  0  0  0  0  0  0  0  0  0  0
  188.1820  176.9550  143.5600 C   0  0  0  0  0  0  0  0  0  0  0  0
  189.6130  177.2720  140.2100 O   0  0  0  0  0  0  0  0  0  0  0  0
  191.2410  176.3280  141.6010 N   0  0  0  0  0  2  0  0  0  0  0  0
  190.6780  176.5990  140.3150 C   0  0  0  0  0  0  0  0  0  0  0  0
  191.3120  176.1080  139.1740 O   0  0  0  0  0  0  0  0  0  0  0  0
  191.2040  176.7620  137.9160 C   0  0  2  0  0  3  0  0  0  0  0  0
  189.2700  178.1940  135.9460 O   0  0  0  0  0  1  0  0  0  0  0  0
  188.3480  174.9730  136.1530 C   0  0  2  0  0  3  0  0  0  0  0  0
  187.7560  176.3630  136.3140 C   0  0  1  0  0  0  0  0  0  0  0  0
  187.1890  175.2100  137.1150 C   0  0  0  0  0  2  0  0  0  0  0  0
  189.9470  176.3250  137.2140 C   0  0  0  0  0  0  0  0  0  0  0  0
  188.8410  177.2680  136.9010 C   0  0  1  0  0  3  0  0  0  0  0  0
  187.0650  176.7560  135.1700 O   0  0  0  0  0  1  0  0  0  0  0  0
  189.6690  175.0780  136.8410 C   0  0  0  0  0  3  0  0  0  0  0  0
  192.4470  176.5470  137.1070 C   0  0  0  0  0  3  0  0  0  0  0  0
  193.3700  175.6790  137.5110 C   0  0  0  0  0  2  0  0  0  0  0  0
  191.7260  176.8600  146.3330 O   0  0  0  0  0  0  0  0  0  0  0  0
  191.4350  176.2600  147.5000 O   0  0  0  0  0  1  0  0  0  0  0  0
  183.7320  179.1600  145.5910 C   0  0  0  0  0  2  0  0  0  0  0  0
  183.4390  179.2280  144.1020 C   0  0  0  0  0  2  0  0  0  0  0  0
  181.4950  178.7880  142.6050 C   0  0  0  0  0  3  0  0  0  0  0  0
  181.9830  179.0120  143.8330 C   0  0  0  0  0  3  0  0  0  0  0  0
  180.3160  177.4130  140.3520 C   0  0  0  0  0  2  0  0  0  0  0  0
  181.2030  175.3930  139.0670 C   0  0  1  0  0  3  0  0  0  0  0  0
  182.6320  177.4470  139.0710 C   0  0  1  0  0  0  0  0  0  0  0  0
  180.6110  175.7670  137.6990 C   0  0  0  0  0  2  0  0  0  0  0  0
  182.6350  175.9220  139.1910 C   0  0  0  0  0  2  0  0  0  0  0  0
  181.7090  179.5380  140.2700 C   0  0  0  0  0  2  0  0  0  0  0  0
  182.1090  177.8180  137.6700 C   0  0  0  0  0  2  0  0  0  0  0  0
  182.3670  178.7330  141.3830 C   0  0  2  0  0  3  0  0  0  0  0  0
  180.7000  177.2720  137.4060 C   0  0  0  0  0  2  0  0  0  0  0  0
  181.7180  178.0230  140.1920 C   0  0  1  0  0  0  0  0  0  0  0  0
  180.3540  175.8830  140.2470 C   0  0  0  0  0  2  0  0  0  0  0  0
  184.0780  177.9200  139.1720 C   0  0  0  0  0  1  0  0  0  0  0  0
  1  2  1  0  0  0  0
  1  7  1  0  0  0  0
  2 10  1  0  0  0  0
  3 14  1  0  0  0  0
  5 11  1  0  0  0  0
  6  3  1  0  0  0  0
  6  5  2  0  0  0  0
  8  4  2  0  0  0  0
  9 13  1  0  0  0  0
 10  4  1  0  0  0  0
 11  7  2  0  0  0  0
 11 30  1  0  0  0  0
 12 14  1  0  0  0  0
 12  9  1  0  0  0  0
 13  2  2  0  0  0  0
 13  8  1  0  0  0  0
 14  1  2  0  0  0  0
 15 17  2  0  0  0  0
 16  6  1  0  0  0  0
 17 16  1  0  0  0  0
 18 17  1  0  0  0  0
 19 28  1  6  0  0  0
 19 18  1  0  0  0  0
 21 22  1  0  0  0  0
 21 27  1  1  0  0  0
 21 23  1  0  0  0  0
 22 26  1  6  0  0  0
 22 25  1  0  0  0  0
 22 23  1  0  0  0  0
 24 19  1  0  0  0  0
 25 20  1  6  0  0  0
 25 24  1  0  0  0  0
 27 24  2  0  0  0  0
 28 29  2  0  0  0  0
 30 31  1  0  0  0  0
 32  8  1  0  0  0  0
 33 32  1  0  0  0  0
 34 35  2  0  0  0  0
 35 33  1  0  0  0  0
 37 39  1  6  0  0  0
 37 40  1  0  0  0  0
 37 46  1  0  0  0  0
 38 47  1  1  0  0  0
 38 40  1  0  0  0  0
 38 45  1  0  0  0  0
 41 43  1  0  0  0  0
 42 38  1  0  0  0  0
 43 34  1  1  0  0  0
 44 42  1  0  0  0  0
 44 39  1  0  0  0  0
 45 41  1  6  0  0  0
 45 36  1  0  0  0  0
 45 43  1  0  0  0  0
 46 36  1  0  0  0  0
M  END
>  <MODEL>
8

>  <REMARK>
 VINA RESULT:      -8.2      3.425      7.629
  Name = 
  10 active torsions:
  status: ('A' for Active; 'I' for Inactive)
    1  A    between atoms: C_2  and  C_16
    2  A    between atoms: C_2  and  C_32
    3  A    between atoms: C_3  and  C_25
    4  A    between atoms: O_13  and  C_40
    5  A    between atoms: C_16  and  C_26
    6  A    between atoms: C_20  and  C_36
    7  A    between atoms: O_23  and  C_36
    8  A    between atoms: O_23  and  C_39
    9  A    between atoms: C_27  and  C_36
   10  A    between atoms: N_28  and  C_29
                            x       y       z     vdW  Elec       q    Type
                         _______ _______ _______ _____ _____    ______ ____

>  <TORSDO>
F 10

$$$$
=
 OpenBabel10232411483D

 47 54  0  0  1  0  0  0  0  0999 V2000
  188.6300  176.9590  137.8840 C   0  0  0  0  0  0  0  0  0  0  0  0
  187.8240  176.5060  136.7400 C   0  0  0  0  0  0  0  0  0  0  0  0
  188.6930  178.3150  139.8970 O   0  0  0  0  0  0  0  0  0  0  0  0
  187.1540  175.4780  134.9830 C   0  0  0  0  0  3  0  0  0  0  0  0
  190.6540  176.9570  140.2470 C   0  0  0  0  0  3  0  0  0  0  0  0
  189.6620  177.7160  140.7090 C   0  0  0  0  0  0  0  0  0  0  0  0
  190.0520  176.5890  137.8650 C   0  0  0  0  0  3  0  0  0  0  0  0
  186.1300  176.3290  135.3730 C   0  0  0  0  0  0  0  0  0  0  0  0
  185.9450  178.0550  137.3140 C   0  0  0  0  0  2  0  0  0  0  0  0
  188.1600  175.6230  135.8270 O   0  0  0  0  0  0  0  0  0  0  0  0
  190.9380  176.5720  138.8550 C   0  0  0  0  0  0  0  0  0  0  0  0
  186.5360  178.0400  138.7350 C   0  0  0  0  0  2  0  0  0  0  0  0
  186.5670  176.9700  136.5050 C   0  0  0  0  0  0  0  0  0  0  0  0
  188.0310  177.7460  138.8090 C   0  0  0  0  0  0  0  0  0  0  0  0
  188.7290  175.9610  142.8030 O   0  0  0  0  0  0  0  0  0  0  0  0
  189.6490  177.9980  142.1120 N   0  0  0  0  0  2  0  0  0  0  0  0
  189.0410  177.1510  143.0900 C   0  0  0  0  0  0  0  0  0  0  0  0
  188.7890  177.6540  144.3660 O   0  0  0  0  0  0  0  0  0  0  0  0
  187.5790  177.3700  145.0580 C   0  0  2  0  0  3  0  0  0  0  0  0
  185.3190  179.2620  146.0500 O   0  0  0  0  0  1  0  0  0  0  0  0
  185.1090  179.0530  142.7060 C   0  0  2  0  0  3  0  0  0  0  0  0
  184.2420  178.8590  143.9390 C   0  0  1  0  0  0  0  0  0  0  0  0
  183.9600  178.0500  142.6900 C   0  0  0  0  0  2  0  0  0  0  0  0
  186.4200  178.0340  144.3650 C   0  0  0  0  0  0  0  0  0  0  0  0
  185.1290  178.3010  145.0530 C   0  0  1  0  0  3  0  0  0  0  0  0
  183.4430  179.9760  144.1790 O   0  0  0  0  0  1  0  0  0  0  0  0
  186.4000  178.4090  143.0880 C   0  0  0  0  0  3  0  0  0  0  0  0
  187.7050  177.7440  146.5040 C   0  0  0  0  0  3  0  0  0  0  0  0
  188.3140  176.9280  147.3600 C   0  0  0  0  0  2  0  0  0  0  0  0
  192.2140  176.1050  138.5410 O   0  0  0  0  0  0  0  0  0  0  0  0
  193.3040  176.8610  138.7570 O   0  0  0  0  0  1  0  0  0  0  0  0
  184.7730  176.4070  134.7620 C   0  0  0  0  0  2  0  0  0  0  0  0
  183.9030  175.2970  135.3250 C   0  0  0  0  0  2  0  0  0  0  0  0
  181.5150  175.7490  135.8790 C   0  0  0  0  0  3  0  0  0  0  0  0
  182.4650  175.5090  134.9660 C   0  0  0  0  0  3  0  0  0  0  0  0
  180.6390  178.1980  137.1430 C   0  0  0  0  0  2  0  0  0  0  0  0
  182.0170  179.9060  138.4480 C   0  0  1  0  0  3  0  0  0  0  0  0
  181.9590  177.5740  139.3510 C   0  0  1  0  0  0  0  0  0  0  0  0
  180.9050  180.3440  139.4140 C   0  0  0  0  0  2  0  0  0  0  0  0
  182.8520  178.7830  139.0690 C   0  0  0  0  0  2  0  0  0  0  0  0
  180.4850  175.8530  138.1130 C   0  0  0  0  0  2  0  0  0  0  0  0
  180.8900  177.9940  140.3780 C   0  0  0  0  0  2  0  0  0  0  0  0
  181.8040  175.8290  137.3500 C   0  0  2  0  0  3  0  0  0  0  0  0
  180.0360  179.1700  139.8880 C   0  0  0  0  0  2  0  0  0  0  0  0
  181.3130  177.1200  138.0090 C   0  0  1  0  0  0  0  0  0  0  0  0
  181.4880  179.4740  137.0740 C   0  0  0  0  0  2  0  0  0  0  0  0
  182.8290  176.4970  139.9930 C   0  0  0  0  0  1  0  0  0  0  0  0
  1 14  2  0  0  0  0
  2  1  1  0  0  0  0
  3  6  1  0  0  0  0
  4  8  2  0  0  0  0
  4 10  1  0  0  0  0
  5  6  2  0  0  0  0
  6 16  1  0  0  0  0
  7  1  1  0  0  0  0
  7 11  2  0  0  0  0
  8 13  1  0  0  0  0
  9 12  1  0  0  0  0
 10  2  1  0  0  0  0
 11  5  1  0  0  0  0
 12 14  1  0  0  0  0
 13  2  2  0  0  0  0
 13  9  1  0  0  0  0
 14  3  1  0  0  0  0
 15 17  2  0  0  0  0
 16 17  1  0  0  0  0
 17 18  1  0  0  0  0
 18 19  1  0  0  0  0
 19 28  1  1  0  0  0
 21 23  1  6  0  0  0
 21 27  1  0  0  0  0
 21 22  1  0  0  0  0
 22 26  1  1  0  0  0
 22 25  1  0  0  0  0
 23 22  1  0  0  0  0
 24 25  1  0  0  0  0
 24 19  1  0  0  0  0
 25 20  1  1  0  0  0
 27 24  2  0  0  0  0
 28 29  2  0  0  0  0
 30 31  1  0  0  0  0
 30 11  1  0  0  0  0
 32 33  1  0  0  0  0
 32  8  1  0  0  0  0
 35 33  1  0  0  0  0
 35 34  2  0  0  0  0
 37 46  1  6  0  0  0
 37 40  1  0  0  0  0
 37 39  1  0  0  0  0
 38 47  1  1  0  0  0
 38 42  1  0  0  0  0
 39 44  1  0  0  0  0
 40 38  1  0  0  0  0
 43 34  1  6  0  0  0
 43 45  1  0  0  0  0
 43 41  1  0  0  0  0
 44 42  1  0  0  0  0
 45 36  1  6  0  0  0
 45 41  1  0  0  0  0
 45 38  1  0  0  0  0
 46 36  1  0  0  0  0
M  END
>  <MODEL>
9

>  <REMARK>
 VINA RESULT:      -8.0      2.816      9.359
  Name = 
  10 active torsions:
  status: ('A' for Active; 'I' for Inactive)
    1  A    between atoms: C_2  and  C_16
    2  A    between atoms: C_2  and  C_32
    3  A    between atoms: C_3  and  C_25
    4  A    between atoms: O_13  and  C_40
    5  A    between atoms: C_16  and  C_26
    6  A    between atoms: C_20  and  C_36
    7  A    between atoms: O_23  and  C_36
    8  A    between atoms: O_23  and  C_39
    9  A    between atoms: C_27  and  C_36
   10  A    between atoms: N_28  and  C_29
                            x       y       z     vdW  Elec       q    Type
                         _______ _______ _______ _____ _____    ______ ____

>  <TORSDO>
F 10

$$$$
