=
 OpenBabel10232408593D

 46 50  0  0  1  0  0  0  0  0999 V2000
  180.8710  177.7410  141.4200 O   0  0  0  0  0  1  0  0  0  0  0  0
  182.8210  179.5610  143.9200 C   0  0  0  0  0  3  0  0  0  0  0  0
  181.8840  179.2690  143.0210 C   0  0  0  0  0  3  0  0  0  0  0  0
  182.0340  178.3620  141.8650 C   0  0  0  0  0  0  0  0  0  0  0  0
  184.1810  178.9440  143.9200 C   0  0  1  0  0  3  0  0  0  0  0  0
  183.1880  178.1500  141.1900 C   0  0  0  0  0  0  0  0  0  0  0  0
  184.9110  179.2250  142.6490 C   0  0  0  0  0  3  0  0  0  0  0  0
  184.4670  178.8370  141.4590 C   0  0  0  0  0  3  0  0  0  0  0  0
  183.1770  177.2680  139.9830 C   0  0  0  0  0  2  0  0  0  0  0  0
  183.7490  178.0100  138.7800 C   0  0  0  0  0  2  0  0  0  0  0  0
  183.5520  177.2120  137.4990 C   0  0  0  0  0  2  0  0  0  0  0  0
  184.8890  176.9690  136.8140 C   0  0  0  0  0  2  0  0  0  0  0  0
  186.6970  175.2100  136.9410 C   0  0  0  0  0  0  0  0  0  0  0  0
  184.7660  173.2220  137.3700 C   0  0  0  0  0  0  0  0  0  0  0  0
  185.3280  175.5470  136.9690 C   0  0  0  0  0  0  0  0  0  0  0  0
  187.0830  173.8730  137.1220 C   0  0  0  0  0  3  0  0  0  0  0  0
  186.1210  172.8840  137.3330 C   0  0  0  0  0  3  0  0  0  0  0  0
  183.8110  172.2400  137.5810 O   0  0  0  0  0  1  0  0  0  0  0  0
  184.3730  174.5510  137.1940 C   0  0  0  0  0  3  0  0  0  0  0  0
  187.7450  176.2730  136.7260 C   0  0  2  0  0  3  0  0  0  0  0  0
  189.9350  175.5730  137.8620 C   0  0  0  0  0  2  0  0  0  0  0  0
  189.1270  175.6970  136.5890 C   0  0  0  0  0  0  0  0  0  0  0  0
  189.5470  175.2570  135.3820 C   0  0  0  0  0  3  0  0  0  0  0  0
  191.4690  173.8120  136.1340 C   0  0  0  0  0  2  0  0  0  0  0  0
  192.1730  174.6160  137.2270 C   0  0  0  0  0  2  0  0  0  0  0  0
  191.4100  175.8720  137.6580 C   0  0  0  0  0  2  0  0  0  0  0  0
  190.9210  174.7230  135.0450 C   0  0  0  0  0  2  0  0  0  0  0  0
  187.7000  177.2520  137.7260 O   0  0  0  0  0  0  0  0  0  0  0  0
  188.0170  178.4440  137.0770 C   0  0  0  0  0  1  0  0  0  0  0  0
  184.9940  179.3910  145.1340 C   0  0  0  0  0  2  0  0  0  0  0  0
  185.0830  178.3260  146.1930 C   0  0  0  0  0  3  0  0  0  0  0  0
  186.2180  177.6760  146.4740 C   0  0  0  0  0  3  0  0  0  0  0  0
  187.5180  177.9450  145.7640 C   0  0  1  0  0  3  0  0  0  0  0  0
  188.7250  177.9970  146.6120 C   0  0  2  0  0  3  0  0  0  0  0  0
  188.3910  176.7650  145.8780 N   0  0  2  0  0  0  0  0  0  0  0  0
  188.5080  177.7680  148.1030 C   0  0  0  0  0  1  0  0  0  0  0  0
  188.3640  177.5770  143.3100 S   0  0  0  0  0  0  0  0  0  0  0  0
  189.6790  177.1660  142.1000 C   0  0  2  0  0  3  0  0  0  0  0  0
  191.8430  175.8480  143.7150 O   0  0  0  0  0  1  0  0  0  0  0  0
  190.5420  177.4360  144.9590 C   0  0  0  0  0  2  0  0  0  0  0  0
  191.9840  177.5220  141.4950 O   0  0  0  0  0  1  0  0  0  0  0  0
  191.0390  177.7690  142.4930 C   0  0  2  0  0  3  0  0  0  0  0  0
  191.5400  177.2070  143.8280 C   0  0  2  0  0  3  0  0  0  0  0  0
  189.2190  176.7300  144.6820 C   0  0  1  0  0  3  0  0  0  0  0  0
  189.2990  177.4440  140.7690 O   0  0  0  0  0  0  0  0  0  0  0  0
  188.3260  178.4550  140.7730 C   0  0  0  0  0  1  0  0  0  0  0  0
  1  4  1  0  0  0  0
  2  5  1  0  0  0  0
  3  2  2  0  0  0  0
  4  3  1  0  0  0  0
  5 30  1  1  0  0  0
  6  8  1  0  0  0  0
  6  4  2  0  0  0  0
  7  5  1  0  0  0  0
  8  7  2  0  0  0  0
  9  6  1  0  0  0  0
 10  9  1  0  0  0  0
 11 10  1  0  0  0  0
 12 15  1  0  0  0  0
 12 11  1  0  0  0  0
 13 15  2  0  0  0  0
 13 16  1  0  0  0  0
 14 18  1  0  0  0  0
 15 19  1  0  0  0  0
 16 17  2  0  0  0  0
 17 14  1  0  0  0  0
 19 14  2  0  0  0  0
 20 13  1  0  0  0  0
 20 28  1  1  0  0  0
 22 20  1  0  0  0  0
 22 21  1  0  0  0  0
 23 22  2  0  0  0  0
 24 25  1  0  0  0  0
 25 26  1  0  0  0  0
 26 21  1  0  0  0  0
 27 23  1  0  0  0  0
 27 24  1  0  0  0  0
 29 28  1  0  0  0  0
 30 31  1  0  0  0  0
 31 32  2  0  0  0  0
 33 35  1  0  0  0  0
 33 32  1  1  0  0  0
 33 34  1  0  0  0  0
 34 36  1  1  0  0  0
 35 44  1  6  0  0  0
 35 34  1  0  0  0  0
 37 44  1  0  0  0  0
 38 45  1  6  0  0  0
 38 42  1  0  0  0  0
 38 37  1  0  0  0  0
 42 41  1  6  0  0  0
 42 43  1  0  0  0  0
 43 39  1  6  0  0  0
 43 40  1  0  0  0  0
 44 40  1  1  0  0  0
 45 46  1  0  0  0  0
M  END
>  <MODEL>
1

>  <REMARK>
 VINA RESULT:      -8.6      0.000      0.000
  Name = 
  13 active torsions:
  status: ('A' for Active; 'I' for Inactive)
    1  A    between atoms: C_2  and  C_7
    2  A    between atoms: C_2  and  C_18
    3  A    between atoms: C_3  and  O_20
    4  A    between atoms: C_6  and  C_27
    5  A    between atoms: C_7  and  C_12
    6  A    between atoms: C_10  and  C_42
    7  A    between atoms: C_11  and  C_27
    8  A    between atoms: C_12  and  C_24
    9  A    between atoms: C_24  and  C_40
   10  A    between atoms: C_27  and  O_41
   11  A    between atoms: N_28  and  C_38
   12  A    between atoms: C_30  and  C_35
   13  A    between atoms: C_35  and  C_36
                            x       y       z     vdW  Elec       q    Type
                         _______ _______ _______ _____ _____    ______ ____

>  <TORSDO>
F 13

$$$$
=
 OpenBabel10232408593D

 46 50  0  0  1  0  0  0  0  0999 V2000
  191.7520  177.6890  145.4670 O   0  0  0  0  0  1  0  0  0  0  0  0
  188.2310  177.2220  146.3330 C   0  0  0  0  0  3  0  0  0  0  0  0
  189.5570  177.1020  146.3390 C   0  0  0  0  0  3  0  0  0  0  0  0
  190.4550  177.2740  145.1800 C   0  0  0  0  0  0  0  0  0  0  0  0
  187.4480  177.6190  145.1250 C   0  0  1  0  0  3  0  0  0  0  0  0
  190.1270  177.0000  143.8950 C   0  0  0  0  0  0  0  0  0  0  0  0
  187.6510  176.6600  143.9990 C   0  0  0  0  0  3  0  0  0  0  0  0
  188.8390  176.4270  143.4530 C   0  0  0  0  0  3  0  0  0  0  0  0
  191.1650  177.1390  142.8290 C   0  0  0  0  0  2  0  0  0  0  0  0
  190.5300  177.6350  141.5350 C   0  0  0  0  0  2  0  0  0  0  0  0
  191.3810  177.2610  140.3290 C   0  0  0  0  0  2  0  0  0  0  0  0
  190.5400  176.5300  139.2920 C   0  0  0  0  0  2  0  0  0  0  0  0
  190.6750  176.1640  136.7960 C   0  0  0  0  0  0  0  0  0  0  0  0
  193.4680  175.9620  136.9530 C   0  0  0  0  0  0  0  0  0  0  0  0
  191.3240  176.2690  138.0450 C   0  0  0  0  0  0  0  0  0  0  0  0
  191.4380  175.9520  135.6380 C   0  0  0  0  0  3  0  0  0  0  0  0
  192.8280  175.8490  135.7170 C   0  0  0  0  0  3  0  0  0  0  0  0
  194.8490  175.8600  137.0320 O   0  0  0  0  0  1  0  0  0  0  0  0
  192.7180  176.1770  138.1120 C   0  0  0  0  0  3  0  0  0  0  0  0
  189.1750  176.2870  136.6980 C   0  0  2  0  0  3  0  0  0  0  0  0
  187.7190  175.0510  134.9880 C   0  0  0  0  0  2  0  0  0  0  0  0
  188.5220  175.0040  136.2690 C   0  0  0  0  0  0  0  0  0  0  0  0
  188.7360  173.8770  136.9850 C   0  0  0  0  0  3  0  0  0  0  0  0
  188.0250  172.1760  135.2680 C   0  0  0  0  0  2  0  0  0  0  0  0
  186.7620  172.7530  134.6280 C   0  0  0  0  0  2  0  0  0  0  0  0
  186.4640  174.1970  135.0440 C   0  0  0  0  0  2  0  0  0  0  0  0
  188.1040  172.5240  136.7470 C   0  0  0  0  0  2  0  0  0  0  0  0
  188.7970  177.3510  135.8700 O   0  0  0  0  0  0  0  0  0  0  0  0
  188.9610  178.4920  136.6530 C   0  0  0  0  0  1  0  0  0  0  0  0
  185.9630  177.7780  145.4530 C   0  0  0  0  0  2  0  0  0  0  0  0
  185.4590  179.1700  145.1840 C   0  0  0  0  0  3  0  0  0  0  0  0
  184.7700  179.4920  144.0840 C   0  0  0  0  0  3  0  0  0  0  0  0
  184.4270  178.4970  143.0070 C   0  0  1  0  0  3  0  0  0  0  0  0
  182.9890  178.2780  142.7550 C   0  0  2  0  0  3  0  0  0  0  0  0
  183.7590  179.1910  141.8940 N   0  0  2  0  0  0  0  0  0  0  0  0
  182.0270  179.0900  143.6140 C   0  0  0  0  0  1  0  0  0  0  0  0
  182.7260  177.3420  140.2290 S   0  0  0  0  0  0  0  0  0  0  0  0
  183.6400  176.6300  138.8080 C   0  0  2  0  0  3  0  0  0  0  0  0
  186.1700  178.2390  138.6200 O   0  0  0  0  0  1  0  0  0  0  0  0
  184.3180  179.4580  139.5410 C   0  0  0  0  0  2  0  0  0  0  0  0
  184.5870  177.0900  136.6410 O   0  0  0  0  0  1  0  0  0  0  0  0
  183.9860  177.6910  137.7490 C   0  0  2  0  0  3  0  0  0  0  0  0
  184.9150  178.7710  138.3150 C   0  0  2  0  0  3  0  0  0  0  0  0
  184.0930  178.4660  140.6770 C   0  0  1  0  0  3  0  0  0  0  0  0
  183.0110  175.4840  138.2770 O   0  0  0  0  0  0  0  0  0  0  0  0
  181.6740  175.4580  138.7020 C   0  0  0  0  0  1  0  0  0  0  0  0
  2  3  2  0  0  0  0
  4  1  1  0  0  0  0
  4  3  1  0  0  0  0
  5 30  1  1  0  0  0
  5  2  1  0  0  0  0
  6  4  2  0  0  0  0
  7  5  1  0  0  0  0
  8  6  1  0  0  0  0
  8  7  2  0  0  0  0
  9  6  1  0  0  0  0
 10  9  1  0  0  0  0
 11 10  1  0  0  0  0
 12 11  1  0  0  0  0
 13 15  1  0  0  0  0
 14 18  1  0  0  0  0
 14 19  1  0  0  0  0
 15 19  2  0  0  0  0
 15 12  1  0  0  0  0
 16 17  1  0  0  0  0
 16 13  2  0  0  0  0
 17 14  2  0  0  0  0
 20 28  1  6  0  0  0
 20 13  1  0  0  0  0
 21 26  1  0  0  0  0
 21 22  1  0  0  0  0
 22 20  1  0  0  0  0
 22 23  2  0  0  0  0
 24 27  1  0  0  0  0
 25 26  1  0  0  0  0
 25 24  1  0  0  0  0
 27 23  1  0  0  0  0
 28 29  1  0  0  0  0
 31 30  1  0  0  0  0
 32 31  2  0  0  0  0
 33 32  1  1  0  0  0
 34 33  1  0  0  0  0
 34 36  1  1  0  0  0
 35 44  1  6  0  0  0
 35 34  1  0  0  0  0
 35 33  1  0  0  0  0
 37 44  1  0  0  0  0
 38 45  1  6  0  0  0
 38 37  1  0  0  0  0
 42 41  1  6  0  0  0
 42 43  1  0  0  0  0
 42 38  1  0  0  0  0
 43 39  1  1  0  0  0
 43 40  1  0  0  0  0
 44 40  1  6  0  0  0
 45 46  1  0  0  0  0
M  END
>  <MODEL>
2

>  <REMARK>
 VINA RESULT:      -8.6      2.290      6.652
  Name = 
  13 active torsions:
  status: ('A' for Active; 'I' for Inactive)
    1  A    between atoms: C_2  and  C_7
    2  A    between atoms: C_2  and  C_18
    3  A    between atoms: C_3  and  O_20
    4  A    between atoms: C_6  and  C_27
    5  A    between atoms: C_7  and  C_12
    6  A    between atoms: C_10  and  C_42
    7  A    between atoms: C_11  and  C_27
    8  A    between atoms: C_12  and  C_24
    9  A    between atoms: C_24  and  C_40
   10  A    between atoms: C_27  and  O_41
   11  A    between atoms: N_28  and  C_38
   12  A    between atoms: C_30  and  C_35
   13  A    between atoms: C_35  and  C_36
                            x       y       z     vdW  Elec       q    Type
                         _______ _______ _______ _____ _____    ______ ____

>  <TORSDO>
F 13

$$$$
=
 OpenBabel10232408593D

 46 50  0  0  1  0  0  0  0  0999 V2000
  191.6680  177.6740  145.4690 O   0  0  0  0  0  1  0  0  0  0  0  0
  188.1270  177.3080  146.2970 C   0  0  0  0  0  3  0  0  0  0  0  0
  189.4480  177.1520  146.3190 C   0  0  0  0  0  3  0  0  0  0  0  0
  190.3640  177.2940  145.1690 C   0  0  0  0  0  0  0  0  0  0  0  0
  187.3680  177.7220  145.0800 C   0  0  1  0  0  3  0  0  0  0  0  0
  190.0420  177.0240  143.8820 C   0  0  0  0  0  0  0  0  0  0  0  0
  187.5570  176.7550  143.9600 C   0  0  0  0  0  3  0  0  0  0  0  0
  188.7440  176.4860  143.4280 C   0  0  0  0  0  3  0  0  0  0  0  0
  191.0950  177.1300  142.8270 C   0  0  0  0  0  2  0  0  0  0  0  0
  190.4940  177.6600  141.5300 C   0  0  0  0  0  2  0  0  0  0  0  0
  191.3620  177.2960  140.3350 C   0  0  0  0  0  2  0  0  0  0  0  0
  190.6670  176.2520  139.4710 C   0  0  0  0  0  2  0  0  0  0  0  0
  190.3640  176.1870  136.9640 C   0  0  0  0  0  0  0  0  0  0  0  0
  188.9560  178.6110  137.0480 C   0  0  0  0  0  0  0  0  0  0  0  0
  190.1670  176.8500  138.1940 C   0  0  0  0  0  0  0  0  0  0  0  0
  189.8560  176.7530  135.7860 C   0  0  0  0  0  3  0  0  0  0  0  0
  189.1580  177.9610  135.8280 C   0  0  0  0  0  3  0  0  0  0  0  0
  188.2610  179.8100  137.0890 O   0  0  0  0  0  1  0  0  0  0  0  0
  189.4540  178.0530  138.2270 C   0  0  0  0  0  3  0  0  0  0  0  0
  191.1060  174.8750  136.9100 C   0  0  2  0  0  3  0  0  0  0  0  0
  193.4710  174.0150  137.4040 C   0  0  0  0  0  2  0  0  0  0  0  0
  192.5900  175.0620  136.7590 C   0  0  0  0  0  0  0  0  0  0  0  0
  193.0590  176.0850  136.0090 C   0  0  0  0  0  3  0  0  0  0  0  0
  195.4050  175.2530  135.6250 C   0  0  0  0  0  2  0  0  0  0  0  0
  195.8560  174.6850  136.9710 C   0  0  0  0  0  2  0  0  0  0  0  0
  194.7350  174.5980  138.0110 C   0  0  0  0  0  2  0  0  0  0  0  0
  194.5080  176.4670  135.8110 C   0  0  0  0  0  2  0  0  0  0  0  0
  190.5960  174.0340  135.9140 O   0  0  0  0  0  0  0  0  0  0  0  0
  189.8250  173.0950  136.5970 C   0  0  0  0  0  1  0  0  0  0  0  0
  185.8850  177.9240  145.3900 C   0  0  0  0  0  2  0  0  0  0  0  0
  185.4040  179.3060  145.0380 C   0  0  0  0  0  3  0  0  0  0  0  0
  184.7060  179.5710  143.9290 C   0  0  0  0  0  3  0  0  0  0  0  0
  184.3280  178.5160  142.9240 C   0  0  1  0  0  3  0  0  0  0  0  0
  182.8840  178.2590  142.7600 C   0  0  2  0  0  3  0  0  0  0  0  0
  183.5880  179.1400  141.8140 N   0  0  2  0  0  0  0  0  0  0  0  0
  181.9520  179.0960  143.6280 C   0  0  0  0  0  1  0  0  0  0  0  0
  182.4210  177.3430  140.1810 S   0  0  0  0  0  0  0  0  0  0  0  0
  183.2870  176.5220  138.7890 C   0  0  2  0  0  3  0  0  0  0  0  0
  185.9460  177.9080  138.5950 O   0  0  0  0  0  1  0  0  0  0  0  0
  184.1930  179.3000  139.4630 C   0  0  0  0  0  2  0  0  0  0  0  0
  184.2920  176.8470  136.6230 O   0  0  0  0  0  1  0  0  0  0  0  0
  183.7320  177.5230  137.7100 C   0  0  2  0  0  3  0  0  0  0  0  0
  184.7430  178.5350  138.2620 C   0  0  2  0  0  3  0  0  0  0  0  0
  183.8730  178.3590  140.6190 C   0  0  1  0  0  3  0  0  0  0  0  0
  182.5690  175.4190  138.2770 O   0  0  0  0  0  0  0  0  0  0  0  0
  181.2290  175.5170  138.6850 C   0  0  0  0  0  1  0  0  0  0  0  0
  2  3  2  0  0  0  0
  4  1  1  0  0  0  0
  4  3  1  0  0  0  0
  5 30  1  1  0  0  0
  5  2  1  0  0  0  0
  6  4  2  0  0  0  0
  7  5  1  0  0  0  0
  8  6  1  0  0  0  0
  8  7  2  0  0  0  0
  9  6  1  0  0  0  0
 10  9  1  0  0  0  0
 11 10  1  0  0  0  0
 12 11  1  0  0  0  0
 13 15  1  0  0  0  0
 14 18  1  0  0  0  0
 14 19  1  0  0  0  0
 15 19  2  0  0  0  0
 15 12  1  0  0  0  0
 16 17  1  0  0  0  0
 16 13  2  0  0  0  0
 17 14  2  0  0  0  0
 20 28  1  6  0  0  0
 20 13  1  0  0  0  0
 21 26  1  0  0  0  0
 22 20  1  0  0  0  0
 22 21  1  0  0  0  0
 23 22  2  0  0  0  0
 24 27  1  0  0  0  0
 24 25  1  0  0  0  0
 25 26  1  0  0  0  0
 27 23  1  0  0  0  0
 28 29  1  0  0  0  0
 31 30  1  0  0  0  0
 32 31  2  0  0  0  0
 33 32  1  1  0  0  0
 34 33  1  0  0  0  0
 34 36  1  1  0  0  0
 35 44  1  6  0  0  0
 35 34  1  0  0  0  0
 35 33  1  0  0  0  0
 37 44  1  0  0  0  0
 38 45  1  6  0  0  0
 38 37  1  0  0  0  0
 42 41  1  6  0  0  0
 42 43  1  0  0  0  0
 42 38  1  0  0  0  0
 43 39  1  1  0  0  0
 43 40  1  0  0  0  0
 44 40  1  6  0  0  0
 45 46  1  0  0  0  0
M  END
>  <MODEL>
3

>  <REMARK>
 VINA RESULT:      -8.5      2.470      6.489
  Name = 
  13 active torsions:
  status: ('A' for Active; 'I' for Inactive)
    1  A    between atoms: C_2  and  C_7
    2  A    between atoms: C_2  and  C_18
    3  A    between atoms: C_3  and  O_20
    4  A    between atoms: C_6  and  C_27
    5  A    between atoms: C_7  and  C_12
    6  A    between atoms: C_10  and  C_42
    7  A    between atoms: C_11  and  C_27
    8  A    between atoms: C_12  and  C_24
    9  A    between atoms: C_24  and  C_40
   10  A    between atoms: C_27  and  O_41
   11  A    between atoms: N_28  and  C_38
   12  A    between atoms: C_30  and  C_35
   13  A    between atoms: C_35  and  C_36
                            x       y       z     vdW  Elec       q    Type
                         _______ _______ _______ _____ _____    ______ ____

>  <TORSDO>
F 13

$$$$
=
 OpenBabel10232408593D

 46 50  0  0  1  0  0  0  0  0999 V2000
  189.6330  178.0220  146.8150 O   0  0  0  0  0  1  0  0  0  0  0  0
  186.2520  177.7850  145.4450 C   0  0  0  0  0  3  0  0  0  0  0  0
  187.2950  177.6390  146.2590 C   0  0  0  0  0  3  0  0  0  0  0  0
  188.7160  177.5930  145.8610 C   0  0  0  0  0  0  0  0  0  0  0  0
  186.3830  177.9910  143.9720 C   0  0  1  0  0  3  0  0  0  0  0  0
  189.1760  177.1150  144.6810 C   0  0  0  0  0  0  0  0  0  0  0  0
  187.0940  176.8530  143.3200 C   0  0  0  0  0  3  0  0  0  0  0  0
  188.3380  176.5050  143.6290 C   0  0  0  0  0  3  0  0  0  0  0  0
  190.6500  177.0490  144.4430 C   0  0  0  0  0  2  0  0  0  0  0  0
  191.0660  178.0900  143.4090 C   0  0  0  0  0  2  0  0  0  0  0  0
  191.5210  177.4270  142.1170 C   0  0  0  0  0  2  0  0  0  0  0  0
  190.4280  177.5160  141.0610 C   0  0  0  0  0  2  0  0  0  0  0  0
  190.0650  177.0140  138.6120 C   0  0  0  0  0  0  0  0  0  0  0  0
  192.8010  176.4900  138.2890 C   0  0  0  0  0  0  0  0  0  0  0  0
  190.9380  177.1020  139.7160 C   0  0  0  0  0  0  0  0  0  0  0  0
  190.5750  176.6560  137.3560 C   0  0  0  0  0  3  0  0  0  0  0  0
  191.9370  176.3930  137.1960 C   0  0  0  0  0  3  0  0  0  0  0  0
  194.1530  176.2300  138.1300 O   0  0  0  0  0  1  0  0  0  0  0  0
  192.3030  176.8500  139.5430 C   0  0  0  0  0  3  0  0  0  0  0  0
  188.5940  177.3090  138.7710 C   0  0  2  0  0  3  0  0  0  0  0  0
  187.3780  175.6000  137.2970 C   0  0  0  0  0  2  0  0  0  0  0  0
  187.8150  177.0310  137.5170 C   0  0  0  0  0  0  0  0  0  0  0  0
  187.4810  178.0560  136.7000 C   0  0  0  0  0  3  0  0  0  0  0  0
  185.6380  176.9390  135.3950 C   0  0  0  0  0  2  0  0  0  0  0  0
  186.1490  175.5280  135.1030 C   0  0  0  0  0  2  0  0  0  0  0  0
  187.4450  175.1760  135.8400 C   0  0  0  0  0  2  0  0  0  0  0  0
  186.7720  177.9530  135.3680 C   0  0  0  0  0  2  0  0  0  0  0  0
  188.3750  178.6150  139.2260 O   0  0  0  0  0  0  0  0  0  0  0  0
  187.2900  178.5160  140.0950 C   0  0  0  0  0  1  0  0  0  0  0  0
  185.0210  178.2360  143.3220 C   0  0  0  0  0  2  0  0  0  0  0  0
  184.0970  179.0330  144.2020 C   0  0  0  0  0  3  0  0  0  0  0  0
  182.7850  179.1420  143.9650 C   0  0  0  0  0  3  0  0  0  0  0  0
  182.1020  178.4770  142.8000 C   0  0  1  0  0  3  0  0  0  0  0  0
  180.6300  178.3900  142.8710 C   0  0  2  0  0  3  0  0  0  0  0  0
  181.2680  179.4650  142.0940 N   0  0  2  0  0  0  0  0  0  0  0  0
  179.9820  178.9870  144.1150 C   0  0  0  0  0  1  0  0  0  0  0  0
  180.8490  180.5180  139.6500 S   0  0  0  0  0  0  0  0  0  0  0  0
  180.8030  179.5250  138.1100 C   0  0  2  0  0  3  0  0  0  0  0  0
  181.6610  176.7660  138.9310 O   0  0  0  0  0  1  0  0  0  0  0  0
  182.5940  178.5110  140.2900 C   0  0  0  0  0  2  0  0  0  0  0  0
  182.1040  178.1910  136.5820 O   0  0  0  0  0  1  0  0  0  0  0  0
  182.1530  178.8490  137.8140 C   0  0  2  0  0  3  0  0  0  0  0  0
  182.5370  177.8530  138.9140 C   0  0  2  0  0  3  0  0  0  0  0  0
  181.2350  179.0700  140.6930 C   0  0  1  0  0  3  0  0  0  0  0  0
  180.2780  180.2450  137.0140 O   0  0  0  0  0  0  0  0  0  0  0  0
  180.2830  181.6140  137.3230 C   0  0  0  0  0  1  0  0  0  0  0  0
  2  3  2  0  0  0  0
  4  3  1  0  0  0  0
  4  1  1  0  0  0  0
  5 30  1  6  0  0  0
  5  2  1  0  0  0  0
  6  4  2  0  0  0  0
  7  8  2  0  0  0  0
  7  5  1  0  0  0  0
  8  6  1  0  0  0  0
  9  6  1  0  0  0  0
 10  9  1  0  0  0  0
 11 10  1  0  0  0  0
 12 11  1  0  0  0  0
 13 20  1  0  0  0  0
 13 15  1  0  0  0  0
 14 19  1  0  0  0  0
 15 12  1  0  0  0  0
 16 13  2  0  0  0  0
 17 16  1  0  0  0  0
 17 14  2  0  0  0  0
 18 14  1  0  0  0  0
 19 15  2  0  0  0  0
 20 28  1  6  0  0  0
 21 22  1  0  0  0  0
 22 20  1  0  0  0  0
 23 22  2  0  0  0  0
 25 24  1  0  0  0  0
 25 26  1  0  0  0  0
 26 21  1  0  0  0  0
 27 24  1  0  0  0  0
 27 23  1  0  0  0  0
 28 29  1  0  0  0  0
 30 31  1  0  0  0  0
 32 31  2  0  0  0  0
 33 34  1  0  0  0  0
 33 32  1  1  0  0  0
 34 36  1  1  0  0  0
 35 44  1  6  0  0  0
 35 33  1  0  0  0  0
 35 34  1  0  0  0  0
 37 44  1  0  0  0  0
 38 45  1  6  0  0  0
 38 37  1  0  0  0  0
 42 41  1  6  0  0  0
 42 38  1  0  0  0  0
 42 43  1  0  0  0  0
 43 39  1  1  0  0  0
 43 40  1  0  0  0  0
 44 40  1  6  0  0  0
 45 46  1  0  0  0  0
M  END
>  <MODEL>
4

>  <REMARK>
 VINA RESULT:      -8.4      2.828      7.353
  Name = 
  13 active torsions:
  status: ('A' for Active; 'I' for Inactive)
    1  A    between atoms: C_2  and  C_7
    2  A    between atoms: C_2  and  C_18
    3  A    between atoms: C_3  and  O_20
    4  A    between atoms: C_6  and  C_27
    5  A    between atoms: C_7  and  C_12
    6  A    between atoms: C_10  and  C_42
    7  A    between atoms: C_11  and  C_27
    8  A    between atoms: C_12  and  C_24
    9  A    between atoms: C_24  and  C_40
   10  A    between atoms: C_27  and  O_41
   11  A    between atoms: N_28  and  C_38
   12  A    between atoms: C_30  and  C_35
   13  A    between atoms: C_35  and  C_36
                            x       y       z     vdW  Elec       q    Type
                         _______ _______ _______ _____ _____    ______ ____

>  <TORSDO>
F 13

$$$$
=
 OpenBabel10232408593D

 46 50  0  0  1  0  0  0  0  0999 V2000
  191.3890  175.2040  138.2050 O   0  0  0  0  0  1  0  0  0  0  0  0
  188.2630  176.3870  136.7230 C   0  0  0  0  0  3  0  0  0  0  0  0
  189.5240  175.9790  136.8470 C   0  0  0  0  0  3  0  0  0  0  0  0
  190.3890  176.1560  138.0300 C   0  0  0  0  0  0  0  0  0  0  0  0
  187.5030  177.0500  137.8250 C   0  0  1  0  0  3  0  0  0  0  0  0
  190.3140  177.1910  138.8990 C   0  0  0  0  0  0  0  0  0  0  0  0
  188.1670  178.3100  138.2690 C   0  0  0  0  0  3  0  0  0  0  0  0
  189.3980  178.3430  138.7680 C   0  0  0  0  0  3  0  0  0  0  0  0
  191.3100  177.2890  140.0080 C   0  0  0  0  0  2  0  0  0  0  0  0
  190.7130  176.7530  141.3040 C   0  0  0  0  0  2  0  0  0  0  0  0
  191.5910  177.1020  142.4980 C   0  0  0  0  0  2  0  0  0  0  0  0
  190.9170  178.1580  143.3620 C   0  0  0  0  0  2  0  0  0  0  0  0
  189.2420  177.3860  145.0880 C   0  0  0  0  0  0  0  0  0  0  0  0
  191.3220  176.7620  146.8620 C   0  0  0  0  0  0  0  0  0  0  0  0
  190.5830  177.6180  144.7170 C   0  0  0  0  0  0  0  0  0  0  0  0
  188.9590  176.8480  146.3520 C   0  0  0  0  0  3  0  0  0  0  0  0
  189.9940  176.5400  147.2360 C   0  0  0  0  0  3  0  0  0  0  0  0
  192.3500  176.4550  147.7400 O   0  0  0  0  0  1  0  0  0  0  0  0
  191.6140  177.2940  145.6050 C   0  0  0  0  0  3  0  0  0  0  0  0
  188.1160  177.7030  144.1350 C   0  0  2  0  0  3  0  0  0  0  0  0
  185.5840  178.0950  144.0370 C   0  0  0  0  0  2  0  0  0  0  0  0
  186.8590  178.1140  144.8490 C   0  0  0  0  0  0  0  0  0  0  0  0
  186.9090  178.4030  146.1700 C   0  0  0  0  0  3  0  0  0  0  0  0
  184.4570  178.1990  146.7120 C   0  0  0  0  0  2  0  0  0  0  0  0
  183.7300  178.8720  145.5480 C   0  0  0  0  0  2  0  0  0  0  0  0
  184.6460  179.2400  144.3770 C   0  0  0  0  0  2  0  0  0  0  0  0
  185.7680  178.9040  147.0260 C   0  0  0  0  0  2  0  0  0  0  0  0
  187.8740  176.6450  143.2510 O   0  0  0  0  0  0  0  0  0  0  0  0
  187.5730  177.2540  142.0340 C   0  0  0  0  0  1  0  0  0  0  0  0
  186.0500  177.3030  137.4240 C   0  0  0  0  0  2  0  0  0  0  0  0
  185.4820  176.1930  136.5820 C   0  0  0  0  0  3  0  0  0  0  0  0
  184.1710  176.0500  136.3600 C   0  0  0  0  0  3  0  0  0  0  0  0
  183.1340  176.9840  136.9260 C   0  0  1  0  0  3  0  0  0  0  0  0
  181.7820  176.4220  137.1090 C   0  0  2  0  0  3  0  0  0  0  0  0
  182.7090  176.5000  138.2500 N   0  0  2  0  0  0  0  0  0  0  0  0
  181.6010  174.9630  136.7070 C   0  0  0  0  0  1  0  0  0  0  0  0
  181.6400  178.9520  137.9420 S   0  0  0  0  0  0  0  0  0  0  0  0
  181.4740  180.1670  139.3050 C   0  0  2  0  0  3  0  0  0  0  0  0
  182.2460  178.6650  141.7900 O   0  0  0  0  0  1  0  0  0  0  0  0
  181.3010  177.2750  140.0760 C   0  0  0  0  0  2  0  0  0  0  0  0
  180.3540  180.6650  141.3800 O   0  0  0  0  0  1  0  0  0  0  0  0
  180.5330  179.6700  140.4160 C   0  0  2  0  0  3  0  0  0  0  0  0
  181.0710  178.3990  141.0830 C   0  0  2  0  0  3  0  0  0  0  0  0
  182.3410  177.6690  139.0340 C   0  0  1  0  0  3  0  0  0  0  0  0
  181.1680  181.4650  138.8420 O   0  0  0  0  0  0  0  0  0  0  0  0
  181.1080  181.4480  137.4400 C   0  0  0  0  0  1  0  0  0  0  0  0
  2  3  2  0  0  0  0
  2  5  1  0  0  0  0
  3  4  1  0  0  0  0
  4  1  1  0  0  0  0
  4  6  2  0  0  0  0
  5 30  1  6  0  0  0
  5  7  1  0  0  0  0
  6  9  1  0  0  0  0
  7  8  2  0  0  0  0
  8  6  1  0  0  0  0
  9 10  1  0  0  0  0
 10 11  1  0  0  0  0
 11 12  1  0  0  0  0
 12 15  1  0  0  0  0
 13 16  1  0  0  0  0
 14 17  1  0  0  0  0
 14 18  1  0  0  0  0
 15 13  2  0  0  0  0
 15 19  1  0  0  0  0
 16 17  2  0  0  0  0
 19 14  2  0  0  0  0
 20 28  1  1  0  0  0
 20 22  1  0  0  0  0
 20 13  1  0  0  0  0
 21 26  1  0  0  0  0
 21 22  1  0  0  0  0
 22 23  2  0  0  0  0
 23 27  1  0  0  0  0
 24 27  1  0  0  0  0
 25 24  1  0  0  0  0
 26 25  1  0  0  0  0
 29 28  1  0  0  0  0
 31 30  1  0  0  0  0
 32 31  2  0  0  0  0
 33 32  1  6  0  0  0
 33 34  1  0  0  0  0
 33 35  1  0  0  0  0
 34 36  1  6  0  0  0
 34 35  1  0  0  0  0
 35 44  1  1  0  0  0
 37 44  1  0  0  0  0
 37 38  1  0  0  0  0
 38 45  1  6  0  0  0
 38 42  1  0  0  0  0
 40 43  1  0  0  0  0
 42 43  1  0  0  0  0
 42 41  1  1  0  0  0
 43 39  1  6  0  0  0
 44 40  1  1  0  0  0
 46 45  1  0  0  0  0
M  END
>  <MODEL>
5

>  <REMARK>
 VINA RESULT:      -8.1      2.965      9.937
  Name = 
  13 active torsions:
  status: ('A' for Active; 'I' for Inactive)
    1  A    between atoms: C_2  and  C_7
    2  A    between atoms: C_2  and  C_18
    3  A    between atoms: C_3  and  O_20
    4  A    between atoms: C_6  and  C_27
    5  A    between atoms: C_7  and  C_12
    6  A    between atoms: C_10  and  C_42
    7  A    between atoms: C_11  and  C_27
    8  A    between atoms: C_12  and  C_24
    9  A    between atoms: C_24  and  C_40
   10  A    between atoms: C_27  and  O_41
   11  A    between atoms: N_28  and  C_38
   12  A    between atoms: C_30  and  C_35
   13  A    between atoms: C_35  and  C_36
                            x       y       z     vdW  Elec       q    Type
                         _______ _______ _______ _____ _____    ______ ____

>  <TORSDO>
F 13

$$$$
=
 OpenBabel10232408593D

 46 50  0  0  1  0  0  0  0  0999 V2000
  182.0300  178.8940  144.3360 O   0  0  0  0  0  1  0  0  0  0  0  0
  185.4760  178.2550  145.3760 C   0  0  0  0  0  3  0  0  0  0  0  0
  184.2750  178.8190  145.2740 C   0  0  0  0  0  3  0  0  0  0  0  0
  183.3960  178.7950  144.0880 C   0  0  0  0  0  0  0  0  0  0  0  0
  186.0960  177.4400  144.2890 C   0  0  1  0  0  3  0  0  0  0  0  0
  183.8240  178.7470  142.8050 C   0  0  0  0  0  0  0  0  0  0  0  0
  186.2610  178.2330  143.0360 C   0  0  0  0  0  3  0  0  0  0  0  0
  185.2390  178.7740  142.3820 C   0  0  0  0  0  3  0  0  0  0  0  0
  182.8240  178.8150  141.6960 C   0  0  0  0  0  2  0  0  0  0  0  0
  183.0480  177.6720  140.7110 C   0  0  0  0  0  2  0  0  0  0  0  0
  183.6930  178.1750  139.4270 C   0  0  0  0  0  2  0  0  0  0  0  0
  183.8060  177.0450  138.4130 C   0  0  0  0  0  2  0  0  0  0  0  0
  184.9400  176.6910  136.1840 C   0  0  0  0  0  0  0  0  0  0  0  0
  187.0440  178.3740  136.9600 C   0  0  0  0  0  0  0  0  0  0  0  0
  184.9410  177.2770  137.4670 C   0  0  0  0  0  0  0  0  0  0  0  0
  186.0010  176.9520  135.3050 C   0  0  0  0  0  3  0  0  0  0  0  0
  187.0500  177.7870  135.6930 C   0  0  0  0  0  3  0  0  0  0  0  0
  188.0850  179.2050  137.3450 O   0  0  0  0  0  1  0  0  0  0  0  0
  185.9900  178.1230  137.8410 C   0  0  0  0  0  3  0  0  0  0  0  0
  183.8050  175.7960  135.7500 C   0  0  2  0  0  3  0  0  0  0  0  0
  182.9010  173.4020  135.9140 C   0  0  0  0  0  2  0  0  0  0  0  0
  184.0770  174.3460  136.0350 C   0  0  0  0  0  0  0  0  0  0  0  0
  185.3410  173.9470  136.3040 C   0  0  0  0  0  3  0  0  0  0  0  0
  185.0770  171.4790  135.8720 C   0  0  0  0  0  2  0  0  0  0  0  0
  183.7340  171.1020  136.4960 C   0  0  0  0  0  2  0  0  0  0  0  0
  182.9110  172.3060  136.9640 C   0  0  0  0  0  2  0  0  0  0  0  0
  185.7830  172.5520  136.6870 C   0  0  0  0  0  2  0  0  0  0  0  0
  183.4750  175.9960  134.4040 O   0  0  0  0  0  0  0  0  0  0  0  0
  182.3970  176.8790  134.4250 C   0  0  0  0  0  1  0  0  0  0  0  0
  187.4250  176.8340  144.7380 C   0  0  0  0  0  2  0  0  0  0  0  0
  187.9520  177.4670  145.9980 C   0  0  0  0  0  3  0  0  0  0  0  0
  189.1000  178.1520  146.0400 C   0  0  0  0  0  3  0  0  0  0  0  0
  189.9780  178.3620  144.8350 C   0  0  1  0  0  3  0  0  0  0  0  0
  191.2810  177.6700  144.8500 C   0  0  2  0  0  3  0  0  0  0  0  0
  190.1430  177.0840  144.1220 N   0  0  2  0  0  0  0  0  0  0  0  0
  191.5780  176.8240  146.0830 C   0  0  0  0  0  1  0  0  0  0  0  0
  192.0190  177.0030  142.1900 S   0  0  0  0  0  0  0  0  0  0  0  0
  191.7640  177.6600  140.4980 C   0  0  2  0  0  3  0  0  0  0  0  0
  188.8500  178.3800  140.3690 O   0  0  0  0  0  1  0  0  0  0  0  0
  189.3340  176.5810  141.8830 C   0  0  0  0  0  2  0  0  0  0  0  0
  190.5680  177.3670  138.4270 O   0  0  0  0  0  1  0  0  0  0  0  0
  190.6570  176.9060  139.7420 C   0  0  2  0  0  3  0  0  0  0  0  0
  189.2980  177.0580  140.4340 C   0  0  2  0  0  3  0  0  0  0  0  0
  190.3150  177.4010  142.7120 C   0  0  1  0  0  3  0  0  0  0  0  0
  192.9690  177.7740  139.7720 O   0  0  0  0  0  0  0  0  0  0  0  0
  193.5690  176.5080  139.6800 C   0  0  0  0  0  1  0  0  0  0  0  0
  3  2  2  0  0  0  0
  4  1  1  0  0  0  0
  4  3  1  0  0  0  0
  5 30  1  1  0  0  0
  5  2  1  0  0  0  0
  6  4  2  0  0  0  0
  7  5  1  0  0  0  0
  8  6  1  0  0  0  0
  8  7  2  0  0  0  0
  9  6  1  0  0  0  0
 10  9  1  0  0  0  0
 11 10  1  0  0  0  0
 12 11  1  0  0  0  0
 13 15  1  0  0  0  0
 14 18  1  0  0  0  0
 14 19  1  0  0  0  0
 15 19  2  0  0  0  0
 15 12  1  0  0  0  0
 16 17  1  0  0  0  0
 16 13  2  0  0  0  0
 17 14  2  0  0  0  0
 20 28  1  6  0  0  0
 20 22  1  0  0  0  0
 20 13  1  0  0  0  0
 21 22  1  0  0  0  0
 21 26  1  0  0  0  0
 22 23  2  0  0  0  0
 23 27  1  0  0  0  0
 24 25  1  0  0  0  0
 24 27  1  0  0  0  0
 25 26  1  0  0  0  0
 28 29  1  0  0  0  0
 30 31  1  0  0  0  0
 31 32  2  0  0  0  0
 33 34  1  0  0  0  0
 33 32  1  1  0  0  0
 34 36  1  1  0  0  0
 35 44  1  6  0  0  0
 35 33  1  0  0  0  0
 35 34  1  0  0  0  0
 37 44  1  0  0  0  0
 38 45  1  6  0  0  0
 38 37  1  0  0  0  0
 42 41  1  6  0  0  0
 42 43  1  0  0  0  0
 42 38  1  0  0  0  0
 43 39  1  1  0  0  0
 43 40  1  0  0  0  0
 44 40  1  6  0  0  0
 46 45  1  0  0  0  0
M  END
>  <MODEL>
6

>  <REMARK>
 VINA RESULT:      -8.0      2.225      4.419
  Name = 
  13 active torsions:
  status: ('A' for Active; 'I' for Inactive)
    1  A    between atoms: C_2  and  C_7
    2  A    between atoms: C_2  and  C_18
    3  A    between atoms: C_3  and  O_20
    4  A    between atoms: C_6  and  C_27
    5  A    between atoms: C_7  and  C_12
    6  A    between atoms: C_10  and  C_42
    7  A    between atoms: C_11  and  C_27
    8  A    between atoms: C_12  and  C_24
    9  A    between atoms: C_24  and  C_40
   10  A    between atoms: C_27  and  O_41
   11  A    between atoms: N_28  and  C_38
   12  A    between atoms: C_30  and  C_35
   13  A    between atoms: C_35  and  C_36
                            x       y       z     vdW  Elec       q    Type
                         _______ _______ _______ _____ _____    ______ ____

>  <TORSDO>
F 13

$$$$
=
 OpenBabel10232408593D

 46 50  0  0  1  0  0  0  0  0999 V2000
  187.2890  177.2910  145.1710 O   0  0  0  0  0  1  0  0  0  0  0  0
  189.9400  177.5570  142.6680 C   0  0  0  0  0  3  0  0  0  0  0  0
  189.2370  177.7400  143.7840 C   0  0  0  0  0  3  0  0  0  0  0  0
  187.7700  177.6520  143.9160 C   0  0  0  0  0  0  0  0  0  0  0  0
  189.3260  177.1640  141.3650 C   0  0  1  0  0  3  0  0  0  0  0  0
  186.8820  177.9540  142.9400 C   0  0  0  0  0  0  0  0  0  0  0  0
  188.3230  178.1700  140.9070 C   0  0  0  0  0  3  0  0  0  0  0  0
  187.2360  178.4790  141.6050 C   0  0  0  0  0  3  0  0  0  0  0  0
  185.4190  177.9020  143.2390 C   0  0  0  0  0  2  0  0  0  0  0  0
  184.6940  179.0420  142.5320 C   0  0  0  0  0  2  0  0  0  0  0  0
  183.3180  178.6020  142.0530 C   0  0  0  0  0  2  0  0  0  0  0  0
  183.4390  177.7630  140.7880 C   0  0  0  0  0  2  0  0  0  0  0  0
  182.8550  177.8810  138.3330 C   0  0  0  0  0  0  0  0  0  0  0  0
  181.2940  180.1650  138.7900 C   0  0  0  0  0  0  0  0  0  0  0  0
  182.7540  178.4210  139.6330 C   0  0  0  0  0  0  0  0  0  0  0  0
  182.1750  178.4990  137.2740 C   0  0  0  0  0  3  0  0  0  0  0  0
  181.4000  179.6380  137.5010 C   0  0  0  0  0  3  0  0  0  0  0  0
  180.5230  181.2950  139.0160 O   0  0  0  0  0  1  0  0  0  0  0  0
  181.9640  179.5540  139.8530 C   0  0  0  0  0  3  0  0  0  0  0  0
  183.6800  176.6430  138.0790 C   0  0  2  0  0  3  0  0  0  0  0  0
  185.3960  176.1070  136.2510 C   0  0  0  0  0  2  0  0  0  0  0  0
  185.0020  176.9570  137.4380 C   0  0  0  0  0  0  0  0  0  0  0  0
  185.7270  178.0060  137.8890 C   0  0  0  0  0  3  0  0  0  0  0  0
  187.2530  178.3130  135.9080 C   0  0  0  0  0  2  0  0  0  0  0  0
  187.6560  176.9000  135.4870 C   0  0  0  0  0  2  0  0  0  0  0  0
  186.8810  175.7950  136.2110 C   0  0  0  0  0  2  0  0  0  0  0  0
  187.1040  178.4190  137.4180 C   0  0  0  0  0  2  0  0  0  0  0  0
  182.9690  175.6920  137.3370 O   0  0  0  0  0  0  0  0  0  0  0  0
  182.1270  175.0730  138.2590 C   0  0  0  0  0  1  0  0  0  0  0  0
  190.3920  176.9220  140.2980 C   0  0  0  0  0  2  0  0  0  0  0  0
  189.8720  177.1390  138.9020 C   0  0  0  0  0  3  0  0  0  0  0  0
  190.5720  176.8180  137.8090 C   0  0  0  0  0  3  0  0  0  0  0  0
  191.9470  176.2070  137.8630 C   0  0  1  0  0  3  0  0  0  0  0  0
  192.0450  174.7880  137.4680 C   0  0  2  0  0  3  0  0  0  0  0  0
  192.3770  175.8470  136.5010 N   0  0  2  0  0  0  0  0  0  0  0  0
  190.7430  174.1160  137.0510 C   0  0  0  0  0  1  0  0  0  0  0  0
  194.5910  174.5190  137.2690 S   0  0  0  0  0  0  0  0  0  0  0  0
  196.2900  175.1820  137.0820 C   0  0  2  0  0  3  0  0  0  0  0  0
  195.9760  177.6950  135.4660 O   0  0  0  0  0  1  0  0  0  0  0  0
  194.2940  176.0410  135.0160 C   0  0  0  0  0  2  0  0  0  0  0  0
  198.0070  175.7920  135.5060 O   0  0  0  0  0  1  0  0  0  0  0  0
  196.6740  175.3880  135.6070 C   0  0  2  0  0  3  0  0  0  0  0  0
  195.7700  176.4220  134.9280 C   0  0  2  0  0  3  0  0  0  0  0  0
  193.8260  175.9690  136.4650 C   0  0  1  0  0  3  0  0  0  0  0  0
  197.2440  174.4470  137.8180 O   0  0  0  0  0  0  0  0  0  0  0  0
  196.9730  173.0770  137.6790 C   0  0  0  0  0  1  0  0  0  0  0  0
  2  3  2  0  0  0  0
  3  4  1  0  0  0  0
  4  1  1  0  0  0  0
  5 30  1  6  0  0  0
  5  2  1  0  0  0  0
  6  9  1  0  0  0  0
  6  4  2  0  0  0  0
  7  5  1  0  0  0  0
  7  8  2  0  0  0  0
  8  6  1  0  0  0  0
 10  9  1  0  0  0  0
 11 10  1  0  0  0  0
 12 11  1  0  0  0  0
 13 15  1  0  0  0  0
 14 18  1  0  0  0  0
 14 19  1  0  0  0  0
 15 19  2  0  0  0  0
 15 12  1  0  0  0  0
 16 17  1  0  0  0  0
 16 13  2  0  0  0  0
 17 14  2  0  0  0  0
 20 28  1  6  0  0  0
 20 13  1  0  0  0  0
 21 22  1  0  0  0  0
 22 23  2  0  0  0  0
 22 20  1  0  0  0  0
 24 27  1  0  0  0  0
 25 24  1  0  0  0  0
 25 26  1  0  0  0  0
 26 21  1  0  0  0  0
 27 23  1  0  0  0  0
 28 29  1  0  0  0  0
 31 30  1  0  0  0  0
 32 31  2  0  0  0  0
 33 32  1  6  0  0  0
 34 36  1  6  0  0  0
 34 33  1  0  0  0  0
 35 44  1  1  0  0  0
 35 34  1  0  0  0  0
 35 33  1  0  0  0  0
 38 37  1  0  0  0  0
 38 45  1  6  0  0  0
 42 41  1  1  0  0  0
 42 38  1  0  0  0  0
 43 40  1  0  0  0  0
 43 39  1  1  0  0  0
 43 42  1  0  0  0  0
 44 40  1  6  0  0  0
 44 37  1  0  0  0  0
 46 45  1  0  0  0  0
M  END
>  <MODEL>
7

>  <REMARK>
 VINA RESULT:      -7.9      3.625      7.466
  Name = 
  13 active torsions:
  status: ('A' for Active; 'I' for Inactive)
    1  A    between atoms: C_2  and  C_7
    2  A    between atoms: C_2  and  C_18
    3  A    between atoms: C_3  and  O_20
    4  A    between atoms: C_6  and  C_27
    5  A    between atoms: C_7  and  C_12
    6  A    between atoms: C_10  and  C_42
    7  A    between atoms: C_11  and  C_27
    8  A    between atoms: C_12  and  C_24
    9  A    between atoms: C_24  and  C_40
   10  A    between atoms: C_27  and  O_41
   11  A    between atoms: N_28  and  C_38
   12  A    between atoms: C_30  and  C_35
   13  A    between atoms: C_35  and  C_36
                            x       y       z     vdW  Elec       q    Type
                         _______ _______ _______ _____ _____    ______ ____

>  <TORSDO>
F 13

$$$$
=
 OpenBabel10232408593D

 46 50  0  0  1  0  0  0  0  0999 V2000
  180.8700  177.0530  140.6810 O   0  0  0  0  0  1  0  0  0  0  0  0
  183.7700  178.8290  142.0190 C   0  0  0  0  0  3  0  0  0  0  0  0
  182.5100  178.4860  141.7670 C   0  0  0  0  0  3  0  0  0  0  0  0
  182.0090  177.8380  140.5380 C   0  0  0  0  0  0  0  0  0  0  0  0
  184.9020  178.5420  141.0890 C   0  0  1  0  0  3  0  0  0  0  0  0
  182.5370  178.0030  139.3030 C   0  0  0  0  0  0  0  0  0  0  0  0
  184.6950  179.1840  139.7570 C   0  0  0  0  0  3  0  0  0  0  0  0
  183.6590  178.9060  138.9740 C   0  0  0  0  0  3  0  0  0  0  0  0
  181.8760  177.3510  138.1310 C   0  0  0  0  0  2  0  0  0  0  0  0
  182.5310  177.8090  136.8330 C   0  0  0  0  0  2  0  0  0  0  0  0
  182.9560  176.6180  135.9850 C   0  0  0  0  0  2  0  0  0  0  0  0
  184.4730  176.5720  135.8580 C   0  0  0  0  0  2  0  0  0  0  0  0
  186.3690  175.2030  136.8130 C   0  0  0  0  0  0  0  0  0  0  0  0
  184.6710  172.9850  137.0640 C   0  0  0  0  0  0  0  0  0  0  0  0
  185.0230  175.2900  136.3970 C   0  0  0  0  0  0  0  0  0  0  0  0
  186.8500  173.9980  137.3450 C   0  0  0  0  0  3  0  0  0  0  0  0
  186.0050  172.8930  137.4680 C   0  0  0  0  0  3  0  0  0  0  0  0
  183.8320  171.8880  137.1880 O   0  0  0  0  0  1  0  0  0  0  0  0
  184.1810  174.1810  136.5370 C   0  0  0  0  0  3  0  0  0  0  0  0
  187.2860  176.3940  136.6960 C   0  0  2  0  0  3  0  0  0  0  0  0
  189.3480  176.1470  138.2010 C   0  0  0  0  0  2  0  0  0  0  0  0
  188.7350  176.0170  136.8240 C   0  0  0  0  0  0  0  0  0  0  0  0
  189.3900  175.5180  135.7510 C   0  0  0  0  0  3  0  0  0  0  0  0
  191.3450  174.4600  136.9360 C   0  0  0  0  0  2  0  0  0  0  0  0
  191.7610  175.4690  138.0060 C   0  0  0  0  0  2  0  0  0  0  0  0
  190.7840  176.6370  138.1660 C   0  0  0  0  0  2  0  0  0  0  0  0
  190.8570  175.1600  135.6770 C   0  0  0  0  0  2  0  0  0  0  0  0
  186.9420  177.4020  137.6050 O   0  0  0  0  0  0  0  0  0  0  0  0
  187.1110  178.5930  136.9020 C   0  0  0  0  0  1  0  0  0  0  0  0
  186.2420  178.9550  141.6980 C   0  0  0  0  0  2  0  0  0  0  0  0
  187.4170  178.4210  140.9240 C   0  0  0  0  0  3  0  0  0  0  0  0
  188.3480  177.6330  141.4720 C   0  0  0  0  0  3  0  0  0  0  0  0
  188.3140  177.1990  142.9140 C   0  0  1  0  0  3  0  0  0  0  0  0
  189.4730  176.4160  143.3860 C   0  0  2  0  0  3  0  0  0  0  0  0
  189.4030  177.8630  143.6500 N   0  0  2  0  0  0  0  0  0  0  0  0
  190.5640  176.1460  142.3580 C   0  0  0  0  0  1  0  0  0  0  0  0
  187.1250  177.9450  145.0860 S   0  0  0  0  0  0  0  0  0  0  0  0
  187.0670  178.3240  146.8790 C   0  0  2  0  0  3  0  0  0  0  0  0
  189.9390  178.3940  147.7570 O   0  0  0  0  0  1  0  0  0  0  0  0
  189.5340  176.9330  145.8950 C   0  0  0  0  0  2  0  0  0  0  0  0
  187.6440  177.5380  149.0820 O   0  0  0  0  0  1  0  0  0  0  0  0
  187.8030  177.2680  147.7200 C   0  0  2  0  0  3  0  0  0  0  0  0
  189.2950  177.2130  147.3760 C   0  0  2  0  0  3  0  0  0  0  0  0
  188.9470  178.0360  145.0210 C   0  0  1  0  0  3  0  0  0  0  0  0
  185.7590  178.6000  147.3330 O   0  0  0  0  0  0  0  0  0  0  0  0
  184.8570  178.4140  146.2740 C   0  0  0  0  0  1  0  0  0  0  0  0
  3  2  2  0  0  0  0
  4  1  1  0  0  0  0
  4  3  1  0  0  0  0
  5 30  1  1  0  0  0
  5  2  1  0  0  0  0
  6  4  2  0  0  0  0
  7  5  1  0  0  0  0
  8  6  1  0  0  0  0
  8  7  2  0  0  0  0
  9  6  1  0  0  0  0
 10  9  1  0  0  0  0
 11 10  1  0  0  0  0
 12 11  1  0  0  0  0
 12 15  1  0  0  0  0
 13 16  1  0  0  0  0
 14 18  1  0  0  0  0
 14 17  1  0  0  0  0
 15 19  1  0  0  0  0
 15 13  2  0  0  0  0
 16 17  2  0  0  0  0
 19 14  2  0  0  0  0
 20 13  1  0  0  0  0
 20 22  1  0  0  0  0
 20 28  1  1  0  0  0
 22 21  1  0  0  0  0
 23 22  2  0  0  0  0
 24 25  1  0  0  0  0
 25 26  1  0  0  0  0
 26 21  1  0  0  0  0
 27 23  1  0  0  0  0
 27 24  1  0  0  0  0
 29 28  1  0  0  0  0
 31 32  2  0  0  0  0
 31 30  1  0  0  0  0
 33 32  1  6  0  0  0
 33 34  1  0  0  0  0
 33 35  1  0  0  0  0
 34 36  1  6  0  0  0
 34 35  1  0  0  0  0
 35 44  1  1  0  0  0
 37 38  1  0  0  0  0
 38 45  1  1  0  0  0
 38 42  1  0  0  0  0
 40 43  1  0  0  0  0
 42 41  1  1  0  0  0
 43 42  1  0  0  0  0
 43 39  1  6  0  0  0
 44 37  1  0  0  0  0
 44 40  1  1  0  0  0
 46 45  1  0  0  0  0
M  END
>  <MODEL>
8

>  <REMARK>
 VINA RESULT:      -7.9      2.032      3.318
  Name = 
  13 active torsions:
  status: ('A' for Active; 'I' for Inactive)
    1  A    between atoms: C_2  and  C_7
    2  A    between atoms: C_2  and  C_18
    3  A    between atoms: C_3  and  O_20
    4  A    between atoms: C_6  and  C_27
    5  A    between atoms: C_7  and  C_12
    6  A    between atoms: C_10  and  C_42
    7  A    between atoms: C_11  and  C_27
    8  A    between atoms: C_12  and  C_24
    9  A    between atoms: C_24  and  C_40
   10  A    between atoms: C_27  and  O_41
   11  A    between atoms: N_28  and  C_38
   12  A    between atoms: C_30  and  C_35
   13  A    between atoms: C_35  and  C_36
                            x       y       z     vdW  Elec       q    Type
                         _______ _______ _______ _____ _____    ______ ____

>  <TORSDO>
F 13

$$$$
=
 OpenBabel10232408593D

 46 50  0  0  1  0  0  0  0  0999 V2000
  189.6930  177.9030  146.8270 O   0  0  0  0  0  1  0  0  0  0  0  0
  186.2550  177.8390  145.5870 C   0  0  0  0  0  3  0  0  0  0  0  0
  187.3220  177.6300  146.3550 C   0  0  0  0  0  3  0  0  0  0  0  0
  188.7230  177.5360  145.9000 C   0  0  0  0  0  0  0  0  0  0  0  0
  186.3380  178.0770  144.1150 C   0  0  1  0  0  3  0  0  0  0  0  0
  189.1170  177.0690  144.6920 C   0  0  0  0  0  0  0  0  0  0  0  0
  186.9760  176.9270  143.4080 C   0  0  0  0  0  3  0  0  0  0  0  0
  188.2150  176.5210  143.6590 C   0  0  0  0  0  3  0  0  0  0  0  0
  190.5770  176.9500  144.3950 C   0  0  0  0  0  2  0  0  0  0  0  0
  190.7880  176.4880  142.9580 C   0  0  0  0  0  2  0  0  0  0  0  0
  190.9090  177.6740  142.0120 C   0  0  0  0  0  2  0  0  0  0  0  0
  191.0410  177.1950  140.5730 C   0  0  0  0  0  2  0  0  0  0  0  0
  189.8140  177.3670  138.3720 C   0  0  0  0  0  0  0  0  0  0  0  0
  187.5260  178.3050  139.6950 C   0  0  0  0  0  0  0  0  0  0  0  0
  189.8270  177.5440  139.7720 C   0  0  0  0  0  0  0  0  0  0  0  0
  188.6500  177.6710  137.6490 C   0  0  0  0  0  3  0  0  0  0  0  0
  187.5120  178.1400  138.3080 C   0  0  0  0  0  3  0  0  0  0  0  0
  186.3950  178.7700  140.3490 O   0  0  0  0  0  1  0  0  0  0  0  0
  188.6770  178.0020  140.4240 C   0  0  0  0  0  3  0  0  0  0  0  0
  191.0340  176.8490  137.6520 C   0  0  2  0  0  3  0  0  0  0  0  0
  190.7770  174.3250  137.2780 C   0  0  0  0  0  2  0  0  0  0  0  0
  190.7080  175.7250  136.7090 C   0  0  0  0  0  0  0  0  0  0  0  0
  190.3060  176.0090  135.4500 C   0  0  0  0  0  3  0  0  0  0  0  0
  189.2560  173.7960  134.8610 C   0  0  0  0  0  2  0  0  0  0  0  0
  190.2110  172.7370  135.4120 C   0  0  0  0  0  2  0  0  0  0  0  0
  191.3270  173.3100  136.2920 C   0  0  0  0  0  2  0  0  0  0  0  0
  190.0140  175.0120  134.3510 C   0  0  0  0  0  2  0  0  0  0  0  0
  192.0450  176.4830  138.5480 O   0  0  0  0  0  0  0  0  0  0  0  0
  193.2230  176.5450  137.8060 C   0  0  0  0  0  1  0  0  0  0  0  0
  184.9640  178.3930  143.5250 C   0  0  0  0  0  2  0  0  0  0  0  0
  184.0620  179.0940  144.5050 C   0  0  0  0  0  3  0  0  0  0  0  0
  182.7300  179.0970  144.3910 C   0  0  0  0  0  3  0  0  0  0  0  0
  181.9990  178.4010  143.2740 C   0  0  1  0  0  3  0  0  0  0  0  0
  180.5550  178.6870  143.1630 C   0  0  2  0  0  3  0  0  0  0  0  0
  181.5170  179.4000  142.3070 N   0  0  2  0  0  0  0  0  0  0  0  0
  179.9820  179.6550  144.1900 C   0  0  0  0  0  1  0  0  0  0  0  0
  181.0020  179.9610  139.7230 S   0  0  0  0  0  0  0  0  0  0  0  0
  181.0170  178.7050  138.3880 C   0  0  2  0  0  3  0  0  0  0  0  0
  182.0830  176.2080  139.6740 O   0  0  0  0  0  1  0  0  0  0  0  0
  182.8950  178.2330  140.6760 C   0  0  0  0  0  2  0  0  0  0  0  0
  182.4010  177.2130  137.0980 O   0  0  0  0  0  1  0  0  0  0  0  0
  182.4100  178.0840  138.1900 C   0  0  2  0  0  3  0  0  0  0  0  0
  182.8760  177.3350  139.4420 C   0  0  2  0  0  3  0  0  0  0  0  0
  181.5010  178.7580  141.0010 C   0  0  1  0  0  3  0  0  0  0  0  0
  180.4310  179.1760  137.1920 O   0  0  0  0  0  0  0  0  0  0  0  0
  181.0300  180.3950  136.8390 C   0  0  0  0  0  1  0  0  0  0  0  0
  2  3  2  0  0  0  0
  4  3  1  0  0  0  0
  4  1  1  0  0  0  0
  5 30  1  6  0  0  0
  5  2  1  0  0  0  0
  6  4  2  0  0  0  0
  7  8  2  0  0  0  0
  7  5  1  0  0  0  0
  8  6  1  0  0  0  0
  9  6  1  0  0  0  0
 10  9  1  0  0  0  0
 11 10  1  0  0  0  0
 12 11  1  0  0  0  0
 13 15  1  0  0  0  0
 14 18  1  0  0  0  0
 14 19  1  0  0  0  0
 15 19  2  0  0  0  0
 15 12  1  0  0  0  0
 16 17  1  0  0  0  0
 16 13  2  0  0  0  0
 17 14  2  0  0  0  0
 20 13  1  0  0  0  0
 20 28  1  1  0  0  0
 22 21  1  0  0  0  0
 22 20  1  0  0  0  0
 23 22  2  0  0  0  0
 24 25  1  0  0  0  0
 25 26  1  0  0  0  0
 26 21  1  0  0  0  0
 27 24  1  0  0  0  0
 27 23  1  0  0  0  0
 29 28  1  0  0  0  0
 30 31  1  0  0  0  0
 32 31  2  0  0  0  0
 33 32  1  1  0  0  0
 34 33  1  0  0  0  0
 34 36  1  1  0  0  0
 35 44  1  6  0  0  0
 35 34  1  0  0  0  0
 35 33  1  0  0  0  0
 37 44  1  0  0  0  0
 38 45  1  6  0  0  0
 38 37  1  0  0  0  0
 42 41  1  6  0  0  0
 42 38  1  0  0  0  0
 42 43  1  0  0  0  0
 43 39  1  1  0  0  0
 43 40  1  0  0  0  0
 44 40  1  6  0  0  0
 46 45  1  0  0  0  0
M  END
>  <MODEL>
9

>  <REMARK>
 VINA RESULT:      -7.7      2.801      6.781
  Name = 
  13 active torsions:
  status: ('A' for Active; 'I' for Inactive)
    1  A    between atoms: C_2  and  C_7
    2  A    between atoms: C_2  and  C_18
    3  A    between atoms: C_3  and  O_20
    4  A    between atoms: C_6  and  C_27
    5  A    between atoms: C_7  and  C_12
    6  A    between atoms: C_10  and  C_42
    7  A    between atoms: C_11  and  C_27
    8  A    between atoms: C_12  and  C_24
    9  A    between atoms: C_24  and  C_40
   10  A    between atoms: C_27  and  O_41
   11  A    between atoms: N_28  and  C_38
   12  A    between atoms: C_30  and  C_35
   13  A    between atoms: C_35  and  C_36
                            x       y       z     vdW  Elec       q    Type
                         _______ _______ _______ _____ _____    ______ ____

>  <TORSDO>
F 13

$$$$
