=
 OpenBabel10222421443D

 31 35  0  0  1  0  0  0  0  0999 V2000
  186.8860  177.3500  134.7460 C   0  0  0  0  0  2  0  0  0  0  0  0
  189.0160  174.7590  137.6650 C   0  0  0  0  0  3  0  0  0  0  0  0
  189.4490  173.7730  136.7770 C   0  0  0  0  0  0  0  0  0  0  0  0
  192.9800  174.7730  136.4400 N   0  0  0  0  0  0  0  0  0  0  0  0
  187.1750  172.4920  136.6990 C   0  0  1  0  0  3  0  0  0  0  0  0
  187.3130  177.0530  136.1730 C   0  0  2  0  0  0  0  0  0  0  0  0
  185.0760  173.2610  137.7480 N   0  0  0  0  0  1  0  0  0  0  0  0
  188.5090  172.8520  136.1990 N   0  0  0  0  0  2  0  0  0  0  0  0
  189.8590  175.7690  138.1090 C   0  0  0  0  0  0  0  0  0  0  0  0
  190.7890  173.7790  136.3480 C   0  0  0  0  0  0  0  0  0  0  0  0
  193.8380  175.7280  136.8800 C   0  0  0  0  0  0  0  0  0  0  0  0
  191.2680  172.7440  135.3800 C   0  0  0  0  0  1  0  0  0  0  0  0
  195.1950  175.7140  136.4530 N   0  0  0  0  0  1  0  0  0  0  0  0
  191.6760  174.7600  136.8330 C   0  0  0  0  0  0  0  0  0  0  0  0
  192.1130  176.7370  138.1430 C   0  0  0  0  0  3  0  0  0  0  0  0
  186.3700  173.6870  137.2390 C   0  0  2  0  0  3  0  0  0  0  0  0
  191.2080  175.7610  137.7150 C   0  0  0  0  0  0  0  0  0  0  0  0
  193.4030  176.7020  137.7230 N   0  0  0  0  0  0  0  0  0  0  0  0
  186.4800  176.0980  136.9400 N   0  0  0  0  0  0  0  0  0  0  0  0
  189.3640  177.3850  134.9130 C   0  0  0  0  0  2  0  0  0  0  0  0
  188.1420  178.1010  136.9120 C   0  0  2  0  0  3  0  0  0  0  0  0
  189.5630  176.9480  140.1280 O   0  0  0  0  0  0  0  0  0  0  0  0
  186.2020  174.8320  136.2500 C   0  0  0  0  0  2  0  0  0  0  0  0
  189.4650  178.2290  136.1760 C   0  0  0  0  0  2  0  0  0  0  0  0
  188.3510  177.8060  138.3350 N   0  0  0  0  0  2  0  0  0  0  0  0
  188.1280  176.5060  135.0150 C   0  0  2  0  0  3  0  0  0  0  0  0
  189.2670  176.8560  138.9080 C   0  0  0  0  0  0  0  0  0  0  0  0
  187.2310  171.6650  134.3460 C   0  0  0  0  0  1  0  0  0  0  0  0
  186.4080  171.7440  135.6170 C   0  0  0  0  0  2  0  0  0  0  0  0
  185.2240  176.7270  137.3620 C   0  0  0  0  0  2  0  0  0  0  0  0
  184.1560  176.3340  136.5470 O   0  0  0  0  0  1  0  0  0  0  0  0
  2  9  1  0  0  0  0
  3  2  2  0  0  0  0
  4 14  1  0  0  0  0
  4 11  2  0  0  0  0
  5 29  1  6  0  0  0
  5 16  1  0  0  0  0
  6  1  1  6  0  0  0
  6 21  1  0  0  0  0
  6 19  1  0  0  0  0
  8  5  1  0  0  0  0
  8  3  1  0  0  0  0
  9 27  1  0  0  0  0
 10  3  1  0  0  0  0
 10 14  2  0  0  0  0
 11 18  1  0  0  0  0
 12 10  1  0  0  0  0
 13 11  1  0  0  0  0
 14 17  1  0  0  0  0
 16  7  1  6  0  0  0
 17  9  2  0  0  0  0
 17 15  1  0  0  0  0
 18 15  2  0  0  0  0
 19 30  1  0  0  0  0
 20 26  1  0  0  0  0
 20 24  1  0  0  0  0
 21 24  1  6  0  0  0
 21 25  1  0  0  0  0
 23 19  1  0  0  0  0
 23 16  1  0  0  0  0
 25 27  1  0  0  0  0
 26  1  1  6  0  0  0
 26  6  1  0  0  0  0
 27 22  2  0  0  0  0
 28 29  1  0  0  0  0
 31 30  1  0  0  0  0
M  END
>  <MODEL>
1

>  <REMARK>
 VINA RESULT:      -5.8      0.000      0.000
  Name = 
  2 active torsions:
  status: ('A' for Active; 'I' for Inactive)
    1  A    between atoms: C_5  and  C_23
    2  A    between atoms: N_20  and  C_27
                            x       y       z     vdW  Elec       q    Type
                         _______ _______ _______ _____ _____    ______ ____

>  <TORSDO>
F 2

$$$$
=
 OpenBabel10222421443D

 31 35  0  0  1  0  0  0  0  0999 V2000
  185.9750  177.9350  134.5350 C   0  0  0  0  0  2  0  0  0  0  0  0
  187.6360  175.2410  137.6590 C   0  0  0  0  0  3  0  0  0  0  0  0
  187.8420  174.1150  136.8610 C   0  0  0  0  0  0  0  0  0  0  0  0
  191.4900  174.3640  136.3990 N   0  0  0  0  0  0  0  0  0  0  0  0
  185.3600  173.3070  136.9230 C   0  0  1  0  0  3  0  0  0  0  0  0
  186.3740  177.6860  135.9780 C   0  0  2  0  0  0  0  0  0  0  0  0
  183.4820  174.5660  137.9170 N   0  0  0  0  0  1  0  0  0  0  0  0
  186.7250  173.3510  136.3780 N   0  0  0  0  0  2  0  0  0  0  0  0
  188.6720  176.1010  138.0000 C   0  0  0  0  0  0  0  0  0  0  0  0
  189.1450  173.8180  136.4200 C   0  0  0  0  0  0  0  0  0  0  0  0
  192.5300  175.1660  136.7410 C   0  0  0  0  0  0  0  0  0  0  0  0
  189.3850  172.6280  135.5470 C   0  0  0  0  0  1  0  0  0  0  0  0
  193.8460  174.8460  136.3050 N   0  0  0  0  0  1  0  0  0  0  0  0
  190.2200  174.6440  136.8050 C   0  0  0  0  0  0  0  0  0  0  0  0
  191.0720  176.6030  137.9230 C   0  0  0  0  0  3  0  0  0  0  0  0
  184.8200  174.6810  137.3580 C   0  0  2  0  0  3  0  0  0  0  0  0
  189.9820  175.7910  137.5950 C   0  0  0  0  0  0  0  0  0  0  0  0
  192.3180  176.2760  137.4950 N   0  0  0  0  0  0  0  0  0  0  0  0
  185.3920  176.9870  136.8380 N   0  0  0  0  0  0  0  0  0  0  0  0
  188.4160  177.4940  134.6740 C   0  0  0  0  0  2  0  0  0  0  0  0
  187.4130  178.6110  136.6090 C   0  0  2  0  0  3  0  0  0  0  0  0
  188.6680  177.4880  139.9050 O   0  0  0  0  0  0  0  0  0  0  0  0
  184.8520  175.7440  136.2700 C   0  0  0  0  0  2  0  0  0  0  0  0
  188.7140  178.4090  135.8530 C   0  0  0  0  0  2  0  0  0  0  0  0
  187.5990  178.4070  138.0520 N   0  0  0  0  0  2  0  0  0  0  0  0
  187.0340  176.8890  134.8680 C   0  0  2  0  0  3  0  0  0  0  0  0
  188.3270  177.3490  138.7010 C   0  0  0  0  0  0  0  0  0  0  0  0
  184.8360  171.1850  135.7190 C   0  0  0  0  0  1  0  0  0  0  0  0
  184.4320  172.6330  135.9220 C   0  0  0  0  0  2  0  0  0  0  0  0
  184.2950  177.8860  137.2120 C   0  0  0  0  0  2  0  0  0  0  0  0
  184.4730  178.4000  138.5010 O   0  0  0  0  0  1  0  0  0  0  0  0
  2  9  1  0  0  0  0
  3  2  2  0  0  0  0
  4 11  2  0  0  0  0
  4 14  1  0  0  0  0
  5 29  1  6  0  0  0
  5 16  1  0  0  0  0
  6  1  1  6  0  0  0
  6 21  1  0  0  0  0
  6 19  1  0  0  0  0
  8  3  1  0  0  0  0
  8  5  1  0  0  0  0
  9 27  1  0  0  0  0
 10 14  2  0  0  0  0
 10  3  1  0  0  0  0
 11 18  1  0  0  0  0
 12 10  1  0  0  0  0
 13 11  1  0  0  0  0
 14 17  1  0  0  0  0
 16  7  1  6  0  0  0
 17 15  1  0  0  0  0
 17  9  2  0  0  0  0
 18 15  2  0  0  0  0
 19 30  1  0  0  0  0
 20 26  1  0  0  0  0
 20 24  1  0  0  0  0
 21 24  1  6  0  0  0
 21 25  1  0  0  0  0
 23 19  1  0  0  0  0
 23 16  1  0  0  0  0
 25 27  1  0  0  0  0
 26  1  1  6  0  0  0
 26  6  1  0  0  0  0
 27 22  2  0  0  0  0
 28 29  1  0  0  0  0
 30 31  1  0  0  0  0
M  END
>  <MODEL>
2

>  <REMARK>
 VINA RESULT:      -4.8      1.421      1.592
  Name = 
  2 active torsions:
  status: ('A' for Active; 'I' for Inactive)
    1  A    between atoms: C_5  and  C_23
    2  A    between atoms: N_20  and  C_27
                            x       y       z     vdW  Elec       q    Type
                         _______ _______ _______ _____ _____    ______ ____

>  <TORSDO>
F 2

$$$$
=
 OpenBabel10222421443D

 31 35  0  0  1  0  0  0  0  0999 V2000
  186.5360  173.9520  136.9020 C   0  0  0  0  0  2  0  0  0  0  0  0
  189.1630  177.4930  137.4710 C   0  0  0  0  0  3  0  0  0  0  0  0
  189.3830  177.3600  138.8430 C   0  0  0  0  0  0  0  0  0  0  0  0
  192.7900  175.9570  138.7760 N   0  0  0  0  0  0  0  0  0  0  0  0
  187.1140  178.4330  139.5630 C   0  0  1  0  0  3  0  0  0  0  0  0
  187.2400  175.1700  136.3320 C   0  0  2  0  0  0  0  0  0  0  0  0
  185.2930  179.0710  138.0220 N   0  0  0  0  0  1  0  0  0  0  0  0
  188.3240  177.6270  139.7780 N   0  0  0  0  0  2  0  0  0  0  0  0
  190.1020  177.0820  136.5330 C   0  0  0  0  0  0  0  0  0  0  0  0
  190.6060  176.8280  139.2930 C   0  0  0  0  0  0  0  0  0  0  0  0
  193.7410  175.5740  137.8860 C   0  0  0  0  0  0  0  0  0  0  0  0
  190.8520  176.6570  140.7580 C   0  0  0  0  0  1  0  0  0  0  0  0
  194.9800  175.0550  138.3520 N   0  0  0  0  0  1  0  0  0  0  0  0
  191.5950  176.4600  138.3590 C   0  0  0  0  0  0  0  0  0  0  0  0
  192.3350  176.1720  136.0820 C   0  0  0  0  0  3  0  0  0  0  0  0
  186.4630  178.2230  138.1850 C   0  0  2  0  0  3  0  0  0  0  0  0
  191.3400  176.5850  136.9740 C   0  0  0  0  0  0  0  0  0  0  0  0
  193.5100  175.6810  136.5510 N   0  0  0  0  0  0  0  0  0  0  0  0
  186.5620  176.4770  136.4950 N   0  0  0  0  0  0  0  0  0  0  0  0
  188.9960  173.6920  137.1320 C   0  0  0  0  0  2  0  0  0  0  0  0
  188.2260  174.9640  135.1850 C   0  0  2  0  0  3  0  0  0  0  0  0
  190.2530  177.9440  134.3460 O   0  0  0  0  0  0  0  0  0  0  0  0
  186.1210  176.7760  137.8640 C   0  0  0  0  0  2  0  0  0  0  0  0
  189.3720  174.1230  135.7220 C   0  0  0  0  0  2  0  0  0  0  0  0
  188.7170  176.2110  134.5850 N   0  0  0  0  0  2  0  0  0  0  0  0
  187.7870  174.5000  137.5800 C   0  0  2  0  0  3  0  0  0  0  0  0
  189.7110  177.1070  135.1140 C   0  0  0  0  0  0  0  0  0  0  0  0
  186.8340  178.2090  142.0330 C   0  0  0  0  0  1  0  0  0  0  0  0
  186.1240  178.1800  140.6930 C   0  0  0  0  0  2  0  0  0  0  0  0
  185.4340  176.5950  135.5650 C   0  0  0  0  0  2  0  0  0  0  0  0
  184.2100  176.4280  136.2230 O   0  0  0  0  0  1  0  0  0  0  0  0
  2  3  1  0  0  0  0
  3 10  2  0  0  0  0
  3  8  1  0  0  0  0
  5  8  1  0  0  0  0
  5 29  1  1  0  0  0
  6 19  1  0  0  0  0
  6  1  1  6  0  0  0
  6 26  1  0  0  0  0
  9 17  1  0  0  0  0
  9  2  2  0  0  0  0
 10 12  1  0  0  0  0
 11 13  1  0  0  0  0
 11  4  2  0  0  0  0
 14  4  1  0  0  0  0
 14 10  1  0  0  0  0
 15 18  2  0  0  0  0
 15 17  1  0  0  0  0
 16  7  1  1  0  0  0
 16  5  1  0  0  0  0
 17 14  2  0  0  0  0
 18 11  1  0  0  0  0
 19 23  1  0  0  0  0
 20 26  1  0  0  0  0
 21 24  1  1  0  0  0
 21  6  1  0  0  0  0
 22 27  2  0  0  0  0
 23 16  1  0  0  0  0
 24 20  1  0  0  0  0
 25 27  1  0  0  0  0
 25 21  1  0  0  0  0
 26  1  1  6  0  0  0
 27  9  1  0  0  0  0
 29 28  1  0  0  0  0
 30 31  1  0  0  0  0
 30 19  1  0  0  0  0
M  END
>  <MODEL>
3

>  <REMARK>
 VINA RESULT:      -4.3      2.117      4.312
  Name = 
  2 active torsions:
  status: ('A' for Active; 'I' for Inactive)
    1  A    between atoms: C_5  and  C_23
    2  A    between atoms: N_20  and  C_27
                            x       y       z     vdW  Elec       q    Type
                         _______ _______ _______ _____ _____    ______ ____

>  <TORSDO>
F 2

$$$$
=
 OpenBabel10222421443D

 31 35  0  0  1  0  0  0  0  0999 V2000
  183.9160  174.7840  137.3550 C   0  0  0  0  0  2  0  0  0  0  0  0
  186.6150  178.3100  137.5940 C   0  0  0  0  0  3  0  0  0  0  0  0
  187.0940  178.1060  138.8890 C   0  0  0  0  0  0  0  0  0  0  0  0
  190.4200  176.7330  138.0950 N   0  0  0  0  0  0  0  0  0  0  0  0
  185.0090  179.1240  140.0880 C   0  0  1  0  0  3  0  0  0  0  0  0
  184.5010  176.0360  136.7260 C   0  0  2  0  0  0  0  0  0  0  0  0
  182.9280  179.8290  138.9610 N   0  0  0  0  0  1  0  0  0  0  0  0
  186.2360  178.3160  140.0230 N   0  0  0  0  0  2  0  0  0  0  0  0
  187.3540  177.9540  136.4730 C   0  0  0  0  0  0  0  0  0  0  0  0
  188.3790  177.5610  139.0670 C   0  0  0  0  0  0  0  0  0  0  0  0
  191.1810  176.4040  137.0190 C   0  0  0  0  0  0  0  0  0  0  0  0
  188.9020  177.3150  140.4460 C   0  0  0  0  0  1  0  0  0  0  0  0
  192.4850  175.8690  137.2100 N   0  0  0  0  0  1  0  0  0  0  0  0
  189.1690  177.2490  137.9420 C   0  0  0  0  0  0  0  0  0  0  0  0
  189.4560  177.0860  135.5540 C   0  0  0  0  0  3  0  0  0  0  0  0
  184.1050  178.9820  138.8510 C   0  0  2  0  0  3  0  0  0  0  0  0
  188.6530  177.4440  136.6410 C   0  0  0  0  0  0  0  0  0  0  0  0
  190.6980  176.5790  135.7610 N   0  0  0  0  0  0  0  0  0  0  0  0
  183.8710  177.3270  137.0840 N   0  0  0  0  0  0  0  0  0  0  0  0
  186.3730  174.5300  137.0940 C   0  0  0  0  0  2  0  0  0  0  0  0
  185.2480  175.8970  135.4010 C   0  0  2  0  0  3  0  0  0  0  0  0
  187.0840  178.9310  134.3460 O   0  0  0  0  0  0  0  0  0  0  0  0
  183.7020  177.5510  138.5260 C   0  0  0  0  0  2  0  0  0  0  0  0
  186.4730  175.0370  135.6620 C   0  0  0  0  0  2  0  0  0  0  0  0
  185.6180  177.1760  134.7840 N   0  0  0  0  0  2  0  0  0  0  0  0
  185.2760  175.3050  137.8070 C   0  0  2  0  0  3  0  0  0  0  0  0
  186.6980  178.0510  135.1580 C   0  0  0  0  0  0  0  0  0  0  0  0
  185.2070  178.2720  142.4240 C   0  0  0  0  0  1  0  0  0  0  0  0
  184.2550  178.8050  141.3720 C   0  0  0  0  0  2  0  0  0  0  0  0
  182.5860  177.4860  136.3960 C   0  0  0  0  0  2  0  0  0  0  0  0
  181.5110  177.2520  137.2610 O   0  0  0  0  0  1  0  0  0  0  0  0
  1 26  1  0  0  0  0
  2  3  1  0  0  0  0
  3 10  2  0  0  0  0
  3  8  1  0  0  0  0
  5 29  1  1  0  0  0
  6 19  1  0  0  0  0
  6  1  1  6  0  0  0
  6 26  1  0  0  0  0
  8  5  1  0  0  0  0
  9 17  1  0  0  0  0
  9  2  2  0  0  0  0
 10 12  1  0  0  0  0
 11 13  1  0  0  0  0
 11  4  2  0  0  0  0
 14  4  1  0  0  0  0
 14 10  1  0  0  0  0
 15 18  2  0  0  0  0
 15 17  1  0  0  0  0
 16  7  1  1  0  0  0
 16  5  1  0  0  0  0
 17 14  2  0  0  0  0
 18 11  1  0  0  0  0
 19 23  1  0  0  0  0
 21 24  1  1  0  0  0
 21  6  1  0  0  0  0
 22 27  2  0  0  0  0
 23 16  1  0  0  0  0
 24 20  1  0  0  0  0
 25 27  1  0  0  0  0
 25 21  1  0  0  0  0
 26 20  1  6  0  0  0
 27  9  1  0  0  0  0
 29 28  1  0  0  0  0
 30 19  1  0  0  0  0
 30 31  1  0  0  0  0
M  END
>  <MODEL>
4

>  <REMARK>
 VINA RESULT:      -4.2      2.612      5.235
  Name = 
  2 active torsions:
  status: ('A' for Active; 'I' for Inactive)
    1  A    between atoms: C_5  and  C_23
    2  A    between atoms: N_20  and  C_27
                            x       y       z     vdW  Elec       q    Type
                         _______ _______ _______ _____ _____    ______ ____

>  <TORSDO>
F 2

$$$$
=
 OpenBabel10222421443D

 31 35  0  0  1  0  0  0  0  0999 V2000
  190.8840  179.6150  145.5920 C   0  0  0  0  0  2  0  0  0  0  0  0
  188.3480  176.7330  143.3470 C   0  0  0  0  0  3  0  0  0  0  0  0
  187.4270  177.6430  142.8260 C   0  0  0  0  0  0  0  0  0  0  0  0
  188.6830  177.8610  139.3690 N   0  0  0  0  0  0  0  0  0  0  0  0
  185.9930  177.8180  145.0010 C   0  0  1  0  0  3  0  0  0  0  0  0
  190.5680  178.1890  145.1770 C   0  0  2  0  0  0  0  0  0  0  0  0
  186.5760  176.7950  147.1720 N   0  0  0  0  0  1  0  0  0  0  0  0
  186.4630  178.2740  143.6860 N   0  0  0  0  0  2  0  0  0  0  0  0
  189.3990  176.2350  142.5880 C   0  0  0  0  0  0  0  0  0  0  0  0
  187.5410  178.0390  141.4810 C   0  0  0  0  0  0  0  0  0  0  0  0
  189.6810  177.3690  138.5910 C   0  0  0  0  0  0  0  0  0  0  0  0
  186.5770  179.0290  140.9100 C   0  0  0  0  0  1  0  0  0  0  0  0
  189.7770  177.7630  137.2270 N   0  0  0  0  0  1  0  0  0  0  0  0
  188.5650  177.5000  140.6770 C   0  0  0  0  0  0  0  0  0  0  0  0
  190.5210  176.1150  140.4100 C   0  0  0  0  0  3  0  0  0  0  0  0
  187.1090  177.2590  145.9010 C   0  0  2  0  0  3  0  0  0  0  0  0
  189.4990  176.5970  141.2340 C   0  0  0  0  0  0  0  0  0  0  0  0
  190.5910  176.5050  139.1120 N   0  0  0  0  0  0  0  0  0  0  0  0
  189.5310  177.4740  145.9560 N   0  0  0  0  0  0  0  0  0  0  0  0
  191.0870  179.3870  143.1270 C   0  0  0  0  0  2  0  0  0  0  0  0
  191.6450  177.3960  144.4400 C   0  0  2  0  0  3  0  0  0  0  0  0
  190.4830  174.1860  143.0110 O   0  0  0  0  0  0  0  0  0  0  0  0
  188.2720  178.2130  146.1280 C   0  0  0  0  0  2  0  0  0  0  0  0
  191.8910  178.0950  143.1140 C   0  0  0  0  0  2  0  0  0  0  0  0
  191.3160  175.9790  144.2420 N   0  0  0  0  0  2  0  0  0  0  0  0
  190.1200  179.3440  144.3000 C   0  0  2  0  0  3  0  0  0  0  0  0
  190.4130  175.4150  143.2730 C   0  0  0  0  0  0  0  0  0  0  0  0
  183.8530  179.1000  145.0750 C   0  0  0  0  0  1  0  0  0  0  0  0
  185.2300  178.9430  145.6900 C   0  0  0  0  0  2  0  0  0  0  0  0
  190.0550  177.0630  147.2630 C   0  0  0  0  0  2  0  0  0  0  0  0
  189.6040  177.9070  148.2830 O   0  0  0  0  0  1  0  0  0  0  0  0
  3  2  1  0  0  0  0
  3  8  1  0  0  0  0
  4 14  1  0  0  0  0
  5 29  1  1  0  0  0
  5 16  1  0  0  0  0
  6  1  1  1  0  0  0
  6 19  1  0  0  0  0
  8  5  1  0  0  0  0
  9 27  1  0  0  0  0
  9  2  2  0  0  0  0
 10  3  2  0  0  0  0
 11 18  1  0  0  0  0
 11  4  2  0  0  0  0
 12 10  1  0  0  0  0
 13 11  1  0  0  0  0
 14 17  2  0  0  0  0
 14 10  1  0  0  0  0
 15 17  1  0  0  0  0
 16 23  1  0  0  0  0
 16  7  1  1  0  0  0
 17  9  1  0  0  0  0
 18 15  2  0  0  0  0
 19 23  1  0  0  0  0
 19 30  1  0  0  0  0
 21 24  1  6  0  0  0
 21  6  1  0  0  0  0
 22 27  2  0  0  0  0
 24 20  1  0  0  0  0
 25 21  1  0  0  0  0
 26 20  1  6  0  0  0
 26  6  1  0  0  0  0
 26  1  1  0  0  0  0
 27 25  1  0  0  0  0
 28 29  1  0  0  0  0
 30 31  1  0  0  0  0
M  END
>  <MODEL>
5

>  <REMARK>
 VINA RESULT:      -3.9      5.737      8.515
  Name = 
  2 active torsions:
  status: ('A' for Active; 'I' for Inactive)
    1  A    between atoms: C_5  and  C_23
    2  A    between atoms: N_20  and  C_27
                            x       y       z     vdW  Elec       q    Type
                         _______ _______ _______ _____ _____    ______ ____

>  <TORSDO>
F 2

$$$$
=
 OpenBabel10222421443D

 31 35  0  0  1  0  0  0  0  0999 V2000
  186.5540  177.8000  135.1240 C   0  0  0  0  0  2  0  0  0  0  0  0
  183.9070  175.6930  138.0100 C   0  0  0  0  0  3  0  0  0  0  0  0
  182.7390  176.4210  137.7770 C   0  0  0  0  0  0  0  0  0  0  0  0
  180.9170  173.9860  135.6950 N   0  0  0  0  0  0  0  0  0  0  0  0
  183.4110  178.4550  139.2700 C   0  0  1  0  0  3  0  0  0  0  0  0
  186.3550  176.7380  136.1910 C   0  0  2  0  0  0  0  0  0  0  0  0
  185.6150  178.7640  140.3390 N   0  0  0  0  0  1  0  0  0  0  0  0
  182.6310  177.7840  138.2200 N   0  0  0  0  0  2  0  0  0  0  0  0
  184.1160  174.4390  137.4500 C   0  0  0  0  0  0  0  0  0  0  0  0
  181.7260  175.8530  136.9820 C   0  0  0  0  0  0  0  0  0  0  0  0
  181.0760  172.7490  135.1590 C   0  0  0  0  0  0  0  0  0  0  0  0
  180.4760  176.6250  136.7030 C   0  0  0  0  0  1  0  0  0  0  0  0
  180.0380  172.1780  134.3720 N   0  0  0  0  0  1  0  0  0  0  0  0
  181.8930  174.5570  136.4540 C   0  0  0  0  0  0  0  0  0  0  0  0
  183.2330  172.5820  136.1130 C   0  0  0  0  0  3  0  0  0  0  0  0
  184.9070  178.0960  139.2590 C   0  0  2  0  0  3  0  0  0  0  0  0
  183.0940  173.8500  136.6870 C   0  0  0  0  0  0  0  0  0  0  0  0
  182.2270  172.0570  135.3670 N   0  0  0  0  0  0  0  0  0  0  0  0
  186.4340  177.1780  137.6030 N   0  0  0  0  0  0  0  0  0  0  0  0
  184.9000  176.1180  134.3460 C   0  0  0  0  0  2  0  0  0  0  0  0
  186.6610  175.2860  135.8310 C   0  0  2  0  0  3  0  0  0  0  0  0
  185.5610  172.8120  138.3530 O   0  0  0  0  0  0  0  0  0  0  0  0
  185.6050  178.3460  137.9300 C   0  0  0  0  0  2  0  0  0  0  0  0
  185.6800  174.8740  134.7470 C   0  0  0  0  0  2  0  0  0  0  0  0
  186.6130  174.3620  136.9710 N   0  0  0  0  0  2  0  0  0  0  0  0
  185.1690  177.2100  135.3700 C   0  0  2  0  0  3  0  0  0  0  0  0
  185.4450  173.8260  137.6160 C   0  0  0  0  0  0  0  0  0  0  0  0
  181.8790  180.2660  138.4970 C   0  0  0  0  0  1  0  0  0  0  0  0
  183.1960  179.9600  139.1830 C   0  0  0  0  0  2  0  0  0  0  0  0
  187.8260  177.4240  137.9940 C   0  0  0  0  0  2  0  0  0  0  0  0
  188.0730  178.7890  138.1720 O   0  0  0  0  0  1  0  0  0  0  0  0
  1 26  1  0  0  0  0
  3  2  1  0  0  0  0
  3  8  1  0  0  0  0
  4 14  1  0  0  0  0
  5 29  1  6  0  0  0
  6  1  1  6  0  0  0
  6 19  1  0  0  0  0
  8  5  1  0  0  0  0
  9 27  1  0  0  0  0
  9  2  2  0  0  0  0
 10  3  2  0  0  0  0
 11 18  1  0  0  0  0
 11  4  2  0  0  0  0
 12 10  1  0  0  0  0
 13 11  1  0  0  0  0
 14 17  2  0  0  0  0
 14 10  1  0  0  0  0
 15 17  1  0  0  0  0
 16  5  1  0  0  0  0
 16  7  1  1  0  0  0
 17  9  1  0  0  0  0
 18 15  2  0  0  0  0
 19 23  1  0  0  0  0
 19 30  1  0  0  0  0
 20 24  1  0  0  0  0
 21 24  1  6  0  0  0
 21  6  1  0  0  0  0
 21 25  1  0  0  0  0
 23 16  1  0  0  0  0
 25 27  1  0  0  0  0
 26 20  1  6  0  0  0
 26  6  1  0  0  0  0
 27 22  2  0  0  0  0
 28 29  1  0  0  0  0
 30 31  1  0  0  0  0
M  END
>  <MODEL>
6

>  <REMARK>
 VINA RESULT:      -3.8      3.757      7.857
  Name = 
  2 active torsions:
  status: ('A' for Active; 'I' for Inactive)
    1  A    between atoms: C_5  and  C_23
    2  A    between atoms: N_20  and  C_27
                            x       y       z     vdW  Elec       q    Type
                         _______ _______ _______ _____ _____    ______ ____

>  <TORSDO>
F 2

$$$$
=
 OpenBabel10222421443D

 31 35  0  0  1  0  0  0  0  0999 V2000
  189.7810  177.9710  134.3460 C   0  0  0  0  0  2  0  0  0  0  0  0
  188.0280  176.0990  137.9780 C   0  0  0  0  0  3  0  0  0  0  0  0
  188.4780  177.0280  138.9180 C   0  0  0  0  0  0  0  0  0  0  0  0
  185.3510  178.9000  139.4600 N   0  0  0  0  0  0  0  0  0  0  0  0
  190.8920  176.0510  139.0970 C   0  0  1  0  0  3  0  0  0  0  0  0
  188.9890  176.8500  134.9940 C   0  0  2  0  0  0  0  0  0  0  0  0
  191.8050  174.2510  137.6730 N   0  0  0  0  0  1  0  0  0  0  0  0
  189.8710  177.0940  139.2650 N   0  0  0  0  0  2  0  0  0  0  0  0
  186.7280  176.1180  137.4900 C   0  0  0  0  0  0  0  0  0  0  0  0
  187.5780  177.9880  139.4150 C   0  0  0  0  0  0  0  0  0  0  0  0
  184.0640  178.9260  139.0270 C   0  0  0  0  0  0  0  0  0  0  0  0
  188.0460  179.0060  140.4070 C   0  0  0  0  0  1  0  0  0  0  0  0
  183.1590  179.8900  139.5500 N   0  0  0  0  0  1  0  0  0  0  0  0
  186.2390  177.9870  138.9780 C   0  0  0  0  0  0  0  0  0  0  0  0
  184.4850  177.1080  137.5760 C   0  0  0  0  0  3  0  0  0  0  0  0
  190.7910  175.2890  137.7640 C   0  0  2  0  0  3  0  0  0  0  0  0
  185.8130  177.0490  138.0100 C   0  0  0  0  0  0  0  0  0  0  0  0
  183.6400  178.0360  138.0920 N   0  0  0  0  0  0  0  0  0  0  0  0
  189.7630  175.7460  135.6070 N   0  0  0  0  0  0  0  0  0  0  0  0
  187.7150  178.8830  135.3810 C   0  0  0  0  0  2  0  0  0  0  0  0
  187.5630  176.5990  134.5090 C   0  0  2  0  0  3  0  0  0  0  0  0
  185.6230  174.2380  136.5960 O   0  0  0  0  0  0  0  0  0  0  0  0
  190.8240  176.1760  136.5280 C   0  0  0  0  0  2  0  0  0  0  0  0
  186.7480  177.8360  134.8460 C   0  0  0  0  0  2  0  0  0  0  0  0
  186.9460  175.3880  135.0630 N   0  0  0  0  0  2  0  0  0  0  0  0
  189.0500  178.2110  135.6630 C   0  0  2  0  0  3  0  0  0  0  0  0
  186.3970  175.2070  136.3810 C   0  0  0  0  0  0  0  0  0  0  0  0
  192.3000  177.5340  140.5270 C   0  0  0  0  0  1  0  0  0  0  0  0
  192.2770  176.6550  139.2910 C   0  0  0  0  0  2  0  0  0  0  0  0
  190.3190  174.8650  134.5750 C   0  0  0  0  0  2  0  0  0  0  0  0
  190.0340  173.5220  134.8410 O   0  0  0  0  0  1  0  0  0  0  0  0
  2  3  1  0  0  0  0
  3  8  1  0  0  0  0
  3 10  2  0  0  0  0
  5  8  1  0  0  0  0
  5 29  1  6  0  0  0
  6  1  1  6  0  0  0
  6 19  1  0  0  0  0
  6 26  1  0  0  0  0
  9  2  2  0  0  0  0
  9 17  1  0  0  0  0
 10 12  1  0  0  0  0
 11  4  2  0  0  0  0
 11 13  1  0  0  0  0
 14 10  1  0  0  0  0
 14  4  1  0  0  0  0
 15 17  1  0  0  0  0
 15 18  2  0  0  0  0
 16  7  1  6  0  0  0
 16  5  1  0  0  0  0
 17 14  2  0  0  0  0
 18 11  1  0  0  0  0
 19 23  1  0  0  0  0
 20 26  1  0  0  0  0
 21 24  1  1  0  0  0
 21  6  1  0  0  0  0
 21 25  1  0  0  0  0
 23 16  1  0  0  0  0
 24 20  1  0  0  0  0
 25 27  1  0  0  0  0
 26  1  1  6  0  0  0
 27 22  2  0  0  0  0
 27  9  1  0  0  0  0
 29 28  1  0  0  0  0
 30 31  1  0  0  0  0
 30 19  1  0  0  0  0
M  END
>  <MODEL>
7

>  <REMARK>
 VINA RESULT:      -3.6      2.435      6.401
  Name = 
  2 active torsions:
  status: ('A' for Active; 'I' for Inactive)
    1  A    between atoms: C_5  and  C_23
    2  A    between atoms: N_20  and  C_27
                            x       y       z     vdW  Elec       q    Type
                         _______ _______ _______ _____ _____    ______ ____

>  <TORSDO>
F 2

$$$$
=
 OpenBabel10222421443D

 31 35  0  0  1  0  0  0  0  0999 V2000
  191.6810  179.3200  145.4870 C   0  0  0  0  0  2  0  0  0  0  0  0
  188.3480  176.7610  144.0340 C   0  0  0  0  0  3  0  0  0  0  0  0
  187.3440  177.7300  144.0200 C   0  0  0  0  0  0  0  0  0  0  0  0
  187.2130  178.4140  140.4020 N   0  0  0  0  0  0  0  0  0  0  0  0
  186.8460  177.6090  146.5810 C   0  0  1  0  0  3  0  0  0  0  0  0
  191.1620  177.9620  145.0480 C   0  0  2  0  0  0  0  0  0  0  0  0
  188.1530  176.3050  148.2210 N   0  0  0  0  0  1  0  0  0  0  0  0
  186.8080  178.2380  145.2530 N   0  0  0  0  0  2  0  0  0  0  0  0
  189.0090  176.3720  142.8760 C   0  0  0  0  0  0  0  0  0  0  0  0
  186.9620  178.3040  142.7940 C   0  0  0  0  0  0  0  0  0  0  0  0
  187.8180  178.0330  139.2480 C   0  0  0  0  0  0  0  0  0  0  0  0
  185.9040  179.3600  142.7600 C   0  0  0  0  0  1  0  0  0  0  0  0
  187.4120  178.6060  138.0110 N   0  0  0  0  0  1  0  0  0  0  0  0
  187.5790  177.8800  141.6000 C   0  0  0  0  0  0  0  0  0  0  0  0
  189.2200  176.5470  140.4390 C   0  0  0  0  0  3  0  0  0  0  0  0
  188.1900  176.9360  146.9110 C   0  0  2  0  0  3  0  0  0  0  0  0
  188.6090  176.9120  141.6420 C   0  0  0  0  0  0  0  0  0  0  0  0
  188.8140  177.1080  139.2710 N   0  0  0  0  0  0  0  0  0  0  0  0
  190.4620  177.1470  146.0680 N   0  0  0  0  0  0  0  0  0  0  0  0
  190.9280  179.4250  143.1220 C   0  0  0  0  0  2  0  0  0  0  0  0
  191.8410  177.2780  143.8650 C   0  0  2  0  0  3  0  0  0  0  0  0
  190.0700  174.2860  142.5960 O   0  0  0  0  0  0  0  0  0  0  0  0
  189.3990  177.8530  146.7960 C   0  0  0  0  0  2  0  0  0  0  0  0
  191.6040  178.1480  142.6430 C   0  0  0  0  0  2  0  0  0  0  0  0
  191.3930  175.8990  143.6310 N   0  0  0  0  0  2  0  0  0  0  0  0
  190.4740  179.2240  144.5600 C   0  0  2  0  0  3  0  0  0  0  0  0
  190.1650  175.4690  143.0160 C   0  0  0  0  0  0  0  0  0  0  0  0
  185.9820  179.9130  146.9900 C   0  0  0  0  0  1  0  0  0  0  0  0
  186.4560  178.6290  147.6420 C   0  0  0  0  0  2  0  0  0  0  0  0
  191.4190  176.5650  147.0140 C   0  0  0  0  0  2  0  0  0  0  0  0
  191.4940  177.3150  148.1930 O   0  0  0  0  0  1  0  0  0  0  0  0
  3  2  1  0  0  0  0
  3  8  1  0  0  0  0
  4 14  1  0  0  0  0
  5 16  1  0  0  0  0
  5 29  1  1  0  0  0
  6  1  1  1  0  0  0
  6 19  1  0  0  0  0
  8  5  1  0  0  0  0
  9 27  1  0  0  0  0
  9  2  2  0  0  0  0
 10  3  2  0  0  0  0
 11 18  1  0  0  0  0
 11  4  2  0  0  0  0
 12 10  1  0  0  0  0
 13 11  1  0  0  0  0
 14 17  2  0  0  0  0
 14 10  1  0  0  0  0
 15 17  1  0  0  0  0
 16  7  1  1  0  0  0
 17  9  1  0  0  0  0
 18 15  2  0  0  0  0
 19 23  1  0  0  0  0
 19 30  1  0  0  0  0
 21 24  1  6  0  0  0
 21  6  1  0  0  0  0
 22 27  2  0  0  0  0
 23 16  1  0  0  0  0
 24 20  1  0  0  0  0
 25 21  1  0  0  0  0
 26 20  1  6  0  0  0
 26  6  1  0  0  0  0
 26  1  1  0  0  0  0
 27 25  1  0  0  0  0
 28 29  1  0  0  0  0
 30 31  1  0  0  0  0
M  END
>  <MODEL>
8

>  <REMARK>
 VINA RESULT:      -3.4      6.151      9.301
  Name = 
  2 active torsions:
  status: ('A' for Active; 'I' for Inactive)
    1  A    between atoms: C_5  and  C_23
    2  A    between atoms: N_20  and  C_27
                            x       y       z     vdW  Elec       q    Type
                         _______ _______ _______ _____ _____    ______ ____

>  <TORSDO>
F 2

$$$$
=
 OpenBabel10222421443D

 31 35  0  0  1  0  0  0  0  0999 V2000
  189.5730  178.0230  135.3000 C   0  0  0  0  0  2  0  0  0  0  0  0
  186.5480  176.3880  138.1190 C   0  0  0  0  0  3  0  0  0  0  0  0
  186.1330  177.5930  138.6870 C   0  0  0  0  0  0  0  0  0  0  0  0
  182.9350  178.0270  136.9080 N   0  0  0  0  0  0  0  0  0  0  0  0
  188.1440  177.7960  140.3400 C   0  0  1  0  0  3  0  0  0  0  0  0
  188.8470  176.8340  135.9040 C   0  0  2  0  0  0  0  0  0  0  0  0
  190.1090  176.3020  140.3750 N   0  0  0  0  0  1  0  0  0  0  0  0
  187.0010  178.3160  139.5750 N   0  0  0  0  0  2  0  0  0  0  0  0
  185.8130  175.7500  137.1290 C   0  0  0  0  0  0  0  0  0  0  0  0
  184.9140  178.1610  138.2720 C   0  0  0  0  0  0  0  0  0  0  0  0
  182.1770  177.4130  135.9640 C   0  0  0  0  0  0  0  0  0  0  0  0
  184.4610  179.4630  138.8520 C   0  0  0  0  0  1  0  0  0  0  0  0
  180.9380  177.9860  135.5650 N   0  0  0  0  0  1  0  0  0  0  0  0
  184.1240  177.4990  137.3110 C   0  0  0  0  0  0  0  0  0  0  0  0
  183.7790  175.6870  135.7590 C   0  0  0  0  0  3  0  0  0  0  0  0
  189.0180  176.8040  139.5540 C   0  0  2  0  0  3  0  0  0  0  0  0
  184.5770  176.2900  136.7360 C   0  0  0  0  0  0  0  0  0  0  0  0
  182.6010  176.2530  135.3950 N   0  0  0  0  0  0  0  0  0  0  0  0
  189.3580  176.3190  137.1950 N   0  0  0  0  0  0  0  0  0  0  0  0
  187.1450  178.1640  134.7910 C   0  0  0  0  0  2  0  0  0  0  0  0
  188.0770  175.9060  134.9680 C   0  0  2  0  0  3  0  0  0  0  0  0
  185.9190  173.4380  136.6840 O   0  0  0  0  0  0  0  0  0  0  0  0
  189.5490  177.3410  138.2330 C   0  0  0  0  0  2  0  0  0  0  0  0
  186.9510  176.7200  134.3530 C   0  0  0  0  0  2  0  0  0  0  0  0
  187.5640  174.6920  135.6150 N   0  0  0  0  0  2  0  0  0  0  0  0
  188.1830  178.1980  135.9020 C   0  0  2  0  0  3  0  0  0  0  0  0
  186.4150  174.5760  136.4750 C   0  0  0  0  0  0  0  0  0  0  0  0
  189.2270  178.7720  142.3650 C   0  0  0  0  0  1  0  0  0  0  0  0
  188.9660  178.9580  140.8830 C   0  0  0  0  0  2  0  0  0  0  0  0
  190.6000  175.5640  136.9980 C   0  0  0  0  0  2  0  0  0  0  0  0
  190.5180  174.2880  137.5660 O   0  0  0  0  0  1  0  0  0  0  0  0
  1 26  1  0  0  0  0
  2  3  1  0  0  0  0
  3  8  1  0  0  0  0
  4 14  1  0  0  0  0
  5 29  1  6  0  0  0
  6  1  1  6  0  0  0
  6 19  1  0  0  0  0
  8  5  1  0  0  0  0
  9  2  2  0  0  0  0
 10  3  2  0  0  0  0
 10 12  1  0  0  0  0
 11  4  2  0  0  0  0
 13 11  1  0  0  0  0
 14 10  1  0  0  0  0
 15 17  1  0  0  0  0
 16  5  1  0  0  0  0
 16  7  1  1  0  0  0
 17  9  1  0  0  0  0
 17 14  2  0  0  0  0
 18 15  2  0  0  0  0
 18 11  1  0  0  0  0
 19 23  1  0  0  0  0
 21 24  1  1  0  0  0
 21 25  1  0  0  0  0
 21  6  1  0  0  0  0
 23 16  1  0  0  0  0
 24 20  1  0  0  0  0
 25 27  1  0  0  0  0
 26 20  1  6  0  0  0
 26  6  1  0  0  0  0
 27 22  2  0  0  0  0
 27  9  1  0  0  0  0
 29 28  1  0  0  0  0
 30 19  1  0  0  0  0
 30 31  1  0  0  0  0
M  END
>  <MODEL>
9

>  <REMARK>
 VINA RESULT:      -3.1      2.532      7.095
  Name = 
  2 active torsions:
  status: ('A' for Active; 'I' for Inactive)
    1  A    between atoms: C_5  and  C_23
    2  A    between atoms: N_20  and  C_27
                            x       y       z     vdW  Elec       q    Type
                         _______ _______ _______ _____ _____    ______ ____

>  <TORSDO>
F 2

$$$$
