=
 OpenBabel10222422013D

 44 47  0  0  1  0  0  0  0  0999 V2000
  181.6870  173.7470  136.7710 O   0  0  0  0  0  1  0  0  0  0  0  0
  182.7610  174.3730  137.3130 N   0  0  0  0  0  0  0  0  0  0  0  0
  181.4720  177.1970  137.6780 C   0  0  1  0  0  3  0  0  0  0  0  0
  184.2520  172.4200  136.7710 C   0  0  0  0  0  1  0  0  0  0  0  0
  188.0570  178.4420  137.3830 C   0  0  0  0  0  0  0  0  0  0  0  0
  180.8900  178.3980  138.4130 C   0  0  0  0  0  2  0  0  0  0  0  0
  185.1060  174.7330  136.8070 C   0  0  0  0  0  0  0  0  0  0  0  0
  184.9460  176.2260  136.8800 C   0  0  0  0  0  2  0  0  0  0  0  0
  184.0700  173.8920  136.9760 C   0  0  0  0  0  0  0  0  0  0  0  0
  184.9580  178.6130  139.2700 C   0  0  0  0  0  0  0  0  0  0  0  0
  186.6040  178.0850  137.4940 C   0  0  2  0  0  3  0  0  0  0  0  0
  186.2330  177.9010  138.9670 C   0  0  0  0  0  2  0  0  0  0  0  0
  182.6400  178.4670  140.2220 C   0  0  2  0  0  3  0  0  0  0  0  0
  184.8400  179.8340  138.9680 O   0  0  0  0  0  0  0  0  0  0  0  0
  181.3120  175.9480  138.5370 C   0  0  0  0  0  2  0  0  0  0  0  0
  188.3890  179.6150  137.3440 O   0  0  0  0  0  0  0  0  0  0  0  0
  187.3370  175.7930  136.7630 C   0  0  0  0  0  0  0  0  0  0  0  0
  182.5850  175.1180  138.5570 C   0  0  0  0  0  2  0  0  0  0  0  0
  186.3060  176.8640  136.6150 C   0  0  1  0  0  3  0  0  0  0  0  0
  186.7660  174.1360  136.4550 S   0  0  0  0  0  0  0  0  0  0  0  0
  189.1090  177.3550  137.3400 C   0  0  2  0  0  3  0  0  0  0  0  0
  183.9080  177.9040  139.8630 O   0  0  0  0  0  0  0  0  0  0  0  0
  181.9790  179.2290  139.0750 C   0  0  0  0  0  2  0  0  0  0  0  0
  188.5590  176.0280  137.0980 N   0  0  0  0  0  0  0  0  0  0  0  0
  180.8020  177.0350  136.3100 C   0  0  0  0  0  2  0  0  0  0  0  0
  181.7970  177.1580  135.1570 C   0  0  0  0  0  2  0  0  0  0  0  0
  181.6550  178.4830  134.4840 C   0  0  0  0  0  3  0  0  0  0  0  0
  180.9570  179.3630  134.9700 O   0  0  0  0  0  0  0  0  0  0  0  0
  189.9130  177.3360  138.6290 C   0  0  0  0  0  2  0  0  0  0  0  0
  189.3650  178.3530  139.6120 C   0  0  0  0  0  2  0  0  0  0  0  0
  188.1780  178.2040  142.2270 S   0  0  0  0  0  0  0  0  0  0  0  0
  189.4040  177.8000  141.0000 C   0  0  1  0  0  3  0  0  0  0  0  0
  188.7440  176.7780  143.2350 C   0  0  1  0  0  3  0  0  0  0  0  0
  190.3350  175.0410  142.7790 O   0  0  0  0  0  1  0  0  0  0  0  0
  190.1650  176.4250  142.7680 C   0  0  1  0  0  3  0  0  0  0  0  0
  190.3140  176.9180  141.3730 C   0  0  0  0  0  2  0  0  0  0  0  0
  188.6290  177.0670  144.6820 N   0  0  0  0  0  0  0  0  0  0  0  0
  189.8690  177.3090  145.4150 C   0  0  0  0  0  1  0  0  0  0  0  0
  187.3910  177.4290  145.3440 C   0  0  0  0  0  0  0  0  0  0  0  0
  186.2730  177.1950  144.8170 O   0  0  0  0  0  0  0  0  0  0  0  0
  187.4010  178.0710  146.6920 C   0  0  0  0  0  1  0  0  0  0  0  0
  182.6780  179.2470  141.5370 C   0  0  0  0  0  2  0  0  0  0  0  0
  183.3870  179.3530  143.9090 C   0  0  0  0  0  1  0  0  0  0  0  0
  183.3950  178.5030  142.6510 C   0  0  0  0  0  2  0  0  0  0  0  0
  1  2  1  0  0  0  0
  2 18  1  0  0  0  0
  3 25  1  6  0  0  0
  3  6  1  0  0  0  0
  3 15  1  0  0  0  0
  4  9  1  0  0  0  0
  5 11  1  0  0  0  0
  6 23  1  0  0  0  0
  7  8  1  0  0  0  0
  7  9  2  0  0  0  0
  9  2  1  0  0  0  0
 10 22  1  0  0  0  0
 11 12  1  1  0  0  0
 12 10  1  0  0  0  0
 13 42  1  1  0  0  0
 14 10  2  0  0  0  0
 15 18  1  0  0  0  0
 16  5  2  0  0  0  0
 17 24  2  0  0  0  0
 19 17  1  0  0  0  0
 19  8  1  1  0  0  0
 19 11  1  0  0  0  0
 20 17  1  0  0  0  0
 20  7  1  0  0  0  0
 21  5  1  0  0  0  0
 21 29  1  1  0  0  0
 22 13  1  0  0  0  0
 23 13  1  0  0  0  0
 24 21  1  0  0  0  0
 26 25  1  0  0  0  0
 27 28  2  0  0  0  0
 27 26  1  0  0  0  0
 29 30  1  0  0  0  0
 31 33  1  0  0  0  0
 32 30  1  6  0  0  0
 32 36  1  0  0  0  0
 32 31  1  0  0  0  0
 33 37  1  1  0  0  0
 35 34  1  6  0  0  0
 35 33  1  0  0  0  0
 36 35  1  0  0  0  0
 37 39  1  0  0  0  0
 37 38  1  0  0  0  0
 39 41  1  0  0  0  0
 40 39  2  0  0  0  0
 42 44  1  0  0  0  0
 44 43  1  0  0  0  0
M  END
>  <MODEL>
1

>  <REMARK>
 VINA RESULT:      -7.7      0.000      0.000
  Name = 
  9 active torsions:
  status: ('A' for Active; 'I' for Inactive)
    1  A    between atoms: N_2  and  C_27
    2  A    between atoms: C_5  and  C_11
    3  A    between atoms: C_10  and  C_17
    4  A    between atoms: C_10  and  C_24
    5  A    between atoms: C_11  and  C_13
    6  A    between atoms: C_13  and  C_14
    7  A    between atoms: C_23  and  C_38
    8  A    between atoms: C_24  and  C_39
    9  A    between atoms: C_34  and  C_38
                            x       y       z     vdW  Elec       q    Type
                         _______ _______ _______ _____ _____    ______ ____

>  <TORSDO>
F 9

$$$$
=
 OpenBabel10222422013D

 44 47  0  0  1  0  0  0  0  0999 V2000
  180.7360  174.3540  137.4040 O   0  0  0  0  0  1  0  0  0  0  0  0
  181.9740  174.8330  137.6830 N   0  0  0  0  0  0  0  0  0  0  0  0
  181.1100  177.6070  138.8350 C   0  0  1  0  0  3  0  0  0  0  0  0
  183.0580  172.9380  136.4320 C   0  0  0  0  0  1  0  0  0  0  0  0
  187.4070  178.6030  136.7490 C   0  0  0  0  0  0  0  0  0  0  0  0
  180.8800  178.6910  139.8810 C   0  0  0  0  0  2  0  0  0  0  0  0
  184.0920  175.1730  136.5510 C   0  0  0  0  0  0  0  0  0  0  0  0
  184.0970  176.6380  136.8890 C   0  0  0  0  0  2  0  0  0  0  0  0
  183.0780  174.3610  136.8980 C   0  0  0  0  0  0  0  0  0  0  0  0
  185.0230  178.5850  139.4890 C   0  0  0  0  0  0  0  0  0  0  0  0
  186.0240  178.2950  137.2410 C   0  0  2  0  0  3  0  0  0  0  0  0
  186.0840  177.8810  138.7120 C   0  0  0  0  0  2  0  0  0  0  0  0
  183.0800  178.3800  141.0650 C   0  0  2  0  0  3  0  0  0  0  0  0
  184.9340  179.8430  139.4210 O   0  0  0  0  0  0  0  0  0  0  0  0
  181.0950  176.2400  139.5070 C   0  0  0  0  0  2  0  0  0  0  0  0
  187.8190  179.7510  136.7860 O   0  0  0  0  0  0  0  0  0  0  0  0
  186.3000  176.1290  135.9910 C   0  0  0  0  0  0  0  0  0  0  0  0
  182.2370  175.3650  139.0180 C   0  0  0  0  0  2  0  0  0  0  0  0
  185.3720  177.2530  136.3220 C   0  0  1  0  0  3  0  0  0  0  0  0
  185.5160  174.5740  135.6280 S   0  0  0  0  0  0  0  0  0  0  0  0
  188.2980  177.4950  136.2300 C   0  0  2  0  0  3  0  0  0  0  0  0
  184.1320  177.8310  140.2600 O   0  0  0  0  0  0  0  0  0  0  0  0
  182.1860  179.3520  140.2980 C   0  0  0  0  0  2  0  0  0  0  0  0
  187.5820  176.2530  135.9710 N   0  0  0  0  0  0  0  0  0  0  0  0
  180.0590  177.7080  137.7250 C   0  0  0  0  0  2  0  0  0  0  0  0
  180.6580  178.1590  136.3950 C   0  0  0  0  0  2  0  0  0  0  0  0
  180.3740  177.1560  135.3260 C   0  0  0  0  0  3  0  0  0  0  0  0
  181.2850  176.6090  134.7210 O   0  0  0  0  0  0  0  0  0  0  0  0
  189.4370  177.2250  137.1980 C   0  0  0  0  0  2  0  0  0  0  0  0
  189.6650  175.7330  137.3500 C   0  0  0  0  0  2  0  0  0  0  0  0
  191.7870  173.8200  137.0320 S   0  0  0  0  0  0  0  0  0  0  0  0
  191.1290  175.4370  137.3840 C   0  0  1  0  0  3  0  0  0  0  0  0
  193.4520  174.5640  136.8200 C   0  0  1  0  0  3  0  0  0  0  0  0
  194.1820  176.8490  136.8100 O   0  0  0  0  0  1  0  0  0  0  0  0
  193.4390  175.9220  137.5390 C   0  0  1  0  0  3  0  0  0  0  0  0
  192.0260  176.3800  137.6070 C   0  0  0  0  0  2  0  0  0  0  0  0
  194.5130  173.6390  137.2770 N   0  0  0  0  0  0  0  0  0  0  0  0
  195.1810  173.9590  138.5360 C   0  0  0  0  0  1  0  0  0  0  0  0
  194.7170  172.3060  136.7440 C   0  0  0  0  0  0  0  0  0  0  0  0
  194.2350  171.9630  135.6330 O   0  0  0  0  0  0  0  0  0  0  0  0
  195.5300  171.2980  137.4880 C   0  0  0  0  0  1  0  0  0  0  0  0
  183.5700  178.9240  142.4070 C   0  0  0  0  0  2  0  0  0  0  0  0
  183.0910  178.7660  144.8330 C   0  0  0  0  0  1  0  0  0  0  0  0
  182.4780  178.9860  143.4610 C   0  0  0  0  0  2  0  0  0  0  0  0
  1  2  1  0  0  0  0
  2 18  1  0  0  0  0
  3 25  1  6  0  0  0
  3 15  1  0  0  0  0
  3  6  1  0  0  0  0
  4  9  1  0  0  0  0
  5 16  2  0  0  0  0
  5 11  1  0  0  0  0
  6 23  1  0  0  0  0
  7  8  1  0  0  0  0
  7  9  2  0  0  0  0
  9  2  1  0  0  0  0
 10 22  1  0  0  0  0
 11 12  1  1  0  0  0
 12 10  1  0  0  0  0
 13 42  1  1  0  0  0
 14 10  2  0  0  0  0
 17 19  1  0  0  0  0
 18 15  1  0  0  0  0
 19  8  1  1  0  0  0
 19 11  1  0  0  0  0
 20 17  1  0  0  0  0
 20  7  1  0  0  0  0
 21  5  1  0  0  0  0
 21 29  1  1  0  0  0
 22 13  1  0  0  0  0
 23 13  1  0  0  0  0
 24 17  2  0  0  0  0
 24 21  1  0  0  0  0
 26 25  1  0  0  0  0
 27 26  1  0  0  0  0
 28 27  2  0  0  0  0
 29 30  1  0  0  0  0
 31 32  1  0  0  0  0
 32 30  1  6  0  0  0
 32 36  1  0  0  0  0
 33 31  1  0  0  0  0
 33 37  1  1  0  0  0
 33 35  1  0  0  0  0
 35 34  1  6  0  0  0
 35 36  1  0  0  0  0
 37 38  1  0  0  0  0
 39 37  1  0  0  0  0
 39 41  1  0  0  0  0
 40 39  2  0  0  0  0
 42 44  1  0  0  0  0
 44 43  1  0  0  0  0
M  END
>  <MODEL>
2

>  <REMARK>
 VINA RESULT:      -6.7      3.195      4.856
  Name = 
  9 active torsions:
  status: ('A' for Active; 'I' for Inactive)
    1  A    between atoms: N_2  and  C_27
    2  A    between atoms: C_5  and  C_11
    3  A    between atoms: C_10  and  C_17
    4  A    between atoms: C_10  and  C_24
    5  A    between atoms: C_11  and  C_13
    6  A    between atoms: C_13  and  C_14
    7  A    between atoms: C_23  and  C_38
    8  A    between atoms: C_24  and  C_39
    9  A    between atoms: C_34  and  C_38
                            x       y       z     vdW  Elec       q    Type
                         _______ _______ _______ _____ _____    ______ ____

>  <TORSDO>
F 9

$$$$
=
 OpenBabel10222422013D

 44 47  0  0  1  0  0  0  0  0999 V2000
  193.0680  175.6180  137.8620 O   0  0  0  0  0  1  0  0  0  0  0  0
  191.7160  175.6240  137.9580 N   0  0  0  0  0  0  0  0  0  0  0  0
  191.0920  174.0170  135.3510 C   0  0  1  0  0  3  0  0  0  0  0  0
  191.7950  177.2950  139.8380 C   0  0  0  0  0  1  0  0  0  0  0  0
  185.5010  177.5540  136.4570 C   0  0  0  0  0  0  0  0  0  0  0  0
  190.6360  172.8450  134.4910 C   0  0  0  0  0  2  0  0  0  0  0  0
  189.9170  177.2270  138.2410 C   0  0  0  0  0  0  0  0  0  0  0  0
  189.2320  176.7570  136.9880 C   0  0  0  0  0  2  0  0  0  0  0  0
  191.0880  176.7110  138.6540 C   0  0  0  0  0  0  0  0  0  0  0  0
  187.0860  174.3060  136.0980 C   0  0  0  0  0  0  0  0  0  0  0  0
  186.7600  176.7540  136.3020 C   0  0  2  0  0  3  0  0  0  0  0  0
  186.5930  175.3970  136.9880 C   0  0  0  0  0  2  0  0  0  0  0  0
  188.5860  172.3090  135.8490 C   0  0  2  0  0  3  0  0  0  0  0  0
  186.6500  174.2220  134.9150 O   0  0  0  0  0  0  0  0  0  0  0  0
  191.5480  173.5030  136.7110 C   0  0  0  0  0  2  0  0  0  0  0  0
  184.6470  177.5110  135.5870 O   0  0  0  0  0  0  0  0  0  0  0  0
  187.6680  178.2420  138.1150 C   0  0  0  0  0  0  0  0  0  0  0  0
  190.9980  174.3570  137.8420 C   0  0  0  0  0  2  0  0  0  0  0  0
  187.9550  177.5710  136.8110 C   0  0  1  0  0  3  0  0  0  0  0  0
  189.0870  178.5410  139.1460 S   0  0  0  0  0  0  0  0  0  0  0  0
  185.2780  178.3940  137.6960 C   0  0  2  0  0  3  0  0  0  0  0  0
  188.0410  173.4090  136.5880 O   0  0  0  0  0  0  0  0  0  0  0  0
  189.1210  172.7170  134.4780 C   0  0  0  0  0  2  0  0  0  0  0  0
  186.4840  178.5800  138.4920 N   0  0  0  0  0  0  0  0  0  0  0  0
  192.1990  174.8000  134.6390 C   0  0  0  0  0  2  0  0  0  0  0  0
  193.4260  173.9390  134.3460 C   0  0  0  0  0  2  0  0  0  0  0  0
  194.6250  174.4790  135.0520 C   0  0  0  0  0  3  0  0  0  0  0  0
  195.5660  173.7510  135.3380 O   0  0  0  0  0  0  0  0  0  0  0  0
  184.1910  177.7860  138.5670 C   0  0  0  0  0  2  0  0  0  0  0  0
  183.4940  178.8630  139.3760 C   0  0  0  0  0  2  0  0  0  0  0  0
  185.4080  178.8310  141.5210 S   0  0  0  0  0  0  0  0  0  0  0  0
  183.7740  178.6750  140.8320 C   0  0  1  0  0  3  0  0  0  0  0  0
  184.6700  178.9570  143.1970 C   0  0  1  0  0  3  0  0  0  0  0  0
  182.3880  179.0960  143.9220 O   0  0  0  0  0  1  0  0  0  0  0  0
  183.2570  178.3590  143.1190 C   0  0  1  0  0  3  0  0  0  0  0  0
  182.8070  178.4550  141.7050 C   0  0  0  0  0  2  0  0  0  0  0  0
  185.5450  178.3330  144.2150 N   0  0  0  0  0  0  0  0  0  0  0  0
  186.7320  177.6300  143.7340 C   0  0  0  0  0  1  0  0  0  0  0  0
  185.4830  178.6260  145.6330 C   0  0  0  0  0  0  0  0  0  0  0  0
  184.4700  179.1680  146.1470 O   0  0  0  0  0  0  0  0  0  0  0  0
  186.6140  178.2710  146.5400 C   0  0  0  0  0  1  0  0  0  0  0  0
  187.6600  171.0930  135.8100 C   0  0  0  0  0  2  0  0  0  0  0  0
  187.1840  168.8990  134.7580 C   0  0  0  0  0  1  0  0  0  0  0  0
  188.2760  169.8960  135.1050 C   0  0  0  0  0  2  0  0  0  0  0  0
  1  2  1  0  0  0  0
  2  9  1  0  0  0  0
  3 25  1  6  0  0  0
  3 15  1  0  0  0  0
  5 21  1  0  0  0  0
  6  3  1  0  0  0  0
  7  9  2  0  0  0  0
  7 20  1  0  0  0  0
  8  7  1  0  0  0  0
  9  4  1  0  0  0  0
 10 22  1  0  0  0  0
 10 12  1  0  0  0  0
 11  5  1  0  0  0  0
 11 19  1  0  0  0  0
 11 12  1  1  0  0  0
 13 42  1  6  0  0  0
 13 22  1  0  0  0  0
 14 10  2  0  0  0  0
 15 18  1  0  0  0  0
 16  5  2  0  0  0  0
 17 24  2  0  0  0  0
 17 20  1  0  0  0  0
 18  2  1  0  0  0  0
 19  8  1  1  0  0  0
 19 17  1  0  0  0  0
 21 24  1  0  0  0  0
 21 29  1  1  0  0  0
 23  6  1  0  0  0  0
 23 13  1  0  0  0  0
 26 25  1  0  0  0  0
 26 27  1  0  0  0  0
 27 28  2  0  0  0  0
 29 30  1  0  0  0  0
 31 33  1  0  0  0  0
 32 30  1  1  0  0  0
 32 31  1  0  0  0  0
 32 36  1  0  0  0  0
 33 37  1  1  0  0  0
 35 33  1  0  0  0  0
 35 34  1  1  0  0  0
 36 35  1  0  0  0  0
 37 39  1  0  0  0  0
 38 37  1  0  0  0  0
 39 40  2  0  0  0  0
 39 41  1  0  0  0  0
 43 44  1  0  0  0  0
 44 42  1  0  0  0  0
M  END
>  <MODEL>
3

>  <REMARK>
 VINA RESULT:      -6.7      3.675      8.071
  Name = 
  9 active torsions:
  status: ('A' for Active; 'I' for Inactive)
    1  A    between atoms: N_2  and  C_27
    2  A    between atoms: C_5  and  C_11
    3  A    between atoms: C_10  and  C_17
    4  A    between atoms: C_10  and  C_24
    5  A    between atoms: C_11  and  C_13
    6  A    between atoms: C_13  and  C_14
    7  A    between atoms: C_23  and  C_38
    8  A    between atoms: C_24  and  C_39
    9  A    between atoms: C_34  and  C_38
                            x       y       z     vdW  Elec       q    Type
                         _______ _______ _______ _____ _____    ______ ____

>  <TORSDO>
F 9

$$$$
=
 OpenBabel10222422013D

 44 47  0  0  1  0  0  0  0  0999 V2000
  194.1030  176.6970  139.4250 O   0  0  0  0  0  1  0  0  0  0  0  0
  192.8220  176.4150  139.0820 N   0  0  0  0  0  0  0  0  0  0  0  0
  193.3480  175.5570  136.1230 C   0  0  1  0  0  3  0  0  0  0  0  0
  191.9600  177.4420  141.2110 C   0  0  0  0  0  1  0  0  0  0  0  0
  186.9190  177.4720  136.1420 C   0  0  0  0  0  0  0  0  0  0  0  0
  193.4630  174.6250  134.9230 C   0  0  0  0  0  2  0  0  0  0  0  0
  190.6470  177.4880  139.1250 C   0  0  0  0  0  0  0  0  0  0  0  0
  190.4610  177.2850  137.6470 C   0  0  0  0  0  2  0  0  0  0  0  0
  191.7670  177.1080  139.7640 C   0  0  0  0  0  0  0  0  0  0  0  0
  189.3610  174.8400  135.5930 C   0  0  0  0  0  0  0  0  0  0  0  0
  188.3440  177.0100  136.2230 C   0  0  2  0  0  3  0  0  0  0  0  0
  188.3800  175.5060  136.4980 C   0  0  0  0  0  2  0  0  0  0  0  0
  191.3570  173.3300  135.3970 C   0  0  2  0  0  3  0  0  0  0  0  0
  189.2830  175.0260  134.3460 O   0  0  0  0  0  0  0  0  0  0  0  0
  193.5600  174.7630  137.4070 C   0  0  0  0  0  2  0  0  0  0  0  0
  186.3620  177.5240  135.0580 O   0  0  0  0  0  0  0  0  0  0  0  0
  188.3180  178.0440  138.5160 C   0  0  0  0  0  0  0  0  0  0  0  0
  192.5290  175.1250  138.4630 C   0  0  0  0  0  2  0  0  0  0  0  0
  189.1000  177.8550  137.2570 C   0  0  1  0  0  3  0  0  0  0  0  0
  189.2880  178.2940  139.9860 S   0  0  0  0  0  0  0  0  0  0  0  0
  186.1670  177.8520  137.3990 C   0  0  2  0  0  3  0  0  0  0  0  0
  190.3640  174.0390  136.1490 O   0  0  0  0  0  0  0  0  0  0  0  0
  192.0950  174.2180  134.3980 C   0  0  0  0  0  2  0  0  0  0  0  0
  187.0310  178.0240  138.5590 N   0  0  0  0  0  0  0  0  0  0  0  0
  194.3460  176.7120  135.9970 C   0  0  0  0  0  2  0  0  0  0  0  0
  194.6400  177.0700  134.5420 C   0  0  0  0  0  2  0  0  0  0  0  0
  195.7170  178.1010  134.4640 C   0  0  0  0  0  3  0  0  0  0  0  0
  196.1840  178.5980  135.4800 O   0  0  0  0  0  0  0  0  0  0  0  0
  185.0990  176.8180  137.7170 C   0  0  0  0  0  2  0  0  0  0  0  0
  183.7150  177.3990  137.5010 C   0  0  0  0  0  2  0  0  0  0  0  0
  183.3640  179.0620  139.8210 S   0  0  0  0  0  0  0  0  0  0  0  0
  183.0420  177.6270  138.8160 C   0  0  1  0  0  3  0  0  0  0  0  0
  181.8430  178.7050  140.7850 C   0  0  1  0  0  3  0  0  0  0  0  0
  180.1190  177.0650  140.4830 O   0  0  0  0  0  1  0  0  0  0  0  0
  181.5010  177.2230  140.5640 C   0  0  1  0  0  3  0  0  0  0  0  0
  182.1120  176.8090  139.2740 C   0  0  0  0  0  2  0  0  0  0  0  0
  182.0070  179.0920  142.2040 N   0  0  0  0  0  0  0  0  0  0  0  0
  180.7950  179.4230  142.9490 C   0  0  0  0  0  1  0  0  0  0  0  0
  183.2140  178.8690  142.9750 C   0  0  0  0  0  0  0  0  0  0  0  0
  184.3180  178.6450  142.4150 O   0  0  0  0  0  0  0  0  0  0  0  0
  183.1920  178.9230  144.4670 C   0  0  0  0  0  1  0  0  0  0  0  0
  190.8370  172.0260  134.7930 C   0  0  0  0  0  2  0  0  0  0  0  0
  188.9880  170.3850  134.6180 C   0  0  0  0  0  1  0  0  0  0  0  0
  189.5280  171.5630  135.4100 C   0  0  0  0  0  2  0  0  0  0  0  0
  2  1  1  0  0  0  0
  2  9  1  0  0  0  0
  3 25  1  6  0  0  0
  3 15  1  0  0  0  0
  5 11  1  0  0  0  0
  5 21  1  0  0  0  0
  6  3  1  0  0  0  0
  7  9  2  0  0  0  0
  7 20  1  0  0  0  0
  8  7  1  0  0  0  0
  9  4  1  0  0  0  0
 10 22  1  0  0  0  0
 10 12  1  0  0  0  0
 11 12  1  1  0  0  0
 11 19  1  0  0  0  0
 13 42  1  6  0  0  0
 13 22  1  0  0  0  0
 14 10  2  0  0  0  0
 15 18  1  0  0  0  0
 16  5  2  0  0  0  0
 17 24  2  0  0  0  0
 17 20  1  0  0  0  0
 18  2  1  0  0  0  0
 19  8  1  1  0  0  0
 19 17  1  0  0  0  0
 21 29  1  1  0  0  0
 21 24  1  0  0  0  0
 23  6  1  0  0  0  0
 23 13  1  0  0  0  0
 26 25  1  0  0  0  0
 27 26  1  0  0  0  0
 27 28  2  0  0  0  0
 30 29  1  0  0  0  0
 31 33  1  0  0  0  0
 32 30  1  6  0  0  0
 32 36  1  0  0  0  0
 32 31  1  0  0  0  0
 33 37  1  1  0  0  0
 35 34  1  6  0  0  0
 35 33  1  0  0  0  0
 36 35  1  0  0  0  0
 37 38  1  0  0  0  0
 37 39  1  0  0  0  0
 39 41  1  0  0  0  0
 40 39  2  0  0  0  0
 42 44  1  0  0  0  0
 43 44  1  0  0  0  0
M  END
>  <MODEL>
4

>  <REMARK>
 VINA RESULT:      -5.5      3.971      9.087
  Name = 
  9 active torsions:
  status: ('A' for Active; 'I' for Inactive)
    1  A    between atoms: N_2  and  C_27
    2  A    between atoms: C_5  and  C_11
    3  A    between atoms: C_10  and  C_17
    4  A    between atoms: C_10  and  C_24
    5  A    between atoms: C_11  and  C_13
    6  A    between atoms: C_13  and  C_14
    7  A    between atoms: C_23  and  C_38
    8  A    between atoms: C_24  and  C_39
    9  A    between atoms: C_34  and  C_38
                            x       y       z     vdW  Elec       q    Type
                         _______ _______ _______ _____ _____    ______ ____

>  <TORSDO>
F 9

$$$$
=
 OpenBabel10222422013D

 44 47  0  0  1  0  0  0  0  0999 V2000
  179.9870  175.8040  138.0610 O   0  0  0  0  0  1  0  0  0  0  0  0
  181.3370  175.8910  138.1580 N   0  0  0  0  0  0  0  0  0  0  0  0
  181.4740  178.4010  140.0160 C   0  0  1  0  0  3  0  0  0  0  0  0
  181.6390  174.1790  136.3390 C   0  0  0  0  0  1  0  0  0  0  0  0
  187.3970  178.3840  136.8670 C   0  0  0  0  0  0  0  0  0  0  0  0
  181.7210  179.2030  141.2870 C   0  0  0  0  0  2  0  0  0  0  0  0
  183.2640  176.0000  136.6890 C   0  0  0  0  0  0  0  0  0  0  0  0
  183.7310  177.2860  137.3130 C   0  0  0  0  0  2  0  0  0  0  0  0
  182.1300  175.3890  137.0730 C   0  0  0  0  0  0  0  0  0  0  0  0
  185.5560  178.2290  139.9940 C   0  0  0  0  0  0  0  0  0  0  0  0
  186.0760  178.2950  137.5730 C   0  0  2  0  0  3  0  0  0  0  0  0
  186.2440  177.5170  138.8780 C   0  0  0  0  0  2  0  0  0  0  0  0
  183.9010  178.0900  141.8770 C   0  0  2  0  0  3  0  0  0  0  0  0
  185.8140  179.4460  140.2090 O   0  0  0  0  0  0  0  0  0  0  0  0
  181.1800  176.9500  140.3790 C   0  0  0  0  0  2  0  0  0  0  0  0
  188.1150  179.3540  137.0500 O   0  0  0  0  0  0  0  0  0  0  0  0
  185.5380  176.5200  135.8740 C   0  0  0  0  0  0  0  0  0  0  0  0
  181.9410  175.9860  139.4850 C   0  0  0  0  0  2  0  0  0  0  0  0
  185.0250  177.7070  136.6220 C   0  0  1  0  0  3  0  0  0  0  0  0
  184.3030  175.3400  135.3770 S   0  0  0  0  0  0  0  0  0  0  0  0
  187.8500  177.2680  135.9510 C   0  0  2  0  0  3  0  0  0  0  0  0
  184.6190  177.5340  140.7680 O   0  0  0  0  0  0  0  0  0  0  0  0
  183.2080  179.4080  141.5390 C   0  0  0  0  0  2  0  0  0  0  0  0
  186.7840  176.3390  135.6030 N   0  0  0  0  0  0  0  0  0  0  0  0
  180.3350  179.0260  139.2060 C   0  0  0  0  0  2  0  0  0  0  0  0
  180.2610  180.5420  139.3800 C   0  0  0  0  0  2  0  0  0  0  0  0
  181.2140  181.2220  138.4540 C   0  0  0  0  0  3  0  0  0  0  0  0
  182.4180  181.2100  138.6740 O   0  0  0  0  0  0  0  0  0  0  0  0
  189.0030  176.4990  136.5720 C   0  0  0  0  0  2  0  0  0  0  0  0
  190.0370  176.1480  135.5200 C   0  0  0  0  0  2  0  0  0  0  0  0
  192.6670  175.0100  135.2780 S   0  0  0  0  0  0  0  0  0  0  0  0
  191.3280  175.7730  136.1710 C   0  0  1  0  0  3  0  0  0  0  0  0
  193.8020  175.4290  136.6580 C   0  0  1  0  0  3  0  0  0  0  0  0
  193.4700  176.7160  138.6550 O   0  0  0  0  0  1  0  0  0  0  0  0
  192.9360  175.6700  137.9040 C   0  0  1  0  0  3  0  0  0  0  0  0
  191.5770  176.0550  137.4380 C   0  0  0  0  0  2  0  0  0  0  0  0
  194.8430  174.3900  136.8280 N   0  0  0  0  0  0  0  0  0  0  0  0
  194.4000  173.0640  137.2520 C   0  0  0  0  0  1  0  0  0  0  0  0
  196.1940  174.4990  136.3150 C   0  0  0  0  0  0  0  0  0  0  0  0
  196.6840  175.6120  135.9890 O   0  0  0  0  0  0  0  0  0  0  0  0
  197.0640  173.2930  136.1790 C   0  0  0  0  0  1  0  0  0  0  0  0
  184.7250  178.1420  143.1630 C   0  0  0  0  0  2  0  0  0  0  0  0
  184.9410  178.9310  145.5030 C   0  0  0  0  0  1  0  0  0  0  0  0
  184.0330  178.8940  144.2870 C   0  0  0  0  0  2  0  0  0  0  0  0
  1  2  1  0  0  0  0
  2 18  1  0  0  0  0
  3 25  1  1  0  0  0
  3 15  1  0  0  0  0
  3  6  1  0  0  0  0
  4  9  1  0  0  0  0
  5 16  2  0  0  0  0
  5 11  1  0  0  0  0
  6 23  1  0  0  0  0
  7  9  2  0  0  0  0
  7  8  1  0  0  0  0
  9  2  1  0  0  0  0
 10 14  2  0  0  0  0
 10 22  1  0  0  0  0
 11 12  1  1  0  0  0
 12 10  1  0  0  0  0
 13 42  1  1  0  0  0
 17 19  1  0  0  0  0
 18 15  1  0  0  0  0
 19  8  1  1  0  0  0
 19 11  1  0  0  0  0
 20 17  1  0  0  0  0
 20  7  1  0  0  0  0
 21 29  1  1  0  0  0
 21  5  1  0  0  0  0
 22 13  1  0  0  0  0
 23 13  1  0  0  0  0
 24 17  2  0  0  0  0
 24 21  1  0  0  0  0
 25 26  1  0  0  0  0
 27 28  2  0  0  0  0
 27 26  1  0  0  0  0
 30 29  1  0  0  0  0
 31 32  1  0  0  0  0
 31 33  1  0  0  0  0
 32 30  1  6  0  0  0
 32 36  1  0  0  0  0
 33 37  1  1  0  0  0
 33 35  1  0  0  0  0
 35 34  1  1  0  0  0
 36 35  1  0  0  0  0
 37 38  1  0  0  0  0
 39 37  1  0  0  0  0
 40 39  2  0  0  0  0
 41 39  1  0  0  0  0
 42 44  1  0  0  0  0
 44 43  1  0  0  0  0
M  END
>  <MODEL>
5

>  <REMARK>
 VINA RESULT:      -5.4      3.407      5.416
  Name = 
  9 active torsions:
  status: ('A' for Active; 'I' for Inactive)
    1  A    between atoms: N_2  and  C_27
    2  A    between atoms: C_5  and  C_11
    3  A    between atoms: C_10  and  C_17
    4  A    between atoms: C_10  and  C_24
    5  A    between atoms: C_11  and  C_13
    6  A    between atoms: C_13  and  C_14
    7  A    between atoms: C_23  and  C_38
    8  A    between atoms: C_24  and  C_39
    9  A    between atoms: C_34  and  C_38
                            x       y       z     vdW  Elec       q    Type
                         _______ _______ _______ _____ _____    ______ ____

>  <TORSDO>
F 9

$$$$
=
 OpenBabel10222422013D

 44 47  0  0  1  0  0  0  0  0999 V2000
  188.9190  176.9140  145.3470 O   0  0  0  0  0  1  0  0  0  0  0  0
  188.1100  176.9450  144.2590 N   0  0  0  0  0  0  0  0  0  0  0  0
  190.2460  177.8380  142.1600 C   0  0  1  0  0  3  0  0  0  0  0  0
  186.0630  176.6730  145.6980 C   0  0  0  0  0  1  0  0  0  0  0  0
  184.4170  179.8010  139.4840 C   0  0  0  0  0  0  0  0  0  0  0  0
  191.1900  177.7200  140.9690 C   0  0  0  0  0  2  0  0  0  0  0  0
  186.0040  177.9420  143.5850 C   0  0  0  0  0  0  0  0  0  0  0  0
  186.6400  178.6020  142.3930 C   0  0  0  0  0  2  0  0  0  0  0  0
  186.7130  177.2070  144.4580 C   0  0  0  0  0  0  0  0  0  0  0  0
  187.4170  177.7720  139.2120 C   0  0  0  0  0  0  0  0  0  0  0  0
  185.6760  179.2870  140.1150 C   0  0  2  0  0  3  0  0  0  0  0  0
  185.9780  177.8830  139.5890 C   0  0  0  0  0  2  0  0  0  0  0  0
  189.5700  176.5070  139.4720 C   0  0  2  0  0  3  0  0  0  0  0  0
  187.9220  178.6210  138.4250 O   0  0  0  0  0  0  0  0  0  0  0  0
  189.9990  176.4550  142.7520 C   0  0  0  0  0  2  0  0  0  0  0  0
  184.4820  180.4770  138.4700 O   0  0  0  0  0  0  0  0  0  0  0  0
  184.2360  178.8800  142.1370 C   0  0  0  0  0  0  0  0  0  0  0  0
  188.5260  176.2330  143.0540 C   0  0  0  0  0  2  0  0  0  0  0  0
  185.5570  179.3730  141.6430 C   0  0  1  0  0  3  0  0  0  0  0  0
  184.2380  178.2170  143.7870 S   0  0  0  0  0  0  0  0  0  0  0  0
  183.0690  179.4660  140.0850 C   0  0  2  0  0  3  0  0  0  0  0  0
  188.1850  176.7390  139.7600 O   0  0  0  0  0  0  0  0  0  0  0  0
  190.4330  177.7540  139.6500 C   0  0  0  0  0  2  0  0  0  0  0  0
  183.1590  178.9160  141.4310 N   0  0  0  0  0  0  0  0  0  0  0  0
  190.8180  178.8080  143.1970 C   0  0  0  0  0  2  0  0  0  0  0  0
  191.9900  178.2080  143.9710 C   0  0  0  0  0  2  0  0  0  0  0  0
  191.6000  177.9420  145.3880 C   0  0  0  0  0  3  0  0  0  0  0  0
  191.9820  176.9320  145.9640 O   0  0  0  0  0  0  0  0  0  0  0  0
  182.3120  178.4950  139.1960 C   0  0  0  0  0  2  0  0  0  0  0  0
  182.7690  177.0710  139.4520 C   0  0  0  0  0  2  0  0  0  0  0  0
  183.3570  174.6590  138.0030 S   0  0  0  0  0  0  0  0  0  0  0  0
  183.1760  176.4230  138.1690 C   0  0  1  0  0  3  0  0  0  0  0  0
  183.3290  174.8470  136.1770 C   0  0  1  0  0  3  0  0  0  0  0  0
  182.9370  176.7580  134.7820 O   0  0  0  0  0  1  0  0  0  0  0  0
  183.6910  176.3070  135.8630 C   0  0  1  0  0  3  0  0  0  0  0  0
  183.3530  177.1200  137.0610 C   0  0  0  0  0  2  0  0  0  0  0  0
  184.2010  173.8450  135.5230 N   0  0  0  0  0  0  0  0  0  0  0  0
  185.5690  174.2520  135.2140 C   0  0  0  0  0  1  0  0  0  0  0  0
  183.9040  172.4280  135.4540 C   0  0  0  0  0  0  0  0  0  0  0  0
  182.7370  171.9930  135.6390 O   0  0  0  0  0  0  0  0  0  0  0  0
  184.9720  171.4350  135.1350 C   0  0  0  0  0  1  0  0  0  0  0  0
  189.7950  175.7880  138.1420 C   0  0  0  0  0  2  0  0  0  0  0  0
  189.7330  176.9330  135.9450 C   0  0  0  0  0  1  0  0  0  0  0  0
  190.6000  176.6090  137.1490 C   0  0  0  0  0  2  0  0  0  0  0  0
  2  9  1  0  0  0  0
  2  1  1  0  0  0  0
  3 15  1  0  0  0  0
  3 25  1  1  0  0  0
  5 21  1  0  0  0  0
  5 11  1  0  0  0  0
  6  3  1  0  0  0  0
  7 20  1  0  0  0  0
  7  9  2  0  0  0  0
  8  7  1  0  0  0  0
  9  4  1  0  0  0  0
 10 12  1  0  0  0  0
 10 22  1  0  0  0  0
 11 12  1  1  0  0  0
 11 19  1  0  0  0  0
 13 42  1  6  0  0  0
 13 23  1  0  0  0  0
 13 22  1  0  0  0  0
 14 10  2  0  0  0  0
 15 18  1  0  0  0  0
 16  5  2  0  0  0  0
 17 20  1  0  0  0  0
 18  2  1  0  0  0  0
 19 17  1  0  0  0  0
 19  8  1  1  0  0  0
 21 29  1  6  0  0  0
 21 24  1  0  0  0  0
 23  6  1  0  0  0  0
 24 17  2  0  0  0  0
 25 26  1  0  0  0  0
 26 27  1  0  0  0  0
 27 28  2  0  0  0  0
 29 30  1  0  0  0  0
 31 32  1  0  0  0  0
 32 30  1  6  0  0  0
 33 37  1  6  0  0  0
 33 31  1  0  0  0  0
 35 34  1  6  0  0  0
 35 33  1  0  0  0  0
 35 36  1  0  0  0  0
 36 32  1  0  0  0  0
 38 37  1  0  0  0  0
 39 37  1  0  0  0  0
 39 40  2  0  0  0  0
 41 39  1  0  0  0  0
 43 44  1  0  0  0  0
 44 42  1  0  0  0  0
M  END
>  <MODEL>
6

>  <REMARK>
 VINA RESULT:      -4.9      2.231      9.107
  Name = 
  9 active torsions:
  status: ('A' for Active; 'I' for Inactive)
    1  A    between atoms: N_2  and  C_27
    2  A    between atoms: C_5  and  C_11
    3  A    between atoms: C_10  and  C_17
    4  A    between atoms: C_10  and  C_24
    5  A    between atoms: C_11  and  C_13
    6  A    between atoms: C_13  and  C_14
    7  A    between atoms: C_23  and  C_38
    8  A    between atoms: C_24  and  C_39
    9  A    between atoms: C_34  and  C_38
                            x       y       z     vdW  Elec       q    Type
                         _______ _______ _______ _____ _____    ______ ____

>  <TORSDO>
F 9

$$$$
=
 OpenBabel10222422013D

 44 47  0  0  1  0  0  0  0  0999 V2000
  193.7880  177.2140  139.2570 O   0  0  0  0  0  1  0  0  0  0  0  0
  192.6900  176.4990  138.9060 N   0  0  0  0  0  0  0  0  0  0  0  0
  193.7740  175.3480  136.2090 C   0  0  1  0  0  3  0  0  0  0  0  0
  191.3330  177.5650  140.7370 C   0  0  0  0  0  1  0  0  0  0  0  0
  187.1070  175.1830  135.4850 C   0  0  0  0  0  0  0  0  0  0  0  0
  194.2890  174.3030  135.2270 C   0  0  0  0  0  2  0  0  0  0  0  0
  190.3080  176.8480  138.6120 C   0  0  0  0  0  0  0  0  0  0  0  0
  190.3570  176.3470  137.1960 C   0  0  0  0  0  2  0  0  0  0  0  0
  191.4100  176.9440  139.3760 C   0  0  0  0  0  0  0  0  0  0  0  0
  190.2510  173.3680  135.6070 C   0  0  0  0  0  0  0  0  0  0  0  0
  188.5860  175.1990  135.7370 C   0  0  2  0  0  3  0  0  0  0  0  0
  189.0230  173.8480  136.3060 C   0  0  0  0  0  2  0  0  0  0  0  0
  192.6060  172.5300  135.8280 C   0  0  2  0  0  3  0  0  0  0  0  0
  190.2640  173.3040  134.3460 O   0  0  0  0  0  0  0  0  0  0  0  0
  194.0590  174.8890  137.6350 C   0  0  0  0  0  2  0  0  0  0  0  0
  186.6850  174.8750  134.3830 O   0  0  0  0  0  0  0  0  0  0  0  0
  188.0030  176.5540  137.7740 C   0  0  0  0  0  0  0  0  0  0  0  0
  192.8550  175.0950  138.5380 C   0  0  0  0  0  2  0  0  0  0  0  0
  188.9440  176.3990  136.6240 C   0  0  1  0  0  3  0  0  0  0  0  0
  188.6860  177.3370  139.2180 S   0  0  0  0  0  0  0  0  0  0  0  0
  186.1390  175.5260  136.5980 C   0  0  2  0  0  3  0  0  0  0  0  0
  191.3720  173.0200  136.3670 O   0  0  0  0  0  0  0  0  0  0  0  0
  193.1650  173.4150  134.7150 C   0  0  0  0  0  2  0  0  0  0  0  0
  186.7800  176.1490  137.7480 N   0  0  0  0  0  0  0  0  0  0  0  0
  194.4030  176.7120  135.9140 C   0  0  0  0  0  2  0  0  0  0  0  0
  195.0700  176.7600  134.5400 C   0  0  0  0  0  2  0  0  0  0  0  0
  196.4920  177.2000  134.6640 C   0  0  0  0  0  3  0  0  0  0  0  0
  197.1640  176.8820  135.6360 O   0  0  0  0  0  0  0  0  0  0  0  0
  185.3870  174.2870  137.0540 C   0  0  0  0  0  2  0  0  0  0  0  0
  183.9130  174.4050  136.7170 C   0  0  0  0  0  2  0  0  0  0  0  0
  182.6350  176.9740  136.8960 S   0  0  0  0  0  0  0  0  0  0  0  0
  183.2740  175.4540  137.5680 C   0  0  1  0  0  3  0  0  0  0  0  0
  181.7020  177.2490  138.4530 C   0  0  1  0  0  3  0  0  0  0  0  0
  181.3990  175.8660  140.3890 O   0  0  0  0  0  1  0  0  0  0  0  0
  182.3710  176.3950  139.5410 C   0  0  1  0  0  3  0  0  0  0  0  0
  183.0800  175.2780  138.8620 C   0  0  0  0  0  2  0  0  0  0  0  0
  181.6120  178.6910  138.7740 N   0  0  0  0  0  0  0  0  0  0  0  0
  182.4880  179.1960  139.8290 C   0  0  0  0  0  1  0  0  0  0  0  0
  180.9640  179.6750  137.9300 C   0  0  0  0  0  0  0  0  0  0  0  0
  180.1410  179.3350  137.0400 O   0  0  0  0  0  0  0  0  0  0  0  0
  181.2330  181.1330  138.1050 C   0  0  0  0  0  1  0  0  0  0  0  0
  192.5570  171.0450  135.4660 C   0  0  0  0  0  2  0  0  0  0  0  0
  193.7950  168.9600  134.9510 C   0  0  0  0  0  1  0  0  0  0  0  0
  193.9270  170.4560  135.1740 C   0  0  0  0  0  2  0  0  0  0  0  0
  2  1  1  0  0  0  0
  2  9  1  0  0  0  0
  3 25  1  6  0  0  0
  3 15  1  0  0  0  0
  5 11  1  0  0  0  0
  5 21  1  0  0  0  0
  6  3  1  0  0  0  0
  7 20  1  0  0  0  0
  7  9  2  0  0  0  0
  8  7  1  0  0  0  0
  9  4  1  0  0  0  0
 10 12  1  0  0  0  0
 10 22  1  0  0  0  0
 11 12  1  1  0  0  0
 11 19  1  0  0  0  0
 13 42  1  6  0  0  0
 13 22  1  0  0  0  0
 14 10  2  0  0  0  0
 15 18  1  0  0  0  0
 16  5  2  0  0  0  0
 17 20  1  0  0  0  0
 18  2  1  0  0  0  0
 19  8  1  1  0  0  0
 19 17  1  0  0  0  0
 21 29  1  1  0  0  0
 21 24  1  0  0  0  0
 23  6  1  0  0  0  0
 23 13  1  0  0  0  0
 24 17  2  0  0  0  0
 26 27  1  0  0  0  0
 26 25  1  0  0  0  0
 27 28  2  0  0  0  0
 30 29  1  0  0  0  0
 31 32  1  0  0  0  0
 31 33  1  0  0  0  0
 32 30  1  6  0  0  0
 32 36  1  0  0  0  0
 33 37  1  1  0  0  0
 33 35  1  0  0  0  0
 35 34  1  1  0  0  0
 36 35  1  0  0  0  0
 37 38  1  0  0  0  0
 39 41  1  0  0  0  0
 39 37  1  0  0  0  0
 40 39  2  0  0  0  0
 43 44  1  0  0  0  0
 44 42  1  0  0  0  0
M  END
>  <MODEL>
7

>  <REMARK>
 VINA RESULT:      -4.9      4.586     10.040
  Name = 
  9 active torsions:
  status: ('A' for Active; 'I' for Inactive)
    1  A    between atoms: N_2  and  C_27
    2  A    between atoms: C_5  and  C_11
    3  A    between atoms: C_10  and  C_17
    4  A    between atoms: C_10  and  C_24
    5  A    between atoms: C_11  and  C_13
    6  A    between atoms: C_13  and  C_14
    7  A    between atoms: C_23  and  C_38
    8  A    between atoms: C_24  and  C_39
    9  A    between atoms: C_34  and  C_38
                            x       y       z     vdW  Elec       q    Type
                         _______ _______ _______ _____ _____    ______ ____

>  <TORSDO>
F 9

$$$$
=
 OpenBabel10222422013D

 44 47  0  0  1  0  0  0  0  0999 V2000
  191.0610  175.6070  137.6550 O   0  0  0  0  0  1  0  0  0  0  0  0
  189.7610  175.7480  138.0150 N   0  0  0  0  0  0  0  0  0  0  0  0
  188.4670  174.7980  135.3340 C   0  0  1  0  0  3  0  0  0  0  0  0
  190.4120  176.9740  140.1140 C   0  0  0  0  0  1  0  0  0  0  0  0
  183.7480  178.6520  138.1400 C   0  0  0  0  0  0  0  0  0  0  0  0
  187.6990  173.8890  134.3820 C   0  0  0  0  0  2  0  0  0  0  0  0
  188.3020  177.4550  138.9320 C   0  0  0  0  0  0  0  0  0  0  0  0
  187.3510  177.3360  137.7740 C   0  0  0  0  0  2  0  0  0  0  0  0
  189.4340  176.7330  139.0060 C   0  0  0  0  0  0  0  0  0  0  0  0
  184.7370  175.3870  136.8930 C   0  0  0  0  0  0  0  0  0  0  0  0
  184.8260  177.7610  137.5970 C   0  0  2  0  0  3  0  0  0  0  0  0
  184.5740  176.3210  138.0450 C   0  0  0  0  0  2  0  0  0  0  0  0
  185.8510  173.3250  135.9960 C   0  0  2  0  0  3  0  0  0  0  0  0
  184.0990  175.6000  135.8240 O   0  0  0  0  0  0  0  0  0  0  0  0
  189.0640  173.9650  136.4620 C   0  0  0  0  0  2  0  0  0  0  0  0
  182.7620  178.8880  137.4610 O   0  0  0  0  0  0  0  0  0  0  0  0
  186.2450  178.7270  139.4360 C   0  0  0  0  0  0  0  0  0  0  0  0
  188.8510  174.6240  137.8150 C   0  0  0  0  0  2  0  0  0  0  0  0
  186.2000  178.3120  138.0020 C   0  0  1  0  0  3  0  0  0  0  0  0
  187.8470  178.6410  140.2050 S   0  0  0  0  0  0  0  0  0  0  0  0
  183.8690  179.2380  139.5300 C   0  0  2  0  0  3  0  0  0  0  0  0
  185.6140  174.3040  137.0150 O   0  0  0  0  0  0  0  0  0  0  0  0
  186.2010  173.9430  134.6440 C   0  0  0  0  0  2  0  0  0  0  0  0
  185.2070  179.1150  140.0940 N   0  0  0  0  0  0  0  0  0  0  0  0
  189.5430  175.5780  134.5720 C   0  0  0  0  0  2  0  0  0  0  0  0
  190.8140  174.7590  134.3590 C   0  0  0  0  0  2  0  0  0  0  0  0
  192.0130  175.6490  134.3460 C   0  0  0  0  0  3  0  0  0  0  0  0
  193.1260  175.2050  134.5950 O   0  0  0  0  0  0  0  0  0  0  0  0
  182.8670  178.5930  140.4730 C   0  0  0  0  0  2  0  0  0  0  0  0
  183.5200  177.4710  141.2560 C   0  0  0  0  0  2  0  0  0  0  0  0
  185.5650  177.3940  143.2760 S   0  0  0  0  0  0  0  0  0  0  0  0
  184.0510  177.9900  142.5530 C   0  0  1  0  0  3  0  0  0  0  0  0
  185.5910  178.8580  144.3820 C   0  0  1  0  0  3  0  0  0  0  0  0
  184.1920  180.8040  144.4780 O   0  0  0  0  0  1  0  0  0  0  0  0
  184.1590  179.4110  144.4410 C   0  0  1  0  0  3  0  0  0  0  0  0
  183.4600  178.9760  143.2030 C   0  0  0  0  0  2  0  0  0  0  0  0
  186.1730  178.5200  145.7020 N   0  0  0  0  0  0  0  0  0  0  0  0
  185.2500  178.4140  146.8290 C   0  0  0  0  0  1  0  0  0  0  0  0
  187.5090  177.9920  145.8920 C   0  0  0  0  0  0  0  0  0  0  0  0
  188.3900  178.0990  144.9990 O   0  0  0  0  0  0  0  0  0  0  0  0
  187.8950  177.3220  147.1690 C   0  0  0  0  0  1  0  0  0  0  0  0
  184.7590  172.2580  135.9190 C   0  0  0  0  0  2  0  0  0  0  0  0
  182.3960  172.2800  136.6660 C   0  0  0  0  0  1  0  0  0  0  0  0
  183.8410  172.2570  137.1300 C   0  0  0  0  0  2  0  0  0  0  0  0
  1  2  1  0  0  0  0
  2  9  1  0  0  0  0
  3 25  1  6  0  0  0
  3 15  1  0  0  0  0
  5 21  1  0  0  0  0
  6 23  1  0  0  0  0
  6  3  1  0  0  0  0
  7  9  2  0  0  0  0
  7 20  1  0  0  0  0
  8  7  1  0  0  0  0
  9  4  1  0  0  0  0
 10 22  1  0  0  0  0
 10 12  1  0  0  0  0
 11 19  1  0  0  0  0
 11 12  1  1  0  0  0
 11  5  1  0  0  0  0
 13 42  1  6  0  0  0
 13 22  1  0  0  0  0
 14 10  2  0  0  0  0
 15 18  1  0  0  0  0
 16  5  2  0  0  0  0
 17 24  2  0  0  0  0
 17 20  1  0  0  0  0
 18  2  1  0  0  0  0
 19  8  1  1  0  0  0
 19 17  1  0  0  0  0
 21 24  1  0  0  0  0
 21 29  1  1  0  0  0
 23 13  1  0  0  0  0
 26 25  1  0  0  0  0
 27 26  1  0  0  0  0
 27 28  2  0  0  0  0
 29 30  1  0  0  0  0
 31 33  1  0  0  0  0
 32 30  1  6  0  0  0
 32 36  1  0  0  0  0
 32 31  1  0  0  0  0
 33 35  1  0  0  0  0
 33 37  1  1  0  0  0
 35 34  1  6  0  0  0
 36 35  1  0  0  0  0
 37 39  1  0  0  0  0
 37 38  1  0  0  0  0
 39 41  1  0  0  0  0
 40 39  2  0  0  0  0
 42 44  1  0  0  0  0
 43 44  1  0  0  0  0
M  END
>  <MODEL>
8

>  <REMARK>
 VINA RESULT:      -4.7      2.638      6.707
  Name = 
  9 active torsions:
  status: ('A' for Active; 'I' for Inactive)
    1  A    between atoms: N_2  and  C_27
    2  A    between atoms: C_5  and  C_11
    3  A    between atoms: C_10  and  C_17
    4  A    between atoms: C_10  and  C_24
    5  A    between atoms: C_11  and  C_13
    6  A    between atoms: C_13  and  C_14
    7  A    between atoms: C_23  and  C_38
    8  A    between atoms: C_24  and  C_39
    9  A    between atoms: C_34  and  C_38
                            x       y       z     vdW  Elec       q    Type
                         _______ _______ _______ _____ _____    ______ ____

>  <TORSDO>
F 9

$$$$
