=
 OpenBabel10232407463D

 25 29  0  0  1  0  0  0  0  0999 V2000
  186.1680  177.9420  144.9980 C   0  0  0  0  0  0  0  0  0  0  0  0
  181.8660  179.2930  141.8830 O   0  0  0  0  0  0  0  0  0  0  0  0
  186.4630  177.6240  142.2840 C   0  0  0  0  0  3  0  0  0  0  0  0
  183.8950  178.8520  146.1690 N   0  0  0  0  0  0  0  0  0  0  0  0
  183.9410  178.7420  144.8010 C   0  0  0  0  0  0  0  0  0  0  0  0
  187.3500  177.4750  144.5310 C   0  0  0  0  0  0  0  0  0  0  0  0
  188.2820  177.2140  145.6810 C   0  0  2  0  0  3  0  0  0  0  0  0
  187.5310  177.2950  143.1530 C   0  0  0  0  0  3  0  0  0  0  0  0
  182.8710  178.9720  142.5670 C   0  0  0  0  0  0  0  0  0  0  0  0
  184.1080  178.4660  141.8620 C   0  0  0  0  0  2  0  0  0  0  0  0
  186.1310  178.0450  146.3450 C   0  0  0  0  0  0  0  0  0  0  0  0
  185.1030  178.2730  144.1840 C   0  0  0  0  0  0  0  0  0  0  0  0
  184.9650  178.5140  146.9590 C   0  0  0  0  0  3  0  0  0  0  0  0
  185.2390  178.1190  142.7960 C   0  0  0  0  0  0  0  0  0  0  0  0
  187.4330  177.5990  146.9290 C   0  0  0  0  0  2  0  0  0  0  0  0
  182.8170  179.0950  143.9960 N   0  0  0  0  0  2  0  0  0  0  0  0
  189.4950  178.1260  145.6040 C   0  0  0  0  0  2  0  0  0  0  0  0
  190.6800  177.4170  146.0620 N   0  0  0  0  0  2  0  0  0  0  0  0
  191.3070  178.8170  143.8620 S   0  0  0  0  0  0  0  0  0  0  0  0
  191.6320  177.4190  144.9650 C   0  0  2  0  0  3  0  0  0  0  0  0
  191.9830  176.4290  142.8120 N   0  0  0  0  0  2  0  0  0  0  0  0
  191.5060  177.7440  142.4010 C   0  0  1  0  0  3  0  0  0  0  0  0
  191.4560  176.1710  144.1410 C   0  0  0  0  0  2  0  0  0  0  0  0
  190.3830  176.8070  140.3810 C   0  0  0  0  0  1  0  0  0  0  0  0
  190.1880  177.6080  141.6530 C   0  0  0  0  0  2  0  0  0  0  0  0
  1 11  1  0  0  0  0
  2  9  2  0  0  0  0
  3 14  2  0  0  0  0
  3  8  1  0  0  0  0
  4 13  1  0  0  0  0
  5  4  2  0  0  0  0
  6  1  1  0  0  0  0
  6  7  1  0  0  0  0
  7 17  1  6  0  0  0
  7 15  1  0  0  0  0
  8  6  2  0  0  0  0
  9 16  1  0  0  0  0
 10  9  1  0  0  0  0
 10 14  1  0  0  0  0
 11 15  1  0  0  0  0
 11 13  2  0  0  0  0
 12  5  1  0  0  0  0
 12  1  2  0  0  0  0
 14 12  1  0  0  0  0
 16  5  1  0  0  0  0
 17 18  1  0  0  0  0
 19 20  1  0  0  0  0
 20 18  1  1  0  0  0
 21 23  1  0  0  0  0
 22 25  1  1  0  0  0
 22 21  1  0  0  0  0
 22 19  1  0  0  0  0
 23 20  1  0  0  0  0
 24 25  1  0  0  0  0
M  END
>  <MODEL>
1

>  <REMARK>
 VINA RESULT:      -9.0      0.000      0.000
  Name = 
  4 active torsions:
  status: ('A' for Active; 'I' for Inactive)
    1  A    between atoms: N_7  and  C_11
    2  A    between atoms: N_7  and  C_20
    3  A    between atoms: C_8  and  C_20
    4  A    between atoms: C_16  and  C_24
                            x       y       z     vdW  Elec       q    Type
                         _______ _______ _______ _____ _____    ______ ____

>  <TORSDO>
F 4

$$$$
=
 OpenBabel10232407463D

 25 29  0  0  1  0  0  0  0  0999 V2000
  189.3870  176.9050  144.3470 C   0  0  0  0  0  0  0  0  0  0  0  0
  187.9980  178.2270  149.4810 O   0  0  0  0  0  0  0  0  0  0  0  0
  186.7520  177.5570  144.7820 C   0  0  0  0  0  3  0  0  0  0  0  0
  191.2720  176.8690  146.2990 N   0  0  0  0  0  0  0  0  0  0  0  0
  189.9850  177.2220  146.6230 C   0  0  0  0  0  0  0  0  0  0  0  0
  188.5370  176.8820  143.2920 C   0  0  0  0  0  0  0  0  0  0  0  0
  189.2790  176.4710  142.0520 C   0  0  2  0  0  3  0  0  0  0  0  0
  187.1860  177.2030  143.4810 C   0  0  0  0  0  3  0  0  0  0  0  0
  188.2810  177.9270  148.2930 C   0  0  0  0  0  0  0  0  0  0  0  0
  187.1900  177.9580  147.2480 C   0  0  0  0  0  2  0  0  0  0  0  0
  190.6500  176.5540  144.0190 C   0  0  0  0  0  0  0  0  0  0  0  0
  189.0030  177.2420  145.6290 C   0  0  0  0  0  0  0  0  0  0  0  0
  191.6300  176.5330  145.0170 C   0  0  0  0  0  3  0  0  0  0  0  0
  187.6620  177.5810  145.8670 C   0  0  0  0  0  0  0  0  0  0  0  0
  190.7330  176.2360  142.5610 C   0  0  0  0  0  2  0  0  0  0  0  0
  189.6300  177.5650  147.9620 N   0  0  0  0  0  2  0  0  0  0  0  0
  189.2850  177.5980  141.0330 C   0  0  0  0  0  2  0  0  0  0  0  0
  189.4660  177.0590  139.6950 N   0  0  0  0  0  2  0  0  0  0  0  0
  187.9870  176.4990  137.5280 S   0  0  0  0  0  0  0  0  0  0  0  0
  188.4410  177.6490  138.8510 C   0  0  2  0  0  3  0  0  0  0  0  0
  188.2040  179.1300  136.9820 N   0  0  0  0  0  2  0  0  0  0  0  0
  188.0270  177.8510  136.3040 C   0  0  1  0  0  3  0  0  0  0  0  0
  188.9880  178.8820  138.1800 C   0  0  0  0  0  2  0  0  0  0  0  0
  189.8770  176.3350  135.5980 C   0  0  0  0  0  1  0  0  0  0  0  0
  189.1520  177.6340  135.3030 C   0  0  0  0  0  2  0  0  0  0  0  0
  1 12  1  0  0  0  0
  3 14  1  0  0  0  0
  4  5  2  0  0  0  0
  5 16  1  0  0  0  0
  6  8  1  0  0  0  0
  6  1  2  0  0  0  0
  7 17  1  6  0  0  0
  7 15  1  0  0  0  0
  7  6  1  0  0  0  0
  8  3  2  0  0  0  0
  9  2  2  0  0  0  0
 10  9  1  0  0  0  0
 11  1  1  0  0  0  0
 11 13  2  0  0  0  0
 12 14  2  0  0  0  0
 12  5  1  0  0  0  0
 13  4  1  0  0  0  0
 14 10  1  0  0  0  0
 15 11  1  0  0  0  0
 16  9  1  0  0  0  0
 18 17  1  0  0  0  0
 19 20  1  0  0  0  0
 20 18  1  1  0  0  0
 21 23  1  0  0  0  0
 22 25  1  6  0  0  0
 22 21  1  0  0  0  0
 22 19  1  0  0  0  0
 23 20  1  0  0  0  0
 25 24  1  0  0  0  0
M  END
>  <MODEL>
2

>  <REMARK>
 VINA RESULT:      -8.7      3.703      6.105
  Name = 
  4 active torsions:
  status: ('A' for Active; 'I' for Inactive)
    1  A    between atoms: N_7  and  C_11
    2  A    between atoms: N_7  and  C_20
    3  A    between atoms: C_8  and  C_20
    4  A    between atoms: C_16  and  C_24
                            x       y       z     vdW  Elec       q    Type
                         _______ _______ _______ _____ _____    ______ ____

>  <TORSDO>
F 4

$$$$
=
 OpenBabel10232407463D

 25 29  0  0  1  0  0  0  0  0999 V2000
  189.3830  176.9660  144.7040 C   0  0  0  0  0  0  0  0  0  0  0  0
  185.0540  178.8640  147.4770 O   0  0  0  0  0  0  0  0  0  0  0  0
  187.0460  177.2630  143.2890 C   0  0  0  0  0  3  0  0  0  0  0  0
  189.6270  177.5380  147.3460 N   0  0  0  0  0  0  0  0  0  0  0  0
  188.4150  177.7340  146.7320 C   0  0  0  0  0  0  0  0  0  0  0  0
  189.3840  176.6430  143.3890 C   0  0  0  0  0  0  0  0  0  0  0  0
  190.7490  176.1580  142.9860 C   0  0  2  0  0  3  0  0  0  0  0  0
  188.2070  176.7760  142.6400 C   0  0  0  0  0  3  0  0  0  0  0  0
  186.0260  178.4250  146.8110 C   0  0  0  0  0  0  0  0  0  0  0  0
  185.8320  178.1170  145.3440 C   0  0  0  0  0  2  0  0  0  0  0  0
  190.5800  176.7680  145.3010 C   0  0  0  0  0  0  0  0  0  0  0  0
  188.2730  177.4420  145.3730 C   0  0  0  0  0  0  0  0  0  0  0  0
  190.7170  177.0600  146.6620 C   0  0  0  0  0  3  0  0  0  0  0  0
  187.0730  177.6020  144.6630 C   0  0  0  0  0  0  0  0  0  0  0  0
  191.5650  176.2360  144.3100 C   0  0  0  0  0  2  0  0  0  0  0  0
  187.2910  178.2280  147.4590 N   0  0  0  0  0  2  0  0  0  0  0  0
  191.3690  177.0940  141.9630 C   0  0  0  0  0  2  0  0  0  0  0  0
  190.6110  177.0470  140.7220 N   0  0  0  0  0  2  0  0  0  0  0  0
  191.0590  176.6360  138.1100 S   0  0  0  0  0  0  0  0  0  0  0  0
  191.5050  177.4650  139.6570 C   0  0  2  0  0  3  0  0  0  0  0  0
  193.6600  176.9590  138.7390 N   0  0  0  0  0  2  0  0  0  0  0  0
  192.8150  176.2810  137.7640 C   0  0  1  0  0  3  0  0  0  0  0  0
  192.9130  177.0390  139.9820 C   0  0  0  0  0  2  0  0  0  0  0  0
  194.5660  174.5070  137.8430 C   0  0  0  0  0  1  0  0  0  0  0  0
  193.0760  174.7830  137.8040 C   0  0  0  0  0  2  0  0  0  0  0  0
  1 11  1  0  0  0  0
  1 12  1  0  0  0  0
  3 14  1  0  0  0  0
  5  4  2  0  0  0  0
  5 16  1  0  0  0  0
  6  1  2  0  0  0  0
  7 17  1  6  0  0  0
  7  6  1  0  0  0  0
  7 15  1  0  0  0  0
  8  3  2  0  0  0  0
  8  6  1  0  0  0  0
  9 16  1  0  0  0  0
  9  2  2  0  0  0  0
 10  9  1  0  0  0  0
 11 13  2  0  0  0  0
 12  5  1  0  0  0  0
 13  4  1  0  0  0  0
 14 10  1  0  0  0  0
 14 12  2  0  0  0  0
 15 11  1  0  0  0  0
 18 17  1  0  0  0  0
 19 20  1  0  0  0  0
 20 23  1  0  0  0  0
 20 18  1  1  0  0  0
 21 23  1  0  0  0  0
 22 25  1  1  0  0  0
 22 19  1  0  0  0  0
 22 21  1  0  0  0  0
 25 24  1  0  0  0  0
M  END
>  <MODEL>
3

>  <REMARK>
 VINA RESULT:      -8.5      2.888      4.708
  Name = 
  4 active torsions:
  status: ('A' for Active; 'I' for Inactive)
    1  A    between atoms: N_7  and  C_11
    2  A    between atoms: N_7  and  C_20
    3  A    between atoms: C_8  and  C_20
    4  A    between atoms: C_16  and  C_24
                            x       y       z     vdW  Elec       q    Type
                         _______ _______ _______ _____ _____    ______ ____

>  <TORSDO>
F 4

$$$$
=
 OpenBabel10232407463D

 25 29  0  0  1  0  0  0  0  0999 V2000
  188.4910  177.4300  143.8970 C   0  0  0  0  0  0  0  0  0  0  0  0
  192.0390  176.7800  148.0230 O   0  0  0  0  0  0  0  0  0  0  0  0
  187.4560  177.5340  146.4410 C   0  0  0  0  0  3  0  0  0  0  0  0
  191.1170  177.0110  143.3560 N   0  0  0  0  0  0  0  0  0  0  0  0
  190.7070  177.0570  144.6650 C   0  0  0  0  0  0  0  0  0  0  0  0
  187.1610  177.6410  144.0410 C   0  0  0  0  0  0  0  0  0  0  0  0
  186.5180  177.7680  142.6880 C   0  0  2  0  0  3  0  0  0  0  0  0
  186.6000  177.6930  145.3240 C   0  0  0  0  0  3  0  0  0  0  0  0
  191.1970  176.9310  147.1010 C   0  0  0  0  0  0  0  0  0  0  0  0
  189.7470  177.1550  147.4600 C   0  0  0  0  0  2  0  0  0  0  0  0
  188.8860  177.3840  142.6050 C   0  0  0  0  0  0  0  0  0  0  0  0
  189.3580  177.2690  144.9600 C   0  0  0  0  0  0  0  0  0  0  0  0
  190.2370  177.1700  142.3150 C   0  0  0  0  0  3  0  0  0  0  0  0
  188.8450  177.3230  146.2650 C   0  0  0  0  0  0  0  0  0  0  0  0
  187.7100  177.5790  141.7030 C   0  0  0  0  0  2  0  0  0  0  0  0
  191.6350  176.8870  145.7350 N   0  0  0  0  0  2  0  0  0  0  0  0
  185.9330  179.1570  142.5020 C   0  0  0  0  0  2  0  0  0  0  0  0
  184.4830  179.1020  142.5830 N   0  0  0  0  0  2  0  0  0  0  0  0
  184.7010  179.0360  139.9110 S   0  0  0  0  0  0  0  0  0  0  0  0
  184.0160  178.3420  141.4370 C   0  0  2  0  0  3  0  0  0  0  0  0
  182.1420  178.1910  139.9510 N   0  0  0  0  0  2  0  0  0  0  0  0
  183.0750  178.9130  139.0940 C   0  0  1  0  0  3  0  0  0  0  0  0
  182.5180  178.4610  141.3280 C   0  0  0  0  0  2  0  0  0  0  0  0
  181.1100  180.1970  138.2530 C   0  0  0  0  0  1  0  0  0  0  0  0
  182.5280  180.2970  138.7800 C   0  0  0  0  0  2  0  0  0  0  0  0
  1  6  2  0  0  0  0
  1 12  1  0  0  0  0
  4  5  2  0  0  0  0
  5 12  1  0  0  0  0
  5 16  1  0  0  0  0
  6  8  1  0  0  0  0
  7 17  1  1  0  0  0
  7  6  1  0  0  0  0
  8  3  2  0  0  0  0
  9 10  1  0  0  0  0
  9  2  2  0  0  0  0
 11  1  1  0  0  0  0
 12 14  2  0  0  0  0
 13 11  2  0  0  0  0
 13  4  1  0  0  0  0
 14  3  1  0  0  0  0
 14 10  1  0  0  0  0
 15 11  1  0  0  0  0
 15  7  1  0  0  0  0
 16  9  1  0  0  0  0
 17 18  1  0  0  0  0
 19 20  1  0  0  0  0
 20 18  1  1  0  0  0
 21 23  1  0  0  0  0
 22 25  1  1  0  0  0
 22 19  1  0  0  0  0
 22 21  1  0  0  0  0
 23 20  1  0  0  0  0
 24 25  1  0  0  0  0
M  END
>  <MODEL>
4

>  <REMARK>
 VINA RESULT:      -8.4      3.480      7.380
  Name = 
  4 active torsions:
  status: ('A' for Active; 'I' for Inactive)
    1  A    between atoms: N_7  and  C_11
    2  A    between atoms: N_7  and  C_20
    3  A    between atoms: C_8  and  C_20
    4  A    between atoms: C_16  and  C_24
                            x       y       z     vdW  Elec       q    Type
                         _______ _______ _______ _____ _____    ______ ____

>  <TORSDO>
F 4

$$$$
=
 OpenBabel10232407463D

 25 29  0  0  1  0  0  0  0  0999 V2000
  185.6360  178.4000  144.1040 C   0  0  0  0  0  0  0  0  0  0  0  0
  189.4970  176.8960  147.6910 O   0  0  0  0  0  0  0  0  0  0  0  0
  188.0770  177.6850  143.0610 C   0  0  0  0  0  3  0  0  0  0  0  0
  185.0790  178.4120  146.7600 N   0  0  0  0  0  0  0  0  0  0  0  0
  186.3290  178.0250  146.3440 C   0  0  0  0  0  0  0  0  0  0  0  0
  185.7960  178.4380  142.7600 C   0  0  0  0  0  0  0  0  0  0  0  0
  184.5220  178.9020  142.1100 C   0  0  2  0  0  3  0  0  0  0  0  0
  187.0300  178.0860  142.1960 C   0  0  0  0  0  3  0  0  0  0  0  0
  188.6350  177.2370  146.8400 C   0  0  0  0  0  0  0  0  0  0  0  0
  189.0030  177.2180  145.3750 C   0  0  0  0  0  2  0  0  0  0  0  0
  184.4040  178.7850  144.5040 C   0  0  0  0  0  0  0  0  0  0  0  0
  186.6320  178.0160  144.9800 C   0  0  0  0  0  0  0  0  0  0  0  0
  184.1050  178.7940  145.8700 C   0  0  0  0  0  3  0  0  0  0  0  0
  187.8820  177.6450  144.4630 C   0  0  0  0  0  0  0  0  0  0  0  0
  183.5700  179.1490  143.3180 C   0  0  0  0  0  2  0  0  0  0  0  0
  187.3300  177.6350  147.2830 N   0  0  0  0  0  2  0  0  0  0  0  0
  183.9390  177.8060  141.2330 C   0  0  0  0  0  2  0  0  0  0  0  0
  184.1390  178.1330  139.8300 N   0  0  0  0  0  2  0  0  0  0  0  0
  181.5710  178.8340  139.4990 S   0  0  0  0  0  0  0  0  0  0  0  0
  182.9440  177.7170  139.1180 C   0  0  2  0  0  3  0  0  0  0  0  0
  181.1100  176.1850  139.3080 N   0  0  0  0  0  2  0  0  0  0  0  0
  180.4420  177.4170  139.7100 C   0  0  1  0  0  3  0  0  0  0  0  0
  182.5270  176.3470  139.5880 C   0  0  0  0  0  2  0  0  0  0  0  0
  180.2170  178.6200  141.8830 C   0  0  0  0  0  1  0  0  0  0  0  0
  179.9820  177.3100  141.1560 C   0  0  0  0  0  2  0  0  0  0  0  0
  1 11  1  0  0  0  0
  1 12  1  0  0  0  0
  3 14  1  0  0  0  0
  5  4  2  0  0  0  0
  5 16  1  0  0  0  0
  6  1  2  0  0  0  0
  7 17  1  6  0  0  0
  7  6  1  0  0  0  0
  7 15  1  0  0  0  0
  8  6  1  0  0  0  0
  8  3  2  0  0  0  0
  9 16  1  0  0  0  0
  9  2  2  0  0  0  0
 10  9  1  0  0  0  0
 11 13  2  0  0  0  0
 12  5  1  0  0  0  0
 13  4  1  0  0  0  0
 14 12  2  0  0  0  0
 14 10  1  0  0  0  0
 15 11  1  0  0  0  0
 18 17  1  0  0  0  0
 19 22  1  0  0  0  0
 20 19  1  0  0  0  0
 20 23  1  0  0  0  0
 20 18  1  1  0  0  0
 21 23  1  0  0  0  0
 21 22  1  0  0  0  0
 22 25  1  1  0  0  0
 25 24  1  0  0  0  0
M  END
>  <MODEL>
5

>  <REMARK>
 VINA RESULT:      -8.3      3.724      7.096
  Name = 
  4 active torsions:
  status: ('A' for Active; 'I' for Inactive)
    1  A    between atoms: N_7  and  C_11
    2  A    between atoms: N_7  and  C_20
    3  A    between atoms: C_8  and  C_20
    4  A    between atoms: C_16  and  C_24
                            x       y       z     vdW  Elec       q    Type
                         _______ _______ _______ _____ _____    ______ ____

>  <TORSDO>
F 4

$$$$
=
 OpenBabel10232407463D

 25 29  0  0  1  0  0  0  0  0999 V2000
  185.6840  178.1340  144.3910 C   0  0  0  0  0  0  0  0  0  0  0  0
  184.8570  179.4940  139.1460 O   0  0  0  0  0  0  0  0  0  0  0  0
  187.6090  177.3450  142.5940 C   0  0  0  0  0  3  0  0  0  0  0  0
  183.4460  179.5020  143.6950 N   0  0  0  0  0  0  0  0  0  0  0  0
  184.3510  179.1660  142.7190 C   0  0  0  0  0  0  0  0  0  0  0  0
  186.7570  177.4520  144.8570 C   0  0  0  0  0  0  0  0  0  0  0  0
  186.6320  177.2650  146.3440 C   0  0  2  0  0  3  0  0  0  0  0  0
  187.7530  177.0290  143.9670 C   0  0  0  0  0  3  0  0  0  0  0  0
  185.0770  179.1640  140.3400 C   0  0  0  0  0  0  0  0  0  0  0  0
  186.3370  178.3970  140.6690 C   0  0  0  0  0  2  0  0  0  0  0  0
  184.7980  178.4590  145.3580 C   0  0  0  0  0  0  0  0  0  0  0  0
  185.5060  178.4600  143.0610 C   0  0  0  0  0  0  0  0  0  0  0  0
  183.6410  179.1640  145.0120 C   0  0  0  0  0  3  0  0  0  0  0  0
  186.4820  178.0670  142.1320 C   0  0  0  0  0  0  0  0  0  0  0  0
  185.2750  177.9520  146.6810 C   0  0  0  0  0  2  0  0  0  0  0  0
  184.1290  179.5230  141.3550 N   0  0  0  0  0  2  0  0  0  0  0  0
  187.7520  177.9920  147.0700 C   0  0  0  0  0  2  0  0  0  0  0  0
  188.6060  177.0330  147.7530 N   0  0  0  0  0  2  0  0  0  0  0  0
  190.1070  178.1450  145.8280 S   0  0  0  0  0  0  0  0  0  0  0  0
  189.9810  177.4110  147.4790 C   0  0  2  0  0  3  0  0  0  0  0  0
  192.0390  176.4730  146.6860 N   0  0  0  0  0  2  0  0  0  0  0  0
  191.6070  177.1680  145.4790 C   0  0  1  0  0  3  0  0  0  0  0  0
  190.8510  176.1810  147.4690 C   0  0  0  0  0  2  0  0  0  0  0  0
  191.3890  176.8480  143.0160 C   0  0  0  0  0  1  0  0  0  0  0  0
  191.3440  176.1630  144.3680 C   0  0  0  0  0  2  0  0  0  0  0  0
  1  6  1  0  0  0  0
  1 11  1  0  0  0  0
  2  9  2  0  0  0  0
  3  8  1  0  0  0  0
  4 13  1  0  0  0  0
  5 12  1  0  0  0  0
  5  4  2  0  0  0  0
  6  7  1  0  0  0  0
  7 15  1  0  0  0  0
  7 17  1  1  0  0  0
  8  6  2  0  0  0  0
  9 10  1  0  0  0  0
  9 16  1  0  0  0  0
 10 14  1  0  0  0  0
 11 15  1  0  0  0  0
 12  1  2  0  0  0  0
 13 11  2  0  0  0  0
 14  3  2  0  0  0  0
 14 12  1  0  0  0  0
 16  5  1  0  0  0  0
 17 18  1  0  0  0  0
 19 20  1  0  0  0  0
 20 18  1  6  0  0  0
 21 23  1  0  0  0  0
 22 25  1  6  0  0  0
 22 19  1  0  0  0  0
 22 21  1  0  0  0  0
 23 20  1  0  0  0  0
 24 25  1  0  0  0  0
M  END
>  <MODEL>
6

>  <REMARK>
 VINA RESULT:      -8.2      1.744      2.523
  Name = 
  4 active torsions:
  status: ('A' for Active; 'I' for Inactive)
    1  A    between atoms: N_7  and  C_11
    2  A    between atoms: N_7  and  C_20
    3  A    between atoms: C_8  and  C_20
    4  A    between atoms: C_16  and  C_24
                            x       y       z     vdW  Elec       q    Type
                         _______ _______ _______ _____ _____    ______ ____

>  <TORSDO>
F 4

$$$$
=
 OpenBabel10232407463D

 25 29  0  0  1  0  0  0  0  0999 V2000
  185.7720  178.4010  144.3790 C   0  0  0  0  0  0  0  0  0  0  0  0
  189.9550  176.5440  147.3940 O   0  0  0  0  0  0  0  0  0  0  0  0
  188.0220  177.6120  143.0120 C   0  0  0  0  0  3  0  0  0  0  0  0
  185.5470  178.3210  147.0830 N   0  0  0  0  0  0  0  0  0  0  0  0
  186.7130  177.8910  146.4990 C   0  0  0  0  0  0  0  0  0  0  0  0
  185.7670  178.4920  143.0280 C   0  0  0  0  0  0  0  0  0  0  0  0
  184.4500  179.0480  142.5620 C   0  0  2  0  0  3  0  0  0  0  0  0
  186.9000  178.1040  142.3010 C   0  0  0  0  0  3  0  0  0  0  0  0
  189.0160  176.9670  146.6720 C   0  0  0  0  0  0  0  0  0  0  0  0
  189.1980  176.9950  145.1720 C   0  0  0  0  0  2  0  0  0  0  0  0
  184.6210  178.8290  144.9450 C   0  0  0  0  0  0  0  0  0  0  0  0
  186.8440  177.9290  145.1090 C   0  0  0  0  0  0  0  0  0  0  0  0
  184.4940  178.7910  146.3380 C   0  0  0  0  0  3  0  0  0  0  0  0
  187.9990  177.5190  144.4250 C   0  0  0  0  0  0  0  0  0  0  0  0
  183.6690  179.2870  143.8880 C   0  0  0  0  0  2  0  0  0  0  0  0
  187.7990  177.4090  147.2900 N   0  0  0  0  0  2  0  0  0  0  0  0
  183.7040  178.0240  141.7230 C   0  0  0  0  0  2  0  0  0  0  0  0
  182.3120  178.4180  141.5780 N   0  0  0  0  0  2  0  0  0  0  0  0
  182.6670  176.6380  139.6040 S   0  0  0  0  0  0  0  0  0  0  0  0
  181.9420  178.1890  140.1920 C   0  0  2  0  0  3  0  0  0  0  0  0
  182.6180  178.7820  137.9710 N   0  0  0  0  0  2  0  0  0  0  0  0
  183.1750  177.4360  138.0450 C   0  0  1  0  0  3  0  0  0  0  0  0
  182.5130  179.2850  139.3300 C   0  0  0  0  0  2  0  0  0  0  0  0
  185.1350  177.2850  136.5100 C   0  0  0  0  0  1  0  0  0  0  0  0
  184.6920  177.4970  137.9450 C   0  0  0  0  0  2  0  0  0  0  0  0
  1 11  1  0  0  0  0
  1 12  1  0  0  0  0
  3 14  1  0  0  0  0
  5  4  2  0  0  0  0
  5 16  1  0  0  0  0
  6  1  2  0  0  0  0
  7 17  1  6  0  0  0
  7  6  1  0  0  0  0
  7 15  1  0  0  0  0
  8  3  2  0  0  0  0
  8  6  1  0  0  0  0
  9 16  1  0  0  0  0
  9  2  2  0  0  0  0
 10  9  1  0  0  0  0
 11 13  2  0  0  0  0
 12  5  1  0  0  0  0
 13  4  1  0  0  0  0
 14 12  2  0  0  0  0
 14 10  1  0  0  0  0
 15 11  1  0  0  0  0
 18 17  1  0  0  0  0
 19 20  1  0  0  0  0
 20 18  1  1  0  0  0
 21 22  1  0  0  0  0
 21 23  1  0  0  0  0
 22 25  1  1  0  0  0
 22 19  1  0  0  0  0
 23 20  1  0  0  0  0
 24 25  1  0  0  0  0
M  END
>  <MODEL>
7

>  <REMARK>
 VINA RESULT:      -8.2      3.731      6.631
  Name = 
  4 active torsions:
  status: ('A' for Active; 'I' for Inactive)
    1  A    between atoms: N_7  and  C_11
    2  A    between atoms: N_7  and  C_20
    3  A    between atoms: C_8  and  C_20
    4  A    between atoms: C_16  and  C_24
                            x       y       z     vdW  Elec       q    Type
                         _______ _______ _______ _____ _____    ______ ____

>  <TORSDO>
F 4

$$$$
=
 OpenBabel10232407463D

 25 29  0  0  1  0  0  0  0  0999 V2000
  189.3000  176.9540  144.3400 C   0  0  0  0  0  0  0  0  0  0  0  0
  187.9770  178.2180  149.5060 O   0  0  0  0  0  0  0  0  0  0  0  0
  186.6650  177.5660  144.8230 C   0  0  0  0  0  3  0  0  0  0  0  0
  191.2170  176.9300  146.2620 N   0  0  0  0  0  0  0  0  0  0  0  0
  189.9310  177.2620  146.6090 C   0  0  0  0  0  0  0  0  0  0  0  0
  188.4350  176.9280  143.3000 C   0  0  0  0  0  0  0  0  0  0  0  0
  189.1620  176.5360  142.0440 C   0  0  2  0  0  3  0  0  0  0  0  0
  187.0820  177.2280  143.5130 C   0  0  0  0  0  3  0  0  0  0  0  0
  188.2450  177.9310  148.3110 C   0  0  0  0  0  0  0  0  0  0  0  0
  187.1370  177.9540  147.2840 C   0  0  0  0  0  2  0  0  0  0  0  0
  190.5640  176.6240  143.9900 C   0  0  0  0  0  0  0  0  0  0  0  0
  188.9330  177.2770  145.6310 C   0  0  0  0  0  0  0  0  0  0  0  0
  191.5600  176.6090  144.9710 C   0  0  0  0  0  3  0  0  0  0  0  0
  187.5920  177.5950  145.8930 C   0  0  0  0  0  0  0  0  0  0  0  0
  190.6260  176.3170  142.5280 C   0  0  0  0  0  2  0  0  0  0  0  0
  189.5930  177.5900  147.9560 N   0  0  0  0  0  2  0  0  0  0  0  0
  189.1360  177.6710  141.0340 C   0  0  0  0  0  2  0  0  0  0  0  0
  188.7800  177.1600  139.7200 N   0  0  0  0  0  2  0  0  0  0  0  0
  186.3650  178.3270  139.7580 S   0  0  0  0  0  0  0  0  0  0  0  0
  188.0240  178.2000  139.0440 C   0  0  2  0  0  3  0  0  0  0  0  0
  186.6810  178.5430  137.0900 N   0  0  0  0  0  2  0  0  0  0  0  0
  185.6280  178.4300  138.0920 C   0  0  1  0  0  3  0  0  0  0  0  0
  187.8420  177.8310  137.5950 C   0  0  0  0  0  2  0  0  0  0  0  0
  184.3240  177.1970  136.3610 C   0  0  0  0  0  1  0  0  0  0  0  0
  184.7720  177.2050  137.8090 C   0  0  0  0  0  2  0  0  0  0  0  0
  1 12  1  0  0  0  0
  3 14  1  0  0  0  0
  4  5  2  0  0  0  0
  5 16  1  0  0  0  0
  6  8  1  0  0  0  0
  6  1  2  0  0  0  0
  7 17  1  6  0  0  0
  7 15  1  0  0  0  0
  7  6  1  0  0  0  0
  8  3  2  0  0  0  0
  9  2  2  0  0  0  0
 10  9  1  0  0  0  0
 11  1  1  0  0  0  0
 11 13  2  0  0  0  0
 12 14  2  0  0  0  0
 12  5  1  0  0  0  0
 13  4  1  0  0  0  0
 14 10  1  0  0  0  0
 15 11  1  0  0  0  0
 16  9  1  0  0  0  0
 18 17  1  0  0  0  0
 20 18  1  1  0  0  0
 20 19  1  0  0  0  0
 21 23  1  0  0  0  0
 21 22  1  0  0  0  0
 22 25  1  6  0  0  0
 22 19  1  0  0  0  0
 23 20  1  0  0  0  0
 24 25  1  0  0  0  0
M  END
>  <MODEL>
8

>  <REMARK>
 VINA RESULT:      -8.2      3.672      6.227
  Name = 
  4 active torsions:
  status: ('A' for Active; 'I' for Inactive)
    1  A    between atoms: N_7  and  C_11
    2  A    between atoms: N_7  and  C_20
    3  A    between atoms: C_8  and  C_20
    4  A    between atoms: C_16  and  C_24
                            x       y       z     vdW  Elec       q    Type
                         _______ _______ _______ _____ _____    ______ ____

>  <TORSDO>
F 4

$$$$
=
 OpenBabel10232407463D

 25 29  0  0  1  0  0  0  0  0999 V2000
  185.7390  178.4500  144.4150 C   0  0  0  0  0  0  0  0  0  0  0  0
  190.7830  176.5280  145.3640 O   0  0  0  0  0  0  0  0  0  0  0  0
  187.3510  178.0840  142.2200 C   0  0  0  0  0  3  0  0  0  0  0  0
  186.5220  177.9340  146.9620 N   0  0  0  0  0  0  0  0  0  0  0  0
  187.4040  177.7040  145.9350 C   0  0  0  0  0  0  0  0  0  0  0  0
  185.2370  178.7480  143.1940 C   0  0  0  0  0  0  0  0  0  0  0  0
  183.8270  179.2500  143.3330 C   0  0  2  0  0  3  0  0  0  0  0  0
  186.0350  178.5790  142.0540 C   0  0  0  0  0  3  0  0  0  0  0  0
  189.6330  176.9720  145.1100 C   0  0  0  0  0  0  0  0  0  0  0  0
  189.2530  177.2470  143.6740 C   0  0  0  0  0  2  0  0  0  0  0  0
  184.8650  178.6820  145.4200 C   0  0  0  0  0  0  0  0  0  0  0  0
  187.0160  177.9680  144.6190 C   0  0  0  0  0  0  0  0  0  0  0  0
  185.2580  178.4180  146.7370 C   0  0  0  0  0  3  0  0  0  0  0  0
  187.8510  177.7720  143.5080 C   0  0  0  0  0  0  0  0  0  0  0  0
  183.5800  179.2120  144.8700 C   0  0  0  0  0  2  0  0  0  0  0  0
  188.7160  177.2040  146.1890 N   0  0  0  0  0  2  0  0  0  0  0  0
  182.8530  178.3060  142.6490 C   0  0  0  0  0  2  0  0  0  0  0  0
  181.4890  178.7740  142.8390 N   0  0  0  0  0  2  0  0  0  0  0  0
  181.9280  177.9370  140.3290 S   0  0  0  0  0  0  0  0  0  0  0  0
  180.7990  178.6170  141.5710 C   0  0  2  0  0  3  0  0  0  0  0  0
  180.1920  179.8750  139.6230 N   0  0  0  0  0  2  0  0  0  0  0  0
  181.3350  179.1400  139.0930 C   0  0  1  0  0  3  0  0  0  0  0  0
  180.3640  179.9670  141.0630 C   0  0  0  0  0  2  0  0  0  0  0  0
  183.7850  179.5960  139.2040 C   0  0  0  0  0  1  0  0  0  0  0  0
  182.4450  180.1100  138.7150 C   0  0  0  0  0  2  0  0  0  0  0  0
  1 12  1  0  0  0  0
  1 11  1  0  0  0  0
  3 14  1  0  0  0  0
  5 16  1  0  0  0  0
  5  4  2  0  0  0  0
  6  7  1  0  0  0  0
  6  1  2  0  0  0  0
  7 17  1  6  0  0  0
  7 15  1  0  0  0  0
  8  3  2  0  0  0  0
  8  6  1  0  0  0  0
  9  2  2  0  0  0  0
  9 16  1  0  0  0  0
 10  9  1  0  0  0  0
 11 13  2  0  0  0  0
 12  5  1  0  0  0  0
 13  4  1  0  0  0  0
 14 10  1  0  0  0  0
 14 12  2  0  0  0  0
 15 11  1  0  0  0  0
 17 18  1  0  0  0  0
 19 20  1  0  0  0  0
 20 18  1  1  0  0  0
 21 23  1  0  0  0  0
 22 25  1  1  0  0  0
 22 21  1  0  0  0  0
 22 19  1  0  0  0  0
 23 20  1  0  0  0  0
 25 24  1  0  0  0  0
M  END
>  <MODEL>
9

>  <REMARK>
 VINA RESULT:      -8.2      3.518      7.116
  Name = 
  4 active torsions:
  status: ('A' for Active; 'I' for Inactive)
    1  A    between atoms: N_7  and  C_11
    2  A    between atoms: N_7  and  C_20
    3  A    between atoms: C_8  and  C_20
    4  A    between atoms: C_16  and  C_24
                            x       y       z     vdW  Elec       q    Type
                         _______ _______ _______ _____ _____    ______ ____

>  <TORSDO>
F 4

$$$$
