=
 OpenBabel10232410083D

 65 69  0  0  1  0  0  0  0  0999 V2000
  189.7120  177.7370  140.5180 C   0  0  0  0  0  0  0  0  0  0  0  0
  192.0860  177.0510  141.1150 C   0  0  0  0  0  1  0  0  0  0  0  0
  189.2780  178.3640  141.6070 C   0  0  0  0  0  0  0  0  0  0  0  0
  190.9170  177.0710  140.1950 C   0  0  0  0  0  0  0  0  0  0  0  0
  188.6610  177.7570  139.6400 C   0  0  0  0  0  0  0  0  0  0  0  0
  188.7600  177.1010  138.4250 C   0  0  0  0  0  0  0  0  0  0  0  0
  187.9140  178.7660  141.3950 N   0  0  0  0  0  0  0  0  0  0  0  0
  190.9950  176.4200  138.9880 N   0  0  0  0  0  0  0  0  0  0  0  0
  188.4590  176.1210  136.4740 C   0  0  0  0  0  0  0  0  0  0  0  0
  189.8130  175.8230  136.9720 C   0  0  0  0  0  0  0  0  0  0  0  0
  187.5470  178.4100  140.2270 N   0  0  0  0  0  0  0  0  0  0  0  0
  187.7990  176.8880  137.3480 C   0  0  0  0  0  3  0  0  0  0  0  0
  189.9280  176.4390  138.1320 C   0  0  0  0  0  0  0  0  0  0  0  0
  187.8640  175.5940  135.2140 C   0  0  0  0  0  2  0  0  0  0  0  0
  186.7970  174.6550  135.5210 N   0  0  0  0  0  2  0  0  0  0  0  0
  187.4170  173.3500  135.6630 C   0  0  0  0  0  2  0  0  0  0  0  0
  186.6320  172.5300  136.5690 N   0  0  0  0  0  2  0  0  0  0  0  0
  185.2940  172.4450  136.0100 C   0  0  0  0  0  2  0  0  0  0  0  0
  183.5020  171.1730  137.0040 O   0  0  0  0  0  1  0  0  0  0  0  0
  184.2560  172.3450  137.1250 C   0  0  2  0  0  3  0  0  0  0  0  0
  183.3820  173.5180  137.1540 N   0  0  0  0  0  2  0  0  0  0  0  0
  184.0270  174.6190  137.8690 C   0  0  0  0  0  2  0  0  0  0  0  0
  183.0060  175.6710  138.3130 C   0  0  1  0  0  3  0  0  0  0  0  0
  183.6860  177.8450  139.4350 N   0  0  0  0  0  0  0  0  0  0  0  0
  184.2740  179.1740  139.3970 C   0  0  0  0  0  1  0  0  0  0  0  0
  183.2510  177.3530  140.6200 O   0  0  0  0  0  1  0  0  0  0  0  0
  183.8860  177.5560  137.1250 O   0  0  0  0  0  0  0  0  0  0  0  0
  183.5580  177.0640  138.2390 C   0  0  0  0  0  0  0  0  0  0  0  0
  181.6870  175.5620  137.5600 C   0  0  0  0  0  2  0  0  0  0  0  0
  180.1070  177.3300  137.4030 O   0  0  0  0  0  1  0  0  0  0  0  0
  180.6110  176.3600  138.2690 C   0  0  0  0  0  2  0  0  0  0  0  0
  189.9900  178.4640  142.9190 C   0  0  2  0  0  3  0  0  0  0  0  0
  190.9720  179.4590  142.8390 O   0  0  0  0  0  0  0  0  0  0  0  0
  191.3700  179.6890  144.1600 C   0  0  0  0  0  1  0  0  0  0  0  0
  190.6370  177.1290  143.2640 C   0  0  0  0  0  2  0  0  0  0  0  0
  188.5960  175.6610  143.3100 C   0  0  0  0  0  2  0  0  0  0  0  0
  187.5690  177.0540  144.9640 C   0  0  1  0  0  3  0  0  0  0  0  0
  187.3890  176.5340  143.5580 C   0  0  0  0  0  2  0  0  0  0  0  0
  189.7260  176.2680  144.1310 C   0  0  2  0  0  3  0  0  0  0  0  0
  189.0680  177.1500  145.1830 C   0  0  0  0  0  2  0  0  0  0  0  0
  186.9790  178.3270  145.0840 O   0  0  0  0  0  0  0  0  0  0  0  0
  185.6570  176.9710  146.4240 O   0  0  0  0  0  1  0  0  0  0  0  0
  185.9520  178.2970  146.0640 C   0  0  2  0  0  0  0  0  0  0  0  0
  183.6850  178.9700  146.1640 O   0  0  0  0  0  0  0  0  0  0  0  0
  184.7010  178.9130  145.4890 C   0  0  0  0  0  0  0  0  0  0  0  0
  184.6700  179.5870  143.8250 S   0  0  0  0  0  1  0  0  0  0  0  0
  187.3680  178.6340  148.1090 O   0  0  0  0  0  1  0  0  0  0  0  0
  186.3520  179.0960  147.2810 C   0  0  0  0  0  0  0  0  0  0  0  0
  185.8140  180.2070  147.5240 O   0  0  0  0  0  0  0  0  0  0  0  0
  190.8380  174.9560  136.3230 C   0  0  0  0  0  2  0  0  0  0  0  0
  191.8110  175.9170  135.1300 S   0  0  0  0  0  0  0  0  0  0  0  0
  193.1370  176.1550  136.3440 C   0  0  0  0  0  2  0  0  0  0  0  0
  195.1950  175.2660  138.0750 O   0  0  0  0  0  0  0  0  0  0  0  0
  195.3070  174.9910  136.8470 C   0  0  0  0  0  0  0  0  0  0  0  0
  194.3270  175.4440  135.9120 N   0  0  0  0  0  2  0  0  0  0  0  0
  196.4730  174.1800  136.3590 C   0  0  2  0  0  3  0  0  0  0  0  0
  195.1740  172.2540  136.9070 C   0  0  0  0  0  2  0  0  0  0  0  0
  196.5130  172.8480  136.9900 N   0  0  0  0  0  0  0  0  0  0  0  0
  197.4450  170.5830  136.8630 C   0  0  0  0  0  2  0  0  0  0  0  0
  195.1820  170.8660  137.5400 C   0  0  0  0  0  2  0  0  0  0  0  0
  196.1060  170.0000  136.8090 N   0  0  0  0  0  2  0  0  0  0  0  0
  197.4240  171.9760  136.2350 C   0  0  0  0  0  2  0  0  0  0  0  0
  198.1790  175.7260  135.7130 O   0  0  0  0  0  0  0  0  0  0  0  0
  198.4290  174.8450  137.8450 N   0  0  0  0  0  1  0  0  0  0  0  0
  197.7370  174.9600  136.6070 C   0  0  0  0  0  0  0  0  0  0  0  0
  1  3  2  0  0  0  0
  3 32  1  0  0  0  0
  4  1  1  0  0  0  0
  4  2  1  0  0  0  0
  5 11  1  0  0  0  0
  5  1  1  0  0  0  0
  6  5  2  0  0  0  0
  7  3  1  0  0  0  0
  8  4  2  0  0  0  0
  9 10  1  0  0  0  0
  9 12  2  0  0  0  0
 10 13  2  0  0  0  0
 11  7  2  0  0  0  0
 12  6  1  0  0  0  0
 13  6  1  0  0  0  0
 13  8  1  0  0  0  0
 14 15  1  0  0  0  0
 14  9  1  0  0  0  0
 15 16  1  0  0  0  0
 16 17  1  0  0  0  0
 18 17  1  0  0  0  0
 18 20  1  0  0  0  0
 20 19  1  6  0  0  0
 20 21  1  0  0  0  0
 21 22  1  0  0  0  0
 22 23  1  0  0  0  0
 23 29  1  6  0  0  0
 24 26  1  0  0  0  0
 25 24  1  0  0  0  0
 27 28  2  0  0  0  0
 28 23  1  0  0  0  0
 28 24  1  0  0  0  0
 29 31  1  0  0  0  0
 30 31  1  0  0  0  0
 32 35  1  6  0  0  0
 33 32  1  0  0  0  0
 33 34  1  0  0  0  0
 36 38  1  0  0  0  0
 36 39  1  0  0  0  0
 37 41  1  6  0  0  0
 37 40  1  0  0  0  0
 38 37  1  0  0  0  0
 39 35  1  6  0  0  0
 39 40  1  0  0  0  0
 41 43  1  0  0  0  0
 43 42  1  1  0  0  0
 43 48  1  0  0  0  0
 45 43  1  0  0  0  0
 45 44  2  0  0  0  0
 46 45  1  0  0  0  0
 48 49  2  0  0  0  0
 48 47  1  0  0  0  0
 50 10  1  0  0  0  0
 51 50  1  0  0  0  0
 51 52  1  0  0  0  0
 54 53  2  0  0  0  0
 55 52  1  0  0  0  0
 55 54  1  0  0  0  0
 56 65  1  1  0  0  0
 56 54  1  0  0  0  0
 56 58  1  0  0  0  0
 57 58  1  0  0  0  0
 57 60  1  0  0  0  0
 61 59  1  0  0  0  0
 61 60  1  0  0  0  0
 62 59  1  0  0  0  0
 62 58  1  0  0  0  0
 63 65  2  0  0  0  0
 65 64  1  0  0  0  0
M  END
>  <MODEL>
1

>  <REMARK>
 VINA RESULT:      -6.0      0.000      0.000
  Name = 
  27 active torsions:
  status: ('A' for Active; 'I' for Inactive)
    1  A    between atoms: C_4  and  C_12
    2  A    between atoms: N_9  and  C_25
    3  A    between atoms: N_9  and  C_52
    4  A    between atoms: C_11  and  C_36
    5  A    between atoms: C_11  and  S_62
    6  A    between atoms: C_12  and  C_23
    7  A    between atoms: C_12  and  O_42
    8  A    between atoms: C_14  and  N_21
    9  A    between atoms: C_14  and  C_33
   10  A    between atoms: C_14  and  C_40
   11  A    between atoms: C_15  and  C_54
   12  A    between atoms: C_15  and  C_65
   13  A    between atoms: C_19  and  C_27
   14  A    between atoms: C_19  and  C_31
   15  A    between atoms: C_19  and  O_43
   16  A    between atoms: C_23  and  C_55
   17  A    between atoms: C_25  and  C_29
   18  A    between atoms: C_34  and  O_43
   19  A    between atoms: C_48  and  N_49
   20  A    between atoms: C_48  and  C_53
   21  A    between atoms: N_49  and  C_59
   22  A    between atoms: C_52  and  N_61
   23  A    between atoms: C_53  and  N_61
   24  A    between atoms: C_54  and  C_57
   25  A    between atoms: C_54  and  C_59
   26  A    between atoms: C_60  and  S_62
   27  A    between atoms: C_60  and  N_63
                            x       y       z     vdW  Elec       q    Type
                         _______ _______ _______ _____ _____    ______ ____

>  <TORSDO>
F 27

$$$$
=
 OpenBabel10232410083D

 65 69  0  0  1  0  0  0  0  0999 V2000
  185.0230  178.1960  138.3140 C   0  0  0  0  0  0  0  0  0  0  0  0
  183.8450  177.3560  136.2240 C   0  0  0  0  0  1  0  0  0  0  0  0
  184.0770  178.8630  138.9670 C   0  0  0  0  0  0  0  0  0  0  0  0
  185.0570  177.5260  137.0690 C   0  0  0  0  0  0  0  0  0  0  0  0
  186.1530  178.3170  139.0800 C   0  0  0  0  0  0  0  0  0  0  0  0
  187.3550  177.7990  138.6290 C   0  0  0  0  0  0  0  0  0  0  0  0
  184.6490  179.4230  140.1620 N   0  0  0  0  0  0  0  0  0  0  0  0
  186.2600  177.0250  136.6350 N   0  0  0  0  0  0  0  0  0  0  0  0
  189.4500  177.2280  138.2530 C   0  0  0  0  0  0  0  0  0  0  0  0
  188.6120  176.8040  137.1180 C   0  0  0  0  0  0  0  0  0  0  0  0
  185.8800  179.0980  140.2320 N   0  0  0  0  0  0  0  0  0  0  0  0
  188.7060  177.8440  139.1780 C   0  0  0  0  0  3  0  0  0  0  0  0
  187.3790  177.1690  137.4070 C   0  0  0  0  0  0  0  0  0  0  0  0
  190.9280  177.0680  138.3460 C   0  0  0  0  0  2  0  0  0  0  0  0
  191.2680  176.2180  139.4770 N   0  0  0  0  0  2  0  0  0  0  0  0
  190.8330  176.9180  140.6710 C   0  0  0  0  0  2  0  0  0  0  0  0
  191.9770  177.5300  141.3250 N   0  0  0  0  0  2  0  0  0  0  0  0
  191.7860  177.3640  142.7550 C   0  0  0  0  0  2  0  0  0  0  0  0
  192.2190  179.1730  144.2910 O   0  0  0  0  0  1  0  0  0  0  0  0
  191.2870  178.6650  143.3790 C   0  0  2  0  0  3  0  0  0  0  0  0
  189.9840  178.4890  144.0220 N   0  0  0  0  0  2  0  0  0  0  0  0
  189.7800  177.0870  144.3870 C   0  0  0  0  0  2  0  0  0  0  0  0
  188.9750  176.9590  145.6830 C   0  0  1  0  0  3  0  0  0  0  0  0
  191.1650  176.5490  146.9020 N   0  0  0  0  0  0  0  0  0  0  0  0
  192.0410  176.7190  148.0480 C   0  0  0  0  0  1  0  0  0  0  0  0
  191.6170  175.8590  145.8270 O   0  0  0  0  0  1  0  0  0  0  0  0
  189.3900  177.6620  147.9350 O   0  0  0  0  0  0  0  0  0  0  0  0
  189.8380  177.0930  146.9030 C   0  0  0  0  0  0  0  0  0  0  0  0
  187.7950  177.9200  145.7380 C   0  0  0  0  0  2  0  0  0  0  0  0
  186.3760  177.7800  143.8370 O   0  0  0  0  0  1  0  0  0  0  0  0
  186.5670  177.2790  145.1240 C   0  0  0  0  0  2  0  0  0  0  0  0
  182.7020  179.1740  138.4670 C   0  0  2  0  0  3  0  0  0  0  0  0
  182.5270  180.5620  138.4220 O   0  0  0  0  0  0  0  0  0  0  0  0
  181.3660  180.7610  137.6700 C   0  0  0  0  0  1  0  0  0  0  0  0
  181.6600  178.5550  139.3900 C   0  0  0  0  0  2  0  0  0  0  0  0
  179.9820  176.6880  139.5490 C   0  0  0  0  0  2  0  0  0  0  0  0
  181.2050  175.3830  137.9580 C   0  0  1  0  0  3  0  0  0  0  0  0
  180.7140  175.3760  139.3860 C   0  0  0  0  0  2  0  0  0  0  0  0
  180.6800  177.6740  138.6230 C   0  0  2  0  0  3  0  0  0  0  0  0
  181.4530  176.8400  137.6110 C   0  0  0  0  0  2  0  0  0  0  0  0
  182.4040  174.6510  137.8600 O   0  0  0  0  0  0  0  0  0  0  0  0
  181.3890  174.2590  135.8110 O   0  0  0  0  0  1  0  0  0  0  0  0
  182.3710  173.8150  136.7130 C   0  0  2  0  0  0  0  0  0  0  0  0
  182.9010  171.5870  137.3090 O   0  0  0  0  0  0  0  0  0  0  0  0
  182.0170  172.4110  137.1340 C   0  0  0  0  0  0  0  0  0  0  0  0
  180.3120  171.9170  137.4060 S   0  0  0  0  0  1  0  0  0  0  0  0
  183.8090  173.5450  134.6730 O   0  0  0  0  0  0  0  0  0  0  0  0
  183.7220  173.7770  136.0410 C   0  0  0  0  0  0  0  0  0  0  0  0
  184.7720  174.0090  136.6960 O   0  0  0  0  0  1  0  0  0  0  0  0
  189.0690  176.1400  135.8640 C   0  0  0  0  0  2  0  0  0  0  0  0
  190.8220  176.5010  135.5640 S   0  0  0  0  0  0  0  0  0  0  0  0
  191.1280  174.7890  135.0480 C   0  0  0  0  0  2  0  0  0  0  0  0
  192.4900  174.0240  137.4100 O   0  0  0  0  0  0  0  0  0  0  0  0
  193.1630  174.0850  136.3420 C   0  0  0  0  0  0  0  0  0  0  0  0
  192.5490  174.5040  135.1230 N   0  0  0  0  0  2  0  0  0  0  0  0
  194.6190  173.7130  136.3460 C   0  0  2  0  0  3  0  0  0  0  0  0
  193.9540  171.4240  136.2170 C   0  0  0  0  0  2  0  0  0  0  0  0
  194.8380  172.3690  136.9110 N   0  0  0  0  0  0  0  0  0  0  0  0
  196.4450  170.5400  137.2020 C   0  0  0  0  0  2  0  0  0  0  0  0
  194.1640  170.0180  136.7680 C   0  0  0  0  0  2  0  0  0  0  0  0
  195.5460  169.6000  136.5340 N   0  0  0  0  0  2  0  0  0  0  0  0
  196.2200  171.9460  136.6480 C   0  0  0  0  0  2  0  0  0  0  0  0
  195.8370  175.7670  136.4770 O   0  0  0  0  0  0  0  0  0  0  0  0
  195.5860  174.6610  138.5010 N   0  0  0  0  0  1  0  0  0  0  0  0
  195.3820  174.7710  137.0960 C   0  0  0  0  0  0  0  0  0  0  0  0
  1  3  2  0  0  0  0
  1  5  1  0  0  0  0
  2  4  1  0  0  0  0
  3  7  1  0  0  0  0
  4  1  1  0  0  0  0
  5 11  1  0  0  0  0
  6  5  2  0  0  0  0
  6 12  1  0  0  0  0
  7 11  2  0  0  0  0
  8  4  2  0  0  0  0
  8 13  1  0  0  0  0
  9 14  1  0  0  0  0
  9 12  2  0  0  0  0
 10 13  2  0  0  0  0
 10  9  1  0  0  0  0
 13  6  1  0  0  0  0
 14 15  1  0  0  0  0
 15 16  1  0  0  0  0
 16 17  1  0  0  0  0
 17 18  1  0  0  0  0
 18 20  1  0  0  0  0
 20 21  1  0  0  0  0
 20 19  1  1  0  0  0
 21 22  1  0  0  0  0
 23 22  1  6  0  0  0
 23 29  1  0  0  0  0
 23 28  1  0  0  0  0
 24 28  1  0  0  0  0
 24 25  1  0  0  0  0
 26 24  1  0  0  0  0
 28 27  2  0  0  0  0
 30 31  1  0  0  0  0
 31 29  1  0  0  0  0
 32  3  1  0  0  0  0
 32 35  1  1  0  0  0
 33 32  1  0  0  0  0
 34 33  1  0  0  0  0
 37 41  1  1  0  0  0
 37 38  1  0  0  0  0
 38 36  1  0  0  0  0
 39 35  1  1  0  0  0
 39 36  1  0  0  0  0
 40 37  1  0  0  0  0
 40 39  1  0  0  0  0
 43 42  1  6  0  0  0
 43 45  1  0  0  0  0
 43 41  1  0  0  0  0
 45 44  2  0  0  0  0
 45 46  1  0  0  0  0
 47 48  2  0  0  0  0
 48 49  1  0  0  0  0
 48 43  1  0  0  0  0
 50 10  1  0  0  0  0
 51 50  1  0  0  0  0
 52 55  1  0  0  0  0
 52 51  1  0  0  0  0
 54 53  2  0  0  0  0
 55 54  1  0  0  0  0
 56 54  1  1  0  0  0
 56 58  1  0  0  0  0
 56 65  1  0  0  0  0
 57 60  1  0  0  0  0
 57 58  1  0  0  0  0
 61 60  1  0  0  0  0
 61 59  1  0  0  0  0
 62 58  1  0  0  0  0
 62 59  1  0  0  0  0
 63 65  2  0  0  0  0
 65 64  1  0  0  0  0
M  END
>  <MODEL>
2

>  <REMARK>
 VINA RESULT:      -5.9      2.573      8.108
  Name = 
  27 active torsions:
  status: ('A' for Active; 'I' for Inactive)
    1  A    between atoms: C_4  and  C_12
    2  A    between atoms: N_9  and  C_25
    3  A    between atoms: N_9  and  C_52
    4  A    between atoms: C_11  and  C_36
    5  A    between atoms: C_11  and  S_62
    6  A    between atoms: C_12  and  C_23
    7  A    between atoms: C_12  and  O_42
    8  A    between atoms: C_14  and  N_21
    9  A    between atoms: C_14  and  C_33
   10  A    between atoms: C_14  and  C_40
   11  A    between atoms: C_15  and  C_54
   12  A    between atoms: C_15  and  C_65
   13  A    between atoms: C_19  and  C_27
   14  A    between atoms: C_19  and  C_31
   15  A    between atoms: C_19  and  O_43
   16  A    between atoms: C_23  and  C_55
   17  A    between atoms: C_25  and  C_29
   18  A    between atoms: C_34  and  O_43
   19  A    between atoms: C_48  and  N_49
   20  A    between atoms: C_48  and  C_53
   21  A    between atoms: N_49  and  C_59
   22  A    between atoms: C_52  and  N_61
   23  A    between atoms: C_53  and  N_61
   24  A    between atoms: C_54  and  C_57
   25  A    between atoms: C_54  and  C_59
   26  A    between atoms: C_60  and  S_62
   27  A    between atoms: C_60  and  N_63
                            x       y       z     vdW  Elec       q    Type
                         _______ _______ _______ _____ _____    ______ ____

>  <TORSDO>
F 27

$$$$
=
 OpenBabel10232410083D

 65 69  0  0  1  0  0  0  0  0999 V2000
  186.2240  178.4150  140.4830 C   0  0  0  0  0  0  0  0  0  0  0  0
  185.8160  177.9990  142.9580 C   0  0  0  0  0  1  0  0  0  0  0  0
  185.0450  178.8310  140.0310 C   0  0  0  0  0  0  0  0  0  0  0  0
  186.6800  177.9720  141.7470 C   0  0  0  0  0  0  0  0  0  0  0  0
  187.0510  178.3990  139.3910 C   0  0  0  0  0  0  0  0  0  0  0  0
  188.3460  177.9230  139.5090 C   0  0  0  0  0  0  0  0  0  0  0  0
  185.1490  179.0610  138.6160 N   0  0  0  0  0  0  0  0  0  0  0  0
  187.9650  177.4980  141.8430 N   0  0  0  0  0  0  0  0  0  0  0  0
  190.3980  177.1680  139.2340 C   0  0  0  0  0  0  0  0  0  0  0  0
  189.9960  177.0030  140.6410 C   0  0  0  0  0  0  0  0  0  0  0  0
  186.3400  178.8080  138.2350 N   0  0  0  0  0  0  0  0  0  0  0  0
  189.4040  177.7170  138.5260 C   0  0  0  0  0  3  0  0  0  0  0  0
  188.7690  177.4750  140.7380 C   0  0  0  0  0  0  0  0  0  0  0  0
  191.6940  176.7280  138.6450 C   0  0  0  0  0  2  0  0  0  0  0  0
  191.4820  175.5840  137.7720 N   0  0  0  0  0  2  0  0  0  0  0  0
  192.6820  175.4440  136.9670 C   0  0  0  0  0  2  0  0  0  0  0  0
  192.4110  175.8730  135.6060 N   0  0  0  0  0  2  0  0  0  0  0  0
  193.6360  175.6790  134.8500 C   0  0  0  0  0  2  0  0  0  0  0  0
  195.0050  177.5760  135.4400 O   0  0  0  0  0  1  0  0  0  0  0  0
  194.8350  176.2010  135.6370 C   0  0  2  0  0  3  0  0  0  0  0  0
  196.0610  175.4790  135.2930 N   0  0  0  0  0  2  0  0  0  0  0  0
  195.9980  174.1030  135.7870 C   0  0  0  0  0  2  0  0  0  0  0  0
  197.2690  173.7280  136.5560 C   0  0  1  0  0  3  0  0  0  0  0  0
  196.6380  174.2050  138.9690 N   0  0  0  0  0  0  0  0  0  0  0  0
  196.8160  174.9250  140.2180 C   0  0  0  0  0  1  0  0  0  0  0  0
  195.7050  173.2250  138.9040 O   0  0  0  0  0  1  0  0  0  0  0  0
  198.2350  175.4950  137.8540 O   0  0  0  0  0  0  0  0  0  0  0  0
  197.4270  174.5280  137.8160 C   0  0  0  0  0  0  0  0  0  0  0  0
  197.3640  172.2350  136.8380 C   0  0  0  0  0  2  0  0  0  0  0  0
  199.2280  170.8190  136.4230 O   0  0  0  0  0  1  0  0  0  0  0  0
  198.7810  171.8640  137.2310 C   0  0  0  0  0  2  0  0  0  0  0  0
  183.7600  178.8620  140.7960 C   0  0  2  0  0  3  0  0  0  0  0  0
  184.0240  179.1770  142.1350 O   0  0  0  0  0  0  0  0  0  0  0  0
  182.8210  178.9480  142.8090 C   0  0  0  0  0  1  0  0  0  0  0  0
  183.0710  177.5060  140.7130 C   0  0  0  0  0  2  0  0  0  0  0  0
  180.6880  176.8660  140.2260 C   0  0  0  0  0  2  0  0  0  0  0  0
  181.3740  175.5260  138.3650 C   0  0  1  0  0  3  0  0  0  0  0  0
  180.6740  175.4510  139.7010 C   0  0  0  0  0  2  0  0  0  0  0  0
  181.9560  177.5040  139.6740 C   0  0  2  0  0  3  0  0  0  0  0  0
  182.3860  176.6510  138.4890 C   0  0  0  0  0  2  0  0  0  0  0  0
  182.0310  174.3090  138.0990 O   0  0  0  0  0  0  0  0  0  0  0  0
  180.6160  174.6120  136.2860 O   0  0  0  0  0  1  0  0  0  0  0  0
  181.6220  173.8020  136.8370 C   0  0  2  0  0  0  0  0  0  0  0  0
  180.5890  172.0880  138.1000 O   0  0  0  0  0  0  0  0  0  0  0  0
  181.0570  172.4160  137.0210 C   0  0  0  0  0  0  0  0  0  0  0  0
  181.0390  171.2270  135.6750 S   0  0  0  0  0  1  0  0  0  0  0  0
  182.6670  174.1450  134.5800 O   0  0  0  0  0  0  0  0  0  0  0  0
  182.7970  173.7090  135.8940 C   0  0  0  0  0  0  0  0  0  0  0  0
  183.9140  173.2920  136.2990 O   0  0  0  0  0  1  0  0  0  0  0  0
  190.7940  176.3780  141.7350 C   0  0  0  0  0  2  0  0  0  0  0  0
  192.0360  177.5470  142.3540 S   0  0  0  0  0  0  0  0  0  0  0  0
  190.7450  178.5950  143.0800 C   0  0  0  0  0  2  0  0  0  0  0  0
  189.4730  176.2370  143.9980 O   0  0  0  0  0  0  0  0  0  0  0  0
  189.9460  177.0210  144.8680 C   0  0  0  0  0  0  0  0  0  0  0  0
  190.5640  178.2480  144.4780 N   0  0  0  0  0  2  0  0  0  0  0  0
  189.8660  176.6660  146.3270 C   0  0  2  0  0  3  0  0  0  0  0  0
  187.8070  177.8730  146.2830 C   0  0  0  0  0  2  0  0  0  0  0  0
  189.0170  177.6130  147.0720 N   0  0  0  0  0  0  0  0  0  0  0  0
  187.6810  177.9600  149.0990 C   0  0  0  0  0  2  0  0  0  0  0  0
  186.8970  178.8410  147.0330 C   0  0  0  0  0  2  0  0  0  0  0  0
  186.4880  178.2440  148.3040 N   0  0  0  0  0  2  0  0  0  0  0  0
  188.5880  176.9970  148.3350 C   0  0  0  0  0  2  0  0  0  0  0  0
  191.7040  177.5630  147.5650 O   0  0  0  0  0  0  0  0  0  0  0  0
  192.0870  175.4660  146.6500 N   0  0  0  0  0  1  0  0  0  0  0  0
  191.2630  176.6040  146.8820 C   0  0  0  0  0  0  0  0  0  0  0  0
  1  4  2  0  0  0  0
  3  1  1  0  0  0  0
  3 32  1  0  0  0  0
  4  8  1  0  0  0  0
  4  2  1  0  0  0  0
  5  6  1  0  0  0  0
  5  1  1  0  0  0  0
  6 13  1  0  0  0  0
  7  3  2  0  0  0  0
  9 10  2  0  0  0  0
 10 13  1  0  0  0  0
 10 50  1  0  0  0  0
 11  7  1  0  0  0  0
 11  5  2  0  0  0  0
 12  9  1  0  0  0  0
 12  6  2  0  0  0  0
 13  8  2  0  0  0  0
 14  9  1  0  0  0  0
 15 14  1  0  0  0  0
 16 15  1  0  0  0  0
 17 16  1  0  0  0  0
 18 17  1  0  0  0  0
 18 20  1  0  0  0  0
 20 19  1  6  0  0  0
 21 20  1  0  0  0  0
 21 22  1  0  0  0  0
 23 22  1  1  0  0  0
 23 29  1  0  0  0  0
 23 28  1  0  0  0  0
 24 25  1  0  0  0  0
 26 24  1  0  0  0  0
 28 27  2  0  0  0  0
 28 24  1  0  0  0  0
 29 31  1  0  0  0  0
 30 31  1  0  0  0  0
 32 35  1  1  0  0  0
 32 33  1  0  0  0  0
 33 34  1  0  0  0  0
 37 41  1  1  0  0  0
 37 40  1  0  0  0  0
 37 38  1  0  0  0  0
 38 36  1  0  0  0  0
 39 36  1  0  0  0  0
 39 35  1  1  0  0  0
 40 39  1  0  0  0  0
 43 42  1  6  0  0  0
 43 45  1  0  0  0  0
 43 41  1  0  0  0  0
 45 44  2  0  0  0  0
 46 45  1  0  0  0  0
 47 48  2  0  0  0  0
 48 49  1  0  0  0  0
 48 43  1  0  0  0  0
 50 51  1  0  0  0  0
 51 52  1  0  0  0  0
 52 55  1  0  0  0  0
 53 54  2  0  0  0  0
 55 54  1  0  0  0  0
 56 54  1  6  0  0  0
 56 65  1  0  0  0  0
 56 58  1  0  0  0  0
 57 60  1  0  0  0  0
 57 58  1  0  0  0  0
 58 62  1  0  0  0  0
 60 61  1  0  0  0  0
 61 59  1  0  0  0  0
 62 59  1  0  0  0  0
 64 65  1  0  0  0  0
 65 63  2  0  0  0  0
M  END
>  <MODEL>
3

>  <REMARK>
 VINA RESULT:      -5.2      3.178     10.784
  Name = 
  27 active torsions:
  status: ('A' for Active; 'I' for Inactive)
    1  A    between atoms: C_4  and  C_12
    2  A    between atoms: N_9  and  C_25
    3  A    between atoms: N_9  and  C_52
    4  A    between atoms: C_11  and  C_36
    5  A    between atoms: C_11  and  S_62
    6  A    between atoms: C_12  and  C_23
    7  A    between atoms: C_12  and  O_42
    8  A    between atoms: C_14  and  N_21
    9  A    between atoms: C_14  and  C_33
   10  A    between atoms: C_14  and  C_40
   11  A    between atoms: C_15  and  C_54
   12  A    between atoms: C_15  and  C_65
   13  A    between atoms: C_19  and  C_27
   14  A    between atoms: C_19  and  C_31
   15  A    between atoms: C_19  and  O_43
   16  A    between atoms: C_23  and  C_55
   17  A    between atoms: C_25  and  C_29
   18  A    between atoms: C_34  and  O_43
   19  A    between atoms: C_48  and  N_49
   20  A    between atoms: C_48  and  C_53
   21  A    between atoms: N_49  and  C_59
   22  A    between atoms: C_52  and  N_61
   23  A    between atoms: C_53  and  N_61
   24  A    between atoms: C_54  and  C_57
   25  A    between atoms: C_54  and  C_59
   26  A    between atoms: C_60  and  S_62
   27  A    between atoms: C_60  and  N_63
                            x       y       z     vdW  Elec       q    Type
                         _______ _______ _______ _____ _____    ______ ____

>  <TORSDO>
F 27

$$$$
=
 OpenBabel10232410083D

 65 69  0  0  1  0  0  0  0  0999 V2000
  190.6250  175.9390  137.0920 C   0  0  0  0  0  0  0  0  0  0  0  0
  191.8370  176.9210  139.0990 C   0  0  0  0  0  1  0  0  0  0  0  0
  191.5900  175.3500  136.3920 C   0  0  0  0  0  0  0  0  0  0  0  0
  190.6140  176.7060  138.2800 C   0  0  0  0  0  0  0  0  0  0  0  0
  189.4760  175.7400  136.3710 C   0  0  0  0  0  0  0  0  0  0  0  0
  188.2870  176.3120  136.7910 C   0  0  0  0  0  0  0  0  0  0  0  0
  191.0180  174.7880  135.1990 N   0  0  0  0  0  0  0  0  0  0  0  0
  189.4270  177.2710  138.6770 N   0  0  0  0  0  0  0  0  0  0  0  0
  186.2460  177.1070  137.0350 C   0  0  0  0  0  0  0  0  0  0  0  0
  187.0970  177.5850  138.1380 C   0  0  0  0  0  0  0  0  0  0  0  0
  189.7630  175.0160  135.1860 N   0  0  0  0  0  0  0  0  0  0  0  0
  186.9540  176.3390  136.1990 C   0  0  0  0  0  3  0  0  0  0  0  0
  188.2950  177.0730  137.9350 C   0  0  0  0  0  0  0  0  0  0  0  0
  184.8180  177.4710  136.8220 C   0  0  0  0  0  2  0  0  0  0  0  0
  184.1270  176.3970  136.1250 N   0  0  0  0  0  2  0  0  0  0  0  0
  183.5920  175.5140  137.1450 C   0  0  0  0  0  2  0  0  0  0  0  0
  182.2160  175.8770  137.4350 N   0  0  0  0  0  2  0  0  0  0  0  0
  181.4850  175.8020  136.1820 C   0  0  0  0  0  2  0  0  0  0  0  0
  180.9720  173.6450  137.1330 O   0  0  0  0  0  1  0  0  0  0  0  0
  180.9870  174.3790  135.9420 C   0  0  2  0  0  3  0  0  0  0  0  0
  181.7880  173.6930  134.9260 N   0  0  0  0  0  2  0  0  0  0  0  0
  181.8360  172.2560  135.1990 C   0  0  0  0  0  2  0  0  0  0  0  0
  183.2580  171.7080  135.0540 C   0  0  1  0  0  3  0  0  0  0  0  0
  185.4050  172.5120  136.1460 N   0  0  0  0  0  0  0  0  0  0  0  0
  186.2050  172.8200  137.3190 C   0  0  0  0  0  1  0  0  0  0  0  0
  185.9240  172.7500  134.9170 O   0  0  0  0  0  1  0  0  0  0  0  0
  183.6420  171.6590  137.4190 O   0  0  0  0  0  0  0  0  0  0  0  0
  184.0900  171.9580  136.2780 C   0  0  0  0  0  0  0  0  0  0  0  0
  183.2830  170.2350  134.6660 C   0  0  0  0  0  2  0  0  0  0  0  0
  184.0400  168.4500  136.0400 O   0  0  0  0  0  1  0  0  0  0  0  0
  184.4770  169.5460  135.2970 C   0  0  0  0  0  2  0  0  0  0  0  0
  193.0590  175.4250  136.6660 C   0  0  2  0  0  3  0  0  0  0  0  0
  193.6270  176.4340  135.8790 O   0  0  0  0  0  0  0  0  0  0  0  0
  194.2700  175.7640  134.8330 C   0  0  0  0  0  1  0  0  0  0  0  0
  193.7180  174.0890  136.3460 C   0  0  0  0  0  2  0  0  0  0  0  0
  195.7810  174.4110  137.7460 C   0  0  0  0  0  2  0  0  0  0  0  0
  196.5350  172.1970  137.2370 C   0  0  1  0  0  3  0  0  0  0  0  0
  196.9160  173.6520  137.1010 C   0  0  0  0  0  2  0  0  0  0  0  0
  194.5340  173.5670  137.5220 C   0  0  2  0  0  3  0  0  0  0  0  0
  195.0180  172.1600  137.2030 C   0  0  0  0  0  2  0  0  0  0  0  0
  197.0620  171.4600  136.1590 O   0  0  0  0  0  0  0  0  0  0  0  0
  198.9580  171.2960  137.4870 O   0  0  0  0  0  1  0  0  0  0  0  0
  198.0990  170.6050  136.6160 C   0  0  2  0  0  0  0  0  0  0  0  0
  199.6910  170.9030  134.8900 O   0  0  0  0  0  0  0  0  0  0  0  0
  198.9110  170.1370  135.4340 C   0  0  0  0  0  0  0  0  0  0  0  0
  198.7730  168.4590  134.8090 S   0  0  0  0  0  1  0  0  0  0  0  0
  198.1890  168.8240  138.3830 O   0  0  0  0  0  1  0  0  0  0  0  0
  197.5240  169.3880  137.3010 C   0  0  0  0  0  0  0  0  0  0  0  0
  196.4170  168.9110  136.9390 O   0  0  0  0  0  0  0  0  0  0  0  0
  186.7030  178.5090  139.2410 C   0  0  0  0  0  2  0  0  0  0  0  0
  187.8900  178.3960  140.6090 S   0  0  0  0  0  0  0  0  0  0  0  0
  186.5480  178.1400  141.8030 C   0  0  0  0  0  2  0  0  0  0  0  0
  187.8090  176.2870  143.5340 O   0  0  0  0  0  0  0  0  0  0  0  0
  187.6820  177.4750  143.9440 C   0  0  0  0  0  0  0  0  0  0  0  0
  187.0200  178.4520  143.1400 N   0  0  0  0  0  2  0  0  0  0  0  0
  188.2330  177.8730  145.2850 C   0  0  2  0  0  3  0  0  0  0  0  0
  190.5740  177.4620  145.0590 C   0  0  0  0  0  2  0  0  0  0  0  0
  189.3410  176.9940  145.7020 N   0  0  0  0  0  0  0  0  0  0  0  0
  190.7030  176.2240  147.5900 C   0  0  0  0  0  2  0  0  0  0  0  0
  191.7450  176.5810  145.4810 C   0  0  0  0  0  2  0  0  0  0  0  0
  191.9290  176.6690  146.9290 N   0  0  0  0  0  2  0  0  0  0  0  0
  189.5350  177.1080  147.1540 C   0  0  0  0  0  2  0  0  0  0  0  0
  187.2760  178.4140  147.4080 O   0  0  0  0  0  0  0  0  0  0  0  0
  185.8530  177.2840  145.9650 N   0  0  0  0  0  1  0  0  0  0  0  0
  187.1080  177.8760  146.2840 C   0  0  0  0  0  0  0  0  0  0  0  0
  1  4  2  0  0  0  0
  3 32  1  0  0  0  0
  3  1  1  0  0  0  0
  4  8  1  0  0  0  0
  4  2  1  0  0  0  0
  5  6  1  0  0  0  0
  5  1  1  0  0  0  0
  6 13  1  0  0  0  0
  7  3  2  0  0  0  0
  9 10  2  0  0  0  0
 10 50  1  0  0  0  0
 11  7  1  0  0  0  0
 11  5  2  0  0  0  0
 12  6  2  0  0  0  0
 12  9  1  0  0  0  0
 13 10  1  0  0  0  0
 13  8  2  0  0  0  0
 14  9  1  0  0  0  0
 15 14  1  0  0  0  0
 15 16  1  0  0  0  0
 16 17  1  0  0  0  0
 18 17  1  0  0  0  0
 20 18  1  0  0  0  0
 20 19  1  1  0  0  0
 21 22  1  0  0  0  0
 21 20  1  0  0  0  0
 23 29  1  1  0  0  0
 23 22  1  0  0  0  0
 23 28  1  0  0  0  0
 24 28  1  0  0  0  0
 24 25  1  0  0  0  0
 26 24  1  0  0  0  0
 28 27  2  0  0  0  0
 29 31  1  0  0  0  0
 31 30  1  0  0  0  0
 32 35  1  6  0  0  0
 33 32  1  0  0  0  0
 34 33  1  0  0  0  0
 37 41  1  6  0  0  0
 38 37  1  0  0  0  0
 38 36  1  0  0  0  0
 39 35  1  6  0  0  0
 39 36  1  0  0  0  0
 40 37  1  0  0  0  0
 40 39  1  0  0  0  0
 41 43  1  0  0  0  0
 43 48  1  0  0  0  0
 43 42  1  1  0  0  0
 44 45  2  0  0  0  0
 45 43  1  0  0  0  0
 46 45  1  0  0  0  0
 48 47  1  0  0  0  0
 49 48  2  0  0  0  0
 50 51  1  0  0  0  0
 51 52  1  0  0  0  0
 52 55  1  0  0  0  0
 53 54  2  0  0  0  0
 55 54  1  0  0  0  0
 56 54  1  6  0  0  0
 56 58  1  0  0  0  0
 56 65  1  0  0  0  0
 57 60  1  0  0  0  0
 57 58  1  0  0  0  0
 58 62  1  0  0  0  0
 60 61  1  0  0  0  0
 61 59  1  0  0  0  0
 62 59  1  0  0  0  0
 64 65  1  0  0  0  0
 65 63  2  0  0  0  0
M  END
>  <MODEL>
4

>  <REMARK>
 VINA RESULT:      -4.8      3.081     10.390
  Name = 
  27 active torsions:
  status: ('A' for Active; 'I' for Inactive)
    1  A    between atoms: C_4  and  C_12
    2  A    between atoms: N_9  and  C_25
    3  A    between atoms: N_9  and  C_52
    4  A    between atoms: C_11  and  C_36
    5  A    between atoms: C_11  and  S_62
    6  A    between atoms: C_12  and  C_23
    7  A    between atoms: C_12  and  O_42
    8  A    between atoms: C_14  and  N_21
    9  A    between atoms: C_14  and  C_33
   10  A    between atoms: C_14  and  C_40
   11  A    between atoms: C_15  and  C_54
   12  A    between atoms: C_15  and  C_65
   13  A    between atoms: C_19  and  C_27
   14  A    between atoms: C_19  and  C_31
   15  A    between atoms: C_19  and  O_43
   16  A    between atoms: C_23  and  C_55
   17  A    between atoms: C_25  and  C_29
   18  A    between atoms: C_34  and  O_43
   19  A    between atoms: C_48  and  N_49
   20  A    between atoms: C_48  and  C_53
   21  A    between atoms: N_49  and  C_59
   22  A    between atoms: C_52  and  N_61
   23  A    between atoms: C_53  and  N_61
   24  A    between atoms: C_54  and  C_57
   25  A    between atoms: C_54  and  C_59
   26  A    between atoms: C_60  and  S_62
   27  A    between atoms: C_60  and  N_63
                            x       y       z     vdW  Elec       q    Type
                         _______ _______ _______ _____ _____    ______ ____

>  <TORSDO>
F 27

$$$$
=
 OpenBabel10232410083D

 65 69  0  0  1  0  0  0  0  0999 V2000
  191.0580  176.4650  137.5330 C   0  0  0  0  0  0  0  0  0  0  0  0
  190.6260  175.3090  135.3100 C   0  0  0  0  0  1  0  0  0  0  0  0
  192.3280  176.1750  137.8010 C   0  0  0  0  0  0  0  0  0  0  0  0
  190.1780  176.1020  136.4870 C   0  0  0  0  0  0  0  0  0  0  0  0
  190.6210  177.2150  138.5920 C   0  0  0  0  0  0  0  0  0  0  0  0
  189.2960  177.6100  138.6620 C   0  0  0  0  0  0  0  0  0  0  0  0
  192.6730  176.7510  139.0720 N   0  0  0  0  0  0  0  0  0  0  0  0
  188.8660  176.4970  136.5760 N   0  0  0  0  0  0  0  0  0  0  0  0
  187.2920  178.3460  139.2120 C   0  0  0  0  0  0  0  0  0  0  0  0
  187.2220  177.6400  137.9210 C   0  0  0  0  0  0  0  0  0  0  0  0
  191.6630  177.3720  139.5420 N   0  0  0  0  0  0  0  0  0  0  0  0
  188.5440  178.3300  139.6840 C   0  0  0  0  0  3  0  0  0  0  0  0
  188.4460  177.2320  137.6500 C   0  0  0  0  0  0  0  0  0  0  0  0
  186.1360  178.9380  139.9400 C   0  0  0  0  0  2  0  0  0  0  0  0
  185.5040  177.9290  140.7770 N   0  0  0  0  0  2  0  0  0  0  0  0
  184.2690  178.5090  141.2700 C   0  0  0  0  0  2  0  0  0  0  0  0
  184.5090  179.1670  142.5420 N   0  0  0  0  0  2  0  0  0  0  0  0
  184.5640  178.1260  143.5530 C   0  0  0  0  0  2  0  0  0  0  0  0
  185.0500  180.1130  144.8310 O   0  0  0  0  0  1  0  0  0  0  0  0
  184.8520  178.7310  144.9250 C   0  0  2  0  0  3  0  0  0  0  0  0
  186.0020  178.0910  145.5650 N   0  0  0  0  0  2  0  0  0  0  0  0
  186.9560  177.6280  144.5570 C   0  0  0  0  0  2  0  0  0  0  0  0
  188.3560  177.4550  145.1520 C   0  0  1  0  0  3  0  0  0  0  0  0
  190.7520  177.1490  144.3670 N   0  0  0  0  0  0  0  0  0  0  0  0
  191.7980  177.2920  143.3680 C   0  0  0  0  0  1  0  0  0  0  0  0
  191.0390  176.5210  145.5330 O   0  0  0  0  0  1  0  0  0  0  0  0
  189.1940  178.3270  143.0840 O   0  0  0  0  0  0  0  0  0  0  0  0
  189.4360  177.6700  144.1330 C   0  0  0  0  0  0  0  0  0  0  0  0
  188.5820  178.3230  146.3820 C   0  0  0  0  0  2  0  0  0  0  0  0
  188.6190  176.7430  148.1580 O   0  0  0  0  0  1  0  0  0  0  0  0
  189.4310  177.5830  147.3970 C   0  0  0  0  0  2  0  0  0  0  0  0
  193.2060  175.2370  137.0360 C   0  0  2  0  0  3  0  0  0  0  0  0
  193.5020  174.1240  137.8320 O   0  0  0  0  0  0  0  0  0  0  0  0
  194.5190  174.5490  138.6920 C   0  0  0  0  0  1  0  0  0  0  0  0
  194.4970  175.9410  136.6360 C   0  0  0  0  0  2  0  0  0  0  0  0
  194.1220  174.3790  134.7010 C   0  0  0  0  0  2  0  0  0  0  0  0
  196.0620  173.1050  135.2860 C   0  0  1  0  0  3  0  0  0  0  0  0
  194.5650  172.9960  135.1140 C   0  0  0  0  0  2  0  0  0  0  0  0
  195.0930  175.3450  135.3660 C   0  0  2  0  0  3  0  0  0  0  0  0
  196.3260  174.5310  135.7330 C   0  0  0  0  0  2  0  0  0  0  0  0
  196.4970  172.1990  136.2730 O   0  0  0  0  0  0  0  0  0  0  0  0
  197.6150  171.5450  134.3480 O   0  0  0  0  0  1  0  0  0  0  0  0
  197.4380  171.2910  135.7190 C   0  0  2  0  0  0  0  0  0  0  0  0
  196.6360  169.4550  136.9770 O   0  0  0  0  0  0  0  0  0  0  0  0
  196.9160  169.8850  135.8690 C   0  0  0  0  0  0  0  0  0  0  0  0
  196.6740  168.8190  134.4440 S   0  0  0  0  0  1  0  0  0  0  0  0
  199.9160  170.9050  135.8390 O   0  0  0  0  0  0  0  0  0  0  0  0
  198.7590  171.3820  136.4440 C   0  0  0  0  0  0  0  0  0  0  0  0
  198.8350  171.9370  137.5720 O   0  0  0  0  0  1  0  0  0  0  0  0
  186.0020  177.3870  137.1010 C   0  0  0  0  0  2  0  0  0  0  0  0
  186.4600  177.0700  135.3740 S   0  0  0  0  0  0  0  0  0  0  0  0
  184.7160  177.0520  134.8740 C   0  0  0  0  0  2  0  0  0  0  0  0
  181.9710  176.3610  134.9810 O   0  0  0  0  0  0  0  0  0  0  0  0
  182.5030  176.8030  136.0380 C   0  0  0  0  0  0  0  0  0  0  0  0
  183.8720  177.2090  136.0450 N   0  0  0  0  0  2  0  0  0  0  0  0
  181.6970  176.9010  137.3030 C   0  0  2  0  0  3  0  0  0  0  0  0
  181.1050  179.1820  136.9220 C   0  0  0  0  0  2  0  0  0  0  0  0
  181.7400  178.2610  137.8720 N   0  0  0  0  0  0  0  0  0  0  0  0
  180.9600  179.7130  139.6890 C   0  0  0  0  0  2  0  0  0  0  0  0
  181.1190  180.5990  137.4860 C   0  0  0  0  0  2  0  0  0  0  0  0
  180.3560  180.6380  138.7330 N   0  0  0  0  0  2  0  0  0  0  0  0
  180.9480  178.2980  139.1100 C   0  0  0  0  0  2  0  0  0  0  0  0
  182.5610  176.2200  139.4270 O   0  0  0  0  0  0  0  0  0  0  0  0
  182.2660  174.4950  137.9030 N   0  0  0  0  0  1  0  0  0  0  0  0
  182.2010  175.8670  138.2740 C   0  0  0  0  0  0  0  0  0  0  0  0
  1  3  2  0  0  0  0
  1  5  1  0  0  0  0
  2  4  1  0  0  0  0
  3  7  1  0  0  0  0
  4  8  2  0  0  0  0
  4  1  1  0  0  0  0
  5  6  2  0  0  0  0
  5 11  1  0  0  0  0
  6 12  1  0  0  0  0
  7 11  2  0  0  0  0
  8 13  1  0  0  0  0
  9 12  2  0  0  0  0
  9 14  1  0  0  0  0
 10  9  1  0  0  0  0
 13 10  2  0  0  0  0
 13  6  1  0  0  0  0
 14 15  1  0  0  0  0
 15 16  1  0  0  0  0
 16 17  1  0  0  0  0
 17 18  1  0  0  0  0
 18 20  1  0  0  0  0
 20 19  1  6  0  0  0
 20 21  1  0  0  0  0
 22 21  1  0  0  0  0
 23 22  1  6  0  0  0
 23 29  1  0  0  0  0
 24 26  1  0  0  0  0
 25 24  1  0  0  0  0
 27 28  2  0  0  0  0
 28 24  1  0  0  0  0
 28 23  1  0  0  0  0
 29 31  1  0  0  0  0
 31 30  1  0  0  0  0
 32 35  1  1  0  0  0
 32  3  1  0  0  0  0
 32 33  1  0  0  0  0
 33 34  1  0  0  0  0
 36 38  1  0  0  0  0
 36 39  1  0  0  0  0
 37 40  1  0  0  0  0
 37 41  1  1  0  0  0
 38 37  1  0  0  0  0
 39 40  1  0  0  0  0
 39 35  1  1  0  0  0
 43 42  1  6  0  0  0
 43 45  1  0  0  0  0
 43 41  1  0  0  0  0
 43 48  1  0  0  0  0
 45 44  2  0  0  0  0
 46 45  1  0  0  0  0
 47 48  2  0  0  0  0
 48 49  1  0  0  0  0
 50 10  1  0  0  0  0
 51 50  1  0  0  0  0
 52 51  1  0  0  0  0
 52 55  1  0  0  0  0
 53 54  2  0  0  0  0
 54 55  1  0  0  0  0
 56 54  1  6  0  0  0
 56 58  1  0  0  0  0
 56 65  1  0  0  0  0
 57 60  1  0  0  0  0
 57 58  1  0  0  0  0
 58 62  1  0  0  0  0
 60 61  1  0  0  0  0
 61 59  1  0  0  0  0
 62 59  1  0  0  0  0
 64 65  1  0  0  0  0
 65 63  2  0  0  0  0
M  END
>  <MODEL>
5

>  <REMARK>
 VINA RESULT:      -4.3      2.981     11.808
  Name = 
  27 active torsions:
  status: ('A' for Active; 'I' for Inactive)
    1  A    between atoms: C_4  and  C_12
    2  A    between atoms: N_9  and  C_25
    3  A    between atoms: N_9  and  C_52
    4  A    between atoms: C_11  and  C_36
    5  A    between atoms: C_11  and  S_62
    6  A    between atoms: C_12  and  C_23
    7  A    between atoms: C_12  and  O_42
    8  A    between atoms: C_14  and  N_21
    9  A    between atoms: C_14  and  C_33
   10  A    between atoms: C_14  and  C_40
   11  A    between atoms: C_15  and  C_54
   12  A    between atoms: C_15  and  C_65
   13  A    between atoms: C_19  and  C_27
   14  A    between atoms: C_19  and  C_31
   15  A    between atoms: C_19  and  O_43
   16  A    between atoms: C_23  and  C_55
   17  A    between atoms: C_25  and  C_29
   18  A    between atoms: C_34  and  O_43
   19  A    between atoms: C_48  and  N_49
   20  A    between atoms: C_48  and  C_53
   21  A    between atoms: N_49  and  C_59
   22  A    between atoms: C_52  and  N_61
   23  A    between atoms: C_53  and  N_61
   24  A    between atoms: C_54  and  C_57
   25  A    between atoms: C_54  and  C_59
   26  A    between atoms: C_60  and  S_62
   27  A    between atoms: C_60  and  N_63
                            x       y       z     vdW  Elec       q    Type
                         _______ _______ _______ _____ _____    ______ ____

>  <TORSDO>
F 27

$$$$
=
 OpenBabel10232410083D

 65 69  0  0  1  0  0  0  0  0999 V2000
  184.5720  177.5750  136.8140 C   0  0  0  0  0  0  0  0  0  0  0  0
  184.5390  176.9630  134.3470 C   0  0  0  0  0  1  0  0  0  0  0  0
  183.3100  177.9010  137.0790 C   0  0  0  0  0  0  0  0  0  0  0  0
  185.2500  177.1900  135.6340 C   0  0  0  0  0  0  0  0  0  0  0  0
  185.2510  177.7540  137.9900 C   0  0  0  0  0  0  0  0  0  0  0  0
  186.6250  177.5810  138.0310 C   0  0  0  0  0  0  0  0  0  0  0  0
  183.2180  178.3080  138.4540 N   0  0  0  0  0  0  0  0  0  0  0  0
  186.6120  177.0280  135.6920 N   0  0  0  0  0  0  0  0  0  0  0  0
  188.7750  177.5140  138.5070 C   0  0  0  0  0  0  0  0  0  0  0  0
  188.5730  177.1740  137.0880 C   0  0  0  0  0  0  0  0  0  0  0  0
  184.3680  178.2190  138.9980 N   0  0  0  0  0  0  0  0  0  0  0  0
  187.6020  177.7750  139.0960 C   0  0  0  0  0  3  0  0  0  0  0  0
  187.2740  177.2280  136.8720 C   0  0  0  0  0  0  0  0  0  0  0  0
  190.0930  177.6270  139.1920 C   0  0  0  0  0  2  0  0  0  0  0  0
  189.9010  177.7250  140.6310 N   0  0  0  0  0  2  0  0  0  0  0  0
  191.2220  177.7100  141.2310 C   0  0  0  0  0  2  0  0  0  0  0  0
  191.2890  176.6710  142.2430 N   0  0  0  0  0  2  0  0  0  0  0  0
  192.1020  177.1890  143.3290 C   0  0  0  0  0  2  0  0  0  0  0  0
  191.9360  177.6520  145.6900 O   0  0  0  0  0  1  0  0  0  0  0  0
  191.2170  177.6350  144.4910 C   0  0  2  0  0  3  0  0  0  0  0  0
  190.0280  176.7910  144.6170 N   0  0  0  0  0  2  0  0  0  0  0  0
  188.8190  177.5650  144.3300 C   0  0  0  0  0  2  0  0  0  0  0  0
  188.0160  177.8380  145.6050 C   0  0  1  0  0  3  0  0  0  0  0  0
  185.6470  178.6460  146.0330 N   0  0  0  0  0  0  0  0  0  0  0  0
  184.2170  178.6030  145.7810 C   0  0  0  0  0  1  0  0  0  0  0  0
  186.1320  179.5630  146.9050 O   0  0  0  0  0  1  0  0  0  0  0  0
  186.0750  176.8270  144.6310 O   0  0  0  0  0  0  0  0  0  0  0  0
  186.5370  177.7320  145.3780 C   0  0  0  0  0  0  0  0  0  0  0  0
  188.4560  176.9650  146.7730 C   0  0  0  0  0  2  0  0  0  0  0  0
  189.0020  178.6150  148.3940 O   0  0  0  0  0  1  0  0  0  0  0  0
  188.0770  177.6170  148.0880 C   0  0  0  0  0  2  0  0  0  0  0  0
  182.1990  178.0340  136.0860 C   0  0  2  0  0  3  0  0  0  0  0  0
  181.1190  178.6950  136.6830 O   0  0  0  0  0  0  0  0  0  0  0  0
  180.3070  179.1040  135.6220 C   0  0  0  0  0  1  0  0  0  0  0  0
  181.7590  176.6560  135.6080 C   0  0  0  0  0  2  0  0  0  0  0  0
  182.3940  175.3960  137.6900 C   0  0  0  0  0  2  0  0  0  0  0  0
  181.4960  173.3650  136.7970 C   0  0  1  0  0  3  0  0  0  0  0  0
  182.7770  173.9900  137.2960 C   0  0  0  0  0  2  0  0  0  0  0  0
  181.2550  175.7950  136.7610 C   0  0  2  0  0  3  0  0  0  0  0  0
  180.6860  174.5000  136.1990 C   0  0  0  0  0  2  0  0  0  0  0  0
  181.7850  172.4030  135.8100 O   0  0  0  0  0  0  0  0  0  0  0  0
  182.8670  171.6210  137.7080 O   0  0  0  0  0  1  0  0  0  0  0  0
  182.6770  171.4270  136.3290 C   0  0  2  0  0  0  0  0  0  0  0  0
  184.0700  171.9090  134.4780 O   0  0  0  0  0  0  0  0  0  0  0  0
  184.0160  171.5700  135.6500 C   0  0  0  0  0  0  0  0  0  0  0  0
  185.5500  171.2690  136.5320 S   0  0  0  0  0  1  0  0  0  0  0  0
  180.8000  169.7700  136.1580 O   0  0  0  0  0  1  0  0  0  0  0  0
  182.1610  170.0340  136.0610 C   0  0  0  0  0  0  0  0  0  0  0  0
  182.9430  169.1200  135.6920 O   0  0  0  0  0  0  0  0  0  0  0  0
  189.6290  176.8780  136.0770 C   0  0  0  0  0  2  0  0  0  0  0  0
  189.8210  175.0840  135.8760 S   0  0  0  0  0  0  0  0  0  0  0  0
  191.4800  175.3010  135.1760 C   0  0  0  0  0  2  0  0  0  0  0  0
  193.4150  173.3060  134.6310 O   0  0  0  0  0  0  0  0  0  0  0  0
  193.4460  173.8530  135.7700 C   0  0  0  0  0  0  0  0  0  0  0  0
  192.4740  174.8370  136.1260 N   0  0  0  0  0  2  0  0  0  0  0  0
  194.5110  173.4740  136.7600 C   0  0  2  0  0  3  0  0  0  0  0  0
  195.7930  175.1940  135.7140 C   0  0  0  0  0  2  0  0  0  0  0  0
  195.8560  173.8430  136.2820 N   0  0  0  0  0  0  0  0  0  0  0  0
  198.1730  174.3040  136.9390 C   0  0  0  0  0  2  0  0  0  0  0  0
  197.1750  175.6140  135.2220 C   0  0  0  0  0  2  0  0  0  0  0  0
  198.1100  175.6380  136.3460 N   0  0  0  0  0  2  0  0  0  0  0  0
  196.7830  173.8910  137.4210 C   0  0  0  0  0  2  0  0  0  0  0  0
  193.4760  171.3330  136.5100 O   0  0  0  0  0  0  0  0  0  0  0  0
  195.3270  171.3550  137.9080 N   0  0  0  0  0  1  0  0  0  0  0  0
  194.3970  172.0010  137.0460 C   0  0  0  0  0  0  0  0  0  0  0  0
  1  3  2  0  0  0  0
  1  5  1  0  0  0  0
  2  4  1  0  0  0  0
  3  7  1  0  0  0  0
  4  8  2  0  0  0  0
  4  1  1  0  0  0  0
  5  6  2  0  0  0  0
  5 11  1  0  0  0  0
  6 12  1  0  0  0  0
  7 11  2  0  0  0  0
  8 13  1  0  0  0  0
  9 12  2  0  0  0  0
  9 14  1  0  0  0  0
 10  9  1  0  0  0  0
 13 10  2  0  0  0  0
 13  6  1  0  0  0  0
 14 15  1  0  0  0  0
 15 16  1  0  0  0  0
 16 17  1  0  0  0  0
 17 18  1  0  0  0  0
 18 20  1  0  0  0  0
 20 21  1  0  0  0  0
 20 19  1  1  0  0  0
 22 21  1  0  0  0  0
 23 22  1  6  0  0  0
 23 29  1  0  0  0  0
 24 26  1  0  0  0  0
 25 24  1  0  0  0  0
 27 28  2  0  0  0  0
 28 23  1  0  0  0  0
 28 24  1  0  0  0  0
 29 31  1  0  0  0  0
 31 30  1  0  0  0  0
 32 35  1  1  0  0  0
 32 33  1  0  0  0  0
 32  3  1  0  0  0  0
 34 33  1  0  0  0  0
 37 41  1  6  0  0  0
 37 38  1  0  0  0  0
 38 36  1  0  0  0  0
 39 35  1  6  0  0  0
 39 36  1  0  0  0  0
 40 39  1  0  0  0  0
 40 37  1  0  0  0  0
 41 43  1  0  0  0  0
 43 42  1  1  0  0  0
 44 45  2  0  0  0  0
 45 43  1  0  0  0  0
 45 46  1  0  0  0  0
 48 47  1  0  0  0  0
 48 43  1  0  0  0  0
 49 48  2  0  0  0  0
 50 10  1  0  0  0  0
 51 50  1  0  0  0  0
 52 51  1  0  0  0  0
 52 55  1  0  0  0  0
 53 54  2  0  0  0  0
 54 55  1  0  0  0  0
 56 54  1  6  0  0  0
 56 65  1  0  0  0  0
 57 58  1  0  0  0  0
 58 56  1  0  0  0  0
 58 62  1  0  0  0  0
 59 62  1  0  0  0  0
 60 57  1  0  0  0  0
 60 61  1  0  0  0  0
 61 59  1  0  0  0  0
 63 65  2  0  0  0  0
 65 64  1  0  0  0  0
M  END
>  <MODEL>
6

>  <REMARK>
 VINA RESULT:      -3.6      2.566      8.785
  Name = 
  27 active torsions:
  status: ('A' for Active; 'I' for Inactive)
    1  A    between atoms: C_4  and  C_12
    2  A    between atoms: N_9  and  C_25
    3  A    between atoms: N_9  and  C_52
    4  A    between atoms: C_11  and  C_36
    5  A    between atoms: C_11  and  S_62
    6  A    between atoms: C_12  and  C_23
    7  A    between atoms: C_12  and  O_42
    8  A    between atoms: C_14  and  N_21
    9  A    between atoms: C_14  and  C_33
   10  A    between atoms: C_14  and  C_40
   11  A    between atoms: C_15  and  C_54
   12  A    between atoms: C_15  and  C_65
   13  A    between atoms: C_19  and  C_27
   14  A    between atoms: C_19  and  C_31
   15  A    between atoms: C_19  and  O_43
   16  A    between atoms: C_23  and  C_55
   17  A    between atoms: C_25  and  C_29
   18  A    between atoms: C_34  and  O_43
   19  A    between atoms: C_48  and  N_49
   20  A    between atoms: C_48  and  C_53
   21  A    between atoms: N_49  and  C_59
   22  A    between atoms: C_52  and  N_61
   23  A    between atoms: C_53  and  N_61
   24  A    between atoms: C_54  and  C_57
   25  A    between atoms: C_54  and  C_59
   26  A    between atoms: C_60  and  S_62
   27  A    between atoms: C_60  and  N_63
                            x       y       z     vdW  Elec       q    Type
                         _______ _______ _______ _____ _____    ______ ____

>  <TORSDO>
F 27

$$$$
=
 OpenBabel10232410083D

 65 69  0  0  1  0  0  0  0  0999 V2000
  184.9290  178.3770  138.6640 C   0  0  0  0  0  0  0  0  0  0  0  0
  184.7130  177.5660  136.2650 C   0  0  0  0  0  1  0  0  0  0  0  0
  183.7070  178.8040  138.9680 C   0  0  0  0  0  0  0  0  0  0  0  0
  185.5110  177.8520  137.4870 C   0  0  0  0  0  0  0  0  0  0  0  0
  185.6870  178.6090  139.7820 C   0  0  0  0  0  0  0  0  0  0  0  0
  187.0470  178.3510  139.7630 C   0  0  0  0  0  0  0  0  0  0  0  0
  183.7220  179.3290  140.3060 N   0  0  0  0  0  0  0  0  0  0  0  0
  186.8620  177.6080  137.4840 N   0  0  0  0  0  0  0  0  0  0  0  0
  189.2150  178.1840  140.1250 C   0  0  0  0  0  0  0  0  0  0  0  0
  188.9080  177.7420  138.7540 C   0  0  0  0  0  0  0  0  0  0  0  0
  184.8950  179.2110  140.7920 N   0  0  0  0  0  0  0  0  0  0  0  0
  188.0970  178.5680  140.7520 C   0  0  0  0  0  3  0  0  0  0  0  0
  187.6040  177.8620  138.6050 C   0  0  0  0  0  0  0  0  0  0  0  0
  190.5750  178.2690  140.7250 C   0  0  0  0  0  2  0  0  0  0  0  0
  191.0730  176.9350  141.0230 N   0  0  0  0  0  2  0  0  0  0  0  0
  191.7460  177.0170  142.3060 C   0  0  0  0  0  2  0  0  0  0  0  0
  190.8950  177.7020  143.2640 N   0  0  0  0  0  2  0  0  0  0  0  0
  191.4200  177.4060  144.5850 C   0  0  0  0  0  2  0  0  0  0  0  0
  190.5330  176.6860  146.7090 O   0  0  0  0  0  1  0  0  0  0  0  0
  190.3280  177.5640  145.6400 C   0  0  2  0  0  3  0  0  0  0  0  0
  188.9950  177.3720  145.0670 N   0  0  0  0  0  2  0  0  0  0  0  0
  188.0180  177.1090  146.1240 C   0  0  0  0  0  2  0  0  0  0  0  0
  187.0680  178.2950  146.3130 C   0  0  1  0  0  3  0  0  0  0  0  0
  185.0620  179.0110  144.9310 N   0  0  0  0  0  0  0  0  0  0  0  0
  183.7670  178.7480  144.3250 C   0  0  0  0  0  1  0  0  0  0  0  0
  185.6540  180.2100  144.7170 O   0  0  0  0  0  1  0  0  0  0  0  0
  185.1130  176.9430  146.0160 O   0  0  0  0  0  0  0  0  0  0  0  0
  185.7040  178.0250  145.7500 C   0  0  0  0  0  0  0  0  0  0  0  0
  186.9820  178.7520  147.7630 C   0  0  0  0  0  2  0  0  0  0  0  0
  188.9410  178.6940  149.1090 O   0  0  0  0  0  1  0  0  0  0  0  0
  187.8920  177.9070  148.6340 C   0  0  0  0  0  2  0  0  0  0  0  0
  182.5490  178.9270  138.0290 C   0  0  2  0  0  3  0  0  0  0  0  0
  181.3960  179.2520  138.7540 O   0  0  0  0  0  0  0  0  0  0  0  0
  181.2580  180.6360  138.6210 C   0  0  0  0  0  1  0  0  0  0  0  0
  182.3370  177.6120  137.2890 C   0  0  0  0  0  2  0  0  0  0  0  0
  182.8170  175.5590  138.6590 C   0  0  0  0  0  2  0  0  0  0  0  0
  181.2110  174.2910  137.4170 C   0  0  1  0  0  3  0  0  0  0  0  0
  182.6790  174.3490  137.7670 C   0  0  0  0  0  2  0  0  0  0  0  0
  181.7480  176.5410  138.1990 C   0  0  2  0  0  3  0  0  0  0  0  0
  180.7280  175.7300  137.4130 C   0  0  0  0  0  2  0  0  0  0  0  0
  181.0450  173.7210  136.1400 O   0  0  0  0  0  0  0  0  0  0  0  0
  181.7240  171.8900  137.3940 O   0  0  0  0  0  1  0  0  0  0  0  0
  181.6450  172.4340  136.1010 C   0  0  2  0  0  0  0  0  0  0  0  0
  183.9060  171.7630  135.9090 O   0  0  0  0  0  0  0  0  0  0  0  0
  183.0480  172.5590  135.5610 C   0  0  0  0  0  0  0  0  0  0  0  0
  183.4900  173.8500  134.3940 S   0  0  0  0  0  1  0  0  0  0  0  0
  181.0930  170.1410  135.2410 O   0  0  0  0  0  1  0  0  0  0  0  0
  180.8720  171.5120  135.1890 C   0  0  0  0  0  0  0  0  0  0  0  0
  179.9840  171.9660  134.4200 O   0  0  0  0  0  0  0  0  0  0  0  0
  189.8820  177.2950  137.7160 C   0  0  0  0  0  2  0  0  0  0  0  0
  189.0910  177.2670  136.0830 S   0  0  0  0  0  0  0  0  0  0  0  0
  189.5610  175.5310  135.8430 C   0  0  0  0  0  2  0  0  0  0  0  0
  191.2280  174.2630  137.7490 O   0  0  0  0  0  0  0  0  0  0  0  0
  191.7790  174.7390  136.7170 C   0  0  0  0  0  0  0  0  0  0  0  0
  191.0050  175.4270  135.7350 N   0  0  0  0  0  2  0  0  0  0  0  0
  193.2600  174.5810  136.5120 C   0  0  2  0  0  3  0  0  0  0  0  0
  194.0640  172.7600  135.1940 C   0  0  0  0  0  2  0  0  0  0  0  0
  193.6670  173.1640  136.5480 N   0  0  0  0  0  0  0  0  0  0  0  0
  195.2950  171.5550  137.4280 C   0  0  0  0  0  2  0  0  0  0  0  0
  194.5060  171.3000  135.1980 C   0  0  0  0  0  2  0  0  0  0  0  0
  195.6640  171.1400  136.0760 N   0  0  0  0  0  2  0  0  0  0  0  0
  194.8470  173.0160  137.4110 C   0  0  0  0  0  2  0  0  0  0  0  0
  193.6570  175.2900  138.7600 O   0  0  0  0  0  0  0  0  0  0  0  0
  195.0210  176.2940  137.1740 N   0  0  0  0  0  1  0  0  0  0  0  0
  193.9780  175.4010  137.5490 C   0  0  0  0  0  0  0  0  0  0  0  0
  1  3  2  0  0  0  0
  1  5  1  0  0  0  0
  2  4  1  0  0  0  0
  3  7  1  0  0  0  0
  4  1  1  0  0  0  0
  5 11  1  0  0  0  0
  6  5  2  0  0  0  0
  6 12  1  0  0  0  0
  7 11  2  0  0  0  0
  8  4  2  0  0  0  0
  8 13  1  0  0  0  0
  9 14  1  0  0  0  0
  9 12  2  0  0  0  0
 10  9  1  0  0  0  0
 13 10  2  0  0  0  0
 13  6  1  0  0  0  0
 14 15  1  0  0  0  0
 15 16  1  0  0  0  0
 16 17  1  0  0  0  0
 17 18  1  0  0  0  0
 18 20  1  0  0  0  0
 20 19  1  1  0  0  0
 21 20  1  0  0  0  0
 21 22  1  0  0  0  0
 23 22  1  1  0  0  0
 23 29  1  0  0  0  0
 24 28  1  0  0  0  0
 25 24  1  0  0  0  0
 26 24  1  0  0  0  0
 28 27  2  0  0  0  0
 28 23  1  0  0  0  0
 29 31  1  0  0  0  0
 31 30  1  0  0  0  0
 32 35  1  1  0  0  0
 32 33  1  0  0  0  0
 32  3  1  0  0  0  0
 34 33  1  0  0  0  0
 37 41  1  6  0  0  0
 37 38  1  0  0  0  0
 38 36  1  0  0  0  0
 39 35  1  6  0  0  0
 39 36  1  0  0  0  0
 40 37  1  0  0  0  0
 40 39  1  0  0  0  0
 43 41  1  0  0  0  0
 43 42  1  1  0  0  0
 45 44  2  0  0  0  0
 45 43  1  0  0  0  0
 46 45  1  0  0  0  0
 48 47  1  0  0  0  0
 48 43  1  0  0  0  0
 49 48  2  0  0  0  0
 50 10  1  0  0  0  0
 51 50  1  0  0  0  0
 52 51  1  0  0  0  0
 54 53  2  0  0  0  0
 55 52  1  0  0  0  0
 55 54  1  0  0  0  0
 56 58  1  0  0  0  0
 56 54  1  1  0  0  0
 56 65  1  0  0  0  0
 57 60  1  0  0  0  0
 57 58  1  0  0  0  0
 58 62  1  0  0  0  0
 60 61  1  0  0  0  0
 61 59  1  0  0  0  0
 62 59  1  0  0  0  0
 64 65  1  0  0  0  0
 65 63  2  0  0  0  0
M  END
>  <MODEL>
7

>  <REMARK>
 VINA RESULT:      -3.5      2.613      8.519
  Name = 
  27 active torsions:
  status: ('A' for Active; 'I' for Inactive)
    1  A    between atoms: C_4  and  C_12
    2  A    between atoms: N_9  and  C_25
    3  A    between atoms: N_9  and  C_52
    4  A    between atoms: C_11  and  C_36
    5  A    between atoms: C_11  and  S_62
    6  A    between atoms: C_12  and  C_23
    7  A    between atoms: C_12  and  O_42
    8  A    between atoms: C_14  and  N_21
    9  A    between atoms: C_14  and  C_33
   10  A    between atoms: C_14  and  C_40
   11  A    between atoms: C_15  and  C_54
   12  A    between atoms: C_15  and  C_65
   13  A    between atoms: C_19  and  C_27
   14  A    between atoms: C_19  and  C_31
   15  A    between atoms: C_19  and  O_43
   16  A    between atoms: C_23  and  C_55
   17  A    between atoms: C_25  and  C_29
   18  A    between atoms: C_34  and  O_43
   19  A    between atoms: C_48  and  N_49
   20  A    between atoms: C_48  and  C_53
   21  A    between atoms: N_49  and  C_59
   22  A    between atoms: C_52  and  N_61
   23  A    between atoms: C_53  and  N_61
   24  A    between atoms: C_54  and  C_57
   25  A    between atoms: C_54  and  C_59
   26  A    between atoms: C_60  and  S_62
   27  A    between atoms: C_60  and  N_63
                            x       y       z     vdW  Elec       q    Type
                         _______ _______ _______ _____ _____    ______ ____

>  <TORSDO>
F 27

$$$$
=
 OpenBabel10232410083D

 65 69  0  0  1  0  0  0  0  0999 V2000
  182.8830  178.8390  140.1010 C   0  0  0  0  0  0  0  0  0  0  0  0
  181.2360  178.5030  142.0080 C   0  0  0  0  0  1  0  0  0  0  0  0
  182.1070  178.9860  139.0310 C   0  0  0  0  0  0  0  0  0  0  0  0
  182.6190  178.5730  141.4640 C   0  0  0  0  0  0  0  0  0  0  0  0
  184.1690  178.9190  139.6340 C   0  0  0  0  0  0  0  0  0  0  0  0
  185.2330  178.7160  140.4970 C   0  0  0  0  0  0  0  0  0  0  0  0
  182.9430  179.1440  137.8730 N   0  0  0  0  0  0  0  0  0  0  0  0
  183.6870  178.3680  142.3030 N   0  0  0  0  0  0  0  0  0  0  0  0
  187.1740  178.3650  141.4790 C   0  0  0  0  0  0  0  0  0  0  0  0
  186.0880  178.2110  142.4620 C   0  0  0  0  0  0  0  0  0  0  0  0
  184.1670  179.1080  138.2290 N   0  0  0  0  0  0  0  0  0  0  0  0
  186.6730  178.6620  140.2750 C   0  0  0  0  0  3  0  0  0  0  0  0
  184.9620  178.4370  141.8150 C   0  0  0  0  0  0  0  0  0  0  0  0
  188.6240  178.1540  141.7480 C   0  0  0  0  0  2  0  0  0  0  0  0
  189.4020  179.2360  141.1670 N   0  0  0  0  0  2  0  0  0  0  0  0
  190.0440  178.7000  139.9810 C   0  0  0  0  0  2  0  0  0  0  0  0
  190.4730  177.3350  140.2320 N   0  0  0  0  0  2  0  0  0  0  0  0
  191.8480  177.2320  139.7750 C   0  0  0  0  0  2  0  0  0  0  0  0
  193.3020  176.0180  138.2830 O   0  0  0  0  0  1  0  0  0  0  0  0
  191.9800  176.1310  138.7260 C   0  0  2  0  0  3  0  0  0  0  0  0
  191.0770  176.3530  137.5960 N   0  0  0  0  0  2  0  0  0  0  0  0
  190.6230  175.0750  137.0470 C   0  0  0  0  0  2  0  0  0  0  0  0
  189.3270  175.2400  136.2480 C   0  0  1  0  0  3  0  0  0  0  0  0
  188.2190  177.4070  136.9730 N   0  0  0  0  0  0  0  0  0  0  0  0
  187.9310  178.8200  136.7900 C   0  0  0  0  0  1  0  0  0  0  0  0
  187.7400  176.7770  138.0730 O   0  0  0  0  0  1  0  0  0  0  0  0
  189.3630  177.2490  134.9420 O   0  0  0  0  0  0  0  0  0  0  0  0
  188.9890  176.6820  136.0050 C   0  0  0  0  0  0  0  0  0  0  0  0
  189.3370  174.4520  134.9450 C   0  0  0  0  0  2  0  0  0  0  0  0
  188.8440  172.1460  135.2420 O   0  0  0  0  0  1  0  0  0  0  0  0
  189.8940  173.0620  135.1770 C   0  0  0  0  0  2  0  0  0  0  0  0
  180.6220  178.8100  138.9790 C   0  0  2  0  0  3  0  0  0  0  0  0
  180.0130  179.7590  139.8080 O   0  0  0  0  0  0  0  0  0  0  0  0
  180.0400  180.9530  139.0820 C   0  0  0  0  0  1  0  0  0  0  0  0
  180.2470  177.4070  139.4410 C   0  0  0  0  0  2  0  0  0  0  0  0
  180.1050  175.0160  138.6760 C   0  0  0  0  0  2  0  0  0  0  0  0
  181.7880  175.3920  137.0160 C   0  0  1  0  0  3  0  0  0  0  0  0
  181.4830  174.5710  138.2460 C   0  0  0  0  0  2  0  0  0  0  0  0
  179.9890  176.4760  138.2620 C   0  0  2  0  0  3  0  0  0  0  0  0
  181.0580  176.7100  137.2040 C   0  0  0  0  0  2  0  0  0  0  0  0
  183.1750  175.6160  136.9200 O   0  0  0  0  0  0  0  0  0  0  0  0
  182.6580  175.8250  134.6680 O   0  0  0  0  0  1  0  0  0  0  0  0
  183.6160  175.3750  135.5920 C   0  0  2  0  0  0  0  0  0  0  0  0
  183.0420  173.2820  134.6480 O   0  0  0  0  0  0  0  0  0  0  0  0
  183.7940  173.8900  135.3930 C   0  0  0  0  0  0  0  0  0  0  0  0
  185.1090  172.9870  136.2170 S   0  0  0  0  0  1  0  0  0  0  0  0
  185.8330  175.5000  134.4210 O   0  0  0  0  0  0  0  0  0  0  0  0
  184.9450  176.0450  135.3410 C   0  0  0  0  0  0  0  0  0  0  0  0
  185.2370  177.1270  135.9140 O   0  0  0  0  0  1  0  0  0  0  0  0
  186.2240  177.8240  143.8960 C   0  0  0  0  0  2  0  0  0  0  0  0
  184.9180  178.6060  144.8850 S   0  0  0  0  0  0  0  0  0  0  0  0
  185.8470  178.3140  146.4150 C   0  0  0  0  0  2  0  0  0  0  0  0
  187.9260  177.2360  148.0080 O   0  0  0  0  0  0  0  0  0  0  0  0
  188.2590  177.9160  146.9970 C   0  0  0  0  0  0  0  0  0  0  0  0
  187.2630  178.5230  146.1730 N   0  0  0  0  0  2  0  0  0  0  0  0
  189.7110  178.0890  146.6480 C   0  0  2  0  0  3  0  0  0  0  0  0
  191.4040  177.6530  145.0230 C   0  0  0  0  0  2  0  0  0  0  0  0
  189.9610  177.8440  145.2160 N   0  0  0  0  0  0  0  0  0  0  0  0
  189.5790  176.3210  143.3330 C   0  0  0  0  0  2  0  0  0  0  0  0
  191.6970  177.3830  143.5500 C   0  0  0  0  0  2  0  0  0  0  0  0
  191.0180  176.1580  143.1300 N   0  0  0  0  0  2  0  0  0  0  0  0
  189.2970  176.5990  144.8090 C   0  0  0  0  0  2  0  0  0  0  0  0
  191.2700  177.6720  148.4130 O   0  0  0  0  0  0  0  0  0  0  0  0
  190.4570  175.7650  147.3710 N   0  0  0  0  0  1  0  0  0  0  0  0
  190.5260  177.1790  147.5270 C   0  0  0  0  0  0  0  0  0  0  0  0
  1  4  2  0  0  0  0
  3  1  1  0  0  0  0
  4  2  1  0  0  0  0
  4  8  1  0  0  0  0
  5  1  1  0  0  0  0
  5  6  1  0  0  0  0
  6 13  1  0  0  0  0
  7 11  1  0  0  0  0
  7  3  2  0  0  0  0
  9 14  1  0  0  0  0
  9 10  2  0  0  0  0
 10 50  1  0  0  0  0
 11  5  2  0  0  0  0
 12  6  2  0  0  0  0
 12  9  1  0  0  0  0
 13  8  2  0  0  0  0
 13 10  1  0  0  0  0
 15 14  1  0  0  0  0
 16 17  1  0  0  0  0
 16 15  1  0  0  0  0
 18 17  1  0  0  0  0
 20 19  1  6  0  0  0
 20 18  1  0  0  0  0
 21 20  1  0  0  0  0
 22 21  1  0  0  0  0
 23 29  1  6  0  0  0
 23 22  1  0  0  0  0
 24 26  1  0  0  0  0
 25 24  1  0  0  0  0
 27 28  2  0  0  0  0
 28 23  1  0  0  0  0
 28 24  1  0  0  0  0
 29 31  1  0  0  0  0
 31 30  1  0  0  0  0
 32  3  1  0  0  0  0
 32 35  1  1  0  0  0
 32 33  1  0  0  0  0
 34 33  1  0  0  0  0
 37 41  1  1  0  0  0
 37 40  1  0  0  0  0
 37 38  1  0  0  0  0
 38 36  1  0  0  0  0
 39 36  1  0  0  0  0
 39 35  1  1  0  0  0
 40 39  1  0  0  0  0
 43 42  1  6  0  0  0
 43 41  1  0  0  0  0
 44 45  2  0  0  0  0
 45 43  1  0  0  0  0
 45 46  1  0  0  0  0
 47 48  2  0  0  0  0
 48 43  1  0  0  0  0
 48 49  1  0  0  0  0
 50 51  1  0  0  0  0
 51 52  1  0  0  0  0
 54 53  2  0  0  0  0
 55 52  1  0  0  0  0
 55 54  1  0  0  0  0
 56 54  1  6  0  0  0
 56 65  1  0  0  0  0
 57 58  1  0  0  0  0
 58 56  1  0  0  0  0
 59 62  1  0  0  0  0
 60 57  1  0  0  0  0
 61 59  1  0  0  0  0
 61 60  1  0  0  0  0
 62 58  1  0  0  0  0
 64 65  1  0  0  0  0
 65 63  2  0  0  0  0
M  END
>  <MODEL>
8

>  <REMARK>
 VINA RESULT:      -3.5      3.605      9.829
  Name = 
  27 active torsions:
  status: ('A' for Active; 'I' for Inactive)
    1  A    between atoms: C_4  and  C_12
    2  A    between atoms: N_9  and  C_25
    3  A    between atoms: N_9  and  C_52
    4  A    between atoms: C_11  and  C_36
    5  A    between atoms: C_11  and  S_62
    6  A    between atoms: C_12  and  C_23
    7  A    between atoms: C_12  and  O_42
    8  A    between atoms: C_14  and  N_21
    9  A    between atoms: C_14  and  C_33
   10  A    between atoms: C_14  and  C_40
   11  A    between atoms: C_15  and  C_54
   12  A    between atoms: C_15  and  C_65
   13  A    between atoms: C_19  and  C_27
   14  A    between atoms: C_19  and  C_31
   15  A    between atoms: C_19  and  O_43
   16  A    between atoms: C_23  and  C_55
   17  A    between atoms: C_25  and  C_29
   18  A    between atoms: C_34  and  O_43
   19  A    between atoms: C_48  and  N_49
   20  A    between atoms: C_48  and  C_53
   21  A    between atoms: N_49  and  C_59
   22  A    between atoms: C_52  and  N_61
   23  A    between atoms: C_53  and  N_61
   24  A    between atoms: C_54  and  C_57
   25  A    between atoms: C_54  and  C_59
   26  A    between atoms: C_60  and  S_62
   27  A    between atoms: C_60  and  N_63
                            x       y       z     vdW  Elec       q    Type
                         _______ _______ _______ _____ _____    ______ ____

>  <TORSDO>
F 27

$$$$
=
 OpenBabel10232410083D

 65 69  0  0  1  0  0  0  0  0999 V2000
  190.4270  176.5420  136.9730 C   0  0  0  0  0  0  0  0  0  0  0  0
  192.2120  176.5160  138.7830 C   0  0  0  0  0  1  0  0  0  0  0  0
  191.0750  176.1500  135.8800 C   0  0  0  0  0  0  0  0  0  0  0  0
  190.8290  176.7880  138.3060 C   0  0  0  0  0  0  0  0  0  0  0  0
  189.1400  176.7810  136.5700 C   0  0  0  0  0  0  0  0  0  0  0  0
  188.2160  177.2930  137.4660 C   0  0  0  0  0  0  0  0  0  0  0  0
  190.1610  176.1660  134.7710 N   0  0  0  0  0  0  0  0  0  0  0  0
  189.9020  177.3020  139.1790 N   0  0  0  0  0  0  0  0  0  0  0  0
  186.4930  178.1830  138.5120 C   0  0  0  0  0  0  0  0  0  0  0  0
  187.6370  178.0900  139.4360 C   0  0  0  0  0  0  0  0  0  0  0  0
  189.0110  176.5370  135.1790 N   0  0  0  0  0  0  0  0  0  0  0  0
  186.8290  177.7120  137.3060 C   0  0  0  0  0  3  0  0  0  0  0  0
  188.6260  177.5480  138.7530 C   0  0  0  0  0  0  0  0  0  0  0  0
  185.1660  178.7780  138.8340 C   0  0  0  0  0  2  0  0  0  0  0  0
  184.1420  177.7450  138.8280 N   0  0  0  0  0  2  0  0  0  0  0  0
  183.1570  178.1400  137.8380 C   0  0  0  0  0  2  0  0  0  0  0  0
  181.8640  177.5710  138.1780 N   0  0  0  0  0  2  0  0  0  0  0  0
  182.0970  176.1880  138.5570 C   0  0  0  0  0  2  0  0  0  0  0  0
  180.3330  174.8020  137.6710 O   0  0  0  0  0  1  0  0  0  0  0  0
  181.6400  175.2470  137.4450 C   0  0  2  0  0  3  0  0  0  0  0  0
  182.5500  174.1110  137.2920 N   0  0  0  0  0  2  0  0  0  0  0  0
  183.9030  174.4810  137.7090 C   0  0  0  0  0  2  0  0  0  0  0  0
  184.7810  174.8330  136.5040 C   0  0  1  0  0  3  0  0  0  0  0  0
  185.4930  172.4130  136.2120 N   0  0  0  0  0  0  0  0  0  0  0  0
  186.4930  171.4020  135.9130 C   0  0  0  0  0  1  0  0  0  0  0  0
  184.2190  172.0230  136.4590 O   0  0  0  0  0  1  0  0  0  0  0  0
  187.0450  174.1570  136.1090 O   0  0  0  0  0  0  0  0  0  0  0  0
  185.8430  173.8030  136.2560 C   0  0  0  0  0  0  0  0  0  0  0  0
  183.9680  175.0980  135.2440 C   0  0  0  0  0  2  0  0  0  0  0  0
  185.3190  176.8480  134.3700 O   0  0  0  0  0  1  0  0  0  0  0  0
  184.0470  176.5640  134.8670 C   0  0  0  0  0  2  0  0  0  0  0  0
  192.5490  175.9290  135.7520 C   0  0  2  0  0  3  0  0  0  0  0  0
  193.1870  177.1570  135.5460 O   0  0  0  0  0  0  0  0  0  0  0  0
  194.5440  176.8490  135.4120 C   0  0  0  0  0  1  0  0  0  0  0  0
  192.8360  174.9970  134.5810 C   0  0  0  0  0  2  0  0  0  0  0  0
  192.7650  173.1400  136.2760 C   0  0  0  0  0  2  0  0  0  0  0  0
  195.0300  173.5700  136.9190 C   0  0  1  0  0  3  0  0  0  0  0  0
  193.6190  173.5400  137.4560 C   0  0  0  0  0  2  0  0  0  0  0  0
  193.4710  173.6900  135.0440 C   0  0  2  0  0  3  0  0  0  0  0  0
  194.9110  173.9590  135.4570 C   0  0  0  0  0  2  0  0  0  0  0  0
  195.7870  174.5320  137.6160 O   0  0  0  0  0  0  0  0  0  0  0  0
  197.4240  175.1340  136.0860 O   0  0  0  0  0  1  0  0  0  0  0  0
  197.1580  174.4180  137.2650 C   0  0  2  0  0  0  0  0  0  0  0  0
  197.0390  172.1060  137.7540 O   0  0  0  0  0  0  0  0  0  0  0  0
  197.4860  172.9670  137.0140 C   0  0  0  0  0  0  0  0  0  0  0  0
  198.5130  172.4670  135.6290 S   0  0  0  0  0  1  0  0  0  0  0  0
  199.4210  174.7930  138.2870 O   0  0  0  0  0  0  0  0  0  0  0  0
  198.0390  174.9100  138.3880 C   0  0  0  0  0  0  0  0  0  0  0  0
  197.5400  175.4780  139.3950 O   0  0  0  0  0  1  0  0  0  0  0  0
  187.6900  178.5610  140.8500 C   0  0  0  0  0  2  0  0  0  0  0  0
  186.0100  178.7750  141.5040 S   0  0  0  0  0  0  0  0  0  0  0  0
  186.6330  178.7850  143.2080 C   0  0  0  0  0  2  0  0  0  0  0  0
  189.3220  178.9380  144.0840 O   0  0  0  0  0  0  0  0  0  0  0  0
  188.8330  177.7880  143.8990 C   0  0  0  0  0  0  0  0  0  0  0  0
  187.4970  177.6380  143.4180 N   0  0  0  0  0  2  0  0  0  0  0  0
  189.6560  176.5630  144.1870 C   0  0  2  0  0  3  0  0  0  0  0  0
  191.2310  176.8860  145.9510 C   0  0  0  0  0  2  0  0  0  0  0  0
  189.8870  176.3900  145.6330 N   0  0  0  0  0  0  0  0  0  0  0  0
  189.1830  177.0630  147.8830 C   0  0  0  0  0  2  0  0  0  0  0  0
  191.4980  176.7330  147.4450 C   0  0  0  0  0  2  0  0  0  0  0  0
  190.5320  177.5290  148.2010 N   0  0  0  0  0  2  0  0  0  0  0  0
  188.9290  177.2120  146.3840 C   0  0  0  0  0  2  0  0  0  0  0  0
  191.7440  175.6890  143.4170 O   0  0  0  0  0  0  0  0  0  0  0  0
  191.2660  177.8370  142.6830 N   0  0  0  0  0  1  0  0  0  0  0  0
  190.9450  176.6610  143.4170 C   0  0  0  0  0  0  0  0  0  0  0  0
  1  4  2  0  0  0  0
  3  1  1  0  0  0  0
  4  2  1  0  0  0  0
  4  8  1  0  0  0  0
  5  1  1  0  0  0  0
  5  6  1  0  0  0  0
  6 13  1  0  0  0  0
  7 11  1  0  0  0  0
  7  3  2  0  0  0  0
  9 14  1  0  0  0  0
  9 10  2  0  0  0  0
 10 50  1  0  0  0  0
 11  5  2  0  0  0  0
 12  6  2  0  0  0  0
 12  9  1  0  0  0  0
 13  8  2  0  0  0  0
 13 10  1  0  0  0  0
 15 14  1  0  0  0  0
 16 17  1  0  0  0  0
 16 15  1  0  0  0  0
 17 18  1  0  0  0  0
 20 19  1  1  0  0  0
 20 18  1  0  0  0  0
 21 20  1  0  0  0  0
 21 22  1  0  0  0  0
 23 29  1  6  0  0  0
 23 22  1  0  0  0  0
 24 28  1  0  0  0  0
 24 26  1  0  0  0  0
 25 24  1  0  0  0  0
 27 28  2  0  0  0  0
 28 23  1  0  0  0  0
 30 31  1  0  0  0  0
 31 29  1  0  0  0  0
 32 35  1  6  0  0  0
 32  3  1  0  0  0  0
 33 32  1  0  0  0  0
 34 33  1  0  0  0  0
 36 38  1  0  0  0  0
 37 38  1  0  0  0  0
 37 41  1  1  0  0  0
 39 35  1  1  0  0  0
 39 40  1  0  0  0  0
 39 36  1  0  0  0  0
 40 37  1  0  0  0  0
 43 42  1  6  0  0  0
 43 41  1  0  0  0  0
 43 48  1  0  0  0  0
 45 43  1  0  0  0  0
 45 44  2  0  0  0  0
 46 45  1  0  0  0  0
 47 48  2  0  0  0  0
 48 49  1  0  0  0  0
 50 51  1  0  0  0  0
 51 52  1  0  0  0  0
 52 55  1  0  0  0  0
 54 53  2  0  0  0  0
 54 56  1  0  0  0  0
 55 54  1  0  0  0  0
 56 65  1  6  0  0  0
 56 58  1  0  0  0  0
 57 60  1  0  0  0  0
 58 57  1  0  0  0  0
 58 62  1  0  0  0  0
 59 61  1  0  0  0  0
 60 61  1  0  0  0  0
 62 59  1  0  0  0  0
 64 65  1  0  0  0  0
 65 63  2  0  0  0  0
M  END
>  <MODEL>
9

>  <REMARK>
 VINA RESULT:      -3.5      3.046      9.375
  Name = 
  27 active torsions:
  status: ('A' for Active; 'I' for Inactive)
    1  A    between atoms: C_4  and  C_12
    2  A    between atoms: N_9  and  C_25
    3  A    between atoms: N_9  and  C_52
    4  A    between atoms: C_11  and  C_36
    5  A    between atoms: C_11  and  S_62
    6  A    between atoms: C_12  and  C_23
    7  A    between atoms: C_12  and  O_42
    8  A    between atoms: C_14  and  N_21
    9  A    between atoms: C_14  and  C_33
   10  A    between atoms: C_14  and  C_40
   11  A    between atoms: C_15  and  C_54
   12  A    between atoms: C_15  and  C_65
   13  A    between atoms: C_19  and  C_27
   14  A    between atoms: C_19  and  C_31
   15  A    between atoms: C_19  and  O_43
   16  A    between atoms: C_23  and  C_55
   17  A    between atoms: C_25  and  C_29
   18  A    between atoms: C_34  and  O_43
   19  A    between atoms: C_48  and  N_49
   20  A    between atoms: C_48  and  C_53
   21  A    between atoms: N_49  and  C_59
   22  A    between atoms: C_52  and  N_61
   23  A    between atoms: C_53  and  N_61
   24  A    between atoms: C_54  and  C_57
   25  A    between atoms: C_54  and  C_59
   26  A    between atoms: C_60  and  S_62
   27  A    between atoms: C_60  and  N_63
                            x       y       z     vdW  Elec       q    Type
                         _______ _______ _______ _____ _____    ______ ____

>  <TORSDO>
F 27

$$$$
