=
 OpenBabel10232407573D

 44 48  0  0  1  0  0  0  0  0999 V2000
  190.4050  177.1060  137.7360 C   0  0  2  0  0  3  0  0  0  0  0  0
  191.3970  176.1150  137.3330 N   0  0  0  0  0  2  0  0  0  0  0  0
  193.1510  177.1230  138.4930 O   0  0  0  0  0  0  0  0  0  0  0  0
  192.7730  176.2080  137.7100 C   0  0  0  0  0  0  0  0  0  0  0  0
  197.5760  172.9620  137.3380 C   0  0  0  0  0  1  0  0  0  0  0  0
  196.2470  173.4590  137.0220 N   0  0  0  0  0  0  0  0  0  0  0  0
  193.7380  175.2220  137.1880 C   0  0  0  0  0  0  0  0  0  0  0  0
  195.9780  173.7020  135.6430 C   0  0  0  0  0  3  0  0  0  0  0  0
  194.0520  174.1000  138.0170 N   0  0  0  0  0  2  0  0  0  0  0  0
  195.0720  174.5190  135.2060 N   0  0  0  0  0  0  0  0  0  0  0  0
  194.1750  175.3680  135.9320 C   0  0  0  0  0  3  0  0  0  0  0  0
  195.1990  173.2550  137.9700 C   0  0  0  0  0  0  0  0  0  0  0  0
  195.3030  172.3360  138.8260 O   0  0  0  0  0  0  0  0  0  0  0  0
  189.7490  176.6970  139.0500 C   0  0  0  0  0  2  0  0  0  0  0  0
  189.8270  177.7680  140.0340 N   0  0  0  0  0  2  0  0  0  0  0  0
  190.7690  177.3340  141.0510 C   0  0  0  0  0  2  0  0  0  0  0  0
  188.8640  175.8140  143.3900 C   0  0  0  0  0  2  0  0  0  0  0  0
  187.7130  176.7260  143.5420 C   0  0  2  0  0  3  0  0  0  0  0  0
  188.6820  176.8980  142.3210 C   0  0  1  0  0  0  0  0  0  0  0  0
  190.1220  177.4260  142.4180 C   0  0  2  0  0  3  0  0  0  0  0  0
  189.0230  178.4020  142.3770 C   0  0  0  0  0  2  0  0  0  0  0  0
  186.5710  178.1830  146.7760 C   0  0  0  0  0  0  0  0  0  0  0  0
  188.8730  176.8920  145.7660 C   0  0  0  0  0  3  0  0  0  0  0  0
  188.8320  177.1950  147.0730 C   0  0  0  0  0  3  0  0  0  0  0  0
  187.8480  178.2190  147.5830 C   0  0  2  0  0  3  0  0  0  0  0  0
  185.3780  178.4540  147.3660 F   0  0  0  0  0  0  0  0  0  0  0  0
  187.5830  177.9920  148.9210 F   0  0  0  0  0  0  0  0  0  0  0  0
  186.6120  177.8680  145.4720 C   0  0  0  0  0  3  0  0  0  0  0  0
  187.9340  177.5820  144.8000 C   0  0  2  0  0  3  0  0  0  0  0  0
  189.3520  177.2830  136.6510 C   0  0  0  0  0  2  0  0  0  0  0  0
  188.4020  178.3140  137.0380 N   0  0  0  0  0  2  0  0  0  0  0  0
  187.0710  177.7580  136.8590 C   0  0  0  0  0  2  0  0  0  0  0  0
  186.3050  178.2820  139.0800 N   0  0  0  0  0  0  0  0  0  0  0  0
  186.1290  178.4040  137.8170 C   0  0  0  0  0  3  0  0  0  0  0  0
  185.2250  179.0390  140.1770 S   0  0  0  0  0  0  0  0  0  0  0  0
  186.0110  179.7970  141.2120 O   0  0  0  0  0  0  0  0  0  0  0  0
  184.3630  180.0080  139.4190 O   0  0  0  0  0  0  0  0  0  0  0  0
  182.7300  177.9320  140.4700 C   0  0  0  0  0  2  0  0  0  0  0  0
  183.3080  179.0040  142.9790 C   0  0  2  0  0  3  0  0  0  0  0  0
  184.1780  177.8100  140.9530 C   0  0  2  0  0  3  0  0  0  0  0  0
  184.2440  177.9070  142.4790 C   0  0  0  0  0  2  0  0  0  0  0  0
  183.2780  178.9920  144.4930 C   0  0  0  0  0  1  0  0  0  0  0  0
  182.0160  178.7680  142.4780 O   0  0  0  0  0  0  0  0  0  0  0  0
  182.0750  179.0530  141.1460 N   0  0  0  0  0  2  0  0  0  0  0  0
  1 30  1  6  0  0  0
  1 14  1  0  0  0  0
  2  4  1  0  0  0  0
  2  1  1  0  0  0  0
  4  3  2  0  0  0  0
  6  5  1  0  0  0  0
  6 12  1  0  0  0  0
  7  4  1  0  0  0  0
  7  9  1  0  0  0  0
  8  6  1  0  0  0  0
 10  8  2  0  0  0  0
 10 11  1  0  0  0  0
 11  7  2  0  0  0  0
 12  9  1  0  0  0  0
 12 13  2  0  0  0  0
 14 15  1  0  0  0  0
 15 16  1  0  0  0  0
 18 17  1  1  0  0  0
 18 29  1  0  0  0  0
 19 21  1  6  0  0  0
 19 20  1  0  0  0  0
 19 17  1  0  0  0  0
 19 18  1  0  0  0  0
 20 16  1  6  0  0  0
 21 20  1  0  0  0  0
 22 26  1  0  0  0  0
 22 25  1  0  0  0  0
 23 24  2  0  0  0  0
 24 25  1  0  0  0  0
 25 27  1  1  0  0  0
 28 22  2  0  0  0  0
 29 28  1  1  0  0  0
 29 23  1  0  0  0  0
 30 31  1  0  0  0  0
 32 31  1  0  0  0  0
 32 34  1  0  0  0  0
 33 35  1  0  0  0  0
 34 33  2  0  0  0  0
 35 36  2  0  0  0  0
 37 35  2  0  0  0  0
 38 40  1  0  0  0  0
 38 44  1  0  0  0  0
 39 42  1  1  0  0  0
 40 35  1  6  0  0  0
 40 41  1  0  0  0  0
 41 39  1  0  0  0  0
 43 39  1  0  0  0  0
 44 43  1  0  0  0  0
M  END
>  <MODEL>
1

>  <REMARK>
 VINA RESULT:      -8.9      0.000      0.000
  Name = 
  13 active torsions:
  status: ('A' for Active; 'I' for Inactive)
    1  A    between atoms: C_1  and  N_17
    2  A    between atoms: C_1  and  C_34
    3  A    between atoms: N_2  and  C_29
    4  A    between atoms: C_8  and  C_33
    5  A    between atoms: C_11  and  S_21
    6  A    between atoms: C_14  and  C_43
    7  A    between atoms: N_17  and  C_42
    8  A    between atoms: N_18  and  C_22
    9  A    between atoms: N_18  and  C_25
   10  A    between atoms: S_21  and  N_26
   11  A    between atoms: C_22  and  C_23
   12  A    between atoms: C_25  and  C_29
   13  A    between atoms: C_29  and  C_42
                            x       y       z     vdW  Elec       q    Type
                         _______ _______ _______ _____ _____    ______ ____

>  <TORSDO>
F 13

$$$$
=
 OpenBabel10232407573D

 44 48  0  0  1  0  0  0  0  0999 V2000
  189.3600  176.6110  137.5330 C   0  0  2  0  0  3  0  0  0  0  0  0
  190.3320  175.5280  137.6210 N   0  0  0  0  0  2  0  0  0  0  0  0
  191.5770  176.2430  135.7840 O   0  0  0  0  0  0  0  0  0  0  0  0
  191.3980  175.3730  136.6800 C   0  0  0  0  0  0  0  0  0  0  0  0
  196.2820  172.2290  136.6410 C   0  0  0  0  0  1  0  0  0  0  0  0
  194.8740  172.5460  136.8180 N   0  0  0  0  0  0  0  0  0  0  0  0
  192.2880  174.2010  136.7760 C   0  0  0  0  0  0  0  0  0  0  0  0
  193.9470  171.6090  136.2760 C   0  0  0  0  0  3  0  0  0  0  0  0
  193.2970  174.2160  137.7880 N   0  0  0  0  0  2  0  0  0  0  0  0
  192.7270  171.8950  135.9420 N   0  0  0  0  0  0  0  0  0  0  0  0
  192.0310  173.1470  135.9930 C   0  0  0  0  0  3  0  0  0  0  0  0
  194.5050  173.4630  137.8490 C   0  0  0  0  0  0  0  0  0  0  0  0
  195.2850  173.6560  138.8190 O   0  0  0  0  0  0  0  0  0  0  0  0
  189.5270  177.5720  138.7050 C   0  0  0  0  0  2  0  0  0  0  0  0
  189.6990  176.8500  139.9590 N   0  0  0  0  0  2  0  0  0  0  0  0
  190.5860  177.6520  140.7840 C   0  0  0  0  0  2  0  0  0  0  0  0
  189.2900  175.8770  143.3490 C   0  0  0  0  0  2  0  0  0  0  0  0
  187.9950  176.5380  143.6060 C   0  0  2  0  0  3  0  0  0  0  0  0
  188.7770  176.8530  142.2830 C   0  0  1  0  0  0  0  0  0  0  0  0
  190.0770  177.6690  142.2120 C   0  0  2  0  0  3  0  0  0  0  0  0
  188.8000  178.3950  142.2700 C   0  0  0  0  0  2  0  0  0  0  0  0
  186.7940  178.0350  146.8000 C   0  0  0  0  0  0  0  0  0  0  0  0
  189.1890  176.9340  145.7820 C   0  0  0  0  0  3  0  0  0  0  0  0
  189.1520  177.2980  147.0740 C   0  0  0  0  0  3  0  0  0  0  0  0
  188.0810  178.2410  147.5640 C   0  0  2  0  0  3  0  0  0  0  0  0
  185.5950  178.2150  147.4140 F   0  0  0  0  0  0  0  0  0  0  0  0
  187.8760  178.0570  148.9190 F   0  0  0  0  0  0  0  0  0  0  0  0
  186.8340  177.6600  145.5120 C   0  0  0  0  0  3  0  0  0  0  0  0
  188.1600  177.4750  144.8140 C   0  0  2  0  0  3  0  0  0  0  0  0
  187.9420  176.0580  137.4990 C   0  0  0  0  0  2  0  0  0  0  0  0
  187.0090  177.0950  137.0860 N   0  0  0  0  0  2  0  0  0  0  0  0
  185.8800  176.4300  136.4590 C   0  0  0  0  0  2  0  0  0  0  0  0
  183.8900  177.3280  137.4720 N   0  0  0  0  0  0  0  0  0  0  0  0
  184.7410  176.3720  137.4180 C   0  0  0  0  0  3  0  0  0  0  0  0
  182.5730  177.2490  138.5680 S   0  0  0  0  0  0  0  0  0  0  0  0
  181.2900  177.0850  137.8000 O   0  0  0  0  0  0  0  0  0  0  0  0
  182.7570  176.0570  139.4630 O   0  0  0  0  0  0  0  0  0  0  0  0
  183.3540  179.8530  138.9480 C   0  0  0  0  0  2  0  0  0  0  0  0
  184.5170  178.4680  141.0710 C   0  0  2  0  0  3  0  0  0  0  0  0
  182.5230  178.7300  139.5740 C   0  0  2  0  0  3  0  0  0  0  0  0
  182.9920  178.4480  141.0030 C   0  0  0  0  0  2  0  0  0  0  0  0
  184.9610  178.3290  142.5110 C   0  0  0  0  0  1  0  0  0  0  0  0
  184.9830  179.6860  140.5470 O   0  0  0  0  0  0  0  0  0  0  0  0
  184.7770  179.6170  139.2010 N   0  0  0  0  0  2  0  0  0  0  0  0
  1 30  1  1  0  0  0
  1  2  1  0  0  0  0
  1 14  1  0  0  0  0
  3  4  2  0  0  0  0
  4  7  1  0  0  0  0
  4  2  1  0  0  0  0
  5  6  1  0  0  0  0
  6 12  1  0  0  0  0
  7  9  1  0  0  0  0
  8  6  1  0  0  0  0
  9 12  1  0  0  0  0
 10 11  1  0  0  0  0
 10  8  2  0  0  0  0
 11  7  2  0  0  0  0
 12 13  2  0  0  0  0
 14 15  1  0  0  0  0
 15 16  1  0  0  0  0
 18 17  1  1  0  0  0
 18 29  1  0  0  0  0
 19 21  1  6  0  0  0
 19 17  1  0  0  0  0
 19 18  1  0  0  0  0
 20 16  1  6  0  0  0
 20 21  1  0  0  0  0
 20 19  1  0  0  0  0
 22 26  1  0  0  0  0
 22 25  1  0  0  0  0
 23 24  2  0  0  0  0
 24 25  1  0  0  0  0
 25 27  1  1  0  0  0
 28 22  2  0  0  0  0
 29 28  1  1  0  0  0
 29 23  1  0  0  0  0
 31 30  1  0  0  0  0
 32 31  1  0  0  0  0
 32 34  1  0  0  0  0
 33 35  1  0  0  0  0
 34 33  2  0  0  0  0
 35 37  2  0  0  0  0
 36 35  2  0  0  0  0
 38 44  1  0  0  0  0
 38 40  1  0  0  0  0
 39 42  1  1  0  0  0
 40 35  1  6  0  0  0
 40 41  1  0  0  0  0
 41 39  1  0  0  0  0
 43 39  1  0  0  0  0
 44 43  1  0  0  0  0
M  END
>  <MODEL>
2

>  <REMARK>
 VINA RESULT:      -8.3      1.851      2.213
  Name = 
  13 active torsions:
  status: ('A' for Active; 'I' for Inactive)
    1  A    between atoms: C_1  and  N_17
    2  A    between atoms: C_1  and  C_34
    3  A    between atoms: N_2  and  C_29
    4  A    between atoms: C_8  and  C_33
    5  A    between atoms: C_11  and  S_21
    6  A    between atoms: C_14  and  C_43
    7  A    between atoms: N_17  and  C_42
    8  A    between atoms: N_18  and  C_22
    9  A    between atoms: N_18  and  C_25
   10  A    between atoms: S_21  and  N_26
   11  A    between atoms: C_22  and  C_23
   12  A    between atoms: C_25  and  C_29
   13  A    between atoms: C_29  and  C_42
                            x       y       z     vdW  Elec       q    Type
                         _______ _______ _______ _____ _____    ______ ____

>  <TORSDO>
F 13

$$$$
=
 OpenBabel10232407573D

 44 48  0  0  1  0  0  0  0  0999 V2000
  190.5000  176.9700  137.7590 C   0  0  2  0  0  3  0  0  0  0  0  0
  191.5130  176.0030  137.3560 N   0  0  0  0  0  2  0  0  0  0  0  0
  193.2790  177.1570  138.3500 O   0  0  0  0  0  0  0  0  0  0  0  0
  192.9020  176.1800  137.6450 C   0  0  0  0  0  0  0  0  0  0  0  0
  197.6580  172.8530  137.3860 C   0  0  0  0  0  1  0  0  0  0  0  0
  196.3640  173.4020  137.0130 N   0  0  0  0  0  0  0  0  0  0  0  0
  193.8830  175.2090  137.1250 C   0  0  0  0  0  0  0  0  0  0  0  0
  196.1990  173.7440  135.6390 C   0  0  0  0  0  3  0  0  0  0  0  0
  194.1160  174.0270  137.8940 N   0  0  0  0  0  2  0  0  0  0  0  0
  195.3430  174.6110  135.1970 N   0  0  0  0  0  0  0  0  0  0  0  0
  194.4120  175.4290  135.9160 C   0  0  0  0  0  3  0  0  0  0  0  0
  195.2470  173.1590  137.8690 C   0  0  0  0  0  0  0  0  0  0  0  0
  195.2720  172.1820  138.6650 O   0  0  0  0  0  0  0  0  0  0  0  0
  189.9630  176.6320  139.1450 C   0  0  0  0  0  2  0  0  0  0  0  0
  190.0890  177.7650  140.0510 N   0  0  0  0  0  2  0  0  0  0  0  0
  191.0640  177.3880  141.0600 C   0  0  0  0  0  2  0  0  0  0  0  0
  189.3880  175.7740  143.5080 C   0  0  0  0  0  2  0  0  0  0  0  0
  188.1410  176.5520  143.6420 C   0  0  2  0  0  3  0  0  0  0  0  0
  189.0630  176.7760  142.3940 C   0  0  1  0  0  0  0  0  0  0  0  0
  190.4330  177.4710  142.4350 C   0  0  2  0  0  3  0  0  0  0  0  0
  189.2270  178.3100  142.3730 C   0  0  0  0  0  2  0  0  0  0  0  0
  186.8550  178.0820  146.7890 C   0  0  0  0  0  0  0  0  0  0  0  0
  189.2620  176.9260  145.8610 C   0  0  0  0  0  3  0  0  0  0  0  0
  189.1850  177.2940  147.1500 C   0  0  0  0  0  3  0  0  0  0  0  0
  188.1180  178.2610  147.5990 C   0  0  2  0  0  3  0  0  0  0  0  0
  185.6390  178.2880  147.3570 F   0  0  0  0  0  0  0  0  0  0  0  0
  187.8590  178.0850  148.9460 F   0  0  0  0  0  0  0  0  0  0  0  0
  186.9350  177.7030  145.5040 C   0  0  0  0  0  3  0  0  0  0  0  0
  188.2820  177.4880  144.8550 C   0  0  2  0  0  3  0  0  0  0  0  0
  189.3630  177.0090  136.7460 C   0  0  0  0  0  2  0  0  0  0  0  0
  188.1200  176.5850  137.3720 N   0  0  0  0  0  2  0  0  0  0  0  0
  187.0330  177.1720  136.6060 C   0  0  0  0  0  2  0  0  0  0  0  0
  184.7670  177.6080  137.2890 N   0  0  0  0  0  0  0  0  0  0  0  0
  185.7290  176.7660  137.2020 C   0  0  0  0  0  3  0  0  0  0  0  0
  183.2630  177.1310  137.9620 S   0  0  0  0  0  0  0  0  0  0  0  0
  182.2320  177.0360  136.8710 O   0  0  0  0  0  0  0  0  0  0  0  0
  183.4220  175.7770  138.5950 O   0  0  0  0  0  0  0  0  0  0  0  0
  183.1570  179.7310  138.8350 C   0  0  0  0  0  2  0  0  0  0  0  0
  184.7560  178.4370  140.7180 C   0  0  2  0  0  3  0  0  0  0  0  0
  182.7530  178.3040  139.2150 C   0  0  2  0  0  3  0  0  0  0  0  0
  183.3210  177.9340  140.5880 C   0  0  0  0  0  2  0  0  0  0  0  0
  185.2540  178.1890  142.1260 C   0  0  0  0  0  1  0  0  0  0  0  0
  184.7860  179.8140  140.4410 O   0  0  0  0  0  0  0  0  0  0  0  0
  184.5830  179.9300  139.0970 N   0  0  0  0  0  2  0  0  0  0  0  0
  1 30  1  6  0  0  0
  1 14  1  0  0  0  0
  2  4  1  0  0  0  0
  2  1  1  0  0  0  0
  4  3  2  0  0  0  0
  6  5  1  0  0  0  0
  6 12  1  0  0  0  0
  7  4  1  0  0  0  0
  7  9  1  0  0  0  0
  8  6  1  0  0  0  0
 10  8  2  0  0  0  0
 10 11  1  0  0  0  0
 11  7  2  0  0  0  0
 12  9  1  0  0  0  0
 12 13  2  0  0  0  0
 14 15  1  0  0  0  0
 15 16  1  0  0  0  0
 18 17  1  1  0  0  0
 18 29  1  0  0  0  0
 19 21  1  6  0  0  0
 19 20  1  0  0  0  0
 19 17  1  0  0  0  0
 19 18  1  0  0  0  0
 20 16  1  6  0  0  0
 21 20  1  0  0  0  0
 22 26  1  0  0  0  0
 22 25  1  0  0  0  0
 23 24  2  0  0  0  0
 24 25  1  0  0  0  0
 25 27  1  1  0  0  0
 28 22  2  0  0  0  0
 29 28  1  1  0  0  0
 29 23  1  0  0  0  0
 30 31  1  0  0  0  0
 32 34  1  0  0  0  0
 32 31  1  0  0  0  0
 33 35  1  0  0  0  0
 34 33  2  0  0  0  0
 35 37  2  0  0  0  0
 36 35  2  0  0  0  0
 38 44  1  0  0  0  0
 38 40  1  0  0  0  0
 39 42  1  1  0  0  0
 40 35  1  6  0  0  0
 40 41  1  0  0  0  0
 41 39  1  0  0  0  0
 43 39  1  0  0  0  0
 44 43  1  0  0  0  0
M  END
>  <MODEL>
3

>  <REMARK>
 VINA RESULT:      -8.3      1.381      1.819
  Name = 
  13 active torsions:
  status: ('A' for Active; 'I' for Inactive)
    1  A    between atoms: C_1  and  N_17
    2  A    between atoms: C_1  and  C_34
    3  A    between atoms: N_2  and  C_29
    4  A    between atoms: C_8  and  C_33
    5  A    between atoms: C_11  and  S_21
    6  A    between atoms: C_14  and  C_43
    7  A    between atoms: N_17  and  C_42
    8  A    between atoms: N_18  and  C_22
    9  A    between atoms: N_18  and  C_25
   10  A    between atoms: S_21  and  N_26
   11  A    between atoms: C_22  and  C_23
   12  A    between atoms: C_25  and  C_29
   13  A    between atoms: C_29  and  C_42
                            x       y       z     vdW  Elec       q    Type
                         _______ _______ _______ _____ _____    ______ ____

>  <TORSDO>
F 13

$$$$
=
 OpenBabel10232407573D

 44 48  0  0  1  0  0  0  0  0999 V2000
  190.3820  176.0180  137.9440 C   0  0  2  0  0  3  0  0  0  0  0  0
  188.9320  176.1680  137.9210 N   0  0  0  0  0  2  0  0  0  0  0  0
  188.9860  178.4070  137.2700 O   0  0  0  0  0  0  0  0  0  0  0  0
  188.2930  177.4110  137.6190 C   0  0  0  0  0  0  0  0  0  0  0  0
  182.9770  177.5910  139.9550 C   0  0  0  0  0  1  0  0  0  0  0  0
  184.0170  177.6720  138.9420 N   0  0  0  0  0  0  0  0  0  0  0  0
  186.8240  177.5140  137.7060 C   0  0  0  0  0  0  0  0  0  0  0  0
  183.7480  177.0090  137.7100 C   0  0  0  0  0  3  0  0  0  0  0  0
  186.2790  178.6030  138.4560 N   0  0  0  0  0  2  0  0  0  0  0  0
  184.6590  176.5950  136.8860 N   0  0  0  0  0  0  0  0  0  0  0  0
  186.0870  176.6580  136.9900 C   0  0  0  0  0  3  0  0  0  0  0  0
  184.9850  178.7180  139.0400 C   0  0  0  0  0  0  0  0  0  0  0  0
  184.7150  179.7570  139.7010 O   0  0  0  0  0  0  0  0  0  0  0  0
  190.9900  176.8960  139.0320 C   0  0  0  0  0  2  0  0  0  0  0  0
  190.3400  176.6710  140.3160 N   0  0  0  0  0  2  0  0  0  0  0  0
  191.1540  177.3380  141.3180 C   0  0  0  0  0  2  0  0  0  0  0  0
  188.9580  175.8640  143.4180 C   0  0  0  0  0  2  0  0  0  0  0  0
  187.8450  176.8310  143.4890 C   0  0  2  0  0  3  0  0  0  0  0  0
  188.9350  176.9830  142.3710 C   0  0  1  0  0  0  0  0  0  0  0  0
  190.3830  177.4310  142.6200 C   0  0  2  0  0  3  0  0  0  0  0  0
  189.3440  178.4640  142.5050 C   0  0  0  0  0  2  0  0  0  0  0  0
  186.5290  178.1120  146.7320 C   0  0  0  0  0  0  0  0  0  0  0  0
  188.9140  176.9450  145.7610 C   0  0  0  0  0  3  0  0  0  0  0  0
  188.8130  177.1930  147.0770 C   0  0  0  0  0  3  0  0  0  0  0  0
  187.7730  178.1590  147.5890 C   0  0  2  0  0  3  0  0  0  0  0  0
  185.3060  178.3160  147.2850 F   0  0  0  0  0  0  0  0  0  0  0  0
  187.4670  177.8680  148.9050 F   0  0  0  0  0  0  0  0  0  0  0  0
  186.6320  177.8530  145.4190 C   0  0  0  0  0  3  0  0  0  0  0  0
  187.9880  177.6410  144.7880 C   0  0  2  0  0  3  0  0  0  0  0  0
  190.9790  176.3670  136.5870 C   0  0  0  0  0  2  0  0  0  0  0  0
  192.1540  175.5480  136.3310 N   0  0  0  0  0  2  0  0  0  0  0  0
  191.8500  174.2060  136.7970 C   0  0  0  0  0  2  0  0  0  0  0  0
  194.0200  174.2890  137.8350 N   0  0  0  0  0  0  0  0  0  0  0  0
  193.0900  173.5700  137.3260 C   0  0  0  0  0  3  0  0  0  0  0  0
  195.4380  173.5500  138.4560 S   0  0  0  0  0  0  0  0  0  0  0  0
  195.9560  174.3540  139.6170 O   0  0  0  0  0  0  0  0  0  0  0  0
  195.0940  172.1700  138.9400 O   0  0  0  0  0  0  0  0  0  0  0  0
  198.0090  174.0300  137.6220 C   0  0  0  0  0  2  0  0  0  0  0  0
  196.4330  175.5920  135.9320 C   0  0  2  0  0  3  0  0  0  0  0  0
  196.6780  173.4250  137.1690 C   0  0  2  0  0  3  0  0  0  0  0  0
  196.2020  174.0840  135.8730 C   0  0  0  0  0  2  0  0  0  0  0  0
  196.0900  176.2090  134.5930 C   0  0  0  0  0  1  0  0  0  0  0  0
  197.7830  175.8370  136.2350 O   0  0  0  0  0  0  0  0  0  0  0  0
  197.9410  175.4910  137.5440 N   0  0  0  0  0  2  0  0  0  0  0  0
  1 30  1  6  0  0  0
  1 14  1  0  0  0  0
  2  1  1  0  0  0  0
  3  4  2  0  0  0  0
  4  7  1  0  0  0  0
  4  2  1  0  0  0  0
  6 12  1  0  0  0  0
  6  5  1  0  0  0  0
  7  9  1  0  0  0  0
  8  6  1  0  0  0  0
  9 12  1  0  0  0  0
 10 11  1  0  0  0  0
 10  8  2  0  0  0  0
 11  7  2  0  0  0  0
 12 13  2  0  0  0  0
 14 15  1  0  0  0  0
 15 16  1  0  0  0  0
 18 17  1  1  0  0  0
 18 29  1  0  0  0  0
 19 21  1  6  0  0  0
 19 20  1  0  0  0  0
 19 17  1  0  0  0  0
 19 18  1  0  0  0  0
 20 16  1  6  0  0  0
 21 20  1  0  0  0  0
 22 26  1  0  0  0  0
 22 25  1  0  0  0  0
 23 24  2  0  0  0  0
 24 25  1  0  0  0  0
 25 27  1  1  0  0  0
 28 22  2  0  0  0  0
 29 28  1  1  0  0  0
 29 23  1  0  0  0  0
 31 30  1  0  0  0  0
 31 32  1  0  0  0  0
 32 34  1  0  0  0  0
 33 35  1  0  0  0  0
 34 33  2  0  0  0  0
 35 37  2  0  0  0  0
 35 36  2  0  0  0  0
 39 42  1  6  0  0  0
 39 43  1  0  0  0  0
 40 38  1  0  0  0  0
 40 35  1  1  0  0  0
 41 39  1  0  0  0  0
 41 40  1  0  0  0  0
 43 44  1  0  0  0  0
 44 38  1  0  0  0  0
M  END
>  <MODEL>
4

>  <REMARK>
 VINA RESULT:      -8.3      2.474      9.086
  Name = 
  13 active torsions:
  status: ('A' for Active; 'I' for Inactive)
    1  A    between atoms: C_1  and  N_17
    2  A    between atoms: C_1  and  C_34
    3  A    between atoms: N_2  and  C_29
    4  A    between atoms: C_8  and  C_33
    5  A    between atoms: C_11  and  S_21
    6  A    between atoms: C_14  and  C_43
    7  A    between atoms: N_17  and  C_42
    8  A    between atoms: N_18  and  C_22
    9  A    between atoms: N_18  and  C_25
   10  A    between atoms: S_21  and  N_26
   11  A    between atoms: C_22  and  C_23
   12  A    between atoms: C_25  and  C_29
   13  A    between atoms: C_29  and  C_42
                            x       y       z     vdW  Elec       q    Type
                         _______ _______ _______ _____ _____    ______ ____

>  <TORSDO>
F 13

$$$$
=
 OpenBabel10232407573D

 44 48  0  0  1  0  0  0  0  0999 V2000
  189.5560  176.4630  137.3270 C   0  0  2  0  0  3  0  0  0  0  0  0
  188.5130  175.4500  137.4400 N   0  0  0  0  0  2  0  0  0  0  0  0
  189.0360  174.4160  135.4160 O   0  0  0  0  0  0  0  0  0  0  0  0
  188.2730  174.4770  136.4190 C   0  0  0  0  0  0  0  0  0  0  0  0
  183.7940  171.0930  134.9240 C   0  0  0  0  0  1  0  0  0  0  0  0
  184.8120  171.7040  135.7640 N   0  0  0  0  0  0  0  0  0  0  0  0
  187.1400  173.5430  136.5570 C   0  0  0  0  0  0  0  0  0  0  0  0
  184.3740  172.1860  137.0320 C   0  0  0  0  0  3  0  0  0  0  0  0
  187.2340  172.2840  135.8870 N   0  0  0  0  0  2  0  0  0  0  0  0
  184.9760  173.1110  137.7120 N   0  0  0  0  0  0  0  0  0  0  0  0
  186.1460  173.8730  137.3890 C   0  0  0  0  0  3  0  0  0  0  0  0
  186.1830  171.4000  135.5060 C   0  0  0  0  0  0  0  0  0  0  0  0
  186.4810  170.3470  134.8810 O   0  0  0  0  0  0  0  0  0  0  0  0
  190.4680  176.4240  138.5480 C   0  0  0  0  0  2  0  0  0  0  0  0
  190.1120  177.4610  139.5060 N   0  0  0  0  0  2  0  0  0  0  0  0
  191.1540  177.4710  140.5190 C   0  0  0  0  0  2  0  0  0  0  0  0
  189.9240  175.7150  143.1290 C   0  0  0  0  0  2  0  0  0  0  0  0
  188.5260  176.1790  143.2280 C   0  0  2  0  0  3  0  0  0  0  0  0
  189.3640  176.5110  141.9440 C   0  0  1  0  0  0  0  0  0  0  0  0
  190.5250  177.5170  141.8970 C   0  0  2  0  0  3  0  0  0  0  0  0
  189.1520  178.0320  141.7940 C   0  0  0  0  0  2  0  0  0  0  0  0
  186.8100  177.7380  146.1460 C   0  0  0  0  0  0  0  0  0  0  0  0
  189.4230  176.9050  145.4620 C   0  0  0  0  0  3  0  0  0  0  0  0
  189.2020  177.3590  146.7060 C   0  0  0  0  0  3  0  0  0  0  0  0
  187.9720  178.1800  147.0050 C   0  0  2  0  0  3  0  0  0  0  0  0
  185.5410  177.7960  146.6250 F   0  0  0  0  0  0  0  0  0  0  0  0
  187.6510  178.0750  148.3460 F   0  0  0  0  0  0  0  0  0  0  0  0
  187.0340  177.2740  144.9070 C   0  0  0  0  0  3  0  0  0  0  0  0
  188.4390  177.2210  144.3560 C   0  0  2  0  0  3  0  0  0  0  0  0
  188.9440  177.8480  137.1670 C   0  0  0  0  0  2  0  0  0  0  0  0
  187.5360  177.8180  137.5290 N   0  0  0  0  0  2  0  0  0  0  0  0
  186.7770  177.7510  136.2920 C   0  0  0  0  0  2  0  0  0  0  0  0
  184.9620  177.1870  137.7680 N   0  0  0  0  0  0  0  0  0  0  0  0
  185.3310  177.5740  136.6040 C   0  0  0  0  0  3  0  0  0  0  0  0
  183.2940  176.9980  138.1250 S   0  0  0  0  0  0  0  0  0  0  0  0
  182.4990  177.0530  136.8490 O   0  0  0  0  0  0  0  0  0  0  0  0
  183.0850  175.6570  138.7680 O   0  0  0  0  0  0  0  0  0  0  0  0
  183.2580  179.6560  138.8120 C   0  0  0  0  0  2  0  0  0  0  0  0
  184.6670  178.4280  140.8820 C   0  0  2  0  0  3  0  0  0  0  0  0
  182.7620  178.2780  139.2590 C   0  0  2  0  0  3  0  0  0  0  0  0
  183.2200  177.9810  140.6880 C   0  0  0  0  0  2  0  0  0  0  0  0
  185.0580  178.2580  142.3340 C   0  0  0  0  0  1  0  0  0  0  0  0
  184.7820  179.7790  140.5160 O   0  0  0  0  0  0  0  0  0  0  0  0
  184.6730  179.8090  139.1570 N   0  0  0  0  0  2  0  0  0  0  0  0
  1 30  1  1  0  0  0
  1  2  1  0  0  0  0
  1 14  1  0  0  0  0
  3  4  2  0  0  0  0
  4  7  1  0  0  0  0
  4  2  1  0  0  0  0
  5  6  1  0  0  0  0
  6  8  1  0  0  0  0
  7 11  2  0  0  0  0
  8 10  2  0  0  0  0
  9  7  1  0  0  0  0
 11 10  1  0  0  0  0
 12  6  1  0  0  0  0
 12  9  1  0  0  0  0
 13 12  2  0  0  0  0
 14 15  1  0  0  0  0
 15 16  1  0  0  0  0
 18 17  1  1  0  0  0
 18 29  1  0  0  0  0
 19 21  1  6  0  0  0
 19 17  1  0  0  0  0
 19 18  1  0  0  0  0
 20 16  1  6  0  0  0
 20 19  1  0  0  0  0
 21 20  1  0  0  0  0
 22 26  1  0  0  0  0
 22 25  1  0  0  0  0
 23 24  2  0  0  0  0
 24 25  1  0  0  0  0
 25 27  1  1  0  0  0
 28 22  2  0  0  0  0
 29 28  1  1  0  0  0
 29 23  1  0  0  0  0
 30 31  1  0  0  0  0
 32 34  1  0  0  0  0
 32 31  1  0  0  0  0
 33 35  1  0  0  0  0
 34 33  2  0  0  0  0
 35 37  2  0  0  0  0
 36 35  2  0  0  0  0
 38 44  1  0  0  0  0
 38 40  1  0  0  0  0
 39 42  1  1  0  0  0
 40 35  1  6  0  0  0
 40 41  1  0  0  0  0
 41 39  1  0  0  0  0
 43 39  1  0  0  0  0
 44 43  1  0  0  0  0
M  END
>  <MODEL>
5

>  <REMARK>
 VINA RESULT:      -8.0      3.477      5.127
  Name = 
  13 active torsions:
  status: ('A' for Active; 'I' for Inactive)
    1  A    between atoms: C_1  and  N_17
    2  A    between atoms: C_1  and  C_34
    3  A    between atoms: N_2  and  C_29
    4  A    between atoms: C_8  and  C_33
    5  A    between atoms: C_11  and  S_21
    6  A    between atoms: C_14  and  C_43
    7  A    between atoms: N_17  and  C_42
    8  A    between atoms: N_18  and  C_22
    9  A    between atoms: N_18  and  C_25
   10  A    between atoms: S_21  and  N_26
   11  A    between atoms: C_22  and  C_23
   12  A    between atoms: C_25  and  C_29
   13  A    between atoms: C_29  and  C_42
                            x       y       z     vdW  Elec       q    Type
                         _______ _______ _______ _____ _____    ______ ____

>  <TORSDO>
F 13

$$$$
=
 OpenBabel10232407573D

 44 48  0  0  1  0  0  0  0  0999 V2000
  188.8470  176.0820  137.5260 C   0  0  2  0  0  3  0  0  0  0  0  0
  187.6090  176.8370  137.6810 N   0  0  0  0  0  2  0  0  0  0  0  0
  186.2410  175.1110  136.9130 O   0  0  0  0  0  0  0  0  0  0  0  0
  186.3340  176.3060  137.3090 C   0  0  0  0  0  0  0  0  0  0  0  0
  181.8580  179.1590  139.6700 C   0  0  0  0  0  1  0  0  0  0  0  0
  182.8050  178.7200  138.6580 N   0  0  0  0  0  0  0  0  0  0  0  0
  185.1350  177.1590  137.4060 C   0  0  0  0  0  0  0  0  0  0  0  0
  182.2500  178.3400  137.4010 C   0  0  0  0  0  3  0  0  0  0  0  0
  185.2270  178.3440  138.2000 N   0  0  0  0  0  2  0  0  0  0  0  0
  182.8240  177.5410  136.5580 N   0  0  0  0  0  0  0  0  0  0  0  0
  184.0710  176.8430  136.6580 C   0  0  0  0  0  3  0  0  0  0  0  0
  184.1750  179.1000  138.7940 C   0  0  0  0  0  0  0  0  0  0  0  0
  184.4770  180.1010  139.4970 O   0  0  0  0  0  0  0  0  0  0  0  0
  189.9570  176.7030  138.3660 C   0  0  0  0  0  2  0  0  0  0  0  0
  189.4170  177.3750  139.5400 N   0  0  0  0  0  2  0  0  0  0  0  0
  190.5200  177.5400  140.4720 C   0  0  0  0  0  2  0  0  0  0  0  0
  189.3470  175.8260  143.1350 C   0  0  0  0  0  2  0  0  0  0  0  0
  187.9920  176.3780  143.3310 C   0  0  2  0  0  3  0  0  0  0  0  0
  188.7660  176.6760  141.9990 C   0  0  1  0  0  0  0  0  0  0  0  0
  189.9850  177.6050  141.8880 C   0  0  2  0  0  3  0  0  0  0  0  0
  188.6450  178.2100  141.8810 C   0  0  0  0  0  2  0  0  0  0  0  0
  186.5840  177.9830  146.3860 C   0  0  0  0  0  0  0  0  0  0  0  0
  189.0890  177.0170  145.5000 C   0  0  0  0  0  3  0  0  0  0  0  0
  188.9860  177.4640  146.7620 C   0  0  0  0  0  3  0  0  0  0  0  0
  187.8290  178.3460  147.1620 C   0  0  2  0  0  3  0  0  0  0  0  0
  185.3580  178.1030  146.9580 F   0  0  0  0  0  0  0  0  0  0  0  0
  187.6010  178.2380  148.5220 F   0  0  0  0  0  0  0  0  0  0  0  0
  186.6910  177.5260  145.1280 C   0  0  0  0  0  3  0  0  0  0  0  0
  188.0470  177.4050  144.4740 C   0  0  2  0  0  3  0  0  0  0  0  0
  189.2610  176.0250  136.0610 C   0  0  0  0  0  2  0  0  0  0  0  0
  189.5520  174.6540  135.6760 N   0  0  0  0  0  2  0  0  0  0  0  0
  190.7120  174.6910  134.8020 C   0  0  0  0  0  2  0  0  0  0  0  0
  192.6100  175.9110  135.6420 N   0  0  0  0  0  0  0  0  0  0  0  0
  191.9500  174.8130  135.6230 C   0  0  0  0  0  3  0  0  0  0  0  0
  194.0260  176.0490  136.6000 S   0  0  0  0  0  0  0  0  0  0  0  0
  194.9710  177.0280  135.9600 O   0  0  0  0  0  0  0  0  0  0  0  0
  193.6440  176.5640  137.9590 O   0  0  0  0  0  0  0  0  0  0  0  0
  195.2140  174.1910  138.2340 C   0  0  0  0  0  2  0  0  0  0  0  0
  197.2380  174.9560  136.4730 C   0  0  2  0  0  3  0  0  0  0  0  0
  194.8020  174.4460  136.7810 C   0  0  2  0  0  3  0  0  0  0  0  0
  196.0070  174.3030  135.8490 C   0  0  0  0  0  2  0  0  0  0  0  0
  198.4490  174.6840  135.6080 C   0  0  0  0  0  1  0  0  0  0  0  0
  197.4420  174.4180  137.7550 O   0  0  0  0  0  0  0  0  0  0  0  0
  196.4450  174.9250  138.5360 N   0  0  0  0  0  2  0  0  0  0  0  0
  1 30  1  6  0  0  0
  1  2  1  0  0  0  0
  1 14  1  0  0  0  0
  3  4  2  0  0  0  0
  4  7  1  0  0  0  0
  4  2  1  0  0  0  0
  6 12  1  0  0  0  0
  6  5  1  0  0  0  0
  7  9  1  0  0  0  0
  8  6  1  0  0  0  0
  9 12  1  0  0  0  0
 10 11  1  0  0  0  0
 10  8  2  0  0  0  0
 11  7  2  0  0  0  0
 12 13  2  0  0  0  0
 14 15  1  0  0  0  0
 15 16  1  0  0  0  0
 18 17  1  1  0  0  0
 18 29  1  0  0  0  0
 19 21  1  6  0  0  0
 19 17  1  0  0  0  0
 19 18  1  0  0  0  0
 20 16  1  6  0  0  0
 20 19  1  0  0  0  0
 21 20  1  0  0  0  0
 22 26  1  0  0  0  0
 22 25  1  0  0  0  0
 23 24  2  0  0  0  0
 24 25  1  0  0  0  0
 25 27  1  1  0  0  0
 28 22  2  0  0  0  0
 29 28  1  1  0  0  0
 29 23  1  0  0  0  0
 31 30  1  0  0  0  0
 32 34  1  0  0  0  0
 32 31  1  0  0  0  0
 33 35  1  0  0  0  0
 34 33  2  0  0  0  0
 35 37  2  0  0  0  0
 36 35  2  0  0  0  0
 38 44  1  0  0  0  0
 39 42  1  6  0  0  0
 39 43  1  0  0  0  0
 40 35  1  1  0  0  0
 40 38  1  0  0  0  0
 41 39  1  0  0  0  0
 41 40  1  0  0  0  0
 43 44  1  0  0  0  0
M  END
>  <MODEL>
6

>  <REMARK>
 VINA RESULT:      -7.9      2.493      9.143
  Name = 
  13 active torsions:
  status: ('A' for Active; 'I' for Inactive)
    1  A    between atoms: C_1  and  N_17
    2  A    between atoms: C_1  and  C_34
    3  A    between atoms: N_2  and  C_29
    4  A    between atoms: C_8  and  C_33
    5  A    between atoms: C_11  and  S_21
    6  A    between atoms: C_14  and  C_43
    7  A    between atoms: N_17  and  C_42
    8  A    between atoms: N_18  and  C_22
    9  A    between atoms: N_18  and  C_25
   10  A    between atoms: S_21  and  N_26
   11  A    between atoms: C_22  and  C_23
   12  A    between atoms: C_25  and  C_29
   13  A    between atoms: C_29  and  C_42
                            x       y       z     vdW  Elec       q    Type
                         _______ _______ _______ _____ _____    ______ ____

>  <TORSDO>
F 13

$$$$
=
 OpenBabel10232407573D

 44 48  0  0  1  0  0  0  0  0999 V2000
  190.7150  176.7880  137.2900 C   0  0  2  0  0  3  0  0  0  0  0  0
  191.7410  175.9030  136.7510 N   0  0  0  0  0  2  0  0  0  0  0  0
  193.4890  176.9100  137.9210 O   0  0  0  0  0  0  0  0  0  0  0  0
  193.1260  176.0480  137.0730 C   0  0  0  0  0  0  0  0  0  0  0  0
  197.1890  171.9450  136.4350 C   0  0  0  0  0  1  0  0  0  0  0  0
  196.2230  172.9660  136.0650 N   0  0  0  0  0  0  0  0  0  0  0  0
  194.1200  175.1770  136.4180 C   0  0  0  0  0  0  0  0  0  0  0  0
  196.6620  173.9310  135.1120 C   0  0  0  0  0  3  0  0  0  0  0  0
  193.8940  173.7660  136.4580 N   0  0  0  0  0  2  0  0  0  0  0  0
  196.1560  175.1180  134.9840 N   0  0  0  0  0  0  0  0  0  0  0  0
  195.1110  175.7550  135.7280 C   0  0  0  0  0  3  0  0  0  0  0  0
  194.8370  172.7100  136.2940 C   0  0  0  0  0  0  0  0  0  0  0  0
  194.4320  171.5220  136.4060 O   0  0  0  0  0  0  0  0  0  0  0  0
  190.1520  176.2200  138.5890 C   0  0  0  0  0  2  0  0  0  0  0  0
  190.5440  177.0300  139.7330 N   0  0  0  0  0  2  0  0  0  0  0  0
  189.3170  177.4710  140.3740 C   0  0  0  0  0  2  0  0  0  0  0  0
  190.9320  178.6850  143.0810 C   0  0  0  0  0  2  0  0  0  0  0  0
  191.5750  177.4900  143.6630 C   0  0  2  0  0  3  0  0  0  0  0  0
  190.9850  177.4230  142.2110 C   0  0  1  0  0  0  0  0  0  0  0  0
  189.4840  177.4260  141.8800 C   0  0  2  0  0  3  0  0  0  0  0  0
  190.1100  176.1530  142.2680 C   0  0  0  0  0  2  0  0  0  0  0  0
  191.0890  176.6960  147.2710 C   0  0  0  0  0  0  0  0  0  0  0  0
  189.6800  178.0380  145.2210 C   0  0  0  0  0  3  0  0  0  0  0  0
  189.1700  178.0530  146.4620 C   0  0  0  0  0  3  0  0  0  0  0  0
  189.6340  177.0460  147.4850 C   0  0  2  0  0  3  0  0  0  0  0  0
  191.8860  176.3980  148.3300 F   0  0  0  0  0  0  0  0  0  0  0  0
  189.4380  177.5440  148.7600 F   0  0  0  0  0  0  0  0  0  0  0  0
  191.5990  176.6920  146.0300 C   0  0  0  0  0  3  0  0  0  0  0  0
  190.7180  177.0040  144.8430 C   0  0  2  0  0  3  0  0  0  0  0  0
  189.5990  176.9950  136.2750 C   0  0  0  0  0  2  0  0  0  0  0  0
  188.7150  178.0640  136.7140 N   0  0  0  0  0  2  0  0  0  0  0  0
  187.3950  177.4830  136.8930 C   0  0  0  0  0  2  0  0  0  0  0  0
  185.5290  178.4020  138.1030 N   0  0  0  0  0  0  0  0  0  0  0  0
  186.7610  178.0530  138.1150 C   0  0  0  0  0  3  0  0  0  0  0  0
  184.8020  179.0440  139.5180 S   0  0  0  0  0  0  0  0  0  0  0  0
  185.8730  179.4530  140.4910 O   0  0  0  0  0  0  0  0  0  0  0  0
  184.0000  180.2580  139.1430 O   0  0  0  0  0  0  0  0  0  0  0  0
  182.2530  178.0820  139.8540 C   0  0  0  0  0  2  0  0  0  0  0  0
  183.0190  178.9120  142.4040 C   0  0  2  0  0  3  0  0  0  0  0  0
  183.7100  177.8290  140.2510 C   0  0  2  0  0  3  0  0  0  0  0  0
  183.8530  177.7990  141.7740 C   0  0  0  0  0  2  0  0  0  0  0  0
  183.0580  178.7820  143.9120 C   0  0  0  0  0  1  0  0  0  0  0  0
  181.6920  178.8000  141.9540 O   0  0  0  0  0  0  0  0  0  0  0  0
  181.7080  179.1860  140.6460 N   0  0  0  0  0  2  0  0  0  0  0  0
  1 30  1  6  0  0  0
  1 14  1  0  0  0  0
  2  4  1  0  0  0  0
  2  1  1  0  0  0  0
  4  3  2  0  0  0  0
  6 12  1  0  0  0  0
  6  5  1  0  0  0  0
  7  9  1  0  0  0  0
  7  4  1  0  0  0  0
  8  6  1  0  0  0  0
 10  8  2  0  0  0  0
 10 11  1  0  0  0  0
 11  7  2  0  0  0  0
 12 13  2  0  0  0  0
 12  9  1  0  0  0  0
 14 15  1  0  0  0  0
 15 16  1  0  0  0  0
 18 17  1  1  0  0  0
 18 29  1  0  0  0  0
 19 21  1  6  0  0  0
 19 17  1  0  0  0  0
 19 18  1  0  0  0  0
 20 16  1  6  0  0  0
 20 19  1  0  0  0  0
 20 21  1  0  0  0  0
 22 25  1  0  0  0  0
 22 26  1  0  0  0  0
 23 24  2  0  0  0  0
 24 25  1  0  0  0  0
 25 27  1  1  0  0  0
 28 22  2  0  0  0  0
 29 23  1  1  0  0  0
 29 28  1  0  0  0  0
 30 31  1  0  0  0  0
 31 32  1  0  0  0  0
 32 34  1  0  0  0  0
 33 34  2  0  0  0  0
 33 35  1  0  0  0  0
 35 36  2  0  0  0  0
 37 35  2  0  0  0  0
 38 40  1  0  0  0  0
 38 44  1  0  0  0  0
 39 42  1  1  0  0  0
 40 35  1  1  0  0  0
 40 41  1  0  0  0  0
 41 39  1  0  0  0  0
 43 39  1  0  0  0  0
 44 43  1  0  0  0  0
M  END
>  <MODEL>
7

>  <REMARK>
 VINA RESULT:      -7.6      1.446      2.090
  Name = 
  13 active torsions:
  status: ('A' for Active; 'I' for Inactive)
    1  A    between atoms: C_1  and  N_17
    2  A    between atoms: C_1  and  C_34
    3  A    between atoms: N_2  and  C_29
    4  A    between atoms: C_8  and  C_33
    5  A    between atoms: C_11  and  S_21
    6  A    between atoms: C_14  and  C_43
    7  A    between atoms: N_17  and  C_42
    8  A    between atoms: N_18  and  C_22
    9  A    between atoms: N_18  and  C_25
   10  A    between atoms: S_21  and  N_26
   11  A    between atoms: C_22  and  C_23
   12  A    between atoms: C_25  and  C_29
   13  A    between atoms: C_29  and  C_42
                            x       y       z     vdW  Elec       q    Type
                         _______ _______ _______ _____ _____    ______ ____

>  <TORSDO>
F 13

$$$$
=
 OpenBabel10232407573D

 44 48  0  0  1  0  0  0  0  0999 V2000
  188.3970  177.8760  137.5020 C   0  0  2  0  0  3  0  0  0  0  0  0
  188.6950  176.5200  137.0580 N   0  0  0  0  0  2  0  0  0  0  0  0
  188.8600  177.0920  134.8040 O   0  0  0  0  0  0  0  0  0  0  0  0
  188.8710  176.1830  135.6800 C   0  0  0  0  0  0  0  0  0  0  0  0
  188.3160  170.4010  135.6880 C   0  0  0  0  0  1  0  0  0  0  0  0
  188.7410  171.7220  135.2540 N   0  0  0  0  0  0  0  0  0  0  0  0
  189.0780  174.7740  135.2960 C   0  0  0  0  0  0  0  0  0  0  0  0
  190.1190  171.8600  134.9160 C   0  0  0  0  0  3  0  0  0  0  0  0
  187.9460  174.0450  134.8170 N   0  0  0  0  0  2  0  0  0  0  0  0
  190.7690  172.9810  134.9370 N   0  0  0  0  0  0  0  0  0  0  0  0
  190.3270  174.2920  135.3060 C   0  0  0  0  0  3  0  0  0  0  0  0
  187.7510  172.6340  134.7750 C   0  0  0  0  0  0  0  0  0  0  0  0
  186.6520  172.1920  134.3470 O   0  0  0  0  0  0  0  0  0  0  0  0
  189.2730  178.2520  138.6920 C   0  0  0  0  0  2  0  0  0  0  0  0
  189.4480  177.1230  139.5950 N   0  0  0  0  0  2  0  0  0  0  0  0
  190.5990  177.4290  140.4290 C   0  0  0  0  0  2  0  0  0  0  0  0
  189.2460  175.7570  143.0320 C   0  0  0  0  0  2  0  0  0  0  0  0
  188.0570  176.5620  143.3780 C   0  0  2  0  0  3  0  0  0  0  0  0
  188.7950  176.8140  142.0170 C   0  0  1  0  0  0  0  0  0  0  0  0
  190.1780  177.4710  141.8840 C   0  0  2  0  0  3  0  0  0  0  0  0
  189.0030  178.3430  142.0310 C   0  0  0  0  0  2  0  0  0  0  0  0
  187.3260  177.9350  146.7650 C   0  0  0  0  0  0  0  0  0  0  0  0
  189.5390  176.8400  145.3900 C   0  0  0  0  0  3  0  0  0  0  0  0
  189.6820  177.1470  146.6890 C   0  0  0  0  0  3  0  0  0  0  0  0
  188.7080  178.0850  147.3570 C   0  0  2  0  0  3  0  0  0  0  0  0
  186.2240  178.1070  147.5400 F   0  0  0  0  0  0  0  0  0  0  0  0
  188.6810  177.8450  148.7190 F   0  0  0  0  0  0  0  0  0  0  0  0
  187.1860  177.6170  145.4680 C   0  0  0  0  0  3  0  0  0  0  0  0
  188.4030  177.4410  144.5920 C   0  0  2  0  0  3  0  0  0  0  0  0
  186.9240  178.0100  137.8660 C   0  0  0  0  0  2  0  0  0  0  0  0
  186.1280  178.2140  136.6660 N   0  0  0  0  0  2  0  0  0  0  0  0
  185.3180  177.0220  136.4810 C   0  0  0  0  0  2  0  0  0  0  0  0
  183.2380  177.4630  137.6090 N   0  0  0  0  0  0  0  0  0  0  0  0
  184.3770  176.8760  137.6270 C   0  0  0  0  0  3  0  0  0  0  0  0
  182.1530  177.2800  138.9240 S   0  0  0  0  0  0  0  0  0  0  0  0
  180.7600  177.0630  138.3990 O   0  0  0  0  0  0  0  0  0  0  0  0
  182.5610  176.0760  139.7260 O   0  0  0  0  0  0  0  0  0  0  0  0
  182.7910  179.9320  139.2270 C   0  0  0  0  0  2  0  0  0  0  0  0
  184.5110  178.6060  140.9760 C   0  0  2  0  0  3  0  0  0  0  0  0
  182.2150  178.7280  139.9760 C   0  0  2  0  0  3  0  0  0  0  0  0
  183.0160  178.4560  141.2510 C   0  0  0  0  0  2  0  0  0  0  0  0
  185.2790  178.4730  142.2740 C   0  0  0  0  0  1  0  0  0  0  0  0
  184.7480  179.8710  140.4120 O   0  0  0  0  0  0  0  0  0  0  0  0
  184.2480  179.8150  139.1450 N   0  0  0  0  0  2  0  0  0  0  0  0
  1 30  1  1  0  0  0
  1 14  1  0  0  0  0
  2  1  1  0  0  0  0
  3  4  2  0  0  0  0
  4  2  1  0  0  0  0
  6  5  1  0  0  0  0
  7 11  2  0  0  0  0
  7  4  1  0  0  0  0
  8 10  2  0  0  0  0
  8  6  1  0  0  0  0
  9  7  1  0  0  0  0
 10 11  1  0  0  0  0
 12  9  1  0  0  0  0
 12  6  1  0  0  0  0
 13 12  2  0  0  0  0
 14 15  1  0  0  0  0
 15 16  1  0  0  0  0
 18 17  1  1  0  0  0
 18 29  1  0  0  0  0
 19 21  1  6  0  0  0
 19 17  1  0  0  0  0
 19 18  1  0  0  0  0
 20 16  1  6  0  0  0
 20 19  1  0  0  0  0
 20 21  1  0  0  0  0
 22 25  1  0  0  0  0
 22 26  1  0  0  0  0
 23 24  2  0  0  0  0
 24 25  1  0  0  0  0
 25 27  1  1  0  0  0
 28 22  2  0  0  0  0
 29 23  1  1  0  0  0
 29 28  1  0  0  0  0
 31 30  1  0  0  0  0
 32 31  1  0  0  0  0
 32 34  1  0  0  0  0
 33 34  2  0  0  0  0
 33 35  1  0  0  0  0
 35 37  2  0  0  0  0
 36 35  2  0  0  0  0
 38 40  1  0  0  0  0
 39 41  1  0  0  0  0
 39 42  1  1  0  0  0
 40 35  1  6  0  0  0
 40 41  1  0  0  0  0
 43 39  1  0  0  0  0
 44 38  1  0  0  0  0
 44 43  1  0  0  0  0
M  END
>  <MODEL>
8

>  <REMARK>
 VINA RESULT:      -7.6      3.192      3.998
  Name = 
  13 active torsions:
  status: ('A' for Active; 'I' for Inactive)
    1  A    between atoms: C_1  and  N_17
    2  A    between atoms: C_1  and  C_34
    3  A    between atoms: N_2  and  C_29
    4  A    between atoms: C_8  and  C_33
    5  A    between atoms: C_11  and  S_21
    6  A    between atoms: C_14  and  C_43
    7  A    between atoms: N_17  and  C_42
    8  A    between atoms: N_18  and  C_22
    9  A    between atoms: N_18  and  C_25
   10  A    between atoms: S_21  and  N_26
   11  A    between atoms: C_22  and  C_23
   12  A    between atoms: C_25  and  C_29
   13  A    between atoms: C_29  and  C_42
                            x       y       z     vdW  Elec       q    Type
                         _______ _______ _______ _____ _____    ______ ____

>  <TORSDO>
F 13

$$$$
=
 OpenBabel10232407573D

 44 48  0  0  1  0  0  0  0  0999 V2000
  184.9830  179.1670  141.2060 C   0  0  2  0  0  3  0  0  0  0  0  0
  186.1110  178.6090  140.4690 N   0  0  0  0  0  2  0  0  0  0  0  0
  187.6860  179.1470  142.1010 O   0  0  0  0  0  0  0  0  0  0  0  0
  187.4540  178.6730  140.9550 C   0  0  0  0  0  0  0  0  0  0  0  0
  190.1830  176.1890  136.4680 C   0  0  0  0  0  1  0  0  0  0  0  0
  190.0070  176.9160  137.7150 N   0  0  0  0  0  0  0  0  0  0  0  0
  188.5570  178.1720  140.1140 C   0  0  0  0  0  0  0  0  0  0  0  0
  190.8520  176.5260  138.7940 C   0  0  0  0  0  3  0  0  0  0  0  0
  188.7080  178.7410  138.8110 N   0  0  0  0  0  2  0  0  0  0  0  0
  190.5770  176.7170  140.0470 N   0  0  0  0  0  0  0  0  0  0  0  0
  189.4180  177.3020  140.6530 C   0  0  0  0  0  3  0  0  0  0  0  0
  189.3750  178.1960  137.6760 C   0  0  0  0  0  0  0  0  0  0  0  0
  189.3590  178.8500  136.5990 O   0  0  0  0  0  0  0  0  0  0  0  0
  184.7770  178.4110  142.5140 C   0  0  0  0  0  2  0  0  0  0  0  0
  183.6040  178.9000  143.2260 N   0  0  0  0  0  2  0  0  0  0  0  0
  184.0760  179.4310  144.4940 C   0  0  0  0  0  2  0  0  0  0  0  0
  185.9990  176.8130  145.4170 C   0  0  0  0  0  2  0  0  0  0  0  0
  186.6750  177.2960  146.6380 C   0  0  2  0  0  3  0  0  0  0  0  0
  185.4490  178.0890  146.0650 C   0  0  1  0  0  0  0  0  0  0  0  0
  185.4750  178.9180  144.7720 C   0  0  2  0  0  3  0  0  0  0  0  0
  185.9880  179.5340  146.0050 C   0  0  0  0  0  2  0  0  0  0  0  0
  190.3830  177.0700  146.9340 C   0  0  0  0  0  0  0  0  0  0  0  0
  188.4620  177.2700  144.8700 C   0  0  0  0  0  3  0  0  0  0  0  0
  189.7520  177.1180  144.5300 C   0  0  0  0  0  3  0  0  0  0  0  0
  190.8400  177.4110  145.5340 C   0  0  2  0  0  3  0  0  0  0  0  0
  191.2710  176.6090  147.8530 F   0  0  0  0  0  0  0  0  0  0  0  0
  191.9820  176.7020  145.2110 F   0  0  0  0  0  0  0  0  0  0  0  0
  189.0910  177.2120  147.2680 C   0  0  0  0  0  3  0  0  0  0  0  0
  188.0980  177.7410  146.2610 C   0  0  2  0  0  3  0  0  0  0  0  0
  183.7160  179.1220  140.3630 C   0  0  0  0  0  2  0  0  0  0  0  0
  183.8200  180.0550  139.2520 N   0  0  0  0  0  2  0  0  0  0  0  0
  182.6070  179.9180  138.4630 C   0  0  0  0  0  2  0  0  0  0  0  0
  182.3990  177.7320  137.4770 N   0  0  0  0  0  0  0  0  0  0  0  0
  182.1610  178.4970  138.4770 C   0  0  0  0  0  3  0  0  0  0  0  0
  181.8950  176.0930  137.5060 S   0  0  0  0  0  0  0  0  0  0  0  0
  182.1090  175.5260  138.8830 O   0  0  0  0  0  0  0  0  0  0  0  0
  180.4290  176.0300  137.1800 O   0  0  0  0  0  0  0  0  0  0  0  0
  183.2140  173.7820  136.8340 C   0  0  0  0  0  2  0  0  0  0  0  0
  185.1910  175.7480  136.7690 C   0  0  2  0  0  3  0  0  0  0  0  0
  182.8050  175.1510  136.2850 C   0  0  2  0  0  3  0  0  0  0  0  0
  184.0320  175.9190  135.7900 C   0  0  0  0  0  2  0  0  0  0  0  0
  186.4350  176.3940  136.1970 C   0  0  0  0  0  1  0  0  0  0  0  0
  185.4210  174.3770  136.9720 O   0  0  0  0  0  0  0  0  0  0  0  0
  184.3720  173.9290  137.7190 N   0  0  0  0  0  2  0  0  0  0  0  0
  1 30  1  6  0  0  0
  1 14  1  0  0  0  0
  2  4  1  0  0  0  0
  2  1  1  0  0  0  0
  4  3  2  0  0  0  0
  5  6  1  0  0  0  0
  6  8  1  0  0  0  0
  7 11  2  0  0  0  0
  7  4  1  0  0  0  0
  8 10  2  0  0  0  0
  9  7  1  0  0  0  0
 10 11  1  0  0  0  0
 12  6  1  0  0  0  0
 12  9  1  0  0  0  0
 13 12  2  0  0  0  0
 14 15  1  0  0  0  0
 15 16  1  0  0  0  0
 18 17  1  6  0  0  0
 19 17  1  1  0  0  0
 19 18  1  0  0  0  0
 20 16  1  1  0  0  0
 20 21  1  0  0  0  0
 20 19  1  0  0  0  0
 21 19  1  0  0  0  0
 22 28  2  0  0  0  0
 22 26  1  0  0  0  0
 24 23  2  0  0  0  0
 24 25  1  0  0  0  0
 25 27  1  6  0  0  0
 25 22  1  0  0  0  0
 29 23  1  6  0  0  0
 29 18  1  0  0  0  0
 29 28  1  0  0  0  0
 31 30  1  0  0  0  0
 32 34  1  0  0  0  0
 32 31  1  0  0  0  0
 33 35  1  0  0  0  0
 33 34  2  0  0  0  0
 35 36  2  0  0  0  0
 37 35  2  0  0  0  0
 38 44  1  0  0  0  0
 39 42  1  6  0  0  0
 39 43  1  0  0  0  0
 40 38  1  0  0  0  0
 40 35  1  1  0  0  0
 41 40  1  0  0  0  0
 41 39  1  0  0  0  0
 43 44  1  0  0  0  0
M  END
>  <MODEL>
9

>  <REMARK>
 VINA RESULT:      -7.5      3.614      6.119
  Name = 
  13 active torsions:
  status: ('A' for Active; 'I' for Inactive)
    1  A    between atoms: C_1  and  N_17
    2  A    between atoms: C_1  and  C_34
    3  A    between atoms: N_2  and  C_29
    4  A    between atoms: C_8  and  C_33
    5  A    between atoms: C_11  and  S_21
    6  A    between atoms: C_14  and  C_43
    7  A    between atoms: N_17  and  C_42
    8  A    between atoms: N_18  and  C_22
    9  A    between atoms: N_18  and  C_25
   10  A    between atoms: S_21  and  N_26
   11  A    between atoms: C_22  and  C_23
   12  A    between atoms: C_25  and  C_29
   13  A    between atoms: C_29  and  C_42
                            x       y       z     vdW  Elec       q    Type
                         _______ _______ _______ _____ _____    ______ ____

>  <TORSDO>
F 13

$$$$
