=
 OpenBabel10232408353D

 41 44  0  0  1  0  0  0  0  0999 V2000
  184.6960  178.0440  141.3220 C   0  0  1  0  0  3  0  0  0  0  0  0
  188.4280  176.8430  144.7280 C   0  0  1  0  0  3  0  0  0  0  0  0
  189.8530  177.0130  145.2360 C   0  0  0  0  0  1  0  0  0  0  0  0
  183.8200  179.1210  143.4480 C   0  0  0  0  0  2  0  0  0  0  0  0
  189.3170  176.6070  142.5090 O   0  0  0  0  0  0  0  0  0  0  0  0
  187.1840  177.5220  142.6290 N   0  0  0  0  0  0  0  0  0  0  0  0
  183.9020  178.9700  144.9390 C   0  0  0  0  0  3  0  0  0  0  0  0
  187.5060  177.8450  145.4420 C   0  0  1  0  0  3  0  0  0  0  0  0
  186.0750  177.9860  143.4080 C   0  0  0  0  0  0  0  0  0  0  0  0
  185.0060  178.5190  145.5320 C   0  0  0  0  0  3  0  0  0  0  0  0
  188.3670  177.0030  143.2380 C   0  0  0  0  0  0  0  0  0  0  0  0
  186.1750  178.0750  144.7470 C   0  0  2  0  0  3  0  0  0  0  0  0
  184.8320  178.3140  142.7560 N   0  0  0  0  0  0  0  0  0  0  0  0
  188.8780  178.9900  147.7350 O   0  0  0  0  0  0  0  0  0  0  0  0
  187.7590  177.6520  149.2660 N   0  0  0  0  0  1  0  0  0  0  0  0
  187.3300  177.4730  146.8470 N   0  0  0  0  0  2  0  0  0  0  0  0
  188.0240  178.0860  147.9390 C   0  0  0  0  0  0  0  0  0  0  0  0
  181.6090  177.0520  139.1940 C   0  0  0  0  0  2  0  0  0  0  0  0
  182.7770  179.2850  138.6790 C   0  0  0  0  0  2  0  0  0  0  0  0
  182.8550  179.3800  140.2050 C   0  0  0  0  0  2  0  0  0  0  0  0
  181.7510  178.2300  138.2200 C   0  0  2  0  0  3  0  0  0  0  0  0
  183.2380  178.0350  140.8450 C   0  0  1  0  0  3  0  0  0  0  0  0
  182.8970  176.8120  139.9750 C   0  0  0  0  0  2  0  0  0  0  0  0
  180.3830  178.8620  138.0030 C   0  0  0  0  0  2  0  0  0  0  0  0
  180.5040  180.3000  137.5180 C   0  0  0  0  0  2  0  0  0  0  0  0
  180.3550  180.3670  136.0100 C   0  0  0  0  0  1  0  0  0  0  0  0
  185.5840  178.9670  140.4980 C   0  0  0  0  0  2  0  0  0  0  0  0
  186.3590  178.1640  139.4690 C   0  0  1  0  0  3  0  0  0  0  0  0
  185.5470  177.1720  137.3240 C   0  0  0  0  0  1  0  0  0  0  0  0
  185.8320  178.4610  138.0730 C   0  0  0  0  0  2  0  0  0  0  0  0
  187.7650  178.5330  139.5510 N   0  0  0  0  0  2  0  0  0  0  0  0
  188.5640  177.3430  139.2920 C   0  0  0  0  0  2  0  0  0  0  0  0
  189.9400  177.7320  138.7680 C   0  0  0  0  0  2  0  0  0  0  0  0
  191.6580  176.5460  137.4310 C   0  0  0  0  0  2  0  0  0  0  0  0
  191.6320  175.1280  137.9450 C   0  0  1  0  0  3  0  0  0  0  0  0
  190.2960  174.5890  137.7210 N   0  0  0  0  0  2  0  0  0  0  0  0
  190.2220  176.9960  137.4690 C   0  0  1  0  0  3  0  0  0  0  0  0
  189.4160  175.7160  137.4260 C   0  0  0  0  0  2  0  0  0  0  0  0
  192.6670  174.2970  137.2060 C   0  0  0  0  0  2  0  0  0  0  0  0
  194.8180  173.3730  137.8920 C   0  0  0  0  0  2  0  0  0  0  0  0
  193.9990  174.4200  137.8630 C   0  0  0  0  0  3  0  0  0  0  0  0
  1 27  1  6  0  0  0
  1 13  1  0  0  0  0
  2  3  1  1  0  0  0
  2  8  1  0  0  0  0
  4  7  1  0  0  0  0
  5 11  2  0  0  0  0
  6 11  1  0  0  0  0
  6  9  2  0  0  0  0
  7 10  2  0  0  0  0
  8 16  1  1  0  0  0
  9 12  1  0  0  0  0
 11  2  1  0  0  0  0
 12  8  1  0  0  0  0
 12 10  1  6  0  0  0
 13  9  1  0  0  0  0
 13  4  1  0  0  0  0
 14 17  2  0  0  0  0
 16 17  1  0  0  0  0
 17 15  1  0  0  0  0
 18 23  1  0  0  0  0
 19 20  1  0  0  0  0
 20 22  1  0  0  0  0
 21 24  1  1  0  0  0
 21 19  1  0  0  0  0
 21 18  1  0  0  0  0
 22  1  1  6  0  0  0
 23 22  1  0  0  0  0
 25 24  1  0  0  0  0
 26 25  1  0  0  0  0
 28 30  1  6  0  0  0
 28 31  1  0  0  0  0
 28 27  1  0  0  0  0
 29 30  1  0  0  0  0
 32 31  1  0  0  0  0
 33 32  1  0  0  0  0
 34 37  1  0  0  0  0
 34 35  1  0  0  0  0
 35 39  1  6  0  0  0
 36 35  1  0  0  0  0
 37 33  1  1  0  0  0
 38 37  1  0  0  0  0
 38 36  1  0  0  0  0
 39 41  1  0  0  0  0
 41 40  2  0  0  0  0
M  END
>  <MODEL>
1

>  <REMARK>
 VINA RESULT:      -7.2      0.000      0.000
  Name = 
  14 active torsions:
  status: ('A' for Active; 'I' for Inactive)
    1  A    between atoms: C_4  and  C_21
    2  A    between atoms: C_4  and  C_35
    3  A    between atoms: C_12  and  C_31
    4  A    between atoms: C_15  and  C_31
    5  A    between atoms: C_16  and  N_28
    6  A    between atoms: N_18  and  C_21
    7  A    between atoms: N_18  and  C_39
    8  A    between atoms: C_24  and  C_26
    9  A    between atoms: C_25  and  C_30
   10  A    between atoms: C_26  and  C_34
   11  A    between atoms: C_30  and  C_32
   12  A    between atoms: C_30  and  N_38
   13  A    between atoms: C_32  and  C_39
   14  A    between atoms: C_36  and  C_39
                            x       y       z     vdW  Elec       q    Type
                         _______ _______ _______ _____ _____    ______ ____

>  <TORSDO>
F 14

$$$$
=
 OpenBabel10232408353D

 41 44  0  0  1  0  0  0  0  0999 V2000
  184.6520  178.0330  141.3120 C   0  0  1  0  0  3  0  0  0  0  0  0
  188.4240  176.8060  144.6630 C   0  0  1  0  0  3  0  0  0  0  0  0
  189.8560  176.9690  145.1540 C   0  0  0  0  0  1  0  0  0  0  0  0
  183.8080  179.1060  143.4520 C   0  0  0  0  0  2  0  0  0  0  0  0
  189.2820  176.5740  142.4320 O   0  0  0  0  0  0  0  0  0  0  0  0
  187.1550  177.4970  142.5840 N   0  0  0  0  0  0  0  0  0  0  0  0
  183.9100  178.9500  144.9420 C   0  0  0  0  0  3  0  0  0  0  0  0
  187.5150  177.8090  145.3930 C   0  0  1  0  0  3  0  0  0  0  0  0
  186.0590  177.9620  143.3790 C   0  0  0  0  0  0  0  0  0  0  0  0
  185.0200  178.4930  145.5180 C   0  0  0  0  0  3  0  0  0  0  0  0
  188.3430  176.9710  143.1750 C   0  0  0  0  0  0  0  0  0  0  0  0
  186.1760  178.0470  144.7170 C   0  0  2  0  0  3  0  0  0  0  0  0
  184.8080  178.2980  142.7440 N   0  0  0  0  0  0  0  0  0  0  0  0
  188.9160  178.9460  147.6720 O   0  0  0  0  0  0  0  0  0  0  0  0
  187.8150  177.6040  149.2130 N   0  0  0  0  0  1  0  0  0  0  0  0
  187.3560  177.4330  146.7990 N   0  0  0  0  0  2  0  0  0  0  0  0
  188.0640  178.0430  147.8840 C   0  0  0  0  0  0  0  0  0  0  0  0
  181.5560  176.9600  139.2360 C   0  0  0  0  0  2  0  0  0  0  0  0
  182.6410  179.2340  138.7190 C   0  0  0  0  0  2  0  0  0  0  0  0
  182.7470  179.3180  140.2440 C   0  0  0  0  0  2  0  0  0  0  0  0
  181.6400  178.1500  138.2710 C   0  0  2  0  0  3  0  0  0  0  0  0
  183.1860  177.9810  140.8630 C   0  0  1  0  0  3  0  0  0  0  0  0
  182.8670  176.7550  139.9890 C   0  0  0  0  0  2  0  0  0  0  0  0
  180.2490  178.7390  138.0870 C   0  0  0  0  0  2  0  0  0  0  0  0
  180.3110  180.1440  137.5030 C   0  0  0  0  0  2  0  0  0  0  0  0
  180.2990  180.0920  135.9870 C   0  0  0  0  0  1  0  0  0  0  0  0
  185.4940  178.9890  140.4770 C   0  0  0  0  0  2  0  0  0  0  0  0
  186.3340  178.2110  139.4810 C   0  0  1  0  0  3  0  0  0  0  0  0
  185.4840  177.0660  137.4290 C   0  0  0  0  0  1  0  0  0  0  0  0
  185.7870  178.4060  138.0740 C   0  0  0  0  0  2  0  0  0  0  0  0
  187.7050  178.6980  139.5460 N   0  0  0  0  0  2  0  0  0  0  0  0
  188.5860  177.6470  139.0550 C   0  0  0  0  0  2  0  0  0  0  0  0
  189.1750  178.0360  137.7060 C   0  0  0  0  0  2  0  0  0  0  0  0
  189.6890  175.6120  137.7960 C   0  0  0  0  0  2  0  0  0  0  0  0
  188.7970  174.9920  136.7490 C   0  0  1  0  0  3  0  0  0  0  0  0
  189.1390  175.5770  135.4570 N   0  0  0  0  0  2  0  0  0  0  0  0
  190.1020  176.9370  137.2140 C   0  0  1  0  0  3  0  0  0  0  0  0
  189.9400  176.7690  135.7180 C   0  0  0  0  0  2  0  0  0  0  0  0
  189.0110  173.4890  136.7200 C   0  0  0  0  0  2  0  0  0  0  0  0
  186.5960  173.4380  137.0600 C   0  0  0  0  0  2  0  0  0  0  0  0
  187.7490  172.7760  137.0680 C   0  0  0  0  0  3  0  0  0  0  0  0
  1 27  1  6  0  0  0
  1 13  1  0  0  0  0
  2  3  1  1  0  0  0
  2  8  1  0  0  0  0
  4  7  1  0  0  0  0
  5 11  2  0  0  0  0
  6 11  1  0  0  0  0
  6  9  2  0  0  0  0
  7 10  2  0  0  0  0
  8 16  1  1  0  0  0
  9 12  1  0  0  0  0
 11  2  1  0  0  0  0
 12  8  1  0  0  0  0
 12 10  1  6  0  0  0
 13  9  1  0  0  0  0
 13  4  1  0  0  0  0
 14 17  2  0  0  0  0
 16 17  1  0  0  0  0
 17 15  1  0  0  0  0
 18 23  1  0  0  0  0
 19 20  1  0  0  0  0
 20 22  1  0  0  0  0
 21 24  1  1  0  0  0
 21 19  1  0  0  0  0
 21 18  1  0  0  0  0
 22  1  1  6  0  0  0
 23 22  1  0  0  0  0
 25 24  1  0  0  0  0
 26 25  1  0  0  0  0
 28 30  1  6  0  0  0
 28 31  1  0  0  0  0
 28 27  1  0  0  0  0
 29 30  1  0  0  0  0
 32 31  1  0  0  0  0
 33 32  1  0  0  0  0
 35 39  1  6  0  0  0
 35 34  1  0  0  0  0
 36 38  1  0  0  0  0
 36 35  1  0  0  0  0
 37 33  1  1  0  0  0
 37 34  1  0  0  0  0
 38 37  1  0  0  0  0
 39 41  1  0  0  0  0
 40 41  2  0  0  0  0
M  END
>  <MODEL>
2

>  <REMARK>
 VINA RESULT:      -7.0      1.388      1.935
  Name = 
  14 active torsions:
  status: ('A' for Active; 'I' for Inactive)
    1  A    between atoms: C_4  and  C_21
    2  A    between atoms: C_4  and  C_35
    3  A    between atoms: C_12  and  C_31
    4  A    between atoms: C_15  and  C_31
    5  A    between atoms: C_16  and  N_28
    6  A    between atoms: N_18  and  C_21
    7  A    between atoms: N_18  and  C_39
    8  A    between atoms: C_24  and  C_26
    9  A    between atoms: C_25  and  C_30
   10  A    between atoms: C_26  and  C_34
   11  A    between atoms: C_30  and  C_32
   12  A    between atoms: C_30  and  N_38
   13  A    between atoms: C_32  and  C_39
   14  A    between atoms: C_36  and  C_39
                            x       y       z     vdW  Elec       q    Type
                         _______ _______ _______ _____ _____    ______ ____

>  <TORSDO>
F 14

$$$$
=
 OpenBabel10232408353D

 41 44  0  0  1  0  0  0  0  0999 V2000
  189.0820  177.3740  140.7880 C   0  0  1  0  0  3  0  0  0  0  0  0
  190.0230  174.3790  136.6510 C   0  0  1  0  0  3  0  0  0  0  0  0
  189.8230  174.0720  135.1740 C   0  0  0  0  0  1  0  0  0  0  0  0
  191.5330  177.8640  140.3450 C   0  0  0  0  0  2  0  0  0  0  0  0
  187.6490  174.6920  136.8410 O   0  0  0  0  0  0  0  0  0  0  0  0
  188.9340  175.9460  138.3160 N   0  0  0  0  0  2  0  0  0  0  0  0
  192.7480  177.2240  139.7380 C   0  0  0  0  0  3  0  0  0  0  0  0
  191.2670  175.2660  136.8270 C   0  0  1  0  0  3  0  0  0  0  0  0
  190.2160  176.3550  138.8060 C   0  0  0  0  0  0  0  0  0  0  0  0
  192.6510  176.3850  138.7090 C   0  0  0  0  0  3  0  0  0  0  0  0
  188.8010  175.0220  137.2370 C   0  0  0  0  0  0  0  0  0  0  0  0
  191.3400  175.9830  138.1640 C   0  0  0  0  0  0  0  0  0  0  0  0
  190.3040  177.1300  140.0180 N   0  0  0  0  0  0  0  0  0  0  0  0
  193.2620  175.8490  134.7950 O   0  0  0  0  0  0  0  0  0  0  0  0
  194.6010  174.0450  135.3750 N   0  0  0  0  0  1  0  0  0  0  0  0
  192.4860  174.5050  136.5500 N   0  0  0  0  0  2  0  0  0  0  0  0
  193.4440  174.8520  135.5430 C   0  0  0  0  0  0  0  0  0  0  0  0
  190.1700  177.7930  144.4880 C   0  0  0  0  0  2  0  0  0  0  0  0
  191.5140  176.1840  142.9970 C   0  0  0  0  0  2  0  0  0  0  0  0
  190.1250  175.8020  142.4810 C   0  0  0  0  0  2  0  0  0  0  0  0
  191.4410  176.9460  144.3360 C   0  0  2  0  0  3  0  0  0  0  0  0
  189.2290  177.0350  142.2770 C   0  0  1  0  0  3  0  0  0  0  0  0
  189.6350  178.2480  143.1330 C   0  0  0  0  0  2  0  0  0  0  0  0
  191.5400  175.9850  145.5120 C   0  0  0  0  0  2  0  0  0  0  0  0
  191.3300  176.7040  146.8380 C   0  0  0  0  0  2  0  0  0  0  0  0
  192.2150  176.1040  147.9150 C   0  0  0  0  0  1  0  0  0  0  0  0
  188.5480  178.7800  140.5500 C   0  0  0  0  0  2  0  0  0  0  0  0
  187.0830  178.7230  140.1580 C   0  0  1  0  0  3  0  0  0  0  0  0
  185.5960  178.2200  138.2130 C   0  0  0  0  0  1  0  0  0  0  0  0
  186.9150  177.8970  138.8910 C   0  0  0  0  0  2  0  0  0  0  0  0
  186.3320  178.1120  141.2450 N   0  0  0  0  0  2  0  0  0  0  0  0
  186.2540  179.0690  142.3400 C   0  0  0  0  0  2  0  0  0  0  0  0
  184.8410  179.1140  142.9050 C   0  0  0  0  0  2  0  0  0  0  0  0
  186.0820  177.6110  144.4390 C   0  0  0  0  0  2  0  0  0  0  0  0
  186.5730  178.5130  145.5450 C   0  0  1  0  0  3  0  0  0  0  0  0
  185.4110  179.1150  146.1890 N   0  0  0  0  0  2  0  0  0  0  0  0
  184.7240  178.1520  144.0760 C   0  0  1  0  0  3  0  0  0  0  0  0
  184.2670  178.9040  145.3070 C   0  0  0  0  0  2  0  0  0  0  0  0
  187.3720  177.7010  146.5490 C   0  0  0  0  0  2  0  0  0  0  0  0
  188.2760  178.0770  148.7840 C   0  0  0  0  0  2  0  0  0  0  0  0
  187.3250  178.3430  147.8930 C   0  0  0  0  0  3  0  0  0  0  0  0
  1 27  1  1  0  0  0
  2  3  1  6  0  0  0
  2  8  1  0  0  0  0
  2 11  1  0  0  0  0
  5 11  2  0  0  0  0
  6  9  1  0  0  0  0
  7  4  1  0  0  0  0
  8 16  1  1  0  0  0
  8 12  1  0  0  0  0
  9 13  1  0  0  0  0
 10  7  2  0  0  0  0
 11  6  1  0  0  0  0
 12 10  1  0  0  0  0
 12  9  2  0  0  0  0
 13  4  1  0  0  0  0
 13  1  1  0  0  0  0
 14 17  2  0  0  0  0
 15 17  1  0  0  0  0
 17 16  1  0  0  0  0
 19 21  1  0  0  0  0
 20 19  1  0  0  0  0
 21 18  1  0  0  0  0
 21 24  1  1  0  0  0
 22  1  1  6  0  0  0
 22 20  1  0  0  0  0
 22 23  1  0  0  0  0
 23 18  1  0  0  0  0
 24 25  1  0  0  0  0
 25 26  1  0  0  0  0
 28 30  1  6  0  0  0
 28 27  1  0  0  0  0
 28 31  1  0  0  0  0
 29 30  1  0  0  0  0
 31 32  1  0  0  0  0
 32 33  1  0  0  0  0
 34 35  1  0  0  0  0
 35 36  1  0  0  0  0
 35 39  1  1  0  0  0
 37 33  1  6  0  0  0
 37 34  1  0  0  0  0
 37 38  1  0  0  0  0
 38 36  1  0  0  0  0
 39 41  1  0  0  0  0
 41 40  2  0  0  0  0
M  END
>  <MODEL>
3

>  <REMARK>
 VINA RESULT:      -7.0      3.263      9.704
  Name = 
  14 active torsions:
  status: ('A' for Active; 'I' for Inactive)
    1  A    between atoms: C_4  and  C_21
    2  A    between atoms: C_4  and  C_35
    3  A    between atoms: C_12  and  C_31
    4  A    between atoms: C_15  and  C_31
    5  A    between atoms: C_16  and  N_28
    6  A    between atoms: N_18  and  C_21
    7  A    between atoms: N_18  and  C_39
    8  A    between atoms: C_24  and  C_26
    9  A    between atoms: C_25  and  C_30
   10  A    between atoms: C_26  and  C_34
   11  A    between atoms: C_30  and  C_32
   12  A    between atoms: C_30  and  N_38
   13  A    between atoms: C_32  and  C_39
   14  A    between atoms: C_36  and  C_39
                            x       y       z     vdW  Elec       q    Type
                         _______ _______ _______ _____ _____    ______ ____

>  <TORSDO>
F 14

$$$$
=
 OpenBabel10232408353D

 41 44  0  0  1  0  0  0  0  0999 V2000
  187.4650  177.8040  138.3040 C   0  0  1  0  0  3  0  0  0  0  0  0
  187.5870  172.9780  136.3900 C   0  0  1  0  0  3  0  0  0  0  0  0
  186.8740  171.7960  135.7480 C   0  0  0  0  0  1  0  0  0  0  0  0
  188.8200  178.1260  136.1820 C   0  0  0  0  0  2  0  0  0  0  0  0
  185.7840  173.1260  137.9710 O   0  0  0  0  0  0  0  0  0  0  0  0
  186.8430  175.1370  137.4860 N   0  0  0  0  0  2  0  0  0  0  0  0
  189.7250  177.3600  135.2610 C   0  0  0  0  0  3  0  0  0  0  0  0
  188.1640  173.8870  135.2920 C   0  0  1  0  0  3  0  0  0  0  0  0
  187.8280  175.8750  136.7540 C   0  0  0  0  0  0  0  0  0  0  0  0
  189.5570  176.0570  135.0470 C   0  0  0  0  0  3  0  0  0  0  0  0
  186.6650  173.7320  137.3010 C   0  0  0  0  0  0  0  0  0  0  0  0
  188.5210  175.2860  135.7620 C   0  0  0  0  0  0  0  0  0  0  0  0
  188.1080  177.2430  137.1130 N   0  0  0  0  0  0  0  0  0  0  0  0
  190.7000  173.1180  136.4870 O   0  0  0  0  0  0  0  0  0  0  0  0
  191.5300  172.2170  134.5160 N   0  0  0  0  0  1  0  0  0  0  0  0
  189.2890  173.2340  134.6210 N   0  0  0  0  0  2  0  0  0  0  0  0
  190.5110  172.8620  135.2680 C   0  0  0  0  0  0  0  0  0  0  0  0
  190.2190  177.1620  140.9600 C   0  0  0  0  0  2  0  0  0  0  0  0
  187.7750  177.3140  141.7500 C   0  0  0  0  0  2  0  0  0  0  0  0
  187.7170  178.4620  140.7380 C   0  0  0  0  0  2  0  0  0  0  0  0
  189.2260  176.9370  142.1090 C   0  0  2  0  0  3  0  0  0  0  0  0
  188.4540  178.1160  139.4340 C   0  0  1  0  0  3  0  0  0  0  0  0
  189.5380  177.0350  139.6000 C   0  0  0  0  0  2  0  0  0  0  0  0
  189.7000  177.7100  143.3330 C   0  0  0  0  0  2  0  0  0  0  0  0
  191.2110  177.6180  143.4990 C   0  0  0  0  0  2  0  0  0  0  0  0
  191.7670  178.9220  144.0400 C   0  0  0  0  0  1  0  0  0  0  0  0
  186.5790  178.9910  137.9480 C   0  0  0  0  0  2  0  0  0  0  0  0
  185.1510  178.7260  138.3880 C   0  0  1  0  0  3  0  0  0  0  0  0
  183.8760  176.6880  137.7060 C   0  0  0  0  0  1  0  0  0  0  0  0
  184.9480  177.2370  138.6300 C   0  0  0  0  0  2  0  0  0  0  0  0
  184.8970  179.4610  139.6190 N   0  0  0  0  0  2  0  0  0  0  0  0
  184.3370  178.5380  140.5960 C   0  0  0  0  0  2  0  0  0  0  0  0
  184.0660  179.2560  141.9100 C   0  0  0  0  0  2  0  0  0  0  0  0
  185.3130  178.2720  143.8140 C   0  0  0  0  0  2  0  0  0  0  0  0
  185.0620  179.2150  144.9650 C   0  0  1  0  0  3  0  0  0  0  0  0
  183.6260  179.2560  145.2130 N   0  0  0  0  0  2  0  0  0  0  0  0
  184.0180  178.2490  143.0460 C   0  0  1  0  0  3  0  0  0  0  0  0
  182.9660  178.6670  144.0520 C   0  0  0  0  0  2  0  0  0  0  0  0
  185.7980  178.7220  146.1990 C   0  0  0  0  0  2  0  0  0  0  0  0
  187.8830  177.5490  146.6750 C   0  0  0  0  0  2  0  0  0  0  0  0
  186.9020  177.7980  145.8130 C   0  0  0  0  0  3  0  0  0  0  0  0
  1 27  1  6  0  0  0
  2  3  1  6  0  0  0
  2 11  1  0  0  0  0
  4 13  1  0  0  0  0
  7  4  1  0  0  0  0
  8 16  1  1  0  0  0
  8 12  1  0  0  0  0
  8  2  1  0  0  0  0
  9 13  1  0  0  0  0
  9  6  1  0  0  0  0
 10  7  2  0  0  0  0
 10 12  1  0  0  0  0
 11  6  1  0  0  0  0
 11  5  2  0  0  0  0
 12  9  2  0  0  0  0
 13  1  1  0  0  0  0
 15 17  1  0  0  0  0
 16 17  1  0  0  0  0
 17 14  2  0  0  0  0
 18 21  1  0  0  0  0
 19 21  1  0  0  0  0
 20 19  1  0  0  0  0
 21 24  1  1  0  0  0
 22  1  1  6  0  0  0
 22 23  1  0  0  0  0
 22 20  1  0  0  0  0
 23 18  1  0  0  0  0
 24 25  1  0  0  0  0
 25 26  1  0  0  0  0
 28 27  1  1  0  0  0
 28 30  1  0  0  0  0
 28 31  1  0  0  0  0
 29 30  1  0  0  0  0
 31 32  1  0  0  0  0
 32 33  1  0  0  0  0
 34 35  1  0  0  0  0
 35 36  1  0  0  0  0
 35 39  1  1  0  0  0
 37 33  1  6  0  0  0
 37 34  1  0  0  0  0
 37 38  1  0  0  0  0
 38 36  1  0  0  0  0
 41 39  1  0  0  0  0
 41 40  2  0  0  0  0
M  END
>  <MODEL>
4

>  <REMARK>
 VINA RESULT:      -6.7      3.497      9.300
  Name = 
  14 active torsions:
  status: ('A' for Active; 'I' for Inactive)
    1  A    between atoms: C_4  and  C_21
    2  A    between atoms: C_4  and  C_35
    3  A    between atoms: C_12  and  C_31
    4  A    between atoms: C_15  and  C_31
    5  A    between atoms: C_16  and  N_28
    6  A    between atoms: N_18  and  C_21
    7  A    between atoms: N_18  and  C_39
    8  A    between atoms: C_24  and  C_26
    9  A    between atoms: C_25  and  C_30
   10  A    between atoms: C_26  and  C_34
   11  A    between atoms: C_30  and  C_32
   12  A    between atoms: C_30  and  N_38
   13  A    between atoms: C_32  and  C_39
   14  A    between atoms: C_36  and  C_39
                            x       y       z     vdW  Elec       q    Type
                         _______ _______ _______ _____ _____    ______ ____

>  <TORSDO>
F 14

$$$$
=
 OpenBabel10232408353D

 41 44  0  0  1  0  0  0  0  0999 V2000
  189.4880  176.6660  138.5450 C   0  0  1  0  0  3  0  0  0  0  0  0
  185.6560  178.3810  141.6020 C   0  0  1  0  0  3  0  0  0  0  0  0
  185.1460  179.3540  142.6560 C   0  0  0  0  0  1  0  0  0  0  0  0
  187.8910  177.6780  136.8510 C   0  0  0  0  0  2  0  0  0  0  0  0
  187.6170  178.0490  142.9500 O   0  0  0  0  0  0  0  0  0  0  0  0
  187.9330  177.7930  140.6620 N   0  0  0  0  0  2  0  0  0  0  0  0
  186.4300  177.9780  136.6740 C   0  0  0  0  0  3  0  0  0  0  0  0
  185.3680  178.9440  140.2010 C   0  0  1  0  0  3  0  0  0  0  0  0
  187.4190  177.8330  139.3270 C   0  0  0  0  0  0  0  0  0  0  0  0
  185.6570  178.2990  137.7090 C   0  0  0  0  0  3  0  0  0  0  0  0
  187.1170  178.0990  141.7930 C   0  0  0  0  0  0  0  0  0  0  0  0
  186.1790  178.3020  139.0890 C   0  0  0  0  0  0  0  0  0  0  0  0
  188.2170  177.3270  138.2380 N   0  0  0  0  0  0  0  0  0  0  0  0
  183.8080  180.9900  138.8470 O   0  0  0  0  0  0  0  0  0  0  0  0
  181.8260  179.7930  138.9960 N   0  0  0  0  0  1  0  0  0  0  0  0
  183.9320  178.9100  139.9170 N   0  0  0  0  0  2  0  0  0  0  0  0
  183.2190  179.9440  139.2290 C   0  0  0  0  0  0  0  0  0  0  0  0
  190.6180  173.6400  136.3970 C   0  0  0  0  0  2  0  0  0  0  0  0
  192.4120  174.9570  137.6870 C   0  0  0  0  0  2  0  0  0  0  0  0
  191.5910  176.1630  137.2240 C   0  0  0  0  0  2  0  0  0  0  0  0
  192.0740  173.6870  136.8810 C   0  0  2  0  0  3  0  0  0  0  0  0
  190.0800  175.9100  137.3480 C   0  0  1  0  0  3  0  0  0  0  0  0
  189.6940  174.4210  137.3270 C   0  0  0  0  0  2  0  0  0  0  0  0
  193.0010  173.5440  135.6810 C   0  0  0  0  0  2  0  0  0  0  0  0
  194.4640  173.5750  136.1010 C   0  0  0  0  0  2  0  0  0  0  0  0
  195.3090  172.7530  135.1450 C   0  0  0  0  0  1  0  0  0  0  0  0
  190.4760  177.6340  139.1820 C   0  0  0  0  0  2  0  0  0  0  0  0
  191.3220  176.9120  140.2150 C   0  0  1  0  0  3  0  0  0  0  0  0
  193.8080  177.0260  139.9880 C   0  0  0  0  0  1  0  0  0  0  0  0
  192.5710  177.7240  140.5240 C   0  0  0  0  0  2  0  0  0  0  0  0
  190.5340  176.7430  141.4270 N   0  0  0  0  0  2  0  0  0  0  0  0
  191.1610  177.5160  142.4910 C   0  0  0  0  0  2  0  0  0  0  0  0
  191.2210  176.7000  143.7750 C   0  0  0  0  0  2  0  0  0  0  0  0
  189.7050  177.9830  145.2590 C   0  0  0  0  0  2  0  0  0  0  0  0
  189.2590  176.9890  146.3020 C   0  0  1  0  0  3  0  0  0  0  0  0
  190.4420  176.5100  147.0090 N   0  0  0  0  0  2  0  0  0  0  0  0
  191.1400  177.6260  144.9760 C   0  0  1  0  0  3  0  0  0  0  0  0
  191.6060  176.8910  146.2150 C   0  0  0  0  0  2  0  0  0  0  0  0
  188.3010  177.6600  147.2710 C   0  0  0  0  0  2  0  0  0  0  0  0
  186.0890  177.7720  146.2470 C   0  0  0  0  0  2  0  0  0  0  0  0
  187.2330  178.3880  146.5280 C   0  0  0  0  0  3  0  0  0  0  0  0
  1 27  1  6  0  0  0
  2 11  1  0  0  0  0
  2  3  1  1  0  0  0
  4 13  1  0  0  0  0
  6 11  1  0  0  0  0
  7  4  1  0  0  0  0
  7 10  2  0  0  0  0
  8 16  1  6  0  0  0
  8  2  1  0  0  0  0
  9  6  1  0  0  0  0
 10 12  1  0  0  0  0
 11  5  2  0  0  0  0
 12  9  2  0  0  0  0
 12  8  1  0  0  0  0
 13  1  1  0  0  0  0
 13  9  1  0  0  0  0
 14 17  2  0  0  0  0
 15 17  1  0  0  0  0
 17 16  1  0  0  0  0
 18 21  1  0  0  0  0
 18 23  1  0  0  0  0
 20 22  1  0  0  0  0
 20 19  1  0  0  0  0
 21 24  1  6  0  0  0
 21 19  1  0  0  0  0
 22  1  1  1  0  0  0
 23 22  1  0  0  0  0
 24 25  1  0  0  0  0
 26 25  1  0  0  0  0
 28 27  1  6  0  0  0
 28 30  1  0  0  0  0
 28 31  1  0  0  0  0
 29 30  1  0  0  0  0
 31 32  1  0  0  0  0
 32 33  1  0  0  0  0
 34 35  1  0  0  0  0
 35 36  1  0  0  0  0
 35 39  1  1  0  0  0
 37 33  1  6  0  0  0
 37 34  1  0  0  0  0
 37 38  1  0  0  0  0
 38 36  1  0  0  0  0
 40 41  2  0  0  0  0
 41 39  1  0  0  0  0
M  END
>  <MODEL>
5

>  <REMARK>
 VINA RESULT:      -6.5      2.354      8.785
  Name = 
  14 active torsions:
  status: ('A' for Active; 'I' for Inactive)
    1  A    between atoms: C_4  and  C_21
    2  A    between atoms: C_4  and  C_35
    3  A    between atoms: C_12  and  C_31
    4  A    between atoms: C_15  and  C_31
    5  A    between atoms: C_16  and  N_28
    6  A    between atoms: N_18  and  C_21
    7  A    between atoms: N_18  and  C_39
    8  A    between atoms: C_24  and  C_26
    9  A    between atoms: C_25  and  C_30
   10  A    between atoms: C_26  and  C_34
   11  A    between atoms: C_30  and  C_32
   12  A    between atoms: C_30  and  N_38
   13  A    between atoms: C_32  and  C_39
   14  A    between atoms: C_36  and  C_39
                            x       y       z     vdW  Elec       q    Type
                         _______ _______ _______ _____ _____    ______ ____

>  <TORSDO>
F 14

$$$$
=
 OpenBabel10232408353D

 41 44  0  0  1  0  0  0  0  0999 V2000
  189.4000  177.0880  139.8520 C   0  0  1  0  0  3  0  0  0  0  0  0
  191.6910  173.5660  136.7990 C   0  0  1  0  0  3  0  0  0  0  0  0
  191.9150  172.9650  135.4190 C   0  0  0  0  0  1  0  0  0  0  0  0
  191.8170  177.8620  139.8960 C   0  0  0  0  0  2  0  0  0  0  0  0
  189.3300  173.5370  136.3580 O   0  0  0  0  0  0  0  0  0  0  0  0
  190.0500  175.2250  137.7830 N   0  0  0  0  0  0  0  0  0  0  0  0
  193.2090  177.3190  139.7430 C   0  0  0  0  0  3  0  0  0  0  0  0
  192.7470  174.6530  137.0630 C   0  0  1  0  0  3  0  0  0  0  0  0
  191.1110  175.9110  138.4580 C   0  0  0  0  0  0  0  0  0  0  0  0
  193.4700  176.3000  138.9270 C   0  0  0  0  0  3  0  0  0  0  0  0
  190.2990  174.1080  136.9300 C   0  0  0  0  0  0  0  0  0  0  0  0
  192.3950  175.6060  138.1920 C   0  0  2  0  0  3  0  0  0  0  0  0
  190.7990  176.9000  139.4590 N   0  0  0  0  0  0  0  0  0  0  0  0
  195.1960  175.3590  135.6660 O   0  0  0  0  0  0  0  0  0  0  0  0
  196.4810  173.8080  136.8190 N   0  0  0  0  0  1  0  0  0  0  0  0
  194.0690  174.0520  137.2500 N   0  0  0  0  0  2  0  0  0  0  0  0
  195.2470  174.4550  136.5420 C   0  0  0  0  0  0  0  0  0  0  0  0
  188.0840  177.4750  143.4800 C   0  0  0  0  0  2  0  0  0  0  0  0
  190.5840  177.8900  143.0390 C   0  0  0  0  0  2  0  0  0  0  0  0
  190.4330  176.6700  142.1270 C   0  0  0  0  0  2  0  0  0  0  0  0
  189.4100  178.0150  144.0320 C   0  0  2  0  0  3  0  0  0  0  0  0
  189.1290  176.7180  141.3150 C   0  0  1  0  0  3  0  0  0  0  0  0
  188.0260  177.5790  141.9590 C   0  0  0  0  0  2  0  0  0  0  0  0
  189.7290  177.3060  145.3410 C   0  0  0  0  0  2  0  0  0  0  0  0
  188.5340  177.3160  146.2850 C   0  0  0  0  0  2  0  0  0  0  0  0
  188.9930  177.4710  147.7220 C   0  0  0  0  0  1  0  0  0  0  0  0
  188.9070  178.4840  139.4910 C   0  0  0  0  0  2  0  0  0  0  0  0
  188.1590  178.4480  138.1710 C   0  0  1  0  0  3  0  0  0  0  0  0
  188.7110  177.8850  135.8000 C   0  0  0  0  0  1  0  0  0  0  0  0
  189.1250  178.6880  137.0190 C   0  0  0  0  0  2  0  0  0  0  0  0
  187.5350  177.1420  138.0230 N   0  0  0  0  0  2  0  0  0  0  0  0
  186.1270  177.3420  137.7060 C   0  0  0  0  0  2  0  0  0  0  0  0
  185.5760  178.5370  138.4710 C   0  0  0  0  0  2  0  0  0  0  0  0
  184.1360  177.6740  140.2960 C   0  0  0  0  0  2  0  0  0  0  0  0
  183.9200  178.8580  141.2060 C   0  0  1  0  0  3  0  0  0  0  0  0
  183.2600  179.9080  140.4370 N   0  0  0  0  0  2  0  0  0  0  0  0
  184.1480  178.2540  138.9070 C   0  0  1  0  0  3  0  0  0  0  0  0
  183.3860  179.5570  139.0250 C   0  0  0  0  0  2  0  0  0  0  0  0
  183.0570  178.4460  142.3850 C   0  0  0  0  0  2  0  0  0  0  0  0
  184.7000  178.8080  144.1520 C   0  0  0  0  0  2  0  0  0  0  0  0
  183.5180  179.1220  143.6310 C   0  0  0  0  0  3  0  0  0  0  0  0
  1 27  1  1  0  0  0
  2  3  1  6  0  0  0
  2 11  1  0  0  0  0
  2  8  1  0  0  0  0
  5 11  2  0  0  0  0
  6  9  2  0  0  0  0
  7  4  1  0  0  0  0
  8 16  1  1  0  0  0
  8 12  1  0  0  0  0
  9 13  1  0  0  0  0
 10  7  2  0  0  0  0
 11  6  1  0  0  0  0
 12  9  1  0  0  0  0
 12 10  1  6  0  0  0
 13  1  1  0  0  0  0
 13  4  1  0  0  0  0
 14 17  2  0  0  0  0
 17 15  1  0  0  0  0
 17 16  1  0  0  0  0
 18 21  1  0  0  0  0
 19 21  1  0  0  0  0
 20 19  1  0  0  0  0
 21 24  1  1  0  0  0
 22  1  1  6  0  0  0
 22 23  1  0  0  0  0
 22 20  1  0  0  0  0
 23 18  1  0  0  0  0
 24 25  1  0  0  0  0
 25 26  1  0  0  0  0
 28 30  1  6  0  0  0
 28 27  1  0  0  0  0
 29 30  1  0  0  0  0
 31 28  1  0  0  0  0
 32 31  1  0  0  0  0
 32 33  1  0  0  0  0
 34 35  1  0  0  0  0
 35 39  1  1  0  0  0
 36 35  1  0  0  0  0
 37 33  1  1  0  0  0
 37 38  1  0  0  0  0
 37 34  1  0  0  0  0
 38 36  1  0  0  0  0
 39 41  1  0  0  0  0
 41 40  2  0  0  0  0
M  END
>  <MODEL>
6

>  <REMARK>
 VINA RESULT:      -6.4      3.527      9.274
  Name = 
  14 active torsions:
  status: ('A' for Active; 'I' for Inactive)
    1  A    between atoms: C_4  and  C_21
    2  A    between atoms: C_4  and  C_35
    3  A    between atoms: C_12  and  C_31
    4  A    between atoms: C_15  and  C_31
    5  A    between atoms: C_16  and  N_28
    6  A    between atoms: N_18  and  C_21
    7  A    between atoms: N_18  and  C_39
    8  A    between atoms: C_24  and  C_26
    9  A    between atoms: C_25  and  C_30
   10  A    between atoms: C_26  and  C_34
   11  A    between atoms: C_30  and  C_32
   12  A    between atoms: C_30  and  N_38
   13  A    between atoms: C_32  and  C_39
   14  A    between atoms: C_36  and  C_39
                            x       y       z     vdW  Elec       q    Type
                         _______ _______ _______ _____ _____    ______ ____

>  <TORSDO>
F 14

$$$$
=
 OpenBabel10232408353D

 41 44  0  0  1  0  0  0  0  0999 V2000
  189.3630  177.2400  140.7160 C   0  0  1  0  0  3  0  0  0  0  0  0
  191.4260  174.3380  136.9350 C   0  0  1  0  0  3  0  0  0  0  0  0
  191.5400  173.9830  135.4600 C   0  0  0  0  0  1  0  0  0  0  0  0
  191.7670  178.0550  140.6940 C   0  0  0  0  0  2  0  0  0  0  0  0
  189.0370  174.3250  136.6890 O   0  0  0  0  0  0  0  0  0  0  0  0
  189.8560  175.7670  138.3160 N   0  0  0  0  0  0  0  0  0  0  0  0
  193.1460  177.5800  140.3390 C   0  0  0  0  0  3  0  0  0  0  0  0
  192.4890  175.3900  137.2930 C   0  0  1  0  0  3  0  0  0  0  0  0
  190.9630  176.3560  139.0090 C   0  0  0  0  0  0  0  0  0  0  0  0
  193.3490  176.7190  139.3440 C   0  0  0  0  0  3  0  0  0  0  0  0
  190.0440  174.8160  137.2690 C   0  0  0  0  0  0  0  0  0  0  0  0
  192.2230  176.1320  138.5910 C   0  0  2  0  0  3  0  0  0  0  0  0
  190.7260  177.1550  140.1850 N   0  0  0  0  0  0  0  0  0  0  0  0
  194.8410  176.4590  135.9600 O   0  0  0  0  0  0  0  0  0  0  0  0
  196.2140  174.7260  136.6620 N   0  0  0  0  0  1  0  0  0  0  0  0
  193.8280  174.8000  137.2670 N   0  0  0  0  0  2  0  0  0  0  0  0
  194.9560  175.3840  136.6050 C   0  0  0  0  0  0  0  0  0  0  0  0
  190.0730  178.3760  144.3560 C   0  0  0  0  0  2  0  0  0  0  0  0
  191.4060  176.3850  143.4190 C   0  0  0  0  0  2  0  0  0  0  0  0
  190.0500  176.0030  142.8180 C   0  0  0  0  0  2  0  0  0  0  0  0
  191.2620  177.4240  144.5490 C   0  0  2  0  0  3  0  0  0  0  0  0
  189.3100  177.2240  142.2490 C   0  0  1  0  0  3  0  0  0  0  0  0
  189.7390  178.5620  142.8790 C   0  0  0  0  0  2  0  0  0  0  0  0
  191.1340  176.7390  145.9020 C   0  0  0  0  0  2  0  0  0  0  0  0
  189.7220  176.8610  146.4580 C   0  0  0  0  0  2  0  0  0  0  0  0
  189.7500  177.4490  147.8570 C   0  0  0  0  0  1  0  0  0  0  0  0
  188.6040  178.4120  140.1080 C   0  0  0  0  0  2  0  0  0  0  0  0
  187.1110  178.1420  140.1430 C   0  0  1  0  0  3  0  0  0  0  0  0
  185.0200  178.4700  141.4710 C   0  0  0  0  0  1  0  0  0  0  0  0
  186.4790  178.8640  141.3230 C   0  0  0  0  0  2  0  0  0  0  0  0
  186.5210  178.6210  138.9010 N   0  0  0  0  0  2  0  0  0  0  0  0
  186.6440  177.5700  137.9010 C   0  0  0  0  0  2  0  0  0  0  0  0
  185.2750  177.2030  137.3460 C   0  0  0  0  0  2  0  0  0  0  0  0
  185.8350  174.8180  136.9620 C   0  0  0  0  0  2  0  0  0  0  0  0
  184.5440  174.0760  137.2070 C   0  0  1  0  0  3  0  0  0  0  0  0
  183.5520  174.5660  136.2560 N   0  0  0  0  0  2  0  0  0  0  0  0
  185.4200  176.1060  136.3040 C   0  0  1  0  0  3  0  0  0  0  0  0
  184.0690  175.8080  135.6900 C   0  0  0  0  0  2  0  0  0  0  0  0
  184.7660  172.5860  137.0170 C   0  0  0  0  0  2  0  0  0  0  0  0
  182.7020  171.2870  136.9420 C   0  0  0  0  0  2  0  0  0  0  0  0
  183.6230  171.9790  136.2780 C   0  0  0  0  0  3  0  0  0  0  0  0
  1 27  1  1  0  0  0
  2  3  1  6  0  0  0
  2 11  1  0  0  0  0
  2  8  1  0  0  0  0
  5 11  2  0  0  0  0
  6  9  2  0  0  0  0
  7  4  1  0  0  0  0
  8 16  1  1  0  0  0
  8 12  1  0  0  0  0
  9 13  1  0  0  0  0
 10  7  2  0  0  0  0
 11  6  1  0  0  0  0
 12  9  1  0  0  0  0
 12 10  1  6  0  0  0
 13  4  1  0  0  0  0
 13  1  1  0  0  0  0
 14 17  2  0  0  0  0
 17 15  1  0  0  0  0
 17 16  1  0  0  0  0
 18 21  1  0  0  0  0
 19 21  1  0  0  0  0
 20 19  1  0  0  0  0
 21 24  1  1  0  0  0
 22  1  1  6  0  0  0
 22 20  1  0  0  0  0
 22 23  1  0  0  0  0
 23 18  1  0  0  0  0
 24 25  1  0  0  0  0
 25 26  1  0  0  0  0
 28 27  1  6  0  0  0
 28 30  1  0  0  0  0
 30 29  1  0  0  0  0
 31 28  1  0  0  0  0
 32 31  1  0  0  0  0
 33 32  1  0  0  0  0
 34 35  1  0  0  0  0
 35 39  1  6  0  0  0
 36 35  1  0  0  0  0
 37 34  1  0  0  0  0
 37 33  1  1  0  0  0
 38 36  1  0  0  0  0
 38 37  1  0  0  0  0
 41 40  2  0  0  0  0
 41 39  1  0  0  0  0
M  END
>  <MODEL>
7

>  <REMARK>
 VINA RESULT:      -6.4      3.903      8.996
  Name = 
  14 active torsions:
  status: ('A' for Active; 'I' for Inactive)
    1  A    between atoms: C_4  and  C_21
    2  A    between atoms: C_4  and  C_35
    3  A    between atoms: C_12  and  C_31
    4  A    between atoms: C_15  and  C_31
    5  A    between atoms: C_16  and  N_28
    6  A    between atoms: N_18  and  C_21
    7  A    between atoms: N_18  and  C_39
    8  A    between atoms: C_24  and  C_26
    9  A    between atoms: C_25  and  C_30
   10  A    between atoms: C_26  and  C_34
   11  A    between atoms: C_30  and  C_32
   12  A    between atoms: C_30  and  N_38
   13  A    between atoms: C_32  and  C_39
   14  A    between atoms: C_36  and  C_39
                            x       y       z     vdW  Elec       q    Type
                         _______ _______ _______ _____ _____    ______ ____

>  <TORSDO>
F 14

$$$$
=
 OpenBabel10232408353D

 41 44  0  0  1  0  0  0  0  0999 V2000
  189.8520  175.5600  136.5940 C   0  0  1  0  0  3  0  0  0  0  0  0
  194.8210  174.2630  137.3630 C   0  0  1  0  0  3  0  0  0  0  0  0
  195.9590  173.9080  138.3090 C   0  0  0  0  0  1  0  0  0  0  0  0
  189.9240  173.2090  135.6400 C   0  0  0  0  0  2  0  0  0  0  0  0
  194.2830  176.1060  138.8060 O   0  0  0  0  0  0  0  0  0  0  0  0
  192.4850  175.1990  137.6460 N   0  0  0  0  0  2  0  0  0  0  0  0
  190.8890  172.2440  135.0150 C   0  0  0  0  0  3  0  0  0  0  0  0
  194.1100  172.9770  136.9090 C   0  0  1  0  0  3  0  0  0  0  0  0
  191.9580  174.2200  136.7440 C   0  0  0  0  0  0  0  0  0  0  0  0
  192.1740  172.2250  135.3610 C   0  0  0  0  0  3  0  0  0  0  0  0
  193.8660  175.2230  138.0080 C   0  0  0  0  0  0  0  0  0  0  0  0
  192.7280  173.2010  136.3200 C   0  0  0  0  0  0  0  0  0  0  0  0
  190.6080  174.3530  136.2540 N   0  0  0  0  0  0  0  0  0  0  0  0
  195.2280  170.3400  137.4050 O   0  0  0  0  0  0  0  0  0  0  0  0
  196.2880  170.2350  135.3430 N   0  0  0  0  0  1  0  0  0  0  0  0
  194.9680  172.2040  136.0100 N   0  0  0  0  0  2  0  0  0  0  0  0
  195.4760  170.8970  136.3030 C   0  0  0  0  0  0  0  0  0  0  0  0
  187.2250  177.5720  134.5700 C   0  0  0  0  0  2  0  0  0  0  0  0
  186.4910  176.4950  136.7880 C   0  0  0  0  0  2  0  0  0  0  0  0
  187.3470  175.3290  136.2870 C   0  0  0  0  0  2  0  0  0  0  0  0
  186.1420  177.4800  135.6540 C   0  0  2  0  0  3  0  0  0  0  0  0
  188.6630  175.8130  135.6580 C   0  0  1  0  0  3  0  0  0  0  0  0
  188.6080  177.2580  135.1320 C   0  0  0  0  0  2  0  0  0  0  0  0
  184.8170  177.1110  135.0030 C   0  0  0  0  0  2  0  0  0  0  0  0
  183.8430  176.5220  136.0140 C   0  0  0  0  0  2  0  0  0  0  0  0
  182.9400  177.6040  136.5760 C   0  0  0  0  0  1  0  0  0  0  0  0
  189.4590  175.5720  138.0660 C   0  0  0  0  0  2  0  0  0  0  0  0
  190.0090  176.8130  138.7440 C   0  0  1  0  0  3  0  0  0  0  0  0
  189.0680  179.0270  138.0650 C   0  0  0  0  0  1  0  0  0  0  0  0
  188.8910  177.8210  138.9700 C   0  0  0  0  0  2  0  0  0  0  0  0
  190.5890  176.4300  140.0220 N   0  0  0  0  0  2  0  0  0  0  0  0
  189.7210  176.9210  141.0840 C   0  0  0  0  0  2  0  0  0  0  0  0
  190.4850  177.0060  142.3970 C   0  0  0  0  0  2  0  0  0  0  0  0
  189.8050  176.9660  144.7820 C   0  0  0  0  0  2  0  0  0  0  0  0
  188.5260  177.7650  144.8290 C   0  0  1  0  0  3  0  0  0  0  0  0
  187.5480  177.1070  143.9690 N   0  0  0  0  0  2  0  0  0  0  0  0
  189.7480  176.2250  143.4720 C   0  0  1  0  0  3  0  0  0  0  0  0
  188.2750  176.1580  143.1310 C   0  0  0  0  0  2  0  0  0  0  0  0
  188.0150  177.8280  146.2580 C   0  0  0  0  0  2  0  0  0  0  0  0
  185.8160  178.7600  146.7550 C   0  0  0  0  0  2  0  0  0  0  0  0
  186.5280  177.7410  146.2830 C   0  0  0  0  0  3  0  0  0  0  0  0
  1 27  1  1  0  0  0
  2 11  1  0  0  0  0
  2  3  1  1  0  0  0
  4 13  1  0  0  0  0
  6 11  1  0  0  0  0
  7 10  2  0  0  0  0
  7  4  1  0  0  0  0
  8 16  1  6  0  0  0
  8  2  1  0  0  0  0
  9  6  1  0  0  0  0
 10 12  1  0  0  0  0
 11  5  2  0  0  0  0
 12  9  2  0  0  0  0
 12  8  1  0  0  0  0
 13  1  1  0  0  0  0
 13  9  1  0  0  0  0
 15 17  1  0  0  0  0
 16 17  1  0  0  0  0
 17 14  2  0  0  0  0
 18 23  1  0  0  0  0
 18 21  1  0  0  0  0
 20 19  1  0  0  0  0
 21 24  1  6  0  0  0
 21 19  1  0  0  0  0
 22 20  1  0  0  0  0
 22  1  1  1  0  0  0
 23 22  1  0  0  0  0
 24 25  1  0  0  0  0
 25 26  1  0  0  0  0
 28 27  1  1  0  0  0
 28 30  1  0  0  0  0
 28 31  1  0  0  0  0
 29 30  1  0  0  0  0
 31 32  1  0  0  0  0
 32 33  1  0  0  0  0
 34 35  1  0  0  0  0
 35 39  1  1  0  0  0
 36 35  1  0  0  0  0
 37 33  1  6  0  0  0
 37 34  1  0  0  0  0
 38 37  1  0  0  0  0
 38 36  1  0  0  0  0
 39 41  1  0  0  0  0
 41 40  2  0  0  0  0
M  END
>  <MODEL>
8

>  <REMARK>
 VINA RESULT:      -6.4      3.233      9.271
  Name = 
  14 active torsions:
  status: ('A' for Active; 'I' for Inactive)
    1  A    between atoms: C_4  and  C_21
    2  A    between atoms: C_4  and  C_35
    3  A    between atoms: C_12  and  C_31
    4  A    between atoms: C_15  and  C_31
    5  A    between atoms: C_16  and  N_28
    6  A    between atoms: N_18  and  C_21
    7  A    between atoms: N_18  and  C_39
    8  A    between atoms: C_24  and  C_26
    9  A    between atoms: C_25  and  C_30
   10  A    between atoms: C_26  and  C_34
   11  A    between atoms: C_30  and  C_32
   12  A    between atoms: C_30  and  N_38
   13  A    between atoms: C_32  and  C_39
   14  A    between atoms: C_36  and  C_39
                            x       y       z     vdW  Elec       q    Type
                         _______ _______ _______ _____ _____    ______ ____

>  <TORSDO>
F 14

$$$$
=
 OpenBabel10232408353D

 41 44  0  0  1  0  0  0  0  0999 V2000
  188.6150  177.3810  141.5460 C   0  0  1  0  0  3  0  0  0  0  0  0
  189.1210  175.8460  136.6100 C   0  0  1  0  0  3  0  0  0  0  0  0
  188.8360  176.0530  135.1300 C   0  0  0  0  0  1  0  0  0  0  0  0
  191.0800  177.8160  141.1210 C   0  0  0  0  0  2  0  0  0  0  0  0
  186.7940  176.2450  137.0490 O   0  0  0  0  0  0  0  0  0  0  0  0
  188.2430  176.8540  138.7610 N   0  0  0  0  0  2  0  0  0  0  0  0
  192.2090  177.3270  140.2610 C   0  0  0  0  0  3  0  0  0  0  0  0
  190.4440  176.5370  136.9800 C   0  0  1  0  0  3  0  0  0  0  0  0
  189.5750  176.9900  139.2690 C   0  0  0  0  0  0  0  0  0  0  0  0
  191.9970  176.8790  139.0250 C   0  0  0  0  0  3  0  0  0  0  0  0
  187.9850  176.3450  137.4520 C   0  0  0  0  0  0  0  0  0  0  0  0
  190.6340  176.7710  138.4680 C   0  0  0  0  0  0  0  0  0  0  0  0
  189.7790  177.3180  140.6580 N   0  0  0  0  0  0  0  0  0  0  0  0
  191.1850  173.7610  137.4260 O   0  0  0  0  0  0  0  0  0  0  0  0
  193.0080  173.8580  135.9930 N   0  0  0  0  0  1  0  0  0  0  0  0
  191.5800  175.8250  136.3910 N   0  0  0  0  0  2  0  0  0  0  0  0
  191.8850  174.4480  136.6350 C   0  0  0  0  0  0  0  0  0  0  0  0
  190.0430  177.6320  145.1430 C   0  0  0  0  0  2  0  0  0  0  0  0
  191.3230  176.2140  143.4210 C   0  0  0  0  0  2  0  0  0  0  0  0
  189.9130  175.7750  143.0150 C   0  0  0  0  0  2  0  0  0  0  0  0
  191.3400  176.8810  144.8110 C   0  0  2  0  0  3  0  0  0  0  0  0
  188.9300  176.9570  142.9860 C   0  0  1  0  0  3  0  0  0  0  0  0
  189.3490  178.1370  143.8820 C   0  0  0  0  0  2  0  0  0  0  0  0
  191.6130  175.8550  145.9020 C   0  0  0  0  0  2  0  0  0  0  0  0
  191.6110  176.4970  147.2830 C   0  0  0  0  0  2  0  0  0  0  0  0
  192.6170  175.8120  148.1890 C   0  0  0  0  0  1  0  0  0  0  0  0
  187.9290  178.7380  141.4630 C   0  0  0  0  0  2  0  0  0  0  0  0
  186.4220  178.5650  141.5250 C   0  0  1  0  0  3  0  0  0  0  0  0
  185.3910  178.2380  143.7770 C   0  0  0  0  0  1  0  0  0  0  0  0
  185.8690  179.2590  142.7610 C   0  0  0  0  0  2  0  0  0  0  0  0
  185.8360  179.1530  140.3290 N   0  0  0  0  0  2  0  0  0  0  0  0
  184.4030  178.8950  140.3490 C   0  0  0  0  0  2  0  0  0  0  0  0
  183.8300  178.9710  138.9410 C   0  0  0  0  0  2  0  0  0  0  0  0
  182.4120  176.9380  139.0040 C   0  0  0  0  0  2  0  0  0  0  0  0
  181.2990  177.2160  138.0250 C   0  0  1  0  0  3  0  0  0  0  0  0
  181.8940  177.4280  136.7100 N   0  0  0  0  0  2  0  0  0  0  0  0
  183.6330  177.5690  138.3890 C   0  0  1  0  0  3  0  0  0  0  0  0
  183.3240  177.6440  136.9090 C   0  0  0  0  0  2  0  0  0  0  0  0
  180.3440  176.0360  137.9880 C   0  0  0  0  0  2  0  0  0  0  0  0
  180.4390  173.6150  137.7000 C   0  0  0  0  0  2  0  0  0  0  0  0
  181.1000  174.7580  137.8570 C   0  0  0  0  0  3  0  0  0  0  0  0
  1 27  1  1  0  0  0
  2  3  1  6  0  0  0
  2  8  1  0  0  0  0
  2 11  1  0  0  0  0
  5 11  2  0  0  0  0
  6  9  1  0  0  0  0
  7  4  1  0  0  0  0
  8 16  1  1  0  0  0
  8 12  1  0  0  0  0
  9 13  1  0  0  0  0
 10  7  2  0  0  0  0
 11  6  1  0  0  0  0
 12 10  1  0  0  0  0
 12  9  2  0  0  0  0
 13  4  1  0  0  0  0
 13  1  1  0  0  0  0
 15 17  1  0  0  0  0
 16 17  1  0  0  0  0
 17 14  2  0  0  0  0
 19 21  1  0  0  0  0
 20 19  1  0  0  0  0
 21 18  1  0  0  0  0
 21 24  1  1  0  0  0
 22  1  1  6  0  0  0
 22 20  1  0  0  0  0
 22 23  1  0  0  0  0
 23 18  1  0  0  0  0
 24 25  1  0  0  0  0
 25 26  1  0  0  0  0
 28 27  1  6  0  0  0
 28 30  1  0  0  0  0
 30 29  1  0  0  0  0
 31 32  1  0  0  0  0
 31 28  1  0  0  0  0
 33 32  1  0  0  0  0
 35 39  1  6  0  0  0
 35 34  1  0  0  0  0
 36 38  1  0  0  0  0
 36 35  1  0  0  0  0
 37 33  1  1  0  0  0
 37 34  1  0  0  0  0
 38 37  1  0  0  0  0
 40 41  2  0  0  0  0
 41 39  1  0  0  0  0
M  END
>  <MODEL>
9

>  <REMARK>
 VINA RESULT:      -6.4      3.229      9.459
  Name = 
  14 active torsions:
  status: ('A' for Active; 'I' for Inactive)
    1  A    between atoms: C_4  and  C_21
    2  A    between atoms: C_4  and  C_35
    3  A    between atoms: C_12  and  C_31
    4  A    between atoms: C_15  and  C_31
    5  A    between atoms: C_16  and  N_28
    6  A    between atoms: N_18  and  C_21
    7  A    between atoms: N_18  and  C_39
    8  A    between atoms: C_24  and  C_26
    9  A    between atoms: C_25  and  C_30
   10  A    between atoms: C_26  and  C_34
   11  A    between atoms: C_30  and  C_32
   12  A    between atoms: C_30  and  N_38
   13  A    between atoms: C_32  and  C_39
   14  A    between atoms: C_36  and  C_39
                            x       y       z     vdW  Elec       q    Type
                         _______ _______ _______ _____ _____    ______ ____

>  <TORSDO>
F 14

$$$$
