=
 OpenBabel10232408153D

 32 35  0  0  1  0  0  0  0  0999 V2000
  186.1110  178.9790  147.0560 S   0  0  0  0  0  1  0  0  0  0  0  0
  187.6640  177.8800  143.7650 C   0  0  1  0  0  3  0  0  0  0  0  0
  186.2180  177.8700  143.3080 C   0  0  2  0  0  3  0  0  0  0  0  0
  186.2140  177.6570  145.7810 C   0  0  1  0  0  3  0  0  0  0  0  0
  185.7750  179.0940  142.5090 C   0  0  2  0  0  3  0  0  0  0  0  0
  183.5750  179.1450  145.4530 F   0  0  0  0  0  0  0  0  0  0  0  0
  185.4570  178.0010  144.5460 C   0  0  1  0  0  3  0  0  0  0  0  0
  184.4130  178.7950  144.4250 C   0  0  2  0  0  3  0  0  0  0  0  0
  187.6570  177.5840  145.2860 C   0  0  0  0  0  2  0  0  0  0  0  0
  184.4310  179.5110  143.1250 C   0  0  0  0  0  2  0  0  0  0  0  0
  188.1020  175.5380  143.2950 O   0  0  0  0  0  1  0  0  0  0  0  0
  188.4290  176.8250  143.0680 N   0  0  0  0  0  0  0  0  0  0  0  0
  190.1260  177.0790  139.7430 C   0  0  0  0  0  0  0  0  0  0  0  0
  190.7600  177.3740  142.4630 C   0  0  0  0  0  3  0  0  0  0  0  0
  189.1500  176.9330  140.7330 C   0  0  0  0  0  3  0  0  0  0  0  0
  191.7550  177.5110  141.4900 C   0  0  0  0  0  3  0  0  0  0  0  0
  189.4420  177.1210  142.0880 C   0  0  0  0  0  0  0  0  0  0  0  0
  191.4440  177.3800  140.1370 C   0  0  0  0  0  3  0  0  0  0  0  0
  191.1020  176.8460  137.4420 C   0  0  0  0  0  1  0  0  0  0  0  0
  189.8380  176.7960  138.2830 C   0  0  2  0  0  3  0  0  0  0  0  0
  187.3050  175.8440  137.3580 O   0  0  0  0  0  1  0  0  0  0  0  0
  188.7860  177.6940  137.6730 C   0  0  0  0  0  0  0  0  0  0  0  0
  189.0060  179.1220  137.6710 N   0  0  0  0  0  1  0  0  0  0  0  0
  186.6170  178.0410  136.5390 C   0  0  0  0  0  1  0  0  0  0  0  0
  187.6300  177.1810  137.1980 C   0  0  0  0  0  0  0  0  0  0  0  0
  185.6020  178.7470  141.0870 N   0  0  0  0  0  2  0  0  0  0  0  0
  184.2200  178.8500  140.6110 C   0  0  1  0  0  3  0  0  0  0  0  0
  184.0330  179.5990  139.3190 C   0  0  0  0  0  3  0  0  0  0  0  0
  182.9480  179.4690  138.6500 N   0  0  0  0  0  0  0  0  0  0  0  0
  183.4250  177.5550  140.6620 C   0  0  0  0  0  2  0  0  0  0  0  0
  181.9810  177.8820  140.3490 C   0  0  0  0  0  2  0  0  0  0  0  0
  181.8780  178.5070  138.9520 C   0  0  0  0  0  2  0  0  0  0  0  0
  2 12  1  6  0  0  0
  2  9  1  0  0  0  0
  3  2  1  0  0  0  0
  3  7  1  0  0  0  0
  4  1  1  0  0  0  0
  5 10  1  0  0  0  0
  5  3  1  0  0  0  0
  7  4  1  0  0  0  0
  8  7  1  0  0  0  0
  8  6  1  0  0  0  0
  9  4  1  0  0  0  0
 10  8  1  0  0  0  0
 12 11  1  0  0  0  0
 13 18  2  0  0  0  0
 13 15  1  0  0  0  0
 15 17  2  0  0  0  0
 16 14  2  0  0  0  0
 17 14  1  0  0  0  0
 17 12  1  0  0  0  0
 18 16  1  0  0  0  0
 19 20  1  0  0  0  0
 20 13  1  0  0  0  0
 22 20  1  0  0  0  0
 23 22  1  0  0  0  0
 24 25  1  0  0  0  0
 25 21  1  0  0  0  0
 25 22  2  0  0  0  0
 26  5  1  0  0  0  0
 27 30  1  0  0  0  0
 27 26  1  0  0  0  0
 28 27  1  0  0  0  0
 29 32  1  0  0  0  0
 29 28  2  0  0  0  0
 31 30  1  0  0  0  0
 32 31  1  0  0  0  0
M  END
>  <MODEL>
1

>  <REMARK>
 VINA RESULT:      -8.5      0.000      0.000
  Name = 
  6 active torsions:
  status: ('A' for Active; 'I' for Inactive)
    1  A    between atoms: C_1  and  N_27
    2  A    between atoms: C_2  and  C_23
    3  A    between atoms: C_8  and  N_30
    4  A    between atoms: C_9  and  C_23
    5  A    between atoms: C_12  and  N_30
    6  A    between atoms: C_17  and  N_27
                            x       y       z     vdW  Elec       q    Type
                         _______ _______ _______ _____ _____    ______ ____

>  <TORSDO>
F 6

$$$$
=
 OpenBabel10232408153D

 32 35  0  0  1  0  0  0  0  0999 V2000
  189.0310  178.8170  138.1900 S   0  0  0  0  0  1  0  0  0  0  0  0
  188.6920  177.6660  141.7960 C   0  0  1  0  0  3  0  0  0  0  0  0
  189.9350  176.8670  141.4560 C   0  0  2  0  0  3  0  0  0  0  0  0
  188.7830  177.3880  139.3200 C   0  0  1  0  0  3  0  0  0  0  0  0
  191.2530  177.4700  141.9380 C   0  0  2  0  0  3  0  0  0  0  0  0
  191.6480  177.3450  138.2860 F   0  0  0  0  0  0  0  0  0  0  0  0
  190.0400  176.9820  140.0050 C   0  0  1  0  0  3  0  0  0  0  0  0
  191.2810  177.1400  139.5910 C   0  0  2  0  0  3  0  0  0  0  0  0
  187.8970  177.8450  140.4780 C   0  0  0  0  0  2  0  0  0  0  0  0
  192.2000  177.3830  140.7310 C   0  0  0  0  0  2  0  0  0  0  0  0
  188.3060  175.7420  143.2280 O   0  0  0  0  0  1  0  0  0  0  0  0
  187.8590  176.9270  142.7690 N   0  0  0  0  0  0  0  0  0  0  0  0
  184.4570  178.4770  142.8950 C   0  0  0  0  0  0  0  0  0  0  0  0
  186.5500  177.8400  144.6550 C   0  0  0  0  0  3  0  0  0  0  0  0
  185.6110  177.8310  142.4420 C   0  0  0  0  0  3  0  0  0  0  0  0
  185.4110  178.4990  145.1260 C   0  0  0  0  0  3  0  0  0  0  0  0
  186.6410  177.4680  143.3150 C   0  0  0  0  0  0  0  0  0  0  0  0
  184.3620  178.8060  144.2610 C   0  0  0  0  0  3  0  0  0  0  0  0
  181.9950  178.8450  142.5710 C   0  0  0  0  0  1  0  0  0  0  0  0
  183.3740  178.9480  141.9440 C   0  0  2  0  0  3  0  0  0  0  0  0
  184.7350  179.9630  139.6430 O   0  0  0  0  0  1  0  0  0  0  0  0
  183.3760  178.2470  140.6050 C   0  0  0  0  0  0  0  0  0  0  0  0
  182.7770  176.9360  140.5050 N   0  0  0  0  0  1  0  0  0  0  0  0
  183.9420  178.1570  138.2000 C   0  0  0  0  0  1  0  0  0  0  0  0
  183.9870  178.8020  139.5350 C   0  0  0  0  0  0  0  0  0  0  0  0
  191.7920  176.6950  143.0700 N   0  0  0  0  0  2  0  0  0  0  0  0
  191.0210  176.8340  144.3090 C   0  0  1  0  0  3  0  0  0  0  0  0
  191.5730  176.1000  145.5010 C   0  0  0  0  0  3  0  0  0  0  0  0
  191.1860  176.4090  146.6830 N   0  0  0  0  0  0  0  0  0  0  0  0
  190.5850  178.2530  144.6390 C   0  0  0  0  0  2  0  0  0  0  0  0
  189.6290  178.1850  145.8110 C   0  0  0  0  0  2  0  0  0  0  0  0
  190.3310  177.5560  147.0210 C   0  0  0  0  0  2  0  0  0  0  0  0
  1  4  1  0  0  0  0
  2 12  1  1  0  0  0
  3  2  1  0  0  0  0
  3  5  1  0  0  0  0
  4  7  1  0  0  0  0
  4  9  1  0  0  0  0
  5 26  1  0  0  0  0
  6  8  1  0  0  0  0
  7  3  1  0  0  0  0
  8  7  1  0  0  0  0
  8 10  1  0  0  0  0
  9  2  1  0  0  0  0
 10  5  1  0  0  0  0
 12 11  1  0  0  0  0
 12 17  1  0  0  0  0
 13 18  1  0  0  0  0
 14 16  1  0  0  0  0
 15 13  2  0  0  0  0
 15 17  1  0  0  0  0
 17 14  2  0  0  0  0
 18 16  2  0  0  0  0
 20 19  1  0  0  0  0
 20 13  1  0  0  0  0
 22 20  1  0  0  0  0
 23 22  1  0  0  0  0
 24 25  1  0  0  0  0
 25 21  1  0  0  0  0
 25 22  2  0  0  0  0
 26 27  1  0  0  0  0
 27 30  1  0  0  0  0
 27 28  1  0  0  0  0
 28 29  2  0  0  0  0
 29 32  1  0  0  0  0
 30 31  1  0  0  0  0
 31 32  1  0  0  0  0
M  END
>  <MODEL>
2

>  <REMARK>
 VINA RESULT:      -8.4      3.255      7.318
  Name = 
  6 active torsions:
  status: ('A' for Active; 'I' for Inactive)
    1  A    between atoms: C_1  and  N_27
    2  A    between atoms: C_2  and  C_23
    3  A    between atoms: C_8  and  N_30
    4  A    between atoms: C_9  and  C_23
    5  A    between atoms: C_12  and  N_30
    6  A    between atoms: C_17  and  N_27
                            x       y       z     vdW  Elec       q    Type
                         _______ _______ _______ _____ _____    ______ ____

>  <TORSDO>
F 6

$$$$
=
 OpenBabel10232408153D

 32 35  0  0  1  0  0  0  0  0999 V2000
  187.7690  178.9900  147.7090 S   0  0  0  0  0  1  0  0  0  0  0  0
  188.1020  177.7080  144.1460 C   0  0  1  0  0  3  0  0  0  0  0  0
  186.6510  177.3190  144.3560 C   0  0  2  0  0  3  0  0  0  0  0  0
  187.6940  177.5260  146.5990 C   0  0  1  0  0  3  0  0  0  0  0  0
  185.6220  178.2710  143.7500 C   0  0  2  0  0  3  0  0  0  0  0  0
  184.8570  178.3510  147.3440 F   0  0  0  0  0  0  0  0  0  0  0  0
  186.4450  177.4920  145.7900 C   0  0  1  0  0  3  0  0  0  0  0  0
  185.2710  178.0180  146.0800 C   0  0  2  0  0  3  0  0  0  0  0  0
  188.7820  177.6760  145.5380 C   0  0  0  0  0  2  0  0  0  0  0  0
  184.5800  178.4940  144.8560 C   0  0  0  0  0  2  0  0  0  0  0  0
  188.2300  175.5080  143.1250 O   0  0  0  0  0  1  0  0  0  0  0  0
  188.7690  176.7360  143.2560 N   0  0  0  0  0  0  0  0  0  0  0  0
  190.8890  177.2850  140.2230 C   0  0  0  0  0  0  0  0  0  0  0  0
  191.1860  177.1850  143.0130 C   0  0  0  0  0  3  0  0  0  0  0  0
  189.7880  177.0870  141.0600 C   0  0  0  0  0  3  0  0  0  0  0  0
  192.3030  177.3710  142.1930 C   0  0  0  0  0  3  0  0  0  0  0  0
  189.9150  177.0790  142.4530 C   0  0  0  0  0  0  0  0  0  0  0  0
  192.1610  177.4360  140.8080 C   0  0  0  0  0  3  0  0  0  0  0  0
  189.3450  177.4290  138.2490 C   0  0  0  0  0  1  0  0  0  0  0  0
  190.7750  177.2120  138.7130 C   0  0  2  0  0  3  0  0  0  0  0  0
  193.4790  176.9140  137.8320 O   0  0  0  0  0  1  0  0  0  0  0  0
  191.3150  175.9360  138.1110 C   0  0  0  0  0  0  0  0  0  0  0  0
  190.4730  174.7620  138.0960 N   0  0  0  0  0  1  0  0  0  0  0  0
  193.1110  174.6450  137.0060 C   0  0  0  0  0  1  0  0  0  0  0  0
  192.5860  175.8700  137.6570 C   0  0  0  0  0  0  0  0  0  0  0  0
  184.9920  177.6640  142.5650 N   0  0  0  0  0  2  0  0  0  0  0  0
  184.3800  178.6330  141.6510 C   0  0  1  0  0  3  0  0  0  0  0  0
  185.2820  179.1620  140.5680 C   0  0  0  0  0  3  0  0  0  0  0  0
  184.7830  179.7390  139.5390 N   0  0  0  0  0  0  0  0  0  0  0  0
  183.0020  178.2490  141.1360 C   0  0  0  0  0  2  0  0  0  0  0  0
  182.4340  179.4400  140.3940 C   0  0  0  0  0  2  0  0  0  0  0  0
  183.3490  179.8100  139.2210 C   0  0  0  0  0  2  0  0  0  0  0  0
  2 12  1  6  0  0  0
  2  3  1  0  0  0  0
  2  9  1  0  0  0  0
  3  7  1  0  0  0  0
  4  1  1  0  0  0  0
  5  3  1  0  0  0  0
  5 10  1  0  0  0  0
  7  8  1  0  0  0  0
  7  4  1  0  0  0  0
  8  6  1  0  0  0  0
  9  4  1  0  0  0  0
 10  8  1  0  0  0  0
 11 12  1  0  0  0  0
 13 18  2  0  0  0  0
 13 15  1  0  0  0  0
 15 17  2  0  0  0  0
 16 14  2  0  0  0  0
 17 14  1  0  0  0  0
 17 12  1  0  0  0  0
 18 16  1  0  0  0  0
 19 20  1  0  0  0  0
 20 13  1  0  0  0  0
 22 20  1  0  0  0  0
 23 22  1  0  0  0  0
 24 25  1  0  0  0  0
 25 21  1  0  0  0  0
 25 22  2  0  0  0  0
 26  5  1  0  0  0  0
 27 26  1  0  0  0  0
 28 27  1  0  0  0  0
 29 28  2  0  0  0  0
 30 27  1  0  0  0  0
 31 30  1  0  0  0  0
 32 29  1  0  0  0  0
 32 31  1  0  0  0  0
M  END
>  <MODEL>
3

>  <REMARK>
 VINA RESULT:      -8.0      1.855      2.554
  Name = 
  6 active torsions:
  status: ('A' for Active; 'I' for Inactive)
    1  A    between atoms: C_1  and  N_27
    2  A    between atoms: C_2  and  C_23
    3  A    between atoms: C_8  and  N_30
    4  A    between atoms: C_9  and  C_23
    5  A    between atoms: C_12  and  N_30
    6  A    between atoms: C_17  and  N_27
                            x       y       z     vdW  Elec       q    Type
                         _______ _______ _______ _____ _____    ______ ____

>  <TORSDO>
F 6

$$$$
=
 OpenBabel10232408153D

 32 35  0  0  1  0  0  0  0  0999 V2000
  191.2690  175.7690  138.4390 S   0  0  0  0  0  1  0  0  0  0  0  0
  190.1510  177.3420  141.7140 C   0  0  1  0  0  3  0  0  0  0  0  0
  189.3790  178.2600  140.7860 C   0  0  2  0  0  3  0  0  0  0  0  0
  191.2500  177.2880  139.4770 C   0  0  1  0  0  3  0  0  0  0  0  0
  187.8970  177.9310  140.6200 C   0  0  2  0  0  3  0  0  0  0  0  0
  189.2370  177.6100  137.2130 F   0  0  0  0  0  0  0  0  0  0  0  0
  189.9240  177.9640  139.4650 C   0  0  1  0  0  3  0  0  0  0  0  0
  189.0030  177.9360  138.5240 C   0  0  2  0  0  3  0  0  0  0  0  0
  191.4050  176.8680  140.9380 C   0  0  0  0  0  2  0  0  0  0  0  0
  187.6390  177.9900  139.1070 C   0  0  0  0  0  2  0  0  0  0  0  0
  191.0430  179.3320  142.7830 O   0  0  0  0  0  1  0  0  0  0  0  0
  190.5760  178.0760  142.9240 N   0  0  0  0  0  0  0  0  0  0  0  0
  189.2020  177.5680  146.3660 C   0  0  0  0  0  0  0  0  0  0  0  0
  191.4370  176.7950  144.8520 C   0  0  0  0  0  3  0  0  0  0  0  0
  189.3380  177.9520  145.0290 C   0  0  0  0  0  3  0  0  0  0  0  0
  191.3270  176.4100  146.1920 C   0  0  0  0  0  3  0  0  0  0  0  0
  190.4230  177.5370  144.2510 C   0  0  0  0  0  0  0  0  0  0  0  0
  190.2140  176.7790  146.9460 C   0  0  0  0  0  3  0  0  0  0  0  0
  188.0990  177.4450  148.6180 C   0  0  0  0  0  1  0  0  0  0  0  0
  188.0740  178.0800  147.2390 C   0  0  2  0  0  3  0  0  0  0  0  0
  185.9460  179.9440  147.6600 O   0  0  0  0  0  1  0  0  0  0  0  0
  186.6990  177.9210  146.6330 C   0  0  0  0  0  0  0  0  0  0  0  0
  186.4740  176.8520  145.6870 N   0  0  0  0  0  1  0  0  0  0  0  0
  184.3410  178.6220  146.3770 C   0  0  0  0  0  1  0  0  0  0  0  0
  185.7130  178.8010  146.9140 C   0  0  0  0  0  0  0  0  0  0  0  0
  187.0660  178.9240  141.3220 N   0  0  0  0  0  2  0  0  0  0  0  0
  185.6580  178.5370  141.4570 C   0  0  1  0  0  3  0  0  0  0  0  0
  185.0900  178.6300  142.8470 C   0  0  0  0  0  3  0  0  0  0  0  0
  183.8220  178.6410  143.0250 N   0  0  0  0  0  0  0  0  0  0  0  0
  184.7300  179.1140  140.4000 C   0  0  0  0  0  2  0  0  0  0  0  0
  183.3790  178.4490  140.5540 C   0  0  0  0  0  2  0  0  0  0  0  0
  182.8170  178.7250  141.9550 C   0  0  0  0  0  2  0  0  0  0  0  0
  1  4  1  0  0  0  0
  2 12  1  1  0  0  0
  3  2  1  0  0  0  0
  4  9  1  0  0  0  0
  5  3  1  0  0  0  0
  5 26  1  0  0  0  0
  6  8  1  0  0  0  0
  7  4  1  0  0  0  0
  7  3  1  0  0  0  0
  8 10  1  0  0  0  0
  8  7  1  0  0  0  0
  9  2  1  0  0  0  0
 10  5  1  0  0  0  0
 11 12  1  0  0  0  0
 12 17  1  0  0  0  0
 13 18  1  0  0  0  0
 13 20  1  0  0  0  0
 14 16  1  0  0  0  0
 15 13  2  0  0  0  0
 16 18  2  0  0  0  0
 17 14  2  0  0  0  0
 17 15  1  0  0  0  0
 20 19  1  0  0  0  0
 22 25  2  0  0  0  0
 22 20  1  0  0  0  0
 23 22  1  0  0  0  0
 24 25  1  0  0  0  0
 25 21  1  0  0  0  0
 26 27  1  0  0  0  0
 27 28  1  0  0  0  0
 28 29  2  0  0  0  0
 30 31  1  0  0  0  0
 30 27  1  0  0  0  0
 31 32  1  0  0  0  0
 32 29  1  0  0  0  0
M  END
>  <MODEL>
4

>  <REMARK>
 VINA RESULT:      -8.0      3.501      6.667
  Name = 
  6 active torsions:
  status: ('A' for Active; 'I' for Inactive)
    1  A    between atoms: C_1  and  N_27
    2  A    between atoms: C_2  and  C_23
    3  A    between atoms: C_8  and  N_30
    4  A    between atoms: C_9  and  C_23
    5  A    between atoms: C_12  and  N_30
    6  A    between atoms: C_17  and  N_27
                            x       y       z     vdW  Elec       q    Type
                         _______ _______ _______ _____ _____    ______ ____

>  <TORSDO>
F 6

$$$$
=
 OpenBabel10232408153D

 32 35  0  0  1  0  0  0  0  0999 V2000
  190.9570  176.1480  138.5500 S   0  0  0  0  0  1  0  0  0  0  0  0
  187.9130  177.6280  140.2790 C   0  0  1  0  0  3  0  0  0  0  0  0
  187.7780  178.3830  138.9710 C   0  0  2  0  0  3  0  0  0  0  0  0
  190.1480  177.6760  139.1750 C   0  0  1  0  0  3  0  0  0  0  0  0
  186.7510  177.8200  137.9910 C   0  0  2  0  0  3  0  0  0  0  0  0
  189.9180  177.6060  136.1380 F   0  0  0  0  0  0  0  0  0  0  0  0
  189.0430  178.1350  138.2890 C   0  0  1  0  0  3  0  0  0  0  0  0
  188.8990  177.9320  136.9950 C   0  0  2  0  0  3  0  0  0  0  0  0
  189.4210  177.3330  140.4740 C   0  0  0  0  0  2  0  0  0  0  0  0
  187.4670  177.7890  136.6320 C   0  0  0  0  0  2  0  0  0  0  0  0
  186.6120  179.4930  141.1310 O   0  0  0  0  0  1  0  0  0  0  0  0
  187.4300  178.4580  141.4020 N   0  0  0  0  0  0  0  0  0  0  0  0
  189.4010  177.9480  144.5410 C   0  0  0  0  0  0  0  0  0  0  0  0
  186.8130  177.4500  143.5710 C   0  0  0  0  0  3  0  0  0  0  0  0
  189.0200  178.3480  143.2570 C   0  0  0  0  0  3  0  0  0  0  0  0
  187.1770  177.0290  144.8540 C   0  0  0  0  0  3  0  0  0  0  0  0
  187.7220  178.1460  142.7780 C   0  0  0  0  0  0  0  0  0  0  0  0
  188.4550  177.2850  145.3470 C   0  0  0  0  0  3  0  0  0  0  0  0
  191.7010  178.8140  144.0300 C   0  0  0  0  0  1  0  0  0  0  0  0
  190.8260  178.0870  145.0370 C   0  0  2  0  0  3  0  0  0  0  0  0
  191.3200  177.3240  147.7480 O   0  0  0  0  0  1  0  0  0  0  0  0
  191.4780  176.7810  145.4260 C   0  0  0  0  0  0  0  0  0  0  0  0
  191.7500  175.8050  144.3950 N   0  0  0  0  0  1  0  0  0  0  0  0
  192.4390  175.2480  147.1110 C   0  0  0  0  0  1  0  0  0  0  0  0
  191.7410  176.4980  146.7200 C   0  0  0  0  0  0  0  0  0  0  0  0
  185.5650  178.6910  137.9280 N   0  0  0  0  0  2  0  0  0  0  0  0
  184.4720  178.2780  138.8130 C   0  0  1  0  0  3  0  0  0  0  0  0
  183.5760  179.3860  139.2980 C   0  0  0  0  0  3  0  0  0  0  0  0
  182.4240  179.1150  139.7880 N   0  0  0  0  0  0  0  0  0  0  0  0
  183.6980  177.0540  138.3500 C   0  0  0  0  0  2  0  0  0  0  0  0
  182.7670  176.6410  139.4700 C   0  0  0  0  0  2  0  0  0  0  0  0
  181.7970  177.7850  139.7910 C   0  0  0  0  0  2  0  0  0  0  0  0
  1  4  1  0  0  0  0
  2  9  1  0  0  0  0
  2 12  1  1  0  0  0
  3  2  1  0  0  0  0
  4  9  1  0  0  0  0
  5  3  1  0  0  0  0
  6  8  1  0  0  0  0
  7  3  1  0  0  0  0
  7  4  1  0  0  0  0
  8  7  1  0  0  0  0
 10  8  1  0  0  0  0
 10  5  1  0  0  0  0
 11 12  1  0  0  0  0
 12 17  1  0  0  0  0
 13 20  1  0  0  0  0
 13 18  1  0  0  0  0
 14 16  1  0  0  0  0
 15 13  2  0  0  0  0
 16 18  2  0  0  0  0
 17 15  1  0  0  0  0
 17 14  2  0  0  0  0
 19 20  1  0  0  0  0
 20 22  1  0  0  0  0
 22 25  2  0  0  0  0
 23 22  1  0  0  0  0
 25 24  1  0  0  0  0
 25 21  1  0  0  0  0
 26  5  1  0  0  0  0
 26 27  1  0  0  0  0
 27 28  1  0  0  0  0
 28 29  2  0  0  0  0
 29 32  1  0  0  0  0
 30 27  1  0  0  0  0
 30 31  1  0  0  0  0
 31 32  1  0  0  0  0
M  END
>  <MODEL>
5

>  <REMARK>
 VINA RESULT:      -8.0      3.612      6.496
  Name = 
  6 active torsions:
  status: ('A' for Active; 'I' for Inactive)
    1  A    between atoms: C_1  and  N_27
    2  A    between atoms: C_2  and  C_23
    3  A    between atoms: C_8  and  N_30
    4  A    between atoms: C_9  and  C_23
    5  A    between atoms: C_12  and  N_30
    6  A    between atoms: C_17  and  N_27
                            x       y       z     vdW  Elec       q    Type
                         _______ _______ _______ _____ _____    ______ ____

>  <TORSDO>
F 6

$$$$
=
 OpenBabel10232408153D

 32 35  0  0  1  0  0  0  0  0999 V2000
  189.3860  176.5750  146.8570 S   0  0  0  0  0  1  0  0  0  0  0  0
  188.0150  177.4860  143.4310 C   0  0  1  0  0  3  0  0  0  0  0  0
  189.4140  178.0360  143.2310 C   0  0  2  0  0  3  0  0  0  0  0  0
  189.0030  177.9320  145.6760 C   0  0  1  0  0  3  0  0  0  0  0  0
  190.3640  177.1400  142.4380 C   0  0  2  0  0  3  0  0  0  0  0  0
  192.0140  177.4660  145.7060 F   0  0  0  0  0  0  0  0  0  0  0  0
  189.9950  178.0160  144.5690 C   0  0  1  0  0  3  0  0  0  0  0  0
  191.2580  177.6390  144.5760 C   0  0  2  0  0  3  0  0  0  0  0  0
  187.7090  177.5770  144.9470 C   0  0  0  0  0  2  0  0  0  0  0  0
  191.6710  177.1240  143.2470 C   0  0  0  0  0  2  0  0  0  0  0  0
  187.4320  178.9090  141.5520 O   0  0  0  0  0  1  0  0  0  0  0  0
  187.0330  178.3010  142.6860 N   0  0  0  0  0  0  0  0  0  0  0  0
  183.3210  178.6540  142.3800 C   0  0  0  0  0  0  0  0  0  0  0  0
  185.2820  178.6570  144.3910 C   0  0  0  0  0  3  0  0  0  0  0  0
  184.6690  178.4380  142.0770 C   0  0  0  0  0  3  0  0  0  0  0  0
  183.9420  178.8890  144.7150 C   0  0  0  0  0  3  0  0  0  0  0  0
  185.6490  178.3920  143.0730 C   0  0  0  0  0  0  0  0  0  0  0  0
  182.9610  178.8750  143.7240 C   0  0  0  0  0  3  0  0  0  0  0  0
  180.9000  178.3460  141.7950 C   0  0  0  0  0  1  0  0  0  0  0  0
  182.2660  178.7880  141.3010 C   0  0  2  0  0  3  0  0  0  0  0  0
  183.5780  180.0410  139.0900 O   0  0  0  0  0  1  0  0  0  0  0  0
  182.5980  178.0670  140.0150 C   0  0  0  0  0  0  0  0  0  0  0  0
  182.3670  176.6430  139.9370 N   0  0  0  0  0  1  0  0  0  0  0  0
  183.4390  178.0440  137.6900 C   0  0  0  0  0  1  0  0  0  0  0  0
  183.1660  178.7240  138.9800 C   0  0  0  0  0  0  0  0  0  0  0  0
  190.5980  177.6960  141.0950 N   0  0  0  0  0  2  0  0  0  0  0  0
  190.2640  176.7790  140.0010 C   0  0  1  0  0  3  0  0  0  0  0  0
  188.9440  177.0310  139.3240 C   0  0  0  0  0  3  0  0  0  0  0  0
  188.7030  176.5220  138.1730 N   0  0  0  0  0  0  0  0  0  0  0  0
  191.3910  176.5150  139.0170 C   0  0  0  0  0  2  0  0  0  0  0  0
  190.9540  175.3960  138.0960 C   0  0  0  0  0  2  0  0  0  0  0  0
  189.6830  175.8070  137.3420 C   0  0  0  0  0  2  0  0  0  0  0  0
  2 12  1  6  0  0  0
  2  9  1  0  0  0  0
  3  2  1  0  0  0  0
  3  7  1  0  0  0  0
  4  1  1  0  0  0  0
  5  3  1  0  0  0  0
  5 10  1  0  0  0  0
  7  8  1  0  0  0  0
  7  4  1  0  0  0  0
  8  6  1  0  0  0  0
  9  4  1  0  0  0  0
 10  8  1  0  0  0  0
 11 12  1  0  0  0  0
 12 17  1  0  0  0  0
 13 18  1  0  0  0  0
 14 16  1  0  0  0  0
 15 13  2  0  0  0  0
 15 17  1  0  0  0  0
 17 14  2  0  0  0  0
 18 16  2  0  0  0  0
 20 19  1  0  0  0  0
 20 13  1  0  0  0  0
 22 20  1  0  0  0  0
 23 22  1  0  0  0  0
 24 25  1  0  0  0  0
 25 21  1  0  0  0  0
 25 22  2  0  0  0  0
 26  5  1  0  0  0  0
 27 26  1  0  0  0  0
 28 27  1  0  0  0  0
 29 28  2  0  0  0  0
 30 27  1  0  0  0  0
 31 30  1  0  0  0  0
 32 31  1  0  0  0  0
 32 29  1  0  0  0  0
M  END
>  <MODEL>
6

>  <REMARK>
 VINA RESULT:      -7.9      2.596      6.396
  Name = 
  6 active torsions:
  status: ('A' for Active; 'I' for Inactive)
    1  A    between atoms: C_1  and  N_27
    2  A    between atoms: C_2  and  C_23
    3  A    between atoms: C_8  and  N_30
    4  A    between atoms: C_9  and  C_23
    5  A    between atoms: C_12  and  N_30
    6  A    between atoms: C_17  and  N_27
                            x       y       z     vdW  Elec       q    Type
                         _______ _______ _______ _____ _____    ______ ____

>  <TORSDO>
F 6

$$$$
=
 OpenBabel10232408153D

 32 35  0  0  1  0  0  0  0  0999 V2000
  190.3730  177.2580  139.0010 S   0  0  0  0  0  1  0  0  0  0  0  0
  186.7350  177.9900  139.8280 C   0  0  1  0  0  3  0  0  0  0  0  0
  186.6540  178.2680  138.3390 C   0  0  2  0  0  3  0  0  0  0  0  0
  189.0310  178.5160  139.0090 C   0  0  1  0  0  3  0  0  0  0  0  0
  186.0700  177.1390  137.4920 C   0  0  2  0  0  3  0  0  0  0  0  0
  189.4680  177.5520  136.1520 F   0  0  0  0  0  0  0  0  0  0  0  0
  188.0490  178.3030  137.9110 C   0  0  1  0  0  3  0  0  0  0  0  0
  188.2430  177.7200  136.7450 C   0  0  2  0  0  3  0  0  0  0  0  0
  188.1880  178.3050  140.2650 C   0  0  0  0  0  2  0  0  0  0  0  0
  187.0280  176.9940  136.3000 C   0  0  0  0  0  2  0  0  0  0  0  0
  185.0360  179.7250  139.8610 O   0  0  0  0  0  1  0  0  0  0  0  0
  185.8040  178.8700  140.5640 N   0  0  0  0  0  0  0  0  0  0  0  0
  186.4270  177.9310  144.1320 C   0  0  0  0  0  0  0  0  0  0  0  0
  184.3940  179.0930  142.5800 C   0  0  0  0  0  3  0  0  0  0  0  0
  186.6030  178.1630  142.7650 C   0  0  0  0  0  3  0  0  0  0  0  0
  184.1920  178.8580  143.9440 C   0  0  0  0  0  3  0  0  0  0  0  0
  185.6170  178.7810  141.9900 C   0  0  0  0  0  0  0  0  0  0  0  0
  185.2010  178.2940  144.7230 C   0  0  0  0  0  3  0  0  0  0  0  0
  187.4010  177.5990  146.4210 C   0  0  0  0  0  1  0  0  0  0  0  0
  187.4550  177.1880  144.9600 C   0  0  2  0  0  3  0  0  0  0  0  0
  188.5720  175.4500  142.9830 O   0  0  0  0  0  1  0  0  0  0  0  0
  188.8720  177.3130  144.4490 C   0  0  0  0  0  0  0  0  0  0  0  0
  189.6670  178.4420  144.8760 N   0  0  0  0  0  1  0  0  0  0  0  0
  190.7740  176.5010  143.0960 C   0  0  0  0  0  1  0  0  0  0  0  0
  189.3660  176.4270  143.5570 C   0  0  0  0  0  0  0  0  0  0  0  0
  184.7180  177.4890  137.0250 N   0  0  0  0  0  2  0  0  0  0  0  0
  183.6700  177.2970  138.0320 C   0  0  1  0  0  3  0  0  0  0  0  0
  182.4650  178.1880  137.8920 C   0  0  0  0  0  3  0  0  0  0  0  0
  181.3720  177.8910  138.4910 N   0  0  0  0  0  0  0  0  0  0  0  0
  183.3030  175.8480  138.3090 C   0  0  0  0  0  2  0  0  0  0  0  0
  182.3810  175.8220  139.5090 C   0  0  0  0  0  2  0  0  0  0  0  0
  181.1160  176.6370  139.2140 C   0  0  0  0  0  2  0  0  0  0  0  0
  1  4  1  0  0  0  0
  2  9  1  0  0  0  0
  2 12  1  1  0  0  0
  3  2  1  0  0  0  0
  4  9  1  0  0  0  0
  5  3  1  0  0  0  0
  6  8  1  0  0  0  0
  7  3  1  0  0  0  0
  7  4  1  0  0  0  0
  8  7  1  0  0  0  0
 10  8  1  0  0  0  0
 10  5  1  0  0  0  0
 11 12  1  0  0  0  0
 12 17  1  0  0  0  0
 13 18  1  0  0  0  0
 13 20  1  0  0  0  0
 14 16  1  0  0  0  0
 15 13  2  0  0  0  0
 16 18  2  0  0  0  0
 17 14  2  0  0  0  0
 17 15  1  0  0  0  0
 20 19  1  0  0  0  0
 21 25  1  0  0  0  0
 22 23  1  0  0  0  0
 22 20  1  0  0  0  0
 24 25  1  0  0  0  0
 25 22  2  0  0  0  0
 26  5  1  0  0  0  0
 26 27  1  0  0  0  0
 27 30  1  0  0  0  0
 28 27  1  0  0  0  0
 28 29  2  0  0  0  0
 29 32  1  0  0  0  0
 30 31  1  0  0  0  0
 32 31  1  0  0  0  0
M  END
>  <MODEL>
7

>  <REMARK>
 VINA RESULT:      -7.9      3.235      6.316
  Name = 
  6 active torsions:
  status: ('A' for Active; 'I' for Inactive)
    1  A    between atoms: C_1  and  N_27
    2  A    between atoms: C_2  and  C_23
    3  A    between atoms: C_8  and  N_30
    4  A    between atoms: C_9  and  C_23
    5  A    between atoms: C_12  and  N_30
    6  A    between atoms: C_17  and  N_27
                            x       y       z     vdW  Elec       q    Type
                         _______ _______ _______ _____ _____    ______ ____

>  <TORSDO>
F 6

$$$$
=
 OpenBabel10232408153D

 32 35  0  0  1  0  0  0  0  0999 V2000
  181.7510  178.4130  144.0960 S   0  0  0  0  0  1  0  0  0  0  0  0
  184.0840  178.3300  141.0960 C   0  0  1  0  0  3  0  0  0  0  0  0
  185.0760  178.8930  142.0950 C   0  0  2  0  0  3  0  0  0  0  0  0
  182.8010  179.3960  142.9480 C   0  0  1  0  0  3  0  0  0  0  0  0
  186.0560  177.8810  142.6860 C   0  0  2  0  0  3  0  0  0  0  0  0
  184.2360  179.1340  145.6230 F   0  0  0  0  0  0  0  0  0  0  0  0
  184.2520  179.2510  143.2450 C   0  0  1  0  0  3  0  0  0  0  0  0
  184.8240  178.9650  144.3970 C   0  0  2  0  0  3  0  0  0  0  0  0
  182.6770  178.7890  141.5520 C   0  0  0  0  0  2  0  0  0  0  0  0
  186.0500  178.1510  144.1990 C   0  0  0  0  0  2  0  0  0  0  0  0
  184.1530  180.1800  139.5230 O   0  0  0  0  0  1  0  0  0  0  0  0
  184.3570  178.8670  139.7460 N   0  0  0  0  0  0  0  0  0  0  0  0
  186.8670  177.5220  137.3190 C   0  0  0  0  0  0  0  0  0  0  0  0
  184.1070  177.3520  137.8110 C   0  0  0  0  0  3  0  0  0  0  0  0
  186.2850  178.1760  138.4090 C   0  0  0  0  0  3  0  0  0  0  0  0
  184.6660  176.7010  136.7080 C   0  0  0  0  0  3  0  0  0  0  0  0
  184.9200  178.0630  138.6910 C   0  0  0  0  0  0  0  0  0  0  0  0
  186.0370  176.7690  136.4650 C   0  0  0  0  0  3  0  0  0  0  0  0
  188.5960  177.3380  135.5090 C   0  0  0  0  0  1  0  0  0  0  0  0
  188.3270  177.7050  136.9580 C   0  0  2  0  0  3  0  0  0  0  0  0
  189.3560  178.7890  139.3960 O   0  0  0  0  0  1  0  0  0  0  0  0
  189.2870  176.9610  137.8570 C   0  0  0  0  0  0  0  0  0  0  0  0
  189.6040  175.5860  137.5490 N   0  0  0  0  0  1  0  0  0  0  0  0
  190.7790  176.8510  139.8250 C   0  0  0  0  0  1  0  0  0  0  0  0
  189.7880  177.5450  138.9680 C   0  0  0  0  0  0  0  0  0  0  0  0
  187.4060  178.0870  142.1340 N   0  0  0  0  0  2  0  0  0  0  0  0
  188.4870  177.6230  143.0080 C   0  0  1  0  0  3  0  0  0  0  0  0
  188.8360  176.1630  142.8910 C   0  0  0  0  0  3  0  0  0  0  0  0
  189.9530  175.7300  143.3450 N   0  0  0  0  0  0  0  0  0  0  0  0
  189.7130  178.5210  143.0470 C   0  0  0  0  0  2  0  0  0  0  0  0
  190.6240  178.0200  144.1470 C   0  0  0  0  0  2  0  0  0  0  0  0
  191.0420  176.5730  143.8600 C   0  0  0  0  0  2  0  0  0  0  0  0
  2 12  1  6  0  0  0
  2  9  1  0  0  0  0
  2  3  1  0  0  0  0
  3  5  1  0  0  0  0
  3  7  1  0  0  0  0
  4  7  1  0  0  0  0
  4  1  1  0  0  0  0
  5 10  1  0  0  0  0
  7  8  1  0  0  0  0
  8  6  1  0  0  0  0
  9  4  1  0  0  0  0
 10  8  1  0  0  0  0
 11 12  1  0  0  0  0
 13 15  1  0  0  0  0
 14 17  1  0  0  0  0
 15 17  2  0  0  0  0
 16 14  2  0  0  0  0
 17 12  1  0  0  0  0
 18 16  1  0  0  0  0
 18 13  2  0  0  0  0
 19 20  1  0  0  0  0
 20 13  1  0  0  0  0
 20 22  1  0  0  0  0
 22 25  2  0  0  0  0
 23 22  1  0  0  0  0
 25 21  1  0  0  0  0
 25 24  1  0  0  0  0
 26  5  1  0  0  0  0
 26 27  1  0  0  0  0
 27 30  1  0  0  0  0
 28 27  1  0  0  0  0
 28 29  2  0  0  0  0
 29 32  1  0  0  0  0
 30 31  1  0  0  0  0
 32 31  1  0  0  0  0
M  END
>  <MODEL>
8

>  <REMARK>
 VINA RESULT:      -7.7      2.175      5.453
  Name = 
  6 active torsions:
  status: ('A' for Active; 'I' for Inactive)
    1  A    between atoms: C_1  and  N_27
    2  A    between atoms: C_2  and  C_23
    3  A    between atoms: C_8  and  N_30
    4  A    between atoms: C_9  and  C_23
    5  A    between atoms: C_12  and  N_30
    6  A    between atoms: C_17  and  N_27
                            x       y       z     vdW  Elec       q    Type
                         _______ _______ _______ _____ _____    ______ ____

>  <TORSDO>
F 6

$$$$
=
 OpenBabel10232408153D

 32 35  0  0  1  0  0  0  0  0999 V2000
  188.7220  177.8370  145.5370 S   0  0  0  0  0  1  0  0  0  0  0  0
  189.0120  177.9750  141.7500 C   0  0  1  0  0  3  0  0  0  0  0  0
  187.5300  177.6620  141.8180 C   0  0  2  0  0  3  0  0  0  0  0  0
  188.5430  176.9140  143.9560 C   0  0  1  0  0  3  0  0  0  0  0  0
  186.5980  178.8580  141.6320 C   0  0  2  0  0  3  0  0  0  0  0  0
  185.7730  177.6380  145.0000 F   0  0  0  0  0  0  0  0  0  0  0  0
  187.3120  177.2980  143.2140 C   0  0  1  0  0  3  0  0  0  0  0  0
  186.1820  177.7730  143.6980 C   0  0  2  0  0  3  0  0  0  0  0  0
  189.6610  177.3600  143.0150 C   0  0  0  0  0  2  0  0  0  0  0  0
  185.5570  178.7350  142.7560 C   0  0  0  0  0  2  0  0  0  0  0  0
  190.6150  176.4750  140.7110 O   0  0  0  0  0  1  0  0  0  0  0  0
  189.6110  177.3590  140.5480 N   0  0  0  0  0  0  0  0  0  0  0  0
  188.1420  176.6560  137.1800 C   0  0  0  0  0  0  0  0  0  0  0  0
  189.3570  178.7860  138.5480 C   0  0  0  0  0  3  0  0  0  0  0  0
  188.5370  176.5270  138.5140 C   0  0  0  0  0  3  0  0  0  0  0  0
  188.9820  178.9330  137.2090 C   0  0  0  0  0  3  0  0  0  0  0  0
  189.1020  177.5930  139.2210 C   0  0  0  0  0  0  0  0  0  0  0  0
  188.3650  177.8840  136.5280 C   0  0  0  0  0  3  0  0  0  0  0  0
  187.4900  175.8160  134.9060 C   0  0  0  0  0  1  0  0  0  0  0  0
  187.6060  175.4840  136.3830 C   0  0  2  0  0  3  0  0  0  0  0  0
  187.2690  172.8120  137.3460 O   0  0  0  0  0  1  0  0  0  0  0  0
  186.2880  174.9420  136.8860 C   0  0  0  0  0  0  0  0  0  0  0  0
  185.1680  175.8460  137.0150 N   0  0  0  0  0  1  0  0  0  0  0  0
  184.8700  173.0920  137.7090 C   0  0  0  0  0  1  0  0  0  0  0  0
  186.1720  173.6530  137.2740 C   0  0  0  0  0  0  0  0  0  0  0  0
  185.9410  178.8010  140.3150 N   0  0  0  0  0  2  0  0  0  0  0  0
  184.5010  179.0760  140.3530 C   0  0  1  0  0  3  0  0  0  0  0  0
  183.9700  179.9120  139.2210 C   0  0  0  0  0  3  0  0  0  0  0  0
  182.7140  179.9360  138.9720 N   0  0  0  0  0  0  0  0  0  0  0  0
  183.6260  177.8710  140.6580 C   0  0  0  0  0  2  0  0  0  0  0  0
  182.2120  178.3650  140.8750 C   0  0  0  0  0  2  0  0  0  0  0  0
  181.7080  179.0760  139.6120 C   0  0  0  0  0  2  0  0  0  0  0  0
  2 12  1  6  0  0  0
  2  3  1  0  0  0  0
  2  9  1  0  0  0  0
  3  7  1  0  0  0  0
  4  1  1  0  0  0  0
  5  3  1  0  0  0  0
  5 10  1  0  0  0  0
  7  8  1  0  0  0  0
  7  4  1  0  0  0  0
  8  6  1  0  0  0  0
  9  4  1  0  0  0  0
 10  8  1  0  0  0  0
 12 11  1  0  0  0  0
 13 15  1  0  0  0  0
 14 17  1  0  0  0  0
 15 17  2  0  0  0  0
 16 14  2  0  0  0  0
 17 12  1  0  0  0  0
 18 13  2  0  0  0  0
 18 16  1  0  0  0  0
 19 20  1  0  0  0  0
 20 22  1  0  0  0  0
 20 13  1  0  0  0  0
 22 23  1  0  0  0  0
 22 25  2  0  0  0  0
 25 21  1  0  0  0  0
 25 24  1  0  0  0  0
 26 27  1  0  0  0  0
 26  5  1  0  0  0  0
 27 30  1  0  0  0  0
 28 27  1  0  0  0  0
 29 28  2  0  0  0  0
 29 32  1  0  0  0  0
 30 31  1  0  0  0  0
 32 31  1  0  0  0  0
M  END
>  <MODEL>
9

>  <REMARK>
 VINA RESULT:      -7.6      2.158      3.080
  Name = 
  6 active torsions:
  status: ('A' for Active; 'I' for Inactive)
    1  A    between atoms: C_1  and  N_27
    2  A    between atoms: C_2  and  C_23
    3  A    between atoms: C_8  and  N_30
    4  A    between atoms: C_9  and  C_23
    5  A    between atoms: C_12  and  N_30
    6  A    between atoms: C_17  and  N_27
                            x       y       z     vdW  Elec       q    Type
                         _______ _______ _______ _____ _____    ______ ____

>  <TORSDO>
F 6

$$$$
