=
 OpenBabel10232411033D

 39 44  0  0  1  0  0  0  0  0999 V2000
  184.9750  178.4980  138.5490 C   0  0  0  0  0  3  0  0  0  0  0  0
  182.3980  178.8080  141.0490 C   0  0  0  0  0  3  0  0  0  0  0  0
  184.7800  178.6080  140.7100 C   0  0  0  0  0  0  0  0  0  0  0  0
  183.6110  178.6080  138.8300 C   0  0  0  0  0  0  0  0  0  0  0  0
  183.9410  178.7870  142.9490 C   0  0  0  0  0  0  0  0  0  0  0  0
  183.5060  178.6790  140.2110 C   0  0  0  0  0  0  0  0  0  0  0  0
  185.6690  178.4930  139.7090 N   0  0  0  0  0  0  0  0  0  0  0  0
  182.6290  178.8630  142.4340 C   0  0  0  0  0  3  0  0  0  0  0  0
  185.0400  178.6620  142.0800 C   0  0  0  0  0  3  0  0  0  0  0  0
  180.4820  178.7210  135.9400 C   0  0  0  0  0  3  0  0  0  0  0  0
  180.6430  179.7970  136.8160 C   0  0  0  0  0  3  0  0  0  0  0  0
  181.3180  177.6520  136.0140 N   0  0  0  0  0  0  0  0  0  0  0  0
  181.6680  179.7570  137.7610 C   0  0  0  0  0  3  0  0  0  0  0  0
  182.5240  178.6500  137.8280 C   0  0  0  0  0  0  0  0  0  0  0  0
  182.3230  177.5950  136.9280 C   0  0  0  0  0  3  0  0  0  0  0  0
  184.2080  178.8640  144.7140 S   0  0  0  0  0  0  0  0  0  0  0  0
  185.8470  178.0890  144.5810 C   0  0  0  0  0  2  0  0  0  0  0  0
  186.5890  178.2820  145.8190 N   0  0  0  0  0  2  0  0  0  0  0  0
  188.4060  177.5330  147.3090 C   0  0  0  0  0  3  0  0  0  0  0  0
  191.8990  176.2930  146.6460 C   0  0  0  0  0  1  0  0  0  0  0  0
  190.5260  176.8100  146.3750 C   0  0  0  0  0  0  0  0  0  0  0  0
  188.7340  177.5530  144.9170 C   0  0  0  0  0  3  0  0  0  0  0  0
  187.9180  177.7910  146.0240 C   0  0  0  0  0  0  0  0  0  0  0  0
  189.7020  177.0470  147.4800 C   0  0  0  0  0  3  0  0  0  0  0  0
  190.0410  177.0620  145.0670 C   0  0  0  0  0  0  0  0  0  0  0  0
  191.6500  177.8330  143.3030 O   0  0  0  0  0  1  0  0  0  0  0  0
  190.8150  175.7120  143.2670 O   0  0  0  0  0  0  0  0  0  0  0  0
  190.8470  176.8350  143.8410 C   0  0  0  0  0  0  0  0  0  0  0  0
  187.1190  178.4370  139.8280 C   0  0  0  0  0  2  0  0  0  0  0  0
  189.2020  177.9210  138.4330 C   0  0  2  0  0  3  0  0  0  0  0  0
  188.7440  179.2430  138.2610 O   0  0  0  0  0  0  0  0  0  0  0  0
  187.7470  178.2660  138.4470 C   0  0  2  0  0  3  0  0  0  0  0  0
  189.8650  177.7950  139.7990 C   0  0  0  0  0  2  0  0  0  0  0  0
  190.7960  176.5980  139.7990 C   0  0  0  0  0  2  0  0  0  0  0  0
  191.2590  176.3330  138.4460 N   0  0  0  0  0  0  0  0  0  0  0  0
  193.3260  175.4750  137.7140 N   0  0  0  0  0  2  0  0  0  0  0  0
  191.0830  174.9620  138.2100 N   0  0  0  0  0  2  0  0  0  0  0  0
  192.2540  174.5310  137.4660 C   0  0  0  0  0  2  0  0  0  0  0  0
  192.6940  176.5580  138.4420 C   0  0  0  0  0  2  0  0  0  0  0  0
  1  4  2  0  0  0  0
  1  7  1  0  0  0  0
  2  8  1  0  0  0  0
  3  9  2  0  0  0  0
  4  6  1  0  0  0  0
  5 16  1  0  0  0  0
  6  3  1  0  0  0  0
  6  2  2  0  0  0  0
  7 29  1  0  0  0  0
  7  3  1  0  0  0  0
  8  5  2  0  0  0  0
  9  5  1  0  0  0  0
 10 12  2  0  0  0  0
 10 11  1  0  0  0  0
 11 13  2  0  0  0  0
 12 15  1  0  0  0  0
 13 14  1  0  0  0  0
 14  4  1  0  0  0  0
 15 14  2  0  0  0  0
 17 16  1  0  0  0  0
 17 18  1  0  0  0  0
 18 23  1  0  0  0  0
 19 24  1  0  0  0  0
 21 20  1  0  0  0  0
 21 24  2  0  0  0  0
 22 25  2  0  0  0  0
 22 23  1  0  0  0  0
 23 19  2  0  0  0  0
 25 21  1  0  0  0  0
 26 28  1  0  0  0  0
 27 28  2  0  0  0  0
 28 25  1  0  0  0  0
 30 32  1  0  0  0  0
 30 33  1  1  0  0  0
 31 30  1  0  0  0  0
 31 32  1  0  0  0  0
 32 29  1  1  0  0  0
 34 33  1  0  0  0  0
 35 34  1  0  0  0  0
 36 39  1  0  0  0  0
 37 35  1  0  0  0  0
 38 36  1  0  0  0  0
 38 37  1  0  0  0  0
 39 35  1  0  0  0  0
M  END
>  <MODEL>
1

>  <REMARK>
 VINA RESULT:      -8.6      0.000      0.000
  Name = 
  11 active torsions:
  status: ('A' for Active; 'I' for Inactive)
    1  A    between atoms: N_1  and  C_11
    2  A    between atoms: N_2  and  C_6
    3  A    between atoms: N_2  and  C_26
    4  A    between atoms: C_6  and  S_16
    5  A    between atoms: C_9  and  C_33
    6  A    between atoms: C_11  and  C_28
    7  A    between atoms: C_12  and  S_16
    8  A    between atoms: C_15  and  C_28
    9  A    between atoms: C_18  and  N_19
   10  A    between atoms: C_18  and  C_39
   11  A    between atoms: C_31  and  C_34
                            x       y       z     vdW  Elec       q    Type
                         _______ _______ _______ _____ _____    ______ ____

>  <TORSDO>
F 11

$$$$
=
 OpenBabel10232411033D

 39 44  0  0  1  0  0  0  0  0999 V2000
  190.8180  176.5580  136.9860 C   0  0  0  0  0  3  0  0  0  0  0  0
  188.6040  177.4010  139.7020 C   0  0  0  0  0  3  0  0  0  0  0  0
  190.9010  176.9280  139.1260 C   0  0  0  0  0  0  0  0  0  0  0  0
  189.5130  176.8340  137.4030 C   0  0  0  0  0  0  0  0  0  0  0  0
  190.3610  177.4390  141.4050 C   0  0  0  0  0  0  0  0  0  0  0  0
  189.5860  177.0690  138.7670 C   0  0  0  0  0  0  0  0  0  0  0  0
  191.6470  176.6130  138.0540 N   0  0  0  0  0  0  0  0  0  0  0  0
  189.0070  177.5870  141.0350 C   0  0  0  0  0  3  0  0  0  0  0  0
  191.3300  177.1090  140.4410 C   0  0  0  0  0  3  0  0  0  0  0  0
  186.0730  176.9500  134.8910 C   0  0  0  0  0  3  0  0  0  0  0  0
  186.4020  175.7610  135.5450 C   0  0  0  0  0  3  0  0  0  0  0  0
  186.8470  178.0560  135.0580 N   0  0  0  0  0  0  0  0  0  0  0  0
  187.5290  175.7260  136.3670 C   0  0  0  0  0  3  0  0  0  0  0  0
  188.3190  176.8710  136.5310 C   0  0  0  0  0  0  0  0  0  0  0  0
  187.9480  178.0410  135.8550 C   0  0  0  0  0  3  0  0  0  0  0  0
  190.8490  177.6870  143.1070 S   0  0  0  0  0  0  0  0  0  0  0  0
  189.6080  176.5070  143.7170 C   0  0  0  0  0  2  0  0  0  0  0  0
  188.9480  177.0480  144.8970 N   0  0  0  0  0  2  0  0  0  0  0  0
  186.8940  177.7350  146.0780 C   0  0  0  0  0  3  0  0  0  0  0  0
  183.5780  179.0460  144.8720 C   0  0  0  0  0  1  0  0  0  0  0  0
  184.9760  178.5300  144.8230 C   0  0  0  0  0  0  0  0  0  0  0  0
  186.9990  177.8480  143.6690 C   0  0  0  0  0  3  0  0  0  0  0  0
  187.6040  177.5420  144.8890 C   0  0  0  0  0  0  0  0  0  0  0  0
  185.5890  178.2250  146.0420 C   0  0  0  0  0  3  0  0  0  0  0  0
  185.6860  178.3440  143.6100 C   0  0  0  0  0  0  0  0  0  0  0  0
  184.0850  177.8830  141.7350 O   0  0  0  0  0  1  0  0  0  0  0  0
  185.5570  179.6180  141.6040 O   0  0  0  0  0  0  0  0  0  0  0  0
  185.1140  178.6460  142.2740 C   0  0  0  0  0  0  0  0  0  0  0  0
  193.0900  176.4270  138.0150 C   0  0  0  0  0  2  0  0  0  0  0  0
  194.3370  174.9190  136.3650 C   0  0  2  0  0  3  0  0  0  0  0  0
  194.9490  176.1780  136.5230 O   0  0  0  0  0  0  0  0  0  0  0  0
  193.5420  176.1680  136.5800 C   0  0  2  0  0  3  0  0  0  0  0  0
  194.5940  174.0760  137.6080 C   0  0  0  0  0  2  0  0  0  0  0  0
  196.0880  173.8850  137.7870 C   0  0  0  0  0  2  0  0  0  0  0  0
  196.6500  175.0240  138.4960 N   0  0  0  0  0  0  0  0  0  0  0  0
  197.5830  175.1280  140.6550 N   0  0  0  0  0  2  0  0  0  0  0  0
  198.0440  174.9510  138.3540 N   0  0  0  0  0  2  0  0  0  0  0  0
  198.5970  175.3370  139.6410 C   0  0  0  0  0  2  0  0  0  0  0  0
  196.3810  174.8140  139.9070 C   0  0  0  0  0  2  0  0  0  0  0  0
  1  4  2  0  0  0  0
  1  7  1  0  0  0  0
  2  8  1  0  0  0  0
  3  9  2  0  0  0  0
  4  6  1  0  0  0  0
  5 16  1  0  0  0  0
  6  3  1  0  0  0  0
  6  2  2  0  0  0  0
  7  3  1  0  0  0  0
  8  5  2  0  0  0  0
  9  5  1  0  0  0  0
 10 12  2  0  0  0  0
 10 11  1  0  0  0  0
 11 13  2  0  0  0  0
 12 15  1  0  0  0  0
 13 14  1  0  0  0  0
 14  4  1  0  0  0  0
 15 14  2  0  0  0  0
 16 17  1  0  0  0  0
 17 18  1  0  0  0  0
 21 20  1  0  0  0  0
 21 24  2  0  0  0  0
 22 23  1  0  0  0  0
 23 18  1  0  0  0  0
 23 19  2  0  0  0  0
 24 19  1  0  0  0  0
 25 22  2  0  0  0  0
 25 21  1  0  0  0  0
 26 28  1  0  0  0  0
 27 28  2  0  0  0  0
 28 25  1  0  0  0  0
 29  7  1  0  0  0  0
 30 31  1  0  0  0  0
 30 32  1  0  0  0  0
 30 33  1  1  0  0  0
 31 32  1  0  0  0  0
 32 29  1  1  0  0  0
 33 34  1  0  0  0  0
 34 35  1  0  0  0  0
 35 39  1  0  0  0  0
 37 35  1  0  0  0  0
 37 38  1  0  0  0  0
 38 36  1  0  0  0  0
 39 36  1  0  0  0  0
M  END
>  <MODEL>
2

>  <REMARK>
 VINA RESULT:      -8.6      3.560      6.073
  Name = 
  11 active torsions:
  status: ('A' for Active; 'I' for Inactive)
    1  A    between atoms: N_1  and  C_11
    2  A    between atoms: N_2  and  C_6
    3  A    between atoms: N_2  and  C_26
    4  A    between atoms: C_6  and  S_16
    5  A    between atoms: C_9  and  C_33
    6  A    between atoms: C_11  and  C_28
    7  A    between atoms: C_12  and  S_16
    8  A    between atoms: C_15  and  C_28
    9  A    between atoms: C_18  and  N_19
   10  A    between atoms: C_18  and  C_39
   11  A    between atoms: C_31  and  C_34
                            x       y       z     vdW  Elec       q    Type
                         _______ _______ _______ _____ _____    ______ ____

>  <TORSDO>
F 11

$$$$
=
 OpenBabel10232411033D

 39 44  0  0  1  0  0  0  0  0999 V2000
  189.4100  177.4950  142.8380 C   0  0  0  0  0  3  0  0  0  0  0  0
  186.7460  177.8720  145.2360 C   0  0  0  0  0  3  0  0  0  0  0  0
  187.2880  177.9640  142.8850 C   0  0  0  0  0  0  0  0  0  0  0  0
  189.0160  177.4700  144.1780 C   0  0  0  0  0  0  0  0  0  0  0  0
  185.0310  178.3900  143.5700 C   0  0  0  0  0  0  0  0  0  0  0  0
  187.6620  177.7690  144.1890 C   0  0  0  0  0  0  0  0  0  0  0  0
  188.3420  177.8060  142.0670 N   0  0  0  0  0  0  0  0  0  0  0  0
  185.4160  178.1860  144.9120 C   0  0  0  0  0  3  0  0  0  0  0  0
  185.9740  178.2750  142.5330 C   0  0  0  0  0  3  0  0  0  0  0  0
  191.5520  176.5980  147.4890 C   0  0  0  0  0  3  0  0  0  0  0  0
  190.2360  176.9980  147.7240 C   0  0  0  0  0  3  0  0  0  0  0  0
  192.0140  176.4890  146.2150 N   0  0  0  0  0  0  0  0  0  0  0  0
  189.4070  177.2830  146.6380 C   0  0  0  0  0  3  0  0  0  0  0  0
  189.8940  177.1680  145.3290 C   0  0  0  0  0  0  0  0  0  0  0  0
  191.2230  176.7620  145.1440 C   0  0  0  0  0  3  0  0  0  0  0  0
  183.3300  178.7840  143.1840 S   0  0  0  0  0  0  0  0  0  0  0  0
  183.6130  178.6130  141.3960 C   0  0  0  0  0  2  0  0  0  0  0  0
  182.3590  178.3090  140.7220 N   0  0  0  0  0  2  0  0  0  0  0  0
  182.0560  178.7420  138.3130 C   0  0  0  0  0  3  0  0  0  0  0  0
  182.0800  176.4900  135.2960 C   0  0  0  0  0  1  0  0  0  0  0  0
  182.1630  176.9110  136.7250 C   0  0  0  0  0  0  0  0  0  0  0  0
  182.4550  176.4940  139.0980 C   0  0  0  0  0  3  0  0  0  0  0  0
  182.2840  177.8530  139.3680 C   0  0  0  0  0  0  0  0  0  0  0  0
  181.9950  178.2710  137.0010 C   0  0  0  0  0  3  0  0  0  0  0  0
  182.3990  175.9990  137.7850 C   0  0  0  0  0  0  0  0  0  0  0  0
  181.5120  173.6690  137.5000 O   0  0  0  0  0  1  0  0  0  0  0  0
  183.7560  174.0700  137.4670 O   0  0  0  0  0  0  0  0  0  0  0  0
  182.5910  174.5410  137.5790 C   0  0  0  0  0  0  0  0  0  0  0  0
  188.3430  177.8850  140.6140 C   0  0  0  0  0  2  0  0  0  0  0  0
  190.0450  177.7160  138.7100 C   0  0  2  0  0  3  0  0  0  0  0  0
  189.2970  176.5340  138.8800 O   0  0  0  0  0  0  0  0  0  0  0  0
  189.6090  177.2380  140.0590 C   0  0  2  0  0  3  0  0  0  0  0  0
  189.1620  178.7800  138.0680 C   0  0  0  0  0  2  0  0  0  0  0  0
  188.8920  178.4060  136.6240 C   0  0  0  0  0  2  0  0  0  0  0  0
  187.4580  178.3730  136.3830 N   0  0  0  0  0  0  0  0  0  0  0  0
  185.8830  176.7190  136.9570 N   0  0  0  0  0  2  0  0  0  0  0  0
  186.8310  178.7840  137.5680 N   0  0  0  0  0  2  0  0  0  0  0  0
  185.6650  177.9310  137.7210 C   0  0  0  0  0  2  0  0  0  0  0  0
  187.0940  176.9790  136.2030 C   0  0  0  0  0  2  0  0  0  0  0  0
  1  4  2  0  0  0  0
  3  6  1  0  0  0  0
  4  6  1  0  0  0  0
  4 14  1  0  0  0  0
  5  8  2  0  0  0  0
  6  2  2  0  0  0  0
  7  1  1  0  0  0  0
  7  3  1  0  0  0  0
  8  2  1  0  0  0  0
  9  3  2  0  0  0  0
  9  5  1  0  0  0  0
 10 11  1  0  0  0  0
 12 10  2  0  0  0  0
 13 11  2  0  0  0  0
 14 13  1  0  0  0  0
 15 14  2  0  0  0  0
 15 12  1  0  0  0  0
 16  5  1  0  0  0  0
 17 16  1  0  0  0  0
 18 17  1  0  0  0  0
 19 23  1  0  0  0  0
 20 21  1  0  0  0  0
 21 24  1  0  0  0  0
 21 25  2  0  0  0  0
 22 23  2  0  0  0  0
 23 18  1  0  0  0  0
 24 19  2  0  0  0  0
 25 22  1  0  0  0  0
 26 28  1  0  0  0  0
 27 28  2  0  0  0  0
 28 25  1  0  0  0  0
 29  7  1  0  0  0  0
 30 33  1  6  0  0  0
 30 31  1  0  0  0  0
 30 32  1  0  0  0  0
 31 32  1  0  0  0  0
 32 29  1  6  0  0  0
 34 33  1  0  0  0  0
 35 34  1  0  0  0  0
 35 37  1  0  0  0  0
 36 38  1  0  0  0  0
 37 38  1  0  0  0  0
 39 35  1  0  0  0  0
 39 36  1  0  0  0  0
M  END
>  <MODEL>
3

>  <REMARK>
 VINA RESULT:      -8.4      2.777      8.653
  Name = 
  11 active torsions:
  status: ('A' for Active; 'I' for Inactive)
    1  A    between atoms: N_1  and  C_11
    2  A    between atoms: N_2  and  C_6
    3  A    between atoms: N_2  and  C_26
    4  A    between atoms: C_6  and  S_16
    5  A    between atoms: C_9  and  C_33
    6  A    between atoms: C_11  and  C_28
    7  A    between atoms: C_12  and  S_16
    8  A    between atoms: C_15  and  C_28
    9  A    between atoms: C_18  and  N_19
   10  A    between atoms: C_18  and  C_39
   11  A    between atoms: C_31  and  C_34
                            x       y       z     vdW  Elec       q    Type
                         _______ _______ _______ _____ _____    ______ ____

>  <TORSDO>
F 11

$$$$
=
 OpenBabel10232411033D

 39 44  0  0  1  0  0  0  0  0999 V2000
  189.7120  175.5680  136.5070 C   0  0  0  0  0  3  0  0  0  0  0  0
  188.2740  177.4950  139.1910 C   0  0  0  0  0  3  0  0  0  0  0  0
  190.2360  176.2720  138.4950 C   0  0  0  0  0  0  0  0  0  0  0  0
  188.6140  176.2860  136.9880 C   0  0  0  0  0  0  0  0  0  0  0  0
  190.2290  177.3160  140.6530 C   0  0  0  0  0  0  0  0  0  0  0  0
  188.9670  176.7280  138.2540 C   0  0  0  0  0  0  0  0  0  0  0  0
  190.6870  175.5660  137.4440 N   0  0  0  0  0  0  0  0  0  0  0  0
  188.9230  177.7880  140.4030 C   0  0  0  0  0  3  0  0  0  0  0  0
  190.9050  176.5490  139.6880 C   0  0  0  0  0  3  0  0  0  0  0  0
  184.9650  176.9470  134.8900 C   0  0  0  0  0  3  0  0  0  0  0  0
  186.0660  177.7610  134.6190 C   0  0  0  0  0  3  0  0  0  0  0  0
  185.0630  175.9550  135.8150 N   0  0  0  0  0  0  0  0  0  0  0  0
  187.2590  177.5430  135.3070 C   0  0  0  0  0  3  0  0  0  0  0  0
  187.3490  176.5180  136.2580 C   0  0  0  0  0  0  0  0  0  0  0  0
  186.2170  175.7260  136.4950 C   0  0  0  0  0  3  0  0  0  0  0  0
  191.0340  177.7070  142.2000 S   0  0  0  0  0  0  0  0  0  0  0  0
  190.4580  176.1700  142.9810 C   0  0  0  0  0  2  0  0  0  0  0  0
  189.0020  176.1400  143.0030 N   0  0  0  0  0  2  0  0  0  0  0  0
  186.9720  177.3670  143.6800 C   0  0  0  0  0  3  0  0  0  0  0  0
  185.8440  178.8140  146.9660 C   0  0  0  0  0  1  0  0  0  0  0  0
  186.7050  178.1070  145.9740 C   0  0  0  0  0  0  0  0  0  0  0  0
  188.7010  176.9030  145.2990 C   0  0  0  0  0  3  0  0  0  0  0  0
  188.2170  176.8130  143.9930 C   0  0  0  0  0  0  0  0  0  0  0  0
  186.2230  178.0100  144.6650 C   0  0  0  0  0  3  0  0  0  0  0  0
  187.9630  177.5450  146.3070 C   0  0  0  0  0  0  0  0  0  0  0  0
  189.9200  177.5670  147.8770 O   0  0  0  0  0  0  0  0  0  0  0  0
  187.7880  177.6850  148.6760 O   0  0  0  0  0  1  0  0  0  0  0  0
  188.5460  177.6000  147.6720 C   0  0  0  0  0  0  0  0  0  0  0  0
  192.0020  174.9590  137.2960 C   0  0  0  0  0  2  0  0  0  0  0  0
  194.3580  175.5520  136.4900 C   0  0  2  0  0  3  0  0  0  0  0  0
  193.7760  176.5700  137.2720 O   0  0  0  0  0  0  0  0  0  0  0  0
  192.8940  175.8550  136.4400 C   0  0  2  0  0  3  0  0  0  0  0  0
  194.7630  174.3950  137.3950 C   0  0  0  0  0  2  0  0  0  0  0  0
  196.2540  174.1510  137.2640 C   0  0  0  0  0  2  0  0  0  0  0  0
  196.8460  173.9880  138.5820 N   0  0  0  0  0  0  0  0  0  0  0  0
  198.2300  175.4590  139.7920 N   0  0  0  0  0  2  0  0  0  0  0  0
  196.0300  174.6800  139.4890 N   0  0  0  0  0  2  0  0  0  0  0  0
  196.9320  175.3280  140.4250 C   0  0  0  0  0  2  0  0  0  0  0  0
  198.1130  174.6970  138.5640 C   0  0  0  0  0  2  0  0  0  0  0  0
  1  4  2  0  0  0  0
  1  7  1  0  0  0  0
  2  8  1  0  0  0  0
  3  9  2  0  0  0  0
  4  6  1  0  0  0  0
  5 16  1  0  0  0  0
  6  3  1  0  0  0  0
  6  2  2  0  0  0  0
  7  3  1  0  0  0  0
  8  5  2  0  0  0  0
  9  5  1  0  0  0  0
 10 12  1  0  0  0  0
 11 10  2  0  0  0  0
 11 13  1  0  0  0  0
 12 15  2  0  0  0  0
 13 14  2  0  0  0  0
 14 15  1  0  0  0  0
 14  4  1  0  0  0  0
 16 17  1  0  0  0  0
 17 18  1  0  0  0  0
 18 23  1  0  0  0  0
 19 23  2  0  0  0  0
 19 24  1  0  0  0  0
 21 25  1  0  0  0  0
 21 20  1  0  0  0  0
 22 25  2  0  0  0  0
 23 22  1  0  0  0  0
 24 21  2  0  0  0  0
 25 28  1  0  0  0  0
 28 26  2  0  0  0  0
 28 27  1  0  0  0  0
 29  7  1  0  0  0  0
 30 31  1  0  0  0  0
 30 33  1  1  0  0  0
 32 30  1  0  0  0  0
 32 31  1  0  0  0  0
 32 29  1  1  0  0  0
 34 33  1  0  0  0  0
 34 35  1  0  0  0  0
 35 37  1  0  0  0  0
 36 38  1  0  0  0  0
 37 38  1  0  0  0  0
 39 35  1  0  0  0  0
 39 36  1  0  0  0  0
M  END
>  <MODEL>
4

>  <REMARK>
 VINA RESULT:      -8.1      3.530      5.580
  Name = 
  11 active torsions:
  status: ('A' for Active; 'I' for Inactive)
    1  A    between atoms: N_1  and  C_11
    2  A    between atoms: N_2  and  C_6
    3  A    between atoms: N_2  and  C_26
    4  A    between atoms: C_6  and  S_16
    5  A    between atoms: C_9  and  C_33
    6  A    between atoms: C_11  and  C_28
    7  A    between atoms: C_12  and  S_16
    8  A    between atoms: C_15  and  C_28
    9  A    between atoms: C_18  and  N_19
   10  A    between atoms: C_18  and  C_39
   11  A    between atoms: C_31  and  C_34
                            x       y       z     vdW  Elec       q    Type
                         _______ _______ _______ _____ _____    ______ ____

>  <TORSDO>
F 11

$$$$
=
 OpenBabel10232411033D

 39 44  0  0  1  0  0  0  0  0999 V2000
  189.6090  177.3380  142.9180 C   0  0  0  0  0  3  0  0  0  0  0  0
  186.7700  178.0160  145.0320 C   0  0  0  0  0  3  0  0  0  0  0  0
  187.5060  177.8520  142.7380 C   0  0  0  0  0  0  0  0  0  0  0  0
  189.1070  177.4600  144.2160 C   0  0  0  0  0  0  0  0  0  0  0  0
  185.2130  178.3930  143.1820 C   0  0  0  0  0  0  0  0  0  0  0  0
  187.7660  177.7860  144.0820 C   0  0  0  0  0  0  0  0  0  0  0  0
  188.6190  177.5890  142.0320 N   0  0  0  0  0  0  0  0  0  0  0  0
  185.4800  178.3210  144.5660 C   0  0  0  0  0  3  0  0  0  0  0  0
  186.2350  178.1510  142.2460 C   0  0  0  0  0  3  0  0  0  0  0  0
  191.3360  176.8870  147.8020 C   0  0  0  0  0  3  0  0  0  0  0  0
  190.0080  177.3090  147.8830 C   0  0  0  0  0  3  0  0  0  0  0  0
  191.9060  176.6630  146.5880 N   0  0  0  0  0  0  0  0  0  0  0  0
  189.2800  177.4960  146.7080 C   0  0  0  0  0  3  0  0  0  0  0  0
  189.8780  177.2620  145.4620 C   0  0  0  0  0  0  0  0  0  0  0  0
  191.2130  176.8390  145.4320 C   0  0  0  0  0  3  0  0  0  0  0  0
  183.5620  178.7780  142.6150 S   0  0  0  0  0  0  0  0  0  0  0  0
  183.7460  177.7480  141.1290 C   0  0  0  0  0  2  0  0  0  0  0  0
  182.4640  177.6260  140.4480 N   0  0  0  0  0  2  0  0  0  0  0  0
  180.8430  176.2440  139.2040 C   0  0  0  0  0  3  0  0  0  0  0  0
  181.2560  173.4540  136.7100 C   0  0  0  0  0  1  0  0  0  0  0  0
  181.6250  174.5310  137.6740 C   0  0  0  0  0  0  0  0  0  0  0  0
  183.2130  175.8930  138.9050 C   0  0  0  0  0  3  0  0  0  0  0  0
  182.1640  176.5800  139.5180 C   0  0  0  0  0  0  0  0  0  0  0  0
  180.5780  175.2250  138.2890 C   0  0  0  0  0  3  0  0  0  0  0  0
  182.9690  174.8650  137.9790 C   0  0  0  0  0  0  0  0  0  0  0  0
  184.8510  174.7550  136.3240 O   0  0  0  0  0  0  0  0  0  0  0  0
  184.5070  173.0580  137.8060 O   0  0  0  0  0  1  0  0  0  0  0  0
  184.1380  174.1820  137.3700 C   0  0  0  0  0  0  0  0  0  0  0  0
  188.7410  177.5160  140.5840 C   0  0  0  0  0  2  0  0  0  0  0  0
  190.4910  177.3560  138.7240 C   0  0  2  0  0  3  0  0  0  0  0  0
  190.3950  176.1740  139.4850 O   0  0  0  0  0  0  0  0  0  0  0  0
  190.2100  177.3780  140.1920 C   0  0  2  0  0  3  0  0  0  0  0  0
  189.2730  177.4680  137.8150 C   0  0  0  0  0  2  0  0  0  0  0  0
  189.0900  178.9130  137.3920 C   0  0  0  0  0  2  0  0  0  0  0  0
  187.7200  179.1300  136.9580 N   0  0  0  0  0  0  0  0  0  0  0  0
  186.1850  177.6040  136.0300 N   0  0  0  0  0  2  0  0  0  0  0  0
  186.8830  178.6930  137.9960 N   0  0  0  0  0  2  0  0  0  0  0  0
  185.7670  178.0210  137.3540 C   0  0  0  0  0  2  0  0  0  0  0  0
  187.4820  178.2250  135.8470 C   0  0  0  0  0  2  0  0  0  0  0  0
  1  4  2  0  0  0  0
  3  6  1  0  0  0  0
  4 14  1  0  0  0  0
  5  8  2  0  0  0  0
  6  4  1  0  0  0  0
  6  2  2  0  0  0  0
  7  3  1  0  0  0  0
  7  1  1  0  0  0  0
  8  2  1  0  0  0  0
  9  3  2  0  0  0  0
  9  5  1  0  0  0  0
 10 11  1  0  0  0  0
 12 10  2  0  0  0  0
 13 11  2  0  0  0  0
 14 13  1  0  0  0  0
 15 14  2  0  0  0  0
 15 12  1  0  0  0  0
 16  5  1  0  0  0  0
 17 16  1  0  0  0  0
 18 17  1  0  0  0  0
 19 23  1  0  0  0  0
 20 21  1  0  0  0  0
 21 25  2  0  0  0  0
 21 24  1  0  0  0  0
 22 23  2  0  0  0  0
 23 18  1  0  0  0  0
 24 19  2  0  0  0  0
 25 22  1  0  0  0  0
 26 28  2  0  0  0  0
 28 27  1  0  0  0  0
 28 25  1  0  0  0  0
 29  7  1  0  0  0  0
 30 33  1  6  0  0  0
 30 31  1  0  0  0  0
 30 32  1  0  0  0  0
 31 32  1  0  0  0  0
 32 29  1  6  0  0  0
 34 33  1  0  0  0  0
 35 34  1  0  0  0  0
 35 37  1  0  0  0  0
 36 38  1  0  0  0  0
 38 37  1  0  0  0  0
 39 36  1  0  0  0  0
 39 35  1  0  0  0  0
M  END
>  <MODEL>
5

>  <REMARK>
 VINA RESULT:      -8.1      2.900      8.547
  Name = 
  11 active torsions:
  status: ('A' for Active; 'I' for Inactive)
    1  A    between atoms: N_1  and  C_11
    2  A    between atoms: N_2  and  C_6
    3  A    between atoms: N_2  and  C_26
    4  A    between atoms: C_6  and  S_16
    5  A    between atoms: C_9  and  C_33
    6  A    between atoms: C_11  and  C_28
    7  A    between atoms: C_12  and  S_16
    8  A    between atoms: C_15  and  C_28
    9  A    between atoms: C_18  and  N_19
   10  A    between atoms: C_18  and  C_39
   11  A    between atoms: C_31  and  C_34
                            x       y       z     vdW  Elec       q    Type
                         _______ _______ _______ _____ _____    ______ ____

>  <TORSDO>
F 11

$$$$
=
 OpenBabel10232411033D

 39 44  0  0  1  0  0  0  0  0999 V2000
  187.9230  177.4350  143.5130 C   0  0  0  0  0  3  0  0  0  0  0  0
  186.6510  178.4870  140.3100 C   0  0  0  0  0  3  0  0  0  0  0  0
  188.5650  177.5440  141.4400 C   0  0  0  0  0  0  0  0  0  0  0  0
  186.8630  177.9830  142.7870 C   0  0  0  0  0  0  0  0  0  0  0  0
  188.6770  177.8950  139.0710 C   0  0  0  0  0  0  0  0  0  0  0  0
  187.2890  178.0440  141.4690 C   0  0  0  0  0  0  0  0  0  0  0  0
  188.9530  177.1810  142.6740 N   0  0  0  0  0  0  0  0  0  0  0  0
  187.3620  178.4070  139.1000 C   0  0  0  0  0  3  0  0  0  0  0  0
  189.2940  177.4500  140.2540 C   0  0  0  0  0  3  0  0  0  0  0  0
  183.1030  179.1700  144.4010 C   0  0  0  0  0  3  0  0  0  0  0  0
  183.1820  178.7900  143.0600 C   0  0  0  0  0  3  0  0  0  0  0  0
  184.2180  179.1590  145.1790 N   0  0  0  0  0  0  0  0  0  0  0  0
  184.4140  178.4020  142.5340 C   0  0  0  0  0  3  0  0  0  0  0  0
  185.5570  178.3950  143.3450 C   0  0  0  0  0  0  0  0  0  0  0  0
  185.4280  178.7840  144.6840 C   0  0  0  0  0  3  0  0  0  0  0  0
  189.5580  177.7980  137.5190 S   0  0  0  0  0  0  0  0  0  0  0  0
  190.4440  176.2940  138.0240 C   0  0  0  0  0  2  0  0  0  0  0  0
  191.0170  175.6390  136.8560 N   0  0  0  0  0  2  0  0  0  0  0  0
  193.0360  175.8260  135.4510 C   0  0  0  0  0  3  0  0  0  0  0  0
  196.6560  174.9970  136.0680 C   0  0  0  0  0  1  0  0  0  0  0  0
  195.1940  175.1450  136.3250 C   0  0  0  0  0  0  0  0  0  0  0  0
  193.2020  174.9620  137.6990 C   0  0  0  0  0  3  0  0  0  0  0  0
  192.4250  175.4730  136.6590 C   0  0  0  0  0  0  0  0  0  0  0  0
  194.4110  175.6600  135.2880 C   0  0  0  0  0  3  0  0  0  0  0  0
  194.5880  174.7880  137.5570 C   0  0  0  0  0  0  0  0  0  0  0  0
  195.5770  172.8750  138.8440 O   0  0  0  0  0  0  0  0  0  0  0  0
  195.7990  175.0160  139.5920 O   0  0  0  0  0  1  0  0  0  0  0  0
  195.3450  174.2380  138.7100 C   0  0  0  0  0  0  0  0  0  0  0  0
  190.2180  176.5660  143.0490 C   0  0  0  0  0  2  0  0  0  0  0  0
  191.6100  177.6770  144.8870 C   0  0  2  0  0  3  0  0  0  0  0  0
  190.6240  178.5330  144.3550 O   0  0  0  0  0  0  0  0  0  0  0  0
  191.2240  177.6450  143.4420 C   0  0  2  0  0  3  0  0  0  0  0  0
  190.9420  176.6340  145.7740 C   0  0  0  0  0  2  0  0  0  0  0  0
  190.9000  177.1390  147.2030 C   0  0  0  0  0  2  0  0  0  0  0  0
  189.5840  176.8980  147.7730 N   0  0  0  0  0  0  0  0  0  0  0  0
  187.8920  178.4380  148.3320 N   0  0  0  0  0  2  0  0  0  0  0  0
  188.6660  176.9140  146.7130 N   0  0  0  0  0  2  0  0  0  0  0  0
  187.4910  177.6090  147.2120 C   0  0  0  0  0  2  0  0  0  0  0  0
  189.2650  178.0520  148.5950 C   0  0  0  0  0  2  0  0  0  0  0  0
  2  6  1  0  0  0  0
  3  6  2  0  0  0  0
  3  7  1  0  0  0  0
  4 14  1  0  0  0  0
  4  1  2  0  0  0  0
  5  8  1  0  0  0  0
  5  9  2  0  0  0  0
  6  4  1  0  0  0  0
  7 29  1  0  0  0  0
  7  1  1  0  0  0  0
  8  2  2  0  0  0  0
  9  3  1  0  0  0  0
 10 12  1  0  0  0  0
 11 10  2  0  0  0  0
 13 11  1  0  0  0  0
 13 14  2  0  0  0  0
 14 15  1  0  0  0  0
 15 12  2  0  0  0  0
 16 17  1  0  0  0  0
 16  5  1  0  0  0  0
 18 17  1  0  0  0  0
 19 23  1  0  0  0  0
 20 21  1  0  0  0  0
 21 25  2  0  0  0  0
 23 18  1  0  0  0  0
 23 22  2  0  0  0  0
 24 19  2  0  0  0  0
 24 21  1  0  0  0  0
 25 22  1  0  0  0  0
 25 28  1  0  0  0  0
 28 26  2  0  0  0  0
 28 27  1  0  0  0  0
 30 33  1  1  0  0  0
 31 30  1  0  0  0  0
 32 29  1  1  0  0  0
 32 31  1  0  0  0  0
 32 30  1  0  0  0  0
 33 34  1  0  0  0  0
 34 35  1  0  0  0  0
 35 39  1  0  0  0  0
 36 39  1  0  0  0  0
 37 38  1  0  0  0  0
 37 35  1  0  0  0  0
 38 36  1  0  0  0  0
M  END
>  <MODEL>
6

>  <REMARK>
 VINA RESULT:      -8.0      3.629      8.294
  Name = 
  11 active torsions:
  status: ('A' for Active; 'I' for Inactive)
    1  A    between atoms: N_1  and  C_11
    2  A    between atoms: N_2  and  C_6
    3  A    between atoms: N_2  and  C_26
    4  A    between atoms: C_6  and  S_16
    5  A    between atoms: C_9  and  C_33
    6  A    between atoms: C_11  and  C_28
    7  A    between atoms: C_12  and  S_16
    8  A    between atoms: C_15  and  C_28
    9  A    between atoms: C_18  and  N_19
   10  A    between atoms: C_18  and  C_39
   11  A    between atoms: C_31  and  C_34
                            x       y       z     vdW  Elec       q    Type
                         _______ _______ _______ _____ _____    ______ ____

>  <TORSDO>
F 11

$$$$
=
 OpenBabel10232411033D

 39 44  0  0  1  0  0  0  0  0999 V2000
  187.5710  177.4460  143.5320 C   0  0  0  0  0  3  0  0  0  0  0  0
  186.5980  178.4900  140.2220 C   0  0  0  0  0  3  0  0  0  0  0  0
  188.4020  177.5560  141.5270 C   0  0  0  0  0  0  0  0  0  0  0  0
  186.5810  177.9900  142.7090 C   0  0  0  0  0  0  0  0  0  0  0  0
  188.7330  177.9050  139.1780 C   0  0  0  0  0  0  0  0  0  0  0  0
  187.1280  178.0510  141.4360 C   0  0  0  0  0  0  0  0  0  0  0  0
  188.6750  177.1950  142.7920 N   0  0  0  0  0  0  0  0  0  0  0  0
  187.4190  178.4120  139.0840 C   0  0  0  0  0  3  0  0  0  0  0  0
  189.2390  177.4630  140.4140 C   0  0  0  0  0  3  0  0  0  0  0  0
  182.6770  179.1640  143.9490 C   0  0  0  0  0  3  0  0  0  0  0  0
  183.7190  179.1650  144.8780 C   0  0  0  0  0  3  0  0  0  0  0  0
  182.9130  178.7900  142.6630 N   0  0  0  0  0  0  0  0  0  0  0  0
  184.9960  178.7800  144.4700 C   0  0  0  0  0  3  0  0  0  0  0  0
  185.2270  178.3970  143.1420 C   0  0  0  0  0  0  0  0  0  0  0  0
  184.1500  178.4120  142.2460 C   0  0  0  0  0  3  0  0  0  0  0  0
  189.7550  177.8100  137.7150 S   0  0  0  0  0  0  0  0  0  0  0  0
  188.3840  178.3040  136.6290 C   0  0  0  0  0  2  0  0  0  0  0  0
  187.9850  177.1810  135.7910 N   0  0  0  0  0  2  0  0  0  0  0  0
  187.7540  174.8140  136.4460 C   0  0  0  0  0  3  0  0  0  0  0  0
  184.8450  172.7930  137.7210 C   0  0  0  0  0  1  0  0  0  0  0  0
  185.6180  173.9690  137.2240 C   0  0  0  0  0  0  0  0  0  0  0  0
  185.8520  176.2950  136.5740 C   0  0  0  0  0  3  0  0  0  0  0  0
  187.1980  176.0850  136.2680 C   0  0  0  0  0  0  0  0  0  0  0  0
  186.9670  173.7650  136.9190 C   0  0  0  0  0  3  0  0  0  0  0  0
  185.0410  175.2530  137.0530 C   0  0  0  0  0  0  0  0  0  0  0  0
  182.6280  175.4310  136.3910 O   0  0  0  0  0  0  0  0  0  0  0  0
  183.2900  175.9330  138.5130 O   0  0  0  0  0  1  0  0  0  0  0  0
  183.6200  175.5570  137.3560 C   0  0  0  0  0  0  0  0  0  0  0  0
  189.9020  176.5850  143.2840 C   0  0  0  0  0  2  0  0  0  0  0  0
  191.5510  177.6630  144.9180 C   0  0  2  0  0  3  0  0  0  0  0  0
  190.4900  178.5220  144.5670 O   0  0  0  0  0  0  0  0  0  0  0  0
  190.9490  177.6640  143.5490 C   0  0  2  0  0  3  0  0  0  0  0  0
  191.0330  176.5890  145.8680 C   0  0  0  0  0  2  0  0  0  0  0  0
  190.9040  177.1690  147.2620 C   0  0  0  0  0  2  0  0  0  0  0  0
  189.5700  176.9110  147.7820 N   0  0  0  0  0  0  0  0  0  0  0  0
  187.8390  178.4290  148.2770 N   0  0  0  0  0  2  0  0  0  0  0  0
  188.6920  176.9180  146.6880 N   0  0  0  0  0  2  0  0  0  0  0  0
  187.4910  177.5970  147.1420 C   0  0  0  0  0  2  0  0  0  0  0  0
  189.2050  178.0610  148.5920 C   0  0  0  0  0  2  0  0  0  0  0  0
  2  6  1  0  0  0  0
  3  7  1  0  0  0  0
  4 14  1  0  0  0  0
  4  1  2  0  0  0  0
  5  9  2  0  0  0  0
  6  3  2  0  0  0  0
  6  4  1  0  0  0  0
  7 29  1  0  0  0  0
  7  1  1  0  0  0  0
  8  5  1  0  0  0  0
  8  2  2  0  0  0  0
  9  3  1  0  0  0  0
 10 11  1  0  0  0  0
 12 10  2  0  0  0  0
 13 11  2  0  0  0  0
 14 13  1  0  0  0  0
 15 12  1  0  0  0  0
 15 14  2  0  0  0  0
 16  5  1  0  0  0  0
 17 16  1  0  0  0  0
 18 23  1  0  0  0  0
 18 17  1  0  0  0  0
 19 24  1  0  0  0  0
 21 20  1  0  0  0  0
 22 25  2  0  0  0  0
 23 19  2  0  0  0  0
 23 22  1  0  0  0  0
 24 21  2  0  0  0  0
 25 21  1  0  0  0  0
 25 28  1  0  0  0  0
 26 28  2  0  0  0  0
 28 27  1  0  0  0  0
 30 33  1  1  0  0  0
 31 30  1  0  0  0  0
 32 29  1  1  0  0  0
 32 31  1  0  0  0  0
 32 30  1  0  0  0  0
 33 34  1  0  0  0  0
 34 35  1  0  0  0  0
 35 39  1  0  0  0  0
 36 39  1  0  0  0  0
 37 38  1  0  0  0  0
 37 35  1  0  0  0  0
 38 36  1  0  0  0  0
M  END
>  <MODEL>
7

>  <REMARK>
 VINA RESULT:      -7.9      3.412      8.315
  Name = 
  11 active torsions:
  status: ('A' for Active; 'I' for Inactive)
    1  A    between atoms: N_1  and  C_11
    2  A    between atoms: N_2  and  C_6
    3  A    between atoms: N_2  and  C_26
    4  A    between atoms: C_6  and  S_16
    5  A    between atoms: C_9  and  C_33
    6  A    between atoms: C_11  and  C_28
    7  A    between atoms: C_12  and  S_16
    8  A    between atoms: C_15  and  C_28
    9  A    between atoms: C_18  and  N_19
   10  A    between atoms: C_18  and  C_39
   11  A    between atoms: C_31  and  C_34
                            x       y       z     vdW  Elec       q    Type
                         _______ _______ _______ _____ _____    ______ ____

>  <TORSDO>
F 11

$$$$
=
 OpenBabel10232411033D

 39 44  0  0  1  0  0  0  0  0999 V2000
  188.9520  177.0340  136.7840 C   0  0  0  0  0  3  0  0  0  0  0  0
  189.3980  177.3800  140.3440 C   0  0  0  0  0  3  0  0  0  0  0  0
  187.8760  177.7880  138.5150 C   0  0  0  0  0  0  0  0  0  0  0  0
  189.7780  176.8400  137.8950 C   0  0  0  0  0  0  0  0  0  0  0  0
  187.2130  178.4130  140.7320 C   0  0  0  0  0  0  0  0  0  0  0  0
  189.0750  177.3250  138.9870 C   0  0  0  0  0  0  0  0  0  0  0  0
  187.8010  177.6200  137.1840 N   0  0  0  0  0  0  0  0  0  0  0  0
  188.4480  177.9320  141.2200 C   0  0  0  0  0  3  0  0  0  0  0  0
  186.9130  178.3390  139.3610 C   0  0  0  0  0  3  0  0  0  0  0  0
  193.6570  175.0780  137.8340 C   0  0  0  0  0  3  0  0  0  0  0  0
  192.5710  174.3550  137.3390 C   0  0  0  0  0  3  0  0  0  0  0  0
  193.4730  176.3310  138.3290 N   0  0  0  0  0  0  0  0  0  0  0  0
  191.3020  174.9340  137.3600 C   0  0  0  0  0  3  0  0  0  0  0  0
  191.1230  176.2260  137.8730 C   0  0  0  0  0  0  0  0  0  0  0  0
  192.2440  176.9130  138.3570 C   0  0  0  0  0  3  0  0  0  0  0  0
  186.0200  179.1050  141.8680 S   0  0  0  0  0  0  0  0  0  0  0  0
  186.1600  177.6920  143.0030 C   0  0  0  0  0  2  0  0  0  0  0  0
  186.3780  178.1670  144.3620 N   0  0  0  0  0  2  0  0  0  0  0  0
  187.4530  177.6600  146.5230 C   0  0  0  0  0  3  0  0  0  0  0  0
  190.9930  176.7990  147.4690 C   0  0  0  0  0  1  0  0  0  0  0  0
  189.8240  177.1530  146.6140 C   0  0  0  0  0  0  0  0  0  0  0  0
  188.7580  177.6570  144.4920 C   0  0  0  0  0  3  0  0  0  0  0  0
  187.5330  177.8310  145.1370 C   0  0  0  0  0  0  0  0  0  0  0  0
  188.5920  177.3250  147.2540 C   0  0  0  0  0  3  0  0  0  0  0  0
  189.9180  177.3180  145.2090 C   0  0  0  0  0  0  0  0  0  0  0  0
  191.5200  175.9420  143.8550 O   0  0  0  0  0  0  0  0  0  0  0  0
  191.9770  178.1230  144.3310 O   0  0  0  0  0  1  0  0  0  0  0  0
  191.1830  177.1510  144.4500 C   0  0  0  0  0  0  0  0  0  0  0  0
  186.6720  177.9410  136.3230 C   0  0  0  0  0  2  0  0  0  0  0  0
  184.7160  176.3230  135.9950 C   0  0  2  0  0  3  0  0  0  0  0  0
  185.8020  175.7360  136.6750 O   0  0  0  0  0  0  0  0  0  0  0  0
  186.1350  176.6680  135.6730 C   0  0  2  0  0  3  0  0  0  0  0  0
  183.9980  177.2860  136.9340 C   0  0  0  0  0  2  0  0  0  0  0  0
  183.6490  176.5670  138.2220 C   0  0  0  0  0  2  0  0  0  0  0  0
  183.4070  177.5370  139.2780 N   0  0  0  0  0  0  0  0  0  0  0  0
  182.2050  179.5600  139.2030 N   0  0  0  0  0  2  0  0  0  0  0  0
  182.1250  177.2820  139.7870 N   0  0  0  0  0  2  0  0  0  0  0  0
  181.5240  178.5830  140.0290 C   0  0  0  0  0  2  0  0  0  0  0  0
  183.3310  178.8410  138.6420 C   0  0  0  0  0  2  0  0  0  0  0  0
  1  7  1  0  0  0  0
  1  4  2  0  0  0  0
  2  8  1  0  0  0  0
  3  6  1  0  0  0  0
  3  9  2  0  0  0  0
  4  6  1  0  0  0  0
  5  8  2  0  0  0  0
  5 16  1  0  0  0  0
  6  2  2  0  0  0  0
  7  3  1  0  0  0  0
  9  5  1  0  0  0  0
 10 12  1  0  0  0  0
 11 13  1  0  0  0  0
 11 10  2  0  0  0  0
 12 15  2  0  0  0  0
 13 14  2  0  0  0  0
 14  4  1  0  0  0  0
 14 15  1  0  0  0  0
 16 17  1  0  0  0  0
 17 18  1  0  0  0  0
 18 23  1  0  0  0  0
 19 24  1  0  0  0  0
 21 24  2  0  0  0  0
 21 20  1  0  0  0  0
 22 23  1  0  0  0  0
 22 25  2  0  0  0  0
 23 19  2  0  0  0  0
 25 21  1  0  0  0  0
 26 28  2  0  0  0  0
 27 28  1  0  0  0  0
 28 25  1  0  0  0  0
 29  7  1  0  0  0  0
 30 31  1  0  0  0  0
 30 33  1  1  0  0  0
 32 30  1  0  0  0  0
 32 29  1  1  0  0  0
 32 31  1  0  0  0  0
 33 34  1  0  0  0  0
 34 35  1  0  0  0  0
 35 37  1  0  0  0  0
 36 38  1  0  0  0  0
 37 38  1  0  0  0  0
 39 36  1  0  0  0  0
 39 35  1  0  0  0  0
M  END
>  <MODEL>
8

>  <REMARK>
 VINA RESULT:      -7.9      1.970      6.772
  Name = 
  11 active torsions:
  status: ('A' for Active; 'I' for Inactive)
    1  A    between atoms: N_1  and  C_11
    2  A    between atoms: N_2  and  C_6
    3  A    between atoms: N_2  and  C_26
    4  A    between atoms: C_6  and  S_16
    5  A    between atoms: C_9  and  C_33
    6  A    between atoms: C_11  and  C_28
    7  A    between atoms: C_12  and  S_16
    8  A    between atoms: C_15  and  C_28
    9  A    between atoms: C_18  and  N_19
   10  A    between atoms: C_18  and  C_39
   11  A    between atoms: C_31  and  C_34
                            x       y       z     vdW  Elec       q    Type
                         _______ _______ _______ _____ _____    ______ ____

>  <TORSDO>
F 11

$$$$
=
 OpenBabel10232411033D

 39 44  0  0  1  0  0  0  0  0999 V2000
  187.8410  177.6720  143.9170 C   0  0  0  0  0  3  0  0  0  0  0  0
  190.8840  177.1050  142.0710 C   0  0  0  0  0  3  0  0  0  0  0  0
  188.5450  177.6650  141.8610 C   0  0  0  0  0  0  0  0  0  0  0  0
  189.1990  177.3450  143.9520 C   0  0  0  0  0  0  0  0  0  0  0  0
  189.8820  177.5200  139.8770 C   0  0  0  0  0  0  0  0  0  0  0  0
  189.6310  177.3470  142.6340 C   0  0  0  0  0  0  0  0  0  0  0  0
  187.4610  177.8550  142.6320 N   0  0  0  0  0  0  0  0  0  0  0  0
  191.0010  177.1960  140.6730 C   0  0  0  0  0  3  0  0  0  0  0  0
  188.6320  177.7640  140.4720 C   0  0  0  0  0  3  0  0  0  0  0  0
  191.4820  176.5470  147.4600 C   0  0  0  0  0  3  0  0  0  0  0  0
  190.2070  177.1020  147.5860 C   0  0  0  0  0  3  0  0  0  0  0  0
  191.9850  176.2670  146.2280 N   0  0  0  0  0  0  0  0  0  0  0  0
  189.4620  177.3620  146.4350 C   0  0  0  0  0  3  0  0  0  0  0  0
  189.9900  177.0700  145.1710 C   0  0  0  0  0  0  0  0  0  0  0  0
  191.2730  176.5130  145.0960 C   0  0  0  0  0  3  0  0  0  0  0  0
  190.0590  177.6350  138.1020 S   0  0  0  0  0  0  0  0  0  0  0  0
  188.4820  178.5210  137.9220 C   0  0  0  0  0  2  0  0  0  0  0  0
  187.7210  177.9600  136.8150 N   0  0  0  0  0  2  0  0  0  0  0  0
  187.3800  175.5210  136.6680 C   0  0  0  0  0  3  0  0  0  0  0  0
  184.4010  173.3190  137.3330 C   0  0  0  0  0  1  0  0  0  0  0  0
  185.2220  174.5590  137.2160 C   0  0  0  0  0  0  0  0  0  0  0  0
  185.5650  176.9570  137.3540 C   0  0  0  0  0  3  0  0  0  0  0  0
  186.8890  176.8020  136.9390 C   0  0  0  0  0  0  0  0  0  0  0  0
  186.5500  174.4090  136.8040 C   0  0  0  0  0  3  0  0  0  0  0  0
  184.7120  175.8510  137.4990 C   0  0  0  0  0  0  0  0  0  0  0  0
  182.9000  175.7920  139.2330 O   0  0  0  0  0  1  0  0  0  0  0  0
  182.4830  176.6040  137.1440 O   0  0  0  0  0  0  0  0  0  0  0  0
  183.3170  176.0980  137.9440 C   0  0  0  0  0  0  0  0  0  0  0  0
  186.1320  178.2510  142.1920 C   0  0  0  0  0  2  0  0  0  0  0  0
  183.7620  178.6160  143.0890 C   0  0  2  0  0  3  0  0  0  0  0  0
  184.6250  179.6940  143.3720 O   0  0  0  0  0  0  0  0  0  0  0  0
  185.2110  178.4130  143.3990 C   0  0  2  0  0  3  0  0  0  0  0  0
  183.4000  178.6400  141.6090 C   0  0  0  0  0  2  0  0  0  0  0  0
  181.8930  178.5670  141.4580 C   0  0  0  0  0  2  0  0  0  0  0  0
  181.5230  178.8160  140.0730 N   0  0  0  0  0  0  0  0  0  0  0  0
  180.9590  180.8440  139.0180 N   0  0  0  0  0  2  0  0  0  0  0  0
  182.6720  179.2810  139.4160 N   0  0  0  0  0  2  0  0  0  0  0  0
  182.2240  180.3360  138.5250 C   0  0  0  0  0  2  0  0  0  0  0  0
  180.5910  179.9300  140.0810 C   0  0  0  0  0  2  0  0  0  0  0  0
  1  4  2  0  0  0  0
  2  6  1  0  0  0  0
  3  7  1  0  0  0  0
  3  6  2  0  0  0  0
  4 14  1  0  0  0  0
  5  9  2  0  0  0  0
  5  8  1  0  0  0  0
  6  4  1  0  0  0  0
  7  1  1  0  0  0  0
  8  2  2  0  0  0  0
  9  3  1  0  0  0  0
 10 11  1  0  0  0  0
 12 10  2  0  0  0  0
 13 11  2  0  0  0  0
 14 13  1  0  0  0  0
 15 14  2  0  0  0  0
 15 12  1  0  0  0  0
 16  5  1  0  0  0  0
 17 16  1  0  0  0  0
 18 23  1  0  0  0  0
 18 17  1  0  0  0  0
 19 24  2  0  0  0  0
 19 23  1  0  0  0  0
 21 20  1  0  0  0  0
 21 25  2  0  0  0  0
 22 25  1  0  0  0  0
 23 22  2  0  0  0  0
 24 21  1  0  0  0  0
 25 28  1  0  0  0  0
 27 28  2  0  0  0  0
 28 26  1  0  0  0  0
 29  7  1  0  0  0  0
 30 33  1  6  0  0  0
 30 31  1  0  0  0  0
 30 32  1  0  0  0  0
 31 32  1  0  0  0  0
 32 29  1  6  0  0  0
 34 33  1  0  0  0  0
 35 39  1  0  0  0  0
 35 34  1  0  0  0  0
 36 39  1  0  0  0  0
 37 35  1  0  0  0  0
 38 36  1  0  0  0  0
 38 37  1  0  0  0  0
M  END
>  <MODEL>
9

>  <REMARK>
 VINA RESULT:      -7.9      3.390      9.722
  Name = 
  11 active torsions:
  status: ('A' for Active; 'I' for Inactive)
    1  A    between atoms: N_1  and  C_11
    2  A    between atoms: N_2  and  C_6
    3  A    between atoms: N_2  and  C_26
    4  A    between atoms: C_6  and  S_16
    5  A    between atoms: C_9  and  C_33
    6  A    between atoms: C_11  and  C_28
    7  A    between atoms: C_12  and  S_16
    8  A    between atoms: C_15  and  C_28
    9  A    between atoms: C_18  and  N_19
   10  A    between atoms: C_18  and  C_39
   11  A    between atoms: C_31  and  C_34
                            x       y       z     vdW  Elec       q    Type
                         _______ _______ _______ _____ _____    ______ ____

>  <TORSDO>
F 11

$$$$
