=
 OpenBabel10222421593D

 40 41  0  0  1  0  0  0  0  0999 V2000
  187.8790  177.0550  144.9360 C   0  0  2  0  0  3  0  0  0  0  0  0
  186.0720  178.3620  144.0530 C   0  0  0  0  0  3  0  0  0  0  0  0
  186.5350  177.2030  144.3980 N   0  0  0  0  0  0  0  0  0  0  0  0
  184.3920  178.3680  142.1540 C   0  0  0  0  0  0  0  0  0  0  0  0
  182.1070  178.8840  142.6370 N   0  0  0  0  0  0  0  0  0  0  0  0
  182.3910  179.0380  143.9570 C   0  0  0  0  0  3  0  0  0  0  0  0
  183.6970  178.8660  144.4180 C   0  0  0  0  0  3  0  0  0  0  0  0
  184.7100  178.5320  143.5180 C   0  0  0  0  0  0  0  0  0  0  0  0
  183.0680  178.5560  141.7270 C   0  0  0  0  0  0  0  0  0  0  0  0
  185.3500  178.0480  141.2440 F   0  0  0  0  0  0  0  0  0  0  0  0
  182.9580  179.6080  139.4700 C   0  0  0  0  0  0  0  0  0  0  0  0
  181.2320  178.2320  140.1060 C   0  0  0  0  0  3  0  0  0  0  0  0
  180.7360  179.1960  139.3340 C   0  0  0  0  0  3  0  0  0  0  0  0
  182.7220  178.3780  140.2730 C   0  0  2  0  0  3  0  0  0  0  0  0
  181.5340  181.3860  138.3110 C   0  0  0  0  0  1  0  0  0  0  0  0
  181.7560  180.0730  138.8880 N   0  0  0  0  0  0  0  0  0  0  0  0
  184.0730  180.1740  139.3190 O   0  0  0  0  0  0  0  0  0  0  0  0
  188.0830  177.9990  146.1130 C   0  0  0  0  0  2  0  0  0  0  0  0
  191.1850  176.6980  147.3570 C   0  0  0  0  0  0  0  0  0  0  0  0
  188.6390  177.2500  147.2740 C   0  0  0  0  0  3  0  0  0  0  0  0
  191.9720  177.1710  148.3960 O   0  0  0  0  0  1  0  0  0  0  0  0
  189.9120  176.9770  147.3250 C   0  0  0  0  0  0  0  0  0  0  0  0
  191.7860  175.8570  146.2790 C   0  0  0  0  0  2  0  0  0  0  0  0
  191.9010  175.6680  143.9020 O   0  0  0  0  0  1  0  0  0  0  0  0
  191.7440  176.5830  144.9430 C   0  0  0  0  0  2  0  0  0  0  0  0
  188.8910  177.3890  143.8500 C   0  0  0  0  0  2  0  0  0  0  0  0
  188.7900  176.4170  142.6830 C   0  0  0  0  0  2  0  0  0  0  0  0
  189.2440  177.0640  141.3800 C   0  0  0  0  0  2  0  0  0  0  0  0
  188.4900  178.3610  141.1060 C   0  0  0  0  0  2  0  0  0  0  0  0
  188.3710  178.5930  139.6740 N   0  0  0  0  0  2  0  0  0  0  0  0
  188.2580  177.3770  139.0880 O   0  0  0  0  0  0  0  0  0  0  0  0
  187.7640  177.6480  137.8100 C   0  0  2  0  0  3  0  0  0  0  0  0
  186.2850  177.9770  137.9140 C   0  0  0  0  0  1  0  0  0  0  0  0
  187.9790  176.4500  136.8840 C   0  0  2  0  0  3  0  0  0  0  0  0
  187.3080  175.3280  137.3790 O   0  0  0  0  0  1  0  0  0  0  0  0
  189.7550  176.0590  136.7440 P   0  0  2  0  0  0  0  0  0  0  0  0
  190.5720  177.2960  137.0440 O   0  0  0  0  0  1  0  0  0  0  0  0
  190.0780  175.5580  135.1610 O   0  0  0  0  0  0  0  0  0  0  0  0
  190.3550  173.6740  137.0190 C   0  0  0  0  0  1  0  0  0  0  0  0
  190.1810  174.8080  137.8130 O   0  0  0  0  0  0  0  0  0  0  0  0
  1 26  1  6  0  0  0
  1 18  1  0  0  0  0
  2  3  2  0  0  0  0
  3  1  1  0  0  0  0
  4  8  1  0  0  0  0
  5  6  2  0  0  0  0
  6  7  1  0  0  0  0
  8  2  1  0  0  0  0
  8  7  2  0  0  0  0
  9  4  2  0  0  0  0
  9  5  1  0  0  0  0
 10  4  1  0  0  0  0
 11 14  1  0  0  0  0
 12 14  1  0  0  0  0
 13 12  2  0  0  0  0
 14  9  1  1  0  0  0
 15 16  1  0  0  0  0
 16 13  1  0  0  0  0
 16 11  1  0  0  0  0
 17 11  2  0  0  0  0
 18 20  1  0  0  0  0
 19 21  1  0  0  0  0
 20 22  2  0  0  0  0
 22 19  2  0  0  0  0
 23 19  1  0  0  0  0
 24 25  1  0  0  0  0
 25 23  1  0  0  0  0
 27 26  1  0  0  0  0
 28 27  1  0  0  0  0
 29 28  1  0  0  0  0
 30 29  1  0  0  0  0
 31 30  1  0  0  0  0
 32 33  1  1  0  0  0
 32 31  1  0  0  0  0
 34 35  1  1  0  0  0
 34 32  1  0  0  0  0
 36 38  2  6  0  0  0
 36 34  1  0  0  0  0
 36 37  1  0  0  0  0
 36 40  1  0  0  0  0
 39 40  1  0  0  0  0
M  END
>  <MODEL>
1

>  <REMARK>
 VINA RESULT:      -7.6      0.000      0.000
  Name = 
  17 active torsions:
  status: ('A' for Active; 'I' for Inactive)
    1  A    between atoms: C_3  and  C_37
    2  A    between atoms: C_3  and  C_40
    3  A    between atoms: P_5  and  C_6
    4  A    between atoms: P_5  and  O_29
    5  A    between atoms: C_6  and  C_33
    6  A    between atoms: C_8  and  C_19
    7  A    between atoms: C_13  and  C_23
    8  A    between atoms: C_14  and  C_22
    9  A    between atoms: C_18  and  C_25
   10  A    between atoms: C_19  and  C_32
   11  A    between atoms: N_20  and  C_40
   12  A    between atoms: C_22  and  C_40
   13  A    between atoms: C_24  and  C_27
   14  A    between atoms: C_24  and  N_36
   15  A    between atoms: C_27  and  C_37
   16  A    between atoms: C_33  and  O_34
   17  A    between atoms: O_34  and  N_36
                            x       y       z     vdW  Elec       q    Type
                         _______ _______ _______ _____ _____    ______ ____

>  <TORSDO>
F 17

$$$$
=
 OpenBabel10222421593D

 40 41  0  0  1  0  0  0  0  0999 V2000
  184.3720  178.4500  144.2390 C   0  0  2  0  0  3  0  0  0  0  0  0
  185.1610  179.0730  142.0620 C   0  0  0  0  0  3  0  0  0  0  0  0
  184.9330  178.1430  142.9310 N   0  0  0  0  0  0  0  0  0  0  0  0
  187.0990  178.6360  140.4850 C   0  0  0  0  0  0  0  0  0  0  0  0
  186.6360  178.2260  138.1740 N   0  0  0  0  0  0  0  0  0  0  0  0
  185.3000  178.3510  138.3900 C   0  0  0  0  0  3  0  0  0  0  0  0
  184.8200  178.6310  139.6700 C   0  0  0  0  0  3  0  0  0  0  0  0
  185.7170  178.7780  140.7290 C   0  0  0  0  0  0  0  0  0  0  0  0
  187.5450  178.3610  139.1820 C   0  0  0  0  0  0  0  0  0  0  0  0
  188.0060  178.7760  141.4870 F   0  0  0  0  0  0  0  0  0  0  0  0
  189.3550  178.2850  137.4700 C   0  0  0  0  0  0  0  0  0  0  0  0
  189.4530  176.7920  139.2120 C   0  0  0  0  0  3  0  0  0  0  0  0
  189.9560  176.2050  138.1290 C   0  0  0  0  0  3  0  0  0  0  0  0
  189.0180  178.2030  138.9170 C   0  0  2  0  0  3  0  0  0  0  0  0
  190.1150  176.6790  135.6330 C   0  0  0  0  0  1  0  0  0  0  0  0
  189.9450  177.0830  137.0170 N   0  0  0  0  0  0  0  0  0  0  0  0
  189.1470  179.2840  136.7310 O   0  0  0  0  0  0  0  0  0  0  0  0
  183.2920  179.5150  144.1110 C   0  0  0  0  0  2  0  0  0  0  0  0
  180.7090  178.7830  141.7330 C   0  0  0  0  0  0  0  0  0  0  0  0
  181.9520  178.8710  144.0230 C   0  0  0  0  0  3  0  0  0  0  0  0
  180.3700  177.5630  141.1660 O   0  0  0  0  0  1  0  0  0  0  0  0
  181.3290  178.8180  142.8810 C   0  0  0  0  0  0  0  0  0  0  0  0
  180.3570  180.0590  141.0430 C   0  0  0  0  0  2  0  0  0  0  0  0
  180.1610  180.8950  138.8160 O   0  0  0  0  0  1  0  0  0  0  0  0
  180.9490  180.0960  139.6430 C   0  0  0  0  0  2  0  0  0  0  0  0
  185.4780  178.9690  145.1470 C   0  0  0  0  0  2  0  0  0  0  0  0
  185.1960  178.6400  146.6050 C   0  0  0  0  0  2  0  0  0  0  0  0
  186.4380  178.0960  147.3030 C   0  0  0  0  0  2  0  0  0  0  0  0
  187.6460  178.0930  146.3720 C   0  0  0  0  0  2  0  0  0  0  0  0
  188.7510  177.3570  146.9690 N   0  0  0  0  0  2  0  0  0  0  0  0
  189.8880  177.8320  146.4050 O   0  0  0  0  0  0  0  0  0  0  0  0
  190.6170  176.6880  146.0690 C   0  0  2  0  0  3  0  0  0  0  0  0
  191.4590  176.2750  147.2640 C   0  0  0  0  0  1  0  0  0  0  0  0
  191.5080  176.9550  144.8560 C   0  0  2  0  0  3  0  0  0  0  0  0
  191.9550  178.2800  144.8640 O   0  0  0  0  0  1  0  0  0  0  0  0
  190.5910  176.6520  143.3080 P   0  0  2  0  0  0  0  0  0  0  0  0
  190.5680  175.1680  143.0150 O   0  0  0  0  0  1  0  0  0  0  0  0
  191.3820  177.4510  142.0440 O   0  0  0  0  0  0  0  0  0  0  0  0
  188.1720  176.1340  143.2800 C   0  0  0  0  0  1  0  0  0  0  0  0
  189.0030  177.2460  143.4250 O   0  0  0  0  0  0  0  0  0  0  0  0
  1 18  1  6  0  0  0
  1 26  1  0  0  0  0
  2  3  2  0  0  0  0
  3  1  1  0  0  0  0
  4  8  1  0  0  0  0
  4 10  1  0  0  0  0
  5  6  2  0  0  0  0
  5  9  1  0  0  0  0
  6  7  1  0  0  0  0
  7  8  2  0  0  0  0
  8  2  1  0  0  0  0
  9  4  2  0  0  0  0
 11 14  1  0  0  0  0
 13 12  2  0  0  0  0
 14  9  1  6  0  0  0
 14 12  1  0  0  0  0
 15 16  1  0  0  0  0
 16 11  1  0  0  0  0
 16 13  1  0  0  0  0
 17 11  2  0  0  0  0
 19 22  2  0  0  0  0
 20 18  1  0  0  0  0
 21 19  1  0  0  0  0
 22 20  2  0  0  0  0
 23 19  1  0  0  0  0
 24 25  1  0  0  0  0
 25 23  1  0  0  0  0
 26 27  1  0  0  0  0
 27 28  1  0  0  0  0
 29 30  1  0  0  0  0
 29 28  1  0  0  0  0
 31 30  1  0  0  0  0
 32 31  1  0  0  0  0
 32 33  1  1  0  0  0
 34 35  1  6  0  0  0
 34 32  1  0  0  0  0
 36 38  2  6  0  0  0
 36 40  1  0  0  0  0
 36 34  1  0  0  0  0
 37 36  1  0  0  0  0
 39 40  1  0  0  0  0
M  END
>  <MODEL>
2

>  <REMARK>
 VINA RESULT:      -7.4      2.575      7.921
  Name = 
  17 active torsions:
  status: ('A' for Active; 'I' for Inactive)
    1  A    between atoms: C_3  and  C_37
    2  A    between atoms: C_3  and  C_40
    3  A    between atoms: P_5  and  C_6
    4  A    between atoms: P_5  and  O_29
    5  A    between atoms: C_6  and  C_33
    6  A    between atoms: C_8  and  C_19
    7  A    between atoms: C_13  and  C_23
    8  A    between atoms: C_14  and  C_22
    9  A    between atoms: C_18  and  C_25
   10  A    between atoms: C_19  and  C_32
   11  A    between atoms: N_20  and  C_40
   12  A    between atoms: C_22  and  C_40
   13  A    between atoms: C_24  and  C_27
   14  A    between atoms: C_24  and  N_36
   15  A    between atoms: C_27  and  C_37
   16  A    between atoms: C_33  and  O_34
   17  A    between atoms: O_34  and  N_36
                            x       y       z     vdW  Elec       q    Type
                         _______ _______ _______ _____ _____    ______ ____

>  <TORSDO>
F 17

$$$$
=
 OpenBabel10222421593D

 40 41  0  0  1  0  0  0  0  0999 V2000
  186.5110  177.8190  145.6960 C   0  0  2  0  0  3  0  0  0  0  0  0
  184.9750  178.8300  144.1560 C   0  0  0  0  0  3  0  0  0  0  0  0
  185.3670  177.7760  144.7980 N   0  0  0  0  0  0  0  0  0  0  0  0
  183.9230  178.6180  141.8590 C   0  0  0  0  0  0  0  0  0  0  0  0
  181.5450  178.7890  141.6590 N   0  0  0  0  0  0  0  0  0  0  0  0
  181.4160  178.9640  143.0010 C   0  0  0  0  0  3  0  0  0  0  0  0
  182.5470  178.9780  143.8180 C   0  0  0  0  0  3  0  0  0  0  0  0
  183.8110  178.8080  143.2520 C   0  0  0  0  0  0  0  0  0  0  0  0
  182.7620  178.6170  141.0680 C   0  0  0  0  0  0  0  0  0  0  0  0
  185.1350  178.4530  141.2680 F   0  0  0  0  0  0  0  0  0  0  0  0
  182.7910  179.6830  138.8160 C   0  0  0  0  0  0  0  0  0  0  0  0
  181.6490  177.7050  139.0610 C   0  0  0  0  0  3  0  0  0  0  0  0
  181.0140  178.4460  138.1550 C   0  0  0  0  0  3  0  0  0  0  0  0
  182.8740  178.4100  139.5820 C   0  0  2  0  0  3  0  0  0  0  0  0
  181.1050  180.8330  137.2780 C   0  0  0  0  0  1  0  0  0  0  0  0
  181.6810  179.6780  137.9400 N   0  0  0  0  0  0  0  0  0  0  0  0
  183.5930  180.6480  138.9220 O   0  0  0  0  0  0  0  0  0  0  0  0
  186.3230  178.9140  146.7370 C   0  0  0  0  0  2  0  0  0  0  0  0
  189.4090  177.7340  148.1320 C   0  0  0  0  0  0  0  0  0  0  0  0
  186.9160  178.4880  148.0350 C   0  0  0  0  0  3  0  0  0  0  0  0
  190.3160  178.4110  148.9340 O   0  0  0  0  0  1  0  0  0  0  0  0
  188.1630  178.1160  148.0920 C   0  0  0  0  0  0  0  0  0  0  0  0
  189.8490  176.5580  147.3230 C   0  0  0  0  0  2  0  0  0  0  0  0
  191.8830  177.1350  146.2150 O   0  0  0  0  0  1  0  0  0  0  0  0
  191.3650  176.4480  147.3140 C   0  0  0  0  0  2  0  0  0  0  0  0
  187.7690  178.1100  144.8890 C   0  0  0  0  0  2  0  0  0  0  0  0
  188.1660  176.9160  144.0350 C   0  0  0  0  0  2  0  0  0  0  0  0
  189.6060  177.0330  143.5510 C   0  0  0  0  0  2  0  0  0  0  0  0
  190.0120  175.8330  142.7030 C   0  0  0  0  0  2  0  0  0  0  0  0
  190.5710  176.2680  141.4310 N   0  0  0  0  0  2  0  0  0  0  0  0
  189.6490  177.0770  140.8540 O   0  0  0  0  0  0  0  0  0  0  0  0
  189.8130  176.8730  139.4820 C   0  0  2  0  0  3  0  0  0  0  0  0
  191.2980  176.8400  139.1650 C   0  0  0  0  0  1  0  0  0  0  0  0
  189.1230  177.9810  138.6870 C   0  0  2  0  0  3  0  0  0  0  0  0
  188.1390  178.5980  139.4670 O   0  0  0  0  0  1  0  0  0  0  0  0
  188.3410  177.3020  137.1850 P   0  0  2  0  0  0  0  0  0  0  0  0
  187.7080  175.9650  137.5040 O   0  0  0  0  0  1  0  0  0  0  0  0
  189.5340  177.0790  136.0060 O   0  0  0  0  0  0  0  0  0  0  0  0
  186.0370  177.5910  136.3310 C   0  0  0  0  0  1  0  0  0  0  0  0
  187.1670  178.3720  136.5820 O   0  0  0  0  0  0  0  0  0  0  0  0
  1 26  1  6  0  0  0
  1 18  1  0  0  0  0
  2  3  2  0  0  0  0
  3  1  1  0  0  0  0
  4  8  1  0  0  0  0
  5  6  2  0  0  0  0
  6  7  1  0  0  0  0
  8  7  2  0  0  0  0
  8  2  1  0  0  0  0
  9  5  1  0  0  0  0
  9  4  2  0  0  0  0
 10  4  1  0  0  0  0
 11 17  2  0  0  0  0
 11 14  1  0  0  0  0
 12 14  1  0  0  0  0
 13 12  2  0  0  0  0
 14  9  1  1  0  0  0
 15 16  1  0  0  0  0
 16 13  1  0  0  0  0
 16 11  1  0  0  0  0
 18 20  1  0  0  0  0
 19 21  1  0  0  0  0
 20 22  2  0  0  0  0
 22 19  2  0  0  0  0
 23 19  1  0  0  0  0
 24 25  1  0  0  0  0
 25 23  1  0  0  0  0
 27 26  1  0  0  0  0
 28 27  1  0  0  0  0
 29 28  1  0  0  0  0
 30 29  1  0  0  0  0
 31 30  1  0  0  0  0
 32 33  1  1  0  0  0
 32 31  1  0  0  0  0
 34 35  1  1  0  0  0
 34 32  1  0  0  0  0
 36 38  2  6  0  0  0
 36 37  1  0  0  0  0
 36 34  1  0  0  0  0
 39 40  1  0  0  0  0
 40 36  1  0  0  0  0
M  END
>  <MODEL>
3

>  <REMARK>
 VINA RESULT:      -7.2      1.664      2.432
  Name = 
  17 active torsions:
  status: ('A' for Active; 'I' for Inactive)
    1  A    between atoms: C_3  and  C_37
    2  A    between atoms: C_3  and  C_40
    3  A    between atoms: P_5  and  C_6
    4  A    between atoms: P_5  and  O_29
    5  A    between atoms: C_6  and  C_33
    6  A    between atoms: C_8  and  C_19
    7  A    between atoms: C_13  and  C_23
    8  A    between atoms: C_14  and  C_22
    9  A    between atoms: C_18  and  C_25
   10  A    between atoms: C_19  and  C_32
   11  A    between atoms: N_20  and  C_40
   12  A    between atoms: C_22  and  C_40
   13  A    between atoms: C_24  and  C_27
   14  A    between atoms: C_24  and  N_36
   15  A    between atoms: C_27  and  C_37
   16  A    between atoms: C_33  and  O_34
   17  A    between atoms: O_34  and  N_36
                            x       y       z     vdW  Elec       q    Type
                         _______ _______ _______ _____ _____    ______ ____

>  <TORSDO>
F 17

$$$$
=
 OpenBabel10222421593D

 40 41  0  0  1  0  0  0  0  0999 V2000
  191.4290  176.5840  138.8970 C   0  0  2  0  0  3  0  0  0  0  0  0
  190.5000  176.6600  141.1070 C   0  0  0  0  0  3  0  0  0  0  0  0
  191.3100  177.1580  140.2290 N   0  0  0  0  0  0  0  0  0  0  0  0
  189.4370  176.7490  143.4070 C   0  0  0  0  0  0  0  0  0  0  0  0
  190.1850  178.4080  144.9600 N   0  0  0  0  0  0  0  0  0  0  0  0
  191.0850  178.8860  144.0600 C   0  0  0  0  0  3  0  0  0  0  0  0
  191.1840  178.3080  142.7930 C   0  0  0  0  0  3  0  0  0  0  0  0
  190.3580  177.2360  142.4560 C   0  0  0  0  0  0  0  0  0  0  0  0
  189.3620  177.3610  144.6690 C   0  0  0  0  0  0  0  0  0  0  0  0
  188.6110  175.7100  143.1160 F   0  0  0  0  0  0  0  0  0  0  0  0
  187.0590  177.5130  145.6100 C   0  0  0  0  0  0  0  0  0  0  0  0
  188.8090  177.2580  147.0740 C   0  0  0  0  0  3  0  0  0  0  0  0
  187.8780  178.0060  147.6610 C   0  0  0  0  0  3  0  0  0  0  0  0
  188.3850  176.8440  145.6900 C   0  0  2  0  0  3  0  0  0  0  0  0
  185.7230  179.1880  147.0030 C   0  0  0  0  0  1  0  0  0  0  0  0
  186.7560  178.1870  146.8160 N   0  0  0  0  0  0  0  0  0  0  0  0
  186.2950  177.4950  144.6090 O   0  0  0  0  0  0  0  0  0  0  0  0
  192.8820  176.6020  138.4430 C   0  0  0  0  0  2  0  0  0  0  0  0
  195.2650  173.9220  138.4170 C   0  0  0  0  0  0  0  0  0  0  0  0
  193.2000  175.3460  137.7090 C   0  0  0  0  0  3  0  0  0  0  0  0
  195.1020  172.6090  138.8350 O   0  0  0  0  0  1  0  0  0  0  0  0
  194.2270  174.6260  138.0620 C   0  0  0  0  0  0  0  0  0  0  0  0
  196.6270  174.5310  138.3590 C   0  0  0  0  0  2  0  0  0  0  0  0
  198.4640  174.9340  136.8890 O   0  0  0  0  0  1  0  0  0  0  0  0
  197.0950  174.6690  136.9190 C   0  0  0  0  0  2  0  0  0  0  0  0
  190.5930  177.4030  137.9240 C   0  0  0  0  0  2  0  0  0  0  0  0
  189.6840  176.5120  137.0900 C   0  0  0  0  0  2  0  0  0  0  0  0
  188.7470  177.3370  136.2150 C   0  0  0  0  0  2  0  0  0  0  0  0
  188.2700  178.5940  136.9360 C   0  0  0  0  0  2  0  0  0  0  0  0
  186.8160  178.6610  136.9410 N   0  0  0  0  0  2  0  0  0  0  0  0
  186.4370  178.8560  138.2270 O   0  0  0  0  0  0  0  0  0  0  0  0
  185.2960  178.0640  138.3820 C   0  0  2  0  0  3  0  0  0  0  0  0
  184.9710  177.4090  137.0510 C   0  0  0  0  0  1  0  0  0  0  0  0
  184.1160  178.9080  138.8630 C   0  0  2  0  0  3  0  0  0  0  0  0
  184.5490  180.1880  139.2230 O   0  0  0  0  0  1  0  0  0  0  0  0
  183.3190  178.1300  140.3080 P   0  0  2  0  0  0  0  0  0  0  0  0
  182.9140  176.7140  139.9620 O   0  0  0  0  0  0  0  0  0  0  0  0
  181.9340  179.0160  140.7070 O   0  0  0  0  0  1  0  0  0  0  0  0
  183.6660  178.7340  142.6830 C   0  0  0  0  0  1  0  0  0  0  0  0
  184.3700  178.1230  141.6430 O   0  0  0  0  0  0  0  0  0  0  0  0
  1 26  1  6  0  0  0
  1  3  1  0  0  0  0
  2  8  1  0  0  0  0
  3  2  2  0  0  0  0
  4  9  1  0  0  0  0
  6  5  1  0  0  0  0
  7  6  2  0  0  0  0
  8  7  1  0  0  0  0
  8  4  2  0  0  0  0
  9  5  2  0  0  0  0
 10  4  1  0  0  0  0
 11 14  1  0  0  0  0
 11 16  1  0  0  0  0
 12 13  2  0  0  0  0
 14  9  1  6  0  0  0
 14 12  1  0  0  0  0
 16 15  1  0  0  0  0
 16 13  1  0  0  0  0
 17 11  2  0  0  0  0
 18  1  1  0  0  0  0
 19 21  1  0  0  0  0
 20 22  2  0  0  0  0
 20 18  1  0  0  0  0
 22 19  2  0  0  0  0
 23 19  1  0  0  0  0
 24 25  1  0  0  0  0
 25 23  1  0  0  0  0
 27 26  1  0  0  0  0
 28 29  1  0  0  0  0
 28 27  1  0  0  0  0
 29 30  1  0  0  0  0
 30 31  1  0  0  0  0
 31 32  1  0  0  0  0
 32 33  1  6  0  0  0
 32 34  1  0  0  0  0
 34 35  1  1  0  0  0
 34 36  1  0  0  0  0
 36 37  2  6  0  0  0
 36 38  1  0  0  0  0
 36 40  1  0  0  0  0
 40 39  1  0  0  0  0
M  END
>  <MODEL>
4

>  <REMARK>
 VINA RESULT:      -7.1      3.588      7.827
  Name = 
  17 active torsions:
  status: ('A' for Active; 'I' for Inactive)
    1  A    between atoms: C_3  and  C_37
    2  A    between atoms: C_3  and  C_40
    3  A    between atoms: P_5  and  C_6
    4  A    between atoms: P_5  and  O_29
    5  A    between atoms: C_6  and  C_33
    6  A    between atoms: C_8  and  C_19
    7  A    between atoms: C_13  and  C_23
    8  A    between atoms: C_14  and  C_22
    9  A    between atoms: C_18  and  C_25
   10  A    between atoms: C_19  and  C_32
   11  A    between atoms: N_20  and  C_40
   12  A    between atoms: C_22  and  C_40
   13  A    between atoms: C_24  and  C_27
   14  A    between atoms: C_24  and  N_36
   15  A    between atoms: C_27  and  C_37
   16  A    between atoms: C_33  and  O_34
   17  A    between atoms: O_34  and  N_36
                            x       y       z     vdW  Elec       q    Type
                         _______ _______ _______ _____ _____    ______ ____

>  <TORSDO>
F 17

$$$$
=
 OpenBabel10222421593D

 40 41  0  0  1  0  0  0  0  0999 V2000
  183.5110  178.4400  144.1180 C   0  0  2  0  0  3  0  0  0  0  0  0
  184.7360  179.0060  142.1360 C   0  0  0  0  0  3  0  0  0  0  0  0
  184.5260  178.1790  143.1090 N   0  0  0  0  0  0  0  0  0  0  0  0
  185.4370  178.6240  139.7290 C   0  0  0  0  0  0  0  0  0  0  0  0
  187.7540  178.2730  139.2450 N   0  0  0  0  0  0  0  0  0  0  0  0
  188.0780  178.4030  140.5590 C   0  0  0  0  0  3  0  0  0  0  0  0
  187.0820  178.6430  141.5060 C   0  0  0  0  0  3  0  0  0  0  0  0
  185.7510  178.7530  141.0990 C   0  0  0  0  0  0  0  0  0  0  0  0
  186.4670  178.3760  138.8070 C   0  0  0  0  0  0  0  0  0  0  0  0
  184.1550  178.7190  139.2920 F   0  0  0  0  0  0  0  0  0  0  0  0
  185.9930  176.8260  136.9140 C   0  0  0  0  0  0  0  0  0  0  0  0
  187.3200  178.6550  136.5060 C   0  0  0  0  0  3  0  0  0  0  0  0
  187.7400  177.6530  135.7360 C   0  0  0  0  0  3  0  0  0  0  0  0
  186.1390  178.2420  137.3440 C   0  0  2  0  0  3  0  0  0  0  0  0
  187.3110  175.1560  135.4990 C   0  0  0  0  0  1  0  0  0  0  0  0
  186.9470  176.4940  135.9240 N   0  0  0  0  0  0  0  0  0  0  0  0
  185.1390  176.0150  137.3620 O   0  0  0  0  0  0  0  0  0  0  0  0
  182.5710  179.5410  143.6480 C   0  0  0  0  0  2  0  0  0  0  0  0
  180.6360  178.9600  140.6850 C   0  0  0  0  0  0  0  0  0  0  0  0
  181.2750  178.9520  143.2120 C   0  0  0  0  0  3  0  0  0  0  0  0
  180.4090  177.7670  140.0150 O   0  0  0  0  0  1  0  0  0  0  0  0
  180.9530  178.9460  141.9500 C   0  0  0  0  0  0  0  0  0  0  0  0
  180.5070  180.2630  139.9680 C   0  0  0  0  0  2  0  0  0  0  0  0
  182.1760  181.2120  138.5490 O   0  0  0  0  0  1  0  0  0  0  0  0
  181.2090  180.2090  138.6200 C   0  0  0  0  0  2  0  0  0  0  0  0
  184.1890  178.8810  145.4070 C   0  0  0  0  0  2  0  0  0  0  0  0
  185.5590  178.2360  145.5590 C   0  0  0  0  0  2  0  0  0  0  0  0
  186.4250  178.9990  146.5550 C   0  0  0  0  0  2  0  0  0  0  0  0
  187.1240  178.0550  147.5280 C   0  0  0  0  0  2  0  0  0  0  0  0
  188.0650  177.1970  146.8230 N   0  0  0  0  0  2  0  0  0  0  0  0
  189.0940  177.9850  146.4280 O   0  0  0  0  0  0  0  0  0  0  0  0
  190.0200  177.1000  145.8690 C   0  0  2  0  0  3  0  0  0  0  0  0
  190.9890  176.6560  146.9510 C   0  0  0  0  0  1  0  0  0  0  0  0
  190.7740  177.7650  144.7180 C   0  0  2  0  0  3  0  0  0  0  0  0
  189.9950  178.7780  144.1490 O   0  0  0  0  0  1  0  0  0  0  0  0
  191.1810  176.5420  143.4270 P   0  0  2  0  0  0  0  0  0  0  0  0
  189.9060  176.0150  142.8070 O   0  0  0  0  0  0  0  0  0  0  0  0
  192.0170  175.2560  144.1420 O   0  0  0  0  0  1  0  0  0  0  0  0
  191.3900  177.2590  141.0680 C   0  0  0  0  0  1  0  0  0  0  0  0
  192.1660  177.2380  142.2290 O   0  0  0  0  0  0  0  0  0  0  0  0
  1 18  1  6  0  0  0
  1 26  1  0  0  0  0
  2  3  2  0  0  0  0
  3  1  1  0  0  0  0
  4  8  1  0  0  0  0
  5  6  2  0  0  0  0
  6  7  1  0  0  0  0
  8  7  2  0  0  0  0
  8  2  1  0  0  0  0
  9  5  1  0  0  0  0
  9  4  2  0  0  0  0
 10  4  1  0  0  0  0
 11 14  1  0  0  0  0
 11 17  2  0  0  0  0
 12 14  1  0  0  0  0
 13 16  1  0  0  0  0
 13 12  2  0  0  0  0
 14  9  1  1  0  0  0
 15 16  1  0  0  0  0
 16 11  1  0  0  0  0
 19 22  2  0  0  0  0
 20 18  1  0  0  0  0
 21 19  1  0  0  0  0
 22 20  2  0  0  0  0
 23 19  1  0  0  0  0
 24 25  1  0  0  0  0
 25 23  1  0  0  0  0
 26 27  1  0  0  0  0
 27 28  1  0  0  0  0
 28 29  1  0  0  0  0
 30 29  1  0  0  0  0
 31 30  1  0  0  0  0
 32 31  1  0  0  0  0
 32 33  1  1  0  0  0
 34 35  1  6  0  0  0
 34 32  1  0  0  0  0
 36 37  2  6  0  0  0
 36 38  1  0  0  0  0
 36 34  1  0  0  0  0
 39 40  1  0  0  0  0
 40 36  1  0  0  0  0
M  END
>  <MODEL>
5

>  <REMARK>
 VINA RESULT:      -7.0      2.719      7.686
  Name = 
  17 active torsions:
  status: ('A' for Active; 'I' for Inactive)
    1  A    between atoms: C_3  and  C_37
    2  A    between atoms: C_3  and  C_40
    3  A    between atoms: P_5  and  C_6
    4  A    between atoms: P_5  and  O_29
    5  A    between atoms: C_6  and  C_33
    6  A    between atoms: C_8  and  C_19
    7  A    between atoms: C_13  and  C_23
    8  A    between atoms: C_14  and  C_22
    9  A    between atoms: C_18  and  C_25
   10  A    between atoms: C_19  and  C_32
   11  A    between atoms: N_20  and  C_40
   12  A    between atoms: C_22  and  C_40
   13  A    between atoms: C_24  and  C_27
   14  A    between atoms: C_24  and  N_36
   15  A    between atoms: C_27  and  C_37
   16  A    between atoms: C_33  and  O_34
   17  A    between atoms: O_34  and  N_36
                            x       y       z     vdW  Elec       q    Type
                         _______ _______ _______ _____ _____    ______ ____

>  <TORSDO>
F 17

$$$$
=
 OpenBabel10222421593D

 40 41  0  0  1  0  0  0  0  0999 V2000
  187.4010  177.9710  143.1070 C   0  0  2  0  0  3  0  0  0  0  0  0
  188.5280  178.3790  141.0300 C   0  0  0  0  0  3  0  0  0  0  0  0
  187.9570  177.5400  141.8330 N   0  0  0  0  0  0  0  0  0  0  0  0
  190.0790  176.9700  139.6030 C   0  0  0  0  0  0  0  0  0  0  0  0
  190.0540  177.2700  137.2290 N   0  0  0  0  0  0  0  0  0  0  0  0
  189.0900  178.2230  137.3310 C   0  0  0  0  0  3  0  0  0  0  0  0
  188.5920  178.5850  138.5840 C   0  0  0  0  0  3  0  0  0  0  0  0
  189.0850  177.9620  139.7310 C   0  0  0  0  0  0  0  0  0  0  0  0
  190.5600  176.6370  138.3260 C   0  0  0  0  0  0  0  0  0  0  0  0
  190.5890  176.3420  140.6950 F   0  0  0  0  0  0  0  0  0  0  0  0
  192.9520  176.1340  137.8350 C   0  0  0  0  0  0  0  0  0  0  0  0
  191.3520  174.7390  136.9580 C   0  0  0  0  0  3  0  0  0  0  0  0
  192.3660  174.8080  136.0970 C   0  0  0  0  0  3  0  0  0  0  0  0
  191.6170  175.5760  138.1820 C   0  0  2  0  0  3  0  0  0  0  0  0
  194.4840  176.1850  135.7910 C   0  0  0  0  0  1  0  0  0  0  0  0
  193.4010  175.6410  136.5890 N   0  0  0  0  0  0  0  0  0  0  0  0
  193.6070  176.9420  138.5450 O   0  0  0  0  0  0  0  0  0  0  0  0
  187.8470  177.0350  144.2210 C   0  0  0  0  0  2  0  0  0  0  0  0
  189.9600  177.1110  147.1180 C   0  0  0  0  0  0  0  0  0  0  0  0
  189.2450  177.3550  144.6240 C   0  0  0  0  0  3  0  0  0  0  0  0
  190.9800  176.2400  147.4730 O   0  0  0  0  0  1  0  0  0  0  0  0
  189.6110  177.2280  145.8670 C   0  0  0  0  0  0  0  0  0  0  0  0
  189.2680  177.9260  148.1600 C   0  0  0  0  0  2  0  0  0  0  0  0
  187.0140  178.5470  147.6790 O   0  0  0  0  0  1  0  0  0  0  0  0
  187.7980  177.5460  148.2520 C   0  0  0  0  0  2  0  0  0  0  0  0
  185.8810  177.9530  143.0200 C   0  0  0  0  0  2  0  0  0  0  0  0
  185.2480  178.3610  144.3420 C   0  0  0  0  0  2  0  0  0  0  0  0
  183.8260  178.8730  144.1420 C   0  0  0  0  0  2  0  0  0  0  0  0
  183.3850  178.7490  142.6870 C   0  0  0  0  0  2  0  0  0  0  0  0
  181.9450  178.9220  142.5700 N   0  0  0  0  0  2  0  0  0  0  0  0
  181.5500  178.2050  141.4910 O   0  0  0  0  0  0  0  0  0  0  0  0
  181.5480  179.1240  140.4390 C   0  0  2  0  0  3  0  0  0  0  0  0
  180.3650  180.0610  140.6090 C   0  0  0  0  0  1  0  0  0  0  0  0
  181.4690  178.4030  139.0930 C   0  0  2  0  0  3  0  0  0  0  0  0
  180.3850  177.5190  139.0790 O   0  0  0  0  0  1  0  0  0  0  0  0
  182.9990  177.4630  138.7790 P   0  0  2  0  0  0  0  0  0  0  0  0
  182.9040  176.1050  139.4390 O   0  0  0  0  0  0  0  0  0  0  0  0
  184.3030  178.3080  139.4460 O   0  0  0  0  0  1  0  0  0  0  0  0
  184.5930  176.8850  136.9750 C   0  0  0  0  0  1  0  0  0  0  0  0
  183.2600  177.2800  137.1090 O   0  0  0  0  0  0  0  0  0  0  0  0
  1 26  1  6  0  0  0
  1 18  1  0  0  0  0
  2  3  2  0  0  0  0
  3  1  1  0  0  0  0
  4  8  1  0  0  0  0
  4 10  1  0  0  0  0
  5  6  2  0  0  0  0
  5  9  1  0  0  0  0
  6  7  1  0  0  0  0
  7  8  2  0  0  0  0
  8  2  1  0  0  0  0
  9  4  2  0  0  0  0
 11 14  1  0  0  0  0
 11 17  2  0  0  0  0
 12 14  1  0  0  0  0
 13 16  1  0  0  0  0
 13 12  2  0  0  0  0
 14  9  1  6  0  0  0
 15 16  1  0  0  0  0
 16 11  1  0  0  0  0
 18 20  1  0  0  0  0
 19 21  1  0  0  0  0
 19 23  1  0  0  0  0
 20 22  2  0  0  0  0
 22 19  2  0  0  0  0
 23 25  1  0  0  0  0
 24 25  1  0  0  0  0
 26 27  1  0  0  0  0
 28 27  1  0  0  0  0
 29 28  1  0  0  0  0
 30 29  1  0  0  0  0
 31 30  1  0  0  0  0
 32 33  1  1  0  0  0
 32 31  1  0  0  0  0
 34 35  1  1  0  0  0
 34 32  1  0  0  0  0
 36 34  1  0  0  0  0
 36 37  2  1  0  0  0
 36 38  1  0  0  0  0
 39 40  1  0  0  0  0
 40 36  1  0  0  0  0
M  END
>  <MODEL>
6

>  <REMARK>
 VINA RESULT:      -6.9      2.959      7.397
  Name = 
  17 active torsions:
  status: ('A' for Active; 'I' for Inactive)
    1  A    between atoms: C_3  and  C_37
    2  A    between atoms: C_3  and  C_40
    3  A    between atoms: P_5  and  C_6
    4  A    between atoms: P_5  and  O_29
    5  A    between atoms: C_6  and  C_33
    6  A    between atoms: C_8  and  C_19
    7  A    between atoms: C_13  and  C_23
    8  A    between atoms: C_14  and  C_22
    9  A    between atoms: C_18  and  C_25
   10  A    between atoms: C_19  and  C_32
   11  A    between atoms: N_20  and  C_40
   12  A    between atoms: C_22  and  C_40
   13  A    between atoms: C_24  and  C_27
   14  A    between atoms: C_24  and  N_36
   15  A    between atoms: C_27  and  C_37
   16  A    between atoms: C_33  and  O_34
   17  A    between atoms: O_34  and  N_36
                            x       y       z     vdW  Elec       q    Type
                         _______ _______ _______ _____ _____    ______ ____

>  <TORSDO>
F 17

$$$$
=
 OpenBabel10222421593D

 40 41  0  0  1  0  0  0  0  0999 V2000
  187.6040  177.7820  143.1010 C   0  0  2  0  0  3  0  0  0  0  0  0
  188.8290  178.2360  141.0900 C   0  0  0  0  0  3  0  0  0  0  0  0
  188.0210  177.4640  141.7430 N   0  0  0  0  0  0  0  0  0  0  0  0
  190.1880  176.9290  139.3930 C   0  0  0  0  0  0  0  0  0  0  0  0
  189.9670  177.4740  137.0740 N   0  0  0  0  0  0  0  0  0  0  0  0
  189.0570  178.4430  137.3580 C   0  0  0  0  0  3  0  0  0  0  0  0
  188.6870  178.6910  138.6810 C   0  0  0  0  0  3  0  0  0  0  0  0
  189.2520  177.9370  139.7100 C   0  0  0  0  0  0  0  0  0  0  0  0
  190.5400  176.7140  138.0510 C   0  0  0  0  0  0  0  0  0  0  0  0
  190.7640  176.1760  140.3660 F   0  0  0  0  0  0  0  0  0  0  0  0
  192.9050  176.1710  137.4790 C   0  0  0  0  0  0  0  0  0  0  0  0
  191.2380  175.0740  136.3410 C   0  0  0  0  0  3  0  0  0  0  0  0
  192.2660  175.2470  135.5140 C   0  0  0  0  0  3  0  0  0  0  0  0
  191.5340  175.6380  137.7060 C   0  0  2  0  0  3  0  0  0  0  0  0
  194.4680  176.5240  135.4890 C   0  0  0  0  0  1  0  0  0  0  0  0
  193.3420  175.9030  136.1620 N   0  0  0  0  0  0  0  0  0  0  0  0
  193.5970  176.7840  138.3350 O   0  0  0  0  0  0  0  0  0  0  0  0
  188.1660  176.7580  144.0770 C   0  0  0  0  0  2  0  0  0  0  0  0
  187.4280  178.0370  147.3460 C   0  0  0  0  0  0  0  0  0  0  0  0
  188.8200  177.4530  145.2210 C   0  0  0  0  0  3  0  0  0  0  0  0
  187.7870  177.5210  148.5830 O   0  0  0  0  0  1  0  0  0  0  0  0
  188.1320  177.7420  146.2890 C   0  0  0  0  0  0  0  0  0  0  0  0
  186.2470  178.9410  147.2210 C   0  0  0  0  0  2  0  0  0  0  0  0
  184.2250  179.1550  145.9700 O   0  0  0  0  0  1  0  0  0  0  0  0
  185.0880  178.2230  146.5470 C   0  0  0  0  0  2  0  0  0  0  0  0
  186.0830  177.7570  143.1750 C   0  0  0  0  0  2  0  0  0  0  0  0
  185.4690  178.8030  142.2560 C   0  0  0  0  0  2  0  0  0  0  0  0
  184.2970  178.2300  141.4680 C   0  0  0  0  0  2  0  0  0  0  0  0
  183.8770  179.1580  140.3330 C   0  0  0  0  0  2  0  0  0  0  0  0
  183.2430  178.4040  139.2610 N   0  0  0  0  0  2  0  0  0  0  0  0
  184.1210  177.4430  138.8850 O   0  0  0  0  0  0  0  0  0  0  0  0
  183.7510  177.1220  137.5770 C   0  0  2  0  0  3  0  0  0  0  0  0
  182.6080  178.0280  137.1540 C   0  0  0  0  0  1  0  0  0  0  0  0
  183.3310  175.6550  137.4810 C   0  0  2  0  0  3  0  0  0  0  0  0
  183.0470  175.1470  138.7530 O   0  0  0  0  0  1  0  0  0  0  0  0
  184.6600  174.6550  136.7320 P   0  0  2  0  0  0  0  0  0  0  0  0
  184.1170  173.9060  135.5350 O   0  0  0  0  0  0  0  0  0  0  0  0
  185.2100  173.5380  137.8770 O   0  0  0  0  0  1  0  0  0  0  0  0
  187.0690  175.1740  136.9660 C   0  0  0  0  0  1  0  0  0  0  0  0
  185.9600  175.6420  136.2580 O   0  0  0  0  0  0  0  0  0  0  0  0
  1 26  1  6  0  0  0
  1 18  1  0  0  0  0
  2  3  2  0  0  0  0
  3  1  1  0  0  0  0
  4  8  1  0  0  0  0
  4 10  1  0  0  0  0
  5  6  2  0  0  0  0
  5  9  1  0  0  0  0
  6  7  1  0  0  0  0
  7  8  2  0  0  0  0
  8  2  1  0  0  0  0
  9  4  2  0  0  0  0
 11 14  1  0  0  0  0
 11 17  2  0  0  0  0
 12 14  1  0  0  0  0
 13 16  1  0  0  0  0
 13 12  2  0  0  0  0
 14  9  1  6  0  0  0
 15 16  1  0  0  0  0
 16 11  1  0  0  0  0
 18 20  1  0  0  0  0
 19 21  1  0  0  0  0
 20 22  2  0  0  0  0
 22 19  2  0  0  0  0
 23 19  1  0  0  0  0
 24 25  1  0  0  0  0
 25 23  1  0  0  0  0
 27 26  1  0  0  0  0
 28 27  1  0  0  0  0
 29 28  1  0  0  0  0
 30 29  1  0  0  0  0
 31 30  1  0  0  0  0
 32 33  1  1  0  0  0
 32 31  1  0  0  0  0
 34 32  1  0  0  0  0
 34 35  1  1  0  0  0
 36 37  2  6  0  0  0
 36 34  1  0  0  0  0
 36 38  1  0  0  0  0
 40 36  1  0  0  0  0
 40 39  1  0  0  0  0
M  END
>  <MODEL>
7

>  <REMARK>
 VINA RESULT:      -6.7      3.121      7.015
  Name = 
  17 active torsions:
  status: ('A' for Active; 'I' for Inactive)
    1  A    between atoms: C_3  and  C_37
    2  A    between atoms: C_3  and  C_40
    3  A    between atoms: P_5  and  C_6
    4  A    between atoms: P_5  and  O_29
    5  A    between atoms: C_6  and  C_33
    6  A    between atoms: C_8  and  C_19
    7  A    between atoms: C_13  and  C_23
    8  A    between atoms: C_14  and  C_22
    9  A    between atoms: C_18  and  C_25
   10  A    between atoms: C_19  and  C_32
   11  A    between atoms: N_20  and  C_40
   12  A    between atoms: C_22  and  C_40
   13  A    between atoms: C_24  and  C_27
   14  A    between atoms: C_24  and  N_36
   15  A    between atoms: C_27  and  C_37
   16  A    between atoms: C_33  and  O_34
   17  A    between atoms: O_34  and  N_36
                            x       y       z     vdW  Elec       q    Type
                         _______ _______ _______ _____ _____    ______ ____

>  <TORSDO>
F 17

$$$$
=
 OpenBabel10222421593D

 40 41  0  0  1  0  0  0  0  0999 V2000
  186.9170  178.0510  143.0800 C   0  0  2  0  0  3  0  0  0  0  0  0
  188.3770  178.3700  141.2050 C   0  0  0  0  0  3  0  0  0  0  0  0
  187.4830  177.6500  141.8010 N   0  0  0  0  0  0  0  0  0  0  0  0
  189.9290  176.9780  139.7610 C   0  0  0  0  0  0  0  0  0  0  0  0
  189.9560  177.3570  137.4000 N   0  0  0  0  0  0  0  0  0  0  0  0
  189.0090  178.3250  137.5140 C   0  0  0  0  0  3  0  0  0  0  0  0
  188.4930  178.6560  138.7690 C   0  0  0  0  0  3  0  0  0  0  0  0
  188.9520  177.9860  139.9040 C   0  0  0  0  0  0  0  0  0  0  0  0
  190.4290  176.6780  138.4840 C   0  0  0  0  0  0  0  0  0  0  0  0
  190.4060  176.3060  140.8420 F   0  0  0  0  0  0  0  0  0  0  0  0
  192.8050  176.1410  137.9580 C   0  0  0  0  0  0  0  0  0  0  0  0
  191.1730  174.7690  137.1050 C   0  0  0  0  0  3  0  0  0  0  0  0
  192.1750  174.8230  136.2300 C   0  0  0  0  0  3  0  0  0  0  0  0
  191.4680  175.6020  138.3240 C   0  0  2  0  0  3  0  0  0  0  0  0
  194.3080  176.1690  135.8920 C   0  0  0  0  0  1  0  0  0  0  0  0
  193.2290  175.6410  136.7050 N   0  0  0  0  0  0  0  0  0  0  0  0
  193.4830  176.9400  138.6580 O   0  0  0  0  0  0  0  0  0  0  0  0
  187.3570  177.0900  144.1760 C   0  0  0  0  0  2  0  0  0  0  0  0
  190.7330  178.3020  144.1390 C   0  0  0  0  0  0  0  0  0  0  0  0
  188.3570  177.7520  145.0600 C   0  0  0  0  0  3  0  0  0  0  0  0
  191.1860  179.6140  144.1060 O   0  0  0  0  0  1  0  0  0  0  0  0
  189.5440  178.0360  144.6040 C   0  0  0  0  0  0  0  0  0  0  0  0
  191.6050  177.1910  143.6570 C   0  0  0  0  0  2  0  0  0  0  0  0
  192.2430  174.9320  144.0890 O   0  0  0  0  0  1  0  0  0  0  0  0
  191.6120  176.0410  144.6510 C   0  0  0  0  0  2  0  0  0  0  0  0
  185.3980  178.0310  142.9820 C   0  0  0  0  0  2  0  0  0  0  0  0
  184.8930  179.0910  142.0140 C   0  0  0  0  0  2  0  0  0  0  0  0
  184.2070  178.4590  140.8080 C   0  0  0  0  0  2  0  0  0  0  0  0
  184.4250  179.2840  139.5440 C   0  0  0  0  0  2  0  0  0  0  0  0
  183.4870  178.8870  138.5040 N   0  0  0  0  0  2  0  0  0  0  0  0
  183.3580  177.5410  138.5860 O   0  0  0  0  0  0  0  0  0  0  0  0
  183.5960  177.0860  137.2860 C   0  0  2  0  0  3  0  0  0  0  0  0
  182.5340  177.6590  136.3640 C   0  0  0  0  0  1  0  0  0  0  0  0
  183.5750  175.5580  137.2380 C   0  0  2  0  0  3  0  0  0  0  0  0
  183.1240  175.0400  138.4570 O   0  0  0  0  0  1  0  0  0  0  0  0
  185.2440  174.9040  136.9040 P   0  0  2  0  0  0  0  0  0  0  0  0
  186.2810  175.9190  137.3310 O   0  0  0  0  0  1  0  0  0  0  0  0
  185.3960  174.6280  135.2420 O   0  0  0  0  0  0  0  0  0  0  0  0
  184.8510  172.4610  136.9650 C   0  0  0  0  0  1  0  0  0  0  0  0
  185.4920  173.4380  137.7290 O   0  0  0  0  0  0  0  0  0  0  0  0
  1 26  1  6  0  0  0
  1 18  1  0  0  0  0
  2  3  2  0  0  0  0
  3  1  1  0  0  0  0
  4  8  1  0  0  0  0
  4 10  1  0  0  0  0
  5  6  2  0  0  0  0
  5  9  1  0  0  0  0
  6  7  1  0  0  0  0
  7  8  2  0  0  0  0
  8  2  1  0  0  0  0
  9  4  2  0  0  0  0
 11 14  1  0  0  0  0
 11 17  2  0  0  0  0
 12 14  1  0  0  0  0
 13 16  1  0  0  0  0
 13 12  2  0  0  0  0
 14  9  1  6  0  0  0
 15 16  1  0  0  0  0
 16 11  1  0  0  0  0
 18 20  1  0  0  0  0
 19 22  2  0  0  0  0
 21 19  1  0  0  0  0
 22 20  2  0  0  0  0
 23 19  1  0  0  0  0
 23 25  1  0  0  0  0
 24 25  1  0  0  0  0
 27 26  1  0  0  0  0
 28 27  1  0  0  0  0
 29 28  1  0  0  0  0
 30 31  1  0  0  0  0
 30 29  1  0  0  0  0
 32 33  1  6  0  0  0
 32 31  1  0  0  0  0
 34 32  1  0  0  0  0
 34 35  1  1  0  0  0
 36 38  2  6  0  0  0
 36 34  1  0  0  0  0
 36 37  1  0  0  0  0
 36 40  1  0  0  0  0
 39 40  1  0  0  0  0
M  END
>  <MODEL>
8

>  <REMARK>
 VINA RESULT:      -6.6      2.873      6.615
  Name = 
  17 active torsions:
  status: ('A' for Active; 'I' for Inactive)
    1  A    between atoms: C_3  and  C_37
    2  A    between atoms: C_3  and  C_40
    3  A    between atoms: P_5  and  C_6
    4  A    between atoms: P_5  and  O_29
    5  A    between atoms: C_6  and  C_33
    6  A    between atoms: C_8  and  C_19
    7  A    between atoms: C_13  and  C_23
    8  A    between atoms: C_14  and  C_22
    9  A    between atoms: C_18  and  C_25
   10  A    between atoms: C_19  and  C_32
   11  A    between atoms: N_20  and  C_40
   12  A    between atoms: C_22  and  C_40
   13  A    between atoms: C_24  and  C_27
   14  A    between atoms: C_24  and  N_36
   15  A    between atoms: C_27  and  C_37
   16  A    between atoms: C_33  and  O_34
   17  A    between atoms: O_34  and  N_36
                            x       y       z     vdW  Elec       q    Type
                         _______ _______ _______ _____ _____    ______ ____

>  <TORSDO>
F 17

$$$$
=
 OpenBabel10222421593D

 40 41  0  0  1  0  0  0  0  0999 V2000
  189.0040  177.1380  138.8240 C   0  0  2  0  0  3  0  0  0  0  0  0
  189.4310  176.8040  141.1600 C   0  0  0  0  0  3  0  0  0  0  0  0
  189.2480  177.6230  140.1750 N   0  0  0  0  0  0  0  0  0  0  0  0
  188.8830  176.8670  143.6360 C   0  0  0  0  0  0  0  0  0  0  0  0
  190.2110  178.2410  145.0750 N   0  0  0  0  0  0  0  0  0  0  0  0
  190.9830  178.6410  144.0310 C   0  0  0  0  0  3  0  0  0  0  0  0
  190.7220  178.1660  142.7440 C   0  0  0  0  0  3  0  0  0  0  0  0
  189.6670  177.2770  142.5360 C   0  0  0  0  0  0  0  0  0  0  0  0
  189.1730  177.3720  144.9140 C   0  0  0  0  0  0  0  0  0  0  0  0
  187.8440  176.0070  143.4750 F   0  0  0  0  0  0  0  0  0  0  0  0
  187.0760  177.7030  146.2200 C   0  0  0  0  0  0  0  0  0  0  0  0
  189.0220  177.3240  147.3790 C   0  0  0  0  0  3  0  0  0  0  0  0
  188.2590  178.1440  148.0980 C   0  0  0  0  0  3  0  0  0  0  0  0
  188.3440  176.9360  146.0920 C   0  0  2  0  0  3  0  0  0  0  0  0
  186.1170  179.4820  147.7850 C   0  0  0  0  0  1  0  0  0  0  0  0
  187.0280  178.4040  147.4470 N   0  0  0  0  0  0  0  0  0  0  0  0
  186.1570  177.7370  145.3590 O   0  0  0  0  0  0  0  0  0  0  0  0
  190.1120  176.1850  138.3980 C   0  0  0  0  0  2  0  0  0  0  0  0
  193.5690  175.8080  137.5230 C   0  0  0  0  0  0  0  0  0  0  0  0
  191.4420  176.8070  138.6490 C   0  0  0  0  0  3  0  0  0  0  0  0
  194.3390  176.5820  136.6670 O   0  0  0  0  0  1  0  0  0  0  0  0
  192.5080  176.3170  138.0840 C   0  0  0  0  0  0  0  0  0  0  0  0
  193.9580  174.3970  137.8180 C   0  0  0  0  0  2  0  0  0  0  0  0
  195.6810  173.5160  139.2150 O   0  0  0  0  0  1  0  0  0  0  0  0
  195.4520  174.2920  138.0780 C   0  0  0  0  0  2  0  0  0  0  0  0
  188.9710  178.3210  137.8680 C   0  0  0  0  0  2  0  0  0  0  0  0
  188.6590  177.8740  136.4470 C   0  0  0  0  0  2  0  0  0  0  0  0
  187.1940  178.1140  136.0980 C   0  0  0  0  0  2  0  0  0  0  0  0
  186.3160  176.9460  136.5340 C   0  0  0  0  0  2  0  0  0  0  0  0
  184.9510  177.1250  136.0600 N   0  0  0  0  0  2  0  0  0  0  0  0
  184.2950  177.8330  137.0110 O   0  0  0  0  0  0  0  0  0  0  0  0
  184.1770  176.9490  138.0860 C   0  0  2  0  0  3  0  0  0  0  0  0
  183.3470  175.7550  137.6500 C   0  0  0  0  0  1  0  0  0  0  0  0
  183.5250  177.6420  139.2840 C   0  0  2  0  0  3  0  0  0  0  0  0
  182.2540  178.1120  138.9390 O   0  0  0  0  0  1  0  0  0  0  0  0
  184.5410  179.0510  139.8400 P   0  0  2  0  0  0  0  0  0  0  0  0
  184.0770  180.3150  139.1490 O   0  0  0  0  0  0  0  0  0  0  0  0
  186.1530  178.7570  139.4210 O   0  0  0  0  0  1  0  0  0  0  0  0
  185.7410  179.0920  142.0040 C   0  0  0  0  0  1  0  0  0  0  0  0
  184.4370  179.2390  141.5260 O   0  0  0  0  0  0  0  0  0  0  0  0
  1 26  1  6  0  0  0
  1  3  1  0  0  0  0
  2  8  1  0  0  0  0
  3  2  2  0  0  0  0
  4  9  1  0  0  0  0
  6  5  1  0  0  0  0
  7  6  2  0  0  0  0
  8  7  1  0  0  0  0
  8  4  2  0  0  0  0
  9  5  2  0  0  0  0
 10  4  1  0  0  0  0
 11 16  1  0  0  0  0
 12 13  2  0  0  0  0
 14  9  1  6  0  0  0
 14 11  1  0  0  0  0
 14 12  1  0  0  0  0
 16 15  1  0  0  0  0
 16 13  1  0  0  0  0
 17 11  2  0  0  0  0
 18 20  1  0  0  0  0
 18  1  1  0  0  0  0
 19 23  1  0  0  0  0
 19 22  2  0  0  0  0
 21 19  1  0  0  0  0
 22 20  2  0  0  0  0
 23 25  1  0  0  0  0
 25 24  1  0  0  0  0
 27 26  1  0  0  0  0
 28 27  1  0  0  0  0
 28 29  1  0  0  0  0
 30 29  1  0  0  0  0
 30 31  1  0  0  0  0
 31 32  1  0  0  0  0
 32 33  1  6  0  0  0
 32 34  1  0  0  0  0
 34 35  1  6  0  0  0
 34 36  1  0  0  0  0
 36 37  2  6  0  0  0
 36 40  1  0  0  0  0
 38 36  1  0  0  0  0
 40 39  1  0  0  0  0
M  END
>  <MODEL>
9

>  <REMARK>
 VINA RESULT:      -6.6      3.325      7.558
  Name = 
  17 active torsions:
  status: ('A' for Active; 'I' for Inactive)
    1  A    between atoms: C_3  and  C_37
    2  A    between atoms: C_3  and  C_40
    3  A    between atoms: P_5  and  C_6
    4  A    between atoms: P_5  and  O_29
    5  A    between atoms: C_6  and  C_33
    6  A    between atoms: C_8  and  C_19
    7  A    between atoms: C_13  and  C_23
    8  A    between atoms: C_14  and  C_22
    9  A    between atoms: C_18  and  C_25
   10  A    between atoms: C_19  and  C_32
   11  A    between atoms: N_20  and  C_40
   12  A    between atoms: C_22  and  C_40
   13  A    between atoms: C_24  and  C_27
   14  A    between atoms: C_24  and  N_36
   15  A    between atoms: C_27  and  C_37
   16  A    between atoms: C_33  and  O_34
   17  A    between atoms: O_34  and  N_36
                            x       y       z     vdW  Elec       q    Type
                         _______ _______ _______ _____ _____    ______ ____

>  <TORSDO>
F 17

$$$$
