=
 OpenBabel10232412453D

 39 43  0  0  1  0  0  0  0  0999 V2000
  186.4660  176.8320  143.6170 N   0  0  0  0  0  0  0  0  0  0  0  0
  186.1890  177.5240  144.8880 C   0  0  2  0  0  3  0  0  0  0  0  0
  184.6620  179.1030  143.6370 C   0  0  2  0  0  3  0  0  0  0  0  0
  186.4810  177.7870  142.5110 C   0  0  0  0  0  2  0  0  0  0  0  0
  185.0980  178.4100  142.3330 C   0  0  2  0  0  3  0  0  0  0  0  0
  187.7680  176.1840  143.6780 C   0  0  0  0  0  1  0  0  0  0  0  0
  184.7950  178.1520  144.8330 C   0  0  0  0  0  2  0  0  0  0  0  0
  182.3020  178.6580  144.3120 C   0  0  0  0  0  1  0  0  0  0  0  0
  183.2220  179.5870  143.5430 C   0  0  0  0  0  2  0  0  0  0  0  0
  185.1750  179.4020  141.1790 C   0  0  0  0  0  2  0  0  0  0  0  0
  184.6140  178.8050  139.8980 C   0  0  0  0  0  2  0  0  0  0  0  0
  184.6590  177.1440  137.5920 O   0  0  0  0  0  0  0  0  0  0  0  0
  185.6080  178.8750  138.8390 N   0  0  0  0  0  2  0  0  0  0  0  0
  185.5800  177.9970  137.7150 C   0  0  0  0  0  0  0  0  0  0  0  0
  186.6720  178.0860  136.6960 C   0  0  2  0  0  3  0  0  0  0  0  0
  186.1820  177.7930  135.4220 O   0  0  0  0  0  1  0  0  0  0  0  0
  187.8590  177.1830  137.0420 C   0  0  0  0  0  0  0  0  0  0  0  0
  188.1050  176.1150  135.9980 C   0  0  0  0  0  2  0  0  0  0  0  0
  187.5190  175.7380  137.3490 C   0  0  0  0  0  2  0  0  0  0  0  0
  190.3390  177.9230  139.6560 O   0  0  0  0  0  1  0  0  0  0  0  0
  189.0630  177.9140  139.0970 C   0  0  1  0  0  3  0  0  0  0  0  0
  188.9400  178.9980  138.2130 O   0  0  0  0  0  0  0  0  0  0  0  0
  189.1640  177.7360  137.6270 C   0  0  2  0  0  3  0  0  0  0  0  0
  187.2480  178.5730  145.2530 C   0  0  0  0  0  2  0  0  0  0  0  0
  187.6530  178.4230  146.7130 C   0  0  0  0  0  2  0  0  0  0  0  0
  188.5770  177.2230  146.9270 C   0  0  1  0  0  3  0  0  0  0  0  0
  190.8820  176.8710  147.6910 N   0  0  0  0  0  2  0  0  0  0  0  0
  190.4770  177.2330  145.3640 N   0  0  2  0  0  0  0  0  0  0  0  0
  191.8220  177.3180  142.6820 C   0  0  0  0  0  2  0  0  0  0  0  0
  190.6790  178.2300  143.1350 C   0  0  0  0  0  2  0  0  0  0  0  0
  190.7050  178.4750  144.6400 C   0  0  0  0  0  2  0  0  0  0  0  0
  190.0530  177.5830  146.7180 C   0  0  1  0  0  3  0  0  0  0  0  0
  191.7760  176.6110  145.5230 C   0  0  1  0  0  3  0  0  0  0  0  0
  191.8190  176.0750  146.9220 C   0  0  0  0  0  2  0  0  0  0  0  0
  191.9860  175.4900  144.5070 C   0  0  0  0  0  2  0  0  0  0  0  0
  191.6000  175.8480  143.0640 C   0  0  1  0  0  3  0  0  0  0  0  0
  190.2910  175.4440  142.7940 O   0  0  0  0  0  1  0  0  0  0  0  0
  188.3800  176.6900  148.2060 O   0  0  0  0  0  0  0  0  0  0  0  0
  187.8200  177.7310  148.9470 C   0  0  0  0  0  1  0  0  0  0  0  0
  1  6  1  0  0  0  0
  1  2  1  0  0  0  0
  2 24  1  6  0  0  0
  3  9  1  6  0  0  0
  3  7  1  0  0  0  0
  4  1  1  0  0  0  0
  5 10  1  6  0  0  0
  5  4  1  0  0  0  0
  5  3  1  0  0  0  0
  7  2  1  0  0  0  0
  9  8  1  0  0  0  0
 11 10  1  0  0  0  0
 12 14  2  0  0  0  0
 13 11  1  0  0  0  0
 14 13  1  0  0  0  0
 15 16  1  6  0  0  0
 15 17  1  0  0  0  0
 15 14  1  0  0  0  0
 17 19  1  0  0  0  0
 18 17  1  0  0  0  0
 18 19  1  0  0  0  0
 21 20  1  1  0  0  0
 22 21  1  0  0  0  0
 23 17  1  6  0  0  0
 23 22  1  0  0  0  0
 23 21  1  0  0  0  0
 24 25  1  0  0  0  0
 26 25  1  1  0  0  0
 26 38  1  0  0  0  0
 28 31  1  6  0  0  0
 28 33  1  0  0  0  0
 28 32  1  0  0  0  0
 29 36  1  0  0  0  0
 29 30  1  0  0  0  0
 30 31  1  0  0  0  0
 32 26  1  6  0  0  0
 32 27  1  0  0  0  0
 33 35  1  6  0  0  0
 33 34  1  0  0  0  0
 34 27  1  0  0  0  0
 36 37  1  1  0  0  0
 36 35  1  0  0  0  0
 38 39  1  0  0  0  0
M  END
>  <MODEL>
1

>  <REMARK>
 VINA RESULT:      -7.5      0.000      0.000
  Name = 
  12 active torsions:
  status: ('A' for Active; 'I' for Inactive)
    1  A    between atoms: C_2  and  N_19
    2  A    between atoms: C_2  and  C_27
    3  A    between atoms: O_3  and  C_4
    4  A    between atoms: C_4  and  C_18
    5  A    between atoms: C_4  and  C_21
    6  A    between atoms: C_6  and  C_32
    7  A    between atoms: C_14  and  C_17
    8  A    between atoms: C_14  and  C_34
    9  A    between atoms: C_15  and  C_35
   10  A    between atoms: C_18  and  C_32
   11  A    between atoms: C_24  and  C_34
   12  A    between atoms: C_25  and  C_27
                            x       y       z     vdW  Elec       q    Type
                         _______ _______ _______ _____ _____    ______ ____

>  <TORSDO>
F 12

$$$$
=
 OpenBabel10232412453D

 39 43  0  0  1  0  0  0  0  0999 V2000
  185.5310  179.5340  146.0750 N   0  0  0  0  0  0  0  0  0  0  0  0
  186.5460  178.6300  145.5070 C   0  0  2  0  0  3  0  0  0  0  0  0
  184.9700  178.1490  143.5890 C   0  0  2  0  0  3  0  0  0  0  0  0
  184.1890  179.0210  145.8120 C   0  0  0  0  0  2  0  0  0  0  0  0
  183.9150  179.0080  144.3090 C   0  0  2  0  0  3  0  0  0  0  0  0
  185.7060  179.6320  147.5180 C   0  0  0  0  0  1  0  0  0  0  0  0
  186.3880  178.5790  143.9860 C   0  0  0  0  0  2  0  0  0  0  0  0
  186.1610  178.5690  141.4380 C   0  0  0  0  0  1  0  0  0  0  0  0
  184.8230  178.2540  142.0780 C   0  0  0  0  0  2  0  0  0  0  0  0
  182.5110  178.4560  144.0920 C   0  0  0  0  0  2  0  0  0  0  0  0
  181.6660  179.4050  143.2590 C   0  0  0  0  0  2  0  0  0  0  0  0
  180.1690  180.6500  141.1880 O   0  0  0  0  0  0  0  0  0  0  0  0
  181.4390  178.8410  141.9380 N   0  0  0  0  0  2  0  0  0  0  0  0
  180.6620  179.5140  140.9500 C   0  0  0  0  0  0  0  0  0  0  0  0
  180.4180  178.8440  139.6350 C   0  0  2  0  0  3  0  0  0  0  0  0
  179.9820  177.5310  139.8240 O   0  0  0  0  0  1  0  0  0  0  0  0
  181.6520  178.8820  138.7300 C   0  0  0  0  0  0  0  0  0  0  0  0
  182.6860  179.8870  139.1920 C   0  0  0  0  0  2  0  0  0  0  0  0
  181.8560  180.1650  137.9490 C   0  0  0  0  0  2  0  0  0  0  0  0
  183.0500  175.4800  138.8170 O   0  0  0  0  0  1  0  0  0  0  0  0
  182.9320  176.8050  139.2330 C   0  0  1  0  0  3  0  0  0  0  0  0
  183.6840  177.6250  138.3760 O   0  0  0  0  0  0  0  0  0  0  0  0
  182.2910  177.6080  138.1630 C   0  0  2  0  0  3  0  0  0  0  0  0
  186.5100  177.2190  146.1090 C   0  0  0  0  0  2  0  0  0  0  0  0
  187.8630  176.5410  145.9410 C   0  0  0  0  0  2  0  0  0  0  0  0
  188.7450  176.7160  147.1780 C   0  0  1  0  0  3  0  0  0  0  0  0
  191.1620  176.4070  147.4620 N   0  0  0  0  0  2  0  0  0  0  0  0
  190.3390  177.2340  145.3770 N   0  0  2  0  0  0  0  0  0  0  0  0
  191.1890  178.0240  142.6080 C   0  0  0  0  0  2  0  0  0  0  0  0
  190.1000  178.7110  143.4370 C   0  0  0  0  0  2  0  0  0  0  0  0
  190.3770  178.6210  144.9340 C   0  0  0  0  0  2  0  0  0  0  0  0
  190.1430  177.2400  146.8250 C   0  0  1  0  0  3  0  0  0  0  0  0
  191.6750  176.7090  145.1780 C   0  0  1  0  0  3  0  0  0  0  0  0
  191.9870  175.8840  146.3900 C   0  0  0  0  0  2  0  0  0  0  0  0
  191.7580  175.8610  143.9100 C   0  0  0  0  0  2  0  0  0  0  0  0
  191.1090  176.4920  142.6700 C   0  0  1  0  0  3  0  0  0  0  0  0
  189.7930  176.0460  142.5260 O   0  0  0  0  0  1  0  0  0  0  0  0
  188.1210  177.5700  148.0950 O   0  0  0  0  0  0  0  0  0  0  0  0
  189.1350  178.4180  148.5430 C   0  0  0  0  0  1  0  0  0  0  0  0
  1  6  1  0  0  0  0
  2  1  1  0  0  0  0
  2 24  1  1  0  0  0
  3  9  1  6  0  0  0
  3  7  1  0  0  0  0
  3  5  1  0  0  0  0
  4  1  1  0  0  0  0
  5 10  1  1  0  0  0
  5  4  1  0  0  0  0
  7  2  1  0  0  0  0
  8  9  1  0  0  0  0
 11 10  1  0  0  0  0
 13 11  1  0  0  0  0
 14 12  2  0  0  0  0
 14 13  1  0  0  0  0
 15 16  1  1  0  0  0
 15 14  1  0  0  0  0
 17 18  1  0  0  0  0
 17 15  1  0  0  0  0
 19 17  1  0  0  0  0
 19 18  1  0  0  0  0
 21 20  1  6  0  0  0
 22 21  1  0  0  0  0
 23 22  1  0  0  0  0
 23 17  1  1  0  0  0
 23 21  1  0  0  0  0
 25 24  1  0  0  0  0
 26 25  1  6  0  0  0
 26 38  1  0  0  0  0
 28 31  1  1  0  0  0
 28 32  1  0  0  0  0
 29 36  1  0  0  0  0
 29 30  1  0  0  0  0
 30 31  1  0  0  0  0
 32 26  1  6  0  0  0
 32 27  1  0  0  0  0
 33 35  1  6  0  0  0
 33 28  1  0  0  0  0
 33 34  1  0  0  0  0
 34 27  1  0  0  0  0
 36 37  1  1  0  0  0
 36 35  1  0  0  0  0
 38 39  1  0  0  0  0
M  END
>  <MODEL>
2

>  <REMARK>
 VINA RESULT:      -6.8      2.716      4.231
  Name = 
  12 active torsions:
  status: ('A' for Active; 'I' for Inactive)
    1  A    between atoms: C_2  and  N_19
    2  A    between atoms: C_2  and  C_27
    3  A    between atoms: O_3  and  C_4
    4  A    between atoms: C_4  and  C_18
    5  A    between atoms: C_4  and  C_21
    6  A    between atoms: C_6  and  C_32
    7  A    between atoms: C_14  and  C_17
    8  A    between atoms: C_14  and  C_34
    9  A    between atoms: C_15  and  C_35
   10  A    between atoms: C_18  and  C_32
   11  A    between atoms: C_24  and  C_34
   12  A    between atoms: C_25  and  C_27
                            x       y       z     vdW  Elec       q    Type
                         _______ _______ _______ _____ _____    ______ ____

>  <TORSDO>
F 12

$$$$
=
 OpenBabel10232412453D

 39 43  0  0  1  0  0  0  0  0999 V2000
  190.8800  176.9890  137.6730 N   0  0  0  0  0  0  0  0  0  0  0  0
  189.4870  177.2740  137.2880 C   0  0  2  0  0  3  0  0  0  0  0  0
  188.9570  177.7110  139.7210 C   0  0  2  0  0  3  0  0  0  0  0  0
  190.9230  176.3350  138.9780 C   0  0  0  0  0  2  0  0  0  0  0  0
  190.3950  177.2770  140.0580 C   0  0  2  0  0  3  0  0  0  0  0  0
  191.4930  176.0990  136.6970 C   0  0  0  0  0  1  0  0  0  0  0  0
  188.8720  178.2540  138.2890 C   0  0  0  0  0  2  0  0  0  0  0  0
  187.2140  178.3090  141.4020 C   0  0  0  0  0  1  0  0  0  0  0  0
  188.4670  178.7790  140.6880 C   0  0  0  0  0  2  0  0  0  0  0  0
  190.4520  176.5420  141.3920 C   0  0  0  0  0  2  0  0  0  0  0  0
  191.5710  177.0780  142.2710 C   0  0  0  0  0  2  0  0  0  0  0  0
  191.1790  179.0980  144.2320 O   0  0  0  0  0  0  0  0  0  0  0  0
  191.2620  176.8330  143.6720 N   0  0  0  0  0  2  0  0  0  0  0  0
  191.0940  177.8970  144.6070 C   0  0  0  0  0  0  0  0  0  0  0  0
  190.8410  177.5690  146.0440 C   0  0  2  0  0  3  0  0  0  0  0  0
  191.4200  176.3430  146.3790 O   0  0  0  0  0  1  0  0  0  0  0  0
  189.3490  177.5760  146.3840 C   0  0  0  0  0  0  0  0  0  0  0  0
  189.0640  178.1540  147.7540 C   0  0  0  0  0  2  0  0  0  0  0  0
  188.9270  176.6590  147.5150 C   0  0  0  0  0  2  0  0  0  0  0  0
  185.9580  177.8450  144.9840 O   0  0  0  0  0  1  0  0  0  0  0  0
  187.0370  177.1690  145.5510 C   0  0  1  0  0  3  0  0  0  0  0  0
  187.9630  176.8520  144.5430 O   0  0  0  0  0  0  0  0  0  0  0  0
  188.2770  177.9590  145.3560 C   0  0  2  0  0  3  0  0  0  0  0  0
  188.6220  176.0130  137.1540 C   0  0  0  0  0  2  0  0  0  0  0  0
  187.4930  176.2540  136.1620 C   0  0  0  0  0  2  0  0  0  0  0  0
  186.1200  176.0230  136.7960 C   0  0  1  0  0  3  0  0  0  0  0  0
  184.5200  177.1850  135.3430 N   0  0  0  0  0  2  0  0  0  0  0  0
  184.2030  177.2660  137.7090 N   0  0  2  0  0  0  0  0  0  0  0  0
  182.3340  178.2440  139.8450 C   0  0  0  0  0  2  0  0  0  0  0  0
  183.8620  178.2210  139.9400 C   0  0  0  0  0  2  0  0  0  0  0  0
  184.5230  178.3910  138.5760 C   0  0  0  0  0  2  0  0  0  0  0  0
  185.1960  177.2380  136.6380 C   0  0  1  0  0  3  0  0  0  0  0  0
  182.9530  177.5990  137.0570 C   0  0  1  0  0  3  0  0  0  0  0  0
  183.0980  177.1770  135.6260 C   0  0  0  0  0  2  0  0  0  0  0  0
  181.7730  176.8860  137.7150 C   0  0  0  0  0  2  0  0  0  0  0  0
  181.7530  176.9550  139.2490 C   0  0  1  0  0  3  0  0  0  0  0  0
  182.3590  175.8220  139.7970 O   0  0  0  0  0  1  0  0  0  0  0  0
  185.5240  174.8820  136.2460 O   0  0  0  0  0  0  0  0  0  0  0  0
  185.3490  174.0140  137.3260 C   0  0  0  0  0  1  0  0  0  0  0  0
  1  4  1  0  0  0  0
  2 24  1  1  0  0  0
  2  1  1  0  0  0  0
  2  7  1  0  0  0  0
  3  5  1  0  0  0  0
  3  9  1  1  0  0  0
  4  5  1  0  0  0  0
  5 10  1  1  0  0  0
  6  1  1  0  0  0  0
  7  3  1  0  0  0  0
  9  8  1  0  0  0  0
 10 11  1  0  0  0  0
 11 13  1  0  0  0  0
 12 14  2  0  0  0  0
 13 14  1  0  0  0  0
 14 15  1  0  0  0  0
 15 16  1  6  0  0  0
 15 17  1  0  0  0  0
 17 19  1  0  0  0  0
 17 18  1  0  0  0  0
 19 18  1  0  0  0  0
 21 20  1  6  0  0  0
 22 23  1  0  0  0  0
 22 21  1  0  0  0  0
 23 21  1  0  0  0  0
 23 17  1  1  0  0  0
 25 24  1  0  0  0  0
 26 25  1  6  0  0  0
 27 34  1  0  0  0  0
 27 32  1  0  0  0  0
 28 31  1  1  0  0  0
 29 30  1  0  0  0  0
 31 30  1  0  0  0  0
 32 26  1  1  0  0  0
 32 28  1  0  0  0  0
 33 34  1  6  0  0  0
 33 28  1  0  0  0  0
 33 35  1  0  0  0  0
 35 36  1  0  0  0  0
 36 37  1  1  0  0  0
 36 29  1  0  0  0  0
 38 26  1  0  0  0  0
 38 39  1  0  0  0  0
M  END
>  <MODEL>
3

>  <REMARK>
 VINA RESULT:      -6.8      2.550      9.450
  Name = 
  12 active torsions:
  status: ('A' for Active; 'I' for Inactive)
    1  A    between atoms: C_2  and  N_19
    2  A    between atoms: C_2  and  C_27
    3  A    between atoms: O_3  and  C_4
    4  A    between atoms: C_4  and  C_18
    5  A    between atoms: C_4  and  C_21
    6  A    between atoms: C_6  and  C_32
    7  A    between atoms: C_14  and  C_17
    8  A    between atoms: C_14  and  C_34
    9  A    between atoms: C_15  and  C_35
   10  A    between atoms: C_18  and  C_32
   11  A    between atoms: C_24  and  C_34
   12  A    between atoms: C_25  and  C_27
                            x       y       z     vdW  Elec       q    Type
                         _______ _______ _______ _____ _____    ______ ____

>  <TORSDO>
F 12

$$$$
=
 OpenBabel10232412453D

 39 43  0  0  1  0  0  0  0  0999 V2000
  190.4160  177.0490  137.4680 N   0  0  0  0  0  0  0  0  0  0  0  0
  188.9580  177.1750  137.2930 C   0  0  2  0  0  3  0  0  0  0  0  0
  188.7530  177.6570  139.7660 C   0  0  2  0  0  3  0  0  0  0  0  0
  190.7220  176.4570  138.7690 C   0  0  0  0  0  2  0  0  0  0  0  0
  190.2630  177.3850  139.8910 C   0  0  2  0  0  3  0  0  0  0  0  0
  190.9680  176.1860  136.4340 C   0  0  0  0  0  1  0  0  0  0  0  0
  188.3980  178.1290  138.3500 C   0  0  0  0  0  2  0  0  0  0  0  0
  187.2820  178.1220  141.7270 C   0  0  0  0  0  1  0  0  0  0  0  0
  188.3020  178.7090  140.7690 C   0  0  0  0  0  2  0  0  0  0  0  0
  190.5960  176.7150  141.2190 C   0  0  0  0  0  2  0  0  0  0  0  0
  191.8930  177.2540  141.8010 C   0  0  0  0  0  2  0  0  0  0  0  0
  191.8420  175.5320  144.0620 O   0  0  0  0  0  0  0  0  0  0  0  0
  191.6820  177.6850  143.1740 N   0  0  0  0  0  2  0  0  0  0  0  0
  191.6510  176.7630  144.2610 C   0  0  0  0  0  0  0  0  0  0  0  0
  191.3660  177.2710  145.6390 C   0  0  2  0  0  3  0  0  0  0  0  0
  192.0570  176.5230  146.5940 O   0  0  0  0  0  1  0  0  0  0  0  0
  189.8670  177.2940  145.9470 C   0  0  0  0  0  0  0  0  0  0  0  0
  189.0320  176.6970  144.8340 C   0  0  0  0  0  2  0  0  0  0  0  0
  189.0280  178.1990  145.0670 C   0  0  0  0  0  2  0  0  0  0  0  0
  187.6770  177.6390  148.8820 O   0  0  0  0  0  1  0  0  0  0  0  0
  188.5620  178.1000  147.9100 C   0  0  1  0  0  3  0  0  0  0  0  0
  189.8770  177.8070  148.3070 O   0  0  0  0  0  0  0  0  0  0  0  0
  189.3120  176.9560  147.3360 C   0  0  2  0  0  3  0  0  0  0  0  0
  188.2230  175.8290  137.3250 C   0  0  0  0  0  2  0  0  0  0  0  0
  187.4390  175.6280  136.0350 C   0  0  0  0  0  2  0  0  0  0  0  0
  187.2980  174.1480  135.6790 C   0  0  1  0  0  3  0  0  0  0  0  0
  185.6390  172.5270  136.4810 N   0  0  0  0  0  2  0  0  0  0  0  0
  184.9520  174.7790  136.0750 N   0  0  2  0  0  0  0  0  0  0  0  0
  182.6150  176.6500  136.2970 C   0  0  0  0  0  2  0  0  0  0  0  0
  183.6480  176.6430  135.1660 C   0  0  0  0  0  2  0  0  0  0  0  0
  184.2110  175.2490  134.9130 C   0  0  0  0  0  2  0  0  0  0  0  0
  185.8310  173.7000  135.6290 C   0  0  1  0  0  3  0  0  0  0  0  0
  183.9830  174.1430  136.9440 C   0  0  1  0  0  3  0  0  0  0  0  0
  184.6350  172.8960  137.4600 C   0  0  0  0  0  2  0  0  0  0  0  0
  183.5820  175.0610  138.0970 C   0  0  0  0  0  2  0  0  0  0  0  0
  183.2500  176.5030  137.6870 C   0  0  1  0  0  3  0  0  0  0  0  0
  184.3750  177.3210  137.8200 O   0  0  0  0  0  1  0  0  0  0  0  0
  187.9300  173.8860  134.4590 O   0  0  0  0  0  0  0  0  0  0  0  0
  189.0230  173.0810  134.7860 C   0  0  0  0  0  1  0  0  0  0  0  0
  1  4  1  0  0  0  0
  2 24  1  1  0  0  0
  2  1  1  0  0  0  0
  2  7  1  0  0  0  0
  3  5  1  0  0  0  0
  3  9  1  1  0  0  0
  4  5  1  0  0  0  0
  5 10  1  1  0  0  0
  6  1  1  0  0  0  0
  7  3  1  0  0  0  0
  9  8  1  0  0  0  0
 10 11  1  0  0  0  0
 11 13  1  0  0  0  0
 12 14  2  0  0  0  0
 13 14  1  0  0  0  0
 14 15  1  0  0  0  0
 15 17  1  0  0  0  0
 15 16  1  1  0  0  0
 18 19  1  0  0  0  0
 18 17  1  0  0  0  0
 19 17  1  0  0  0  0
 21 22  1  0  0  0  0
 21 20  1  1  0  0  0
 23 17  1  6  0  0  0
 23 21  1  0  0  0  0
 23 22  1  0  0  0  0
 25 24  1  0  0  0  0
 26 25  1  6  0  0  0
 27 34  1  0  0  0  0
 28 31  1  6  0  0  0
 28 33  1  0  0  0  0
 29 36  1  0  0  0  0
 30 29  1  0  0  0  0
 31 30  1  0  0  0  0
 32 26  1  1  0  0  0
 32 28  1  0  0  0  0
 32 27  1  0  0  0  0
 33 34  1  1  0  0  0
 33 35  1  0  0  0  0
 36 37  1  6  0  0  0
 36 35  1  0  0  0  0
 38 39  1  0  0  0  0
 38 26  1  0  0  0  0
M  END
>  <MODEL>
4

>  <REMARK>
 VINA RESULT:      -6.8      2.819      9.811
  Name = 
  12 active torsions:
  status: ('A' for Active; 'I' for Inactive)
    1  A    between atoms: C_2  and  N_19
    2  A    between atoms: C_2  and  C_27
    3  A    between atoms: O_3  and  C_4
    4  A    between atoms: C_4  and  C_18
    5  A    between atoms: C_4  and  C_21
    6  A    between atoms: C_6  and  C_32
    7  A    between atoms: C_14  and  C_17
    8  A    between atoms: C_14  and  C_34
    9  A    between atoms: C_15  and  C_35
   10  A    between atoms: C_18  and  C_32
   11  A    between atoms: C_24  and  C_34
   12  A    between atoms: C_25  and  C_27
                            x       y       z     vdW  Elec       q    Type
                         _______ _______ _______ _____ _____    ______ ____

>  <TORSDO>
F 12

$$$$
=
 OpenBabel10232412453D

 39 43  0  0  1  0  0  0  0  0999 V2000
  184.7030  179.1750  144.7100 N   0  0  0  0  0  0  0  0  0  0  0  0
  186.1030  178.7420  144.8650 C   0  0  2  0  0  3  0  0  0  0  0  0
  186.2100  178.3660  142.3680 C   0  0  2  0  0  3  0  0  0  0  0  0
  184.0500  178.4120  143.6480 C   0  0  0  0  0  2  0  0  0  0  0  0
  184.7110  178.7080  142.3040 C   0  0  2  0  0  3  0  0  0  0  0  0
  183.9720  178.9480  145.9490 C   0  0  0  0  0  1  0  0  0  0  0  0
  186.8730  179.0380  143.5770 C   0  0  0  0  0  2  0  0  0  0  0  0
  188.0740  177.8660  140.7870 C   0  0  0  0  0  1  0  0  0  0  0  0
  186.9260  178.8070  141.0990 C   0  0  0  0  0  2  0  0  0  0  0  0
  184.0000  177.8810  141.2390 C   0  0  0  0  0  2  0  0  0  0  0  0
  183.7400  178.6990  139.9850 C   0  0  0  0  0  2  0  0  0  0  0  0
  185.9120  178.8300  138.1560 O   0  0  0  0  0  0  0  0  0  0  0  0
  183.8890  177.8620  138.8050 N   0  0  0  0  0  2  0  0  0  0  0  0
  184.9990  177.9930  137.9190 C   0  0  0  0  0  0  0  0  0  0  0  0
  185.0540  177.1400  136.6910 C   0  0  2  0  0  3  0  0  0  0  0  0
  183.7700  176.9080  136.1940 O   0  0  0  0  0  1  0  0  0  0  0  0
  185.7880  175.8200  136.9360 C   0  0  0  0  0  0  0  0  0  0  0  0
  185.4360  174.7560  135.9180 C   0  0  0  0  0  2  0  0  0  0  0  0
  184.9170  174.6480  137.3420 C   0  0  0  0  0  2  0  0  0  0  0  0
  189.2750  176.9750  137.1420 O   0  0  0  0  0  1  0  0  0  0  0  0
  188.0940  176.6460  136.4800 C   0  0  1  0  0  3  0  0  0  0  0  0
  188.0450  175.2550  136.2880 O   0  0  0  0  0  0  0  0  0  0  0  0
  187.2660  175.7690  137.3440 C   0  0  2  0  0  3  0  0  0  0  0  0
  186.2430  177.2660  145.2610 C   0  0  0  0  0  2  0  0  0  0  0  0
  187.7130  176.8770  145.3220 C   0  0  0  0  0  2  0  0  0  0  0  0
  188.3440  177.2430  146.6660 C   0  0  1  0  0  3  0  0  0  0  0  0
  190.6320  176.8880  147.4770 N   0  0  0  0  0  2  0  0  0  0  0  0
  190.2890  177.3890  145.1660 N   0  0  2  0  0  0  0  0  0  0  0  0
  191.7110  177.6720  142.5380 C   0  0  0  0  0  2  0  0  0  0  0  0
  190.5360  178.5310  143.0120 C   0  0  0  0  0  2  0  0  0  0  0  0
  190.5120  178.6800  144.5300 C   0  0  0  0  0  2  0  0  0  0  0  0
  189.8180  177.6440  146.5260 C   0  0  1  0  0  3  0  0  0  0  0  0
  191.5960  176.7840  145.3250 C   0  0  1  0  0  3  0  0  0  0  0  0
  191.6090  176.1610  146.6880 C   0  0  0  0  0  2  0  0  0  0  0  0
  191.8600  175.7350  144.2470 C   0  0  0  0  0  2  0  0  0  0  0  0
  191.5100  176.1760  142.8190 C   0  0  1  0  0  3  0  0  0  0  0  0
  190.2180  175.7650  142.4830 O   0  0  0  0  0  1  0  0  0  0  0  0
  187.6140  178.2710  147.2740 O   0  0  0  0  0  0  0  0  0  0  0  0
  187.7780  178.0650  148.6450 C   0  0  0  0  0  1  0  0  0  0  0  0
  1  2  1  0  0  0  0
  1  6  1  0  0  0  0
  2 24  1  6  0  0  0
  3  9  1  6  0  0  0
  3  7  1  0  0  0  0
  4  1  1  0  0  0  0
  5 10  1  6  0  0  0
  5  3  1  0  0  0  0
  5  4  1  0  0  0  0
  7  2  1  0  0  0  0
  8  9  1  0  0  0  0
 11 10  1  0  0  0  0
 13 11  1  0  0  0  0
 14 12  2  0  0  0  0
 14 13  1  0  0  0  0
 15 16  1  1  0  0  0
 15 17  1  0  0  0  0
 15 14  1  0  0  0  0
 17 19  1  0  0  0  0
 18 17  1  0  0  0  0
 18 19  1  0  0  0  0
 21 20  1  1  0  0  0
 21 23  1  0  0  0  0
 22 21  1  0  0  0  0
 22 23  1  0  0  0  0
 23 17  1  6  0  0  0
 24 25  1  0  0  0  0
 26 25  1  6  0  0  0
 26 38  1  0  0  0  0
 28 31  1  6  0  0  0
 28 33  1  0  0  0  0
 28 32  1  0  0  0  0
 29 36  1  0  0  0  0
 29 30  1  0  0  0  0
 30 31  1  0  0  0  0
 32 26  1  6  0  0  0
 32 27  1  0  0  0  0
 33 35  1  6  0  0  0
 33 34  1  0  0  0  0
 34 27  1  0  0  0  0
 36 37  1  1  0  0  0
 36 35  1  0  0  0  0
 38 39  1  0  0  0  0
M  END
>  <MODEL>
5

>  <REMARK>
 VINA RESULT:      -6.7      1.490      2.419
  Name = 
  12 active torsions:
  status: ('A' for Active; 'I' for Inactive)
    1  A    between atoms: C_2  and  N_19
    2  A    between atoms: C_2  and  C_27
    3  A    between atoms: O_3  and  C_4
    4  A    between atoms: C_4  and  C_18
    5  A    between atoms: C_4  and  C_21
    6  A    between atoms: C_6  and  C_32
    7  A    between atoms: C_14  and  C_17
    8  A    between atoms: C_14  and  C_34
    9  A    between atoms: C_15  and  C_35
   10  A    between atoms: C_18  and  C_32
   11  A    between atoms: C_24  and  C_34
   12  A    between atoms: C_25  and  C_27
                            x       y       z     vdW  Elec       q    Type
                         _______ _______ _______ _____ _____    ______ ____

>  <TORSDO>
F 12

$$$$
=
 OpenBabel10232412453D

 39 43  0  0  1  0  0  0  0  0999 V2000
  191.7890  177.0600  138.3360 N   0  0  0  0  0  0  0  0  0  0  0  0
  191.0850  176.4000  137.2230 C   0  0  2  0  0  3  0  0  0  0  0  0
  188.8890  177.0120  138.3170 C   0  0  2  0  0  3  0  0  0  0  0  0
  191.0540  176.8740  139.5850 C   0  0  0  0  0  2  0  0  0  0  0  0
  189.6960  177.5680  139.5050 C   0  0  2  0  0  3  0  0  0  0  0  0
  193.1150  176.4800  138.4980 C   0  0  0  0  0  1  0  0  0  0  0  0
  189.7160  177.0560  137.0260 C   0  0  0  0  0  2  0  0  0  0  0  0
  187.4730  178.2280  136.6630 C   0  0  0  0  0  1  0  0  0  0  0  0
  187.6040  177.8000  138.1120 C   0  0  0  0  0  2  0  0  0  0  0  0
  188.9700  177.3330  140.8240 C   0  0  0  0  0  2  0  0  0  0  0  0
  189.9080  176.7670  141.8780 C   0  0  0  0  0  2  0  0  0  0  0  0
  189.8880  178.6130  144.0390 O   0  0  0  0  0  0  0  0  0  0  0  0
  189.1920  176.5780  143.1310 N   0  0  0  0  0  2  0  0  0  0  0  0
  189.2400  177.5410  144.1820 C   0  0  0  0  0  0  0  0  0  0  0  0
  188.5300  177.2500  145.4670 C   0  0  2  0  0  3  0  0  0  0  0  0
  187.4500  178.1170  145.6400 O   0  0  0  0  0  1  0  0  0  0  0  0
  189.4720  177.3080  146.6720 C   0  0  0  0  0  0  0  0  0  0  0  0
  188.8670  176.6930  147.9170 C   0  0  0  0  0  2  0  0  0  0  0  0
  189.0260  178.2010  147.8130 C   0  0  0  0  0  2  0  0  0  0  0  0
  192.5530  175.3080  146.8700 O   0  0  0  0  0  1  0  0  0  0  0  0
  191.3640  175.8420  147.3630 C   0  0  1  0  0  3  0  0  0  0  0  0
  191.5970  177.1530  147.8090 O   0  0  0  0  0  0  0  0  0  0  0  0
  190.9740  177.0220  146.5520 C   0  0  2  0  0  3  0  0  0  0  0  0
  190.9440  174.8830  137.4060 C   0  0  0  0  0  2  0  0  0  0  0  0
  191.3230  174.1620  136.1200 C   0  0  0  0  0  2  0  0  0  0  0  0
  192.7720  174.4400  135.7170 C   0  0  1  0  0  3  0  0  0  0  0  0
  193.9110  172.4800  134.7790 N   0  0  0  0  0  2  0  0  0  0  0  0
  194.9780  173.7100  136.5280 N   0  0  2  0  0  0  0  0  0  0  0  0
  197.5080  173.8900  138.1330 C   0  0  0  0  0  2  0  0  0  0  0  0
  196.0950  174.1450  138.6640 C   0  0  0  0  0  2  0  0  0  0  0  0
  195.0480  173.3170  137.9280 C   0  0  0  0  0  2  0  0  0  0  0  0
  193.6940  173.2480  136.0040 C   0  0  1  0  0  3  0  0  0  0  0  0
  195.9750  172.9200  135.8350 C   0  0  1  0  0  3  0  0  0  0  0  0
  195.3430  172.4760  134.5500 C   0  0  0  0  0  2  0  0  0  0  0  0
  197.2400  173.7320  135.5640 C   0  0  0  0  0  2  0  0  0  0  0  0
  197.7570  174.5380  136.7640 C   0  0  1  0  0  3  0  0  0  0  0  0
  197.2670  175.8450  136.7240 O   0  0  0  0  0  1  0  0  0  0  0  0
  192.8350  174.7910  134.3640 O   0  0  0  0  0  0  0  0  0  0  0  0
  193.4600  176.0390  134.3460 C   0  0  0  0  0  1  0  0  0  0  0  0
  1  6  1  0  0  0  0
  1  4  1  0  0  0  0
  2 24  1  1  0  0  0
  2  1  1  0  0  0  0
  3  9  1  6  0  0  0
  3  5  1  0  0  0  0
  5  4  1  0  0  0  0
  5 10  1  1  0  0  0
  7  2  1  0  0  0  0
  7  3  1  0  0  0  0
  8  9  1  0  0  0  0
 10 11  1  0  0  0  0
 11 13  1  0  0  0  0
 12 14  2  0  0  0  0
 13 14  1  0  0  0  0
 14 15  1  0  0  0  0
 15 16  1  1  0  0  0
 15 17  1  0  0  0  0
 17 19  1  0  0  0  0
 17 18  1  0  0  0  0
 19 18  1  0  0  0  0
 21 20  1  6  0  0  0
 21 22  1  0  0  0  0
 23 17  1  1  0  0  0
 23 21  1  0  0  0  0
 23 22  1  0  0  0  0
 25 24  1  0  0  0  0
 26 25  1  6  0  0  0
 27 32  1  0  0  0  0
 28 31  1  1  0  0  0
 29 30  1  0  0  0  0
 31 30  1  0  0  0  0
 32 26  1  6  0  0  0
 32 28  1  0  0  0  0
 33 34  1  6  0  0  0
 33 28  1  0  0  0  0
 34 27  1  0  0  0  0
 35 33  1  0  0  0  0
 35 36  1  0  0  0  0
 36 37  1  1  0  0  0
 36 29  1  0  0  0  0
 38 26  1  0  0  0  0
 39 38  1  0  0  0  0
M  END
>  <MODEL>
6

>  <REMARK>
 VINA RESULT:      -6.7      5.240      9.765
  Name = 
  12 active torsions:
  status: ('A' for Active; 'I' for Inactive)
    1  A    between atoms: C_2  and  N_19
    2  A    between atoms: C_2  and  C_27
    3  A    between atoms: O_3  and  C_4
    4  A    between atoms: C_4  and  C_18
    5  A    between atoms: C_4  and  C_21
    6  A    between atoms: C_6  and  C_32
    7  A    between atoms: C_14  and  C_17
    8  A    between atoms: C_14  and  C_34
    9  A    between atoms: C_15  and  C_35
   10  A    between atoms: C_18  and  C_32
   11  A    between atoms: C_24  and  C_34
   12  A    between atoms: C_25  and  C_27
                            x       y       z     vdW  Elec       q    Type
                         _______ _______ _______ _____ _____    ______ ____

>  <TORSDO>
F 12

$$$$
=
 OpenBabel10232412453D

 39 43  0  0  1  0  0  0  0  0999 V2000
  184.7890  179.1800  141.0100 N   0  0  0  0  0  0  0  0  0  0  0  0
  183.5280  178.7270  140.3960 C   0  0  2  0  0  3  0  0  0  0  0  0
  182.4720  178.7220  142.6930 C   0  0  2  0  0  3  0  0  0  0  0  0
  184.9540  178.5840  142.3330 C   0  0  0  0  0  2  0  0  0  0  0  0
  183.8540  179.0730  143.2720 C   0  0  2  0  0  3  0  0  0  0  0  0
  185.9170  178.7760  140.1830 C   0  0  0  0  0  1  0  0  0  0  0  0
  182.3480  179.2070  141.2430 C   0  0  0  0  0  2  0  0  0  0  0  0
  180.2870  178.3110  143.8240 C   0  0  0  0  0  1  0  0  0  0  0  0
  181.3570  179.3430  143.5220 C   0  0  0  0  0  2  0  0  0  0  0  0
  184.0680  178.4130  144.6300 C   0  0  0  0  0  2  0  0  0  0  0  0
  185.3150  178.9480  145.3140 C   0  0  0  0  0  2  0  0  0  0  0  0
  187.3050  178.5640  147.3080 O   0  0  0  0  0  0  0  0  0  0  0  0
  186.3810  177.9600  145.2500 N   0  0  0  0  0  2  0  0  0  0  0  0
  187.3580  177.8320  146.2810 C   0  0  0  0  0  0  0  0  0  0  0  0
  188.4620  176.8360  146.1180 C   0  0  2  0  0  3  0  0  0  0  0  0
  189.2220  176.7470  147.2860 O   0  0  0  0  0  1  0  0  0  0  0  0
  189.3520  177.1520  144.9140 C   0  0  0  0  0  0  0  0  0  0  0  0
  190.8150  177.2740  145.2830 C   0  0  0  0  0  2  0  0  0  0  0  0
  190.0140  178.5150  144.9250 C   0  0  0  0  0  2  0  0  0  0  0  0
  189.9450  176.5340  141.3360 O   0  0  0  0  0  1  0  0  0  0  0  0
  189.6790  177.3280  142.4500 C   0  0  1  0  0  3  0  0  0  0  0  0
  188.3060  177.2680  142.7400 O   0  0  0  0  0  0  0  0  0  0  0  0
  189.1500  176.4820  143.5490 C   0  0  2  0  0  3  0  0  0  0  0  0
  183.4680  177.2080  140.1830 C   0  0  0  0  0  2  0  0  0  0  0  0
  182.6610  176.8850  138.9330 C   0  0  0  0  0  2  0  0  0  0  0  0
  183.1800  177.6420  137.7090 C   0  0  1  0  0  3  0  0  0  0  0  0
  183.2910  176.8430  135.3930 N   0  0  0  0  0  2  0  0  0  0  0  0
  185.3180  177.0600  136.6390 N   0  0  2  0  0  0  0  0  0  0  0  0
  188.3020  176.8250  136.4230 C   0  0  0  0  0  2  0  0  0  0  0  0
  187.4640  176.4350  137.6430 C   0  0  0  0  0  2  0  0  0  0  0  0
  186.0650  175.9710  137.2520 C   0  0  0  0  0  2  0  0  0  0  0  0
  183.8990  176.7200  136.7170 C   0  0  1  0  0  3  0  0  0  0  0  0
  185.6380  177.0280  135.2270 C   0  0  1  0  0  3  0  0  0  0  0  0
  184.3500  177.2670  134.4970 C   0  0  0  0  0  2  0  0  0  0  0  0
  186.6710  178.0930  134.8650 C   0  0  0  0  0  2  0  0  0  0  0  0
  187.8780  178.1670  135.8100 C   0  0  1  0  0  3  0  0  0  0  0  0
  187.6670  179.1320  136.7970 O   0  0  0  0  0  1  0  0  0  0  0  0
  182.1250  178.3120  137.0780 O   0  0  0  0  0  0  0  0  0  0  0  0
  180.9830  177.9290  137.7830 C   0  0  0  0  0  1  0  0  0  0  0  0
  1  4  1  0  0  0  0
  2 24  1  1  0  0  0
  2  1  1  0  0  0  0
  2  7  1  0  0  0  0
  3  5  1  0  0  0  0
  3  9  1  1  0  0  0
  4  5  1  0  0  0  0
  5 10  1  1  0  0  0
  6  1  1  0  0  0  0
  7  3  1  0  0  0  0
  9  8  1  0  0  0  0
 10 11  1  0  0  0  0
 13 11  1  0  0  0  0
 13 14  1  0  0  0  0
 14 12  2  0  0  0  0
 15 14  1  0  0  0  0
 15 16  1  1  0  0  0
 17 19  1  0  0  0  0
 17 18  1  0  0  0  0
 17 15  1  0  0  0  0
 19 18  1  0  0  0  0
 21 20  1  6  0  0  0
 21 22  1  0  0  0  0
 21 23  1  0  0  0  0
 22 23  1  0  0  0  0
 23 17  1  1  0  0  0
 25 24  1  0  0  0  0
 26 25  1  1  0  0  0
 27 32  1  0  0  0  0
 28 32  1  0  0  0  0
 28 31  1  1  0  0  0
 29 30  1  0  0  0  0
 31 30  1  0  0  0  0
 32 26  1  1  0  0  0
 33 34  1  6  0  0  0
 33 28  1  0  0  0  0
 34 27  1  0  0  0  0
 35 33  1  0  0  0  0
 35 36  1  0  0  0  0
 36 29  1  0  0  0  0
 36 37  1  1  0  0  0
 38 26  1  0  0  0  0
 38 39  1  0  0  0  0
M  END
>  <MODEL>
7

>  <REMARK>
 VINA RESULT:      -6.7      2.067      8.391
  Name = 
  12 active torsions:
  status: ('A' for Active; 'I' for Inactive)
    1  A    between atoms: C_2  and  N_19
    2  A    between atoms: C_2  and  C_27
    3  A    between atoms: O_3  and  C_4
    4  A    between atoms: C_4  and  C_18
    5  A    between atoms: C_4  and  C_21
    6  A    between atoms: C_6  and  C_32
    7  A    between atoms: C_14  and  C_17
    8  A    between atoms: C_14  and  C_34
    9  A    between atoms: C_15  and  C_35
   10  A    between atoms: C_18  and  C_32
   11  A    between atoms: C_24  and  C_34
   12  A    between atoms: C_25  and  C_27
                            x       y       z     vdW  Elec       q    Type
                         _______ _______ _______ _____ _____    ______ ____

>  <TORSDO>
F 12

$$$$
=
 OpenBabel10232412453D

 39 43  0  0  1  0  0  0  0  0999 V2000
  189.0240  178.0740  139.8320 N   0  0  0  0  0  0  0  0  0  0  0  0
  190.1450  177.7260  140.7230 C   0  0  2  0  0  3  0  0  0  0  0  0
  191.0340  176.1920  138.9210 C   0  0  2  0  0  3  0  0  0  0  0  0
  188.6320  176.9150  139.0330 C   0  0  0  0  0  2  0  0  0  0  0  0
  189.7710  176.5080  138.1010 C   0  0  2  0  0  3  0  0  0  0  0  0
  187.8740  178.4940  140.6210 C   0  0  0  0  0  1  0  0  0  0  0  0
  191.3640  177.3420  139.8820 C   0  0  0  0  0  2  0  0  0  0  0  0
  193.5020  176.4520  138.6640 C   0  0  0  0  0  1  0  0  0  0  0  0
  192.2290  175.9460  138.0110 C   0  0  0  0  0  2  0  0  0  0  0  0
  189.3120  175.2930  137.3030 C   0  0  0  0  0  2  0  0  0  0  0  0
  188.8290  175.6910  135.9180 C   0  0  0  0  0  2  0  0  0  0  0  0
  186.9790  177.7000  135.1290 O   0  0  0  0  0  0  0  0  0  0  0  0
  187.3890  175.5080  135.8220 N   0  0  0  0  0  2  0  0  0  0  0  0
  186.5150  176.5670  135.4340 C   0  0  0  0  0  0  0  0  0  0  0  0
  185.0390  176.3240  135.4190 C   0  0  2  0  0  3  0  0  0  0  0  0
  184.3850  177.3090  134.6780 O   0  0  0  0  0  1  0  0  0  0  0  0
  184.4550  176.2270  136.8300 C   0  0  0  0  0  0  0  0  0  0  0  0
  183.4860  177.3480  137.1400 C   0  0  0  0  0  2  0  0  0  0  0  0
  184.8610  177.3300  137.7870 C   0  0  0  0  0  2  0  0  0  0  0  0
  184.8640  172.7960  138.0940 O   0  0  0  0  0  1  0  0  0  0  0  0
  184.9970  173.8170  137.1540 C   0  0  1  0  0  3  0  0  0  0  0  0
  183.7980  173.9370  136.4320 O   0  0  0  0  0  0  0  0  0  0  0  0
  184.0160  174.8920  137.4450 C   0  0  2  0  0  3  0  0  0  0  0  0
  189.8020  176.6190  141.7280 C   0  0  0  0  0  2  0  0  0  0  0  0
  190.4020  176.9420  143.0900 C   0  0  0  0  0  2  0  0  0  0  0  0
  189.5020  177.8750  143.9020 C   0  0  1  0  0  3  0  0  0  0  0  0
  188.6760  176.9770  146.0310 N   0  0  0  0  0  2  0  0  0  0  0  0
  187.1040  177.8310  144.4480 N   0  0  2  0  0  0  0  0  0  0  0  0
  184.1870  178.4120  144.0420 C   0  0  0  0  0  2  0  0  0  0  0  0
  185.1500  177.8930  142.9710 C   0  0  0  0  0  2  0  0  0  0  0  0
  186.2610  177.0350  143.5670 C   0  0  0  0  0  2  0  0  0  0  0  0
  188.3700  177.1190  144.6080 C   0  0  1  0  0  3  0  0  0  0  0  0
  186.4780  177.7890  145.7540 C   0  0  1  0  0  3  0  0  0  0  0  0
  187.5880  177.6130  146.7470 C   0  0  0  0  0  2  0  0  0  0  0  0
  185.6960  179.0700  146.0390 C   0  0  0  0  0  2  0  0  0  0  0  0
  184.7900  179.5390  144.8920 C   0  0  1  0  0  3  0  0  0  0  0  0
  185.4540  180.4760  144.0960 O   0  0  0  0  0  1  0  0  0  0  0  0
  190.2670  178.5890  144.8320 O   0  0  0  0  0  0  0  0  0  0  0  0
  191.1980  179.2930  144.0660 C   0  0  0  0  0  1  0  0  0  0  0  0
  1  6  1  0  0  0  0
  1  2  1  0  0  0  0
  2 24  1  1  0  0  0
  3  9  1  6  0  0  0
  3  7  1  0  0  0  0
  4  1  1  0  0  0  0
  5 10  1  1  0  0  0
  5  3  1  0  0  0  0
  5  4  1  0  0  0  0
  7  2  1  0  0  0  0
  9  8  1  0  0  0  0
 11 10  1  0  0  0  0
 12 14  2  0  0  0  0
 13 11  1  0  0  0  0
 14 13  1  0  0  0  0
 15 16  1  1  0  0  0
 15 14  1  0  0  0  0
 15 17  1  0  0  0  0
 17 18  1  0  0  0  0
 17 19  1  0  0  0  0
 18 19  1  0  0  0  0
 21 23  1  0  0  0  0
 21 20  1  1  0  0  0
 22 21  1  0  0  0  0
 22 23  1  0  0  0  0
 23 17  1  6  0  0  0
 24 25  1  0  0  0  0
 26 25  1  1  0  0  0
 26 38  1  0  0  0  0
 27 34  1  0  0  0  0
 28 31  1  6  0  0  0
 28 32  1  0  0  0  0
 28 33  1  0  0  0  0
 29 36  1  0  0  0  0
 30 31  1  0  0  0  0
 30 29  1  0  0  0  0
 32 26  1  6  0  0  0
 32 27  1  0  0  0  0
 33 35  1  1  0  0  0
 33 34  1  0  0  0  0
 36 37  1  6  0  0  0
 36 35  1  0  0  0  0
 39 38  1  0  0  0  0
M  END
>  <MODEL>
8

>  <REMARK>
 VINA RESULT:      -6.7      2.582      6.014
  Name = 
  12 active torsions:
  status: ('A' for Active; 'I' for Inactive)
    1  A    between atoms: C_2  and  N_19
    2  A    between atoms: C_2  and  C_27
    3  A    between atoms: O_3  and  C_4
    4  A    between atoms: C_4  and  C_18
    5  A    between atoms: C_4  and  C_21
    6  A    between atoms: C_6  and  C_32
    7  A    between atoms: C_14  and  C_17
    8  A    between atoms: C_14  and  C_34
    9  A    between atoms: C_15  and  C_35
   10  A    between atoms: C_18  and  C_32
   11  A    between atoms: C_24  and  C_34
   12  A    between atoms: C_25  and  C_27
                            x       y       z     vdW  Elec       q    Type
                         _______ _______ _______ _____ _____    ______ ____

>  <TORSDO>
F 12

$$$$
=
 OpenBabel10232412453D

 39 43  0  0  1  0  0  0  0  0999 V2000
  189.0600  178.2890  140.0750 N   0  0  0  0  0  0  0  0  0  0  0  0
  190.2020  177.6600  140.7600 C   0  0  2  0  0  3  0  0  0  0  0  0
  190.4930  176.1340  138.7660 C   0  0  2  0  0  3  0  0  0  0  0  0
  188.3300  177.2980  139.2890 C   0  0  0  0  0  2  0  0  0  0  0  0
  189.2170  176.7550  138.1700 C   0  0  2  0  0  3  0  0  0  0  0  0
  188.1450  178.8590  141.0540 C   0  0  0  0  0  1  0  0  0  0  0  0
  191.1840  177.1160  139.7210 C   0  0  0  0  0  2  0  0  0  0  0  0
  192.8060  176.4260  137.8760 C   0  0  0  0  0  1  0  0  0  0  0  0
  191.4700  175.7360  137.6690 C   0  0  0  0  0  2  0  0  0  0  0  0
  188.4100  175.7210  137.3930 C   0  0  0  0  0  2  0  0  0  0  0  0
  187.3180  176.3790  136.5660 C   0  0  0  0  0  2  0  0  0  0  0  0
  184.8260  177.2320  135.4970 O   0  0  0  0  0  0  0  0  0  0  0  0
  186.0250  176.1800  137.2020 N   0  0  0  0  0  2  0  0  0  0  0  0
  184.8120  176.6500  136.6160 C   0  0  0  0  0  0  0  0  0  0  0  0
  183.5260  176.4660  137.3570 C   0  0  2  0  0  3  0  0  0  0  0  0
  182.6630  175.6300  136.6460 O   0  0  0  0  0  1  0  0  0  0  0  0
  182.8490  177.8000  137.6790 C   0  0  0  0  0  0  0  0  0  0  0  0
  181.4650  177.6260  138.2700 C   0  0  0  0  0  2  0  0  0  0  0  0
  181.6270  178.1350  136.8470 C   0  0  0  0  0  2  0  0  0  0  0  0
  184.8530  179.5420  140.2250 O   0  0  0  0  0  1  0  0  0  0  0  0
  183.7800  178.7770  139.7740 C   0  0  1  0  0  3  0  0  0  0  0  0
  182.7920  179.6300  139.2540 O   0  0  0  0  0  0  0  0  0  0  0  0
  183.6080  178.9720  138.3130 C   0  0  2  0  0  3  0  0  0  0  0  0
  189.7880  176.5620  141.7490 C   0  0  0  0  0  2  0  0  0  0  0  0
  190.4430  176.8000  143.1030 C   0  0  0  0  0  2  0  0  0  0  0  0
  189.6320  177.7680  143.9650 C   0  0  1  0  0  3  0  0  0  0  0  0
  188.8390  176.9950  146.1540 N   0  0  0  0  0  2  0  0  0  0  0  0
  187.2430  177.7710  144.5550 N   0  0  2  0  0  0  0  0  0  0  0  0
  184.3230  178.3490  144.1690 C   0  0  0  0  0  2  0  0  0  0  0  0
  185.2640  177.7650  143.1120 C   0  0  0  0  0  2  0  0  0  0  0  0
  186.3800  176.9330  143.7350 C   0  0  0  0  0  2  0  0  0  0  0  0
  188.5080  177.0600  144.7320 C   0  0  1  0  0  3  0  0  0  0  0  0
  186.6410  177.8060  145.8730 C   0  0  1  0  0  3  0  0  0  0  0  0
  187.7670  177.6760  146.8540 C   0  0  0  0  0  2  0  0  0  0  0  0
  185.8710  179.1050  146.1000 C   0  0  0  0  0  2  0  0  0  0  0  0
  184.9480  179.5170  144.9450 C   0  0  1  0  0  3  0  0  0  0  0  0
  185.6030  180.4040  144.0870 O   0  0  0  0  0  1  0  0  0  0  0  0
  190.4780  178.4430  144.8530 O   0  0  0  0  0  0  0  0  0  0  0  0
  191.0940  179.4300  144.0800 C   0  0  0  0  0  1  0  0  0  0  0  0
  1  2  1  0  0  0  0
  1  6  1  0  0  0  0
  2 24  1  1  0  0  0
  3  9  1  6  0  0  0
  3  7  1  0  0  0  0
  4  1  1  0  0  0  0
  5 10  1  1  0  0  0
  5  3  1  0  0  0  0
  5  4  1  0  0  0  0
  7  2  1  0  0  0  0
  9  8  1  0  0  0  0
 11 13  1  0  0  0  0
 11 10  1  0  0  0  0
 12 14  2  0  0  0  0
 14 13  1  0  0  0  0
 14 15  1  0  0  0  0
 15 16  1  6  0  0  0
 15 17  1  0  0  0  0
 17 18  1  0  0  0  0
 19 17  1  0  0  0  0
 19 18  1  0  0  0  0
 21 20  1  1  0  0  0
 22 21  1  0  0  0  0
 23 17  1  6  0  0  0
 23 22  1  0  0  0  0
 23 21  1  0  0  0  0
 24 25  1  0  0  0  0
 26 25  1  1  0  0  0
 26 38  1  0  0  0  0
 27 34  1  0  0  0  0
 28 31  1  6  0  0  0
 28 32  1  0  0  0  0
 28 33  1  0  0  0  0
 29 36  1  0  0  0  0
 30 31  1  0  0  0  0
 30 29  1  0  0  0  0
 32 26  1  6  0  0  0
 32 27  1  0  0  0  0
 33 35  1  1  0  0  0
 33 34  1  0  0  0  0
 36 37  1  6  0  0  0
 36 35  1  0  0  0  0
 39 38  1  0  0  0  0
M  END
>  <MODEL>
9

>  <REMARK>
 VINA RESULT:      -6.6      2.484      5.885
  Name = 
  12 active torsions:
  status: ('A' for Active; 'I' for Inactive)
    1  A    between atoms: C_2  and  N_19
    2  A    between atoms: C_2  and  C_27
    3  A    between atoms: O_3  and  C_4
    4  A    between atoms: C_4  and  C_18
    5  A    between atoms: C_4  and  C_21
    6  A    between atoms: C_6  and  C_32
    7  A    between atoms: C_14  and  C_17
    8  A    between atoms: C_14  and  C_34
    9  A    between atoms: C_15  and  C_35
   10  A    between atoms: C_18  and  C_32
   11  A    between atoms: C_24  and  C_34
   12  A    between atoms: C_25  and  C_27
                            x       y       z     vdW  Elec       q    Type
                         _______ _______ _______ _____ _____    ______ ____

>  <TORSDO>
F 12

$$$$
