=
 OpenBabel10222422073D

 47 51  0  0  1  0  0  0  0  0999 V2000
  190.5070  177.3650  139.5670 C   0  0  2  0  0  3  0  0  0  0  0  0
  191.0000  174.9240  136.1700 C   0  0  0  0  0  1  0  0  0  0  0  0
  191.6500  174.7410  137.5300 C   0  0  2  0  0  3  0  0  0  0  0  0
  191.3310  176.2710  139.0630 N   0  0  0  0  0  0  0  0  0  0  0  0
  190.7460  175.1550  138.5400 O   0  0  0  0  0  0  0  0  0  0  0  0
  192.8310  175.6370  137.6710 C   0  0  0  0  0  0  0  0  0  0  0  0
  192.6030  176.5230  138.5580 N   0  0  0  0  0  0  0  0  0  0  0  0
  194.6490  176.5650  136.4720 O   0  0  0  0  0  0  0  0  0  0  0  0
  194.1070  175.5300  136.9470 C   0  0  0  0  0  0  0  0  0  0  0  0
  194.7680  174.2050  136.7640 C   0  0  0  0  0  2  0  0  0  0  0  0
  195.2280  172.5590  138.8770 O   0  0  0  0  0  0  0  0  0  0  0  0
  195.7270  175.0940  139.3070 O   0  0  0  0  0  1  0  0  0  0  0  0
  195.7850  173.8000  138.2160 P   0  0  2  0  0  0  0  0  0  0  0  0
  197.3830  173.5190  137.7170 O   0  0  0  0  0  0  0  0  0  0  0  0
  198.0940  174.6690  138.0760 C   0  0  0  0  0  2  0  0  0  0  0  0
  199.9250  173.1160  137.4940 C   0  0  0  0  0  1  0  0  0  0  0  0
  199.5380  174.3040  138.3460 C   0  0  0  0  0  2  0  0  0  0  0  0
  189.6920  176.9440  140.6650 O   0  0  0  0  0  0  0  0  0  0  0  0
  189.5910  178.3420  142.7850 C   0  0  0  0  0  2  0  0  0  0  0  0
  190.6760  176.1110  142.6250 C   0  0  0  0  0  3  0  0  0  0  0  0
  190.3130  177.1710  144.8710 C   0  0  2  0  0  3  0  0  0  0  0  0
  190.0230  177.1080  142.0180 C   0  0  0  0  0  0  0  0  0  0  0  0
  191.1450  176.1840  144.0510 C   0  0  0  0  0  2  0  0  0  0  0  0
  190.3100  178.5040  144.1240 C   0  0  0  0  0  2  0  0  0  0  0  0
  190.8890  177.3370  146.2810 C   0  0  2  0  0  3  0  0  0  0  0  0
  191.8140  176.1770  146.6230 C   0  0  0  0  0  1  0  0  0  0  0  0
  189.7670  177.3880  147.3090 C   0  0  0  0  0  2  0  0  0  0  0  0
  188.4550  176.9710  146.6720 C   0  0  0  0  0  2  0  0  0  0  0  0
  186.3340  178.2810  146.0870 N   0  0  0  0  0  2  0  0  0  0  0  0
  186.8860  176.7880  144.3590 O   0  0  0  0  0  0  0  0  0  0  0  0
  187.3870  177.9590  147.0070 C   0  0  0  0  0  0  0  0  0  0  0  0
  186.1380  177.7120  144.7850 C   0  0  0  0  0  0  0  0  0  0  0  0
  187.4000  178.5090  148.1390 O   0  0  0  0  0  0  0  0  0  0  0  0
  185.4830  179.2720  142.9870 C   0  0  0  0  0  2  0  0  0  0  0  0
  185.0000  178.1900  143.9390 C   0  0  0  0  0  3  0  0  0  0  0  0
  184.7170  179.6520  144.2360 C   0  0  0  0  0  2  0  0  0  0  0  0
  189.6590  177.9680  138.4520 C   0  0  0  0  0  2  0  0  0  0  0  0
  188.2130  178.1200  138.8970 C   0  0  0  0  0  2  0  0  0  0  0  0
  187.3030  177.3760  137.9770 C   0  0  0  0  0  0  0  0  0  0  0  0
  187.1110  174.2490  135.9260 C   0  0  0  0  0  3  0  0  0  0  0  0
  184.9440  175.0100  135.1230 S   0  0  0  0  0  0  0  0  0  0  0  0
  185.6550  176.0550  136.1980 C   0  0  0  0  0  0  0  0  0  0  0  0
  186.0670  177.9440  137.5990 C   0  0  0  0  0  3  0  0  0  0  0  0
  186.8640  175.4830  136.5520 C   0  0  0  0  0  0  0  0  0  0  0  0
  187.7110  176.1380  137.4450 C   0  0  0  0  0  3  0  0  0  0  0  0
  186.1260  173.8320  135.0830 N   0  0  0  0  0  0  0  0  0  0  0  0
  185.2210  177.2790  136.6960 C   0  0  0  0  0  3  0  0  0  0  0  0
  1 37  1  6  0  0  0
  1 18  1  0  0  0  0
  3  2  1  6  0  0  0
  3  6  1  0  0  0  0
  3  5  1  0  0  0  0
  4  1  1  0  0  0  0
  5  4  1  0  0  0  0
  6  7  2  0  0  0  0
  7  4  1  0  0  0  0
  8  9  2  0  0  0  0
  9  6  1  0  0  0  0
 10  9  1  0  0  0  0
 10 13  1  0  0  0  0
 13 11  2  1  0  0  0
 13 12  1  0  0  0  0
 14 15  1  0  0  0  0
 14 13  1  0  0  0  0
 15 17  1  0  0  0  0
 16 17  1  0  0  0  0
 18 22  1  0  0  0  0
 19 24  1  0  0  0  0
 20 23  1  0  0  0  0
 21 25  1  1  0  0  0
 22 20  2  0  0  0  0
 22 19  1  0  0  0  0
 23 21  1  0  0  0  0
 24 21  1  0  0  0  0
 25 26  1  1  0  0  0
 25 27  1  0  0  0  0
 28 31  1  0  0  0  0
 28 27  1  0  0  0  0
 29 31  1  0  0  0  0
 30 32  2  0  0  0  0
 31 33  2  0  0  0  0
 32 29  1  0  0  0  0
 34 35  1  0  0  0  0
 34 36  1  0  0  0  0
 35 36  1  0  0  0  0
 35 32  1  0  0  0  0
 37 38  1  0  0  0  0
 39 38  1  0  0  0  0
 40 44  1  0  0  0  0
 41 42  1  0  0  0  0
 42 44  2  0  0  0  0
 42 47  1  0  0  0  0
 43 39  1  0  0  0  0
 44 45  1  0  0  0  0
 45 39  2  0  0  0  0
 46 41  1  0  0  0  0
 46 40  2  0  0  0  0
 47 43  2  0  0  0  0
M  END
>  <MODEL>
1

>  <REMARK>
 VINA RESULT:      -8.3      0.000      0.000
  Name = 
  17 active torsions:
  status: ('A' for Active; 'I' for Inactive)
    1  A    between atoms: C_2  and  C_15
    2  A    between atoms: O_4  and  P_29
    3  A    between atoms: O_4  and  C_37
    4  A    between atoms: C_11  and  C_15
    5  A    between atoms: C_11  and  C_46
    6  A    between atoms: C_12  and  C_22
    7  A    between atoms: C_12  and  C_31
    8  A    between atoms: C_17  and  C_28
    9  A    between atoms: C_20  and  C_25
   10  A    between atoms: C_20  and  P_29
   11  A    between atoms: N_21  and  C_46
   12  A    between atoms: C_22  and  C_28
   13  A    between atoms: C_25  and  C_30
   14  A    between atoms: O_32  and  C_39
   15  A    between atoms: O_32  and  C_46
   16  A    between atoms: C_33  and  C_34
   17  A    between atoms: C_37  and  C_38
                            x       y       z     vdW  Elec       q    Type
                         _______ _______ _______ _____ _____    ______ ____

>  <TORSDO>
F 17

$$$$
=
 OpenBabel10222422073D

 47 51  0  0  1  0  0  0  0  0999 V2000
  190.9920  177.2450  139.9550 C   0  0  2  0  0  3  0  0  0  0  0  0
  190.7960  175.8590  135.9830 C   0  0  0  0  0  1  0  0  0  0  0  0
  191.5890  175.2500  137.1260 C   0  0  2  0  0  3  0  0  0  0  0  0
  191.6260  176.2910  139.0520 N   0  0  0  0  0  0  0  0  0  0  0  0
  190.8660  175.4140  138.3340 O   0  0  0  0  0  0  0  0  0  0  0  0
  192.8650  175.9890  137.3310 C   0  0  0  0  0  0  0  0  0  0  0  0
  192.8450  176.5950  138.4510 N   0  0  0  0  0  0  0  0  0  0  0  0
  194.5230  177.1140  136.0700 O   0  0  0  0  0  0  0  0  0  0  0  0
  194.0220  176.0120  136.4220 C   0  0  0  0  0  0  0  0  0  0  0  0
  194.6100  174.7400  135.9080 C   0  0  0  0  0  2  0  0  0  0  0  0
  197.2810  175.2260  135.7830 O   0  0  0  0  0  0  0  0  0  0  0  0
  196.6200  172.8220  136.5850 O   0  0  0  0  0  1  0  0  0  0  0  0
  196.2640  174.4780  136.6150 P   0  0  2  0  0  0  0  0  0  0  0  0
  196.2880  175.0570  138.2100 O   0  0  0  0  0  0  0  0  0  0  0  0
  197.2110  174.2540  138.8860 C   0  0  0  0  0  2  0  0  0  0  0  0
  197.5640  175.4610  141.0130 C   0  0  0  0  0  1  0  0  0  0  0  0
  198.1670  175.1330  139.6660 C   0  0  0  0  0  2  0  0  0  0  0  0
  191.3870  177.0220  141.3130 O   0  0  0  0  0  0  0  0  0  0  0  0
  189.6340  176.0810  142.8940 C   0  0  0  0  0  2  0  0  0  0  0  0
  190.6440  178.3440  143.1030 C   0  0  0  0  0  3  0  0  0  0  0  0
  189.2370  177.4220  144.9660 C   0  0  2  0  0  3  0  0  0  0  0  0
  190.5530  177.1920  142.4280 C   0  0  0  0  0  0  0  0  0  0  0  0
  189.7660  178.6800  144.2760 C   0  0  0  0  0  2  0  0  0  0  0  0
  188.5790  176.5510  143.8960 C   0  0  0  0  0  2  0  0  0  0  0  0
  188.2360  177.7800  146.0700 C   0  0  2  0  0  3  0  0  0  0  0  0
  188.4870  176.9420  147.3160 C   0  0  0  0  0  1  0  0  0  0  0  0
  186.8110  177.5350  145.5930 C   0  0  0  0  0  2  0  0  0  0  0  0
  186.1940  178.8300  145.1010 C   0  0  0  0  0  2  0  0  0  0  0  0
  184.1070  178.3680  143.6910 N   0  0  0  0  0  2  0  0  0  0  0  0
  186.0480  178.1580  142.3850 O   0  0  0  0  0  0  0  0  0  0  0  0
  184.7170  178.6690  144.9540 C   0  0  0  0  0  0  0  0  0  0  0  0
  184.7870  178.1570  142.4460 C   0  0  0  0  0  0  0  0  0  0  0  0
  183.9890  178.7790  145.9750 O   0  0  0  0  0  0  0  0  0  0  0  0
  183.8960  179.1430  140.3660 C   0  0  0  0  0  2  0  0  0  0  0  0
  183.9880  177.8830  141.2110 C   0  0  0  0  0  3  0  0  0  0  0  0
  182.7220  178.7210  141.2210 C   0  0  0  0  0  2  0  0  0  0  0  0
  189.4740  177.2070  139.8110 C   0  0  0  0  0  2  0  0  0  0  0  0
  188.9560  178.5140  139.2300 C   0  0  0  0  0  2  0  0  0  0  0  0
  188.0580  178.2480  138.0670 C   0  0  0  0  0  0  0  0  0  0  0  0
  184.6020  177.0760  137.2280 C   0  0  0  0  0  3  0  0  0  0  0  0
  185.2140  177.2250  134.8780 S   0  0  0  0  0  0  0  0  0  0  0  0
  186.4380  177.6640  135.9090 C   0  0  0  0  0  0  0  0  0  0  0  0
  188.5540  178.3810  136.7520 C   0  0  0  0  0  3  0  0  0  0  0  0
  185.9340  177.5240  137.1890 C   0  0  0  0  0  0  0  0  0  0  0  0
  186.7390  177.8100  138.2910 C   0  0  0  0  0  3  0  0  0  0  0  0
  184.0410  176.8570  136.0060 N   0  0  0  0  0  0  0  0  0  0  0  0
  187.7370  178.0880  135.6480 C   0  0  0  0  0  3  0  0  0  0  0  0
  1 37  1  1  0  0  0
  1 18  1  0  0  0  0
  3  2  1  6  0  0  0
  3  6  1  0  0  0  0
  3  5  1  0  0  0  0
  4  1  1  0  0  0  0
  5  4  1  0  0  0  0
  6  7  2  0  0  0  0
  7  4  1  0  0  0  0
  8  9  2  0  0  0  0
  9  6  1  0  0  0  0
 10  9  1  0  0  0  0
 10 13  1  0  0  0  0
 12 13  1  0  0  0  0
 13 11  2  6  0  0  0
 13 14  1  0  0  0  0
 14 15  1  0  0  0  0
 15 17  1  0  0  0  0
 17 16  1  0  0  0  0
 18 22  1  0  0  0  0
 19 24  1  0  0  0  0
 20 23  1  0  0  0  0
 21 25  1  1  0  0  0
 22 19  1  0  0  0  0
 22 20  2  0  0  0  0
 23 21  1  0  0  0  0
 24 21  1  0  0  0  0
 25 26  1  1  0  0  0
 27 25  1  0  0  0  0
 28 27  1  0  0  0  0
 29 31  1  0  0  0  0
 30 32  2  0  0  0  0
 31 28  1  0  0  0  0
 31 33  2  0  0  0  0
 32 29  1  0  0  0  0
 34 35  1  0  0  0  0
 34 36  1  0  0  0  0
 35 36  1  0  0  0  0
 35 32  1  0  0  0  0
 38 37  1  0  0  0  0
 39 45  1  0  0  0  0
 39 38  1  0  0  0  0
 41 42  1  0  0  0  0
 41 46  1  0  0  0  0
 42 44  1  0  0  0  0
 43 39  2  0  0  0  0
 44 40  1  0  0  0  0
 44 45  2  0  0  0  0
 46 40  2  0  0  0  0
 47 42  2  0  0  0  0
 47 43  1  0  0  0  0
M  END
>  <MODEL>
2

>  <REMARK>
 VINA RESULT:      -8.2      1.809      2.530
  Name = 
  17 active torsions:
  status: ('A' for Active; 'I' for Inactive)
    1  A    between atoms: C_2  and  C_15
    2  A    between atoms: O_4  and  P_29
    3  A    between atoms: O_4  and  C_37
    4  A    between atoms: C_11  and  C_15
    5  A    between atoms: C_11  and  C_46
    6  A    between atoms: C_12  and  C_22
    7  A    between atoms: C_12  and  C_31
    8  A    between atoms: C_17  and  C_28
    9  A    between atoms: C_20  and  C_25
   10  A    between atoms: C_20  and  P_29
   11  A    between atoms: N_21  and  C_46
   12  A    between atoms: C_22  and  C_28
   13  A    between atoms: C_25  and  C_30
   14  A    between atoms: O_32  and  C_39
   15  A    between atoms: O_32  and  C_46
   16  A    between atoms: C_33  and  C_34
   17  A    between atoms: C_37  and  C_38
                            x       y       z     vdW  Elec       q    Type
                         _______ _______ _______ _____ _____    ______ ____

>  <TORSDO>
F 17

$$$$
=
 OpenBabel10222422073D

 47 51  0  0  1  0  0  0  0  0999 V2000
  191.2490  177.3100  140.0140 C   0  0  2  0  0  3  0  0  0  0  0  0
  191.0680  175.7180  136.1200 C   0  0  0  0  0  1  0  0  0  0  0  0
  191.8450  175.1620  137.3000 C   0  0  2  0  0  3  0  0  0  0  0  0
  191.8790  176.3030  139.1680 N   0  0  0  0  0  0  0  0  0  0  0  0
  191.1150  175.3970  138.4920 O   0  0  0  0  0  0  0  0  0  0  0  0
  193.1280  175.8970  137.4750 C   0  0  0  0  0  0  0  0  0  0  0  0
  193.1050  176.5610  138.5620 N   0  0  0  0  0  0  0  0  0  0  0  0
  194.7250  176.9260  136.0640 O   0  0  0  0  0  0  0  0  0  0  0  0
  194.2920  175.8590  136.5760 C   0  0  0  0  0  0  0  0  0  0  0  0
  194.9670  174.5660  136.2610 C   0  0  0  0  0  2  0  0  0  0  0  0
  195.6920  174.1570  138.8480 O   0  0  0  0  0  1  0  0  0  0  0  0
  197.4160  175.4990  137.4030 O   0  0  0  0  0  0  0  0  0  0  0  0
  196.2910  174.2350  137.4610 P   0  0  2  0  0  0  0  0  0  0  0  0
  197.0390  172.7610  137.0750 O   0  0  0  0  0  0  0  0  0  0  0  0
  195.9990  171.8990  136.7080 C   0  0  0  0  0  2  0  0  0  0  0  0
  194.8390  169.9050  137.5910 C   0  0  0  0  0  1  0  0  0  0  0  0
  196.1860  170.5630  137.3950 C   0  0  0  0  0  2  0  0  0  0  0  0
  191.6060  177.1370  141.3890 O   0  0  0  0  0  0  0  0  0  0  0  0
  189.6620  176.2260  142.7480 C   0  0  0  0  0  2  0  0  0  0  0  0
  190.8890  178.3200  143.2840 C   0  0  0  0  0  3  0  0  0  0  0  0
  189.2710  177.3550  144.9420 C   0  0  2  0  0  3  0  0  0  0  0  0
  190.7230  177.2720  142.4700 C   0  0  0  0  0  0  0  0  0  0  0  0
  189.9760  178.6160  144.4400 C   0  0  0  0  0  2  0  0  0  0  0  0
  188.5980  176.6940  143.7410 C   0  0  0  0  0  2  0  0  0  0  0  0
  188.2420  177.6960  146.0260 C   0  0  2  0  0  3  0  0  0  0  0  0
  188.6330  177.0650  147.3550 C   0  0  0  0  0  1  0  0  0  0  0  0
  186.8650  177.1860  145.6280 C   0  0  0  0  0  2  0  0  0  0  0  0
  186.0710  178.2920  144.9580 C   0  0  0  0  0  2  0  0  0  0  0  0
  183.6790  179.1090  145.3690 N   0  0  0  0  0  2  0  0  0  0  0  0
  183.9920  178.5800  143.1020 O   0  0  0  0  0  0  0  0  0  0  0  0
  184.9800  178.7590  145.8640 C   0  0  0  0  0  0  0  0  0  0  0  0
  183.2410  179.0410  144.0050 C   0  0  0  0  0  0  0  0  0  0  0  0
  185.2020  178.8240  147.1010 O   0  0  0  0  0  0  0  0  0  0  0  0
  180.8850  178.3200  143.8350 C   0  0  0  0  0  2  0  0  0  0  0  0
  181.8530  179.4790  143.6590 C   0  0  0  0  0  3  0  0  0  0  0  0
  181.3550  178.7070  142.4500 C   0  0  0  0  0  2  0  0  0  0  0  0
  189.7340  177.3030  139.8350 C   0  0  0  0  0  2  0  0  0  0  0  0
  189.3020  178.3850  138.8560 C   0  0  0  0  0  2  0  0  0  0  0  0
  188.4610  177.8000  137.7710 C   0  0  0  0  0  0  0  0  0  0  0  0
  186.4810  174.7390  136.9110 C   0  0  0  0  0  3  0  0  0  0  0  0
  186.0650  175.7260  134.7260 S   0  0  0  0  0  0  0  0  0  0  0  0
  186.9870  176.6840  135.7200 C   0  0  0  0  0  0  0  0  0  0  0  0
  188.3050  178.4930  136.5500 C   0  0  0  0  0  3  0  0  0  0  0  0
  187.1300  175.9870  136.9060 C   0  0  0  0  0  0  0  0  0  0  0  0
  187.8740  176.5330  137.9510 C   0  0  0  0  0  3  0  0  0  0  0  0
  185.8300  174.4330  135.7550 N   0  0  0  0  0  0  0  0  0  0  0  0
  187.5560  177.9340  135.5020 C   0  0  0  0  0  3  0  0  0  0  0  0
  1 37  1  1  0  0  0
  1 18  1  0  0  0  0
  3  2  1  6  0  0  0
  3  6  1  0  0  0  0
  3  5  1  0  0  0  0
  4  1  1  0  0  0  0
  5  4  1  0  0  0  0
  6  7  2  0  0  0  0
  7  4  1  0  0  0  0
  8  9  2  0  0  0  0
  9  6  1  0  0  0  0
 10  9  1  0  0  0  0
 10 13  1  0  0  0  0
 13 12  2  6  0  0  0
 13 11  1  0  0  0  0
 14 13  1  0  0  0  0
 15 14  1  0  0  0  0
 15 17  1  0  0  0  0
 17 16  1  0  0  0  0
 18 22  1  0  0  0  0
 19 24  1  0  0  0  0
 20 23  1  0  0  0  0
 21 25  1  1  0  0  0
 22 19  1  0  0  0  0
 22 20  2  0  0  0  0
 23 21  1  0  0  0  0
 24 21  1  0  0  0  0
 25 26  1  1  0  0  0
 27 25  1  0  0  0  0
 28 27  1  0  0  0  0
 28 31  1  0  0  0  0
 29 31  1  0  0  0  0
 30 32  2  0  0  0  0
 31 33  2  0  0  0  0
 32 29  1  0  0  0  0
 35 34  1  0  0  0  0
 35 32  1  0  0  0  0
 36 35  1  0  0  0  0
 36 34  1  0  0  0  0
 38 37  1  0  0  0  0
 39 45  1  0  0  0  0
 39 38  1  0  0  0  0
 41 42  1  0  0  0  0
 41 46  1  0  0  0  0
 42 44  1  0  0  0  0
 43 39  2  0  0  0  0
 44 40  1  0  0  0  0
 44 45  2  0  0  0  0
 46 40  2  0  0  0  0
 47 42  2  0  0  0  0
 47 43  1  0  0  0  0
M  END
>  <MODEL>
3

>  <REMARK>
 VINA RESULT:      -8.1      1.862      2.457
  Name = 
  17 active torsions:
  status: ('A' for Active; 'I' for Inactive)
    1  A    between atoms: C_2  and  C_15
    2  A    between atoms: O_4  and  P_29
    3  A    between atoms: O_4  and  C_37
    4  A    between atoms: C_11  and  C_15
    5  A    between atoms: C_11  and  C_46
    6  A    between atoms: C_12  and  C_22
    7  A    between atoms: C_12  and  C_31
    8  A    between atoms: C_17  and  C_28
    9  A    between atoms: C_20  and  C_25
   10  A    between atoms: C_20  and  P_29
   11  A    between atoms: N_21  and  C_46
   12  A    between atoms: C_22  and  C_28
   13  A    between atoms: C_25  and  C_30
   14  A    between atoms: O_32  and  C_39
   15  A    between atoms: O_32  and  C_46
   16  A    between atoms: C_33  and  C_34
   17  A    between atoms: C_37  and  C_38
                            x       y       z     vdW  Elec       q    Type
                         _______ _______ _______ _____ _____    ______ ____

>  <TORSDO>
F 17

$$$$
=
 OpenBabel10222422073D

 47 51  0  0  1  0  0  0  0  0999 V2000
  190.6240  176.6510  139.9210 C   0  0  2  0  0  3  0  0  0  0  0  0
  189.1270  178.7970  136.6200 C   0  0  0  0  0  1  0  0  0  0  0  0
  188.6200  178.8480  138.0500 C   0  0  2  0  0  3  0  0  0  0  0  0
  189.4970  177.4890  139.5270 N   0  0  0  0  0  0  0  0  0  0  0  0
  189.7140  178.7020  138.9390 O   0  0  0  0  0  0  0  0  0  0  0  0
  187.7300  177.6890  138.3330 C   0  0  0  0  0  0  0  0  0  0  0  0
  188.2780  176.9130  139.1810 N   0  0  0  0  0  0  0  0  0  0  0  0
  186.0360  176.2840  137.4610 O   0  0  0  0  0  0  0  0  0  0  0  0
  186.3900  177.4530  137.7710 C   0  0  0  0  0  0  0  0  0  0  0  0
  185.4430  178.5870  137.5620 C   0  0  0  0  0  2  0  0  0  0  0  0
  184.0090  180.3780  139.0190 O   0  0  0  0  0  0  0  0  0  0  0  0
  185.6710  178.8940  140.3960 O   0  0  0  0  0  1  0  0  0  0  0  0
  184.5730  178.9770  139.1090 P   0  0  2  0  0  0  0  0  0  0  0  0
  183.3120  177.8640  139.3360 O   0  0  0  0  0  0  0  0  0  0  0  0
  183.0440  177.8770  140.7080 C   0  0  0  0  0  2  0  0  0  0  0  0
  181.3720  179.0430  142.1050 C   0  0  0  0  0  1  0  0  0  0  0  0
  181.5640  178.1110  140.9300 C   0  0  0  0  0  2  0  0  0  0  0  0
  191.5370  177.3630  140.7630 O   0  0  0  0  0  0  0  0  0  0  0  0
  191.2560  178.6530  142.9340 C   0  0  0  0  0  2  0  0  0  0  0  0
  191.6090  176.1950  142.7970 C   0  0  0  0  0  3  0  0  0  0  0  0
  190.9510  177.2480  144.9780 C   0  0  2  0  0  3  0  0  0  0  0  0
  191.4950  177.3700  142.1650 C   0  0  0  0  0  0  0  0  0  0  0  0
  191.6430  176.0680  144.2930 C   0  0  0  0  0  2  0  0  0  0  0  0
  191.5700  178.5300  144.4250 C   0  0  0  0  0  2  0  0  0  0  0  0
  191.1160  177.1730  146.5000 C   0  0  2  0  0  3  0  0  0  0  0  0
  191.8550  175.9030  146.8990 C   0  0  0  0  0  1  0  0  0  0  0  0
  189.7540  177.1820  147.1810 C   0  0  0  0  0  2  0  0  0  0  0  0
  188.6510  177.2560  146.1430 C   0  0  0  0  0  2  0  0  0  0  0  0
  186.2320  178.0800  145.9820 N   0  0  0  0  0  2  0  0  0  0  0  0
  186.9860  177.3220  143.8900 O   0  0  0  0  0  0  0  0  0  0  0  0
  187.4040  177.8000  146.7590 C   0  0  0  0  0  0  0  0  0  0  0  0
  186.0730  177.8650  144.5720 C   0  0  0  0  0  0  0  0  0  0  0  0
  187.3760  177.9970  148.0020 O   0  0  0  0  0  0  0  0  0  0  0  0
  184.6570  179.7600  143.8680 C   0  0  0  0  0  2  0  0  0  0  0  0
  184.7860  178.2460  143.9120 C   0  0  0  0  0  3  0  0  0  0  0  0
  183.8920  178.9680  144.9050 C   0  0  0  0  0  2  0  0  0  0  0  0
  191.3340  176.0810  138.6980 C   0  0  0  0  0  2  0  0  0  0  0  0
  192.7610  176.6010  138.6120 C   0  0  0  0  0  2  0  0  0  0  0  0
  193.5950  175.6970  137.7660 C   0  0  0  0  0  0  0  0  0  0  0  0
  196.4330  173.2620  137.9770 C   0  0  0  0  0  3  0  0  0  0  0  0
  196.3250  173.0570  135.5540 S   0  0  0  0  0  0  0  0  0  0  0  0
  195.1980  174.1030  136.1810 C   0  0  0  0  0  0  0  0  0  0  0  0
  193.4170  175.6810  136.3660 C   0  0  0  0  0  3  0  0  0  0  0  0
  195.3920  174.1060  137.5500 C   0  0  0  0  0  0  0  0  0  0  0  0
  194.5950  174.9080  138.3660 C   0  0  0  0  0  3  0  0  0  0  0  0
  197.0680  172.5930  136.9750 N   0  0  0  0  0  0  0  0  0  0  0  0
  194.2260  174.8730  135.5510 C   0  0  0  0  0  3  0  0  0  0  0  0
  1 37  1  6  0  0  0
  1 18  1  0  0  0  0
  3  2  1  6  0  0  0
  3  6  1  0  0  0  0
  3  5  1  0  0  0  0
  4  1  1  0  0  0  0
  5  4  1  0  0  0  0
  6  7  2  0  0  0  0
  7  4  1  0  0  0  0
  8  9  2  0  0  0  0
  9  6  1  0  0  0  0
 10  9  1  0  0  0  0
 10 13  1  0  0  0  0
 13 11  2  6  0  0  0
 13 14  1  0  0  0  0
 13 12  1  0  0  0  0
 14 15  1  0  0  0  0
 15 17  1  0  0  0  0
 17 16  1  0  0  0  0
 18 22  1  0  0  0  0
 19 24  1  0  0  0  0
 20 23  1  0  0  0  0
 21 25  1  1  0  0  0
 22 20  2  0  0  0  0
 22 19  1  0  0  0  0
 23 21  1  0  0  0  0
 24 21  1  0  0  0  0
 25 26  1  6  0  0  0
 25 27  1  0  0  0  0
 28 31  1  0  0  0  0
 28 27  1  0  0  0  0
 29 31  1  0  0  0  0
 30 32  2  0  0  0  0
 31 33  2  0  0  0  0
 32 29  1  0  0  0  0
 34 35  1  0  0  0  0
 34 36  1  0  0  0  0
 35 32  1  0  0  0  0
 35 36  1  0  0  0  0
 38 37  1  0  0  0  0
 39 45  1  0  0  0  0
 39 38  1  0  0  0  0
 41 42  1  0  0  0  0
 41 46  1  0  0  0  0
 42 44  1  0  0  0  0
 43 39  2  0  0  0  0
 44 40  1  0  0  0  0
 44 45  2  0  0  0  0
 46 40  2  0  0  0  0
 47 42  2  0  0  0  0
 47 43  1  0  0  0  0
M  END
>  <MODEL>
4

>  <REMARK>
 VINA RESULT:      -8.0      3.534      7.765
  Name = 
  17 active torsions:
  status: ('A' for Active; 'I' for Inactive)
    1  A    between atoms: C_2  and  C_15
    2  A    between atoms: O_4  and  P_29
    3  A    between atoms: O_4  and  C_37
    4  A    between atoms: C_11  and  C_15
    5  A    between atoms: C_11  and  C_46
    6  A    between atoms: C_12  and  C_22
    7  A    between atoms: C_12  and  C_31
    8  A    between atoms: C_17  and  C_28
    9  A    between atoms: C_20  and  C_25
   10  A    between atoms: C_20  and  P_29
   11  A    between atoms: N_21  and  C_46
   12  A    between atoms: C_22  and  C_28
   13  A    between atoms: C_25  and  C_30
   14  A    between atoms: O_32  and  C_39
   15  A    between atoms: O_32  and  C_46
   16  A    between atoms: C_33  and  C_34
   17  A    between atoms: C_37  and  C_38
                            x       y       z     vdW  Elec       q    Type
                         _______ _______ _______ _____ _____    ______ ____

>  <TORSDO>
F 17

$$$$
=
 OpenBabel10222422073D

 47 51  0  0  1  0  0  0  0  0999 V2000
  187.9430  177.8380  139.0400 C   0  0  2  0  0  3  0  0  0  0  0  0
  186.4740  175.2340  136.0730 C   0  0  0  0  0  1  0  0  0  0  0  0
  186.2970  176.7410  136.1360 C   0  0  2  0  0  3  0  0  0  0  0  0
  187.0380  177.8130  137.8960 N   0  0  0  0  0  0  0  0  0  0  0  0
  187.4620  177.3240  136.6940 O   0  0  0  0  0  0  0  0  0  0  0  0
  185.1940  177.1000  137.0700 C   0  0  0  0  0  0  0  0  0  0  0  0
  185.6640  177.7070  138.0880 N   0  0  0  0  0  0  0  0  0  0  0  0
  183.1130  177.5320  136.0300 O   0  0  0  0  0  0  0  0  0  0  0  0
  183.7580  176.8500  136.8710 C   0  0  0  0  0  0  0  0  0  0  0  0
  183.0540  175.7960  137.6580 C   0  0  0  0  0  2  0  0  0  0  0  0
  181.3870  175.4590  139.7780 O   0  0  0  0  0  1  0  0  0  0  0  0
  180.8770  177.5450  138.2780 O   0  0  0  0  0  0  0  0  0  0  0  0
  182.0580  176.5530  138.9780 P   0  0  2  0  0  0  0  0  0  0  0  0
  183.0720  177.4650  139.9880 O   0  0  0  0  0  0  0  0  0  0  0  0
  182.3890  178.6630  140.2200 C   0  0  0  0  0  2  0  0  0  0  0  0
  180.5560  179.5690  141.6070 C   0  0  0  0  0  1  0  0  0  0  0  0
  181.7230  178.6090  141.5790 C   0  0  0  0  0  2  0  0  0  0  0  0
  187.5660  178.8450  139.9840 O   0  0  0  0  0  0  0  0  0  0  0  0
  187.8670  177.7660  142.2650 C   0  0  0  0  0  2  0  0  0  0  0  0
  185.9110  179.1580  141.6170 C   0  0  0  0  0  3  0  0  0  0  0  0
  186.2470  178.5060  144.0180 C   0  0  2  0  0  3  0  0  0  0  0  0
  187.0740  178.5920  141.2720 C   0  0  0  0  0  0  0  0  0  0  0  0
  185.2420  178.9190  142.9410 C   0  0  0  0  0  2  0  0  0  0  0  0
  187.0450  177.3220  143.4740 C   0  0  0  0  0  2  0  0  0  0  0  0
  185.5340  178.1330  145.3220 C   0  0  2  0  0  3  0  0  0  0  0  0
  184.2000  178.8600  145.4310 C   0  0  0  0  0  1  0  0  0  0  0  0
  186.3940  178.5040  146.5210 C   0  0  0  0  0  2  0  0  0  0  0  0
  187.1980  177.3020  146.9800 C   0  0  0  0  0  2  0  0  0  0  0  0
  189.6290  177.5330  147.7500 N   0  0  0  0  0  2  0  0  0  0  0  0
  189.5310  176.6280  145.5840 O   0  0  0  0  0  0  0  0  0  0  0  0
  188.2260  177.7250  147.9770 C   0  0  0  0  0  0  0  0  0  0  0  0
  190.2320  176.9620  146.5800 C   0  0  0  0  0  0  0  0  0  0  0  0
  187.8490  178.2890  149.0380 O   0  0  0  0  0  0  0  0  0  0  0  0
  192.0810  175.3280  146.4830 C   0  0  0  0  0  2  0  0  0  0  0  0
  191.7180  176.8040  146.5230 C   0  0  0  0  0  3  0  0  0  0  0  0
  192.2100  176.1020  147.7760 C   0  0  0  0  0  2  0  0  0  0  0  0
  189.3880  178.0190  138.5880 C   0  0  0  0  0  2  0  0  0  0  0  0
  190.3100  177.0680  139.3370 C   0  0  0  0  0  2  0  0  0  0  0  0
  190.9640  176.1210  138.3860 C   0  0  0  0  0  0  0  0  0  0  0  0
  194.2890  175.3080  136.8670 C   0  0  0  0  0  3  0  0  0  0  0  0
  193.1700  173.6020  135.5400 S   0  0  0  0  0  0  0  0  0  0  0  0
  192.1480  174.4290  136.5520 C   0  0  0  0  0  0  0  0  0  0  0  0
  190.1830  175.1760  137.6860 C   0  0  0  0  0  3  0  0  0  0  0  0
  192.9300  175.3500  137.2250 C   0  0  0  0  0  0  0  0  0  0  0  0
  192.3490  176.2160  138.1510 C   0  0  0  0  0  3  0  0  0  0  0  0
  194.5990  174.3750  135.9240 N   0  0  0  0  0  0  0  0  0  0  0  0
  190.7760  174.3110  136.7530 C   0  0  0  0  0  3  0  0  0  0  0  0
  1 37  1  6  0  0  0
  1 18  1  0  0  0  0
  3  2  1  1  0  0  0
  3  5  1  0  0  0  0
  3  6  1  0  0  0  0
  4  7  1  0  0  0  0
  4  1  1  0  0  0  0
  5  4  1  0  0  0  0
  6  7  2  0  0  0  0
  8  9  2  0  0  0  0
  9  6  1  0  0  0  0
  9 10  1  0  0  0  0
 10 13  1  0  0  0  0
 13 12  2  6  0  0  0
 13 11  1  0  0  0  0
 13 14  1  0  0  0  0
 14 15  1  0  0  0  0
 15 17  1  0  0  0  0
 17 16  1  0  0  0  0
 18 22  1  0  0  0  0
 19 24  1  0  0  0  0
 20 23  1  0  0  0  0
 21 25  1  1  0  0  0
 22 20  2  0  0  0  0
 22 19  1  0  0  0  0
 23 21  1  0  0  0  0
 24 21  1  0  0  0  0
 25 26  1  1  0  0  0
 25 27  1  0  0  0  0
 27 28  1  0  0  0  0
 28 31  1  0  0  0  0
 29 31  1  0  0  0  0
 30 32  2  0  0  0  0
 31 33  2  0  0  0  0
 32 29  1  0  0  0  0
 34 35  1  0  0  0  0
 34 36  1  0  0  0  0
 35 32  1  0  0  0  0
 35 36  1  0  0  0  0
 37 38  1  0  0  0  0
 39 38  1  0  0  0  0
 40 44  1  0  0  0  0
 41 46  1  0  0  0  0
 41 42  1  0  0  0  0
 42 47  2  0  0  0  0
 42 44  1  0  0  0  0
 43 39  2  0  0  0  0
 44 45  2  0  0  0  0
 45 39  1  0  0  0  0
 46 40  2  0  0  0  0
 47 43  1  0  0  0  0
M  END
>  <MODEL>
5

>  <REMARK>
 VINA RESULT:      -7.7      4.276      8.476
  Name = 
  17 active torsions:
  status: ('A' for Active; 'I' for Inactive)
    1  A    between atoms: C_2  and  C_15
    2  A    between atoms: O_4  and  P_29
    3  A    between atoms: O_4  and  C_37
    4  A    between atoms: C_11  and  C_15
    5  A    between atoms: C_11  and  C_46
    6  A    between atoms: C_12  and  C_22
    7  A    between atoms: C_12  and  C_31
    8  A    between atoms: C_17  and  C_28
    9  A    between atoms: C_20  and  C_25
   10  A    between atoms: C_20  and  P_29
   11  A    between atoms: N_21  and  C_46
   12  A    between atoms: C_22  and  C_28
   13  A    between atoms: C_25  and  C_30
   14  A    between atoms: O_32  and  C_39
   15  A    between atoms: O_32  and  C_46
   16  A    between atoms: C_33  and  C_34
   17  A    between atoms: C_37  and  C_38
                            x       y       z     vdW  Elec       q    Type
                         _______ _______ _______ _____ _____    ______ ____

>  <TORSDO>
F 17

$$$$
=
 OpenBabel10222422073D

 47 51  0  0  1  0  0  0  0  0999 V2000
  188.0490  177.7370  138.9600 C   0  0  2  0  0  3  0  0  0  0  0  0
  188.1000  175.5040  135.3890 C   0  0  0  0  0  1  0  0  0  0  0  0
  187.2340  176.7120  135.7000 C   0  0  2  0  0  3  0  0  0  0  0  0
  187.3100  177.5700  137.7130 N   0  0  0  0  0  0  0  0  0  0  0  0
  187.9640  177.6120  136.5160 O   0  0  0  0  0  0  0  0  0  0  0  0
  186.0540  176.3140  136.5160 C   0  0  0  0  0  0  0  0  0  0  0  0
  186.1400  176.8170  137.6830 N   0  0  0  0  0  0  0  0  0  0  0  0
  184.5330  175.5520  134.8700 O   0  0  0  0  0  0  0  0  0  0  0  0
  184.9130  175.4980  136.0710 C   0  0  0  0  0  0  0  0  0  0  0  0
  184.1960  174.6070  137.0290 C   0  0  0  0  0  2  0  0  0  0  0  0
  185.9240  172.8060  138.1050 O   0  0  0  0  0  1  0  0  0  0  0  0
  185.6750  172.6960  135.5000 O   0  0  0  0  0  0  0  0  0  0  0  0
  184.9090  172.9350  136.9910 P   0  0  2  0  0  0  0  0  0  0  0  0
  183.6700  171.7950  137.2080 O   0  0  0  0  0  0  0  0  0  0  0  0
  182.8860  171.8710  136.0520 C   0  0  0  0  0  2  0  0  0  0  0  0
  183.7080  169.5450  135.9140 C   0  0  0  0  0  1  0  0  0  0  0  0
  182.5650  170.4720  135.5690 C   0  0  0  0  0  2  0  0  0  0  0  0
  187.4490  178.7320  139.7950 O   0  0  0  0  0  0  0  0  0  0  0  0
  187.8180  177.9280  142.1780 C   0  0  0  0  0  2  0  0  0  0  0  0
  185.6740  178.8540  141.3250 C   0  0  0  0  0  3  0  0  0  0  0  0
  185.9900  178.4860  143.7880 C   0  0  2  0  0  3  0  0  0  0  0  0
  186.9410  178.4980  141.0810 C   0  0  0  0  0  0  0  0  0  0  0  0
  184.9880  178.6030  142.6380 C   0  0  0  0  0  2  0  0  0  0  0  0
  187.0280  177.4370  143.3900 C   0  0  0  0  0  2  0  0  0  0  0  0
  185.2870  178.0930  145.0910 C   0  0  2  0  0  3  0  0  0  0  0  0
  183.9440  178.8000  145.2120 C   0  0  0  0  0  1  0  0  0  0  0  0
  186.1470  178.4680  146.2900 C   0  0  0  0  0  2  0  0  0  0  0  0
  187.0470  177.3070  146.6720 C   0  0  0  0  0  2  0  0  0  0  0  0
  189.4240  177.5660  147.5890 N   0  0  0  0  0  2  0  0  0  0  0  0
  189.4710  176.6940  145.4080 O   0  0  0  0  0  0  0  0  0  0  0  0
  188.0060  177.7320  147.7350 C   0  0  0  0  0  0  0  0  0  0  0  0
  190.1050  177.0240  146.4500 C   0  0  0  0  0  0  0  0  0  0  0  0
  187.5560  178.2720  148.7790 O   0  0  0  0  0  0  0  0  0  0  0  0
  191.9830  175.4250  146.5660 C   0  0  0  0  0  2  0  0  0  0  0  0
  191.5950  176.8920  146.4800 C   0  0  0  0  0  3  0  0  0  0  0  0
  192.0320  176.2930  147.8040 C   0  0  0  0  0  2  0  0  0  0  0  0
  189.5150  178.0590  138.6870 C   0  0  0  0  0  2  0  0  0  0  0  0
  190.4260  177.1640  139.5130 C   0  0  0  0  0  2  0  0  0  0  0  0
  191.2840  176.3290  138.6220 C   0  0  0  0  0  0  0  0  0  0  0  0
  191.1320  173.3960  136.2990 C   0  0  0  0  0  3  0  0  0  0  0  0
  193.5440  173.5870  136.0370 S   0  0  0  0  0  0  0  0  0  0  0  0
  192.8970  174.7280  137.0540 C   0  0  0  0  0  0  0  0  0  0  0  0
  192.6760  176.5590  138.5690 C   0  0  0  0  0  3  0  0  0  0  0  0
  191.5360  174.4830  137.0940 C   0  0  0  0  0  0  0  0  0  0  0  0
  190.7070  175.2780  137.8840 C   0  0  0  0  0  3  0  0  0  0  0  0
  192.1430  172.7740  135.6310 N   0  0  0  0  0  0  0  0  0  0  0  0
  193.5040  175.7510  137.7730 C   0  0  0  0  0  3  0  0  0  0  0  0
  1 37  1  6  0  0  0
  1 18  1  0  0  0  0
  3  2  1  1  0  0  0
  3  6  1  0  0  0  0
  3  5  1  0  0  0  0
  4  1  1  0  0  0  0
  5  4  1  0  0  0  0
  6  7  2  0  0  0  0
  7  4  1  0  0  0  0
  8  9  2  0  0  0  0
  9  6  1  0  0  0  0
  9 10  1  0  0  0  0
 13 12  2  6  0  0  0
 13 10  1  0  0  0  0
 13 14  1  0  0  0  0
 13 11  1  0  0  0  0
 15 14  1  0  0  0  0
 17 16  1  0  0  0  0
 17 15  1  0  0  0  0
 18 22  1  0  0  0  0
 19 24  1  0  0  0  0
 20 23  1  0  0  0  0
 21 25  1  1  0  0  0
 22 20  2  0  0  0  0
 22 19  1  0  0  0  0
 23 21  1  0  0  0  0
 24 21  1  0  0  0  0
 25 26  1  1  0  0  0
 25 27  1  0  0  0  0
 27 28  1  0  0  0  0
 28 31  1  0  0  0  0
 29 31  1  0  0  0  0
 30 32  2  0  0  0  0
 31 33  2  0  0  0  0
 32 35  1  0  0  0  0
 32 29  1  0  0  0  0
 34 36  1  0  0  0  0
 35 34  1  0  0  0  0
 35 36  1  0  0  0  0
 37 38  1  0  0  0  0
 39 38  1  0  0  0  0
 40 44  1  0  0  0  0
 41 42  1  0  0  0  0
 42 44  2  0  0  0  0
 42 47  1  0  0  0  0
 43 39  1  0  0  0  0
 44 45  1  0  0  0  0
 45 39  2  0  0  0  0
 46 41  1  0  0  0  0
 46 40  2  0  0  0  0
 47 43  2  0  0  0  0
M  END
>  <MODEL>
6

>  <REMARK>
 VINA RESULT:      -7.6      4.107      7.562
  Name = 
  17 active torsions:
  status: ('A' for Active; 'I' for Inactive)
    1  A    between atoms: C_2  and  C_15
    2  A    between atoms: O_4  and  P_29
    3  A    between atoms: O_4  and  C_37
    4  A    between atoms: C_11  and  C_15
    5  A    between atoms: C_11  and  C_46
    6  A    between atoms: C_12  and  C_22
    7  A    between atoms: C_12  and  C_31
    8  A    between atoms: C_17  and  C_28
    9  A    between atoms: C_20  and  C_25
   10  A    between atoms: C_20  and  P_29
   11  A    between atoms: N_21  and  C_46
   12  A    between atoms: C_22  and  C_28
   13  A    between atoms: C_25  and  C_30
   14  A    between atoms: O_32  and  C_39
   15  A    between atoms: O_32  and  C_46
   16  A    between atoms: C_33  and  C_34
   17  A    between atoms: C_37  and  C_38
                            x       y       z     vdW  Elec       q    Type
                         _______ _______ _______ _____ _____    ______ ____

>  <TORSDO>
F 17

$$$$
=
 OpenBabel10222422073D

 47 51  0  0  1  0  0  0  0  0999 V2000
  189.2510  177.2720  140.1630 C   0  0  2  0  0  3  0  0  0  0  0  0
  186.2250  177.1470  137.2370 C   0  0  0  0  0  1  0  0  0  0  0  0
  186.7990  178.3830  137.9060 C   0  0  2  0  0  3  0  0  0  0  0  0
  188.2580  178.1240  139.5190 N   0  0  0  0  0  0  0  0  0  0  0  0
  188.1790  178.1790  138.1570 O   0  0  0  0  0  0  0  0  0  0  0  0
  186.1840  178.5870  139.2470 C   0  0  0  0  0  0  0  0  0  0  0  0
  187.0570  178.4120  140.1590 N   0  0  0  0  0  0  0  0  0  0  0  0
  184.3890  180.1290  139.2210 O   0  0  0  0  0  0  0  0  0  0  0  0
  184.7920  178.9740  139.5250 C   0  0  0  0  0  0  0  0  0  0  0  0
  183.8500  178.0120  140.1680 C   0  0  0  0  0  2  0  0  0  0  0  0
  182.4450  178.3920  137.8730 O   0  0  0  0  0  0  0  0  0  0  0  0
  181.2290  176.9670  139.7040 O   0  0  0  0  0  1  0  0  0  0  0  0
  182.6900  177.3450  138.9370 P   0  0  2  0  0  0  0  0  0  0  0  0
  183.3640  175.9550  138.2320 O   0  0  0  0  0  0  0  0  0  0  0  0
  182.3040  175.0530  138.0980 C   0  0  0  0  0  2  0  0  0  0  0  0
  184.2630  173.7290  137.3820 C   0  0  0  0  0  1  0  0  0  0  0  0
  182.7590  173.8570  137.2890 C   0  0  0  0  0  2  0  0  0  0  0  0
  190.1930  178.0420  140.9170 O   0  0  0  0  0  0  0  0  0  0  0  0
  190.7510  178.9400  143.2280 C   0  0  0  0  0  2  0  0  0  0  0  0
  190.6190  176.5240  142.6530 C   0  0  0  0  0  3  0  0  0  0  0  0
  190.7810  177.2350  145.0550 C   0  0  2  0  0  3  0  0  0  0  0  0
  190.5410  177.7990  142.2530 C   0  0  0  0  0  0  0  0  0  0  0  0
  191.0420  176.1230  144.0380 C   0  0  0  0  0  2  0  0  0  0  0  0
  191.4380  178.5080  144.5240 C   0  0  0  0  0  2  0  0  0  0  0  0
  191.3430  176.8640  146.4320 C   0  0  2  0  0  3  0  0  0  0  0  0
  191.9840  175.4830  146.3960 C   0  0  0  0  0  1  0  0  0  0  0  0
  190.2340  176.8640  147.4740 C   0  0  0  0  0  2  0  0  0  0  0  0
  188.8790  176.9280  146.7950 C   0  0  0  0  0  2  0  0  0  0  0  0
  186.8100  178.4100  147.0750 N   0  0  0  0  0  2  0  0  0  0  0  0
  187.0880  177.7970  144.8240 O   0  0  0  0  0  0  0  0  0  0  0  0
  187.9200  177.6990  147.6410 C   0  0  0  0  0  0  0  0  0  0  0  0
  186.4510  178.4630  145.6870 C   0  0  0  0  0  0  0  0  0  0  0  0
  188.0780  177.7050  148.8900 O   0  0  0  0  0  0  0  0  0  0  0  0
  184.0520  178.3960  145.1090 C   0  0  0  0  0  2  0  0  0  0  0  0
  185.2740  179.2850  145.2650 C   0  0  0  0  0  3  0  0  0  0  0  0
  184.8130  178.8540  143.8850 C   0  0  0  0  0  2  0  0  0  0  0  0
  189.9580  176.3870  139.1400 C   0  0  0  0  0  2  0  0  0  0  0  0
  191.3740  176.8800  138.8880 C   0  0  0  0  0  2  0  0  0  0  0  0
  192.0890  175.9590  137.9560 C   0  0  0  0  0  0  0  0  0  0  0  0
  195.1380  175.7480  135.7930 C   0  0  0  0  0  3  0  0  0  0  0  0
  194.3600  173.5640  135.0550 S   0  0  0  0  0  0  0  0  0  0  0  0
  193.3510  174.2880  136.1560 C   0  0  0  0  0  0  0  0  0  0  0  0
  191.5140  174.7140  137.6200 C   0  0  0  0  0  3  0  0  0  0  0  0
  193.9290  175.5050  136.4690 C   0  0  0  0  0  0  0  0  0  0  0  0
  193.3040  176.3640  137.3720 C   0  0  0  0  0  3  0  0  0  0  0  0
  195.5290  174.7510  134.9520 N   0  0  0  0  0  0  0  0  0  0  0  0
  192.1500  173.8570  136.7080 C   0  0  0  0  0  3  0  0  0  0  0  0
  1 37  1  6  0  0  0
  1 18  1  0  0  0  0
  3  2  1  1  0  0  0
  3  5  1  0  0  0  0
  3  6  1  0  0  0  0
  4  7  1  0  0  0  0
  4  1  1  0  0  0  0
  5  4  1  0  0  0  0
  6  9  1  0  0  0  0
  6  7  2  0  0  0  0
  8  9  2  0  0  0  0
  9 10  1  0  0  0  0
 13 11  2  6  0  0  0
 13 12  1  0  0  0  0
 13 10  1  0  0  0  0
 14 13  1  0  0  0  0
 15 14  1  0  0  0  0
 17 16  1  0  0  0  0
 17 15  1  0  0  0  0
 18 22  1  0  0  0  0
 19 24  1  0  0  0  0
 20 23  1  0  0  0  0
 21 25  1  1  0  0  0
 22 20  2  0  0  0  0
 22 19  1  0  0  0  0
 23 21  1  0  0  0  0
 24 21  1  0  0  0  0
 25 26  1  6  0  0  0
 25 27  1  0  0  0  0
 28 27  1  0  0  0  0
 28 31  1  0  0  0  0
 29 31  1  0  0  0  0
 30 32  2  0  0  0  0
 31 33  2  0  0  0  0
 32 29  1  0  0  0  0
 34 35  1  0  0  0  0
 35 32  1  0  0  0  0
 36 34  1  0  0  0  0
 36 35  1  0  0  0  0
 38 37  1  0  0  0  0
 39 38  1  0  0  0  0
 40 44  1  0  0  0  0
 41 42  1  0  0  0  0
 42 44  2  0  0  0  0
 42 47  1  0  0  0  0
 43 39  1  0  0  0  0
 44 45  1  0  0  0  0
 45 39  2  0  0  0  0
 46 41  1  0  0  0  0
 46 40  2  0  0  0  0
 47 43  2  0  0  0  0
M  END
>  <MODEL>
7

>  <REMARK>
 VINA RESULT:      -7.5      3.920      7.576
  Name = 
  17 active torsions:
  status: ('A' for Active; 'I' for Inactive)
    1  A    between atoms: C_2  and  C_15
    2  A    between atoms: O_4  and  P_29
    3  A    between atoms: O_4  and  C_37
    4  A    between atoms: C_11  and  C_15
    5  A    between atoms: C_11  and  C_46
    6  A    between atoms: C_12  and  C_22
    7  A    between atoms: C_12  and  C_31
    8  A    between atoms: C_17  and  C_28
    9  A    between atoms: C_20  and  C_25
   10  A    between atoms: C_20  and  P_29
   11  A    between atoms: N_21  and  C_46
   12  A    between atoms: C_22  and  C_28
   13  A    between atoms: C_25  and  C_30
   14  A    between atoms: O_32  and  C_39
   15  A    between atoms: O_32  and  C_46
   16  A    between atoms: C_33  and  C_34
   17  A    between atoms: C_37  and  C_38
                            x       y       z     vdW  Elec       q    Type
                         _______ _______ _______ _____ _____    ______ ____

>  <TORSDO>
F 17

$$$$
=
 OpenBabel10222422073D

 47 51  0  0  1  0  0  0  0  0999 V2000
  188.7460  176.9660  138.3800 C   0  0  2  0  0  3  0  0  0  0  0  0
  184.8640  177.0360  136.7490 C   0  0  0  0  0  1  0  0  0  0  0  0
  185.7380  178.2330  137.0810 C   0  0  2  0  0  3  0  0  0  0  0  0
  187.6570  177.8880  138.0770 N   0  0  0  0  0  0  0  0  0  0  0  0
  187.0940  177.9030  136.8340 O   0  0  0  0  0  0  0  0  0  0  0  0
  185.6700  178.5430  138.5360 C   0  0  0  0  0  0  0  0  0  0  0  0
  186.7970  178.3160  139.0850 N   0  0  0  0  0  0  0  0  0  0  0  0
  184.1800  180.2840  139.1300 O   0  0  0  0  0  0  0  0  0  0  0  0
  184.5090  179.0740  139.2670 C   0  0  0  0  0  0  0  0  0  0  0  0
  183.7140  178.1950  140.1740 C   0  0  0  0  0  2  0  0  0  0  0  0
  181.4410  176.7340  139.8760 O   0  0  0  0  0  1  0  0  0  0  0  0
  181.9120  178.4680  137.9700 O   0  0  0  0  0  0  0  0  0  0  0  0
  181.9810  178.1250  139.6260 P   0  0  2  0  0  0  0  0  0  0  0  0
  181.0730  179.2600  140.5030 O   0  0  0  0  0  0  0  0  0  0  0  0
  181.4920  179.1290  141.8310 C   0  0  0  0  0  2  0  0  0  0  0  0
  180.5790  178.7210  144.0900 C   0  0  0  0  0  1  0  0  0  0  0  0
  180.4330  178.3890  142.6220 C   0  0  0  0  0  2  0  0  0  0  0  0
  189.8600  177.6460  138.9670 O   0  0  0  0  0  0  0  0  0  0  0  0
  189.0850  178.0750  141.3490 C   0  0  0  0  0  2  0  0  0  0  0  0
  191.3640  177.2920  140.7330 C   0  0  0  0  0  3  0  0  0  0  0  0
  190.6390  177.2790  143.1370 C   0  0  2  0  0  3  0  0  0  0  0  0
  190.1450  177.6810  140.3400 C   0  0  0  0  0  0  0  0  0  0  0  0
  191.8190  177.3400  142.1650 C   0  0  0  0  0  2  0  0  0  0  0  0
  189.6540  178.3750  142.7360 C   0  0  0  0  0  2  0  0  0  0  0  0
  191.1090  177.4670  144.5830 C   0  0  2  0  0  3  0  0  0  0  0  0
  191.4250  176.1240  145.2250 C   0  0  0  0  0  1  0  0  0  0  0  0
  190.0310  178.1610  145.4040 C   0  0  0  0  0  2  0  0  0  0  0  0
  189.1060  177.1330  146.0290 C   0  0  0  0  0  2  0  0  0  0  0  0
  186.7240  178.0590  146.1930 N   0  0  0  0  0  2  0  0  0  0  0  0
  187.0570  176.9980  144.1230 O   0  0  0  0  0  0  0  0  0  0  0  0
  188.0120  177.8180  146.7780 C   0  0  0  0  0  0  0  0  0  0  0  0
  186.3020  177.6720  144.8780 C   0  0  0  0  0  0  0  0  0  0  0  0
  188.2200  178.1750  147.9680 O   0  0  0  0  0  0  0  0  0  0  0  0
  184.9890  179.2630  143.5220 C   0  0  0  0  0  2  0  0  0  0  0  0
  184.9270  178.0350  144.4140 C   0  0  0  0  0  3  0  0  0  0  0  0
  184.5410  179.3970  144.9600 C   0  0  0  0  0  2  0  0  0  0  0  0
  189.1680  176.1930  137.1350 C   0  0  0  0  0  2  0  0  0  0  0  0
  190.5570  176.6170  136.6820 C   0  0  0  0  0  2  0  0  0  0  0  0
  191.5150  175.4790  136.8070 C   0  0  0  0  0  0  0  0  0  0  0  0
  194.7930  174.5510  138.3640 C   0  0  0  0  0  3  0  0  0  0  0  0
  194.6130  172.3940  137.2530 S   0  0  0  0  0  0  0  0  0  0  0  0
  193.3300  173.4020  136.9510 C   0  0  0  0  0  0  0  0  0  0  0  0
  191.2770  174.2780  136.1030 C   0  0  0  0  0  3  0  0  0  0  0  0
  193.5840  174.5710  137.6460 C   0  0  0  0  0  0  0  0  0  0  0  0
  192.6810  175.6310  137.5810 C   0  0  0  0  0  3  0  0  0  0  0  0
  195.5010  173.3940  138.2510 N   0  0  0  0  0  0  0  0  0  0  0  0
  192.1930  173.2160  136.1710 C   0  0  0  0  0  3  0  0  0  0  0  0
  1 37  1  6  0  0  0
  1 18  1  0  0  0  0
  3  2  1  1  0  0  0
  3  6  1  0  0  0  0
  4  1  1  0  0  0  0
  4  7  1  0  0  0  0
  5  3  1  0  0  0  0
  5  4  1  0  0  0  0
  6  7  2  0  0  0  0
  6  9  1  0  0  0  0
  8  9  2  0  0  0  0
  9 10  1  0  0  0  0
 13 12  2  6  0  0  0
 13 11  1  0  0  0  0
 13 10  1  0  0  0  0
 13 14  1  0  0  0  0
 14 15  1  0  0  0  0
 15 17  1  0  0  0  0
 17 16  1  0  0  0  0
 18 22  1  0  0  0  0
 19 24  1  0  0  0  0
 20 23  1  0  0  0  0
 21 25  1  1  0  0  0
 22 20  2  0  0  0  0
 22 19  1  0  0  0  0
 23 21  1  0  0  0  0
 24 21  1  0  0  0  0
 25 26  1  1  0  0  0
 25 27  1  0  0  0  0
 27 28  1  0  0  0  0
 28 31  1  0  0  0  0
 29 31  1  0  0  0  0
 30 32  2  0  0  0  0
 31 33  2  0  0  0  0
 32 29  1  0  0  0  0
 34 35  1  0  0  0  0
 34 36  1  0  0  0  0
 35 32  1  0  0  0  0
 35 36  1  0  0  0  0
 38 39  1  0  0  0  0
 38 37  1  0  0  0  0
 39 45  1  0  0  0  0
 41 46  1  0  0  0  0
 42 41  1  0  0  0  0
 42 44  1  0  0  0  0
 43 47  1  0  0  0  0
 43 39  2  0  0  0  0
 44 40  1  0  0  0  0
 45 44  2  0  0  0  0
 46 40  2  0  0  0  0
 47 42  2  0  0  0  0
M  END
>  <MODEL>
8

>  <REMARK>
 VINA RESULT:      -7.5      3.952      8.388
  Name = 
  17 active torsions:
  status: ('A' for Active; 'I' for Inactive)
    1  A    between atoms: C_2  and  C_15
    2  A    between atoms: O_4  and  P_29
    3  A    between atoms: O_4  and  C_37
    4  A    between atoms: C_11  and  C_15
    5  A    between atoms: C_11  and  C_46
    6  A    between atoms: C_12  and  C_22
    7  A    between atoms: C_12  and  C_31
    8  A    between atoms: C_17  and  C_28
    9  A    between atoms: C_20  and  C_25
   10  A    between atoms: C_20  and  P_29
   11  A    between atoms: N_21  and  C_46
   12  A    between atoms: C_22  and  C_28
   13  A    between atoms: C_25  and  C_30
   14  A    between atoms: O_32  and  C_39
   15  A    between atoms: O_32  and  C_46
   16  A    between atoms: C_33  and  C_34
   17  A    between atoms: C_37  and  C_38
                            x       y       z     vdW  Elec       q    Type
                         _______ _______ _______ _____ _____    ______ ____

>  <TORSDO>
F 17

$$$$
=
 OpenBabel10222422073D

 47 51  0  0  1  0  0  0  0  0999 V2000
  185.9440  178.6960  141.2820 C   0  0  2  0  0  3  0  0  0  0  0  0
  189.5240  176.6660  142.1740 C   0  0  0  0  0  1  0  0  0  0  0  0
  189.3860  178.0530  141.5730 C   0  0  2  0  0  3  0  0  0  0  0  0
  187.3840  178.7840  141.0670 N   0  0  0  0  0  0  0  0  0  0  0  0
  188.2440  178.6880  142.1230 O   0  0  0  0  0  0  0  0  0  0  0  0
  189.1180  177.9660  140.1100 C   0  0  0  0  0  0  0  0  0  0  0  0
  187.9410  178.3840  139.8560 N   0  0  0  0  0  0  0  0  0  0  0  0
  191.1860  177.0620  139.3990 O   0  0  0  0  0  0  0  0  0  0  0  0
  190.0550  177.5120  139.0710 C   0  0  0  0  0  0  0  0  0  0  0  0
  189.6820  177.5810  137.6280 C   0  0  0  0  0  2  0  0  0  0  0  0
  189.8070  174.8680  137.7260 O   0  0  0  0  0  1  0  0  0  0  0  0
  189.1910  175.8730  135.3880 O   0  0  0  0  0  0  0  0  0  0  0  0
  189.0230  175.9820  137.0690 P   0  0  2  0  0  0  0  0  0  0  0  0
  187.3870  175.8690  137.5080 O   0  0  0  0  0  0  0  0  0  0  0  0
  186.6750  176.4290  136.4420 C   0  0  0  0  0  2  0  0  0  0  0  0
  184.2870  176.8490  135.9690 C   0  0  0  0  0  1  0  0  0  0  0  0
  185.4040  177.0670  136.9640 C   0  0  0  0  0  2  0  0  0  0  0  0
  185.2170  179.3260  140.2210 O   0  0  0  0  0  0  0  0  0  0  0  0
  183.3090  179.5900  138.5640 C   0  0  0  0  0  2  0  0  0  0  0  0
  183.5130  177.7140  140.1830 C   0  0  0  0  0  3  0  0  0  0  0  0
  181.7950  177.6130  138.3550 C   0  0  2  0  0  3  0  0  0  0  0  0
  184.0030  178.8600  139.6950 C   0  0  0  0  0  0  0  0  0  0  0  0
  182.1940  177.1370  139.7530 C   0  0  0  0  0  2  0  0  0  0  0  0
  181.8640  179.1390  138.3510 C   0  0  0  0  0  2  0  0  0  0  0  0
  180.3880  177.1280  137.9900 C   0  0  2  0  0  3  0  0  0  0  0  0
  179.9820  175.9500  138.8640 C   0  0  0  0  0  1  0  0  0  0  0  0
  180.3390  176.6960  136.5310 C   0  0  0  0  0  2  0  0  0  0  0  0
  180.2990  175.1820  136.4350 C   0  0  0  0  0  2  0  0  0  0  0  0
  182.1120  173.5180  135.7270 N   0  0  0  0  0  2  0  0  0  0  0  0
  181.0930  172.8270  137.7270 O   0  0  0  0  0  0  0  0  0  0  0  0
  181.3420  174.7030  135.4800 C   0  0  0  0  0  0  0  0  0  0  0  0
  181.9860  172.6410  136.8540 C   0  0  0  0  0  0  0  0  0  0  0  0
  181.5340  175.3470  134.4150 O   0  0  0  0  0  0  0  0  0  0  0  0
  183.7980  171.3800  135.7480 C   0  0  0  0  0  2  0  0  0  0  0  0
  182.8990  171.4610  136.9710 C   0  0  0  0  0  3  0  0  0  0  0  0
  182.5980  170.4660  135.8640 C   0  0  0  0  0  2  0  0  0  0  0  0
  185.5580  179.2810  142.6360 C   0  0  0  0  0  2  0  0  0  0  0  0
  185.0550  178.1910  143.5700 C   0  0  0  0  0  2  0  0  0  0  0  0
  185.8030  178.2250  144.8620 C   0  0  0  0  0  0  0  0  0  0  0  0
  189.0350  177.1480  146.4180 C   0  0  0  0  0  3  0  0  0  0  0  0
  188.2070  178.0170  148.5340 S   0  0  0  0  0  0  0  0  0  0  0  0
  187.1380  178.2060  147.2790 C   0  0  0  0  0  0  0  0  0  0  0  0
  185.1930  178.7680  146.0140 C   0  0  0  0  0  3  0  0  0  0  0  0
  187.7520  177.6660  146.1630 C   0  0  0  0  0  0  0  0  0  0  0  0
  187.0920  177.6630  144.9350 C   0  0  0  0  0  3  0  0  0  0  0  0
  189.4480  177.2640  147.7100 N   0  0  0  0  0  0  0  0  0  0  0  0
  185.8650  178.7640  147.2470 C   0  0  0  0  0  3  0  0  0  0  0  0
  1 37  1  1  0  0  0
  3  5  1  0  0  0  0
  3  2  1  1  0  0  0
  4  1  1  0  0  0  0
  4  5  1  0  0  0  0
  6  3  1  0  0  0  0
  7  6  2  0  0  0  0
  7  4  1  0  0  0  0
  9  8  2  0  0  0  0
  9  6  1  0  0  0  0
 10  9  1  0  0  0  0
 13 12  2  6  0  0  0
 13 14  1  0  0  0  0
 13 10  1  0  0  0  0
 13 11  1  0  0  0  0
 15 17  1  0  0  0  0
 15 14  1  0  0  0  0
 16 17  1  0  0  0  0
 18  1  1  0  0  0  0
 19 22  1  0  0  0  0
 21 25  1  1  0  0  0
 21 23  1  0  0  0  0
 22 20  2  0  0  0  0
 22 18  1  0  0  0  0
 23 20  1  0  0  0  0
 24 21  1  0  0  0  0
 24 19  1  0  0  0  0
 25 26  1  1  0  0  0
 27 25  1  0  0  0  0
 28 27  1  0  0  0  0
 29 32  1  0  0  0  0
 31 29  1  0  0  0  0
 31 28  1  0  0  0  0
 32 35  1  0  0  0  0
 32 30  2  0  0  0  0
 33 31  2  0  0  0  0
 34 36  1  0  0  0  0
 34 35  1  0  0  0  0
 36 35  1  0  0  0  0
 37 38  1  0  0  0  0
 38 39  1  0  0  0  0
 39 45  2  0  0  0  0
 39 43  1  0  0  0  0
 40 46  2  0  0  0  0
 42 41  1  0  0  0  0
 43 47  2  0  0  0  0
 44 40  1  0  0  0  0
 44 42  2  0  0  0  0
 45 44  1  0  0  0  0
 46 41  1  0  0  0  0
 47 42  1  0  0  0  0
M  END
>  <MODEL>
9

>  <REMARK>
 VINA RESULT:      -7.4      4.526      9.945
  Name = 
  17 active torsions:
  status: ('A' for Active; 'I' for Inactive)
    1  A    between atoms: C_2  and  C_15
    2  A    between atoms: O_4  and  P_29
    3  A    between atoms: O_4  and  C_37
    4  A    between atoms: C_11  and  C_15
    5  A    between atoms: C_11  and  C_46
    6  A    between atoms: C_12  and  C_22
    7  A    between atoms: C_12  and  C_31
    8  A    between atoms: C_17  and  C_28
    9  A    between atoms: C_20  and  C_25
   10  A    between atoms: C_20  and  P_29
   11  A    between atoms: N_21  and  C_46
   12  A    between atoms: C_22  and  C_28
   13  A    between atoms: C_25  and  C_30
   14  A    between atoms: O_32  and  C_39
   15  A    between atoms: O_32  and  C_46
   16  A    between atoms: C_33  and  C_34
   17  A    between atoms: C_37  and  C_38
                            x       y       z     vdW  Elec       q    Type
                         _______ _______ _______ _____ _____    ______ ____

>  <TORSDO>
F 17

$$$$
