=
 OpenBabel10232407463D

 25 28  0  0  1  0  0  0  0  0999 V2000
  189.2720  178.3630  148.1270 C   0  0  0  0  0  3  0  0  0  0  0  0
  186.6010  177.4180  144.3180 N   0  0  0  0  0  0  0  0  0  0  0  0
  191.9630  179.1470  144.8770 C   0  0  0  0  0  1  0  0  0  0  0  0
  189.4230  177.7290  146.8200 N   0  0  0  0  0  0  0  0  0  0  0  0
  188.6880  177.0770  141.4080 O   0  0  0  0  0  0  0  0  0  0  0  0
  188.1760  177.1470  142.7140 C   0  0  0  0  0  0  0  0  0  0  0  0
  190.0690  176.8650  141.0890 C   0  0  2  0  0  3  0  0  0  0  0  0
  190.1990  177.8470  143.7720 N   0  0  0  0  0  0  0  0  0  0  0  0
  187.7980  178.6160  148.2640 C   0  0  0  0  0  3  0  0  0  0  0  0
  190.1100  175.6770  145.9130 O   0  0  0  0  0  0  0  0  0  0  0  0
  187.9050  177.5310  144.8850 C   0  0  2  0  0  3  0  0  0  0  0  0
  188.1440  177.7800  146.1860 C   0  0  0  0  0  0  0  0  0  0  0  0
  188.8780  177.3330  143.8200 C   0  0  0  0  0  0  0  0  0  0  0  0
  191.4120  177.9390  142.9170 C   0  0  2  0  0  3  0  0  0  0  0  0
  191.0780  179.0490  143.6540 C   0  0  2  0  0  3  0  0  0  0  0  0
  190.3820  176.6730  146.6380 C   0  0  0  0  0  0  0  0  0  0  0  0
  186.7540  177.1770  143.0540 C   0  0  0  0  0  3  0  0  0  0  0  0
  187.1730  178.2720  147.1510 C   0  0  0  0  0  0  0  0  0  0  0  0
  190.9350  178.0710  141.4780 C   0  0  0  0  0  2  0  0  0  0  0  0
  191.6810  176.7020  147.3750 C   0  0  0  0  0  2  0  0  0  0  0  0
  192.4420  175.5790  147.0480 O   0  0  0  0  0  1  0  0  0  0  0  0
  189.6950  177.7490  138.8520 N   0  0  0  0  0  1  0  0  0  0  0  0
  190.1930  176.6070  139.5990 C   0  0  0  0  0  2  0  0  0  0  0  0
  184.6140  178.5460  146.8070 N   0  0  0  0  0  0  0  0  0  0  0  0
  185.7550  178.4240  146.9600 C   0  0  0  0  0  0  0  0  0  0  0  0
  1  9  2  0  0  0  0
  2 11  1  0  0  0  0
  4  1  1  0  0  0  0
  5  6  1  0  0  0  0
  6 17  1  0  0  0  0
  6 13  2  0  0  0  0
  7 23  1  6  0  0  0
  7  5  1  0  0  0  0
  7 19  1  0  0  0  0
  8 13  1  0  0  0  0
 10 16  2  0  0  0  0
 11 12  1  6  0  0  0
 12  4  1  0  0  0  0
 12 18  2  0  0  0  0
 13 11  1  0  0  0  0
 14 19  1  6  0  0  0
 14 15  1  0  0  0  0
 14  8  1  0  0  0  0
 15  8  1  0  0  0  0
 15  3  1  1  0  0  0
 16  4  1  0  0  0  0
 16 20  1  0  0  0  0
 17  2  2  0  0  0  0
 18  9  1  0  0  0  0
 21 20  1  0  0  0  0
 22 23  1  0  0  0  0
 24 25  3  0  0  0  0
 25 18  1  0  0  0  0
M  END
>  <MODEL>
1

>  <REMARK>
 VINA RESULT:      -6.6      0.000      0.000
  Name = 
  3 active torsions:
  status: ('A' for Active; 'I' for Inactive)
    1  A    between atoms: C_2  and  C_21
    2  A    between atoms: C_9  and  C_11
    3  A    between atoms: C_18  and  C_23
                            x       y       z     vdW  Elec       q    Type
                         _______ _______ _______ _____ _____    ______ ____

>  <TORSDO>
F 3

$$$$
=
 OpenBabel10232407463D

 25 28  0  0  1  0  0  0  0  0999 V2000
  190.8100  177.2510  144.9650 C   0  0  0  0  0  3  0  0  0  0  0  0
  186.2480  177.8610  146.1270 N   0  0  0  0  0  0  0  0  0  0  0  0
  189.1450  178.9160  141.3770 C   0  0  0  0  0  1  0  0  0  0  0  0
  189.4970  177.0960  144.3440 N   0  0  0  0  0  0  0  0  0  0  0  0
  184.2870  178.3980  143.1590 O   0  0  0  0  0  0  0  0  0  0  0  0
  185.2810  178.0490  144.0880 C   0  0  0  0  0  0  0  0  0  0  0  0
  184.4000  178.2130  141.7430 C   0  0  2  0  0  3  0  0  0  0  0  0
  187.1320  178.2010  142.5870 N   0  0  0  0  0  0  0  0  0  0  0  0
  190.5210  177.5430  146.4100 C   0  0  0  0  0  3  0  0  0  0  0  0
  188.2250  175.4390  143.2780 O   0  0  0  0  0  0  0  0  0  0  0  0
  187.2230  177.6820  145.1020 C   0  0  0  0  0  0  0  0  0  0  0  0
  188.5290  177.4500  145.3330 C   0  0  0  0  0  0  0  0  0  0  0  0
  186.5510  177.7950  143.8150 C   0  0  0  0  0  0  0  0  0  0  0  0
  186.8240  178.4970  141.1620 C   0  0  2  0  0  3  0  0  0  0  0  0
  187.7420  179.3060  141.7880 C   0  0  2  0  0  3  0  0  0  0  0  0
  189.2960  176.1030  143.3240 C   0  0  0  0  0  0  0  0  0  0  0  0
  185.1100  178.0600  145.5400 C   0  0  0  0  0  2  0  0  0  0  0  0
  189.2170  177.6470  146.6000 C   0  0  0  0  0  0  0  0  0  0  0  0
  185.4500  179.1490  141.1280 C   0  0  0  0  0  2  0  0  0  0  0  0
  190.3890  175.7870  142.3560 C   0  0  0  0  0  2  0  0  0  0  0  0
  190.0040  176.1470  141.0650 O   0  0  0  0  0  1  0  0  0  0  0  0
  182.0710  178.8070  142.1280 N   0  0  0  0  0  1  0  0  0  0  0  0
  183.0470  178.4750  141.1060 C   0  0  0  0  0  2  0  0  0  0  0  0
  188.1470  178.1990  148.9010 N   0  0  0  0  0  0  0  0  0  0  0  0
  188.6240  177.9530  147.8750 C   0  0  0  0  0  0  0  0  0  0  0  0
  1  9  2  0  0  0  0
  4  1  1  0  0  0  0
  4 12  1  0  0  0  0
  5  6  1  0  0  0  0
  6 17  1  0  0  0  0
  7 23  1  6  0  0  0
  7  5  1  0  0  0  0
  8 13  1  0  0  0  0
  9 18  1  0  0  0  0
 10 16  2  0  0  0  0
 11 12  1  0  0  0  0
 11  2  2  0  0  0  0
 12 18  2  0  0  0  0
 13  6  2  0  0  0  0
 13 11  1  0  0  0  0
 14 19  1  1  0  0  0
 14 15  1  0  0  0  0
 14  8  1  0  0  0  0
 15  3  1  6  0  0  0
 15  8  1  0  0  0  0
 16  4  1  0  0  0  0
 17  2  1  0  0  0  0
 18 25  1  0  0  0  0
 19  7  1  0  0  0  0
 20 16  1  0  0  0  0
 21 20  1  0  0  0  0
 23 22  1  0  0  0  0
 25 24  3  0  0  0  0
M  END
>  <MODEL>
2

>  <REMARK>
 VINA RESULT:      -6.5      2.425      4.357
  Name = 
  3 active torsions:
  status: ('A' for Active; 'I' for Inactive)
    1  A    between atoms: C_2  and  C_21
    2  A    between atoms: C_9  and  C_11
    3  A    between atoms: C_18  and  C_23
                            x       y       z     vdW  Elec       q    Type
                         _______ _______ _______ _____ _____    ______ ____

>  <TORSDO>
F 3

$$$$
=
 OpenBabel10232407463D

 25 28  0  0  1  0  0  0  0  0999 V2000
  180.3410  178.4690  141.9220 C   0  0  0  0  0  3  0  0  0  0  0  0
  185.0230  179.1790  142.2560 N   0  0  0  0  0  0  0  0  0  0  0  0
  181.8450  176.4600  138.4390 C   0  0  0  0  0  1  0  0  0  0  0  0
  181.4640  178.7720  141.0370 N   0  0  0  0  0  0  0  0  0  0  0  0
  186.6040  178.4470  139.1090 O   0  0  0  0  0  0  0  0  0  0  0  0
  185.6990  178.7610  140.1360 C   0  0  0  0  0  0  0  0  0  0  0  0
  186.2420  178.2790  137.7330 C   0  0  2  0  0  3  0  0  0  0  0  0
  183.7550  177.8640  139.0800 N   0  0  0  0  0  0  0  0  0  0  0  0
  180.9030  178.5810  143.3090 C   0  0  0  0  0  3  0  0  0  0  0  0
  182.0900  180.3910  139.4600 O   0  0  0  0  0  0  0  0  0  0  0  0
  183.8970  178.8990  141.4270 C   0  0  0  0  0  0  0  0  0  0  0  0
  182.6240  178.8760  141.8650 C   0  0  0  0  0  0  0  0  0  0  0  0
  184.3810  178.6550  140.0760 C   0  0  0  0  0  0  0  0  0  0  0  0
  183.9180  177.3330  137.7000 C   0  0  2  0  0  3  0  0  0  0  0  0
  183.3450  176.4990  138.6300 C   0  0  2  0  0  3  0  0  0  0  0  0
  181.2480  179.5300  139.8350 C   0  0  0  0  0  0  0  0  0  0  0  0
  186.0760  179.1160  141.5030 C   0  0  0  0  0  2  0  0  0  0  0  0
  182.2020  178.8190  143.2550 C   0  0  0  0  0  0  0  0  0  0  0  0
  185.3960  177.0170  137.5160 C   0  0  0  0  0  2  0  0  0  0  0  0
  179.9820  179.3670  139.0590 C   0  0  0  0  0  2  0  0  0  0  0  0
  180.0700  180.0530  137.8480 O   0  0  0  0  0  1  0  0  0  0  0  0
  188.5040  179.1200  137.4100 N   0  0  0  0  0  1  0  0  0  0  0  0
  187.5090  178.1920  136.9010 C   0  0  0  0  0  2  0  0  0  0  0  0
  183.7020  179.0520  145.3630 N   0  0  0  0  0  0  0  0  0  0  0  0
  183.0330  178.9490  144.4230 C   0  0  0  0  0  0  0  0  0  0  0  0
  1  9  2  0  0  0  0
  4 12  1  0  0  0  0
  4  1  1  0  0  0  0
  5  6  1  0  0  0  0
  6 17  1  0  0  0  0
  7 23  1  6  0  0  0
  7  5  1  0  0  0  0
  8 13  1  0  0  0  0
 10 16  2  0  0  0  0
 11 12  1  0  0  0  0
 11  2  2  0  0  0  0
 12 18  2  0  0  0  0
 13  6  2  0  0  0  0
 13 11  1  0  0  0  0
 14 19  1  1  0  0  0
 14 15  1  0  0  0  0
 14  8  1  0  0  0  0
 15  3  1  6  0  0  0
 15  8  1  0  0  0  0
 16  4  1  0  0  0  0
 17  2  1  0  0  0  0
 18  9  1  0  0  0  0
 18 25  1  0  0  0  0
 19  7  1  0  0  0  0
 20 16  1  0  0  0  0
 21 20  1  0  0  0  0
 23 22  1  0  0  0  0
 25 24  3  0  0  0  0
M  END
>  <MODEL>
3

>  <REMARK>
 VINA RESULT:      -6.1      5.549      8.318
  Name = 
  3 active torsions:
  status: ('A' for Active; 'I' for Inactive)
    1  A    between atoms: C_2  and  C_21
    2  A    between atoms: C_9  and  C_11
    3  A    between atoms: C_18  and  C_23
                            x       y       z     vdW  Elec       q    Type
                         _______ _______ _______ _____ _____    ______ ____

>  <TORSDO>
F 3

$$$$
=
 OpenBabel10232407463D

 25 28  0  0  1  0  0  0  0  0999 V2000
  182.1400  178.7930  141.1530 C   0  0  0  0  0  3  0  0  0  0  0  0
  186.8740  178.5950  141.4490 N   0  0  0  0  0  0  0  0  0  0  0  0
  183.2320  176.8920  137.4630 C   0  0  0  0  0  1  0  0  0  0  0  0
  183.2960  178.9700  140.2770 N   0  0  0  0  0  0  0  0  0  0  0  0
  188.2790  177.8950  138.2130 O   0  0  0  0  0  0  0  0  0  0  0  0
  187.4520  178.2690  139.2850 C   0  0  0  0  0  0  0  0  0  0  0  0
  187.8870  177.9310  136.8350 C   0  0  2  0  0  3  0  0  0  0  0  0
  185.3710  177.8510  138.1910 N   0  0  0  0  0  0  0  0  0  0  0  0
  182.7190  178.6640  142.5320 C   0  0  0  0  0  3  0  0  0  0  0  0
  184.2040  180.5920  138.8470 O   0  0  0  0  0  0  0  0  0  0  0  0
  185.7120  178.6090  140.6230 C   0  0  0  0  0  0  0  0  0  0  0  0
  184.4580  178.7780  141.0840 C   0  0  0  0  0  0  0  0  0  0  0  0
  186.1370  178.4130  139.2440 C   0  0  0  0  0  0  0  0  0  0  0  0
  185.4270  177.4370  136.7640 C   0  0  2  0  0  3  0  0  0  0  0  0
  184.7140  176.6350  137.6230 C   0  0  2  0  0  3  0  0  0  0  0  0
  183.2190  179.8680  139.1570 C   0  0  0  0  0  0  0  0  0  0  0  0
  187.8940  178.4130  140.6710 C   0  0  0  0  0  2  0  0  0  0  0  0
  184.0400  178.6630  142.4720 C   0  0  0  0  0  0  0  0  0  0  0  0
  186.8200  176.8740  136.5180 C   0  0  0  0  0  2  0  0  0  0  0  0
  181.9410  180.0160  138.3980 C   0  0  0  0  0  2  0  0  0  0  0  0
  181.5890  181.3630  138.3120 O   0  0  0  0  0  1  0  0  0  0  0  0
  190.0300  176.7930  136.6440 N   0  0  0  0  0  1  0  0  0  0  0  0
  189.1110  177.6950  135.9710 C   0  0  0  0  0  2  0  0  0  0  0  0
  185.5650  178.4100  144.5590 N   0  0  0  0  0  0  0  0  0  0  0  0
  184.8850  178.5230  143.6290 C   0  0  0  0  0  0  0  0  0  0  0  0
  1  9  2  0  0  0  0
  4 12  1  0  0  0  0
  4  1  1  0  0  0  0
  5  6  1  0  0  0  0
  6 17  1  0  0  0  0
  7 23  1  6  0  0  0
  7  5  1  0  0  0  0
  8 13  1  0  0  0  0
 10 16  2  0  0  0  0
 11 12  1  0  0  0  0
 11  2  2  0  0  0  0
 12 18  2  0  0  0  0
 13  6  2  0  0  0  0
 13 11  1  0  0  0  0
 14 19  1  1  0  0  0
 14 15  1  0  0  0  0
 14  8  1  0  0  0  0
 15  3  1  6  0  0  0
 15  8  1  0  0  0  0
 16  4  1  0  0  0  0
 17  2  1  0  0  0  0
 18  9  1  0  0  0  0
 18 25  1  0  0  0  0
 19  7  1  0  0  0  0
 20 16  1  0  0  0  0
 21 20  1  0  0  0  0
 23 22  1  0  0  0  0
 25 24  3  0  0  0  0
M  END
>  <MODEL>
4

>  <REMARK>
 VINA RESULT:      -6.1      4.844      7.754
  Name = 
  3 active torsions:
  status: ('A' for Active; 'I' for Inactive)
    1  A    between atoms: C_2  and  C_21
    2  A    between atoms: C_9  and  C_11
    3  A    between atoms: C_18  and  C_23
                            x       y       z     vdW  Elec       q    Type
                         _______ _______ _______ _____ _____    ______ ____

>  <TORSDO>
F 3

$$$$
=
 OpenBabel10232407463D

 25 28  0  0  1  0  0  0  0  0999 V2000
  191.0430  175.5400  134.4950 C   0  0  0  0  0  3  0  0  0  0  0  0
  193.3840  176.7090  138.4550 N   0  0  0  0  0  0  0  0  0  0  0  0
  188.0260  177.5240  136.8150 C   0  0  0  0  0  1  0  0  0  0  0  0
  190.7990  175.5800  135.9340 N   0  0  0  0  0  0  0  0  0  0  0  0
  191.0500  177.5940  141.0460 O   0  0  0  0  0  0  0  0  0  0  0  0
  191.6790  177.0880  139.8960 C   0  0  0  0  0  0  0  0  0  0  0  0
  189.6560  177.4410  141.3410 C   0  0  2  0  0  3  0  0  0  0  0  0
  189.7350  177.0420  138.5100 N   0  0  0  0  0  0  0  0  0  0  0  0
  192.5110  175.8220  134.3460 C   0  0  0  0  0  3  0  0  0  0  0  0
  190.1210  174.1400  137.6570 O   0  0  0  0  0  0  0  0  0  0  0  0
  192.1360  176.4360  137.8230 C   0  0  0  0  0  0  0  0  0  0  0  0
  192.0090  176.0270  136.5460 C   0  0  0  0  0  0  0  0  0  0  0  0
  191.0760  176.6780  138.7920 C   0  0  0  0  0  0  0  0  0  0  0  0
  188.4440  177.4210  139.1440 C   0  0  2  0  0  3  0  0  0  0  0  0
  188.7970  178.0820  137.9910 C   0  0  2  0  0  3  0  0  0  0  0  0
  189.8750  174.6550  136.5330 C   0  0  0  0  0  0  0  0  0  0  0  0
  193.1240  177.0750  139.6710 C   0  0  0  0  0  2  0  0  0  0  0  0
  193.0430  176.0910  135.5250 C   0  0  0  0  0  0  0  0  0  0  0  0
  188.7770  178.2490  140.3760 C   0  0  0  0  0  2  0  0  0  0  0  0
  188.6500  174.2280  135.7910 C   0  0  0  0  0  2  0  0  0  0  0  0
  187.6140  173.9660  136.6870 O   0  0  0  0  0  1  0  0  0  0  0  0
  190.6040  178.5080  143.3130 N   0  0  0  0  0  1  0  0  0  0  0  0
  189.4040  177.8990  142.7650 C   0  0  0  0  0  2  0  0  0  0  0  0
  195.5440  176.7070  135.8590 N   0  0  0  0  0  0  0  0  0  0  0  0
  194.4290  176.4320  135.7100 C   0  0  0  0  0  0  0  0  0  0  0  0
  1  4  1  0  0  0  0
  2 17  1  0  0  0  0
  4 16  1  0  0  0  0
  4 12  1  0  0  0  0
  5  7  1  0  0  0  0
  6  5  1  0  0  0  0
  7 23  1  1  0  0  0
  8 13  1  0  0  0  0
  8 14  1  0  0  0  0
  9  1  2  0  0  0  0
  9 18  1  0  0  0  0
 11  2  2  0  0  0  0
 11 13  1  0  0  0  0
 12 11  1  0  0  0  0
 13  6  2  0  0  0  0
 14 19  1  1  0  0  0
 15  3  1  6  0  0  0
 15  8  1  0  0  0  0
 15 14  1  0  0  0  0
 16 10  2  0  0  0  0
 17  6  1  0  0  0  0
 18 25  1  0  0  0  0
 18 12  2  0  0  0  0
 19  7  1  0  0  0  0
 20 16  1  0  0  0  0
 20 21  1  0  0  0  0
 23 22  1  0  0  0  0
 25 24  3  0  0  0  0
M  END
>  <MODEL>
5

>  <REMARK>
 VINA RESULT:      -6.0      3.892      9.405
  Name = 
  3 active torsions:
  status: ('A' for Active; 'I' for Inactive)
    1  A    between atoms: C_2  and  C_21
    2  A    between atoms: C_9  and  C_11
    3  A    between atoms: C_18  and  C_23
                            x       y       z     vdW  Elec       q    Type
                         _______ _______ _______ _____ _____    ______ ____

>  <TORSDO>
F 3

$$$$
=
 OpenBabel10232407463D

 25 28  0  0  1  0  0  0  0  0999 V2000
  190.2600  176.6710  139.3290 C   0  0  0  0  0  3  0  0  0  0  0  0
  186.0570  178.7880  139.9510 N   0  0  0  0  0  0  0  0  0  0  0  0
  189.2360  175.5600  143.3460 C   0  0  0  0  0  1  0  0  0  0  0  0
  189.5470  177.3910  140.3810 N   0  0  0  0  0  0  0  0  0  0  0  0
  185.2320  178.8770  143.4510 O   0  0  0  0  0  0  0  0  0  0  0  0
  185.8820  178.7970  142.2080 C   0  0  0  0  0  0  0  0  0  0  0  0
  185.8850  178.7280  144.7180 C   0  0  2  0  0  3  0  0  0  0  0  0
  187.7020  177.4310  142.9300 N   0  0  0  0  0  0  0  0  0  0  0  0
  189.4030  176.8300  138.1060 C   0  0  0  0  0  3  0  0  0  0  0  0
  189.8470  179.2590  141.7670 O   0  0  0  0  0  0  0  0  0  0  0  0
  187.2370  178.2430  140.5380 C   0  0  0  0  0  0  0  0  0  0  0  0
  188.2870  177.7810  139.8330 C   0  0  0  0  0  0  0  0  0  0  0  0
  187.0820  178.2860  141.9850 C   0  0  0  0  0  0  0  0  0  0  0  0
  187.7690  177.1050  144.3800 C   0  0  2  0  0  3  0  0  0  0  0  0
  187.8140  176.0520  143.4960 C   0  0  2  0  0  3  0  0  0  0  0  0
  190.2800  178.1470  141.3600 C   0  0  0  0  0  0  0  0  0  0  0  0
  185.2690  179.1280  140.9220 C   0  0  0  0  0  2  0  0  0  0  0  0
  188.2880  177.4700  138.4120 C   0  0  0  0  0  0  0  0  0  0  0  0
  186.3670  177.2880  144.9440 C   0  0  0  0  0  2  0  0  0  0  0  0
  191.6080  177.6630  141.8440 C   0  0  0  0  0  2  0  0  0  0  0  0
  191.7600  177.9580  143.1990 O   0  0  0  0  0  1  0  0  0  0  0  0
  185.6040  179.1630  147.0960 N   0  0  0  0  0  1  0  0  0  0  0  0
  184.9160  179.1200  145.8180 C   0  0  0  0  0  2  0  0  0  0  0  0
  186.4090  177.9730  136.6910 N   0  0  0  0  0  0  0  0  0  0  0  0
  187.2470  177.7490  137.4590 C   0  0  0  0  0  0  0  0  0  0  0  0
  1  4  1  0  0  0  0
  2 11  2  0  0  0  0
  2 17  1  0  0  0  0
  4 16  1  0  0  0  0
  5  7  1  0  0  0  0
  6  5  1  0  0  0  0
  7 19  1  0  0  0  0
  7 23  1  1  0  0  0
  8 15  1  0  0  0  0
  8 14  1  0  0  0  0
  9 18  1  0  0  0  0
  9  1  2  0  0  0  0
 11 13  1  0  0  0  0
 12  4  1  0  0  0  0
 12 11  1  0  0  0  0
 13  6  2  0  0  0  0
 13  8  1  0  0  0  0
 14 19  1  1  0  0  0
 15  3  1  6  0  0  0
 15 14  1  0  0  0  0
 16 10  2  0  0  0  0
 16 20  1  0  0  0  0
 17  6  1  0  0  0  0
 18 12  2  0  0  0  0
 20 21  1  0  0  0  0
 23 22  1  0  0  0  0
 24 25  3  0  0  0  0
 25 18  1  0  0  0  0
M  END
>  <MODEL>
6

>  <REMARK>
 VINA RESULT:      -5.8      2.693      6.454
  Name = 
  3 active torsions:
  status: ('A' for Active; 'I' for Inactive)
    1  A    between atoms: C_2  and  C_21
    2  A    between atoms: C_9  and  C_11
    3  A    between atoms: C_18  and  C_23
                            x       y       z     vdW  Elec       q    Type
                         _______ _______ _______ _____ _____    ______ ____

>  <TORSDO>
F 3

$$$$
=
 OpenBabel10232407463D

 25 28  0  0  1  0  0  0  0  0999 V2000
  186.9860  178.0380  139.8780 C   0  0  0  0  0  3  0  0  0  0  0  0
  191.6520  177.6630  140.6670 N   0  0  0  0  0  0  0  0  0  0  0  0
  188.1960  175.1210  136.9720 C   0  0  0  0  0  1  0  0  0  0  0  0
  188.2150  177.8970  139.1020 N   0  0  0  0  0  0  0  0  0  0  0  0
  193.2370  176.0060  137.8950 O   0  0  0  0  0  0  0  0  0  0  0  0
  192.3640  176.7120  138.7400 C   0  0  0  0  0  0  0  0  0  0  0  0
  192.9540  175.6770  136.5300 C   0  0  2  0  0  3  0  0  0  0  0  0
  190.3450  176.1230  137.6100 N   0  0  0  0  0  0  0  0  0  0  0  0
  187.4470  178.2690  141.2890 C   0  0  0  0  0  3  0  0  0  0  0  0
  189.3580  178.9990  137.3750 O   0  0  0  0  0  0  0  0  0  0  0  0
  190.5610  177.5110  139.7610 C   0  0  0  0  0  0  0  0  0  0  0  0
  189.2940  177.8730  140.0370 C   0  0  0  0  0  0  0  0  0  0  0  0
  191.0720  176.9130  138.5360 C   0  0  0  0  0  0  0  0  0  0  0  0
  190.4760  175.3230  136.3630 C   0  0  2  0  0  3  0  0  0  0  0  0
  189.6360  174.8360  137.3370 C   0  0  2  0  0  3  0  0  0  0  0  0
  188.2960  178.4480  137.7760 C   0  0  0  0  0  0  0  0  0  0  0  0
  192.7100  177.2130  140.0690 C   0  0  0  0  0  2  0  0  0  0  0  0
  188.7640  178.1760  141.3570 C   0  0  0  0  0  0  0  0  0  0  0  0
  191.8330  174.6360  136.4150 C   0  0  0  0  0  2  0  0  0  0  0  0
  187.0960  178.4500  136.8870 C   0  0  0  0  0  2  0  0  0  0  0  0
  187.4820  178.2530  135.5610 O   0  0  0  0  0  1  0  0  0  0  0  0
  195.3660  175.4130  136.7310 N   0  0  0  0  0  1  0  0  0  0  0  0
  194.2180  175.1390  135.8840 C   0  0  0  0  0  2  0  0  0  0  0  0
  190.1020  178.4320  143.5680 N   0  0  0  0  0  0  0  0  0  0  0  0
  189.5050  178.3180  142.5820 C   0  0  0  0  0  0  0  0  0  0  0  0
  1  9  2  0  0  0  0
  4  1  1  0  0  0  0
  4 12  1  0  0  0  0
  5  6  1  0  0  0  0
  6 17  1  0  0  0  0
  7 23  1  1  0  0  0
  7  5  1  0  0  0  0
  8 13  1  0  0  0  0
  9 18  1  0  0  0  0
 10 16  2  0  0  0  0
 11 12  1  0  0  0  0
 11  2  2  0  0  0  0
 12 18  2  0  0  0  0
 13  6  2  0  0  0  0
 13 11  1  0  0  0  0
 14 19  1  1  0  0  0
 14 15  1  0  0  0  0
 14  8  1  0  0  0  0
 15  3  1  6  0  0  0
 15  8  1  0  0  0  0
 16  4  1  0  0  0  0
 17  2  1  0  0  0  0
 18 25  1  0  0  0  0
 19  7  1  0  0  0  0
 20 16  1  0  0  0  0
 21 20  1  0  0  0  0
 23 22  1  0  0  0  0
 25 24  3  0  0  0  0
M  END
>  <MODEL>
7

>  <REMARK>
 VINA RESULT:      -5.7      4.404      7.497
  Name = 
  3 active torsions:
  status: ('A' for Active; 'I' for Inactive)
    1  A    between atoms: C_2  and  C_21
    2  A    between atoms: C_9  and  C_11
    3  A    between atoms: C_18  and  C_23
                            x       y       z     vdW  Elec       q    Type
                         _______ _______ _______ _____ _____    ______ ____

>  <TORSDO>
F 3

$$$$
=
 OpenBabel10232407463D

 25 28  0  0  1  0  0  0  0  0999 V2000
  192.1540  175.3400  135.8940 C   0  0  0  0  0  3  0  0  0  0  0  0
  190.4340  177.4610  139.7770 N   0  0  0  0  0  0  0  0  0  0  0  0
  188.5630  177.1890  134.4400 C   0  0  0  0  0  1  0  0  0  0  0  0
  190.8580  175.5700  136.5270 N   0  0  0  0  0  0  0  0  0  0  0  0
  186.9970  178.3830  139.2530 O   0  0  0  0  0  0  0  0  0  0  0  0
  188.2740  177.8020  139.1900 C   0  0  0  0  0  0  0  0  0  0  0  0
  185.9200  178.0710  138.3610 C   0  0  2  0  0  3  0  0  0  0  0  0
  188.2150  177.2450  136.8690 N   0  0  0  0  0  0  0  0  0  0  0  0
  193.1630  175.8120  136.9010 C   0  0  0  0  0  3  0  0  0  0  0  0
  189.0200  174.3360  137.3040 O   0  0  0  0  0  0  0  0  0  0  0  0
  190.1820  176.9060  138.4880 C   0  0  0  0  0  0  0  0  0  0  0  0
  191.1110  176.2860  137.7370 C   0  0  0  0  0  0  0  0  0  0  0  0
  188.7800  177.1360  138.1650 C   0  0  0  0  0  0  0  0  0  0  0  0
  186.9490  177.5200  136.1400 C   0  0  2  0  0  3  0  0  0  0  0  0
  188.1060  178.0360  135.6070 C   0  0  2  0  0  3  0  0  0  0  0  0
  189.7900  174.6230  136.3470 C   0  0  0  0  0  0  0  0  0  0  0  0
  189.3200  177.9720  140.1980 C   0  0  0  0  0  2  0  0  0  0  0  0
  192.5490  176.3420  137.9450 C   0  0  0  0  0  0  0  0  0  0  0  0
  186.1940  178.5740  136.9370 C   0  0  0  0  0  2  0  0  0  0  0  0
  189.6340  173.9040  135.0470 C   0  0  0  0  0  2  0  0  0  0  0  0
  188.2880  173.6180  134.8180 O   0  0  0  0  0  1  0  0  0  0  0  0
  184.9470  179.5380  140.0420 N   0  0  0  0  0  1  0  0  0  0  0  0
  184.6470  178.7060  138.8900 C   0  0  0  0  0  2  0  0  0  0  0  0
  193.8060  177.3720  139.9710 N   0  0  0  0  0  0  0  0  0  0  0  0
  193.2460  176.9130  139.0670 C   0  0  0  0  0  0  0  0  0  0  0  0
  1  4  1  0  0  0  0
  1  9  2  0  0  0  0
  2 17  1  0  0  0  0
  4 12  1  0  0  0  0
  6  5  1  0  0  0  0
  6 17  1  0  0  0  0
  7 23  1  1  0  0  0
  7  5  1  0  0  0  0
  8 13  1  0  0  0  0
  9 18  1  0  0  0  0
 11  2  2  0  0  0  0
 12 18  2  0  0  0  0
 12 11  1  0  0  0  0
 13 11  1  0  0  0  0
 13  6  2  0  0  0  0
 14  8  1  0  0  0  0
 14 19  1  1  0  0  0
 15  3  1  6  0  0  0
 15 14  1  0  0  0  0
 15  8  1  0  0  0  0
 16  4  1  0  0  0  0
 16 10  2  0  0  0  0
 18 25  1  0  0  0  0
 19  7  1  0  0  0  0
 20 16  1  0  0  0  0
 21 20  1  0  0  0  0
 23 22  1  0  0  0  0
 25 24  3  0  0  0  0
M  END
>  <MODEL>
8

>  <REMARK>
 VINA RESULT:      -5.6      5.728      8.992
  Name = 
  3 active torsions:
  status: ('A' for Active; 'I' for Inactive)
    1  A    between atoms: C_2  and  C_21
    2  A    between atoms: C_9  and  C_11
    3  A    between atoms: C_18  and  C_23
                            x       y       z     vdW  Elec       q    Type
                         _______ _______ _______ _____ _____    ______ ____

>  <TORSDO>
F 3

$$$$
=
 OpenBabel10232407463D

 25 28  0  0  1  0  0  0  0  0999 V2000
  185.9620  178.7010  144.0860 C   0  0  0  0  0  3  0  0  0  0  0  0
  187.5540  178.2220  139.6400 N   0  0  0  0  0  0  0  0  0  0  0  0
  190.2180  178.9520  144.5830 C   0  0  0  0  0  1  0  0  0  0  0  0
  187.0600  178.0380  143.3870 N   0  0  0  0  0  0  0  0  0  0  0  0
  191.0740  177.4810  139.6690 O   0  0  0  0  0  0  0  0  0  0  0  0
  189.7180  177.6540  139.9910 C   0  0  0  0  0  0  0  0  0  0  0  0
  192.0720  177.0180  140.5870 C   0  0  2  0  0  3  0  0  0  0  0  0
  190.0250  177.9850  142.3350 N   0  0  0  0  0  0  0  0  0  0  0  0
  185.0680  179.2190  142.9960 C   0  0  0  0  0  3  0  0  0  0  0  0
  187.9640  175.8870  143.1420 O   0  0  0  0  0  0  0  0  0  0  0  0
  187.8110  178.1020  141.0380 C   0  0  1  0  0  3  0  0  0  0  0  0
  186.8890  178.3150  141.9960 C   0  0  0  0  0  0  0  0  0  0  0  0
  189.2060  177.7200  141.2090 C   0  0  0  0  0  0  0  0  0  0  0  0
  191.4090  177.8460  142.8620 C   0  0  2  0  0  3  0  0  0  0  0  0
  190.7360  179.0060  143.1630 C   0  0  2  0  0  3  0  0  0  0  0  0
  187.6200  176.8230  143.9150 C   0  0  0  0  0  0  0  0  0  0  0  0
  188.6610  177.9470  139.0240 C   0  0  0  0  0  3  0  0  0  0  0  0
  185.6110  178.9840  141.8140 C   0  0  0  0  0  0  0  0  0  0  0  0
  192.3560  178.0500  141.6880 C   0  0  0  0  0  2  0  0  0  0  0  0
  187.7240  176.6220  145.3910 C   0  0  0  0  0  2  0  0  0  0  0  0
  189.0610  176.6630  145.7870 O   0  0  0  0  0  1  0  0  0  0  0  0
  193.1040  176.8340  138.3910 N   0  0  0  0  0  1  0  0  0  0  0  0
  193.3480  176.7280  139.8190 C   0  0  0  0  0  2  0  0  0  0  0  0
  184.5240  179.7160  139.5720 N   0  0  0  0  0  0  0  0  0  0  0  0
  185.0090  179.3900  140.5710 C   0  0  0  0  0  0  0  0  0  0  0  0
  2 11  1  0  0  0  0
  4 16  1  0  0  0  0
  4  1  1  0  0  0  0
  5  6  1  0  0  0  0
  5  7  1  0  0  0  0
  6 13  2  0  0  0  0
  7 23  1  6  0  0  0
  7 19  1  0  0  0  0
  8 14  1  0  0  0  0
  8 15  1  0  0  0  0
  9  1  2  0  0  0  0
 10 16  2  0  0  0  0
 11 13  1  0  0  0  0
 11 12  1  6  0  0  0
 12  4  1  0  0  0  0
 13  8  1  0  0  0  0
 14 19  1  6  0  0  0
 14 15  1  0  0  0  0
 15  3  1  1  0  0  0
 16 20  1  0  0  0  0
 17  2  2  0  0  0  0
 17  6  1  0  0  0  0
 18 12  2  0  0  0  0
 18  9  1  0  0  0  0
 20 21  1  0  0  0  0
 22 23  1  0  0  0  0
 24 25  3  0  0  0  0
 25 18  1  0  0  0  0
M  END
>  <MODEL>
9

>  <REMARK>
 VINA RESULT:      -5.5      2.417      4.041
  Name = 
  3 active torsions:
  status: ('A' for Active; 'I' for Inactive)
    1  A    between atoms: C_2  and  C_21
    2  A    between atoms: C_9  and  C_11
    3  A    between atoms: C_18  and  C_23
                            x       y       z     vdW  Elec       q    Type
                         _______ _______ _______ _____ _____    ______ ____

>  <TORSDO>
F 3

$$$$
