=
 OpenBabel10232409013D

 46 52  0  0  1  0  0  0  0  0999 V2000
  191.2460  177.5100  142.6590 C   0  0  0  0  0  0  0  0  0  0  0  0
  187.6920  176.8870  143.2540 N   0  0  0  0  0  0  0  0  0  0  0  0
  190.8030  177.3200  145.1930 C   0  0  1  0  0  3  0  0  0  0  0  0
  187.0940  176.8890  144.5900 C   0  0  2  0  0  3  0  0  0  0  0  0
  189.8160  176.8380  140.7070 S   0  0  0  0  0  0  0  0  0  0  0  0
  186.0800  177.9940  144.7730 C   0  0  0  0  0  0  0  0  0  0  0  0
  191.4220  177.2930  140.4380 C   0  0  0  0  0  0  0  0  0  0  0  0
  188.9730  176.9200  143.4090 C   0  0  0  0  0  0  0  0  0  0  0  0
  189.9620  177.0870  142.3610 C   0  0  0  0  0  0  0  0  0  0  0  0
  187.0070  178.4530  147.0270 C   0  0  0  0  0  3  0  0  0  0  0  0
  192.0610  177.6400  141.5820 N   0  0  0  0  0  0  0  0  0  0  0  0
  186.0140  178.6620  145.9420 C   0  0  0  0  0  3  0  0  0  0  0  0
  191.6390  177.9620  144.0500 C   0  0  0  0  0  2  0  0  0  0  0  0
  189.3750  177.0620  144.7820 C   0  0  2  0  0  3  0  0  0  0  0  0
  188.1000  177.7010  146.8330 C   0  0  0  0  0  0  0  0  0  0  0  0
  188.2690  177.0920  145.5050 C   0  0  1  0  0  3  0  0  0  0  0  0
  192.1210  174.9960  136.0850 C   0  0  0  0  0  3  0  0  0  0  0  0
  193.4380  175.9180  137.8690 N   0  0  0  0  0  0  0  0  0  0  0  0
  194.6310  175.1520  137.5170 C   0  0  0  0  0  2  0  0  0  0  0  0
  193.3150  174.2150  135.6120 C   0  0  0  0  0  2  0  0  0  0  0  0
  192.0670  177.3200  139.0950 C   0  0  1  0  0  3  0  0  0  0  0  0
  193.3120  176.5370  139.1200 N   0  0  0  0  0  2  0  0  0  0  0  0
  194.2360  173.8690  136.7860 C   0  0  0  0  0  2  0  0  0  0  0  0
  192.2450  175.8410  137.1100 C   0  0  0  0  0  0  0  0  0  0  0  0
  190.8910  176.7120  137.8160 S   0  0  0  0  0  0  0  0  0  0  0  0
  189.1120  177.5360  147.8830 C   0  0  0  0  0  3  0  0  0  0  0  0
  189.4500  178.4970  148.6250 O   0  0  0  0  0  0  0  0  0  0  0  0
  191.4120  176.0670  145.6100 N   0  0  0  0  0  2  0  0  0  0  0  0
  192.5710  175.8400  147.9340 C   0  0  0  0  0  3  0  0  0  0  0  0
  192.0370  175.9450  146.8580 C   0  0  0  0  0  0  0  0  0  0  0  0
  185.0960  178.2020  143.7550 N   0  0  0  0  0  2  0  0  0  0  0  0
  184.3180  179.4250  143.6250 C   0  0  0  0  0  2  0  0  0  0  0  0
  182.8340  179.0960  143.6060 C   0  0  0  0  0  2  0  0  0  0  0  0
  182.8230  179.1550  140.0770 N   0  0  0  0  0  0  0  0  0  0  0  0
  181.2190  178.9890  141.7830 N   0  0  0  0  0  2  0  0  0  0  0  0
  180.3790  180.1450  139.5160 S   0  0  0  0  0  0  0  0  0  0  0  0
  181.4870  179.3990  140.4590 C   0  0  0  0  0  0  0  0  0  0  0  0
  183.5270  178.6080  141.2200 C   0  0  0  0  0  2  0  0  0  0  0  0
  182.4480  178.4020  142.3070 C   0  0  1  0  0  3  0  0  0  0  0  0
  183.4830  179.6690  138.8870 C   0  0  0  0  0  2  0  0  0  0  0  0
  185.3580  178.2310  137.9960 C   0  0  0  0  0  0  0  0  0  0  0  0
  184.5690  177.6680  137.1890 O   0  0  0  0  0  0  0  0  0  0  0  0
  184.8760  179.2510  138.8790 N   0  0  0  0  0  2  0  0  0  0  0  0
  186.7740  177.8440  138.0250 C   0  0  0  0  0  0  0  0  0  0  0  0
  187.1750  176.5580  137.5630 N   0  0  0  0  0  1  0  0  0  0  0  0
  187.6420  178.6490  138.4520 O   0  0  0  0  0  0  0  0  0  0  0  0
  1 13  1  0  0  0  0
  2  8  2  0  0  0  0
  3 28  1  6  0  0  0
  4  2  1  6  0  0  0
  4  6  1  0  0  0  0
  4 16  1  0  0  0  0
  5  9  1  0  0  0  0
  6 12  2  0  0  0  0
  7  5  1  0  0  0  0
  7 11  2  0  0  0  0
  9  1  2  0  0  0  0
  9  8  1  0  0  0  0
 11  1  1  0  0  0  0
 12 10  1  0  0  0  0
 13  3  1  0  0  0  0
 14  8  1  6  0  0  0
 14  3  1  0  0  0  0
 14 16  1  0  0  0  0
 15 10  2  0  0  0  0
 15 26  1  0  0  0  0
 16 15  1  6  0  0  0
 17 24  2  0  0  0  0
 18 22  1  0  0  0  0
 19 18  1  0  0  0  0
 20 17  1  0  0  0  0
 20 23  1  0  0  0  0
 21 22  1  0  0  0  0
 21  7  1  1  0  0  0
 23 19  1  0  0  0  0
 24 25  1  0  0  0  0
 24 18  1  0  0  0  0
 25 21  1  0  0  0  0
 26 27  2  0  0  0  0
 28 30  1  0  0  0  0
 30 29  3  0  0  0  0
 31  6  1  0  0  0  0
 32 31  1  0  0  0  0
 33 32  1  0  0  0  0
 34 37  1  0  0  0  0
 34 38  1  0  0  0  0
 35 39  1  0  0  0  0
 36 37  2  0  0  0  0
 37 35  1  0  0  0  0
 38 39  1  0  0  0  0
 39 33  1  1  0  0  0
 40 34  1  0  0  0  0
 41 44  1  0  0  0  0
 41 43  1  0  0  0  0
 42 41  2  0  0  0  0
 43 40  1  0  0  0  0
 44 46  2  0  0  0  0
 45 44  1  0  0  0  0
M  END
>  <MODEL>
1

>  <REMARK>
 VINA RESULT:      -9.8      0.000      0.000
  Name = 
  11 active torsions:
  status: ('A' for Active; 'I' for Inactive)
    1  A    between atoms: C_5  and  N_11
    2  A    between atoms: N_6  and  C_15
    3  A    between atoms: C_9  and  C_40
    4  A    between atoms: C_10  and  N_11
    5  A    between atoms: C_12  and  C_13
    6  A    between atoms: C_15  and  N_41
    7  A    between atoms: C_19  and  C_36
    8  A    between atoms: C_19  and  C_44
    9  A    between atoms: N_20  and  C_22
   10  A    between atoms: N_20  and  C_36
   11  A    between atoms: C_23  and  C_33
                            x       y       z     vdW  Elec       q    Type
                         _______ _______ _______ _____ _____    ______ ____

>  <TORSDO>
F 11

$$$$
=
 OpenBabel10232409013D

 46 52  0  0  1  0  0  0  0  0999 V2000
  190.6690  177.5660  142.9830 C   0  0  0  0  0  0  0  0  0  0  0  0
  187.0910  177.1840  143.6350 N   0  0  0  0  0  0  0  0  0  0  0  0
  190.2540  177.4210  145.5240 C   0  0  1  0  0  3  0  0  0  0  0  0
  186.5150  177.2340  144.9800 C   0  0  2  0  0  3  0  0  0  0  0  0
  189.1680  176.9780  141.0570 S   0  0  0  0  0  0  0  0  0  0  0  0
  185.5790  178.4050  145.1700 C   0  0  0  0  0  0  0  0  0  0  0  0
  190.7950  177.3240  140.7610 C   0  0  0  0  0  0  0  0  0  0  0  0
  188.3740  177.1320  143.7710 C   0  0  0  0  0  0  0  0  0  0  0  0
  189.3550  177.2270  142.7060 C   0  0  0  0  0  0  0  0  0  0  0  0
  186.5700  178.8160  147.4070 C   0  0  0  0  0  3  0  0  0  0  0  0
  191.4740  177.6340  141.8920 N   0  0  0  0  0  0  0  0  0  0  0  0
  185.5760  179.0830  146.3350 C   0  0  0  0  0  3  0  0  0  0  0  0
  191.1120  177.9990  144.3640 C   0  0  0  0  0  2  0  0  0  0  0  0
  188.8060  177.2560  145.1370 C   0  0  2  0  0  3  0  0  0  0  0  0
  187.6070  177.9910  147.2010 C   0  0  0  0  0  0  0  0  0  0  0  0
  187.7150  177.3640  145.8750 C   0  0  1  0  0  3  0  0  0  0  0  0
  191.8840  174.6690  136.7010 C   0  0  0  0  0  3  0  0  0  0  0  0
  193.0180  176.0260  138.3260 N   0  0  0  0  0  0  0  0  0  0  0  0
  194.3300  175.4490  138.0380 C   0  0  0  0  0  2  0  0  0  0  0  0
  193.1980  174.0620  136.2960 C   0  0  0  0  0  2  0  0  0  0  0  0
  191.4200  177.2990  139.4080 C   0  0  1  0  0  3  0  0  0  0  0  0
  192.7870  176.7620  139.4950 N   0  0  0  0  0  2  0  0  0  0  0  0
  194.1700  174.0350  137.4780 C   0  0  0  0  0  2  0  0  0  0  0  0
  191.8560  175.6420  137.6120 C   0  0  0  0  0  0  0  0  0  0  0  0
  190.3690  176.3360  138.2430 S   0  0  0  0  0  0  0  0  0  0  0  0
  188.6220  177.7660  148.2380 C   0  0  0  0  0  3  0  0  0  0  0  0
  189.3990  178.6870  148.6060 O   0  0  0  0  0  0  0  0  0  0  0  0
  190.7840  176.1330  145.9410 N   0  0  0  0  0  2  0  0  0  0  0  0
  192.4680  175.9410  147.9210 C   0  0  0  0  0  3  0  0  0  0  0  0
  191.6900  176.0320  147.0050 C   0  0  0  0  0  0  0  0  0  0  0  0
  184.5960  178.6720  144.1660 N   0  0  0  0  0  2  0  0  0  0  0  0
  184.9200  179.1270  142.8230 C   0  0  0  0  0  2  0  0  0  0  0  0
  184.1820  178.2810  141.7970 C   0  0  0  0  0  2  0  0  0  0  0  0
  184.2630  177.8790  138.2920 N   0  0  0  0  0  0  0  0  0  0  0  0
  185.5820  178.9460  139.9150 N   0  0  0  0  0  2  0  0  0  0  0  0
  186.8940  178.0940  137.7390 S   0  0  0  0  0  0  0  0  0  0  0  0
  185.5540  178.3270  138.6470 C   0  0  0  0  0  0  0  0  0  0  0  0
  183.3720  178.1470  139.4020 C   0  0  0  0  0  2  0  0  0  0  0  0
  184.2140  178.9410  140.4250 C   0  0  1  0  0  3  0  0  0  0  0  0
  183.9360  177.0000  137.1810 C   0  0  0  0  0  2  0  0  0  0  0  0
  184.9190  174.6810  137.0040 C   0  0  0  0  0  0  0  0  0  0  0  0
  185.6790  175.0520  136.0670 O   0  0  0  0  0  0  0  0  0  0  0  0
  184.0180  175.6130  137.6110 N   0  0  0  0  0  2  0  0  0  0  0  0
  184.9640  173.2900  137.4740 C   0  0  0  0  0  0  0  0  0  0  0  0
  183.8410  172.4350  137.2920 N   0  0  0  0  0  1  0  0  0  0  0  0
  186.0000  172.8440  138.0330 O   0  0  0  0  0  0  0  0  0  0  0  0
  1 13  1  0  0  0  0
  2  8  2  0  0  0  0
  3 28  1  6  0  0  0
  4  2  1  6  0  0  0
  4  6  1  0  0  0  0
  4 16  1  0  0  0  0
  5  9  1  0  0  0  0
  6 12  2  0  0  0  0
  7  5  1  0  0  0  0
  7 11  2  0  0  0  0
  9  1  2  0  0  0  0
  9  8  1  0  0  0  0
 11  1  1  0  0  0  0
 12 10  1  0  0  0  0
 13  3  1  0  0  0  0
 14  8  1  6  0  0  0
 14  3  1  0  0  0  0
 14 16  1  0  0  0  0
 15 10  2  0  0  0  0
 15 26  1  0  0  0  0
 16 15  1  6  0  0  0
 17 24  2  0  0  0  0
 18 22  1  0  0  0  0
 19 18  1  0  0  0  0
 20 17  1  0  0  0  0
 20 23  1  0  0  0  0
 21 22  1  0  0  0  0
 21  7  1  1  0  0  0
 23 19  1  0  0  0  0
 24 25  1  0  0  0  0
 24 18  1  0  0  0  0
 25 21  1  0  0  0  0
 26 27  2  0  0  0  0
 28 30  1  0  0  0  0
 30 29  3  0  0  0  0
 31  6  1  0  0  0  0
 32 31  1  0  0  0  0
 33 32  1  0  0  0  0
 34 37  1  0  0  0  0
 34 38  1  0  0  0  0
 35 39  1  0  0  0  0
 36 37  2  0  0  0  0
 37 35  1  0  0  0  0
 38 39  1  0  0  0  0
 39 33  1  1  0  0  0
 40 43  1  0  0  0  0
 40 34  1  0  0  0  0
 41 44  1  0  0  0  0
 41 43  1  0  0  0  0
 42 41  2  0  0  0  0
 44 46  2  0  0  0  0
 45 44  1  0  0  0  0
M  END
>  <MODEL>
2

>  <REMARK>
 VINA RESULT:      -9.7      1.861      2.422
  Name = 
  11 active torsions:
  status: ('A' for Active; 'I' for Inactive)
    1  A    between atoms: C_5  and  N_11
    2  A    between atoms: N_6  and  C_15
    3  A    between atoms: C_9  and  C_40
    4  A    between atoms: C_10  and  N_11
    5  A    between atoms: C_12  and  C_13
    6  A    between atoms: C_15  and  N_41
    7  A    between atoms: C_19  and  C_36
    8  A    between atoms: C_19  and  C_44
    9  A    between atoms: N_20  and  C_22
   10  A    between atoms: N_20  and  C_36
   11  A    between atoms: C_23  and  C_33
                            x       y       z     vdW  Elec       q    Type
                         _______ _______ _______ _____ _____    ______ ____

>  <TORSDO>
F 11

$$$$
=
 OpenBabel10232409013D

 46 52  0  0  1  0  0  0  0  0999 V2000
  183.7900  177.5890  138.6430 C   0  0  0  0  0  0  0  0  0  0  0  0
  185.5200  179.0490  141.5160 N   0  0  0  0  0  0  0  0  0  0  0  0
  182.0660  178.4590  140.3540 C   0  0  1  0  0  3  0  0  0  0  0  0
  184.8260  179.4850  142.7280 C   0  0  2  0  0  3  0  0  0  0  0  0
  186.2480  178.0600  138.4350 S   0  0  0  0  0  0  0  0  0  0  0  0
  185.2250  178.6860  143.9480 C   0  0  0  0  0  0  0  0  0  0  0  0
  185.4560  177.2350  137.1900 C   0  0  0  0  0  0  0  0  0  0  0  0
  184.6170  178.7920  140.6300 C   0  0  0  0  0  0  0  0  0  0  0  0
  184.8350  178.1830  139.3310 C   0  0  0  0  0  0  0  0  0  0  0  0
  182.8470  178.5920  144.6470 C   0  0  0  0  0  3  0  0  0  0  0  0
  184.1400  177.0450  137.4510 N   0  0  0  0  0  0  0  0  0  0  0  0
  184.2950  178.3410  144.8610 C   0  0  0  0  0  3  0  0  0  0  0  0
  182.4210  177.4080  139.2640 C   0  0  0  0  0  2  0  0  0  0  0  0
  183.2760  178.8990  141.1390 C   0  0  2  0  0  3  0  0  0  0  0  0
  182.3860  179.0370  143.4690 C   0  0  0  0  0  0  0  0  0  0  0  0
  183.3740  179.2670  142.4040 C   0  0  1  0  0  3  0  0  0  0  0  0
  188.9960  174.3910  135.1670 C   0  0  0  0  0  3  0  0  0  0  0  0
  188.2900  176.6860  135.1360 N   0  0  0  0  0  0  0  0  0  0  0  0
  189.5810  177.1790  134.6600 C   0  0  0  0  0  2  0  0  0  0  0  0
  190.3340  174.7980  134.6190 C   0  0  0  0  0  2  0  0  0  0  0  0
  186.1260  176.7610  135.9470 C   0  0  1  0  0  3  0  0  0  0  0  0
  187.3420  177.5510  135.6980 N   0  0  0  0  0  2  0  0  0  0  0  0
  190.6950  176.2160  135.0700 C   0  0  0  0  0  2  0  0  0  0  0  0
  188.0390  175.3050  135.3270 C   0  0  0  0  0  0  0  0  0  0  0  0
  186.4820  174.9590  136.0670 S   0  0  0  0  0  0  0  0  0  0  0  0
  180.9510  179.2340  143.2340 C   0  0  0  0  0  3  0  0  0  0  0  0
  180.4800  180.3730  142.9690 O   0  0  0  0  0  0  0  0  0  0  0  0
  181.4490  179.6230  139.7390 N   0  0  0  0  0  2  0  0  0  0  0  0
  179.9830  179.3930  137.5960 C   0  0  0  0  0  3  0  0  0  0  0  0
  180.6590  179.5010  138.5880 C   0  0  0  0  0  0  0  0  0  0  0  0
  186.6150  178.4500  144.1930 N   0  0  0  0  0  2  0  0  0  0  0  0
  187.1280  177.2370  144.8100 C   0  0  0  0  0  2  0  0  0  0  0  0
  187.4480  177.4960  146.2740 C   0  0  0  0  0  2  0  0  0  0  0  0
  190.8610  177.2990  145.3990 N   0  0  0  0  0  0  0  0  0  0  0  0
  189.6050  177.2470  147.3810 N   0  0  0  0  0  2  0  0  0  0  0  0
  191.9060  175.8750  147.4360 S   0  0  0  0  0  0  0  0  0  0  0  0
  190.7900  176.8400  146.7310 C   0  0  0  0  0  0  0  0  0  0  0  0
  189.6310  178.0050  145.0990 C   0  0  0  0  0  2  0  0  0  0  0  0
  188.8530  178.0610  146.4320 C   0  0  1  0  0  3  0  0  0  0  0  0
  191.8150  176.8640  144.3910 C   0  0  0  0  0  2  0  0  0  0  0  0
  190.4850  176.3920  142.2970 C   0  0  0  0  0  0  0  0  0  0  0  0
  190.1150  175.2770  142.7580 O   0  0  0  0  0  0  0  0  0  0  0  0
  191.3400  177.2420  143.0690 N   0  0  0  0  0  2  0  0  0  0  0  0
  190.0320  176.8180  140.9670 C   0  0  0  0  0  0  0  0  0  0  0  0
  189.0530  177.8440  140.8380 N   0  0  0  0  0  1  0  0  0  0  0  0
  190.5130  176.2850  139.9330 O   0  0  0  0  0  0  0  0  0  0  0  0
  1 13  1  0  0  0  0
  1  9  2  0  0  0  0
  3 28  1  6  0  0  0
  3 14  1  0  0  0  0
  4  2  1  6  0  0  0
  4  6  1  0  0  0  0
  5  9  1  0  0  0  0
  6 31  1  0  0  0  0
  6 12  2  0  0  0  0
  7 11  2  0  0  0  0
  7  5  1  0  0  0  0
  8  2  2  0  0  0  0
  9  8  1  0  0  0  0
 10 12  1  0  0  0  0
 11  1  1  0  0  0  0
 13  3  1  0  0  0  0
 14  8  1  1  0  0  0
 14 16  1  0  0  0  0
 15 10  2  0  0  0  0
 16  4  1  0  0  0  0
 16 15  1  1  0  0  0
 17 24  2  0  0  0  0
 18 24  1  0  0  0  0
 18 22  1  0  0  0  0
 19 23  1  0  0  0  0
 19 18  1  0  0  0  0
 20 23  1  0  0  0  0
 20 17  1  0  0  0  0
 21 25  1  0  0  0  0
 21  7  1  1  0  0  0
 22 21  1  0  0  0  0
 24 25  1  0  0  0  0
 26 15  1  0  0  0  0
 27 26  2  0  0  0  0
 29 30  3  0  0  0  0
 30 28  1  0  0  0  0
 31 32  1  0  0  0  0
 32 33  1  0  0  0  0
 34 37  1  0  0  0  0
 37 35  1  0  0  0  0
 37 36  2  0  0  0  0
 38 34  1  0  0  0  0
 38 39  1  0  0  0  0
 39 33  1  6  0  0  0
 39 35  1  0  0  0  0
 40 34  1  0  0  0  0
 41 42  2  0  0  0  0
 41 43  1  0  0  0  0
 43 40  1  0  0  0  0
 44 41  1  0  0  0  0
 45 44  1  0  0  0  0
 46 44  2  0  0  0  0
M  END
>  <MODEL>
3

>  <REMARK>
 VINA RESULT:      -8.3      2.912      7.843
  Name = 
  11 active torsions:
  status: ('A' for Active; 'I' for Inactive)
    1  A    between atoms: C_5  and  N_11
    2  A    between atoms: N_6  and  C_15
    3  A    between atoms: C_9  and  C_40
    4  A    between atoms: C_10  and  N_11
    5  A    between atoms: C_12  and  C_13
    6  A    between atoms: C_15  and  N_41
    7  A    between atoms: C_19  and  C_36
    8  A    between atoms: C_19  and  C_44
    9  A    between atoms: N_20  and  C_22
   10  A    between atoms: N_20  and  C_36
   11  A    between atoms: C_23  and  C_33
                            x       y       z     vdW  Elec       q    Type
                         _______ _______ _______ _____ _____    ______ ____

>  <TORSDO>
F 11

$$$$
=
 OpenBabel10232409013D

 46 52  0  0  1  0  0  0  0  0999 V2000
  191.1200  174.2220  136.4970 C   0  0  0  0  0  0  0  0  0  0  0  0
  191.9020  176.6500  139.1170 N   0  0  0  0  0  0  0  0  0  0  0  0
  189.1830  175.9080  136.7330 C   0  0  1  0  0  3  0  0  0  0  0  0
  190.9380  177.6380  139.6020 C   0  0  2  0  0  3  0  0  0  0  0  0
  193.4820  174.3350  137.3440 S   0  0  0  0  0  0  0  0  0  0  0  0
  190.5750  177.4340  141.0550 C   0  0  0  0  0  0  0  0  0  0  0  0
  193.0520  173.1150  136.2560 C   0  0  0  0  0  0  0  0  0  0  0  0
  191.3930  176.1060  138.0630 C   0  0  0  0  0  0  0  0  0  0  0  0
  191.9270  174.9660  137.3410 C   0  0  0  0  0  0  0  0  0  0  0  0
  188.1950  177.8690  140.5070 C   0  0  0  0  0  3  0  0  0  0  0  0
  191.7450  173.1760  135.9000 N   0  0  0  0  0  0  0  0  0  0  0  0
  189.3020  177.6140  141.4630 C   0  0  0  0  0  3  0  0  0  0  0  0
  189.6280  174.4550  136.4010 C   0  0  0  0  0  2  0  0  0  0  0  0
  190.0510  176.5440  137.7890 C   0  0  2  0  0  3  0  0  0  0  0  0
  188.3870  177.7810  139.1830 C   0  0  0  0  0  0  0  0  0  0  0  0
  189.7380  177.4270  138.7220 C   0  0  1  0  0  3  0  0  0  0  0  0
  194.6950  168.4330  136.5680 C   0  0  0  0  0  3  0  0  0  0  0  0
  195.5780  170.6650  136.6630 N   0  0  0  0  0  0  0  0  0  0  0  0
  196.8000  170.2580  137.3550 C   0  0  0  0  0  2  0  0  0  0  0  0
  195.9450  167.9150  137.2220 C   0  0  0  0  0  2  0  0  0  0  0  0
  193.9960  172.0800  135.7480 C   0  0  1  0  0  3  0  0  0  0  0  0
  195.1780  172.0070  136.6200 N   0  0  0  0  0  2  0  0  0  0  0  0
  196.5530  168.9730  138.1460 C   0  0  0  0  0  2  0  0  0  0  0  0
  194.5970  169.7270  136.2590 C   0  0  0  0  0  0  0  0  0  0  0  0
  193.1390  170.4580  135.6030 S   0  0  0  0  0  0  0  0  0  0  0  0
  187.2840  177.9780  138.2350 C   0  0  0  0  0  3  0  0  0  0  0  0
  186.2910  178.6980  138.5230 O   0  0  0  0  0  0  0  0  0  0  0  0
  189.2190  176.7250  135.5320 N   0  0  0  0  0  2  0  0  0  0  0  0
  187.0240  177.6330  134.4570 C   0  0  0  0  0  3  0  0  0  0  0  0
  188.0400  177.2130  134.9520 C   0  0  0  0  0  0  0  0  0  0  0  0
  191.6230  177.2120  142.0030 N   0  0  0  0  0  2  0  0  0  0  0  0
  191.4520  176.4450  143.2270 C   0  0  0  0  0  2  0  0  0  0  0  0
  190.9900  177.3590  144.3510 C   0  0  0  0  0  2  0  0  0  0  0  0
  187.8990  177.4500  146.0520 N   0  0  0  0  0  0  0  0  0  0  0  0
  190.1510  177.1260  146.6280 N   0  0  0  0  0  2  0  0  0  0  0  0
  188.6180  178.2240  148.5320 S   0  0  0  0  0  0  0  0  0  0  0  0
  188.8820  177.5710  147.0560 C   0  0  0  0  0  0  0  0  0  0  0  0
  188.5410  176.9560  144.8490 C   0  0  0  0  0  2  0  0  0  0  0  0
  189.9970  176.6450  145.2590 C   0  0  1  0  0  3  0  0  0  0  0  0
  186.5660  178.0300  146.0810 C   0  0  0  0  0  2  0  0  0  0  0  0
  184.8310  178.8610  144.4450 C   0  0  0  0  0  0  0  0  0  0  0  0
  184.0860  179.2340  145.3930 O   0  0  0  0  0  0  0  0  0  0  0  0
  186.0960  178.2500  144.7220 N   0  0  0  0  0  2  0  0  0  0  0  0
  184.4000  179.0610  143.0560 C   0  0  0  0  0  0  0  0  0  0  0  0
  185.3300  179.5080  142.0740 N   0  0  0  0  0  1  0  0  0  0  0  0
  183.2080  178.8320  142.7230 O   0  0  0  0  0  0  0  0  0  0  0  0
  1  9  2  0  0  0  0
  3 28  1  6  0  0  0
  3 14  1  0  0  0  0
  4  2  1  6  0  0  0
  4  6  1  0  0  0  0
  6 12  2  0  0  0  0
  6 31  1  0  0  0  0
  7  5  1  0  0  0  0
  8  2  2  0  0  0  0
  9  5  1  0  0  0  0
  9  8  1  0  0  0  0
 10 12  1  0  0  0  0
 11  7  2  0  0  0  0
 11  1  1  0  0  0  0
 13  1  1  0  0  0  0
 13  3  1  0  0  0  0
 14  8  1  1  0  0  0
 14 16  1  0  0  0  0
 15 10  2  0  0  0  0
 16 15  1  1  0  0  0
 16  4  1  0  0  0  0
 17 20  1  0  0  0  0
 18 19  1  0  0  0  0
 19 23  1  0  0  0  0
 20 23  1  0  0  0  0
 21  7  1  1  0  0  0
 21 22  1  0  0  0  0
 22 18  1  0  0  0  0
 24 17  2  0  0  0  0
 24 18  1  0  0  0  0
 25 21  1  0  0  0  0
 25 24  1  0  0  0  0
 26 27  2  0  0  0  0
 26 15  1  0  0  0  0
 29 30  3  0  0  0  0
 30 28  1  0  0  0  0
 31 32  1  0  0  0  0
 32 33  1  0  0  0  0
 34 40  1  0  0  0  0
 34 37  1  0  0  0  0
 35 37  1  0  0  0  0
 37 36  2  0  0  0  0
 38 39  1  0  0  0  0
 38 34  1  0  0  0  0
 39 33  1  6  0  0  0
 39 35  1  0  0  0  0
 41 43  1  0  0  0  0
 41 42  2  0  0  0  0
 43 40  1  0  0  0  0
 44 41  1  0  0  0  0
 45 44  1  0  0  0  0
 46 44  2  0  0  0  0
M  END
>  <MODEL>
4

>  <REMARK>
 VINA RESULT:      -8.1      3.362      7.813
  Name = 
  11 active torsions:
  status: ('A' for Active; 'I' for Inactive)
    1  A    between atoms: C_5  and  N_11
    2  A    between atoms: N_6  and  C_15
    3  A    between atoms: C_9  and  C_40
    4  A    between atoms: C_10  and  N_11
    5  A    between atoms: C_12  and  C_13
    6  A    between atoms: C_15  and  N_41
    7  A    between atoms: C_19  and  C_36
    8  A    between atoms: C_19  and  C_44
    9  A    between atoms: N_20  and  C_22
   10  A    between atoms: N_20  and  C_36
   11  A    between atoms: C_23  and  C_33
                            x       y       z     vdW  Elec       q    Type
                         _______ _______ _______ _____ _____    ______ ____

>  <TORSDO>
F 11

$$$$
=
 OpenBabel10232409013D

 46 52  0  0  1  0  0  0  0  0999 V2000
  190.1860  176.5420  139.4210 C   0  0  0  0  0  0  0  0  0  0  0  0
  186.8880  177.2870  138.0260 N   0  0  0  0  0  0  0  0  0  0  0  0
  190.0460  175.6770  136.9960 C   0  0  1  0  0  3  0  0  0  0  0  0
  186.4400  176.7850  136.7260 C   0  0  2  0  0  3  0  0  0  0  0  0
  188.7140  178.1620  140.6530 S   0  0  0  0  0  0  0  0  0  0  0  0
  185.2620  175.8450  136.8390 C   0  0  0  0  0  0  0  0  0  0  0  0
  190.1710  177.6710  141.3550 C   0  0  0  0  0  0  0  0  0  0  0  0
  188.1510  177.0310  138.1190 C   0  0  0  0  0  0  0  0  0  0  0  0
  188.9790  177.2090  139.2970 C   0  0  0  0  0  0  0  0  0  0  0  0
  186.3120  174.3480  135.1640 C   0  0  0  0  0  3  0  0  0  0  0  0
  190.8480  176.7880  140.5800 N   0  0  0  0  0  0  0  0  0  0  0  0
  185.1930  174.7530  136.0520 C   0  0  0  0  0  3  0  0  0  0  0  0
  190.6270  175.4900  138.4260 C   0  0  0  0  0  2  0  0  0  0  0  0
  188.6570  176.2630  137.0140 C   0  0  2  0  0  3  0  0  0  0  0  0
  187.5000  174.9680  135.2180 C   0  0  0  0  0  0  0  0  0  0  0  0
  187.6440  176.0620  136.1900 C   0  0  1  0  0  3  0  0  0  0  0  0
  191.6080  176.4680  145.9600 C   0  0  0  0  0  3  0  0  0  0  0  0
  190.0100  177.9040  144.8860 N   0  0  0  0  0  0  0  0  0  0  0  0
  189.1690  178.0220  146.0760 C   0  0  0  0  0  2  0  0  0  0  0  0
  190.8400  176.5810  147.2460 C   0  0  0  0  0  2  0  0  0  0  0  0
  190.6590  178.1450  142.6800 C   0  0  1  0  0  3  0  0  0  0  0  0
  189.5320  178.2620  143.6190 N   0  0  0  0  0  2  0  0  0  0  0  0
  189.3490  176.7950  146.9710 C   0  0  0  0  0  2  0  0  0  0  0  0
  191.2190  177.1670  144.8920 C   0  0  0  0  0  0  0  0  0  0  0  0
  191.9720  177.0190  143.3100 S   0  0  0  0  0  0  0  0  0  0  0  0
  188.6270  174.5360  134.3820 C   0  0  0  0  0  3  0  0  0  0  0  0
  189.0020  173.3340  134.3560 O   0  0  0  0  0  0  0  0  0  0  0  0
  190.9160  176.5410  136.2150 N   0  0  0  0  0  2  0  0  0  0  0  0
  192.9580  175.5800  134.9100 C   0  0  0  0  0  3  0  0  0  0  0  0
  192.0140  176.0220  135.5150 C   0  0  0  0  0  0  0  0  0  0  0  0
  184.1580  176.2210  137.6690 N   0  0  0  0  0  2  0  0  0  0  0  0
  183.1530  175.2830  138.1440 C   0  0  0  0  0  2  0  0  0  0  0  0
  182.4760  175.8360  139.3880 C   0  0  0  0  0  2  0  0  0  0  0  0
  182.4920  178.6830  141.4740 N   0  0  0  0  0  0  0  0  0  0  0  0
  181.4610  178.0510  139.4610 N   0  0  0  0  0  2  0  0  0  0  0  0
  180.0890  179.7960  140.9630 S   0  0  0  0  0  0  0  0  0  0  0  0
  181.3780  178.8500  140.6220 C   0  0  0  0  0  0  0  0  0  0  0  0
  183.3530  177.6700  140.8970 C   0  0  0  0  0  2  0  0  0  0  0  0
  182.7290  177.3310  139.5250 C   0  0  1  0  0  3  0  0  0  0  0  0
  182.6050  179.1630  142.8410 C   0  0  0  0  0  2  0  0  0  0  0  0
  184.1630  178.8080  144.7960 C   0  0  0  0  0  0  0  0  0  0  0  0
  183.2610  179.1620  145.6050 O   0  0  0  0  0  0  0  0  0  0  0  0
  183.8970  178.7830  143.3900 N   0  0  0  0  0  2  0  0  0  0  0  0
  185.4850  178.4150  145.3020 C   0  0  0  0  0  0  0  0  0  0  0  0
  185.9860  178.9770  146.5100 N   0  0  0  0  0  1  0  0  0  0  0  0
  186.1780  177.5740  144.6730 O   0  0  0  0  0  0  0  0  0  0  0  0
  1 11  1  0  0  0  0
  2  8  2  0  0  0  0
  3 28  1  6  0  0  0
  3 14  1  0  0  0  0
  3 13  1  0  0  0  0
  4  6  1  1  0  0  0
  4  2  1  0  0  0  0
  5  7  1  0  0  0  0
  6 31  1  0  0  0  0
  8  9  1  0  0  0  0
  9  1  2  0  0  0  0
  9  5  1  0  0  0  0
 10 15  2  0  0  0  0
 10 12  1  0  0  0  0
 11  7  2  0  0  0  0
 12  6  2  0  0  0  0
 13  1  1  0  0  0  0
 14  8  1  1  0  0  0
 16 15  1  1  0  0  0
 16  4  1  0  0  0  0
 16 14  1  0  0  0  0
 17 20  1  0  0  0  0
 18 24  1  0  0  0  0
 18 19  1  0  0  0  0
 19 23  1  0  0  0  0
 21  7  1  6  0  0  0
 21 25  1  0  0  0  0
 21 22  1  0  0  0  0
 22 18  1  0  0  0  0
 23 20  1  0  0  0  0
 24 17  2  0  0  0  0
 25 24  1  0  0  0  0
 26 15  1  0  0  0  0
 27 26  2  0  0  0  0
 29 30  3  0  0  0  0
 30 28  1  0  0  0  0
 31 32  1  0  0  0  0
 32 33  1  0  0  0  0
 34 40  1  0  0  0  0
 35 39  1  0  0  0  0
 35 37  1  0  0  0  0
 37 36  2  0  0  0  0
 37 34  1  0  0  0  0
 38 34  1  0  0  0  0
 39 33  1  1  0  0  0
 39 38  1  0  0  0  0
 40 43  1  0  0  0  0
 41 44  1  0  0  0  0
 41 42  2  0  0  0  0
 43 41  1  0  0  0  0
 44 45  1  0  0  0  0
 46 44  2  0  0  0  0
M  END
>  <MODEL>
5

>  <REMARK>
 VINA RESULT:      -8.0      2.763      7.932
  Name = 
  11 active torsions:
  status: ('A' for Active; 'I' for Inactive)
    1  A    between atoms: C_5  and  N_11
    2  A    between atoms: N_6  and  C_15
    3  A    between atoms: C_9  and  C_40
    4  A    between atoms: C_10  and  N_11
    5  A    between atoms: C_12  and  C_13
    6  A    between atoms: C_15  and  N_41
    7  A    between atoms: C_19  and  C_36
    8  A    between atoms: C_19  and  C_44
    9  A    between atoms: N_20  and  C_22
   10  A    between atoms: N_20  and  C_36
   11  A    between atoms: C_23  and  C_33
                            x       y       z     vdW  Elec       q    Type
                         _______ _______ _______ _____ _____    ______ ____

>  <TORSDO>
F 11

$$$$
=
 OpenBabel10232409013D

 46 52  0  0  1  0  0  0  0  0999 V2000
  183.8330  178.5100  141.4950 C   0  0  0  0  0  0  0  0  0  0  0  0
  187.2730  178.7920  140.2870 N   0  0  0  0  0  0  0  0  0  0  0  0
  185.4780  178.1170  143.4420 C   0  0  1  0  0  3  0  0  0  0  0  0
  188.4370  178.4650  141.1120 C   0  0  2  0  0  3  0  0  0  0  0  0
  184.2150  179.5130  139.2240 S   0  0  0  0  0  0  0  0  0  0  0  0
  189.2240  177.2930  140.5720 C   0  0  0  0  0  0  0  0  0  0  0  0
  182.6340  179.2160  139.7410 C   0  0  0  0  0  0  0  0  0  0  0  0
  186.2430  178.7970  141.0660 C   0  0  0  0  0  0  0  0  0  0  0  0
  184.8570  178.9170  140.6560 C   0  0  0  0  0  0  0  0  0  0  0  0
  189.4540  176.4040  142.8770 C   0  0  0  0  0  3  0  0  0  0  0  0
  182.5880  178.6630  140.9780 N   0  0  0  0  0  0  0  0  0  0  0  0
  189.7450  176.3830  141.4200 C   0  0  0  0  0  3  0  0  0  0  0  0
  184.1020  177.7870  142.7970 C   0  0  0  0  0  2  0  0  0  0  0  0
  186.5450  178.3800  142.4090 C   0  0  2  0  0  3  0  0  0  0  0  0
  188.5390  177.2390  143.3900 C   0  0  0  0  0  0  0  0  0  0  0  0
  187.8420  178.1320  142.4510 C   0  0  1  0  0  3  0  0  0  0  0  0
  180.7720  180.4760  135.3070 C   0  0  0  0  0  3  0  0  0  0  0  0
  180.7020  181.2520  137.5780 N   0  0  0  0  0  0  0  0  0  0  0  0
  180.2780  182.6010  137.2080 C   0  0  0  0  0  2  0  0  0  0  0  0
  180.2800  181.8160  134.8370 C   0  0  0  0  0  2  0  0  0  0  0  0
  181.4210  179.5190  138.9300 C   0  0  1  0  0  3  0  0  0  0  0  0
  181.2210  180.9740  138.8500 N   0  0  0  0  0  2  0  0  0  0  0  0
  180.7390  182.9250  135.7870 C   0  0  0  0  0  2  0  0  0  0  0  0
  180.8880  180.2330  136.6130 C   0  0  0  0  0  0  0  0  0  0  0  0
  181.5640  178.7460  137.2650 S   0  0  0  0  0  0  0  0  0  0  0  0
  188.2080  177.2260  144.8200 C   0  0  0  0  0  3  0  0  0  0  0  0
  189.1070  177.2030  145.7010 O   0  0  0  0  0  0  0  0  0  0  0  0
  185.3560  179.2800  144.3060 N   0  0  0  0  0  2  0  0  0  0  0  0
  185.6270  179.0690  146.8900 C   0  0  0  0  0  3  0  0  0  0  0  0
  185.5030  179.1690  145.6950 C   0  0  0  0  0  0  0  0  0  0  0  0
  189.5400  177.2590  139.1770 N   0  0  0  0  0  2  0  0  0  0  0  0
  190.1520  176.1160  138.5180 C   0  0  0  0  0  2  0  0  0  0  0  0
  191.6180  176.4030  138.2360 C   0  0  0  0  0  2  0  0  0  0  0  0
  194.2840  174.7840  136.5850 N   0  0  0  0  0  0  0  0  0  0  0  0
  192.7950  176.5340  136.1050 N   0  0  0  0  0  2  0  0  0  0  0  0
  195.1930  176.7010  134.9220 S   0  0  0  0  0  0  0  0  0  0  0  0
  194.0710  175.9800  135.8670 C   0  0  0  0  0  0  0  0  0  0  0  0
  193.1170  174.5380  137.4090 C   0  0  0  0  0  2  0  0  0  0  0  0
  192.0980  175.6300  137.0150 C   0  0  1  0  0  3  0  0  0  0  0  0
  195.5550  174.0990  136.7530 C   0  0  0  0  0  2  0  0  0  0  0  0
  197.6250  174.2910  138.1870 C   0  0  0  0  0  0  0  0  0  0  0  0
  198.0710  173.2060  137.7240 O   0  0  0  0  0  0  0  0  0  0  0  0
  196.3640  174.8000  137.7390 N   0  0  0  0  0  2  0  0  0  0  0  0
  198.4050  175.0360  139.1840 C   0  0  0  0  0  0  0  0  0  0  0  0
  199.8250  175.0770  139.0980 N   0  0  0  0  0  1  0  0  0  0  0  0
  197.8210  175.6480  140.1160 O   0  0  0  0  0  0  0  0  0  0  0  0
  1 13  1  0  0  0  0
  2  8  2  0  0  0  0
  3 28  1  1  0  0  0
  4  2  1  6  0  0  0
  4 16  1  0  0  0  0
  5  7  1  0  0  0  0
  5  9  1  0  0  0  0
  6  4  1  0  0  0  0
  6 12  2  0  0  0  0
  7 11  2  0  0  0  0
  9  8  1  0  0  0  0
  9  1  2  0  0  0  0
 10 15  2  0  0  0  0
 11  1  1  0  0  0  0
 12 10  1  0  0  0  0
 13  3  1  0  0  0  0
 14  8  1  6  0  0  0
 14 16  1  0  0  0  0
 14  3  1  0  0  0  0
 15 26  1  0  0  0  0
 16 15  1  6  0  0  0
 17 24  2  0  0  0  0
 18 22  1  0  0  0  0
 19 18  1  0  0  0  0
 20 17  1  0  0  0  0
 20 23  1  0  0  0  0
 21  7  1  1  0  0  0
 22 21  1  0  0  0  0
 23 19  1  0  0  0  0
 24 25  1  0  0  0  0
 24 18  1  0  0  0  0
 25 21  1  0  0  0  0
 26 27  2  0  0  0  0
 28 30  1  0  0  0  0
 30 29  3  0  0  0  0
 31  6  1  0  0  0  0
 32 31  1  0  0  0  0
 33 32  1  0  0  0  0
 34 40  1  0  0  0  0
 34 38  1  0  0  0  0
 35 39  1  0  0  0  0
 36 37  2  0  0  0  0
 37 35  1  0  0  0  0
 37 34  1  0  0  0  0
 39 38  1  0  0  0  0
 39 33  1  1  0  0  0
 40 43  1  0  0  0  0
 41 44  1  0  0  0  0
 42 41  2  0  0  0  0
 43 41  1  0  0  0  0
 44 46  2  0  0  0  0
 45 44  1  0  0  0  0
M  END
>  <MODEL>
6

>  <REMARK>
 VINA RESULT:      -7.9      3.661     10.182
  Name = 
  11 active torsions:
  status: ('A' for Active; 'I' for Inactive)
    1  A    between atoms: C_5  and  N_11
    2  A    between atoms: N_6  and  C_15
    3  A    between atoms: C_9  and  C_40
    4  A    between atoms: C_10  and  N_11
    5  A    between atoms: C_12  and  C_13
    6  A    between atoms: C_15  and  N_41
    7  A    between atoms: C_19  and  C_36
    8  A    between atoms: C_19  and  C_44
    9  A    between atoms: N_20  and  C_22
   10  A    between atoms: N_20  and  C_36
   11  A    between atoms: C_23  and  C_33
                            x       y       z     vdW  Elec       q    Type
                         _______ _______ _______ _____ _____    ______ ____

>  <TORSDO>
F 11

$$$$
=
 OpenBabel10232409013D

 46 52  0  0  1  0  0  0  0  0999 V2000
  186.8930  178.0250  138.0430 C   0  0  0  0  0  0  0  0  0  0  0  0
  189.3760  177.1160  140.5700 N   0  0  0  0  0  0  0  0  0  0  0  0
  188.8480  176.7600  136.9330 C   0  0  1  0  0  3  0  0  0  0  0  0
  190.6760  176.5320  140.2370 C   0  0  2  0  0  3  0  0  0  0  0  0
  186.2480  178.2130  140.4620 S   0  0  0  0  0  0  0  0  0  0  0  0
  191.8320  177.4260  140.6210 C   0  0  0  0  0  0  0  0  0  0  0  0
  185.1850  178.7810  139.2770 C   0  0  0  0  0  0  0  0  0  0  0  0
  188.6680  177.1120  139.4900 C   0  0  0  0  0  0  0  0  0  0  0  0
  187.3710  177.7370  139.3100 C   0  0  0  0  0  0  0  0  0  0  0  0
  192.9350  176.9030  138.4610 C   0  0  0  0  0  3  0  0  0  0  0  0
  185.6760  178.6230  138.0230 N   0  0  0  0  0  0  0  0  0  0  0  0
  192.9030  177.5290  139.8080 C   0  0  0  0  0  3  0  0  0  0  0  0
  187.7470  177.8500  136.8050 C   0  0  0  0  0  2  0  0  0  0  0  0
  189.3980  176.6650  138.3340 C   0  0  2  0  0  3  0  0  0  0  0  0
  191.8410  176.3340  137.9340 C   0  0  0  0  0  0  0  0  0  0  0  0
  190.6150  176.3550  138.7460 C   0  0  1  0  0  3  0  0  0  0  0  0
  180.5570  179.6950  137.7100 C   0  0  0  0  0  3  0  0  0  0  0  0
  182.4530  180.9130  138.5380 N   0  0  0  0  0  0  0  0  0  0  0  0
  182.0000  182.1880  137.9860 C   0  0  0  0  0  2  0  0  0  0  0  0
  179.9820  180.9690  137.1600 C   0  0  0  0  0  2  0  0  0  0  0  0
  183.8600  179.3960  139.5700 C   0  0  1  0  0  3  0  0  0  0  0  0
  183.7780  180.7300  138.9570 N   0  0  0  0  0  2  0  0  0  0  0  0
  181.0970  181.9460  136.7760 C   0  0  0  0  0  2  0  0  0  0  0  0
  181.6890  179.7270  138.4140 C   0  0  0  0  0  0  0  0  0  0  0  0
  182.5070  178.2850  138.9990 S   0  0  0  0  0  0  0  0  0  0  0  0
  191.8520  175.7630  136.5820 C   0  0  0  0  0  3  0  0  0  0  0  0
  191.5700  174.5520  136.3790 O   0  0  0  0  0  0  0  0  0  0  0  0
  188.3130  175.4650  136.5440 N   0  0  0  0  0  2  0  0  0  0  0  0
  185.8050  174.8730  136.9390 C   0  0  0  0  0  3  0  0  0  0  0  0
  186.9650  175.1450  136.7550 C   0  0  0  0  0  0  0  0  0  0  0  0
  191.8400  178.0230  141.9210 N   0  0  0  0  0  2  0  0  0  0  0  0
  191.5970  177.2810  143.1480 C   0  0  0  0  0  2  0  0  0  0  0  0
  190.7120  178.0950  144.0790 C   0  0  0  0  0  2  0  0  0  0  0  0
  187.7570  177.7580  145.9790 N   0  0  0  0  0  0  0  0  0  0  0  0
  190.0500  177.3890  146.3160 N   0  0  0  0  0  2  0  0  0  0  0  0
  188.6510  178.0420  148.5070 S   0  0  0  0  0  0  0  0  0  0  0  0
  188.8110  177.7040  146.9150 C   0  0  0  0  0  0  0  0  0  0  0  0
  188.3120  177.5330  144.6600 C   0  0  0  0  0  2  0  0  0  0  0  0
  189.8000  177.1870  144.8930 C   0  0  1  0  0  3  0  0  0  0  0  0
  186.4230  178.2840  146.2200 C   0  0  0  0  0  2  0  0  0  0  0  0
  184.3120  178.7380  144.9110 C   0  0  0  0  0  0  0  0  0  0  0  0
  183.6880  179.0130  145.9720 O   0  0  0  0  0  0  0  0  0  0  0  0
  185.6930  178.3660  144.9640 N   0  0  0  0  0  2  0  0  0  0  0  0
  183.6190  178.8070  143.6180 C   0  0  0  0  0  0  0  0  0  0  0  0
  182.5810  179.7590  143.4100 N   0  0  0  0  0  1  0  0  0  0  0  0
  183.9440  178.0290  142.6830 O   0  0  0  0  0  0  0  0  0  0  0  0
  1  9  2  0  0  0  0
  3 28  1  1  0  0  0
  3 14  1  0  0  0  0
  4  2  1  6  0  0  0
  4  6  1  0  0  0  0
  6 31  1  0  0  0  0
  7  5  1  0  0  0  0
  8  2  2  0  0  0  0
  9  8  1  0  0  0  0
  9  5  1  0  0  0  0
 10 12  1  0  0  0  0
 11  1  1  0  0  0  0
 11  7  2  0  0  0  0
 12  6  2  0  0  0  0
 13  3  1  0  0  0  0
 13  1  1  0  0  0  0
 14 16  1  0  0  0  0
 14  8  1  6  0  0  0
 15 10  2  0  0  0  0
 16 15  1  6  0  0  0
 16  4  1  0  0  0  0
 17 24  2  0  0  0  0
 18 22  1  0  0  0  0
 19 18  1  0  0  0  0
 20 17  1  0  0  0  0
 21  7  1  6  0  0  0
 22 21  1  0  0  0  0
 23 20  1  0  0  0  0
 23 19  1  0  0  0  0
 24 18  1  0  0  0  0
 24 25  1  0  0  0  0
 25 21  1  0  0  0  0
 26 15  1  0  0  0  0
 27 26  2  0  0  0  0
 28 30  1  0  0  0  0
 30 29  3  0  0  0  0
 31 32  1  0  0  0  0
 32 33  1  0  0  0  0
 34 40  1  0  0  0  0
 34 37  1  0  0  0  0
 35 37  1  0  0  0  0
 37 36  2  0  0  0  0
 38 39  1  0  0  0  0
 38 34  1  0  0  0  0
 39 33  1  6  0  0  0
 39 35  1  0  0  0  0
 41 43  1  0  0  0  0
 41 42  2  0  0  0  0
 43 40  1  0  0  0  0
 44 41  1  0  0  0  0
 45 44  1  0  0  0  0
 46 44  2  0  0  0  0
M  END
>  <MODEL>
7

>  <REMARK>
 VINA RESULT:      -7.8      2.766      9.223
  Name = 
  11 active torsions:
  status: ('A' for Active; 'I' for Inactive)
    1  A    between atoms: C_5  and  N_11
    2  A    between atoms: N_6  and  C_15
    3  A    between atoms: C_9  and  C_40
    4  A    between atoms: C_10  and  N_11
    5  A    between atoms: C_12  and  C_13
    6  A    between atoms: C_15  and  N_41
    7  A    between atoms: C_19  and  C_36
    8  A    between atoms: C_19  and  C_44
    9  A    between atoms: N_20  and  C_22
   10  A    between atoms: N_20  and  C_36
   11  A    between atoms: C_23  and  C_33
                            x       y       z     vdW  Elec       q    Type
                         _______ _______ _______ _____ _____    ______ ____

>  <TORSDO>
F 11

$$$$
=
 OpenBabel10232409013D

 46 52  0  0  1  0  0  0  0  0999 V2000
  190.4920  177.6940  142.9210 C   0  0  0  0  0  0  0  0  0  0  0  0
  186.9120  177.5320  143.6520 N   0  0  0  0  0  0  0  0  0  0  0  0
  190.1240  177.6120  145.4720 C   0  0  1  0  0  3  0  0  0  0  0  0
  186.3700  177.6360  145.0080 C   0  0  2  0  0  3  0  0  0  0  0  0
  188.9180  177.1660  141.0360 S   0  0  0  0  0  0  0  0  0  0  0  0
  185.5080  178.8620  145.1980 C   0  0  0  0  0  0  0  0  0  0  0  0
  190.5560  177.4110  140.7010 C   0  0  0  0  0  0  0  0  0  0  0  0
  188.1930  177.4070  143.7630 C   0  0  0  0  0  0  0  0  0  0  0  0
  189.1550  177.4290  142.6770 C   0  0  0  0  0  0  0  0  0  0  0  0
  186.5680  179.2480  147.4070 C   0  0  0  0  0  3  0  0  0  0  0  0
  191.2750  177.6990  141.8130 N   0  0  0  0  0  0  0  0  0  0  0  0
  185.5690  179.5570  146.3520 C   0  0  0  0  0  3  0  0  0  0  0  0
  190.9890  178.1210  144.2850 C   0  0  0  0  0  2  0  0  0  0  0  0
  188.6600  177.5260  145.1170 C   0  0  2  0  0  3  0  0  0  0  0  0
  187.5510  178.3610  147.1940 C   0  0  0  0  0  0  0  0  0  0  0  0
  187.5940  177.7090  145.8760 C   0  0  1  0  0  3  0  0  0  0  0  0
  191.4670  174.6140  136.6930 C   0  0  0  0  0  3  0  0  0  0  0  0
  192.6800  175.9760  138.2550 N   0  0  0  0  0  0  0  0  0  0  0  0
  193.9660  175.3490  137.9550 C   0  0  0  0  0  2  0  0  0  0  0  0
  192.7510  173.9540  136.2760 C   0  0  0  0  0  2  0  0  0  0  0  0
  191.1490  177.3300  139.3360 C   0  0  1  0  0  3  0  0  0  0  0  0
  192.4990  176.7510  139.4090 N   0  0  0  0  0  2  0  0  0  0  0  0
  193.7490  173.9270  137.4380 C   0  0  0  0  0  2  0  0  0  0  0  0
  191.4910  175.6110  137.5780 C   0  0  0  0  0  0  0  0  0  0  0  0
  190.0420  176.3710  138.2210 S   0  0  0  0  0  0  0  0  0  0  0  0
  188.5730  178.0920  148.2120 C   0  0  0  0  0  3  0  0  0  0  0  0
  188.3270  177.3690  149.2150 O   0  0  0  0  0  0  0  0  0  0  0  0
  190.5870  176.3010  145.8980 N   0  0  0  0  0  2  0  0  0  0  0  0
  192.2230  176.0380  147.9100 C   0  0  0  0  0  3  0  0  0  0  0  0
  191.4640  176.1600  146.9820 C   0  0  0  0  0  0  0  0  0  0  0  0
  184.5200  179.1710  144.2100 N   0  0  0  0  0  2  0  0  0  0  0  0
  183.2240  178.5140  144.1350 C   0  0  0  0  0  2  0  0  0  0  0  0
  182.6310  178.6960  142.7470 C   0  0  0  0  0  2  0  0  0  0  0  0
  183.4600  178.4150  139.3280 N   0  0  0  0  0  0  0  0  0  0  0  0
  182.8540  176.9500  141.0600 N   0  0  0  0  0  2  0  0  0  0  0  0
  182.1560  176.1720  138.5920 S   0  0  0  0  0  0  0  0  0  0  0  0
  182.8550  177.1860  139.6680 C   0  0  0  0  0  0  0  0  0  0  0  0
  183.8360  179.0870  140.5550 C   0  0  0  0  0  2  0  0  0  0  0  0
  183.5340  178.0800  141.6860 C   0  0  1  0  0  3  0  0  0  0  0  0
  183.4110  179.0640  138.0280 C   0  0  0  0  0  2  0  0  0  0  0  0
  182.1920  181.2610  138.2840 C   0  0  0  0  0  0  0  0  0  0  0  0
  183.2450  181.8210  138.6940 O   0  0  0  0  0  0  0  0  0  0  0  0
  182.2060  179.8740  137.9290 N   0  0  0  0  0  2  0  0  0  0  0  0
  180.9500  182.0360  138.1670 C   0  0  0  0  0  0  0  0  0  0  0  0
  179.9870  182.0110  139.2150 N   0  0  0  0  0  1  0  0  0  0  0  0
  180.7350  182.7350  137.1420 O   0  0  0  0  0  0  0  0  0  0  0  0
  1 13  1  0  0  0  0
  2  8  2  0  0  0  0
  3 28  1  6  0  0  0
  4  2  1  6  0  0  0
  4  6  1  0  0  0  0
  4 16  1  0  0  0  0
  5  9  1  0  0  0  0
  6 12  2  0  0  0  0
  7  5  1  0  0  0  0
  7 11  2  0  0  0  0
  9  1  2  0  0  0  0
  9  8  1  0  0  0  0
 11  1  1  0  0  0  0
 12 10  1  0  0  0  0
 13  3  1  0  0  0  0
 14  8  1  6  0  0  0
 14  3  1  0  0  0  0
 14 16  1  0  0  0  0
 15 10  2  0  0  0  0
 15 26  1  0  0  0  0
 16 15  1  6  0  0  0
 17 24  2  0  0  0  0
 18 22  1  0  0  0  0
 19 18  1  0  0  0  0
 20 17  1  0  0  0  0
 20 23  1  0  0  0  0
 21 22  1  0  0  0  0
 21  7  1  1  0  0  0
 23 19  1  0  0  0  0
 24 25  1  0  0  0  0
 24 18  1  0  0  0  0
 25 21  1  0  0  0  0
 26 27  2  0  0  0  0
 28 30  1  0  0  0  0
 30 29  3  0  0  0  0
 31  6  1  0  0  0  0
 32 31  1  0  0  0  0
 33 32  1  0  0  0  0
 34 37  1  0  0  0  0
 34 38  1  0  0  0  0
 35 39  1  0  0  0  0
 36 37  2  0  0  0  0
 37 35  1  0  0  0  0
 38 39  1  0  0  0  0
 39 33  1  1  0  0  0
 40 34  1  0  0  0  0
 41 42  2  0  0  0  0
 43 40  1  0  0  0  0
 43 41  1  0  0  0  0
 44 41  1  0  0  0  0
 44 45  1  0  0  0  0
 46 44  2  0  0  0  0
M  END
>  <MODEL>
8

>  <REMARK>
 VINA RESULT:      -7.7      1.881      2.646
  Name = 
  11 active torsions:
  status: ('A' for Active; 'I' for Inactive)
    1  A    between atoms: C_5  and  N_11
    2  A    between atoms: N_6  and  C_15
    3  A    between atoms: C_9  and  C_40
    4  A    between atoms: C_10  and  N_11
    5  A    between atoms: C_12  and  C_13
    6  A    between atoms: C_15  and  N_41
    7  A    between atoms: C_19  and  C_36
    8  A    between atoms: C_19  and  C_44
    9  A    between atoms: N_20  and  C_22
   10  A    between atoms: N_20  and  C_36
   11  A    between atoms: C_23  and  C_33
                            x       y       z     vdW  Elec       q    Type
                         _______ _______ _______ _____ _____    ______ ____

>  <TORSDO>
F 11

$$$$
=
 OpenBabel10232409013D

 46 52  0  0  1  0  0  0  0  0999 V2000
  183.8040  178.4540  141.4650 C   0  0  0  0  0  0  0  0  0  0  0  0
  187.2620  178.8160  140.3310 N   0  0  0  0  0  0  0  0  0  0  0  0
  185.4160  178.0970  143.4470 C   0  0  1  0  0  3  0  0  0  0  0  0
  188.4160  178.5150  141.1810 C   0  0  2  0  0  3  0  0  0  0  0  0
  184.2120  179.4680  139.2040 S   0  0  0  0  0  0  0  0  0  0  0  0
  189.2400  177.3620  140.6570 C   0  0  0  0  0  0  0  0  0  0  0  0
  182.6270  179.1340  139.6870 C   0  0  0  0  0  0  0  0  0  0  0  0
  186.2160  178.7960  141.0880 C   0  0  0  0  0  0  0  0  0  0  0  0
  184.8360  178.8850  140.6490 C   0  0  0  0  0  0  0  0  0  0  0  0
  189.4420  176.4760  142.9650 C   0  0  0  0  0  3  0  0  0  0  0  0
  182.5670  178.5790  140.9220 N   0  0  0  0  0  0  0  0  0  0  0  0
  189.7640  176.4640  141.5150 C   0  0  0  0  0  3  0  0  0  0  0  0
  184.0620  177.7360  142.7730 C   0  0  0  0  0  2  0  0  0  0  0  0
  186.4980  178.3850  142.4370 C   0  0  2  0  0  3  0  0  0  0  0  0
  188.4970  177.2900  143.4590 C   0  0  0  0  0  0  0  0  0  0  0  0
  187.8000  178.1670  142.5070 C   0  0  1  0  0  3  0  0  0  0  0  0
  180.8310  180.3560  135.2150 C   0  0  0  0  0  3  0  0  0  0  0  0
  180.6950  181.1270  137.4850 N   0  0  0  0  0  0  0  0  0  0  0  0
  180.2490  182.4670  137.1070 C   0  0  0  0  0  2  0  0  0  0  0  0
  180.3180  181.6840  134.7360 C   0  0  0  0  0  2  0  0  0  0  0  0
  181.4250  179.4100  138.8500 C   0  0  1  0  0  3  0  0  0  0  0  0
  181.1930  180.8600  138.7670 N   0  0  0  0  0  2  0  0  0  0  0  0
  180.7320  182.8030  135.6950 C   0  0  0  0  0  2  0  0  0  0  0  0
  180.9250  180.1140  136.5230 C   0  0  0  0  0  0  0  0  0  0  0  0
  181.6210  178.6430  137.1890 S   0  0  0  0  0  0  0  0  0  0  0  0
  188.1360  177.2670  144.8820 C   0  0  0  0  0  3  0  0  0  0  0  0
  188.8530  177.8320  145.7500 O   0  0  0  0  0  0  0  0  0  0  0  0
  185.2490  179.2560  144.3080 N   0  0  0  0  0  2  0  0  0  0  0  0
  185.6070  179.0820  146.8850 C   0  0  0  0  0  3  0  0  0  0  0  0
  185.4390  179.1620  145.6940 C   0  0  0  0  0  0  0  0  0  0  0  0
  189.5870  177.3370  139.2690 N   0  0  0  0  0  2  0  0  0  0  0  0
  190.1580  176.1770  138.6030 C   0  0  0  0  0  2  0  0  0  0  0  0
  191.5090  176.5350  138.0050 C   0  0  0  0  0  2  0  0  0  0  0  0
  190.3750  174.3700  135.4590 N   0  0  0  0  0  0  0  0  0  0  0  0
  192.4420  174.9370  136.4180 N   0  0  0  0  0  2  0  0  0  0  0  0
  192.2660  172.4480  135.4410 S   0  0  0  0  0  0  0  0  0  0  0  0
  191.6880  173.9450  135.7540 C   0  0  0  0  0  0  0  0  0  0  0  0
  190.1980  175.7000  136.0070 C   0  0  0  0  0  2  0  0  0  0  0  0
  191.5860  176.1120  136.5440 C   0  0  1  0  0  3  0  0  0  0  0  0
  189.2820  173.5250  135.0060 C   0  0  0  0  0  2  0  0  0  0  0  0
  187.3780  173.0700  136.6010 C   0  0  0  0  0  0  0  0  0  0  0  0
  187.8560  171.9370  136.8810 O   0  0  0  0  0  0  0  0  0  0  0  0
  188.0480  173.9230  135.6660 N   0  0  0  0  0  2  0  0  0  0  0  0
  186.1340  173.5170  137.2410 C   0  0  0  0  0  0  0  0  0  0  0  0
  185.5590  174.7720  136.8940 N   0  0  0  0  0  1  0  0  0  0  0  0
  185.5650  172.7880  138.0960 O   0  0  0  0  0  0  0  0  0  0  0  0
  1 13  1  0  0  0  0
  2  8  2  0  0  0  0
  3 28  1  6  0  0  0
  4  2  1  6  0  0  0
  4 16  1  0  0  0  0
  5  7  1  0  0  0  0
  5  9  1  0  0  0  0
  6  4  1  0  0  0  0
  6 12  2  0  0  0  0
  7 11  2  0  0  0  0
  9  8  1  0  0  0  0
  9  1  2  0  0  0  0
 10 15  2  0  0  0  0
 11  1  1  0  0  0  0
 12 10  1  0  0  0  0
 13  3  1  0  0  0  0
 14  8  1  6  0  0  0
 14 16  1  0  0  0  0
 14  3  1  0  0  0  0
 15 26  1  0  0  0  0
 16 15  1  6  0  0  0
 17 24  2  0  0  0  0
 18 22  1  0  0  0  0
 19 18  1  0  0  0  0
 20 17  1  0  0  0  0
 20 23  1  0  0  0  0
 21  7  1  1  0  0  0
 22 21  1  0  0  0  0
 23 19  1  0  0  0  0
 24 25  1  0  0  0  0
 24 18  1  0  0  0  0
 25 21  1  0  0  0  0
 26 27  2  0  0  0  0
 28 30  1  0  0  0  0
 30 29  3  0  0  0  0
 31  6  1  0  0  0  0
 32 31  1  0  0  0  0
 33 32  1  0  0  0  0
 34 37  1  0  0  0  0
 34 38  1  0  0  0  0
 35 39  1  0  0  0  0
 36 37  2  0  0  0  0
 37 35  1  0  0  0  0
 38 39  1  0  0  0  0
 39 33  1  1  0  0  0
 40 34  1  0  0  0  0
 40 43  1  0  0  0  0
 41 42  2  0  0  0  0
 41 44  1  0  0  0  0
 43 41  1  0  0  0  0
 44 46  2  0  0  0  0
 45 44  1  0  0  0  0
M  END
>  <MODEL>
9

>  <REMARK>
 VINA RESULT:      -7.7      3.079      8.991
  Name = 
  11 active torsions:
  status: ('A' for Active; 'I' for Inactive)
    1  A    between atoms: C_5  and  N_11
    2  A    between atoms: N_6  and  C_15
    3  A    between atoms: C_9  and  C_40
    4  A    between atoms: C_10  and  N_11
    5  A    between atoms: C_12  and  C_13
    6  A    between atoms: C_15  and  N_41
    7  A    between atoms: C_19  and  C_36
    8  A    between atoms: C_19  and  C_44
    9  A    between atoms: N_20  and  C_22
   10  A    between atoms: N_20  and  C_36
   11  A    between atoms: C_23  and  C_33
                            x       y       z     vdW  Elec       q    Type
                         _______ _______ _______ _____ _____    ______ ____

>  <TORSDO>
F 11

$$$$
