=
 OpenBabel10232407463D

 25 28  0  0  1  0  0  0  0  0999 V2000
  190.0580  177.1140  146.5750 N   0  0  0  0  0  2  0  0  0  0  0  0
  185.4670  177.9120  143.0150 C   0  0  2  0  0  3  0  0  0  0  0  0
  187.3060  177.5890  144.4210 C   0  0  0  0  0  0  0  0  0  0  0  0
  185.3510  179.0560  142.0940 N   0  0  0  0  0  0  0  0  0  0  0  0
  187.5210  178.2070  142.0280 C   0  0  0  0  0  0  0  0  0  0  0  0
  191.7110  176.3200  145.1970 O   0  0  0  0  0  0  0  0  0  0  0  0
  185.1600  178.3150  144.4310 C   0  0  0  0  0  0  0  0  0  0  0  0
  186.8740  177.5100  143.0630 N   0  0  0  0  0  0  0  0  0  0  0  0
  189.6480  176.8230  144.3340 N   0  0  0  0  0  2  0  0  0  0  0  0
  190.5330  176.7310  145.3590 C   0  0  0  0  0  0  0  0  0  0  0  0
  184.0590  178.7680  144.8410 O   0  0  0  0  0  0  0  0  0  0  0  0
  188.5570  177.2940  144.9530 C   0  0  0  0  0  0  0  0  0  0  0  0
  187.8070  177.9490  147.1680 C   0  0  0  0  0  0  0  0  0  0  0  0
  186.6040  179.1180  141.3300 C   0  0  0  0  0  2  0  0  0  0  0  0
  186.5340  178.2610  146.6340 C   0  0  0  0  0  3  0  0  0  0  0  0
  188.7450  178.0840  141.7620 O   0  0  0  0  0  0  0  0  0  0  0  0
  186.3220  178.0650  145.2560 C   0  0  0  0  0  0  0  0  0  0  0  0
  188.7960  177.4660  146.2890 C   0  0  0  0  0  0  0  0  0  0  0  0
  188.0810  178.1360  148.6190 C   0  0  0  0  0  1  0  0  0  0  0  0
  184.2920  178.7360  141.1470 C   0  0  0  0  0  2  0  0  0  0  0  0
  184.7450  178.9840  139.7090 C   0  0  2  0  0  3  0  0  0  0  0  0
  184.2860  180.2330  139.2780 O   0  0  0  0  0  1  0  0  0  0  0  0
  182.9770  178.2900  138.0770 C   0  0  0  0  0  1  0  0  0  0  0  0
  185.2760  177.6190  137.7520 N   0  0  0  0  0  1  0  0  0  0  0  0
  184.2660  177.8810  138.7650 C   0  0  1  0  0  3  0  0  0  0  0  0
  2  8  1  0  0  0  0
  2  7  1  1  0  0  0
  3 12  2  0  0  0  0
  3 17  1  0  0  0  0
  4  2  1  0  0  0  0
  5  8  1  0  0  0  0
  6 10  2  0  0  0  0
  7 11  2  0  0  0  0
  7 17  1  0  0  0  0
  8  3  1  0  0  0  0
  9 12  1  0  0  0  0
  9 10  1  0  0  0  0
 10  1  1  0  0  0  0
 12 18  1  0  0  0  0
 13 19  1  0  0  0  0
 14  5  1  0  0  0  0
 14  4  1  0  0  0  0
 15 13  1  0  0  0  0
 16  5  2  0  0  0  0
 17 15  2  0  0  0  0
 18  1  1  0  0  0  0
 18 13  2  0  0  0  0
 20  4  1  0  0  0  0
 21 22  1  6  0  0  0
 21 20  1  0  0  0  0
 24 25  1  0  0  0  0
 25 23  1  6  0  0  0
 25 21  1  0  0  0  0
M  END
>  <MODEL>
1

>  <REMARK>
 VINA RESULT:      -9.1      0.000      0.000
  Name = 
  3 active torsions:
  status: ('A' for Active; 'I' for Inactive)
    1  A    between atoms: N_4  and  C_24
    2  A    between atoms: C_10  and  C_11
    3  A    between atoms: C_11  and  C_24
                            x       y       z     vdW  Elec       q    Type
                         _______ _______ _______ _____ _____    ______ ____

>  <TORSDO>
F 3

$$$$
=
 OpenBabel10232407463D

 25 28  0  0  1  0  0  0  0  0999 V2000
  190.8760  176.8130  147.8410 N   0  0  0  0  0  2  0  0  0  0  0  0
  188.5050  176.9730  142.4790 C   0  0  2  0  0  3  0  0  0  0  0  0
  189.4630  176.9030  144.6100 C   0  0  0  0  0  0  0  0  0  0  0  0
  188.8660  177.9820  141.4680 N   0  0  0  0  0  0  0  0  0  0  0  0
  190.7900  177.2090  142.5350 C   0  0  0  0  0  0  0  0  0  0  0  0
  192.9570  175.9050  147.5120 O   0  0  0  0  0  0  0  0  0  0  0  0
  187.5840  177.5470  143.5210 C   0  0  0  0  0  0  0  0  0  0  0  0
  189.7140  176.6320  143.2310 N   0  0  0  0  0  0  0  0  0  0  0  0
  191.5510  176.2160  145.7270 N   0  0  0  0  0  2  0  0  0  0  0  0
  191.8520  176.2920  147.0490 C   0  0  0  0  0  0  0  0  0  0  0  0
  186.4340  178.0100  143.3060 O   0  0  0  0  0  0  0  0  0  0  0  0
  190.3120  176.7250  145.6970 C   0  0  0  0  0  0  0  0  0  0  0  0
  188.6350  177.6390  147.1980 C   0  0  0  0  0  0  0  0  0  0  0  0
  190.3330  177.9880  141.3760 C   0  0  0  0  0  2  0  0  0  0  0  0
  187.7680  177.8320  146.0960 C   0  0  0  0  0  3  0  0  0  0  0  0
  191.9920  177.0960  142.8900 O   0  0  0  0  0  0  0  0  0  0  0  0
  188.2190  177.4490  144.8180 C   0  0  0  0  0  0  0  0  0  0  0  0
  189.9040  177.0800  146.9540 C   0  0  0  0  0  0  0  0  0  0  0  0
  188.2040  178.0240  148.5690 C   0  0  0  0  0  1  0  0  0  0  0  0
  188.3630  177.5020  140.1880 C   0  0  0  0  0  2  0  0  0  0  0  0
  189.3470  177.8070  139.0590 C   0  0  2  0  0  3  0  0  0  0  0  0
  188.9440  178.9600  138.3800 O   0  0  0  0  0  1  0  0  0  0  0  0
  189.8280  177.1260  136.6990 C   0  0  0  0  0  1  0  0  0  0  0  0
  190.5290  175.7300  138.5430 N   0  0  0  0  0  1  0  0  0  0  0  0
  189.4810  176.6310  138.0910 C   0  0  1  0  0  3  0  0  0  0  0  0
  2  8  1  0  0  0  0
  2  7  1  1  0  0  0
  3 17  2  0  0  0  0
  3 12  1  0  0  0  0
  4  2  1  0  0  0  0
  5 16  2  0  0  0  0
  5  8  1  0  0  0  0
  7 17  1  0  0  0  0
  8  3  1  0  0  0  0
  9 10  1  0  0  0  0
 10  6  2  0  0  0  0
 10  1  1  0  0  0  0
 11  7  2  0  0  0  0
 12  9  1  0  0  0  0
 12 18  2  0  0  0  0
 13 19  1  0  0  0  0
 14  4  1  0  0  0  0
 14  5  1  0  0  0  0
 15 13  2  0  0  0  0
 17 15  1  0  0  0  0
 18 13  1  0  0  0  0
 18  1  1  0  0  0  0
 20  4  1  0  0  0  0
 21 22  1  6  0  0  0
 21 20  1  0  0  0  0
 25 23  1  6  0  0  0
 25 24  1  0  0  0  0
 25 21  1  0  0  0  0
M  END
>  <MODEL>
2

>  <REMARK>
 VINA RESULT:      -9.0      2.923      3.489
  Name = 
  3 active torsions:
  status: ('A' for Active; 'I' for Inactive)
    1  A    between atoms: N_4  and  C_24
    2  A    between atoms: C_10  and  C_11
    3  A    between atoms: C_11  and  C_24
                            x       y       z     vdW  Elec       q    Type
                         _______ _______ _______ _____ _____    ______ ____

>  <TORSDO>
F 3

$$$$
=
 OpenBabel10232407463D

 25 28  0  0  1  0  0  0  0  0999 V2000
  190.1510  177.2530  147.8330 N   0  0  0  0  0  2  0  0  0  0  0  0
  188.6890  176.7810  142.1730 C   0  0  2  0  0  3  0  0  0  0  0  0
  189.2860  176.9630  144.4260 C   0  0  0  0  0  0  0  0  0  0  0  0
  189.1450  177.7290  141.1420 N   0  0  0  0  0  0  0  0  0  0  0  0
  190.9130  177.2030  142.5680 C   0  0  0  0  0  0  0  0  0  0  0  0
  192.3120  176.4900  147.9240 O   0  0  0  0  0  0  0  0  0  0  0  0
  187.5740  177.3640  142.9980 C   0  0  0  0  0  0  0  0  0  0  0  0
  189.7770  176.6010  143.1360 N   0  0  0  0  0  0  0  0  0  0  0  0
  191.2020  176.5400  145.9190 N   0  0  0  0  0  2  0  0  0  0  0  0
  191.2750  176.7480  147.2590 C   0  0  0  0  0  0  0  0  0  0  0  0
  186.4470  177.7140  142.5610 O   0  0  0  0  0  0  0  0  0  0  0  0
  189.9540  176.9440  145.6460 C   0  0  0  0  0  0  0  0  0  0  0  0
  187.9970  177.8410  146.7690 C   0  0  0  0  0  0  0  0  0  0  0  0
  190.6030  177.8440  141.2830 C   0  0  0  0  0  2  0  0  0  0  0  0
  187.3130  177.8730  145.5310 C   0  0  0  0  0  3  0  0  0  0  0  0
  192.0450  177.2160  143.1170 O   0  0  0  0  0  0  0  0  0  0  0  0
  187.9910  177.4240  144.3820 C   0  0  0  0  0  0  0  0  0  0  0  0
  189.3230  177.3680  146.7830 C   0  0  0  0  0  0  0  0  0  0  0  0
  187.3220  178.3020  148.0130 C   0  0  0  0  0  1  0  0  0  0  0  0
  188.8920  177.1060  139.8490 C   0  0  0  0  0  2  0  0  0  0  0  0
  188.2890  178.1060  138.8640 C   0  0  2  0  0  3  0  0  0  0  0  0
  187.0880  178.6080  139.3750 O   0  0  0  0  0  1  0  0  0  0  0  0
  188.8430  176.1830  137.3610 C   0  0  0  0  0  1  0  0  0  0  0  0
  186.6550  177.2050  137.2850 N   0  0  0  0  0  1  0  0  0  0  0  0
  188.0680  177.4820  137.4860 C   0  0  1  0  0  3  0  0  0  0  0  0
  2  7  1  1  0  0  0
  2  8  1  0  0  0  0
  3 12  1  0  0  0  0
  4 14  1  0  0  0  0
  4  2  1  0  0  0  0
  5 16  2  0  0  0  0
  5  8  1  0  0  0  0
  7 17  1  0  0  0  0
  8  3  1  0  0  0  0
  9 10  1  0  0  0  0
 10  1  1  0  0  0  0
 10  6  2  0  0  0  0
 11  7  2  0  0  0  0
 12  9  1  0  0  0  0
 12 18  2  0  0  0  0
 13 18  1  0  0  0  0
 13 19  1  0  0  0  0
 14  5  1  0  0  0  0
 15 13  2  0  0  0  0
 17  3  2  0  0  0  0
 17 15  1  0  0  0  0
 18  1  1  0  0  0  0
 20  4  1  0  0  0  0
 21 22  1  1  0  0  0
 21 20  1  0  0  0  0
 24 25  1  0  0  0  0
 25 23  1  1  0  0  0
 25 21  1  0  0  0  0
M  END
>  <MODEL>
3

>  <REMARK>
 VINA RESULT:      -8.8      2.562      3.127
  Name = 
  3 active torsions:
  status: ('A' for Active; 'I' for Inactive)
    1  A    between atoms: N_4  and  C_24
    2  A    between atoms: C_10  and  C_11
    3  A    between atoms: C_11  and  C_24
                            x       y       z     vdW  Elec       q    Type
                         _______ _______ _______ _____ _____    ______ ____

>  <TORSDO>
F 3

$$$$
=
 OpenBabel10232407463D

 25 28  0  0  1  0  0  0  0  0999 V2000
  183.9160  178.9850  141.0250 N   0  0  0  0  0  2  0  0  0  0  0  0
  188.3890  178.0400  144.6990 C   0  0  2  0  0  3  0  0  0  0  0  0
  186.6160  178.4170  143.2220 C   0  0  0  0  0  0  0  0  0  0  0  0
  189.0660  176.7380  144.8250 N   0  0  0  0  0  0  0  0  0  0  0  0
  188.6890  177.2170  142.5750 C   0  0  0  0  0  0  0  0  0  0  0  0
  184.9070  179.1710  138.9650 O   0  0  0  0  0  0  0  0  0  0  0  0
  187.0630  178.0400  145.4110 C   0  0  0  0  0  0  0  0  0  0  0  0
  188.0290  178.2300  143.2920 N   0  0  0  0  0  0  0  0  0  0  0  0
  186.1960  178.7860  140.8210 N   0  0  0  0  0  2  0  0  0  0  0  0
  185.0020  178.9890  140.2060 C   0  0  0  0  0  0  0  0  0  0  0  0
  186.8960  177.8660  146.6460 O   0  0  0  0  0  0  0  0  0  0  0  0
  185.8250  178.6430  142.1010 C   0  0  0  0  0  0  0  0  0  0  0  0
  183.8230  178.6580  143.4750 C   0  0  0  0  0  0  0  0  0  0  0  0
  189.4250  176.3100  143.4660 C   0  0  0  0  0  2  0  0  0  0  0  0
  184.6190  178.4180  144.6200 C   0  0  0  0  0  3  0  0  0  0  0  0
  188.6230  177.0910  141.3250 O   0  0  0  0  0  0  0  0  0  0  0  0
  186.0120  178.3060  144.4530 C   0  0  0  0  0  0  0  0  0  0  0  0
  184.4680  178.7640  142.2280 C   0  0  0  0  0  0  0  0  0  0  0  0
  182.3450  178.7870  143.6000 C   0  0  0  0  0  1  0  0  0  0  0  0
  190.3140  176.9750  145.5390 C   0  0  0  0  0  2  0  0  0  0  0  0
  190.2140  176.5170  146.9930 C   0  0  2  0  0  3  0  0  0  0  0  0
  189.8360  177.5930  147.8020 O   0  0  0  0  0  1  0  0  0  0  0  0
  192.3570  175.4140  146.3170 C   0  0  0  0  0  1  0  0  0  0  0  0
  192.2920  176.9010  148.2210 N   0  0  0  0  0  1  0  0  0  0  0  0
  191.5250  175.9070  147.4870 C   0  0  1  0  0  3  0  0  0  0  0  0
  1 18  1  0  0  0  0
  2  4  1  0  0  0  0
  2  7  1  1  0  0  0
  3  8  1  0  0  0  0
  3 17  1  0  0  0  0
  4 20  1  0  0  0  0
  5  8  1  0  0  0  0
  5 14  1  0  0  0  0
  6 10  2  0  0  0  0
  7 11  2  0  0  0  0
  8  2  1  0  0  0  0
  9 12  1  0  0  0  0
 10  9  1  0  0  0  0
 10  1  1  0  0  0  0
 12 18  1  0  0  0  0
 12  3  2  0  0  0  0
 13 19  1  0  0  0  0
 13 15  1  0  0  0  0
 14  4  1  0  0  0  0
 16  5  2  0  0  0  0
 17 15  2  0  0  0  0
 17  7  1  0  0  0  0
 18 13  2  0  0  0  0
 20 21  1  0  0  0  0
 21 25  1  0  0  0  0
 21 22  1  1  0  0  0
 25 23  1  6  0  0  0
 25 24  1  0  0  0  0
M  END
>  <MODEL>
4

>  <REMARK>
 VINA RESULT:      -8.5      1.882      6.942
  Name = 
  3 active torsions:
  status: ('A' for Active; 'I' for Inactive)
    1  A    between atoms: N_4  and  C_24
    2  A    between atoms: C_10  and  C_11
    3  A    between atoms: C_11  and  C_24
                            x       y       z     vdW  Elec       q    Type
                         _______ _______ _______ _____ _____    ______ ____

>  <TORSDO>
F 3

$$$$
=
 OpenBabel10232407463D

 25 28  0  0  1  0  0  0  0  0999 V2000
  186.7160  178.1700  147.3960 N   0  0  0  0  0  2  0  0  0  0  0  0
  189.3700  176.7710  142.3570 C   0  0  2  0  0  3  0  0  0  0  0  0
  188.3250  177.3240  144.3740 C   0  0  0  0  0  0  0  0  0  0  0  0
  190.4200  177.6030  141.7410 N   0  0  0  0  0  0  0  0  0  0  0  0
  190.7810  177.4490  144.0400 C   0  0  0  0  0  0  0  0  0  0  0  0
  188.2510  177.6310  149.0120 O   0  0  0  0  0  0  0  0  0  0  0  0
  188.0040  177.3580  142.1310 C   0  0  0  0  0  0  0  0  0  0  0  0
  189.5400  176.8300  143.8100 N   0  0  0  0  0  0  0  0  0  0  0  0
  188.7550  177.2940  146.8010 N   0  0  0  0  0  2  0  0  0  0  0  0
  187.9250  177.6950  147.7980 C   0  0  0  0  0  0  0  0  0  0  0  0
  187.4600  177.5380  141.0100 O   0  0  0  0  0  0  0  0  0  0  0  0
  188.0130  177.5390  145.7120 C   0  0  0  0  0  0  0  0  0  0  0  0
  185.8270  178.3990  145.0990 C   0  0  0  0  0  0  0  0  0  0  0  0
  191.4180  177.8720  142.7850 C   0  0  0  0  0  2  0  0  0  0  0  0
  186.1390  178.1930  143.7350 C   0  0  0  0  0  3  0  0  0  0  0  0
  191.2620  177.6440  145.1860 O   0  0  0  0  0  0  0  0  0  0  0  0
  187.3980  177.6510  143.4120 C   0  0  0  0  0  0  0  0  0  0  0  0
  186.7970  178.0580  146.0610 C   0  0  0  0  0  0  0  0  0  0  0  0
  184.5080  178.9660  145.4920 C   0  0  0  0  0  1  0  0  0  0  0  0
  191.0740  176.7840  140.7300 C   0  0  0  0  0  2  0  0  0  0  0  0
  191.1210  177.5030  139.3830 C   0  0  2  0  0  3  0  0  0  0  0  0
  189.8790  178.0870  139.1150 O   0  0  0  0  0  1  0  0  0  0  0  0
  193.0350  176.3810  138.2240 C   0  0  0  0  0  1  0  0  0  0  0  0
  190.9040  175.2600  138.4360 N   0  0  0  0  0  1  0  0  0  0  0  0
  191.5280  176.5610  138.2510 C   0  0  1  0  0  3  0  0  0  0  0  0
  1 10  1  0  0  0  0
  2  7  1  1  0  0  0
  2  8  1  0  0  0  0
  3 12  1  0  0  0  0
  4  2  1  0  0  0  0
  4 14  1  0  0  0  0
  5 16  2  0  0  0  0
  7 17  1  0  0  0  0
  8  5  1  0  0  0  0
  8  3  1  0  0  0  0
  9 10  1  0  0  0  0
 10  6  2  0  0  0  0
 11  7  2  0  0  0  0
 12 18  2  0  0  0  0
 12  9  1  0  0  0  0
 13 19  1  0  0  0  0
 13 18  1  0  0  0  0
 14  5  1  0  0  0  0
 15 13  2  0  0  0  0
 17 15  1  0  0  0  0
 17  3  2  0  0  0  0
 18  1  1  0  0  0  0
 20  4  1  0  0  0  0
 21 22  1  6  0  0  0
 21 20  1  0  0  0  0
 25 23  1  1  0  0  0
 25 24  1  0  0  0  0
 25 21  1  0  0  0  0
M  END
>  <MODEL>
5

>  <REMARK>
 VINA RESULT:      -8.4      3.124      4.878
  Name = 
  3 active torsions:
  status: ('A' for Active; 'I' for Inactive)
    1  A    between atoms: N_4  and  C_24
    2  A    between atoms: C_10  and  C_11
    3  A    between atoms: C_11  and  C_24
                            x       y       z     vdW  Elec       q    Type
                         _______ _______ _______ _____ _____    ______ ____

>  <TORSDO>
F 3

$$$$
=
 OpenBabel10232407463D

 25 28  0  0  1  0  0  0  0  0999 V2000
  191.8570  177.2290  143.0310 N   0  0  0  0  0  2  0  0  0  0  0  0
  186.0130  177.5350  143.4150 C   0  0  2  0  0  3  0  0  0  0  0  0
  188.3410  177.4140  143.2460 C   0  0  0  0  0  0  0  0  0  0  0  0
  185.2600  178.7930  143.2660 N   0  0  0  0  0  0  0  0  0  0  0  0
  186.9280  178.6730  141.6410 C   0  0  0  0  0  0  0  0  0  0  0  0
  192.2820  177.3510  140.7800 O   0  0  0  0  0  0  0  0  0  0  0  0
  186.6630  177.4430  144.7680 C   0  0  0  0  0  0  0  0  0  0  0  0
  187.1430  177.5710  142.4850 N   0  0  0  0  0  0  0  0  0  0  0  0
  190.1200  177.4280  141.5390 N   0  0  0  0  0  2  0  0  0  0  0  0
  191.4610  177.3370  141.7340 C   0  0  0  0  0  0  0  0  0  0  0  0
  186.0580  177.4250  145.8720 O   0  0  0  0  0  0  0  0  0  0  0  0
  189.6560  177.3750  142.7950 C   0  0  0  0  0  0  0  0  0  0  0  0
  190.4660  177.1740  145.0760 C   0  0  0  0  0  0  0  0  0  0  0  0
  185.7220  179.4220  142.0210 C   0  0  0  0  0  2  0  0  0  0  0  0
  189.1320  177.2230  145.5440 C   0  0  0  0  0  3  0  0  0  0  0  0
  187.6990  178.9930  140.7000 O   0  0  0  0  0  0  0  0  0  0  0  0
  188.0970  177.3410  144.5970 C   0  0  0  0  0  0  0  0  0  0  0  0
  190.6860  177.2540  143.6870 C   0  0  0  0  0  0  0  0  0  0  0  0
  191.5960  177.0450  146.0360 C   0  0  0  0  0  1  0  0  0  0  0  0
  183.8630  178.4330  143.0670 C   0  0  0  0  0  2  0  0  0  0  0  0
  182.9350  179.3810  143.8260 C   0  0  2  0  0  3  0  0  0  0  0  0
  182.9920  179.1020  145.1940 O   0  0  0  0  0  1  0  0  0  0  0  0
  181.4710  178.8670  141.8610 C   0  0  0  0  0  1  0  0  0  0  0  0
  180.7490  178.3230  144.1020 N   0  0  0  0  0  1  0  0  0  0  0  0
  181.4960  179.2930  143.3180 C   0  0  1  0  0  3  0  0  0  0  0  0
  1 18  1  0  0  0  0
  2  7  1  1  0  0  0
  3 17  1  0  0  0  0
  4  2  1  0  0  0  0
  5 14  1  0  0  0  0
  5  8  1  0  0  0  0
  6 10  2  0  0  0  0
  7 11  2  0  0  0  0
  8  3  1  0  0  0  0
  8  2  1  0  0  0  0
  9 10  1  0  0  0  0
  9 12  1  0  0  0  0
 10  1  1  0  0  0  0
 12  3  2  0  0  0  0
 12 18  1  0  0  0  0
 13 15  1  0  0  0  0
 13 19  1  0  0  0  0
 14  4  1  0  0  0  0
 16  5  2  0  0  0  0
 17  7  1  0  0  0  0
 17 15  2  0  0  0  0
 18 13  2  0  0  0  0
 20  4  1  0  0  0  0
 20 21  1  0  0  0  0
 21 22  1  1  0  0  0
 25 23  1  6  0  0  0
 25 21  1  0  0  0  0
 25 24  1  0  0  0  0
M  END
>  <MODEL>
6

>  <REMARK>
 VINA RESULT:      -8.3      2.529      3.533
  Name = 
  3 active torsions:
  status: ('A' for Active; 'I' for Inactive)
    1  A    between atoms: N_4  and  C_24
    2  A    between atoms: C_10  and  C_11
    3  A    between atoms: C_11  and  C_24
                            x       y       z     vdW  Elec       q    Type
                         _______ _______ _______ _____ _____    ______ ____

>  <TORSDO>
F 3

$$$$
=
 OpenBabel10232407463D

 25 28  0  0  1  0  0  0  0  0999 V2000
  190.1920  177.3820  146.1240 N   0  0  0  0  0  2  0  0  0  0  0  0
  184.8410  178.0030  143.8080 C   0  0  2  0  0  3  0  0  0  0  0  0
  186.9790  177.7510  144.7170 C   0  0  0  0  0  0  0  0  0  0  0  0
  184.4560  179.1470  142.9620 N   0  0  0  0  0  0  0  0  0  0  0  0
  186.5760  178.3920  142.3540 C   0  0  0  0  0  0  0  0  0  0  0  0
  191.4880  176.6680  144.3710 O   0  0  0  0  0  0  0  0  0  0  0  0
  184.8730  178.3840  145.2630 C   0  0  0  0  0  0  0  0  0  0  0  0
  186.2320  177.6620  143.5040 N   0  0  0  0  0  0  0  0  0  0  0  0
  189.2570  177.0870  144.0470 N   0  0  0  0  0  2  0  0  0  0  0  0
  190.3690  177.0280  144.8230 C   0  0  0  0  0  0  0  0  0  0  0  0
  183.8900  178.7870  145.9370 O   0  0  0  0  0  0  0  0  0  0  0  0
  188.3330  177.5070  144.9220 C   0  0  0  0  0  0  0  0  0  0  0  0
  188.1230  178.1160  147.2630 C   0  0  0  0  0  0  0  0  0  0  0  0
  185.4810  179.2670  141.9160 C   0  0  0  0  0  2  0  0  0  0  0  0
  186.7470  178.3760  147.0620 C   0  0  0  0  0  3  0  0  0  0  0  0
  187.7010  178.3230  141.7950 O   0  0  0  0  0  0  0  0  0  0  0  0
  186.2120  178.1790  145.7740 C   0  0  0  0  0  0  0  0  0  0  0  0
  188.8850  177.6820  146.1610 C   0  0  0  0  0  0  0  0  0  0  0  0
  188.7360  178.3060  148.6060 C   0  0  0  0  0  1  0  0  0  0  0  0
  183.2110  178.7860  142.2970 C   0  0  0  0  0  2  0  0  0  0  0  0
  182.0130  179.4570  142.9680 C   0  0  2  0  0  3  0  0  0  0  0  0
  181.7000  178.7890  144.1550 O   0  0  0  0  0  1  0  0  0  0  0  0
  181.2390  179.5770  140.5900 C   0  0  0  0  0  1  0  0  0  0  0  0
  179.9840  178.3150  142.2250 N   0  0  0  0  0  1  0  0  0  0  0  0
  180.7990  179.5050  142.0410 C   0  0  1  0  0  3  0  0  0  0  0  0
  1 18  1  0  0  0  0
  2  7  1  1  0  0  0
  3 12  2  0  0  0  0
  3 17  1  0  0  0  0
  4  2  1  0  0  0  0
  5  8  1  0  0  0  0
  6 10  2  0  0  0  0
  7 17  1  0  0  0  0
  7 11  2  0  0  0  0
  8  2  1  0  0  0  0
  8  3  1  0  0  0  0
  9 10  1  0  0  0  0
  9 12  1  0  0  0  0
 10  1  1  0  0  0  0
 12 18  1  0  0  0  0
 13 19  1  0  0  0  0
 14  5  1  0  0  0  0
 14  4  1  0  0  0  0
 15 13  1  0  0  0  0
 16  5  2  0  0  0  0
 17 15  2  0  0  0  0
 18 13  2  0  0  0  0
 20  4  1  0  0  0  0
 20 21  1  0  0  0  0
 21 22  1  1  0  0  0
 25 23  1  6  0  0  0
 25 24  1  0  0  0  0
 25 21  1  0  0  0  0
M  END
>  <MODEL>
7

>  <REMARK>
 VINA RESULT:      -8.2      1.960      2.455
  Name = 
  3 active torsions:
  status: ('A' for Active; 'I' for Inactive)
    1  A    between atoms: N_4  and  C_24
    2  A    between atoms: C_10  and  C_11
    3  A    between atoms: C_11  and  C_24
                            x       y       z     vdW  Elec       q    Type
                         _______ _______ _______ _____ _____    ______ ____

>  <TORSDO>
F 3

$$$$
=
 OpenBabel10232407463D

 25 28  0  0  1  0  0  0  0  0999 V2000
  189.5370  177.0360  148.2080 N   0  0  0  0  0  2  0  0  0  0  0  0
  189.8010  178.0770  142.4420 C   0  0  2  0  0  3  0  0  0  0  0  0
  189.6820  177.6690  144.7410 C   0  0  0  0  0  0  0  0  0  0  0  0
  189.0530  177.2900  141.4460 N   0  0  0  0  0  0  0  0  0  0  0  0
  187.6830  177.7590  143.2730 C   0  0  0  0  0  0  0  0  0  0  0  0
  187.5220  177.9240  148.8510 O   0  0  0  0  0  0  0  0  0  0  0  0
  191.0090  177.3280  142.9360 C   0  0  0  0  0  0  0  0  0  0  0  0
  188.9630  178.2130  143.6350 N   0  0  0  0  0  0  0  0  0  0  0  0
  188.1720  178.0380  146.6550 N   0  0  0  0  0  2  0  0  0  0  0  0
  188.3670  177.6780  147.9500 C   0  0  0  0  0  0  0  0  0  0  0  0
  191.9810  176.9590  142.2280 O   0  0  0  0  0  0  0  0  0  0  0  0
  189.2930  177.5880  146.0730 C   0  0  0  0  0  0  0  0  0  0  0  0
  191.3550  176.4370  146.6400 C   0  0  0  0  0  0  0  0  0  0  0  0
  187.6540  177.2550  141.8940 C   0  0  0  0  0  2  0  0  0  0  0  0
  191.7540  176.5070  145.2850 C   0  0  0  0  0  3  0  0  0  0  0  0
  186.6970  177.7560  144.0550 O   0  0  0  0  0  0  0  0  0  0  0  0
  190.8910  177.1330  144.3660 C   0  0  0  0  0  0  0  0  0  0  0  0
  190.1100  176.9920  146.9950 C   0  0  0  0  0  0  0  0  0  0  0  0
  192.2330  175.7890  147.6510 C   0  0  0  0  0  1  0  0  0  0  0  0
  189.0810  178.0430  140.2000 C   0  0  0  0  0  2  0  0  0  0  0  0
  189.3770  177.1300  139.0100 C   0  0  2  0  0  3  0  0  0  0  0  0
  190.4140  176.2510  139.3360 O   0  0  0  0  0  1  0  0  0  0  0  0
  189.3700  177.1410  136.5070 C   0  0  0  0  0  1  0  0  0  0  0  0
  188.9840  179.1820  137.7420 N   0  0  0  0  0  1  0  0  0  0  0  0
  189.7230  177.9300  137.7550 C   0  0  1  0  0  3  0  0  0  0  0  0
  2  7  1  1  0  0  0
  2  8  1  0  0  0  0
  3 12  1  0  0  0  0
  4 14  1  0  0  0  0
  4  2  1  0  0  0  0
  5  8  1  0  0  0  0
  5 16  2  0  0  0  0
  7 17  1  0  0  0  0
  8  3  1  0  0  0  0
  9 10  1  0  0  0  0
 10  1  1  0  0  0  0
 10  6  2  0  0  0  0
 11  7  2  0  0  0  0
 12  9  1  0  0  0  0
 12 18  2  0  0  0  0
 13 18  1  0  0  0  0
 13 19  1  0  0  0  0
 14  5  1  0  0  0  0
 15 13  2  0  0  0  0
 17  3  2  0  0  0  0
 17 15  1  0  0  0  0
 18  1  1  0  0  0  0
 20  4  1  0  0  0  0
 21 22  1  1  0  0  0
 21 20  1  0  0  0  0
 24 25  1  0  0  0  0
 25 23  1  6  0  0  0
 25 21  1  0  0  0  0
M  END
>  <MODEL>
8

>  <REMARK>
 VINA RESULT:      -8.1      3.042      4.579
  Name = 
  3 active torsions:
  status: ('A' for Active; 'I' for Inactive)
    1  A    between atoms: N_4  and  C_24
    2  A    between atoms: C_10  and  C_11
    3  A    between atoms: C_11  and  C_24
                            x       y       z     vdW  Elec       q    Type
                         _______ _______ _______ _____ _____    ______ ____

>  <TORSDO>
F 3

$$$$
=
 OpenBabel10232407463D

 25 28  0  0  1  0  0  0  0  0999 V2000
  183.5450  179.0390  142.6090 N   0  0  0  0  0  2  0  0  0  0  0  0
  188.0410  176.9120  145.7150 C   0  0  2  0  0  3  0  0  0  0  0  0
  186.2400  177.7590  144.4900 C   0  0  0  0  0  0  0  0  0  0  0  0
  188.8450  177.7350  146.6350 N   0  0  0  0  0  0  0  0  0  0  0  0
  186.5840  178.2340  146.9010 C   0  0  0  0  0  0  0  0  0  0  0  0
  181.8370  179.2110  144.1310 O   0  0  0  0  0  0  0  0  0  0  0  0
  188.4170  177.1670  144.2810 C   0  0  0  0  0  0  0  0  0  0  0  0
  186.6510  177.3660  145.7990 N   0  0  0  0  0  0  0  0  0  0  0  0
  183.8850  178.4230  144.7960 N   0  0  0  0  0  2  0  0  0  0  0  0
  183.0280  178.9070  143.8600 C   0  0  0  0  0  0  0  0  0  0  0  0
  189.5480  176.9570  143.7720 O   0  0  0  0  0  0  0  0  0  0  0  0
  185.0040  178.2460  144.0790 C   0  0  0  0  0  0  0  0  0  0  0  0
  185.8270  178.5170  141.8110 C   0  0  0  0  0  0  0  0  0  0  0  0
  187.9020  178.4340  147.5190 C   0  0  0  0  0  2  0  0  0  0  0  0
  187.0910  178.0320  142.2220 C   0  0  0  0  0  3  0  0  0  0  0  0
  185.5250  178.7960  147.2840 O   0  0  0  0  0  0  0  0  0  0  0  0
  187.2570  177.6610  143.5700 C   0  0  0  0  0  0  0  0  0  0  0  0
  184.8050  178.6100  142.7750 C   0  0  0  0  0  0  0  0  0  0  0  0
  185.5990  178.9190  140.3960 C   0  0  0  0  0  1  0  0  0  0  0  0
  189.6090  176.8170  147.4710 C   0  0  0  0  0  2  0  0  0  0  0  0
  191.1100  177.0760  147.3460 C   0  0  2  0  0  3  0  0  0  0  0  0
  191.3870  177.6560  146.1050 O   0  0  0  0  0  1  0  0  0  0  0  0
  192.3570  175.2370  146.1920 C   0  0  0  0  0  1  0  0  0  0  0  0
  193.1070  176.0710  148.3330 N   0  0  0  0  0  1  0  0  0  0  0  0
  191.9230  175.7960  147.5350 C   0  0  1  0  0  3  0  0  0  0  0  0
  1 18  1  0  0  0  0
  1 10  1  0  0  0  0
  2  7  1  6  0  0  0
  2  8  1  0  0  0  0
  2  4  1  0  0  0  0
  3  8  1  0  0  0  0
  4 20  1  0  0  0  0
  4 14  1  0  0  0  0
  5 16  2  0  0  0  0
  5 14  1  0  0  0  0
  8  5  1  0  0  0  0
 10  6  2  0  0  0  0
 10  9  1  0  0  0  0
 11  7  2  0  0  0  0
 12  3  1  0  0  0  0
 12  9  1  0  0  0  0
 13 15  2  0  0  0  0
 13 18  1  0  0  0  0
 15 17  1  0  0  0  0
 17  7  1  0  0  0  0
 17  3  2  0  0  0  0
 18 12  2  0  0  0  0
 19 13  1  0  0  0  0
 21 22  1  6  0  0  0
 21 20  1  0  0  0  0
 21 25  1  0  0  0  0
 25 23  1  6  0  0  0
 25 24  1  0  0  0  0
M  END
>  <MODEL>
9

>  <REMARK>
 VINA RESULT:      -8.0      2.252      7.513
  Name = 
  3 active torsions:
  status: ('A' for Active; 'I' for Inactive)
    1  A    between atoms: N_4  and  C_24
    2  A    between atoms: C_10  and  C_11
    3  A    between atoms: C_11  and  C_24
                            x       y       z     vdW  Elec       q    Type
                         _______ _______ _______ _____ _____    ______ ____

>  <TORSDO>
F 3

$$$$
