=
 OpenBabel10232411223D

 37 39  0  0  1  0  0  0  0  0999 V2000
  186.0830  178.6300  138.0720 N   0  0  0  0  0  2  0  0  0  0  0  0
  187.4440  178.2430  138.2570 C   0  0  0  0  0  0  0  0  0  0  0  0
  188.2630  177.8280  137.0620 C   0  0  0  0  0  2  0  0  0  0  0  0
  189.3750  177.8790  139.6690 C   0  0  2  0  0  3  0  0  0  0  0  0
  187.9680  178.2330  139.4500 N   0  0  0  0  0  0  0  0  0  0  0  0
  189.3070  176.8140  137.4560 C   0  0  0  0  0  0  0  0  0  0  0  0
  189.8140  176.8160  138.6980 C   0  0  0  0  0  3  0  0  0  0  0  0
  189.6120  177.4450  141.0780 C   0  0  0  0  0  0  0  0  0  0  0  0
  190.5690  176.7170  143.2470 C   0  0  0  0  0  0  0  0  0  0  0  0
  189.1860  176.6000  143.2040 C   0  0  0  0  0  3  0  0  0  0  0  0
  191.1320  177.3010  141.7780 S   0  0  0  0  0  0  0  0  0  0  0  0
  188.6440  177.0080  141.9770 C   0  0  0  0  0  3  0  0  0  0  0  0
  191.4400  176.2950  144.3830 C   0  0  0  0  0  2  0  0  0  0  0  0
  191.4390  177.3410  145.4920 C   0  0  0  0  0  2  0  0  0  0  0  0
  191.6760  176.1380  147.5050 O   0  0  0  0  0  0  0  0  0  0  0  0
  190.9280  176.7730  146.7810 C   0  0  0  0  0  0  0  0  0  0  0  0
  189.5080  178.2000  148.5020 O   0  0  0  0  0  1  0  0  0  0  0  0
  188.7350  178.1610  146.0600 O   0  0  0  0  0  1  0  0  0  0  0  0
  189.1730  177.0120  147.2830 P   0  0  0  0  0  0  0  0  0  0  0  0
  189.7270  175.7750  136.4680 C   0  0  0  0  0  2  0  0  0  0  0  0
  188.9800  174.4760  136.7040 C   0  0  0  0  0  2  0  0  0  0  0  0
  187.8410  174.3690  135.7130 C   0  0  0  0  0  2  0  0  0  0  0  0
  185.7400  173.7190  135.8750 C   0  0  0  0  0  1  0  0  0  0  0  0
  186.6380  174.6790  136.3440 O   0  0  0  0  0  0  0  0  0  0  0  0
  185.2790  178.9170  139.1240 O   0  0  0  0  0  0  0  0  0  0  0  0
  184.1760  178.0720  138.9780 C   0  0  0  0  0  2  0  0  0  0  0  0
  183.6370  177.7000  140.3430 C   0  0  0  0  0  2  0  0  0  0  0  0
  183.7070  178.8270  141.2100 O   0  0  0  0  0  0  0  0  0  0  0  0
  183.5670  178.9620  144.9050 C   0  0  0  0  0  3  0  0  0  0  0  0
  184.8470  178.5150  145.2470 C   0  0  0  0  0  0  0  0  0  0  0  0
  185.7600  178.1840  144.2430 C   0  0  0  0  0  3  0  0  0  0  0  0
  183.1870  179.0760  143.5570 C   0  0  0  0  0  0  0  0  0  0  0  0
  185.2420  178.4160  146.6760 C   0  0  0  0  0  1  0  0  0  0  0  0
  184.1020  178.7320  142.5480 C   0  0  0  0  0  0  0  0  0  0  0  0
  185.3900  178.2910  142.8990 C   0  0  0  0  0  3  0  0  0  0  0  0
  181.9100  179.5250  143.1970 O   0  0  0  0  0  0  0  0  0  0  0  0
  180.7760  178.6690  143.1580 C   0  0  0  0  0  1  0  0  0  0  0  0
  1  2  1  0  0  0  0
  1 25  1  0  0  0  0
  2  5  2  0  0  0  0
  3  6  1  0  0  0  0
  3  2  1  0  0  0  0
  4  8  1  1  0  0  0
  5  4  1  0  0  0  0
  6  7  2  0  0  0  0
  7  4  1  0  0  0  0
  8 11  1  0  0  0  0
  8 12  2  0  0  0  0
  9 13  1  0  0  0  0
 10  9  2  0  0  0  0
 11  9  1  0  0  0  0
 12 10  1  0  0  0  0
 13 14  1  0  0  0  0
 14 16  1  0  0  0  0
 16 19  1  0  0  0  0
 16 15  2  0  0  0  0
 18 19  1  0  0  0  0
 19 17  1  0  0  0  0
 20 21  1  0  0  0  0
 20  6  1  0  0  0  0
 22 24  1  0  0  0  0
 22 21  1  0  0  0  0
 23 24  1  0  0  0  0
 26 25  1  0  0  0  0
 26 27  1  0  0  0  0
 27 28  1  0  0  0  0
 28 34  1  0  0  0  0
 29 30  1  0  0  0  0
 30 33  1  0  0  0  0
 31 30  2  0  0  0  0
 32 29  2  0  0  0  0
 34 35  2  0  0  0  0
 34 32  1  0  0  0  0
 35 31  1  0  0  0  0
 36 32  1  0  0  0  0
 37 36  1  0  0  0  0
M  END
>  <MODEL>
1

>  <REMARK>
 VINA RESULT:      -7.7      0.000      0.000
  Name = 
  15 active torsions:
  status: ('A' for Active; 'I' for Inactive)
    1  A    between atoms: N_1  and  O_21
    2  A    between atoms: C_3  and  C_23
    3  A    between atoms: C_3  and  O_37
    4  A    between atoms: C_6  and  C_19
    5  A    between atoms: O_7  and  C_22
    6  A    between atoms: O_7  and  C_31
    7  A    between atoms: C_10  and  C_24
    8  A    between atoms: C_13  and  C_23
    9  A    between atoms: C_13  and  C_32
   10  A    between atoms: C_17  and  O_20
   11  A    between atoms: P_18  and  C_33
   12  A    between atoms: O_21  and  C_35
   13  A    between atoms: C_22  and  C_35
   14  A    between atoms: C_24  and  C_30
   15  A    between atoms: C_30  and  C_33
                            x       y       z     vdW  Elec       q    Type
                         _______ _______ _______ _____ _____    ______ ____

>  <TORSDO>
F 15

$$$$
=
 OpenBabel10232411223D

 37 39  0  0  1  0  0  0  0  0999 V2000
  186.1470  178.2020  138.1390 N   0  0  0  0  0  2  0  0  0  0  0  0
  187.5500  178.1140  138.3830 C   0  0  0  0  0  0  0  0  0  0  0  0
  188.5010  178.0760  137.2160 C   0  0  0  0  0  2  0  0  0  0  0  0
  189.4400  178.0030  139.8890 C   0  0  2  0  0  3  0  0  0  0  0  0
  188.0020  178.0520  139.6040 N   0  0  0  0  0  0  0  0  0  0  0  0
  189.7370  177.2830  137.5590 C   0  0  0  0  0  0  0  0  0  0  0  0
  190.1680  177.2210  138.8280 C   0  0  0  0  0  3  0  0  0  0  0  0
  189.7050  177.4350  141.2460 C   0  0  0  0  0  0  0  0  0  0  0  0
  190.7040  176.6000  143.3550 C   0  0  0  0  0  0  0  0  0  0  0  0
  189.3630  176.2650  143.2280 C   0  0  0  0  0  3  0  0  0  0  0  0
  191.2050  177.4530  142.0000 S   0  0  0  0  0  0  0  0  0  0  0  0
  188.7980  176.7340  142.0340 C   0  0  0  0  0  3  0  0  0  0  0  0
  191.6000  176.1830  144.4740 C   0  0  0  0  0  2  0  0  0  0  0  0
  191.5710  177.2020  145.6090 C   0  0  0  0  0  2  0  0  0  0  0  0
  191.5710  175.8990  147.5720 O   0  0  0  0  0  0  0  0  0  0  0  0
  190.9310  176.6340  146.8390 C   0  0  0  0  0  0  0  0  0  0  0  0
  189.5550  178.2420  148.4310 O   0  0  0  0  0  1  0  0  0  0  0  0
  188.8790  178.1410  145.9620 O   0  0  0  0  0  1  0  0  0  0  0  0
  189.1810  177.0240  147.2540 P   0  0  0  0  0  0  0  0  0  0  0  0
  190.4410  176.5230  136.4840 C   0  0  0  0  0  2  0  0  0  0  0  0
  191.6330  175.7740  137.0480 C   0  0  0  0  0  2  0  0  0  0  0  0
  192.9050  176.3450  136.4580 C   0  0  0  0  0  2  0  0  0  0  0  0
  193.7750  175.0230  137.9930 C   0  0  0  0  0  1  0  0  0  0  0  0
  193.9320  176.2750  137.3960 O   0  0  0  0  0  0  0  0  0  0  0  0
  185.2470  178.1410  139.1500 O   0  0  0  0  0  0  0  0  0  0  0  0
  184.4690  179.2930  139.0110 C   0  0  0  0  0  2  0  0  0  0  0  0
  183.5210  179.4110  140.1870 C   0  0  0  0  0  2  0  0  0  0  0  0
  183.6870  178.2910  141.0500 O   0  0  0  0  0  0  0  0  0  0  0  0
  183.6830  179.0240  144.6780 C   0  0  0  0  0  3  0  0  0  0  0  0
  184.9730  178.6240  145.0420 C   0  0  0  0  0  0  0  0  0  0  0  0
  185.8470  178.1240  144.0730 C   0  0  0  0  0  3  0  0  0  0  0  0
  183.2550  178.9230  143.3430 C   0  0  0  0  0  0  0  0  0  0  0  0
  185.4190  178.7520  146.4530 C   0  0  0  0  0  1  0  0  0  0  0  0
  184.1300  178.4100  142.3720 C   0  0  0  0  0  0  0  0  0  0  0  0
  185.4280  178.0170  142.7430 C   0  0  0  0  0  3  0  0  0  0  0  0
  181.9680  179.3220  142.9600 O   0  0  0  0  0  0  0  0  0  0  0  0
  180.8150  178.5230  143.1890 C   0  0  0  0  0  1  0  0  0  0  0  0
  1  2  1  0  0  0  0
  1 25  1  0  0  0  0
  2  5  2  0  0  0  0
  3  6  1  0  0  0  0
  3  2  1  0  0  0  0
  4  8  1  1  0  0  0
  5  4  1  0  0  0  0
  6  7  2  0  0  0  0
  7  4  1  0  0  0  0
  8 11  1  0  0  0  0
  8 12  2  0  0  0  0
  9 13  1  0  0  0  0
 10  9  2  0  0  0  0
 11  9  1  0  0  0  0
 12 10  1  0  0  0  0
 13 14  1  0  0  0  0
 14 16  1  0  0  0  0
 16 19  1  0  0  0  0
 16 15  2  0  0  0  0
 18 19  1  0  0  0  0
 19 17  1  0  0  0  0
 20 21  1  0  0  0  0
 20  6  1  0  0  0  0
 22 21  1  0  0  0  0
 22 24  1  0  0  0  0
 24 23  1  0  0  0  0
 26 25  1  0  0  0  0
 26 27  1  0  0  0  0
 27 28  1  0  0  0  0
 28 34  1  0  0  0  0
 29 30  1  0  0  0  0
 30 33  1  0  0  0  0
 31 30  2  0  0  0  0
 32 29  2  0  0  0  0
 34 35  2  0  0  0  0
 34 32  1  0  0  0  0
 35 31  1  0  0  0  0
 36 37  1  0  0  0  0
 36 32  1  0  0  0  0
M  END
>  <MODEL>
2

>  <REMARK>
 VINA RESULT:      -7.5      1.642      2.179
  Name = 
  15 active torsions:
  status: ('A' for Active; 'I' for Inactive)
    1  A    between atoms: N_1  and  O_21
    2  A    between atoms: C_3  and  C_23
    3  A    between atoms: C_3  and  O_37
    4  A    between atoms: C_6  and  C_19
    5  A    between atoms: O_7  and  C_22
    6  A    between atoms: O_7  and  C_31
    7  A    between atoms: C_10  and  C_24
    8  A    between atoms: C_13  and  C_23
    9  A    between atoms: C_13  and  C_32
   10  A    between atoms: C_17  and  O_20
   11  A    between atoms: P_18  and  C_33
   12  A    between atoms: O_21  and  C_35
   13  A    between atoms: C_22  and  C_35
   14  A    between atoms: C_24  and  C_30
   15  A    between atoms: C_30  and  C_33
                            x       y       z     vdW  Elec       q    Type
                         _______ _______ _______ _____ _____    ______ ____

>  <TORSDO>
F 15

$$$$
=
 OpenBabel10232411223D

 37 39  0  0  1  0  0  0  0  0999 V2000
  187.4220  178.5130  140.2280 N   0  0  0  0  0  2  0  0  0  0  0  0
  188.6180  177.7760  140.4760 C   0  0  0  0  0  0  0  0  0  0  0  0
  189.1570  177.6950  141.8810 C   0  0  0  0  0  2  0  0  0  0  0  0
  190.4550  176.3930  139.7230 C   0  0  2  0  0  3  0  0  0  0  0  0
  189.2460  177.1910  139.4950 N   0  0  0  0  0  0  0  0  0  0  0  0
  190.6600  177.5710  141.8700 C   0  0  0  0  0  0  0  0  0  0  0  0
  191.2810  176.9820  140.8360 C   0  0  0  0  0  3  0  0  0  0  0  0
  191.2630  176.2610  138.4730 C   0  0  0  0  0  0  0  0  0  0  0  0
  193.0330  176.2530  136.7380 C   0  0  0  0  0  0  0  0  0  0  0  0
  191.7650  176.0420  136.2120 C   0  0  0  0  0  3  0  0  0  0  0  0
  192.9270  176.4680  138.3990 S   0  0  0  0  0  0  0  0  0  0  0  0
  190.7630  176.0500  137.1920 C   0  0  0  0  0  3  0  0  0  0  0  0
  194.2920  176.3740  135.9450 C   0  0  0  0  0  2  0  0  0  0  0  0
  195.0950  175.0780  135.9910 C   0  0  0  0  0  2  0  0  0  0  0  0
  197.1840  176.1650  136.0640 O   0  0  0  0  0  0  0  0  0  0  0  0
  196.4690  175.3030  136.5450 C   0  0  0  0  0  0  0  0  0  0  0  0
  198.3080  175.4200  138.4480 O   0  0  0  0  0  1  0  0  0  0  0  0
  195.9260  174.7670  139.1290 O   0  0  0  0  0  1  0  0  0  0  0  0
  197.0980  174.2840  137.9440 P   0  0  0  0  0  0  0  0  0  0  0  0
  191.4510  178.1590  142.9920 C   0  0  0  0  0  2  0  0  0  0  0  0
  190.5340  178.6520  144.0950 C   0  0  0  0  0  2  0  0  0  0  0  0
  190.7140  177.7810  145.3190 C   0  0  0  0  0  2  0  0  0  0  0  0
  191.8900  176.1880  146.2900 C   0  0  0  0  0  1  0  0  0  0  0  0
  191.6380  176.7740  145.0490 O   0  0  0  0  0  0  0  0  0  0  0  0
  186.9510  178.6960  138.9710 O   0  0  0  0  0  0  0  0  0  0  0  0
  185.6070  178.3210  139.0300 C   0  0  0  0  0  2  0  0  0  0  0  0
  184.8990  179.1320  140.0950 C   0  0  0  0  0  2  0  0  0  0  0  0
  184.2630  178.2570  141.0200 O   0  0  0  0  0  0  0  0  0  0  0  0
  183.6090  178.8180  144.6190 C   0  0  0  0  0  3  0  0  0  0  0  0
  184.8360  178.4540  145.1840 C   0  0  0  0  0  0  0  0  0  0  0  0
  185.8840  178.0370  144.3600 C   0  0  0  0  0  3  0  0  0  0  0  0
  183.4190  178.7620  143.2280 C   0  0  0  0  0  0  0  0  0  0  0  0
  185.0300  178.5340  146.6540 C   0  0  0  0  0  1  0  0  0  0  0  0
  184.4700  178.3320  142.4020 C   0  0  0  0  0  0  0  0  0  0  0  0
  185.7030  177.9750  142.9750 C   0  0  0  0  0  3  0  0  0  0  0  0
  182.1980  179.1260  142.6460 O   0  0  0  0  0  0  0  0  0  0  0  0
  180.9670  179.0900  143.3560 C   0  0  0  0  0  1  0  0  0  0  0  0
  1  2  1  0  0  0  0
  2  3  1  0  0  0  0
  4  8  1  6  0  0  0
  4  7  1  0  0  0  0
  5  4  1  0  0  0  0
  5  2  2  0  0  0  0
  6  3  1  0  0  0  0
  6 20  1  0  0  0  0
  7  6  2  0  0  0  0
  9 11  1  0  0  0  0
 10  9  2  0  0  0  0
 10 12  1  0  0  0  0
 11  8  1  0  0  0  0
 12  8  2  0  0  0  0
 13 14  1  0  0  0  0
 13  9  1  0  0  0  0
 14 16  1  0  0  0  0
 15 16  2  0  0  0  0
 16 19  1  0  0  0  0
 19 17  1  0  0  0  0
 19 18  1  0  0  0  0
 20 21  1  0  0  0  0
 21 22  1  0  0  0  0
 24 22  1  0  0  0  0
 24 23  1  0  0  0  0
 25 26  1  0  0  0  0
 25  1  1  0  0  0  0
 26 27  1  0  0  0  0
 27 28  1  0  0  0  0
 28 34  1  0  0  0  0
 29 30  1  0  0  0  0
 30 33  1  0  0  0  0
 31 30  2  0  0  0  0
 32 29  2  0  0  0  0
 34 35  2  0  0  0  0
 34 32  1  0  0  0  0
 35 31  1  0  0  0  0
 36 32  1  0  0  0  0
 36 37  1  0  0  0  0
M  END
>  <MODEL>
3

>  <REMARK>
 VINA RESULT:      -7.4      4.216      6.737
  Name = 
  15 active torsions:
  status: ('A' for Active; 'I' for Inactive)
    1  A    between atoms: N_1  and  O_21
    2  A    between atoms: C_3  and  C_23
    3  A    between atoms: C_3  and  O_37
    4  A    between atoms: C_6  and  C_19
    5  A    between atoms: O_7  and  C_22
    6  A    between atoms: O_7  and  C_31
    7  A    between atoms: C_10  and  C_24
    8  A    between atoms: C_13  and  C_23
    9  A    between atoms: C_13  and  C_32
   10  A    between atoms: C_17  and  O_20
   11  A    between atoms: P_18  and  C_33
   12  A    between atoms: O_21  and  C_35
   13  A    between atoms: C_22  and  C_35
   14  A    between atoms: C_24  and  C_30
   15  A    between atoms: C_30  and  C_33
                            x       y       z     vdW  Elec       q    Type
                         _______ _______ _______ _____ _____    ______ ____

>  <TORSDO>
F 15

$$$$
=
 OpenBabel10232411223D

 37 39  0  0  1  0  0  0  0  0999 V2000
  189.2410  177.1420  141.7070 N   0  0  0  0  0  2  0  0  0  0  0  0
  189.6350  177.3710  140.3550 C   0  0  0  0  0  0  0  0  0  0  0  0
  188.8690  178.3660  139.5220 C   0  0  0  0  0  2  0  0  0  0  0  0
  191.0900  176.9560  138.4680 C   0  0  2  0  0  3  0  0  0  0  0  0
  190.6360  176.7140  139.8410 N   0  0  0  0  0  0  0  0  0  0  0  0
  188.8900  177.9730  138.0660 C   0  0  0  0  0  0  0  0  0  0  0  0
  189.9260  177.2790  137.5700 C   0  0  0  0  0  3  0  0  0  0  0  0
  191.8640  175.7920  137.9390 C   0  0  0  0  0  0  0  0  0  0  0  0
  193.5960  174.2400  137.0820 C   0  0  0  0  0  0  0  0  0  0  0  0
  192.3080  173.7420  136.9330 C   0  0  0  0  0  3  0  0  0  0  0  0
  193.5360  175.7620  137.7850 S   0  0  0  0  0  0  0  0  0  0  0  0
  191.3280  174.6200  137.4140 C   0  0  0  0  0  3  0  0  0  0  0  0
  194.8440  173.5760  136.6010 C   0  0  0  0  0  2  0  0  0  0  0  0
  195.5730  172.8830  137.7470 C   0  0  0  0  0  2  0  0  0  0  0  0
  196.1300  174.2200  139.6050 O   0  0  0  0  0  0  0  0  0  0  0  0
  196.4530  173.8380  138.4940 C   0  0  0  0  0  0  0  0  0  0  0  0
  197.2730  175.6950  136.7920 O   0  0  0  0  0  1  0  0  0  0  0  0
  198.4930  175.5110  139.0370 O   0  0  0  0  0  1  0  0  0  0  0  0
  198.0190  174.4540  137.7460 P   0  0  0  0  0  0  0  0  0  0  0  0
  187.7230  178.3130  137.1990 C   0  0  0  0  0  2  0  0  0  0  0  0
  186.4220  178.1500  137.9620 C   0  0  0  0  0  2  0  0  0  0  0  0
  185.4370  177.3800  137.1080 C   0  0  0  0  0  2  0  0  0  0  0  0
  184.2650  178.3180  138.7220 C   0  0  0  0  0  1  0  0  0  0  0  0
  184.2040  177.3160  137.7520 O   0  0  0  0  0  0  0  0  0  0  0  0
  189.8350  176.1890  142.4660 O   0  0  0  0  0  0  0  0  0  0  0  0
  190.7250  176.8840  143.2870 C   0  0  0  0  0  2  0  0  0  0  0  0
  189.9520  177.6650  144.3290 C   0  0  0  0  0  2  0  0  0  0  0  0
  188.8500  176.8910  144.7890 O   0  0  0  0  0  0  0  0  0  0  0  0
  185.6900  178.1600  146.2380 C   0  0  0  0  0  3  0  0  0  0  0  0
  184.9550  178.4530  145.0860 C   0  0  0  0  0  0  0  0  0  0  0  0
  185.5100  178.2130  143.8260 C   0  0  0  0  0  3  0  0  0  0  0  0
  186.9880  177.6280  146.1410 C   0  0  0  0  0  0  0  0  0  0  0  0
  183.5780  178.9980  145.2020 C   0  0  0  0  0  1  0  0  0  0  0  0
  187.5490  177.3980  144.8750 C   0  0  0  0  0  0  0  0  0  0  0  0
  186.8020  177.6880  143.7200 C   0  0  0  0  0  3  0  0  0  0  0  0
  187.7360  177.3260  147.2860 O   0  0  0  0  0  0  0  0  0  0  0  0
  188.0410  178.2910  148.2840 C   0  0  0  0  0  1  0  0  0  0  0  0
  1 25  1  0  0  0  0
  2  1  1  0  0  0  0
  3  2  1  0  0  0  0
  4  8  1  6  0  0  0
  4  5  1  0  0  0  0
  5  2  2  0  0  0  0
  6  3  1  0  0  0  0
  7  6  2  0  0  0  0
  7  4  1  0  0  0  0
  9 11  1  0  0  0  0
 10  9  2  0  0  0  0
 10 12  1  0  0  0  0
 11  8  1  0  0  0  0
 12  8  2  0  0  0  0
 13  9  1  0  0  0  0
 13 14  1  0  0  0  0
 14 16  1  0  0  0  0
 16 15  2  0  0  0  0
 17 19  1  0  0  0  0
 19 16  1  0  0  0  0
 19 18  1  0  0  0  0
 20 21  1  0  0  0  0
 20  6  1  0  0  0  0
 22 24  1  0  0  0  0
 22 21  1  0  0  0  0
 24 23  1  0  0  0  0
 25 26  1  0  0  0  0
 26 27  1  0  0  0  0
 27 28  1  0  0  0  0
 28 34  1  0  0  0  0
 30 33  1  0  0  0  0
 30 29  2  0  0  0  0
 31 30  1  0  0  0  0
 32 29  1  0  0  0  0
 32 36  1  0  0  0  0
 34 32  2  0  0  0  0
 35 31  2  0  0  0  0
 35 34  1  0  0  0  0
 36 37  1  0  0  0  0
M  END
>  <MODEL>
4

>  <REMARK>
 VINA RESULT:      -7.1      4.560      6.651
  Name = 
  15 active torsions:
  status: ('A' for Active; 'I' for Inactive)
    1  A    between atoms: N_1  and  O_21
    2  A    between atoms: C_3  and  C_23
    3  A    between atoms: C_3  and  O_37
    4  A    between atoms: C_6  and  C_19
    5  A    between atoms: O_7  and  C_22
    6  A    between atoms: O_7  and  C_31
    7  A    between atoms: C_10  and  C_24
    8  A    between atoms: C_13  and  C_23
    9  A    between atoms: C_13  and  C_32
   10  A    between atoms: C_17  and  O_20
   11  A    between atoms: P_18  and  C_33
   12  A    between atoms: O_21  and  C_35
   13  A    between atoms: C_22  and  C_35
   14  A    between atoms: C_24  and  C_30
   15  A    between atoms: C_30  and  C_33
                            x       y       z     vdW  Elec       q    Type
                         _______ _______ _______ _____ _____    ______ ____

>  <TORSDO>
F 15

$$$$
=
 OpenBabel10232411223D

 37 39  0  0  1  0  0  0  0  0999 V2000
  188.7960  178.1510  141.5220 N   0  0  0  0  0  2  0  0  0  0  0  0
  187.4610  178.4890  141.1510 C   0  0  0  0  0  0  0  0  0  0  0  0
  186.4800  178.9030  142.2170 C   0  0  0  0  0  2  0  0  0  0  0  0
  185.7360  178.8060  139.4830 C   0  0  2  0  0  3  0  0  0  0  0  0
  187.0890  178.4260  139.9020 N   0  0  0  0  0  0  0  0  0  0  0  0
  185.0760  178.5120  141.8310 C   0  0  0  0  0  0  0  0  0  0  0  0
  184.7270  178.4360  140.5370 C   0  0  0  0  0  3  0  0  0  0  0  0
  185.3830  178.1910  138.1680 C   0  0  0  0  0  0  0  0  0  0  0  0
  184.2960  177.0370  136.2620 C   0  0  0  0  0  0  0  0  0  0  0  0
  185.6460  177.2800  136.0430 C   0  0  0  0  0  3  0  0  0  0  0  0
  183.8600  177.5990  137.7820 S   0  0  0  0  0  0  0  0  0  0  0  0
  186.2620  177.9290  137.1220 C   0  0  0  0  0  3  0  0  0  0  0  0
  183.3860  176.2990  135.3370 C   0  0  0  0  0  2  0  0  0  0  0  0
  184.0010  174.9700  134.9090 C   0  0  0  0  0  2  0  0  0  0  0  0
  182.7710  173.8350  136.5670 O   0  0  0  0  0  0  0  0  0  0  0  0
  183.8270  173.9200  135.9630 C   0  0  0  0  0  0  0  0  0  0  0  0
  186.4680  173.9200  136.1680 O   0  0  0  0  0  1  0  0  0  0  0  0
  185.1200  172.9030  138.0950 O   0  0  0  0  0  1  0  0  0  0  0  0
  185.1960  172.7580  136.3680 P   0  0  0  0  0  0  0  0  0  0  0  0
  184.0950  178.1570  142.9000 C   0  0  0  0  0  2  0  0  0  0  0  0
  183.6140  179.4010  143.6230 C   0  0  0  0  0  2  0  0  0  0  0  0
  183.5370  179.1170  145.1070 C   0  0  0  0  0  2  0  0  0  0  0  0
  184.7400  178.3300  146.7790 C   0  0  0  0  0  1  0  0  0  0  0  0
  184.8130  179.1650  145.6620 O   0  0  0  0  0  0  0  0  0  0  0  0
  189.6860  177.6800  140.6160 O   0  0  0  0  0  0  0  0  0  0  0  0
  190.6860  177.0690  141.3740 C   0  0  0  0  0  2  0  0  0  0  0  0
  190.8180  177.7760  142.7070 C   0  0  0  0  0  2  0  0  0  0  0  0
  190.7350  176.8270  143.7640 O   0  0  0  0  0  0  0  0  0  0  0  0
  190.0160  177.0900  147.3850 C   0  0  0  0  0  3  0  0  0  0  0  0
  188.7160  177.6040  147.3720 C   0  0  0  0  0  0  0  0  0  0  0  0
  188.0750  177.8470  146.1550 C   0  0  0  0  0  3  0  0  0  0  0  0
  190.6890  176.8200  146.1800 C   0  0  0  0  0  0  0  0  0  0  0  0
  188.0090  177.8680  148.6520 C   0  0  0  0  0  1  0  0  0  0  0  0
  190.0480  177.0760  144.9570 C   0  0  0  0  0  0  0  0  0  0  0  0
  188.7380  177.5850  144.9510 C   0  0  0  0  0  3  0  0  0  0  0  0
  191.9910  176.3020  146.1750 O   0  0  0  0  0  0  0  0  0  0  0  0
  192.5420  175.5970  147.2800 C   0  0  0  0  0  1  0  0  0  0  0  0
  2  1  1  0  0  0  0
  2  3  1  0  0  0  0
  4  8  1  6  0  0  0
  4  5  1  0  0  0  0
  4  7  1  0  0  0  0
  5  2  2  0  0  0  0
  6  3  1  0  0  0  0
  6 20  1  0  0  0  0
  7  6  2  0  0  0  0
  9 11  1  0  0  0  0
 10  9  2  0  0  0  0
 10 12  1  0  0  0  0
 11  8  1  0  0  0  0
 12  8  2  0  0  0  0
 13  9  1  0  0  0  0
 14 13  1  0  0  0  0
 14 16  1  0  0  0  0
 16 19  1  0  0  0  0
 16 15  2  0  0  0  0
 17 19  1  0  0  0  0
 19 18  1  0  0  0  0
 20 21  1  0  0  0  0
 21 22  1  0  0  0  0
 22 24  1  0  0  0  0
 24 23  1  0  0  0  0
 25 26  1  0  0  0  0
 25  1  1  0  0  0  0
 26 27  1  0  0  0  0
 27 28  1  0  0  0  0
 28 34  1  0  0  0  0
 30 29  1  0  0  0  0
 30 33  1  0  0  0  0
 31 30  2  0  0  0  0
 32 29  2  0  0  0  0
 34 32  1  0  0  0  0
 35 34  2  0  0  0  0
 35 31  1  0  0  0  0
 36 32  1  0  0  0  0
 36 37  1  0  0  0  0
M  END
>  <MODEL>
5

>  <REMARK>
 VINA RESULT:      -7.1      3.437      8.725
  Name = 
  15 active torsions:
  status: ('A' for Active; 'I' for Inactive)
    1  A    between atoms: N_1  and  O_21
    2  A    between atoms: C_3  and  C_23
    3  A    between atoms: C_3  and  O_37
    4  A    between atoms: C_6  and  C_19
    5  A    between atoms: O_7  and  C_22
    6  A    between atoms: O_7  and  C_31
    7  A    between atoms: C_10  and  C_24
    8  A    between atoms: C_13  and  C_23
    9  A    between atoms: C_13  and  C_32
   10  A    between atoms: C_17  and  O_20
   11  A    between atoms: P_18  and  C_33
   12  A    between atoms: O_21  and  C_35
   13  A    between atoms: C_22  and  C_35
   14  A    between atoms: C_24  and  C_30
   15  A    between atoms: C_30  and  C_33
                            x       y       z     vdW  Elec       q    Type
                         _______ _______ _______ _____ _____    ______ ____

>  <TORSDO>
F 15

$$$$
=
 OpenBabel10232411223D

 37 39  0  0  1  0  0  0  0  0999 V2000
  184.9870  179.0090  144.5470 N   0  0  0  0  0  2  0  0  0  0  0  0
  186.1560  178.1920  144.5010 C   0  0  0  0  0  0  0  0  0  0  0  0
  186.7430  177.6690  145.7860 C   0  0  0  0  0  2  0  0  0  0  0  0
  187.8980  177.0450  143.2740 C   0  0  2  0  0  3  0  0  0  0  0  0
  186.7200  177.9140  143.3590 N   0  0  0  0  0  0  0  0  0  0  0  0
  188.2370  177.5040  145.6630 C   0  0  0  0  0  0  0  0  0  0  0  0
  188.7910  177.2380  144.4700 C   0  0  0  0  0  3  0  0  0  0  0  0
  188.6510  177.2750  142.0040 C   0  0  0  0  0  0  0  0  0  0  0  0
  189.3960  177.9000  139.7240 C   0  0  0  0  0  0  0  0  0  0  0  0
  190.2860  177.0480  140.3640 C   0  0  0  0  0  3  0  0  0  0  0  0
  188.0840  178.2020  140.7250 S   0  0  0  0  0  0  0  0  0  0  0  0
  189.8640  176.6910  141.6520 C   0  0  0  0  0  3  0  0  0  0  0  0
  189.5250  178.3950  138.3210 C   0  0  0  0  0  2  0  0  0  0  0  0
  188.7160  177.5320  137.3580 C   0  0  0  0  0  2  0  0  0  0  0  0
  187.4500  179.4460  136.8230 O   0  0  0  0  0  0  0  0  0  0  0  0
  187.4680  178.2300  136.9140 C   0  0  0  0  0  0  0  0  0  0  0  0
  186.4950  175.7850  137.2130 O   0  0  0  0  0  1  0  0  0  0  0  0
  184.9990  177.7540  137.8810 O   0  0  0  0  0  1  0  0  0  0  0  0
  185.9480  177.2730  136.5100 P   0  0  0  0  0  0  0  0  0  0  0  0
  189.0960  177.6960  146.8700 C   0  0  0  0  0  2  0  0  0  0  0  0
  189.9880  176.4890  147.0920 C   0  0  0  0  0  2  0  0  0  0  0  0
  191.4070  176.8390  146.7010 C   0  0  0  0  0  2  0  0  0  0  0  0
  192.6670  175.7050  148.1100 C   0  0  0  0  0  1  0  0  0  0  0  0
  192.2130  175.7070  146.7900 O   0  0  0  0  0  0  0  0  0  0  0  0
  184.4790  179.5820  143.4300 O   0  0  0  0  0  0  0  0  0  0  0  0
  183.4480  178.7320  143.0250 C   0  0  0  0  0  2  0  0  0  0  0  0
  183.5060  178.5430  141.5230 C   0  0  0  0  0  2  0  0  0  0  0  0
  182.2450  178.0830  141.0490 O   0  0  0  0  0  0  0  0  0  0  0  0
  181.4320  177.5410  137.4790 C   0  0  0  0  0  3  0  0  0  0  0  0
  181.7900  176.2000  137.3140 C   0  0  0  0  0  0  0  0  0  0  0  0
  182.2880  175.4740  138.3990 C   0  0  0  0  0  3  0  0  0  0  0  0
  181.5740  178.1700  138.7290 C   0  0  0  0  0  0  0  0  0  0  0  0
  181.6190  175.5430  135.9930 C   0  0  0  0  0  1  0  0  0  0  0  0
  182.0850  177.4420  139.8160 C   0  0  0  0  0  0  0  0  0  0  0  0
  182.4360  176.0910  139.6450 C   0  0  0  0  0  3  0  0  0  0  0  0
  181.2170  179.5120  138.9120 O   0  0  0  0  0  0  0  0  0  0  0  0
  182.0630  180.5910  138.5350 C   0  0  0  0  0  1  0  0  0  0  0  0
  2  1  1  0  0  0  0
  2  3  1  0  0  0  0
  4  8  1  6  0  0  0
  4  5  1  0  0  0  0
  4  7  1  0  0  0  0
  5  2  2  0  0  0  0
  6  3  1  0  0  0  0
  6 20  1  0  0  0  0
  7  6  2  0  0  0  0
  9 10  2  0  0  0  0
  9 11  1  0  0  0  0
 10 12  1  0  0  0  0
 11  8  1  0  0  0  0
 12  8  2  0  0  0  0
 13  9  1  0  0  0  0
 14 13  1  0  0  0  0
 15 16  2  0  0  0  0
 16 14  1  0  0  0  0
 19 16  1  0  0  0  0
 19 17  1  0  0  0  0
 19 18  1  0  0  0  0
 20 21  1  0  0  0  0
 22 24  1  0  0  0  0
 22 21  1  0  0  0  0
 24 23  1  0  0  0  0
 25  1  1  0  0  0  0
 26 25  1  0  0  0  0
 27 26  1  0  0  0  0
 28 27  1  0  0  0  0
 29 32  1  0  0  0  0
 30 29  2  0  0  0  0
 30 31  1  0  0  0  0
 31 35  2  0  0  0  0
 32 36  1  0  0  0  0
 32 34  2  0  0  0  0
 33 30  1  0  0  0  0
 34 28  1  0  0  0  0
 35 34  1  0  0  0  0
 37 36  1  0  0  0  0
M  END
>  <MODEL>
6

>  <REMARK>
 VINA RESULT:      -6.9      3.030      7.795
  Name = 
  15 active torsions:
  status: ('A' for Active; 'I' for Inactive)
    1  A    between atoms: N_1  and  O_21
    2  A    between atoms: C_3  and  C_23
    3  A    between atoms: C_3  and  O_37
    4  A    between atoms: C_6  and  C_19
    5  A    between atoms: O_7  and  C_22
    6  A    between atoms: O_7  and  C_31
    7  A    between atoms: C_10  and  C_24
    8  A    between atoms: C_13  and  C_23
    9  A    between atoms: C_13  and  C_32
   10  A    between atoms: C_17  and  O_20
   11  A    between atoms: P_18  and  C_33
   12  A    between atoms: O_21  and  C_35
   13  A    between atoms: C_22  and  C_35
   14  A    between atoms: C_24  and  C_30
   15  A    between atoms: C_30  and  C_33
                            x       y       z     vdW  Elec       q    Type
                         _______ _______ _______ _____ _____    ______ ____

>  <TORSDO>
F 15

$$$$
=
 OpenBabel10232411223D

 37 39  0  0  1  0  0  0  0  0999 V2000
  185.5330  178.7910  138.1930 N   0  0  0  0  0  2  0  0  0  0  0  0
  184.4090  178.6910  139.0660 C   0  0  0  0  0  0  0  0  0  0  0  0
  183.0220  178.8890  138.5110 C   0  0  0  0  0  2  0  0  0  0  0  0
  183.4460  178.2980  141.2510 C   0  0  2  0  0  3  0  0  0  0  0  0
  184.5820  178.4460  140.3350 N   0  0  0  0  0  0  0  0  0  0  0  0
  182.1060  179.4700  139.5580 C   0  0  0  0  0  0  0  0  0  0  0  0
  182.3210  179.2170  140.8580 C   0  0  0  0  0  3  0  0  0  0  0  0
  183.8570  178.5330  142.6680 C   0  0  0  0  0  0  0  0  0  0  0  0
  185.0440  178.6810  144.8390 C   0  0  0  0  0  0  0  0  0  0  0  0
  183.6850  178.9450  144.9510 C   0  0  0  0  0  3  0  0  0  0  0  0
  185.4210  178.3220  143.2440 S   0  0  0  0  0  0  0  0  0  0  0  0
  183.0130  178.8580  143.7240 C   0  0  0  0  0  3  0  0  0  0  0  0
  186.0120  178.6210  145.9740 C   0  0  0  0  0  2  0  0  0  0  0  0
  187.0830  177.5640  145.7250 C   0  0  0  0  0  2  0  0  0  0  0  0
  189.2870  178.3660  145.5030 O   0  0  0  0  0  0  0  0  0  0  0  0
  188.4130  177.9920  146.2660 C   0  0  0  0  0  0  0  0  0  0  0  0
  188.1000  176.3620  148.3310 O   0  0  0  0  0  1  0  0  0  0  0  0
  190.4030  177.4300  147.9910 O   0  0  0  0  0  1  0  0  0  0  0  0
  188.7500  177.9500  148.0750 P   0  0  0  0  0  0  0  0  0  0  0  0
  180.9940  180.3740  139.1370 C   0  0  0  0  0  2  0  0  0  0  0  0
  181.3050  181.0220  137.8020 C   0  0  0  0  0  2  0  0  0  0  0  0
  180.5130  182.3060  137.6740 C   0  0  0  0  0  2  0  0  0  0  0  0
  181.4140  184.2760  137.2620 C   0  0  0  0  0  1  0  0  0  0  0  0
  181.0380  183.0820  136.6440 O   0  0  0  0  0  0  0  0  0  0  0  0
  186.8020  178.7170  138.6600 O   0  0  0  0  0  0  0  0  0  0  0  0
  187.4350  177.7800  137.8410 C   0  0  0  0  0  2  0  0  0  0  0  0
  188.4720  177.0220  138.6440 C   0  0  0  0  0  2  0  0  0  0  0  0
  188.9320  177.8320  139.7200 O   0  0  0  0  0  0  0  0  0  0  0  0
  191.6120  176.7350  142.0240 C   0  0  0  0  0  3  0  0  0  0  0  0
  190.8680  176.2930  143.1230 C   0  0  0  0  0  0  0  0  0  0  0  0
  189.4730  176.3470  143.0870 C   0  0  0  0  0  3  0  0  0  0  0  0
  190.9660  177.2410  140.8830 C   0  0  0  0  0  0  0  0  0  0  0  0
  191.5620  175.7450  144.3170 C   0  0  0  0  0  1  0  0  0  0  0  0
  189.5640  177.3050  140.8510 C   0  0  0  0  0  0  0  0  0  0  0  0
  188.8220  176.8510  141.9560 C   0  0  0  0  0  3  0  0  0  0  0  0
  191.6960  177.6850  139.7720 O   0  0  0  0  0  0  0  0  0  0  0  0
  192.2930  176.7950  138.8380 C   0  0  0  0  0  1  0  0  0  0  0  0
  1 25  1  0  0  0  0
  1  2  1  0  0  0  0
  2  5  2  0  0  0  0
  3  2  1  0  0  0  0
  3  6  1  0  0  0  0
  4  8  1  1  0  0  0
  5  4  1  0  0  0  0
  6  7  2  0  0  0  0
  7  4  1  0  0  0  0
  8 11  1  0  0  0  0
  8 12  2  0  0  0  0
  9 10  2  0  0  0  0
  9 13  1  0  0  0  0
 11  9  1  0  0  0  0
 12 10  1  0  0  0  0
 14 13  1  0  0  0  0
 14 16  1  0  0  0  0
 15 16  2  0  0  0  0
 16 19  1  0  0  0  0
 18 19  1  0  0  0  0
 19 17  1  0  0  0  0
 20  6  1  0  0  0  0
 21 20  1  0  0  0  0
 22 21  1  0  0  0  0
 24 23  1  0  0  0  0
 24 22  1  0  0  0  0
 26 27  1  0  0  0  0
 26 25  1  0  0  0  0
 27 28  1  0  0  0  0
 28 34  1  0  0  0  0
 29 30  1  0  0  0  0
 30 33  1  0  0  0  0
 31 30  2  0  0  0  0
 32 29  2  0  0  0  0
 34 32  1  0  0  0  0
 34 35  2  0  0  0  0
 35 31  1  0  0  0  0
 36 32  1  0  0  0  0
 37 36  1  0  0  0  0
M  END
>  <MODEL>
7

>  <REMARK>
 VINA RESULT:      -6.9      2.908      6.810
  Name = 
  15 active torsions:
  status: ('A' for Active; 'I' for Inactive)
    1  A    between atoms: N_1  and  O_21
    2  A    between atoms: C_3  and  C_23
    3  A    between atoms: C_3  and  O_37
    4  A    between atoms: C_6  and  C_19
    5  A    between atoms: O_7  and  C_22
    6  A    between atoms: O_7  and  C_31
    7  A    between atoms: C_10  and  C_24
    8  A    between atoms: C_13  and  C_23
    9  A    between atoms: C_13  and  C_32
   10  A    between atoms: C_17  and  O_20
   11  A    between atoms: P_18  and  C_33
   12  A    between atoms: O_21  and  C_35
   13  A    between atoms: C_22  and  C_35
   14  A    between atoms: C_24  and  C_30
   15  A    between atoms: C_30  and  C_33
                            x       y       z     vdW  Elec       q    Type
                         _______ _______ _______ _____ _____    ______ ____

>  <TORSDO>
F 15

$$$$
=
 OpenBabel10232411223D

 37 39  0  0  1  0  0  0  0  0999 V2000
  189.6270  176.7030  141.7320 N   0  0  0  0  0  2  0  0  0  0  0  0
  189.9630  177.0300  140.3850 C   0  0  0  0  0  0  0  0  0  0  0  0
  189.2410  178.1590  139.6960 C   0  0  0  0  0  2  0  0  0  0  0  0
  191.2720  176.6850  138.3790 C   0  0  2  0  0  3  0  0  0  0  0  0
  190.8760  176.3490  139.7500 N   0  0  0  0  0  0  0  0  0  0  0  0
  189.1480  177.9080  138.2120 C   0  0  0  0  0  0  0  0  0  0  0  0
  190.0920  177.1850  137.5900 C   0  0  0  0  0  3  0  0  0  0  0  0
  191.9140  175.5200  137.6980 C   0  0  0  0  0  0  0  0  0  0  0  0
  192.4250  173.3950  136.5280 C   0  0  0  0  0  0  0  0  0  0  0  0
  193.5610  174.0200  137.0260 C   0  0  0  0  0  3  0  0  0  0  0  0
  191.0660  174.3000  136.9170 S   0  0  0  0  0  0  0  0  0  0  0  0
  193.2720  175.2200  137.6910 C   0  0  0  0  0  3  0  0  0  0  0  0
  192.3940  172.0710  135.8400 C   0  0  0  0  0  2  0  0  0  0  0  0
  193.8040  171.5930  135.5080 C   0  0  0  0  0  2  0  0  0  0  0  0
  193.5910  169.5230  136.6130 O   0  0  0  0  0  0  0  0  0  0  0  0
  194.2610  170.5300  136.4600 C   0  0  0  0  0  0  0  0  0  0  0  0
  195.0710  171.3910  138.8300 O   0  0  0  0  0  1  0  0  0  0  0  0
  195.9260  169.1120  138.0330 O   0  0  0  0  0  1  0  0  0  0  0  0
  195.8230  170.7300  137.4140 P   0  0  0  0  0  0  0  0  0  0  0  0
  187.9680  178.4220  137.4550 C   0  0  0  0  0  2  0  0  0  0  0  0
  186.9880  177.3020  137.1610 C   0  0  0  0  0  2  0  0  0  0  0  0
  185.6570  177.6220  137.8050 C   0  0  0  0  0  2  0  0  0  0  0  0
  184.6750  178.7650  139.4150 C   0  0  0  0  0  1  0  0  0  0  0  0
  185.7600  178.8030  138.5370 O   0  0  0  0  0  0  0  0  0  0  0  0
  190.1790  175.6380  142.3610 O   0  0  0  0  0  0  0  0  0  0  0  0
  190.7830  176.1650  143.5040 C   0  0  0  0  0  2  0  0  0  0  0  0
  190.0070  177.3780  143.9760 C   0  0  0  0  0  2  0  0  0  0  0  0
  189.0890  176.9930  144.9930 O   0  0  0  0  0  0  0  0  0  0  0  0
  185.8400  178.1400  146.3450 C   0  0  0  0  0  3  0  0  0  0  0  0
  185.1360  178.4210  145.1700 C   0  0  0  0  0  0  0  0  0  0  0  0
  185.7410  178.2140  143.9280 C   0  0  0  0  0  3  0  0  0  0  0  0
  187.1580  177.6540  146.2870 C   0  0  0  0  0  0  0  0  0  0  0  0
  183.7380  178.9190  145.2440 C   0  0  0  0  0  1  0  0  0  0  0  0
  187.7690  177.4550  145.0390 C   0  0  0  0  0  0  0  0  0  0  0  0
  187.0520  177.7330  143.8620 C   0  0  0  0  0  3  0  0  0  0  0  0
  187.8770  177.3630  147.4540 O   0  0  0  0  0  0  0  0  0  0  0  0
  188.4680  178.3710  148.2640 C   0  0  0  0  0  1  0  0  0  0  0  0
  1 25  1  0  0  0  0
  2  1  1  0  0  0  0
  3  2  1  0  0  0  0
  4  8  1  6  0  0  0
  4  5  1  0  0  0  0
  5  2  2  0  0  0  0
  6  3  1  0  0  0  0
  7  6  2  0  0  0  0
  7  4  1  0  0  0  0
  9 11  1  0  0  0  0
  9 10  2  0  0  0  0
 10 12  1  0  0  0  0
 11  8  1  0  0  0  0
 12  8  2  0  0  0  0
 13  9  1  0  0  0  0
 14 13  1  0  0  0  0
 14 16  1  0  0  0  0
 16 15  2  0  0  0  0
 16 19  1  0  0  0  0
 19 18  1  0  0  0  0
 19 17  1  0  0  0  0
 20  6  1  0  0  0  0
 21 20  1  0  0  0  0
 21 22  1  0  0  0  0
 22 24  1  0  0  0  0
 24 23  1  0  0  0  0
 25 26  1  0  0  0  0
 26 27  1  0  0  0  0
 27 28  1  0  0  0  0
 28 34  1  0  0  0  0
 30 33  1  0  0  0  0
 30 29  2  0  0  0  0
 31 30  1  0  0  0  0
 32 29  1  0  0  0  0
 32 36  1  0  0  0  0
 34 32  2  0  0  0  0
 35 31  2  0  0  0  0
 35 34  1  0  0  0  0
 36 37  1  0  0  0  0
M  END
>  <MODEL>
8

>  <REMARK>
 VINA RESULT:      -6.8      4.449      7.203
  Name = 
  15 active torsions:
  status: ('A' for Active; 'I' for Inactive)
    1  A    between atoms: N_1  and  O_21
    2  A    between atoms: C_3  and  C_23
    3  A    between atoms: C_3  and  O_37
    4  A    between atoms: C_6  and  C_19
    5  A    between atoms: O_7  and  C_22
    6  A    between atoms: O_7  and  C_31
    7  A    between atoms: C_10  and  C_24
    8  A    between atoms: C_13  and  C_23
    9  A    between atoms: C_13  and  C_32
   10  A    between atoms: C_17  and  O_20
   11  A    between atoms: P_18  and  C_33
   12  A    between atoms: O_21  and  C_35
   13  A    between atoms: C_22  and  C_35
   14  A    between atoms: C_24  and  C_30
   15  A    between atoms: C_30  and  C_33
                            x       y       z     vdW  Elec       q    Type
                         _______ _______ _______ _____ _____    ______ ____

>  <TORSDO>
F 15

$$$$
=
 OpenBabel10232411223D

 37 39  0  0  1  0  0  0  0  0999 V2000
  184.8900  179.1620  140.1950 N   0  0  0  0  0  2  0  0  0  0  0  0
  185.2260  178.5270  138.9620 C   0  0  0  0  0  0  0  0  0  0  0  0
  184.1250  177.9960  138.0810 C   0  0  0  0  0  2  0  0  0  0  0  0
  186.8500  177.7810  137.3320 C   0  0  2  0  0  3  0  0  0  0  0  0
  186.4740  178.3930  138.6100 N   0  0  0  0  0  0  0  0  0  0  0  0
  184.5990  176.7980  137.2980 C   0  0  0  0  0  0  0  0  0  0  0  0
  185.8930  176.6770  136.9660 C   0  0  0  0  0  3  0  0  0  0  0  0
  188.2570  177.2780  137.3640 C   0  0  0  0  0  0  0  0  0  0  0  0
  190.3300  175.9290  137.5280 C   0  0  0  0  0  0  0  0  0  0  0  0
  190.5780  177.2950  137.5170 C   0  0  0  0  0  3  0  0  0  0  0  0
  188.6770  175.6540  137.4480 S   0  0  0  0  0  0  0  0  0  0  0  0
  189.4060  178.0590  137.4270 C   0  0  0  0  0  3  0  0  0  0  0  0
  191.3610  174.8620  137.6900 C   0  0  0  0  0  2  0  0  0  0  0  0
  192.3300  174.8530  136.5120 C   0  0  0  0  0  2  0  0  0  0  0  0
  193.8950  175.6940  138.0600 O   0  0  0  0  0  0  0  0  0  0  0  0
  193.6630  175.4190  136.8950 C   0  0  0  0  0  0  0  0  0  0  0  0
  195.0100  177.4380  135.8340 O   0  0  0  0  0  1  0  0  0  0  0  0
  196.3420  175.3960  136.6190 O   0  0  0  0  0  1  0  0  0  0  0  0
  194.9590  175.7170  135.6220 P   0  0  0  0  0  0  0  0  0  0  0  0
  183.6250  175.7220  136.9440 C   0  0  0  0  0  2  0  0  0  0  0  0
  184.3490  174.4690  136.4920 C   0  0  0  0  0  2  0  0  0  0  0  0
  183.4220  173.2800  136.6280 C   0  0  0  0  0  2  0  0  0  0  0  0
  185.2940  172.8100  137.6930 C   0  0  0  0  0  1  0  0  0  0  0  0
  184.0560  172.2680  137.3440 O   0  0  0  0  0  0  0  0  0  0  0  0
  185.8450  179.5690  141.0660 O   0  0  0  0  0  0  0  0  0  0  0  0
  185.9390  178.5400  142.0050 C   0  0  0  0  0  2  0  0  0  0  0  0
  187.3940  178.1690  142.2080 C   0  0  0  0  0  2  0  0  0  0  0  0
  187.4900  177.1100  143.1550 O   0  0  0  0  0  0  0  0  0  0  0  0
  189.3530  177.4680  146.3320 C   0  0  0  0  0  3  0  0  0  0  0  0
  188.3240  177.7940  147.2210 C   0  0  0  0  0  0  0  0  0  0  0  0
  187.0080  177.8800  146.7610 C   0  0  0  0  0  3  0  0  0  0  0  0
  189.0750  177.2290  144.9750 C   0  0  0  0  0  0  0  0  0  0  0  0
  188.6280  178.0270  148.6570 C   0  0  0  0  0  1  0  0  0  0  0  0
  187.7530  177.3260  144.5120 C   0  0  0  0  0  0  0  0  0  0  0  0
  186.7220  177.6470  145.4120 C   0  0  0  0  0  3  0  0  0  0  0  0
  190.0940  176.8980  144.0730 O   0  0  0  0  0  0  0  0  0  0  0  0
  191.2440  177.7110  143.8780 C   0  0  0  0  0  1  0  0  0  0  0  0
  1 25  1  0  0  0  0
  2  1  1  0  0  0  0
  3  2  1  0  0  0  0
  4  8  1  1  0  0  0
  4  5  1  0  0  0  0
  5  2  2  0  0  0  0
  6  3  1  0  0  0  0
  7  6  2  0  0  0  0
  7  4  1  0  0  0  0
  8 12  2  0  0  0  0
  8 11  1  0  0  0  0
  9 13  1  0  0  0  0
 10  9  2  0  0  0  0
 11  9  1  0  0  0  0
 12 10  1  0  0  0  0
 14 16  1  0  0  0  0
 14 13  1  0  0  0  0
 16 15  2  0  0  0  0
 19 17  1  0  0  0  0
 19 18  1  0  0  0  0
 19 16  1  0  0  0  0
 20  6  1  0  0  0  0
 21 22  1  0  0  0  0
 21 20  1  0  0  0  0
 22 24  1  0  0  0  0
 24 23  1  0  0  0  0
 25 26  1  0  0  0  0
 26 27  1  0  0  0  0
 27 28  1  0  0  0  0
 28 34  1  0  0  0  0
 29 30  1  0  0  0  0
 30 33  1  0  0  0  0
 31 30  2  0  0  0  0
 32 29  2  0  0  0  0
 34 32  1  0  0  0  0
 34 35  2  0  0  0  0
 35 31  1  0  0  0  0
 36 32  1  0  0  0  0
 37 36  1  0  0  0  0
M  END
>  <MODEL>
9

>  <REMARK>
 VINA RESULT:      -6.8      3.972      6.488
  Name = 
  15 active torsions:
  status: ('A' for Active; 'I' for Inactive)
    1  A    between atoms: N_1  and  O_21
    2  A    between atoms: C_3  and  C_23
    3  A    between atoms: C_3  and  O_37
    4  A    between atoms: C_6  and  C_19
    5  A    between atoms: O_7  and  C_22
    6  A    between atoms: O_7  and  C_31
    7  A    between atoms: C_10  and  C_24
    8  A    between atoms: C_13  and  C_23
    9  A    between atoms: C_13  and  C_32
   10  A    between atoms: C_17  and  O_20
   11  A    between atoms: P_18  and  C_33
   12  A    between atoms: O_21  and  C_35
   13  A    between atoms: C_22  and  C_35
   14  A    between atoms: C_24  and  C_30
   15  A    between atoms: C_30  and  C_33
                            x       y       z     vdW  Elec       q    Type
                         _______ _______ _______ _____ _____    ______ ____

>  <TORSDO>
F 15

$$$$
