=
 OpenBabel10232408433D

 30 33  0  0  1  0  0  0  0  0999 V2000
  185.6120  180.3800  142.3270 O   0  0  0  0  0  0  0  0  0  0  0  0
  185.5980  178.2140  146.5660 C   0  0  0  0  0  3  0  0  0  0  0  0
  187.5870  177.5560  147.7030 F   0  0  0  0  0  0  0  0  0  0  0  0
  184.8970  178.3910  145.3700 C   0  0  0  0  0  3  0  0  0  0  0  0
  186.5440  178.4740  139.9130 N   0  0  0  0  0  2  0  0  0  0  0  0
  186.9070  177.7230  146.5440 C   0  0  0  0  0  0  0  0  0  0  0  0
  188.6870  177.5810  139.9210 O   0  0  0  0  0  0  0  0  0  0  0  0
  187.9400  178.3340  142.0620 C   0  0  1  0  0  3  0  0  0  0  0  0
  186.8120  177.5590  144.1260 C   0  0  0  0  0  0  0  0  0  0  0  0
  185.1960  179.2460  141.9630 C   0  0  0  0  0  0  0  0  0  0  0  0
  187.7590  178.1130  140.5880 C   0  0  0  0  0  0  0  0  0  0  0  0
  187.5080  177.3890  145.3280 C   0  0  0  0  0  3  0  0  0  0  0  0
  184.0740  178.1110  140.0470 N   0  0  0  0  0  0  0  0  0  0  0  0
  187.4600  177.1260  142.8470 C   0  0  0  0  0  2  0  0  0  0  0  0
  185.5020  178.0850  144.1470 C   0  0  0  0  0  0  0  0  0  0  0  0
  184.3220  179.5060  139.6240 C   0  0  0  0  0  2  0  0  0  0  0  0
  185.2620  178.8590  140.5240 C   0  0  2  0  0  0  0  0  0  0  0  0
  184.7710  178.2900  142.9350 N   0  0  0  0  0  2  0  0  0  0  0  0
  184.3680  177.2780  138.8860 C   0  0  0  0  0  2  0  0  0  0  0  0
  183.0900  176.9760  138.1220 C   0  0  0  0  0  2  0  0  0  0  0  0
  182.7620  174.6300  137.8630 O   0  0  0  0  0  0  0  0  0  0  0  0
  182.5250  175.6630  138.5410 C   0  0  0  0  0  0  0  0  0  0  0  0
  181.7090  175.5820  139.6610 O   0  0  0  0  0  1  0  0  0  0  0  0
  189.3290  178.6320  142.3940 N   0  0  0  0  0  2  0  0  0  0  0  0
  191.2600  175.6730  143.4550 N   0  0  0  0  0  0  0  0  0  0  0  0
  191.3960  177.2910  145.2070 C   0  0  0  0  0  3  0  0  0  0  0  0
  190.6030  178.1600  144.4540 C   0  0  0  0  0  3  0  0  0  0  0  0
  190.4900  176.5060  142.7050 C   0  0  0  0  0  3  0  0  0  0  0  0
  190.1450  177.7700  143.1900 C   0  0  0  0  0  0  0  0  0  0  0  0
  191.7180  176.0370  144.6840 C   0  0  0  0  0  3  0  0  0  0  0  0
  4  2  2  0  0  0  0
  5 17  1  0  0  0  0
  5 11  1  0  0  0  0
  6  2  1  0  0  0  0
  6  3  1  0  0  0  0
  7 11  2  0  0  0  0
  8 24  1  6  0  0  0
  8 14  1  0  0  0  0
  9 15  2  0  0  0  0
  9 12  1  0  0  0  0
 10  1  2  0  0  0  0
 10 18  1  0  0  0  0
 11  8  1  0  0  0  0
 12  6  2  0  0  0  0
 13 17  1  0  0  0  0
 14  9  1  0  0  0  0
 15  4  1  0  0  0  0
 16 13  1  0  0  0  0
 17 16  1  6  0  0  0
 17 10  1  0  0  0  0
 18 15  1  0  0  0  0
 19 13  1  0  0  0  0
 20 22  1  0  0  0  0
 20 19  1  0  0  0  0
 21 22  2  0  0  0  0
 22 23  1  0  0  0  0
 24 29  1  0  0  0  0
 25 30  1  0  0  0  0
 27 26  1  0  0  0  0
 28 29  1  0  0  0  0
 28 25  2  0  0  0  0
 29 27  2  0  0  0  0
 30 26  2  0  0  0  0
M  END
>  <MODEL>
1

>  <REMARK>
 VINA RESULT:      -8.2      0.000      0.000
  Name = 
  5 active torsions:
  status: ('A' for Active; 'I' for Inactive)
    1  A    between atoms: C_4  and  C_5
    2  A    between atoms: C_4  and  N_21
    3  A    between atoms: C_5  and  C_15
    4  A    between atoms: C_11  and  N_30
    5  A    between atoms: C_27  and  N_30
                            x       y       z     vdW  Elec       q    Type
                         _______ _______ _______ _____ _____    ______ ____

>  <TORSDO>
F 5

$$$$
=
 OpenBabel10232408433D

 30 33  0  0  1  0  0  0  0  0999 V2000
  188.0010  179.8450  141.0940 O   0  0  0  0  0  0  0  0  0  0  0  0
  184.7850  178.4870  144.3300 C   0  0  0  0  0  3  0  0  0  0  0  0
  185.2950  178.2100  146.6430 F   0  0  0  0  0  0  0  0  0  0  0  0
  185.1720  178.3870  142.9910 C   0  0  0  0  0  3  0  0  0  0  0  0
  190.2380  177.6160  140.4920 N   0  0  0  0  0  2  0  0  0  0  0  0
  185.6690  178.1090  145.3450 C   0  0  0  0  0  0  0  0  0  0  0  0
  191.6470  176.9180  142.1990 O   0  0  0  0  0  0  0  0  0  0  0  0
  189.6490  177.9820  142.9630 C   0  0  1  0  0  3  0  0  0  0  0  0
  187.3280  177.5030  143.6820 C   0  0  0  0  0  0  0  0  0  0  0  0
  187.8900  178.6340  140.7600 C   0  0  0  0  0  0  0  0  0  0  0  0
  190.5660  177.4840  141.8830 C   0  0  0  0  0  0  0  0  0  0  0  0
  186.9340  177.6100  145.0210 C   0  0  0  0  0  3  0  0  0  0  0  0
  188.4050  177.0830  138.8760 N   0  0  0  0  0  0  0  0  0  0  0  0
  188.6620  176.9010  143.3680 C   0  0  0  0  0  2  0  0  0  0  0  0
  186.4460  177.9150  142.6600 C   0  0  0  0  0  0  0  0  0  0  0  0
  188.9850  178.3940  138.5140 C   0  0  0  0  0  2  0  0  0  0  0  0
  188.9400  178.0000  139.9110 C   0  0  2  0  0  0  0  0  0  0  0  0
  186.8260  177.8370  141.2840 N   0  0  0  0  0  2  0  0  0  0  0  0
  189.3800  176.0810  138.4610 C   0  0  0  0  0  2  0  0  0  0  0  0
  188.9100  175.3890  137.1910 C   0  0  0  0  0  2  0  0  0  0  0  0
  190.7160  173.8980  137.6330 O   0  0  0  0  0  1  0  0  0  0  0  0
  189.6770  174.1330  136.9620 C   0  0  0  0  0  0  0  0  0  0  0  0
  189.2670  173.2360  135.9860 O   0  0  0  0  0  0  0  0  0  0  0  0
  190.3930  178.4480  144.1270 N   0  0  0  0  0  2  0  0  0  0  0  0
  191.9890  175.9650  146.3430 N   0  0  0  0  0  0  0  0  0  0  0  0
  190.1000  176.8600  147.5010 C   0  0  0  0  0  3  0  0  0  0  0  0
  189.8240  177.6760  146.4020 C   0  0  0  0  0  3  0  0  0  0  0  0
  191.7380  176.7550  145.2640 C   0  0  0  0  0  3  0  0  0  0  0  0
  190.6480  177.6290  145.2710 C   0  0  0  0  0  0  0  0  0  0  0  0
  191.2000  176.0010  147.4510 C   0  0  0  0  0  3  0  0  0  0  0  0
  2  6  1  0  0  0  0
  4  2  2  0  0  0  0
  5 11  1  0  0  0  0
  6  3  1  0  0  0  0
  8 14  1  0  0  0  0
  8 24  1  1  0  0  0
  9 12  1  0  0  0  0
 10  1  2  0  0  0  0
 10 18  1  0  0  0  0
 11  7  2  0  0  0  0
 11  8  1  0  0  0  0
 12  6  2  0  0  0  0
 13 17  1  0  0  0  0
 14  9  1  0  0  0  0
 15  4  1  0  0  0  0
 15  9  2  0  0  0  0
 16 13  1  0  0  0  0
 17 16  1  6  0  0  0
 17  5  1  0  0  0  0
 17 10  1  0  0  0  0
 18 15  1  0  0  0  0
 19 13  1  0  0  0  0
 20 19  1  0  0  0  0
 22 20  1  0  0  0  0
 22 21  1  0  0  0  0
 23 22  2  0  0  0  0
 24 29  1  0  0  0  0
 25 30  1  0  0  0  0
 27 26  1  0  0  0  0
 28 29  1  0  0  0  0
 28 25  2  0  0  0  0
 29 27  2  0  0  0  0
 30 26  2  0  0  0  0
M  END
>  <MODEL>
2

>  <REMARK>
 VINA RESULT:      -8.2      3.041      3.914
  Name = 
  5 active torsions:
  status: ('A' for Active; 'I' for Inactive)
    1  A    between atoms: C_4  and  C_5
    2  A    between atoms: C_4  and  N_21
    3  A    between atoms: C_5  and  C_15
    4  A    between atoms: C_11  and  N_30
    5  A    between atoms: C_27  and  N_30
                            x       y       z     vdW  Elec       q    Type
                         _______ _______ _______ _____ _____    ______ ____

>  <TORSDO>
F 5

$$$$
=
 OpenBabel10232408433D

 30 33  0  0  1  0  0  0  0  0999 V2000
  192.2050  176.2720  134.3540 O   0  0  0  0  0  0  0  0  0  0  0  0
  189.1590  172.6490  134.8530 C   0  0  0  0  0  3  0  0  0  0  0  0
  187.4380  172.6060  136.5020 F   0  0  0  0  0  0  0  0  0  0  0  0
  190.4550  173.0090  134.4730 C   0  0  0  0  0  3  0  0  0  0  0  0
  194.3050  176.5280  136.7730 N   0  0  0  0  0  2  0  0  0  0  0  0
  188.6950  172.9520  136.1360 C   0  0  0  0  0  0  0  0  0  0  0  0
  193.5310  176.9390  138.9230 O   0  0  0  0  0  0  0  0  0  0  0  0
  191.8690  176.0760  137.4400 C   0  0  1  0  0  3  0  0  0  0  0  0
  190.8340  173.9580  136.6780 C   0  0  0  0  0  0  0  0  0  0  0  0
  192.9930  175.4250  134.8540 C   0  0  0  0  0  0  0  0  0  0  0  0
  193.2600  176.5400  137.7580 C   0  0  0  0  0  0  0  0  0  0  0  0
  189.5340  173.5970  137.0480 C   0  0  0  0  0  3  0  0  0  0  0  0
  195.4280  174.9790  135.1620 N   0  0  0  0  0  0  0  0  0  0  0  0
  191.7290  174.5860  137.7010 C   0  0  0  0  0  2  0  0  0  0  0  0
  191.2910  173.6800  135.3710 C   0  0  0  0  0  0  0  0  0  0  0  0
  195.3190  176.3140  134.5350 C   0  0  0  0  0  2  0  0  0  0  0  0
  194.2830  175.8750  135.4540 C   0  0  2  0  0  0  0  0  0  0  0  0
  192.6060  174.0530  134.9550 N   0  0  0  0  0  2  0  0  0  0  0  0
  196.4880  175.0860  136.1590 C   0  0  0  0  0  2  0  0  0  0  0  0
  196.6260  173.7760  136.9160 C   0  0  0  0  0  2  0  0  0  0  0  0
  196.4930  174.9490  138.9860 O   0  0  0  0  0  1  0  0  0  0  0  0
  196.1630  173.9310  138.3240 C   0  0  0  0  0  0  0  0  0  0  0  0
  195.3970  172.9390  138.9180 O   0  0  0  0  0  0  0  0  0  0  0  0
  190.8680  176.8170  138.2000 N   0  0  0  0  0  2  0  0  0  0  0  0
  187.7640  178.7760  137.8240 N   0  0  0  0  0  0  0  0  0  0  0  0
  188.2980  177.8490  135.6870 C   0  0  0  0  0  3  0  0  0  0  0  0
  189.4290  177.2470  136.2410 C   0  0  0  0  0  3  0  0  0  0  0  0
  188.8620  178.1990  138.3810 C   0  0  0  0  0  3  0  0  0  0  0  0
  189.7210  177.4220  137.5990 C   0  0  0  0  0  0  0  0  0  0  0  0
  187.4680  178.6190  136.5050 C   0  0  0  0  0  3  0  0  0  0  0  0
  1 10  2  0  0  0  0
  2  6  1  0  0  0  0
  4  2  2  0  0  0  0
  4 15  1  0  0  0  0
  5 11  1  0  0  0  0
  6  3  1  0  0  0  0
  6 12  2  0  0  0  0
  8 14  1  0  0  0  0
  8 11  1  0  0  0  0
  8 24  1  1  0  0  0
  9 12  1  0  0  0  0
  9 14  1  0  0  0  0
 10 18  1  0  0  0  0
 10 17  1  0  0  0  0
 11  7  2  0  0  0  0
 13 17  1  0  0  0  0
 13 19  1  0  0  0  0
 15  9  2  0  0  0  0
 16 13  1  0  0  0  0
 17 16  1  6  0  0  0
 17  5  1  0  0  0  0
 18 15  1  0  0  0  0
 19 20  1  0  0  0  0
 20 22  1  0  0  0  0
 22 23  2  0  0  0  0
 22 21  1  0  0  0  0
 25 28  1  0  0  0  0
 26 27  2  0  0  0  0
 26 30  1  0  0  0  0
 27 29  1  0  0  0  0
 29 24  1  0  0  0  0
 29 28  2  0  0  0  0
 30 25  2  0  0  0  0
M  END
>  <MODEL>
3

>  <REMARK>
 VINA RESULT:      -6.8      7.153     10.534
  Name = 
  5 active torsions:
  status: ('A' for Active; 'I' for Inactive)
    1  A    between atoms: C_4  and  C_5
    2  A    between atoms: C_4  and  N_21
    3  A    between atoms: C_5  and  C_15
    4  A    between atoms: C_11  and  N_30
    5  A    between atoms: C_27  and  N_30
                            x       y       z     vdW  Elec       q    Type
                         _______ _______ _______ _____ _____    ______ ____

>  <TORSDO>
F 5

$$$$
=
 OpenBabel10232408433D

 30 33  0  0  1  0  0  0  0  0999 V2000
  188.6130  179.6800  142.0950 O   0  0  0  0  0  0  0  0  0  0  0  0
  184.7410  179.0460  144.7890 C   0  0  0  0  0  3  0  0  0  0  0  0
  184.8150  178.1330  146.9900 F   0  0  0  0  0  0  0  0  0  0  0  0
  185.2300  179.0770  143.4810 C   0  0  0  0  0  3  0  0  0  0  0  0
  189.9340  176.9330  141.0760 N   0  0  0  0  0  2  0  0  0  0  0  0
  185.2880  178.1590  145.7210 C   0  0  0  0  0  0  0  0  0  0  0  0
  190.7590  175.4160  142.6260 O   0  0  0  0  0  0  0  0  0  0  0  0
  189.2120  176.9900  143.5380 C   0  0  1  0  0  3  0  0  0  0  0  0
  186.8060  177.3100  144.0310 C   0  0  0  0  0  0  0  0  0  0  0  0
  188.1090  178.7010  141.4810 C   0  0  0  0  0  0  0  0  0  0  0  0
  190.0110  176.4060  142.4090 C   0  0  0  0  0  0  0  0  0  0  0  0
  186.3120  177.2880  145.3400 C   0  0  0  0  0  3  0  0  0  0  0  0
  188.2540  177.4860  139.3070 N   0  0  0  0  0  0  0  0  0  0  0  0
  187.8550  176.3160  143.6380 C   0  0  0  0  0  2  0  0  0  0  0  0
  186.2730  178.2280  143.0990 C   0  0  0  0  0  0  0  0  0  0  0  0
  189.3160  178.5160  139.2870 C   0  0  0  0  0  2  0  0  0  0  0  0
  188.9520  177.8950  140.5500 C   0  0  2  0  0  0  0  0  0  0  0  0
  186.7700  178.2880  141.7600 N   0  0  0  0  0  2  0  0  0  0  0  0
  188.8380  176.2910  138.7080 C   0  0  0  0  0  2  0  0  0  0  0  0
  188.8210  176.4060  137.1920 C   0  0  0  0  0  2  0  0  0  0  0  0
  186.5650  175.7770  136.7540 O   0  0  0  0  0  1  0  0  0  0  0  0
  187.4410  176.6790  136.7020 C   0  0  0  0  0  0  0  0  0  0  0  0
  187.1280  177.9160  136.1570 O   0  0  0  0  0  0  0  0  0  0  0  0
  189.9210  176.8870  144.8080 N   0  0  0  0  0  2  0  0  0  0  0  0
  188.5650  176.6870  148.2340 N   0  0  0  0  0  0  0  0  0  0  0  0
  188.4530  178.9720  147.5440 C   0  0  0  0  0  3  0  0  0  0  0  0
  189.0120  178.6190  146.3140 C   0  0  0  0  0  3  0  0  0  0  0  0
  189.1140  176.3240  147.0440 C   0  0  0  0  0  3  0  0  0  0  0  0
  189.3500  177.2850  146.0570 C   0  0  0  0  0  0  0  0  0  0  0  0
  188.2340  177.9800  148.5020 C   0  0  0  0  0  3  0  0  0  0  0  0
  2  6  1  0  0  0  0
  4  2  2  0  0  0  0
  5 11  1  0  0  0  0
  6  3  1  0  0  0  0
  8 14  1  0  0  0  0
  8 24  1  1  0  0  0
  9 12  1  0  0  0  0
 10 18  1  0  0  0  0
 10  1  2  0  0  0  0
 11  7  2  0  0  0  0
 11  8  1  0  0  0  0
 12  6  2  0  0  0  0
 13 17  1  0  0  0  0
 14  9  1  0  0  0  0
 15  4  1  0  0  0  0
 15  9  2  0  0  0  0
 16 13  1  0  0  0  0
 17 16  1  6  0  0  0
 17  5  1  0  0  0  0
 17 10  1  0  0  0  0
 18 15  1  0  0  0  0
 19 13  1  0  0  0  0
 20 19  1  0  0  0  0
 22 21  1  0  0  0  0
 22 20  1  0  0  0  0
 23 22  2  0  0  0  0
 24 29  1  0  0  0  0
 25 30  1  0  0  0  0
 26 30  2  0  0  0  0
 27 26  1  0  0  0  0
 28 25  2  0  0  0  0
 29 27  2  0  0  0  0
 29 28  1  0  0  0  0
M  END
>  <MODEL>
4

>  <REMARK>
 VINA RESULT:      -6.6      2.736      3.779
  Name = 
  5 active torsions:
  status: ('A' for Active; 'I' for Inactive)
    1  A    between atoms: C_4  and  C_5
    2  A    between atoms: C_4  and  N_21
    3  A    between atoms: C_5  and  C_15
    4  A    between atoms: C_11  and  N_30
    5  A    between atoms: C_27  and  N_30
                            x       y       z     vdW  Elec       q    Type
                         _______ _______ _______ _____ _____    ______ ____

>  <TORSDO>
F 5

$$$$
=
 OpenBabel10232408433D

 30 33  0  0  1  0  0  0  0  0999 V2000
  188.6380  179.6250  142.1300 O   0  0  0  0  0  0  0  0  0  0  0  0
  184.6630  179.0620  144.6870 C   0  0  0  0  0  3  0  0  0  0  0  0
  184.6490  178.1900  146.9060 F   0  0  0  0  0  0  0  0  0  0  0  0
  185.2020  179.0660  143.3980 C   0  0  0  0  0  3  0  0  0  0  0  0
  189.9800  176.8530  141.2130 N   0  0  0  0  0  2  0  0  0  0  0  0
  185.1690  178.1900  145.6550 C   0  0  0  0  0  0  0  0  0  0  0  0
  190.7380  175.3610  142.8210 O   0  0  0  0  0  0  0  0  0  0  0  0
  189.1660  176.9600  143.6440 C   0  0  1  0  0  3  0  0  0  0  0  0
  186.7450  177.3010  144.0400 C   0  0  0  0  0  0  0  0  0  0  0  0
  188.1520  178.6380  141.5160 C   0  0  0  0  0  0  0  0  0  0  0  0
  190.0030  176.3510  142.5580 C   0  0  0  0  0  0  0  0  0  0  0  0
  186.2020  177.3070  145.3290 C   0  0  0  0  0  3  0  0  0  0  0  0
  188.3720  177.3820  139.3720 N   0  0  0  0  0  0  0  0  0  0  0  0
  187.8020  176.2950  143.7050 C   0  0  0  0  0  2  0  0  0  0  0  0
  186.2530  178.2040  143.0720 C   0  0  0  0  0  0  0  0  0  0  0  0
  189.4390  178.4050  139.3730 C   0  0  0  0  0  2  0  0  0  0  0  0
  189.0250  177.8110  140.6320 C   0  0  2  0  0  0  0  0  0  0  0  0
  186.8010  178.2370  141.7510 N   0  0  0  0  0  2  0  0  0  0  0  0
  188.9710  176.1730  138.8170 C   0  0  0  0  0  2  0  0  0  0  0  0
  189.8880  176.5290  137.6590 C   0  0  0  0  0  2  0  0  0  0  0  0
  191.2380  174.5660  137.7270 O   0  0  0  0  0  0  0  0  0  0  0  0
  191.1930  175.8220  137.7870 C   0  0  0  0  0  0  0  0  0  0  0  0
  192.3580  176.5450  138.0060 O   0  0  0  0  0  1  0  0  0  0  0  0
  189.8260  176.8770  144.9420 N   0  0  0  0  0  2  0  0  0  0  0  0
  188.4480  179.1450  147.5070 N   0  0  0  0  0  0  0  0  0  0  0  0
  188.2570  176.9120  148.3370 C   0  0  0  0  0  3  0  0  0  0  0  0
  188.8400  176.4350  147.1620 C   0  0  0  0  0  3  0  0  0  0  0  0
  189.0150  178.6980  146.3540 C   0  0  0  0  0  3  0  0  0  0  0  0
  189.2230  177.3310  146.1560 C   0  0  0  0  0  0  0  0  0  0  0  0
  188.0670  178.2870  148.4920 C   0  0  0  0  0  3  0  0  0  0  0  0
  2  6  1  0  0  0  0
  4  2  2  0  0  0  0
  5 11  1  0  0  0  0
  6  3  1  0  0  0  0
  8 14  1  0  0  0  0
  8 24  1  1  0  0  0
  9 12  1  0  0  0  0
 10 18  1  0  0  0  0
 10  1  2  0  0  0  0
 11  7  2  0  0  0  0
 11  8  1  0  0  0  0
 12  6  2  0  0  0  0
 13 16  1  0  0  0  0
 13 17  1  0  0  0  0
 14  9  1  0  0  0  0
 15  4  1  0  0  0  0
 15  9  2  0  0  0  0
 17 16  1  6  0  0  0
 17  5  1  0  0  0  0
 17 10  1  0  0  0  0
 18 15  1  0  0  0  0
 19 13  1  0  0  0  0
 20 22  1  0  0  0  0
 20 19  1  0  0  0  0
 21 22  2  0  0  0  0
 22 23  1  0  0  0  0
 24 29  1  0  0  0  0
 25 30  1  0  0  0  0
 26 30  2  0  0  0  0
 27 26  1  0  0  0  0
 28 25  2  0  0  0  0
 29 28  1  0  0  0  0
 29 27  2  0  0  0  0
M  END
>  <MODEL>
5

>  <REMARK>
 VINA RESULT:      -6.6      3.436      4.629
  Name = 
  5 active torsions:
  status: ('A' for Active; 'I' for Inactive)
    1  A    between atoms: C_4  and  C_5
    2  A    between atoms: C_4  and  N_21
    3  A    between atoms: C_5  and  C_15
    4  A    between atoms: C_11  and  N_30
    5  A    between atoms: C_27  and  N_30
                            x       y       z     vdW  Elec       q    Type
                         _______ _______ _______ _____ _____    ______ ____

>  <TORSDO>
F 5

$$$$
=
 OpenBabel10232408433D

 30 33  0  0  1  0  0  0  0  0999 V2000
  184.8220  177.2870  135.7960 O   0  0  0  0  0  0  0  0  0  0  0  0
  182.1510  173.4980  136.8710 C   0  0  0  0  0  3  0  0  0  0  0  0
  179.9820  173.6620  137.8480 F   0  0  0  0  0  0  0  0  0  0  0  0
  183.4570  173.9780  136.7510 C   0  0  0  0  0  3  0  0  0  0  0  0
  185.9350  178.8490  138.3750 N   0  0  0  0  0  2  0  0  0  0  0  0
  181.2500  174.1260  137.7350 C   0  0  0  0  0  0  0  0  0  0  0  0
  184.4380  179.8140  139.8630 O   0  0  0  0  0  0  0  0  0  0  0  0
  183.4720  178.1330  138.4680 C   0  0  1  0  0  3  0  0  0  0  0  0
  182.9690  175.7090  138.3850 C   0  0  0  0  0  0  0  0  0  0  0  0
  185.4690  176.8730  136.7950 C   0  0  0  0  0  0  0  0  0  0  0  0
  184.6210  178.9780  138.9380 C   0  0  0  0  0  0  0  0  0  0  0  0
  181.6610  175.2240  138.4960 C   0  0  0  0  0  3  0  0  0  0  0  0
  187.6830  177.1200  137.9160 N   0  0  0  0  0  0  0  0  0  0  0  0
  183.3960  176.8430  139.2650 C   0  0  0  0  0  2  0  0  0  0  0  0
  183.8680  175.0930  137.4880 C   0  0  0  0  0  0  0  0  0  0  0  0
  187.6680  178.0840  136.7940 C   0  0  0  0  0  2  0  0  0  0  0  0
  186.4280  177.7820  137.4880 C   0  0  2  0  0  0  0  0  0  0  0  0
  185.2040  175.5780  137.3360 N   0  0  0  0  0  2  0  0  0  0  0  0
  188.3240  177.8080  139.0320 C   0  0  0  0  0  2  0  0  0  0  0  0
  189.8340  177.7800  138.8640 C   0  0  0  0  0  2  0  0  0  0  0  0
  190.8190  175.6110  138.8340 O   0  0  0  0  0  0  0  0  0  0  0  0
  190.4140  176.5790  139.5280 C   0  0  0  0  0  0  0  0  0  0  0  0
  190.4780  176.5120  140.9130 O   0  0  0  0  0  1  0  0  0  0  0  0
  182.2070  178.8530  138.5490 N   0  0  0  0  0  2  0  0  0  0  0  0
  180.5990  181.4500  136.4800 N   0  0  0  0  0  0  0  0  0  0  0  0
  180.8060  179.4830  135.1400 C   0  0  0  0  0  3  0  0  0  0  0  0
  181.4050  178.8240  136.2150 C   0  0  0  0  0  3  0  0  0  0  0  0
  181.1830  180.8260  137.5370 C   0  0  0  0  0  3  0  0  0  0  0  0
  181.6000  179.4970  137.4270 C   0  0  0  0  0  0  0  0  0  0  0  0
  180.4050  180.8120  135.2930 C   0  0  0  0  0  3  0  0  0  0  0  0
  1 10  2  0  0  0  0
  2  6  1  0  0  0  0
  4  2  2  0  0  0  0
  4 15  1  0  0  0  0
  5 11  1  0  0  0  0
  6  3  1  0  0  0  0
  6 12  2  0  0  0  0
  8 24  1  1  0  0  0
  8 11  1  0  0  0  0
  8 14  1  0  0  0  0
  9 12  1  0  0  0  0
  9 14  1  0  0  0  0
 10 18  1  0  0  0  0
 10 17  1  0  0  0  0
 11  7  2  0  0  0  0
 13 19  1  0  0  0  0
 15  9  2  0  0  0  0
 16 13  1  0  0  0  0
 17 16  1  6  0  0  0
 17 13  1  0  0  0  0
 17  5  1  0  0  0  0
 18 15  1  0  0  0  0
 20 19  1  0  0  0  0
 20 22  1  0  0  0  0
 21 22  2  0  0  0  0
 22 23  1  0  0  0  0
 25 28  1  0  0  0  0
 26 30  1  0  0  0  0
 26 27  2  0  0  0  0
 27 29  1  0  0  0  0
 29 28  2  0  0  0  0
 29 24  1  0  0  0  0
 30 25  2  0  0  0  0
M  END
>  <MODEL>
6

>  <REMARK>
 VINA RESULT:      -6.5      4.975      8.892
  Name = 
  5 active torsions:
  status: ('A' for Active; 'I' for Inactive)
    1  A    between atoms: C_4  and  C_5
    2  A    between atoms: C_4  and  N_21
    3  A    between atoms: C_5  and  C_15
    4  A    between atoms: C_11  and  N_30
    5  A    between atoms: C_27  and  N_30
                            x       y       z     vdW  Elec       q    Type
                         _______ _______ _______ _____ _____    ______ ____

>  <TORSDO>
F 5

$$$$
=
 OpenBabel10232408433D

 30 33  0  0  1  0  0  0  0  0999 V2000
  184.6710  179.9760  139.3440 O   0  0  0  0  0  0  0  0  0  0  0  0
  184.3370  176.8470  135.7730 C   0  0  0  0  0  3  0  0  0  0  0  0
  182.2870  176.3390  134.6680 F   0  0  0  0  0  0  0  0  0  0  0  0
  185.0250  177.1760  136.9440 C   0  0  0  0  0  3  0  0  0  0  0  0
  183.2770  178.9770  142.0620 N   0  0  0  0  0  2  0  0  0  0  0  0
  182.9540  176.6540  135.8040 C   0  0  0  0  0  0  0  0  0  0  0  0
  180.9930  178.5650  142.0930 O   0  0  0  0  0  0  0  0  0  0  0  0
  181.9470  178.5820  139.9030 C   0  0  1  0  0  3  0  0  0  0  0  0
  182.9400  177.0950  138.1890 C   0  0  0  0  0  0  0  0  0  0  0  0
  184.8200  178.9120  140.0050 C   0  0  0  0  0  0  0  0  0  0  0  0
  182.0330  178.7100  141.3960 C   0  0  0  0  0  0  0  0  0  0  0  0
  182.2590  176.7690  137.0110 C   0  0  0  0  0  3  0  0  0  0  0  0
  185.6130  178.0990  142.2250 N   0  0  0  0  0  0  0  0  0  0  0  0
  182.1760  177.1420  139.4760 C   0  0  0  0  0  2  0  0  0  0  0  0
  184.3330  177.3210  138.1500 C   0  0  0  0  0  0  0  0  0  0  0  0
  185.6610  179.5760  142.2750 C   0  0  0  0  0  2  0  0  0  0  0  0
  184.6300  178.9260  141.4850 C   0  0  2  0  0  0  0  0  0  0  0  0
  185.0550  177.6740  139.3320 N   0  0  0  0  0  2  0  0  0  0  0  0
  185.1100  177.6650  143.5240 C   0  0  0  0  0  2  0  0  0  0  0  0
  185.8250  178.4150  144.6370 C   0  0  0  0  0  2  0  0  0  0  0  0
  183.7000  179.1600  145.4150 O   0  0  0  0  0  0  0  0  0  0  0  0
  184.8680  178.7980  145.7120 C   0  0  0  0  0  0  0  0  0  0  0  0
  185.2720  178.7890  147.0390 O   0  0  0  0  0  1  0  0  0  0  0  0
  180.6670  179.0610  139.3950 N   0  0  0  0  0  2  0  0  0  0  0  0
  179.9820  182.5630  138.4570 N   0  0  0  0  0  0  0  0  0  0  0  0
  180.6580  181.4040  136.4800 C   0  0  0  0  0  3  0  0  0  0  0  0
  180.8020  180.2330  137.2270 C   0  0  0  0  0  3  0  0  0  0  0  0
  180.1190  181.4340  139.2010 C   0  0  0  0  0  3  0  0  0  0  0  0
  180.5340  180.2420  138.6010 C   0  0  0  0  0  0  0  0  0  0  0  0
  180.2420  182.5730  137.1210 C   0  0  0  0  0  3  0  0  0  0  0  0
  1 10  2  0  0  0  0
  2  6  2  0  0  0  0
  2  4  1  0  0  0  0
  3  6  1  0  0  0  0
  4 15  2  0  0  0  0
  6 12  1  0  0  0  0
  8 24  1  1  0  0  0
  8 11  1  0  0  0  0
  9 14  1  0  0  0  0
 10 17  1  0  0  0  0
 11  5  1  0  0  0  0
 11  7  2  0  0  0  0
 12  9  2  0  0  0  0
 13 16  1  0  0  0  0
 13 19  1  0  0  0  0
 14  8  1  0  0  0  0
 15  9  1  0  0  0  0
 15 18  1  0  0  0  0
 17  5  1  0  0  0  0
 17 13  1  0  0  0  0
 17 16  1  1  0  0  0
 18 10  1  0  0  0  0
 19 20  1  0  0  0  0
 20 22  1  0  0  0  0
 21 22  2  0  0  0  0
 22 23  1  0  0  0  0
 25 28  1  0  0  0  0
 26 30  1  0  0  0  0
 26 27  2  0  0  0  0
 27 29  1  0  0  0  0
 29 28  2  0  0  0  0
 29 24  1  0  0  0  0
 30 25  2  0  0  0  0
M  END
>  <MODEL>
7

>  <REMARK>
 VINA RESULT:      -6.4      4.196      8.917
  Name = 
  5 active torsions:
  status: ('A' for Active; 'I' for Inactive)
    1  A    between atoms: C_4  and  C_5
    2  A    between atoms: C_4  and  N_21
    3  A    between atoms: C_5  and  C_15
    4  A    between atoms: C_11  and  N_30
    5  A    between atoms: C_27  and  N_30
                            x       y       z     vdW  Elec       q    Type
                         _______ _______ _______ _____ _____    ______ ____

>  <TORSDO>
F 5

$$$$
=
 OpenBabel10232408433D

 30 33  0  0  1  0  0  0  0  0999 V2000
  189.4670  175.1770  142.1560 O   0  0  0  0  0  0  0  0  0  0  0  0
  192.0240  176.3390  145.9990 C   0  0  0  0  0  3  0  0  0  0  0  0
  191.0460  176.8640  148.1090 F   0  0  0  0  0  0  0  0  0  0  0  0
  191.9730  176.3850  144.6040 C   0  0  0  0  0  3  0  0  0  0  0  0
  187.7880  177.6320  140.9390 N   0  0  0  0  0  2  0  0  0  0  0  0
  190.9980  176.9120  146.7560 C   0  0  0  0  0  0  0  0  0  0  0  0
  186.1460  178.6470  142.2290 O   0  0  0  0  0  0  0  0  0  0  0  0
  187.7340  177.3860  143.4940 C   0  0  1  0  0  3  0  0  0  0  0  0
  189.8740  177.6030  144.7220 C   0  0  0  0  0  0  0  0  0  0  0  0
  189.8320  176.3310  141.8030 C   0  0  0  0  0  0  0  0  0  0  0  0
  187.1740  177.9170  142.2060 C   0  0  0  0  0  0  0  0  0  0  0  0
  189.9300  177.5490  146.1190 C   0  0  0  0  0  3  0  0  0  0  0  0
  190.0000  177.7840  139.7830 N   0  0  0  0  0  0  0  0  0  0  0  0
  188.7520  178.3530  144.0730 C   0  0  0  0  0  2  0  0  0  0  0  0
  190.8940  176.9960  143.9580 C   0  0  0  0  0  0  0  0  0  0  0  0
  189.3280  176.5390  139.3530 C   0  0  0  0  0  2  0  0  0  0  0  0
  189.1110  177.0330  140.7020 C   0  0  2  0  0  0  0  0  0  0  0  0
  190.8550  177.0160  142.5290 N   0  0  0  0  0  2  0  0  0  0  0  0
  189.3070  178.8730  139.1030 C   0  0  0  0  0  2  0  0  0  0  0  0
  189.3210  178.6440  137.6010 C   0  0  0  0  0  2  0  0  0  0  0  0
  186.9590  178.8860  137.8080 O   0  0  0  0  0  1  0  0  0  0  0  0
  187.9320  178.5970  137.0640 C   0  0  0  0  0  0  0  0  0  0  0  0
  187.7060  178.2010  135.7530 O   0  0  0  0  0  0  0  0  0  0  0  0
  186.6810  177.1190  144.4670 N   0  0  0  0  0  2  0  0  0  0  0  0
  185.4950  179.7740  146.7390 N   0  0  0  0  0  0  0  0  0  0  0  0
  186.9360  178.3380  147.9930 C   0  0  0  0  0  3  0  0  0  0  0  0
  187.1340  177.5560  146.8540 C   0  0  0  0  0  3  0  0  0  0  0  0
  185.6740  179.0230  145.6190 C   0  0  0  0  0  3  0  0  0  0  0  0
  186.4980  177.8950  145.6530 C   0  0  0  0  0  0  0  0  0  0  0  0
  186.1030  179.4570  147.9150 C   0  0  0  0  0  3  0  0  0  0  0  0
  2  6  1  0  0  0  0
  4  2  2  0  0  0  0
  5 11  1  0  0  0  0
  6  3  1  0  0  0  0
  8 14  1  0  0  0  0
  8 24  1  1  0  0  0
  9 12  1  0  0  0  0
 10  1  2  0  0  0  0
 10 18  1  0  0  0  0
 11  7  2  0  0  0  0
 11  8  1  0  0  0  0
 12  6  2  0  0  0  0
 13 17  1  0  0  0  0
 14  9  1  0  0  0  0
 15  4  1  0  0  0  0
 15  9  2  0  0  0  0
 16 13  1  0  0  0  0
 17 16  1  6  0  0  0
 17  5  1  0  0  0  0
 17 10  1  0  0  0  0
 18 15  1  0  0  0  0
 19 13  1  0  0  0  0
 20 19  1  0  0  0  0
 22 20  1  0  0  0  0
 22 21  1  0  0  0  0
 23 22  2  0  0  0  0
 24 29  1  0  0  0  0
 25 30  1  0  0  0  0
 27 26  1  0  0  0  0
 28 29  1  0  0  0  0
 28 25  2  0  0  0  0
 29 27  2  0  0  0  0
 30 26  2  0  0  0  0
M  END
>  <MODEL>
8

>  <REMARK>
 VINA RESULT:      -6.4      2.965      5.281
  Name = 
  5 active torsions:
  status: ('A' for Active; 'I' for Inactive)
    1  A    between atoms: C_4  and  C_5
    2  A    between atoms: C_4  and  N_21
    3  A    between atoms: C_5  and  C_15
    4  A    between atoms: C_11  and  N_30
    5  A    between atoms: C_27  and  N_30
                            x       y       z     vdW  Elec       q    Type
                         _______ _______ _______ _____ _____    ______ ____

>  <TORSDO>
F 5

$$$$
=
 OpenBabel10232408433D

 30 33  0  0  1  0  0  0  0  0999 V2000
  191.6690  178.0280  139.7410 O   0  0  0  0  0  0  0  0  0  0  0  0
  191.7040  174.6660  136.3730 C   0  0  0  0  0  3  0  0  0  0  0  0
  190.4040  174.8000  134.3790 F   0  0  0  0  0  0  0  0  0  0  0  0
  191.8400  174.9150  137.7410 C   0  0  0  0  0  3  0  0  0  0  0  0
  188.9050  178.1850  141.3730 N   0  0  0  0  0  2  0  0  0  0  0  0
  190.5330  175.0380  135.7060 C   0  0  0  0  0  0  0  0  0  0  0  0
  186.9420  178.7110  140.2510 O   0  0  0  0  0  0  0  0  0  0  0  0
  188.6980  177.9400  138.8270 C   0  0  1  0  0  3  0  0  0  0  0  0
  189.6150  175.8900  137.7830 C   0  0  0  0  0  0  0  0  0  0  0  0
  191.0210  177.1360  140.3530 C   0  0  0  0  0  0  0  0  0  0  0  0
  188.1320  178.3040  140.1690 C   0  0  0  0  0  0  0  0  0  0  0  0
  189.4880  175.6400  136.4120 C   0  0  0  0  0  3  0  0  0  0  0  0
  190.2610  176.5120  142.6450 N   0  0  0  0  0  0  0  0  0  0  0  0
  188.4500  176.4730  138.5220 C   0  0  0  0  0  2  0  0  0  0  0  0
  190.8110  175.5420  138.4480 C   0  0  0  0  0  0  0  0  0  0  0  0
  190.9130  177.8340  142.7620 C   0  0  0  0  0  2  0  0  0  0  0  0
  190.1980  177.5010  141.5420 C   0  0  2  0  0  0  0  0  0  0  0  0
  190.9780  175.8020  139.8440 N   0  0  0  0  0  2  0  0  0  0  0  0
  189.0860  176.5630  143.5080 C   0  0  0  0  0  2  0  0  0  0  0  0
  189.4960  176.9200  144.9270 C   0  0  0  0  0  2  0  0  0  0  0  0
  188.4060  177.6940  146.9000 O   0  0  0  0  0  1  0  0  0  0  0  0
  188.3720  177.5810  145.6470 C   0  0  0  0  0  0  0  0  0  0  0  0
  187.2690  178.0430  144.9420 O   0  0  0  0  0  0  0  0  0  0  0  0
  188.1460  178.7760  137.7660 N   0  0  0  0  0  2  0  0  0  0  0  0
  186.6470  177.9310  134.5020 N   0  0  0  0  0  0  0  0  0  0  0  0
  185.0950  177.2840  136.2000 C   0  0  0  0  0  3  0  0  0  0  0  0
  185.9840  177.7420  137.1750 C   0  0  0  0  0  3  0  0  0  0  0  0
  187.5270  178.3800  135.4370 C   0  0  0  0  0  3  0  0  0  0  0  0
  187.2140  178.2940  136.7960 C   0  0  0  0  0  0  0  0  0  0  0  0
  185.4490  177.3880  134.8530 C   0  0  0  0  0  3  0  0  0  0  0  0
  1 10  2  0  0  0  0
  2  4  1  0  0  0  0
  3  6  1  0  0  0  0
  4 15  2  0  0  0  0
  5 17  1  0  0  0  0
  6  2  2  0  0  0  0
  6 12  1  0  0  0  0
  8 24  1  6  0  0  0
  8 11  1  0  0  0  0
  9 15  1  0  0  0  0
  9 14  1  0  0  0  0
 10 17  1  0  0  0  0
 11  7  2  0  0  0  0
 11  5  1  0  0  0  0
 12  9  2  0  0  0  0
 13 16  1  0  0  0  0
 13 19  1  0  0  0  0
 14  8  1  0  0  0  0
 15 18  1  0  0  0  0
 17 13  1  0  0  0  0
 17 16  1  1  0  0  0
 18 10  1  0  0  0  0
 19 20  1  0  0  0  0
 20 22  1  0  0  0  0
 22 21  1  0  0  0  0
 23 22  2  0  0  0  0
 25 30  2  0  0  0  0
 25 28  1  0  0  0  0
 26 27  2  0  0  0  0
 28 29  2  0  0  0  0
 29 27  1  0  0  0  0
 29 24  1  0  0  0  0
 30 26  1  0  0  0  0
M  END
>  <MODEL>
9

>  <REMARK>
 VINA RESULT:      -6.3      4.406      8.389
  Name = 
  5 active torsions:
  status: ('A' for Active; 'I' for Inactive)
    1  A    between atoms: C_4  and  C_5
    2  A    between atoms: C_4  and  N_21
    3  A    between atoms: C_5  and  C_15
    4  A    between atoms: C_11  and  N_30
    5  A    between atoms: C_27  and  N_30
                            x       y       z     vdW  Elec       q    Type
                         _______ _______ _______ _____ _____    ______ ____

>  <TORSDO>
F 5

$$$$
