=
 OpenBabel10232412483D

 40 45  0  0  1  0  0  0  0  0999 V2000
  187.6170  175.9550  136.4950 C   0  0  0  0  0  0  0  0  0  0  0  0
  185.6610  176.6380  135.1540 C   0  0  2  0  0  3  0  0  0  0  0  0
  186.6280  174.6520  134.6200 N   0  0  0  0  0  2  0  0  0  0  0  0
  185.3870  174.5900  134.3460 N   0  0  0  0  0  0  0  0  0  0  0  0
  186.9850  175.9750  135.1160 C   0  0  2  0  0  3  0  0  0  0  0  0
  185.4120  177.7400  136.0700 C   0  0  0  0  0  3  0  0  0  0  0  0
  186.2040  177.8620  137.0960 N   0  0  0  0  0  0  0  0  0  0  0  0
  187.2640  176.9190  137.3960 C   0  0  0  0  0  0  0  0  0  0  0  0
  184.7430  175.8090  134.6960 C   0  0  0  0  0  3  0  0  0  0  0  0
  190.3930  177.5450  139.6060 C   0  0  0  0  0  2  0  0  0  0  0  0
  188.0130  177.0870  138.6880 C   0  0  2  0  0  3  0  0  0  0  0  0
  187.9200  178.4670  140.8670 C   0  0  0  0  0  2  0  0  0  0  0  0
  189.2440  179.1740  138.1650 N   0  0  0  0  0  1  0  0  0  0  0  0
  187.1340  177.7260  139.7810 C   0  0  0  0  0  2  0  0  0  0  0  0
  189.3880  177.7520  138.4580 C   0  0  1  0  0  3  0  0  0  0  0  0
  189.8510  176.7570  140.8060 C   0  0  0  0  0  2  0  0  0  0  0  0
  188.8410  177.5470  141.6590 C   0  0  1  0  0  3  0  0  0  0  0  0
  188.9080  177.9490  144.1920 C   0  0  0  0  0  0  0  0  0  0  0  0
  187.0760  177.4860  145.8000 C   0  0  0  0  0  2  0  0  0  0  0  0
  187.5810  177.8150  144.4300 C   0  0  0  0  0  0  0  0  0  0  0  0
  188.0930  176.6680  146.5890 C   0  0  0  0  0  2  0  0  0  0  0  0
  190.9380  178.2020  142.7760 N   0  0  0  0  0  2  0  0  0  0  0  0
  189.8620  177.8800  145.3340 C   0  0  0  0  0  0  0  0  0  0  0  0
  186.5520  178.1710  143.4040 C   0  0  0  0  0  1  0  0  0  0  0  0
  191.1060  178.3370  145.1890 C   0  0  0  0  0  3  0  0  0  0  0  0
  191.5420  178.9320  143.8810 C   0  0  0  0  0  2  0  0  0  0  0  0
  189.4780  178.3310  142.8150 C   0  0  1  0  0  3  0  0  0  0  0  0
  189.4030  177.4420  146.6930 C   0  0  0  0  0  2  0  0  0  0  0  0
  191.1720  173.5680  137.3470 O   0  0  0  0  0  0  0  0  0  0  0  0
  191.2120  174.5470  136.5520 C   0  0  0  0  0  0  0  0  0  0  0  0
  188.7290  175.0070  136.7390 C   0  0  0  0  0  0  0  0  0  0  0  0
  190.0540  175.3560  136.3290 N   0  0  0  0  0  2  0  0  0  0  0  0
  188.4990  173.8710  137.2350 O   0  0  0  0  0  0  0  0  0  0  0  0
  192.4740  174.8540  135.8300 C   0  0  0  0  0  2  0  0  0  0  0  0
  195.7850  175.1990  137.2120 N   0  0  0  0  0  2  0  0  0  0  0  0
  195.4330  175.3330  135.8000 C   0  0  0  0  0  2  0  0  0  0  0  0
  193.1240  176.0200  136.4200 N   0  0  0  0  0  0  0  0  0  0  0  0
  193.4910  175.7490  137.8230 C   0  0  0  0  0  2  0  0  0  0  0  0
  194.3130  176.3610  135.6300 C   0  0  0  0  0  2  0  0  0  0  0  0
  194.6180  174.7170  137.9320 C   0  0  0  0  0  2  0  0  0  0  0  0
  1 31  1  0  0  0  0
  1  8  2  0  0  0  0
  2  9  1  1  0  0  0
  2  6  1  0  0  0  0
  4  3  1  0  0  0  0
  4  9  2  0  0  0  0
  5  3  1  1  0  0  0
  5  2  1  0  0  0  0
  5  1  1  0  0  0  0
  6  7  2  0  0  0  0
  7  8  1  0  0  0  0
 10 16  1  0  0  0  0
 11  8  1  6  0  0  0
 11 14  1  0  0  0  0
 12 17  1  0  0  0  0
 14 12  1  0  0  0  0
 15 13  1  1  0  0  0
 15 11  1  0  0  0  0
 15 10  1  0  0  0  0
 17 16  1  6  0  0  0
 17 27  1  0  0  0  0
 18 20  2  0  0  0  0
 18 23  1  0  0  0  0
 19 21  1  0  0  0  0
 20 19  1  0  0  0  0
 21 28  1  0  0  0  0
 22 26  1  0  0  0  0
 23 28  1  0  0  0  0
 24 20  1  0  0  0  0
 25 23  2  0  0  0  0
 26 25  1  0  0  0  0
 27 22  1  1  0  0  0
 27 18  1  0  0  0  0
 30 29  2  0  0  0  0
 31 33  2  0  0  0  0
 32 30  1  0  0  0  0
 32 31  1  0  0  0  0
 34 37  1  0  0  0  0
 34 30  1  0  0  0  0
 35 40  1  0  0  0  0
 36 35  1  0  0  0  0
 37 38  1  0  0  0  0
 38 40  1  0  0  0  0
 39 36  1  0  0  0  0
 39 37  1  0  0  0  0
M  END
>  <MODEL>
1

>  <REMARK>
 VINA RESULT:      -8.3      0.000      0.000
  Name = 
  5 active torsions:
  status: ('A' for Active; 'I' for Inactive)
    1  A    between atoms: C_1  and  C_20
    2  A    between atoms: N_13  and  C_29
    3  A    between atoms: C_15  and  C_34
    4  A    between atoms: C_19  and  C_29
    5  A    between atoms: C_36  and  C_39
                            x       y       z     vdW  Elec       q    Type
                         _______ _______ _______ _____ _____    ______ ____

>  <TORSDO>
F 5

$$$$
=
 OpenBabel10232412483D

 40 45  0  0  1  0  0  0  0  0999 V2000
  184.9170  178.5280  143.0620 C   0  0  0  0  0  0  0  0  0  0  0  0
  184.1630  178.3850  145.4080 C   0  0  2  0  0  3  0  0  0  0  0  0
  186.3850  178.7110  145.0620 N   0  0  0  0  0  2  0  0  0  0  0  0
  186.0580  179.2570  146.1630 N   0  0  0  0  0  0  0  0  0  0  0  0
  185.2450  178.0340  144.4580 C   0  0  2  0  0  3  0  0  0  0  0  0
  182.7770  178.4180  144.9700 C   0  0  0  0  0  3  0  0  0  0  0  0
  182.5500  178.5300  143.6920 N   0  0  0  0  0  0  0  0  0  0  0  0
  183.6070  178.6890  142.7110 C   0  0  0  0  0  0  0  0  0  0  0  0
  184.6640  179.0980  146.3980 C   0  0  0  0  0  3  0  0  0  0  0  0
  183.5770  178.0660  138.8800 C   0  0  0  0  0  2  0  0  0  0  0  0
  183.2110  178.9570  141.2870 C   0  0  2  0  0  3  0  0  0  0  0  0
  181.0940  179.2750  139.8430 C   0  0  0  0  0  2  0  0  0  0  0  0
  182.5510  176.6630  140.6200 N   0  0  0  0  0  1  0  0  0  0  0  0
  181.7860  179.5350  141.1860 C   0  0  0  0  0  2  0  0  0  0  0  0
  183.5070  177.7390  140.3830 C   0  0  1  0  0  3  0  0  0  0  0  0
  183.2960  179.5310  138.5230 C   0  0  0  0  0  2  0  0  0  0  0  0
  181.8160  179.9310  138.6730 C   0  0  1  0  0  3  0  0  0  0  0  0
  180.7350  181.0680  136.6430 C   0  0  0  0  0  0  0  0  0  0  0  0
  180.0680  183.4520  136.4780 C   0  0  0  0  0  2  0  0  0  0  0  0
  180.3430  182.2060  137.2620 C   0  0  0  0  0  0  0  0  0  0  0  0
  180.9090  183.5100  135.2080 C   0  0  0  0  0  2  0  0  0  0  0  0
  181.6010  178.7380  136.5270 N   0  0  0  0  0  2  0  0  0  0  0  0
  180.7810  181.0290  135.1550 C   0  0  0  0  0  0  0  0  0  0  0  0
  179.9820  182.2340  138.7140 C   0  0  0  0  0  1  0  0  0  0  0  0
  180.8290  179.8570  134.5210 C   0  0  0  0  0  3  0  0  0  0  0  0
  180.8240  178.5770  135.3060 C   0  0  0  0  0  2  0  0  0  0  0  0
  180.9870  179.7490  137.3930 C   0  0  1  0  0  3  0  0  0  0  0  0
  180.6220  182.2840  134.3480 C   0  0  0  0  0  2  0  0  0  0  0  0
  188.1770  178.3120  140.1650 O   0  0  0  0  0  0  0  0  0  0  0  0
  188.2400  177.7130  141.2730 C   0  0  0  0  0  0  0  0  0  0  0  0
  186.0220  178.6280  142.0800 C   0  0  0  0  0  0  0  0  0  0  0  0
  187.1400  177.7430  142.1870 N   0  0  0  0  0  2  0  0  0  0  0  0
  186.0130  179.5330  141.2040 O   0  0  0  0  0  0  0  0  0  0  0  0
  189.4790  176.9770  141.6370 C   0  0  0  0  0  2  0  0  0  0  0  0
  191.1790  176.8120  144.8100 N   0  0  0  0  0  2  0  0  0  0  0  0
  191.6060  176.1500  143.5800 C   0  0  0  0  0  2  0  0  0  0  0  0
  190.4580  177.8890  142.2230 N   0  0  0  0  0  0  0  0  0  0  0  0
  189.9470  178.4470  143.4890 C   0  0  0  0  0  2  0  0  0  0  0  0
  191.7170  177.1680  142.4440 C   0  0  0  0  0  2  0  0  0  0  0  0
  189.8620  177.3840  144.5900 C   0  0  0  0  0  2  0  0  0  0  0  0
  2  6  1  6  0  0  0
  2  9  1  0  0  0  0
  3  4  1  0  0  0  0
  4  9  2  0  0  0  0
  5  1  1  6  0  0  0
  5  3  1  0  0  0  0
  5  2  1  0  0  0  0
  7  6  2  0  0  0  0
  8  1  2  0  0  0  0
  8  7  1  0  0  0  0
 10 15  1  0  0  0  0
 11  8  1  1  0  0  0
 12 14  1  0  0  0  0
 14 11  1  0  0  0  0
 15 13  1  6  0  0  0
 15 11  1  0  0  0  0
 16 10  1  0  0  0  0
 17 16  1  6  0  0  0
 17 12  1  0  0  0  0
 18 20  2  0  0  0  0
 18 27  1  0  0  0  0
 19 20  1  0  0  0  0
 20 24  1  0  0  0  0
 21 19  1  0  0  0  0
 23 18  1  0  0  0  0
 25 23  2  0  0  0  0
 25 26  1  0  0  0  0
 26 22  1  0  0  0  0
 27 22  1  6  0  0  0
 27 17  1  0  0  0  0
 28 23  1  0  0  0  0
 28 21  1  0  0  0  0
 29 30  2  0  0  0  0
 30 34  1  0  0  0  0
 30 32  1  0  0  0  0
 31 32  1  0  0  0  0
 31  1  1  0  0  0  0
 33 31  2  0  0  0  0
 34 37  1  0  0  0  0
 36 35  1  0  0  0  0
 37 39  1  0  0  0  0
 37 38  1  0  0  0  0
 38 40  1  0  0  0  0
 39 36  1  0  0  0  0
 40 35  1  0  0  0  0
M  END
>  <MODEL>
2

>  <REMARK>
 VINA RESULT:      -7.4      4.727      9.684
  Name = 
  5 active torsions:
  status: ('A' for Active; 'I' for Inactive)
    1  A    between atoms: C_1  and  C_20
    2  A    between atoms: N_13  and  C_29
    3  A    between atoms: C_15  and  C_34
    4  A    between atoms: C_19  and  C_29
    5  A    between atoms: C_36  and  C_39
                            x       y       z     vdW  Elec       q    Type
                         _______ _______ _______ _____ _____    ______ ____

>  <TORSDO>
F 5

$$$$
=
 OpenBabel10232412483D

 40 45  0  0  1  0  0  0  0  0999 V2000
  189.0200  176.9130  137.7200 C   0  0  0  0  0  0  0  0  0  0  0  0
  190.7060  175.9760  136.1800 C   0  0  2  0  0  3  0  0  0  0  0  0
  189.3540  177.6040  135.3530 N   0  0  0  0  0  2  0  0  0  0  0  0
  190.4770  177.6630  134.7590 N   0  0  0  0  0  0  0  0  0  0  0  0
  189.3220  176.4910  136.2940 C   0  0  2  0  0  3  0  0  0  0  0  0
  191.3180  175.2530  137.2840 C   0  0  0  0  0  3  0  0  0  0  0  0
  190.8040  175.4130  138.4700 N   0  0  0  0  0  0  0  0  0  0  0  0
  189.7070  176.3220  138.7410 C   0  0  0  0  0  0  0  0  0  0  0  0
  191.3610  176.6750  135.2750 C   0  0  0  0  0  3  0  0  0  0  0  0
  190.1380  176.1310  142.5940 C   0  0  0  0  0  2  0  0  0  0  0  0
  189.3020  176.5290  140.1730 C   0  0  2  0  0  3  0  0  0  0  0  0
  188.5010  178.4050  141.7560 C   0  0  0  0  0  2  0  0  0  0  0  0
  191.3850  177.5620  141.0310 N   0  0  0  0  0  1  0  0  0  0  0  0
  188.4460  177.7990  140.3490 C   0  0  0  0  0  2  0  0  0  0  0  0
  190.5120  176.3980  141.1250 C   0  0  1  0  0  3  0  0  0  0  0  0
  188.6310  176.0870  142.8810 C   0  0  0  0  0  2  0  0  0  0  0  0
  187.9500  177.4680  142.8230 C   0  0  1  0  0  3  0  0  0  0  0  0
  186.4730  178.4310  144.6860 C   0  0  0  0  0  0  0  0  0  0  0  0
  184.1090  179.1490  144.4610 C   0  0  0  0  0  2  0  0  0  0  0  0
  185.4740  178.8960  143.9000 C   0  0  0  0  0  0  0  0  0  0  0  0
  183.8070  178.2210  145.6340 C   0  0  0  0  0  2  0  0  0  0  0  0
  188.7300  177.4970  145.1610 N   0  0  0  0  0  2  0  0  0  0  0  0
  186.2370  178.2790  146.1490 C   0  0  0  0  0  0  0  0  0  0  0  0
  185.7190  179.3610  142.4980 C   0  0  0  0  0  1  0  0  0  0  0  0
  187.2720  178.1540  146.9800 C   0  0  0  0  0  3  0  0  0  0  0  0
  188.6750  178.1810  146.4450 C   0  0  0  0  0  2  0  0  0  0  0  0
  187.9050  178.1990  144.1720 C   0  0  1  0  0  3  0  0  0  0  0  0
  184.8570  178.4140  146.7220 C   0  0  0  0  0  2  0  0  0  0  0  0
  185.4040  179.1620  138.6860 O   0  0  0  0  0  0  0  0  0  0  0  0
  185.3460  178.0120  138.1720 C   0  0  0  0  0  0  0  0  0  0  0  0
  187.8590  177.8040  137.9520 C   0  0  0  0  0  0  0  0  0  0  0  0
  186.5370  177.2630  137.9170 N   0  0  0  0  0  2  0  0  0  0  0  0
  188.0310  179.0440  138.1060 O   0  0  0  0  0  0  0  0  0  0  0  0
  184.0230  177.4340  137.8180 C   0  0  0  0  0  2  0  0  0  0  0  0
  180.9330  175.9640  138.9480 N   0  0  0  0  0  2  0  0  0  0  0  0
  182.2370  175.7990  139.5850 C   0  0  0  0  0  2  0  0  0  0  0  0
  182.9800  177.9920  138.6750 N   0  0  0  0  0  0  0  0  0  0  0  0
  181.6970  178.0510  137.9510 C   0  0  0  0  0  2  0  0  0  0  0  0
  182.8560  177.1660  139.8820 C   0  0  0  0  0  2  0  0  0  0  0  0
  181.1240  176.6560  137.6850 C   0  0  0  0  0  2  0  0  0  0  0  0
  1 31  1  0  0  0  0
  1  8  2  0  0  0  0
  2  9  1  1  0  0  0
  2  5  1  0  0  0  0
  2  6  1  0  0  0  0
  4  9  2  0  0  0  0
  4  3  1  0  0  0  0
  5  3  1  6  0  0  0
  5  1  1  0  0  0  0
  6  7  2  0  0  0  0
  7  8  1  0  0  0  0
 10 16  1  0  0  0  0
 11  8  1  6  0  0  0
 11 14  1  0  0  0  0
 11 15  1  0  0  0  0
 14 12  1  0  0  0  0
 15 13  1  1  0  0  0
 15 10  1  0  0  0  0
 17 12  1  6  0  0  0
 17 16  1  0  0  0  0
 17 27  1  0  0  0  0
 18 23  1  0  0  0  0
 19 21  1  0  0  0  0
 20 19  1  0  0  0  0
 20 18  2  0  0  0  0
 21 28  1  0  0  0  0
 22 26  1  0  0  0  0
 23 28  1  0  0  0  0
 23 25  2  0  0  0  0
 24 20  1  0  0  0  0
 26 25  1  0  0  0  0
 27 18  1  1  0  0  0
 27 22  1  0  0  0  0
 30 29  2  0  0  0  0
 31 33  2  0  0  0  0
 32 31  1  0  0  0  0
 32 30  1  0  0  0  0
 34 30  1  0  0  0  0
 34 37  1  0  0  0  0
 35 36  1  0  0  0  0
 36 39  1  0  0  0  0
 37 39  1  0  0  0  0
 38 37  1  0  0  0  0
 40 38  1  0  0  0  0
 40 35  1  0  0  0  0
M  END
>  <MODEL>
3

>  <REMARK>
 VINA RESULT:      -7.4      2.786      6.444
  Name = 
  5 active torsions:
  status: ('A' for Active; 'I' for Inactive)
    1  A    between atoms: C_1  and  C_20
    2  A    between atoms: N_13  and  C_29
    3  A    between atoms: C_15  and  C_34
    4  A    between atoms: C_19  and  C_29
    5  A    between atoms: C_36  and  C_39
                            x       y       z     vdW  Elec       q    Type
                         _______ _______ _______ _____ _____    ______ ____

>  <TORSDO>
F 5

$$$$
=
 OpenBabel10232412483D

 40 45  0  0  1  0  0  0  0  0999 V2000
  183.6270  178.4120  138.1230 C   0  0  0  0  0  0  0  0  0  0  0  0
  181.3530  179.0900  137.4420 C   0  0  2  0  0  3  0  0  0  0  0  0
  182.4880  180.5200  138.7940 N   0  0  0  0  0  2  0  0  0  0  0  0
  181.6980  181.1920  138.0570 N   0  0  0  0  0  0  0  0  0  0  0  0
  182.3380  179.0920  138.5480 C   0  0  2  0  0  3  0  0  0  0  0  0
  181.3000  177.9810  136.5020 C   0  0  0  0  0  3  0  0  0  0  0  0
  182.3520  177.2200  136.4050 N   0  0  0  0  0  0  0  0  0  0  0  0
  183.5800  177.4700  137.1350 C   0  0  0  0  0  0  0  0  0  0  0  0
  180.9920  180.3290  137.1740 C   0  0  0  0  0  3  0  0  0  0  0  0
  185.7400  174.2480  137.2930 C   0  0  0  0  0  2  0  0  0  0  0  0
  184.7710  176.6070  136.8270 C   0  0  2  0  0  3  0  0  0  0  0  0
  186.1200  175.7390  134.8050 C   0  0  0  0  0  2  0  0  0  0  0  0
  183.5950  174.5420  136.1250 N   0  0  0  0  0  1  0  0  0  0  0  0
  185.3500  176.9070  135.4310 C   0  0  0  0  0  2  0  0  0  0  0  0
  184.4810  175.1200  137.1290 C   0  0  1  0  0  3  0  0  0  0  0  0
  187.0690  174.9850  137.0830 C   0  0  0  0  0  2  0  0  0  0  0  0
  187.3510  175.3450  135.6110 C   0  0  1  0  0  3  0  0  0  0  0  0
  189.6450  174.2810  135.1790 C   0  0  0  0  0  0  0  0  0  0  0  0
  191.8520  175.3620  135.5190 C   0  0  0  0  0  2  0  0  0  0  0  0
  190.3820  175.4150  135.2370 C   0  0  0  0  0  0  0  0  0  0  0  0
  192.2120  174.1570  136.3810 C   0  0  0  0  0  2  0  0  0  0  0  0
  187.5450  172.9510  135.0570 N   0  0  0  0  0  2  0  0  0  0  0  0
  190.3290  172.9620  135.2850 C   0  0  0  0  0  0  0  0  0  0  0  0
  189.8230  176.7450  134.8390 C   0  0  0  0  0  1  0  0  0  0  0  0
  189.6990  171.8530  134.8990 C   0  0  0  0  0  3  0  0  0  0  0  0
  188.3050  171.9330  134.3460 C   0  0  0  0  0  2  0  0  0  0  0  0
  188.1420  174.2740  134.8470 C   0  0  1  0  0  3  0  0  0  0  0  0
  191.7750  172.8770  135.6790 C   0  0  0  0  0  2  0  0  0  0  0  0
  187.0400  178.7900  140.8190 O   0  0  0  0  0  0  0  0  0  0  0  0
  185.8560  178.9040  141.2370 C   0  0  0  0  0  0  0  0  0  0  0  0
  184.8450  178.6610  138.9290 C   0  0  0  0  0  0  0  0  0  0  0  0
  184.7460  178.7180  140.3540 N   0  0  0  0  0  2  0  0  0  0  0  0
  185.9460  178.8940  138.3610 O   0  0  0  0  0  0  0  0  0  0  0  0
  185.6120  179.2470  142.6620 C   0  0  0  0  0  2  0  0  0  0  0  0
  184.1560  179.0390  145.9520 N   0  0  0  0  0  2  0  0  0  0  0  0
  183.4430  179.3890  144.7260 C   0  0  0  0  0  2  0  0  0  0  0  0
  185.0820  178.0900  143.3790 N   0  0  0  0  0  0  0  0  0  0  0  0
  185.8350  177.8700  144.6280 C   0  0  0  0  0  2  0  0  0  0  0  0
  183.6590  178.3110  143.6640 C   0  0  0  0  0  2  0  0  0  0  0  0
  185.5770  178.9770  145.6550 C   0  0  0  0  0  2  0  0  0  0  0  0
  1 31  1  0  0  0  0
  2  6  1  6  0  0  0
  2  5  1  0  0  0  0
  4  3  1  0  0  0  0
  5  1  1  6  0  0  0
  5  3  1  0  0  0  0
  7  6  2  0  0  0  0
  7  8  1  0  0  0  0
  8  1  2  0  0  0  0
  9  2  1  0  0  0  0
  9  4  2  0  0  0  0
 11 15  1  0  0  0  0
 11  8  1  6  0  0  0
 12 14  1  0  0  0  0
 14 11  1  0  0  0  0
 15 13  1  6  0  0  0
 15 10  1  0  0  0  0
 16 10  1  0  0  0  0
 17 12  1  6  0  0  0
 17 16  1  0  0  0  0
 18 20  2  0  0  0  0
 18 23  1  0  0  0  0
 19 21  1  0  0  0  0
 20 19  1  0  0  0  0
 23 28  1  0  0  0  0
 24 20  1  0  0  0  0
 25 23  2  0  0  0  0
 26 25  1  0  0  0  0
 26 22  1  0  0  0  0
 27 22  1  1  0  0  0
 27 18  1  0  0  0  0
 27 17  1  0  0  0  0
 28 21  1  0  0  0  0
 29 30  2  0  0  0  0
 30 34  1  0  0  0  0
 31 32  1  0  0  0  0
 32 30  1  0  0  0  0
 33 31  2  0  0  0  0
 34 37  1  0  0  0  0
 36 35  1  0  0  0  0
 37 39  1  0  0  0  0
 37 38  1  0  0  0  0
 38 40  1  0  0  0  0
 39 36  1  0  0  0  0
 40 35  1  0  0  0  0
M  END
>  <MODEL>
4

>  <REMARK>
 VINA RESULT:      -7.3      3.816      9.076
  Name = 
  5 active torsions:
  status: ('A' for Active; 'I' for Inactive)
    1  A    between atoms: C_1  and  C_20
    2  A    between atoms: N_13  and  C_29
    3  A    between atoms: C_15  and  C_34
    4  A    between atoms: C_19  and  C_29
    5  A    between atoms: C_36  and  C_39
                            x       y       z     vdW  Elec       q    Type
                         _______ _______ _______ _____ _____    ______ ____

>  <TORSDO>
F 5

$$$$
=
 OpenBabel10232412483D

 40 45  0  0  1  0  0  0  0  0999 V2000
  189.5950  175.6840  136.8940 C   0  0  0  0  0  0  0  0  0  0  0  0
  191.2450  173.9900  136.1870 C   0  0  2  0  0  3  0  0  0  0  0  0
  192.0110  175.6870  137.4900 N   0  0  0  0  0  2  0  0  0  0  0  0
  192.7100  174.6500  137.7170 N   0  0  0  0  0  0  0  0  0  0  0  0
  191.0240  175.4320  136.4490 C   0  0  2  0  0  3  0  0  0  0  0  0
  190.1740  173.1630  135.6550 C   0  0  0  0  0  3  0  0  0  0  0  0
  188.9530  173.5940  135.7910 N   0  0  0  0  0  0  0  0  0  0  0  0
  188.6190  174.8140  136.5000 C   0  0  0  0  0  0  0  0  0  0  0  0
  192.2380  173.5560  136.9380 C   0  0  0  0  0  3  0  0  0  0  0  0
  185.2350  176.5600  135.7440 C   0  0  0  0  0  2  0  0  0  0  0  0
  187.1650  175.1280  136.7160 C   0  0  2  0  0  3  0  0  0  0  0  0
  184.8950  173.9270  136.9720 C   0  0  0  0  0  2  0  0  0  0  0  0
  186.3460  174.8280  134.3970 N   0  0  0  0  0  1  0  0  0  0  0  0
  186.3950  173.9190  137.2820 C   0  0  0  0  0  2  0  0  0  0  0  0
  186.5430  175.7960  135.4690 C   0  0  1  0  0  3  0  0  0  0  0  0
  184.7400  176.4930  137.1950 C   0  0  0  0  0  2  0  0  0  0  0  0
  184.1720  175.1170  137.5920 C   0  0  1  0  0  3  0  0  0  0  0  0
  181.8800  176.2680  137.6510 C   0  0  0  0  0  0  0  0  0  0  0  0
  181.2670  178.2480  139.0140 C   0  0  0  0  0  2  0  0  0  0  0  0
  182.0870  177.0220  138.7560 C   0  0  0  0  0  0  0  0  0  0  0  0
  180.7990  178.8910  137.7120 C   0  0  0  0  0  2  0  0  0  0  0  0
  182.3960  174.4710  136.0090 N   0  0  0  0  0  2  0  0  0  0  0  0
  180.7480  176.6030  136.7430 C   0  0  0  0  0  0  0  0  0  0  0  0
  182.9940  176.5780  139.8610 C   0  0  0  0  0  1  0  0  0  0  0  0
  180.3170  175.7050  135.8580 C   0  0  0  0  0  3  0  0  0  0  0  0
  180.9630  174.3510  135.7840 C   0  0  0  0  0  2  0  0  0  0  0  0
  182.6610  174.9740  137.3610 C   0  0  1  0  0  3  0  0  0  0  0  0
  179.9830  177.8840  136.9100 C   0  0  0  0  0  2  0  0  0  0  0  0
  189.0250  179.3100  139.2590 O   0  0  0  0  0  0  0  0  0  0  0  0
  188.8500  178.1650  139.7580 C   0  0  0  0  0  0  0  0  0  0  0  0
  189.2930  176.9660  137.5720 C   0  0  0  0  0  0  0  0  0  0  0  0
  189.0980  176.9850  138.9890 N   0  0  0  0  0  2  0  0  0  0  0  0
  189.1350  178.0200  136.8980 O   0  0  0  0  0  0  0  0  0  0  0  0
  188.3680  178.0420  141.1580 C   0  0  0  0  0  2  0  0  0  0  0  0
  189.5780  177.8390  144.5460 N   0  0  0  0  0  2  0  0  0  0  0  0
  188.2200  177.5300  144.1080 C   0  0  0  0  0  2  0  0  0  0  0  0
  189.0620  176.9530  141.8400 N   0  0  0  0  0  0  0  0  0  0  0  0
  190.3940  177.3970  142.2930 C   0  0  0  0  0  2  0  0  0  0  0  0
  188.2510  176.5010  142.9770 C   0  0  0  0  0  2  0  0  0  0  0  0
  190.3000  178.4210  143.4280 C   0  0  0  0  0  2  0  0  0  0  0  0
  1 31  1  0  0  0  0
  2  6  1  1  0  0  0
  2  5  1  0  0  0  0
  2  9  1  0  0  0  0
  3  4  1  0  0  0  0
  5  1  1  1  0  0  0
  5  3  1  0  0  0  0
  6  7  2  0  0  0  0
  7  8  1  0  0  0  0
  8  1  2  0  0  0  0
  9  4  2  0  0  0  0
 10 16  1  0  0  0  0
 11  8  1  6  0  0  0
 11 14  1  0  0  0  0
 12 14  1  0  0  0  0
 15 13  1  6  0  0  0
 15 10  1  0  0  0  0
 15 11  1  0  0  0  0
 16 17  1  0  0  0  0
 17 12  1  6  0  0  0
 18 20  2  0  0  0  0
 20 19  1  0  0  0  0
 20 24  1  0  0  0  0
 21 19  1  0  0  0  0
 23 28  1  0  0  0  0
 23 18  1  0  0  0  0
 25 23  2  0  0  0  0
 26 25  1  0  0  0  0
 26 22  1  0  0  0  0
 27 22  1  6  0  0  0
 27 17  1  0  0  0  0
 27 18  1  0  0  0  0
 28 21  1  0  0  0  0
 29 30  2  0  0  0  0
 30 34  1  0  0  0  0
 31 32  1  0  0  0  0
 32 30  1  0  0  0  0
 33 31  2  0  0  0  0
 34 37  1  0  0  0  0
 36 35  1  0  0  0  0
 37 38  1  0  0  0  0
 37 39  1  0  0  0  0
 38 40  1  0  0  0  0
 39 36  1  0  0  0  0
 40 35  1  0  0  0  0
M  END
>  <MODEL>
5

>  <REMARK>
 VINA RESULT:      -7.2      2.946      8.007
  Name = 
  5 active torsions:
  status: ('A' for Active; 'I' for Inactive)
    1  A    between atoms: C_1  and  C_20
    2  A    between atoms: N_13  and  C_29
    3  A    between atoms: C_15  and  C_34
    4  A    between atoms: C_19  and  C_29
    5  A    between atoms: C_36  and  C_39
                            x       y       z     vdW  Elec       q    Type
                         _______ _______ _______ _____ _____    ______ ____

>  <TORSDO>
F 5

$$$$
=
 OpenBabel10232412483D

 40 45  0  0  1  0  0  0  0  0999 V2000
  189.7110  176.7270  137.4120 C   0  0  0  0  0  0  0  0  0  0  0  0
  187.6150  177.2250  136.2080 C   0  0  2  0  0  3  0  0  0  0  0  0
  188.0870  178.5110  138.0210 N   0  0  0  0  0  2  0  0  0  0  0  0
  187.4150  179.2030  137.1920 N   0  0  0  0  0  0  0  0  0  0  0  0
  188.2580  177.1460  137.5400 C   0  0  2  0  0  3  0  0  0  0  0  0
  188.0050  176.3140  135.1430 C   0  0  0  0  0  3  0  0  0  0  0  0
  189.1610  175.7240  135.2470 N   0  0  0  0  0  0  0  0  0  0  0  0
  190.0900  175.9870  136.3280 C   0  0  0  0  0  0  0  0  0  0  0  0
  187.1270  178.4370  136.0280 C   0  0  0  0  0  3  0  0  0  0  0  0
  192.8510  173.4340  137.2910 C   0  0  0  0  0  2  0  0  0  0  0  0
  191.4520  175.3550  136.2570 C   0  0  2  0  0  3  0  0  0  0  0  0
  193.0850  174.3570  134.5250 C   0  0  0  0  0  2  0  0  0  0  0  0
  190.7770  172.9800  136.0500 N   0  0  0  0  0  1  0  0  0  0  0  0
  192.0510  175.4430  134.8400 C   0  0  0  0  0  2  0  0  0  0  0  0
  191.4540  173.9510  136.9010 C   0  0  1  0  0  3  0  0  0  0  0  0
  194.0110  174.3720  136.9340 C   0  0  0  0  0  2  0  0  0  0  0  0
  194.3130  174.4350  135.4240 C   0  0  1  0  0  3  0  0  0  0  0  0
  196.7030  173.5400  135.6910 C   0  0  0  0  0  0  0  0  0  0  0  0
  198.6460  174.7910  136.5940 C   0  0  0  0  0  2  0  0  0  0  0  0
  197.3150  174.7280  135.9100 C   0  0  0  0  0  0  0  0  0  0  0  0
  198.8300  173.6310  137.5670 C   0  0  0  0  0  2  0  0  0  0  0  0
  194.8170  172.0540  135.0370 N   0  0  0  0  0  2  0  0  0  0  0  0
  197.4170  172.2790  136.0340 C   0  0  0  0  0  0  0  0  0  0  0  0
  196.8020  176.0050  135.3220 C   0  0  0  0  0  1  0  0  0  0  0  0
  196.9970  171.1190  135.5290 C   0  0  0  0  0  3  0  0  0  0  0  0
  195.8140  171.0840  134.6060 C   0  0  0  0  0  2  0  0  0  0  0  0
  195.3590  173.4140  134.9530 C   0  0  1  0  0  3  0  0  0  0  0  0
  198.6950  172.3100  136.8200 C   0  0  0  0  0  2  0  0  0  0  0  0
  192.0770  177.1190  141.0600 O   0  0  0  0  0  0  0  0  0  0  0  0
  190.8280  177.2940  141.0640 C   0  0  0  0  0  0  0  0  0  0  0  0
  190.6110  176.9730  138.5620 C   0  0  0  0  0  0  0  0  0  0  0  0
  190.0580  177.1030  139.8740 N   0  0  0  0  0  2  0  0  0  0  0  0
  191.8470  177.1410  138.3780 O   0  0  0  0  0  0  0  0  0  0  0  0
  190.1510  177.7130  142.3190 C   0  0  0  0  0  2  0  0  0  0  0  0
  188.2690  177.4260  145.3790 N   0  0  0  0  0  2  0  0  0  0  0  0
  187.7390  177.2320  144.0320 C   0  0  0  0  0  2  0  0  0  0  0  0
  189.9940  176.5720  143.2170 N   0  0  0  0  0  0  0  0  0  0  0  0
  190.5040  176.9030  144.5610 C   0  0  0  0  0  2  0  0  0  0  0  0
  188.5770  176.1980  143.2780 C   0  0  0  0  0  2  0  0  0  0  0  0
  189.6250  177.9380  145.2690 C   0  0  0  0  0  2  0  0  0  0  0  0
  1 31  1  0  0  0  0
  2  6  1  6  0  0  0
  2  5  1  0  0  0  0
  4  3  1  0  0  0  0
  5  1  1  6  0  0  0
  5  3  1  0  0  0  0
  6  7  2  0  0  0  0
  7  8  1  0  0  0  0
  8  1  2  0  0  0  0
  9  2  1  0  0  0  0
  9  4  2  0  0  0  0
 11  8  1  6  0  0  0
 11 15  1  0  0  0  0
 12 14  1  0  0  0  0
 14 11  1  0  0  0  0
 15 13  1  6  0  0  0
 15 10  1  0  0  0  0
 16 10  1  0  0  0  0
 17 12  1  6  0  0  0
 17 16  1  0  0  0  0
 18 20  2  0  0  0  0
 18 23  1  0  0  0  0
 19 21  1  0  0  0  0
 20 19  1  0  0  0  0
 23 28  1  0  0  0  0
 24 20  1  0  0  0  0
 25 23  2  0  0  0  0
 26 22  1  0  0  0  0
 26 25  1  0  0  0  0
 27 22  1  1  0  0  0
 27 17  1  0  0  0  0
 27 18  1  0  0  0  0
 28 21  1  0  0  0  0
 29 30  2  0  0  0  0
 30 34  1  0  0  0  0
 31 32  1  0  0  0  0
 32 30  1  0  0  0  0
 33 31  2  0  0  0  0
 34 37  1  0  0  0  0
 36 35  1  0  0  0  0
 37 39  1  0  0  0  0
 37 38  1  0  0  0  0
 38 40  1  0  0  0  0
 39 36  1  0  0  0  0
 40 35  1  0  0  0  0
M  END
>  <MODEL>
6

>  <REMARK>
 VINA RESULT:      -7.2      2.506      8.824
  Name = 
  5 active torsions:
  status: ('A' for Active; 'I' for Inactive)
    1  A    between atoms: C_1  and  C_20
    2  A    between atoms: N_13  and  C_29
    3  A    between atoms: C_15  and  C_34
    4  A    between atoms: C_19  and  C_29
    5  A    between atoms: C_36  and  C_39
                            x       y       z     vdW  Elec       q    Type
                         _______ _______ _______ _____ _____    ______ ____

>  <TORSDO>
F 5

$$$$
=
 OpenBabel10232412483D

 40 45  0  0  1  0  0  0  0  0999 V2000
  187.3060  177.2930  144.4410 C   0  0  0  0  0  0  0  0  0  0  0  0
  187.3630  177.8960  146.8340 C   0  0  2  0  0  3  0  0  0  0  0  0
  189.3270  177.2510  145.8910 N   0  0  0  0  0  2  0  0  0  0  0  0
  189.5730  178.0760  146.8270 N   0  0  0  0  0  0  0  0  0  0  0  0
  187.8980  176.9780  145.8020 C   0  0  2  0  0  3  0  0  0  0  0  0
  185.9980  178.3900  146.7460 C   0  0  0  0  0  3  0  0  0  0  0  0
  185.4120  178.3430  145.5840 N   0  0  0  0  0  0  0  0  0  0  0  0
  186.0780  177.8880  144.3790 C   0  0  0  0  0  0  0  0  0  0  0  0
  188.3610  178.5250  147.4220 C   0  0  0  0  0  3  0  0  0  0  0  0
  182.9430  178.1530  142.1060 C   0  0  0  0  0  2  0  0  0  0  0  0
  185.3440  178.0200  143.0750 C   0  0  2  0  0  3  0  0  0  0  0  0
  185.2640  179.5380  140.9890 C   0  0  0  0  0  2  0  0  0  0  0  0
  183.7810  179.8450  143.6820 N   0  0  0  0  0  1  0  0  0  0  0  0
  186.1340  178.8610  142.0540 C   0  0  0  0  0  2  0  0  0  0  0  0
  183.8740  178.4410  143.2980 C   0  0  1  0  0  3  0  0  0  0  0  0
  183.6330  177.5420  140.8790 C   0  0  0  0  0  2  0  0  0  0  0  0
  184.5230  178.5380  140.1100 C   0  0  1  0  0  3  0  0  0  0  0  0
  182.9810  178.3550  138.0690 C   0  0  0  0  0  0  0  0  0  0  0  0
  182.6480  176.3430  136.6560 C   0  0  0  0  0  2  0  0  0  0  0  0
  183.4670  177.1900  137.5810 C   0  0  0  0  0  0  0  0  0  0  0  0
  181.1550  176.5130  136.9180 C   0  0  0  0  0  2  0  0  0  0  0  0
  182.9700  180.3640  139.5380 N   0  0  0  0  0  2  0  0  0  0  0  0
  181.6610  178.8510  137.5880 C   0  0  0  0  0  0  0  0  0  0  0  0
  184.8930  176.7820  137.7760 C   0  0  0  0  0  1  0  0  0  0  0  0
  181.3190  180.1250  137.7810 C   0  0  0  0  0  3  0  0  0  0  0  0
  182.2680  181.0630  138.4710 C   0  0  0  0  0  2  0  0  0  0  0  0
  183.7960  179.2850  138.9840 C   0  0  1  0  0  3  0  0  0  0  0  0
  180.7700  177.9780  136.7540 C   0  0  0  0  0  2  0  0  0  0  0  0
  189.6240  176.1630  140.9180 O   0  0  0  0  0  0  0  0  0  0  0  0
  189.0250  177.2710  140.9830 C   0  0  0  0  0  0  0  0  0  0  0  0
  187.9960  176.7660  143.2410 C   0  0  0  0  0  0  0  0  0  0  0  0
  188.3190  177.6530  142.1670 N   0  0  0  0  0  2  0  0  0  0  0  0
  188.2320  175.5320  143.1340 O   0  0  0  0  0  0  0  0  0  0  0  0
  189.0440  178.1850  139.8110 C   0  0  0  0  0  2  0  0  0  0  0  0
  189.3670  177.9760  136.2280 N   0  0  0  0  0  2  0  0  0  0  0  0
  189.7830  176.9500  137.1820 C   0  0  0  0  0  2  0  0  0  0  0  0
  188.0780  177.7430  138.8090 N   0  0  0  0  0  0  0  0  0  0  0  0
  187.7810  178.8380  137.8650 C   0  0  0  0  0  2  0  0  0  0  0  0
  188.6170  176.5780  138.0990 C   0  0  0  0  0  2  0  0  0  0  0  0
  188.9820  179.1630  136.9710 C   0  0  0  0  0  2  0  0  0  0  0  0
  2  6  1  6  0  0  0
  2  9  1  0  0  0  0
  3  4  1  0  0  0  0
  4  9  2  0  0  0  0
  5  1  1  6  0  0  0
  5  3  1  0  0  0  0
  5  2  1  0  0  0  0
  7  6  2  0  0  0  0
  8  1  2  0  0  0  0
  8  7  1  0  0  0  0
 10 15  1  0  0  0  0
 11 15  1  0  0  0  0
 11  8  1  1  0  0  0
 12 14  1  0  0  0  0
 14 11  1  0  0  0  0
 15 13  1  6  0  0  0
 16 10  1  0  0  0  0
 17 16  1  1  0  0  0
 17 12  1  0  0  0  0
 19 21  1  0  0  0  0
 19 20  1  0  0  0  0
 20 24  1  0  0  0  0
 20 18  2  0  0  0  0
 23 25  2  0  0  0  0
 23 18  1  0  0  0  0
 25 26  1  0  0  0  0
 26 22  1  0  0  0  0
 27 18  1  1  0  0  0
 27 22  1  0  0  0  0
 27 17  1  0  0  0  0
 28 21  1  0  0  0  0
 28 23  1  0  0  0  0
 29 30  2  0  0  0  0
 30 32  1  0  0  0  0
 31  1  1  0  0  0  0
 32 31  1  0  0  0  0
 33 31  2  0  0  0  0
 34 30  1  0  0  0  0
 35 40  1  0  0  0  0
 35 36  1  0  0  0  0
 36 39  1  0  0  0  0
 37 34  1  0  0  0  0
 38 37  1  0  0  0  0
 39 37  1  0  0  0  0
 40 38  1  0  0  0  0
M  END
>  <MODEL>
7

>  <REMARK>
 VINA RESULT:      -7.1      3.371      8.580
  Name = 
  5 active torsions:
  status: ('A' for Active; 'I' for Inactive)
    1  A    between atoms: C_1  and  C_20
    2  A    between atoms: N_13  and  C_29
    3  A    between atoms: C_15  and  C_34
    4  A    between atoms: C_19  and  C_29
    5  A    between atoms: C_36  and  C_39
                            x       y       z     vdW  Elec       q    Type
                         _______ _______ _______ _____ _____    ______ ____

>  <TORSDO>
F 5

$$$$
=
 OpenBabel10232412483D

 40 45  0  0  1  0  0  0  0  0999 V2000
  191.6920  175.9890  137.8520 C   0  0  0  0  0  0  0  0  0  0  0  0
  192.7850  174.6640  136.0790 C   0  0  2  0  0  3  0  0  0  0  0  0
  193.8390  174.7540  138.0900 N   0  0  0  0  0  2  0  0  0  0  0  0
  194.1100  173.6420  137.5350 N   0  0  0  0  0  0  0  0  0  0  0  0
  193.0110  175.5800  137.2210 C   0  0  2  0  0  3  0  0  0  0  0  0
  191.6050  174.8050  135.2410 C   0  0  0  0  0  3  0  0  0  0  0  0
  190.5900  175.4570  135.7310 N   0  0  0  0  0  0  0  0  0  0  0  0
  190.5640  175.9800  137.0830 C   0  0  0  0  0  0  0  0  0  0  0  0
  193.4400  173.5380  136.2840 C   0  0  0  0  0  3  0  0  0  0  0  0
  188.3280  178.7710  138.5930 C   0  0  0  0  0  2  0  0  0  0  0  0
  189.2800  176.5830  137.5800 C   0  0  2  0  0  3  0  0  0  0  0  0
  186.8490  176.9850  136.8100 C   0  0  0  0  0  2  0  0  0  0  0  0
  189.3540  178.7380  136.3590 N   0  0  0  0  0  1  0  0  0  0  0  0
  188.0580  176.0420  136.8140 C   0  0  0  0  0  2  0  0  0  0  0  0
  189.3840  178.1210  137.6800 C   0  0  1  0  0  3  0  0  0  0  0  0
  187.3200  177.7940  139.2140 C   0  0  0  0  0  2  0  0  0  0  0  0
  186.2960  177.2380  138.2060 C   0  0  1  0  0  3  0  0  0  0  0  0
  183.7400  177.2580  138.4260 C   0  0  0  0  0  0  0  0  0  0  0  0
  182.2350  175.2950  138.2370 C   0  0  0  0  0  2  0  0  0  0  0  0
  183.5080  176.0210  137.9270 C   0  0  0  0  0  0  0  0  0  0  0  0
  181.6760  175.7010  139.5960 C   0  0  0  0  0  2  0  0  0  0  0  0
  185.1100  179.2730  138.9330 N   0  0  0  0  0  2  0  0  0  0  0  0
  182.6660  177.9450  139.1980 C   0  0  0  0  0  0  0  0  0  0  0  0
  184.4020  175.3990  136.9020 C   0  0  0  0  0  1  0  0  0  0  0  0
  182.7330  179.2600  139.4040 C   0  0  0  0  0  3  0  0  0  0  0  0
  183.8830  180.0520  138.8480 C   0  0  0  0  0  2  0  0  0  0  0  0
  185.0080  178.0680  138.1040 C   0  0  1  0  0  3  0  0  0  0  0  0
  181.4310  177.2050  139.6190 C   0  0  0  0  0  2  0  0  0  0  0  0
  191.6380  177.2190  142.0410 O   0  0  0  0  0  0  0  0  0  0  0  0
  190.6340  176.6790  141.5010 C   0  0  0  0  0  0  0  0  0  0  0  0
  191.7210  176.5630  139.2170 C   0  0  0  0  0  0  0  0  0  0  0  0
  190.6870  176.2260  140.1450 N   0  0  0  0  0  2  0  0  0  0  0  0
  192.6090  177.3990  139.5360 O   0  0  0  0  0  0  0  0  0  0  0  0
  189.3790  176.5210  142.2810 C   0  0  0  0  0  2  0  0  0  0  0  0
  187.7560  177.4500  145.3610 N   0  0  0  0  0  2  0  0  0  0  0  0
  189.1990  177.3670  145.1510 C   0  0  0  0  0  2  0  0  0  0  0  0
  188.8910  177.8240  142.7260 N   0  0  0  0  0  0  0  0  0  0  0  0
  187.4370  177.7730  142.9680 C   0  0  0  0  0  2  0  0  0  0  0  0
  189.6070  178.2160  143.9460 C   0  0  0  0  0  2  0  0  0  0  0  0
  187.0890  176.9140  144.1870 C   0  0  0  0  0  2  0  0  0  0  0  0
  1 31  1  0  0  0  0
  2  6  1  1  0  0  0
  2  9  1  0  0  0  0
  2  5  1  0  0  0  0
  4  3  1  0  0  0  0
  5  1  1  1  0  0  0
  5  3  1  0  0  0  0
  6  7  2  0  0  0  0
  7  8  1  0  0  0  0
  8  1  2  0  0  0  0
  9  4  2  0  0  0  0
 10 16  1  0  0  0  0
 11  8  1  6  0  0  0
 11 15  1  0  0  0  0
 12 14  1  0  0  0  0
 14 11  1  0  0  0  0
 15 13  1  6  0  0  0
 15 10  1  0  0  0  0
 17 12  1  6  0  0  0
 17 16  1  0  0  0  0
 18 23  1  0  0  0  0
 19 21  1  0  0  0  0
 20 19  1  0  0  0  0
 20 18  2  0  0  0  0
 21 28  1  0  0  0  0
 23 25  2  0  0  0  0
 23 28  1  0  0  0  0
 24 20  1  0  0  0  0
 26 22  1  0  0  0  0
 26 25  1  0  0  0  0
 27 17  1  0  0  0  0
 27 18  1  1  0  0  0
 27 22  1  0  0  0  0
 30 29  2  0  0  0  0
 30 34  1  0  0  0  0
 31 33  2  0  0  0  0
 31 32  1  0  0  0  0
 32 30  1  0  0  0  0
 34 37  1  0  0  0  0
 36 35  1  0  0  0  0
 37 38  1  0  0  0  0
 37 39  1  0  0  0  0
 38 40  1  0  0  0  0
 39 36  1  0  0  0  0
 40 35  1  0  0  0  0
M  END
>  <MODEL>
8

>  <REMARK>
 VINA RESULT:      -6.9      2.732      7.290
  Name = 
  5 active torsions:
  status: ('A' for Active; 'I' for Inactive)
    1  A    between atoms: C_1  and  C_20
    2  A    between atoms: N_13  and  C_29
    3  A    between atoms: C_15  and  C_34
    4  A    between atoms: C_19  and  C_29
    5  A    between atoms: C_36  and  C_39
                            x       y       z     vdW  Elec       q    Type
                         _______ _______ _______ _____ _____    ______ ____

>  <TORSDO>
F 5

$$$$
=
 OpenBabel10232412483D

 40 45  0  0  1  0  0  0  0  0999 V2000
  182.9890  179.1520  139.8850 C   0  0  0  0  0  0  0  0  0  0  0  0
  180.5780  179.1100  139.3590 C   0  0  2  0  0  3  0  0  0  0  0  0
  182.0080  178.6460  137.6550 N   0  0  0  0  0  2  0  0  0  0  0  0
  180.9200  178.0160  137.4600 N   0  0  0  0  0  0  0  0  0  0  0  0
  181.9230  179.4710  138.8540 C   0  0  2  0  0  3  0  0  0  0  0  0
  180.2630  179.2320  140.7740 C   0  0  0  0  0  3  0  0  0  0  0  0
  181.2580  179.2720  141.6130 N   0  0  0  0  0  0  0  0  0  0  0  0
  182.6430  179.1330  141.2060 C   0  0  0  0  0  0  0  0  0  0  0  0
  180.0100  178.2600  138.5260 C   0  0  0  0  0  3  0  0  0  0  0  0
  184.1500  179.7900  144.7220 C   0  0  0  0  0  2  0  0  0  0  0  0
  183.6880  179.0470  142.2820 C   0  0  2  0  0  3  0  0  0  0  0  0
  185.1020  177.2900  143.5380 C   0  0  0  0  0  2  0  0  0  0  0  0
  182.2570  178.3200  144.1690 N   0  0  0  0  0  1  0  0  0  0  0  0
  184.4830  177.7290  142.2060 C   0  0  0  0  0  2  0  0  0  0  0  0
  183.1000  179.3990  143.6660 C   0  0  1  0  0  3  0  0  0  0  0  0
  185.6060  179.7200  144.2430 C   0  0  0  0  0  2  0  0  0  0  0  0
  186.1310  178.2830  144.0640 C   0  0  1  0  0  3  0  0  0  0  0  0
  188.3170  177.4750  145.1370 C   0  0  0  0  0  0  0  0  0  0  0  0
  190.3230  176.6470  143.9350 C   0  0  0  0  0  2  0  0  0  0  0  0
  188.8490  176.8880  144.0390 C   0  0  0  0  0  0  0  0  0  0  0  0
  191.1160  177.6860  144.7210 C   0  0  0  0  0  2  0  0  0  0  0  0
  186.5180  178.5420  146.4850 N   0  0  0  0  0  2  0  0  0  0  0  0
  189.1990  177.7800  146.2980 C   0  0  0  0  0  0  0  0  0  0  0  0
  187.9930  176.2810  142.9720 C   0  0  0  0  0  1  0  0  0  0  0  0
  188.6620  178.0350  147.4920 C   0  0  0  0  0  3  0  0  0  0  0  0
  187.1710  178.0030  147.6690 C   0  0  0  0  0  2  0  0  0  0  0  0
  186.8060  177.7040  145.3160 C   0  0  1  0  0  3  0  0  0  0  0  0
  190.6900  177.6560  146.1840 C   0  0  0  0  0  2  0  0  0  0  0  0
  186.9480  178.7900  138.0800 O   0  0  0  0  0  0  0  0  0  0  0  0
  186.1010  177.8590  138.0000 C   0  0  0  0  0  0  0  0  0  0  0  0
  184.3960  179.0680  139.4290 C   0  0  0  0  0  0  0  0  0  0  0  0
  184.7880  178.0150  138.5440 N   0  0  0  0  0  2  0  0  0  0  0  0
  185.2580  179.8720  139.8750 O   0  0  0  0  0  0  0  0  0  0  0  0
  186.4780  176.5810  137.3430 C   0  0  0  0  0  2  0  0  0  0  0  0
  188.2210  174.3160  135.1470 N   0  0  0  0  0  2  0  0  0  0  0  0
  187.2800  175.3520  134.7290 C   0  0  0  0  0  2  0  0  0  0  0  0
  187.8130  176.6840  136.7610 N   0  0  0  0  0  0  0  0  0  0  0  0
  188.6540  175.5540  137.2000 C   0  0  0  0  0  2  0  0  0  0  0  0
  187.7010  176.7080  135.2980 C   0  0  0  0  0  2  0  0  0  0  0  0
  188.1880  174.2250  136.5970 C   0  0  0  0  0  2  0  0  0  0  0  0
  1  8  2  0  0  0  0
  2  9  1  1  0  0  0
  2  6  1  0  0  0  0
  4  3  1  0  0  0  0
  4  9  2  0  0  0  0
  5  3  1  6  0  0  0
  5  2  1  0  0  0  0
  5  1  1  0  0  0  0
  6  7  2  0  0  0  0
  8  7  1  0  0  0  0
 11  8  1  6  0  0  0
 11 15  1  0  0  0  0
 14 11  1  0  0  0  0
 14 12  1  0  0  0  0
 15 13  1  1  0  0  0
 15 10  1  0  0  0  0
 16 10  1  0  0  0  0
 17 12  1  1  0  0  0
 17 16  1  0  0  0  0
 17 27  1  0  0  0  0
 18 23  1  0  0  0  0
 19 20  1  0  0  0  0
 19 21  1  0  0  0  0
 20 18  2  0  0  0  0
 21 28  1  0  0  0  0
 22 26  1  0  0  0  0
 23 25  2  0  0  0  0
 24 20  1  0  0  0  0
 25 26  1  0  0  0  0
 27 18  1  6  0  0  0
 27 22  1  0  0  0  0
 28 23  1  0  0  0  0
 30 29  2  0  0  0  0
 30 32  1  0  0  0  0
 31 33  2  0  0  0  0
 31  1  1  0  0  0  0
 32 31  1  0  0  0  0
 34 30  1  0  0  0  0
 35 40  1  0  0  0  0
 36 35  1  0  0  0  0
 36 39  1  0  0  0  0
 37 38  1  0  0  0  0
 37 34  1  0  0  0  0
 39 37  1  0  0  0  0
 40 38  1  0  0  0  0
M  END
>  <MODEL>
9

>  <REMARK>
 VINA RESULT:      -6.9      3.702      5.963
  Name = 
  5 active torsions:
  status: ('A' for Active; 'I' for Inactive)
    1  A    between atoms: C_1  and  C_20
    2  A    between atoms: N_13  and  C_29
    3  A    between atoms: C_15  and  C_34
    4  A    between atoms: C_19  and  C_29
    5  A    between atoms: C_36  and  C_39
                            x       y       z     vdW  Elec       q    Type
                         _______ _______ _______ _____ _____    ______ ____

>  <TORSDO>
F 5

$$$$
