=
 OpenBabel10222421313D

 34 36  0  0  1  0  0  0  0  0999 V2000
  188.0610  177.7910  146.8030 C   0  0  2  0  0  3  0  0  0  0  0  0
  186.3560  177.9290  147.4140 S   0  0  0  0  0  0  0  0  0  0  0  0
  188.0330  177.1300  145.4380 C   0  0  1  0  0  3  0  0  0  0  0  0
  186.7890  177.6110  144.7140 C   0  0  1  0  0  3  0  0  0  0  0  0
  186.3420  176.5780  143.6980 C   0  0  0  0  0  1  0  0  0  0  0  0
  185.6770  177.8590  145.7260 C   0  0  2  0  0  3  0  0  0  0  0  0
  189.2810  177.4220  144.6520 C   0  0  0  0  0  0  0  0  0  0  0  0
  189.8920  178.5900  144.8840 C   0  0  0  0  0  3  0  0  0  0  0  0
  191.1240  179.0860  144.2450 C   0  0  0  0  0  0  0  0  0  0  0  0
  192.3630  178.4650  144.5660 N   0  0  0  0  0  1  0  0  0  0  0  0
  191.1080  180.0430  143.4280 O   0  0  0  0  0  0  0  0  0  0  0  0
  189.8250  176.4080  143.6810 C   0  0  0  0  0  2  0  0  0  0  0  0
  190.9710  176.8800  141.4960 C   0  0  0  0  0  3  0  0  0  0  0  0
  189.8120  176.9230  142.2800 C   0  0  0  0  0  0  0  0  0  0  0  0
  189.7530  177.8400  139.6370 C   0  0  0  0  0  0  0  0  0  0  0  0
  188.5950  177.8860  140.4190 C   0  0  0  0  0  3  0  0  0  0  0  0
  190.9410  177.3390  140.1770 C   0  0  0  0  0  3  0  0  0  0  0  0
  189.7230  178.2830  138.3570 F   0  0  0  0  0  0  0  0  0  0  0  0
  188.6240  177.4280  141.7390 C   0  0  0  0  0  3  0  0  0  0  0  0
  184.9610  179.1680  145.4220 C   0  0  0  0  0  2  0  0  0  0  0  0
  183.5970  178.9320  144.7850 C   0  0  0  0  0  2  0  0  0  0  0  0
  183.5090  179.5580  143.4000 C   0  0  0  0  0  2  0  0  0  0  0  0
  183.2260  178.7230  141.1290 N   0  0  0  0  0  2  0  0  0  0  0  0
  184.0280  178.6080  142.3280 C   0  0  1  0  0  3  0  0  0  0  0  0
  185.1860  179.1720  141.7000 C   0  0  0  0  0  2  0  0  0  0  0  0
  184.6320  179.7030  139.2730 O   0  0  0  0  0  0  0  0  0  0  0  0
  184.3970  179.2900  140.4370 C   0  0  0  0  0  0  0  0  0  0  0  0
  188.9170  177.0710  147.7470 N   0  0  0  0  0  2  0  0  0  0  0  0
  189.8610  177.9620  148.2830 N   0  0  0  0  0  2  0  0  0  0  0  0
  191.1620  177.3460  148.1020 C   0  0  0  0  0  2  0  0  0  0  0  0
  191.0170  176.1560  147.3880 O   0  0  0  0  0  0  0  0  0  0  0  0
  193.1120  175.4430  147.9290 O   0  0  0  0  0  1  0  0  0  0  0  0
  192.2910  175.8810  146.8900 C   0  0  1  0  0  3  0  0  0  0  0  0
  192.1990  174.8010  145.8310 C   0  0  0  0  0  1  0  0  0  0  0  0
  1  2  1  0  0  0  0
  1 28  1  1  0  0  0
  3  7  1  6  0  0  0
  3  1  1  0  0  0  0
  4  5  1  6  0  0  0
  4  3  1  0  0  0  0
  4  6  1  0  0  0  0
  6 20  1  6  0  0  0
  6  2  1  0  0  0  0
  7  8  2  0  0  0  0
  9 10  1  0  0  0  0
  9  8  1  0  0  0  0
 11  9  2  0  0  0  0
 12  7  1  0  0  0  0
 13 14  1  0  0  0  0
 14 12  1  0  0  0  0
 15 17  1  0  0  0  0
 15 16  2  0  0  0  0
 16 19  1  0  0  0  0
 17 13  2  0  0  0  0
 18 15  1  0  0  0  0
 19 14  2  0  0  0  0
 21 20  1  0  0  0  0
 22 21  1  0  0  0  0
 23 24  1  0  0  0  0
 24 22  1  1  0  0  0
 25 24  1  0  0  0  0
 26 27  2  0  0  0  0
 27 23  1  0  0  0  0
 27 25  1  0  0  0  0
 28 29  1  0  0  0  0
 30 29  1  0  0  0  0
 31 30  1  0  0  0  0
 33 34  1  6  0  0  0
 33 31  1  0  0  0  0
 33 32  1  0  0  0  0
M  END
>  <MODEL>
1

>  <REMARK>
 VINA RESULT:      -6.6      0.000      0.000
  Name = 
  13 active torsions:
  status: ('A' for Active; 'I' for Inactive)
    1  A    between atoms: C_2  and  C_21
    2  A    between atoms: C_2  and  C_34
    3  A    between atoms: C_3  and  C_19
    4  A    between atoms: C_3  and  C_30
    5  A    between atoms: C_4  and  C_30
    6  A    between atoms: C_5  and  C_28
    7  A    between atoms: C_6  and  N_9
    8  A    between atoms: N_9  and  N_29
    9  A    between atoms: C_12  and  C_18
   10  A    between atoms: C_15  and  O_25
   11  A    between atoms: C_18  and  C_21
   12  A    between atoms: O_25  and  C_26
   13  A    between atoms: C_26  and  N_29
                            x       y       z     vdW  Elec       q    Type
                         _______ _______ _______ _____ _____    ______ ____

>  <TORSDO>
F 13

$$$$
=
 OpenBabel10222421313D

 34 36  0  0  1  0  0  0  0  0999 V2000
  188.3250  177.8340  139.3140 C   0  0  2  0  0  3  0  0  0  0  0  0
  188.0410  178.3920  141.0180 S   0  0  0  0  0  0  0  0  0  0  0  0
  189.8050  177.5550  139.1360 C   0  0  1  0  0  3  0  0  0  0  0  0
  190.3280  176.9740  140.4370 C   0  0  1  0  0  3  0  0  0  0  0  0
  191.8080  177.2690  140.5850 C   0  0  0  0  0  1  0  0  0  0  0  0
  189.5590  177.5750  141.6070 C   0  0  2  0  0  3  0  0  0  0  0  0
  190.0650  176.6390  137.9740 C   0  0  0  0  0  0  0  0  0  0  0  0
  189.4070  175.4730  137.9540 C   0  0  0  0  0  3  0  0  0  0  0  0
  189.4930  174.4260  136.9200 C   0  0  0  0  0  0  0  0  0  0  0  0
  190.3120  173.2890  137.1600 N   0  0  0  0  0  1  0  0  0  0  0  0
  188.8650  174.5160  135.8330 O   0  0  0  0  0  0  0  0  0  0  0  0
  190.9980  177.0550  136.8680 C   0  0  0  0  0  2  0  0  0  0  0  0
  192.5870  175.6060  135.5700 C   0  0  0  0  0  3  0  0  0  0  0  0
  192.1950  176.1660  136.7920 C   0  0  0  0  0  0  0  0  0  0  0  0
  194.4750  174.5490  136.6590 C   0  0  0  0  0  0  0  0  0  0  0  0
  194.0830  175.1060  137.8800 C   0  0  0  0  0  3  0  0  0  0  0  0
  193.7260  174.7980  135.5050 C   0  0  0  0  0  3  0  0  0  0  0  0
  195.5800  173.7670  136.5950 F   0  0  0  0  0  0  0  0  0  0  0  0
  192.9440  175.9140  137.9460 C   0  0  0  0  0  3  0  0  0  0  0  0
  189.1840  176.4930  142.6110 C   0  0  0  0  0  2  0  0  0  0  0  0
  189.7310  176.7960  144.0000 C   0  0  0  0  0  2  0  0  0  0  0  0
  188.8960  177.8500  144.7140 C   0  0  0  0  0  2  0  0  0  0  0  0
  187.4190  177.7000  146.6450 N   0  0  0  0  0  2  0  0  0  0  0  0
  187.6160  177.2510  145.2840 C   0  0  1  0  0  3  0  0  0  0  0  0
  186.4810  177.9790  144.7980 C   0  0  0  0  0  2  0  0  0  0  0  0
  185.3740  179.1800  146.7510 O   0  0  0  0  0  0  0  0  0  0  0  0
  186.2330  178.4490  146.1940 C   0  0  0  0  0  0  0  0  0  0  0  0
  187.8260  178.8050  138.3370 N   0  0  0  0  0  2  0  0  0  0  0  0
  187.0200  178.1390  137.3990 N   0  0  0  0  0  2  0  0  0  0  0  0
  185.7090  177.9990  138.0020 C   0  0  0  0  0  2  0  0  0  0  0  0
  185.2250  179.2590  138.3560 O   0  0  0  0  0  0  0  0  0  0  0  0
  184.9290  179.6880  140.5750 O   0  0  0  0  0  1  0  0  0  0  0  0
  184.4070  179.0280  139.4640 C   0  0  1  0  0  3  0  0  0  0  0  0
  183.0120  179.5480  139.1800 C   0  0  0  0  0  1  0  0  0  0  0  0
  1 28  1  6  0  0  0
  1  2  1  0  0  0  0
  2  6  1  0  0  0  0
  3  7  1  6  0  0  0
  3  1  1  0  0  0  0
  3  4  1  0  0  0  0
  4  5  1  1  0  0  0
  4  6  1  0  0  0  0
  6 20  1  1  0  0  0
  8  7  2  0  0  0  0
  9 10  1  0  0  0  0
  9  8  1  0  0  0  0
 11  9  2  0  0  0  0
 12  7  1  0  0  0  0
 13 14  1  0  0  0  0
 14 12  1  0  0  0  0
 14 19  2  0  0  0  0
 15 16  2  0  0  0  0
 16 19  1  0  0  0  0
 17 13  2  0  0  0  0
 17 15  1  0  0  0  0
 18 15  1  0  0  0  0
 20 21  1  0  0  0  0
 21 22  1  0  0  0  0
 24 22  1  6  0  0  0
 24 23  1  0  0  0  0
 25 24  1  0  0  0  0
 25 27  1  0  0  0  0
 27 23  1  0  0  0  0
 27 26  2  0  0  0  0
 29 30  1  0  0  0  0
 29 28  1  0  0  0  0
 30 31  1  0  0  0  0
 31 33  1  0  0  0  0
 33 34  1  6  0  0  0
 33 32  1  0  0  0  0
M  END
>  <MODEL>
2

>  <REMARK>
 VINA RESULT:      -6.6      4.036      7.913
  Name = 
  13 active torsions:
  status: ('A' for Active; 'I' for Inactive)
    1  A    between atoms: C_2  and  C_21
    2  A    between atoms: C_2  and  C_34
    3  A    between atoms: C_3  and  C_19
    4  A    between atoms: C_3  and  C_30
    5  A    between atoms: C_4  and  C_30
    6  A    between atoms: C_5  and  C_28
    7  A    between atoms: C_6  and  N_9
    8  A    between atoms: N_9  and  N_29
    9  A    between atoms: C_12  and  C_18
   10  A    between atoms: C_15  and  O_25
   11  A    between atoms: C_18  and  C_21
   12  A    between atoms: O_25  and  C_26
   13  A    between atoms: C_26  and  N_29
                            x       y       z     vdW  Elec       q    Type
                         _______ _______ _______ _____ _____    ______ ____

>  <TORSDO>
F 13

$$$$
=
 OpenBabel10222421313D

 34 36  0  0  1  0  0  0  0  0999 V2000
  188.2830  177.6470  140.4920 C   0  0  2  0  0  3  0  0  0  0  0  0
  188.5350  177.7720  142.2860 S   0  0  0  0  0  0  0  0  0  0  0  0
  189.6320  177.7470  139.8050 C   0  0  1  0  0  3  0  0  0  0  0  0
  190.6530  177.0470  140.6830 C   0  0  1  0  0  3  0  0  0  0  0  0
  192.0330  177.6280  140.4470 C   0  0  0  0  0  1  0  0  0  0  0  0
  190.2630  177.2130  142.1470 C   0  0  2  0  0  3  0  0  0  0  0  0
  189.5970  177.1650  138.4200 C   0  0  0  0  0  0  0  0  0  0  0  0
  189.6790  175.8320  138.3130 C   0  0  0  0  0  3  0  0  0  0  0  0
  189.6580  175.0420  137.0690 C   0  0  0  0  0  0  0  0  0  0  0  0
  188.5010  174.2730  136.7640 N   0  0  0  0  0  1  0  0  0  0  0  0
  190.6350  175.0290  136.2760 O   0  0  0  0  0  0  0  0  0  0  0  0
  189.4350  178.0600  137.2210 C   0  0  0  0  0  2  0  0  0  0  0  0
  186.9580  177.6470  137.1450 C   0  0  0  0  0  3  0  0  0  0  0  0
  188.1810  177.7550  136.4710 C   0  0  0  0  0  0  0  0  0  0  0  0
  185.8310  177.2410  135.0400 C   0  0  0  0  0  0  0  0  0  0  0  0
  187.0510  177.3470  134.3660 C   0  0  0  0  0  3  0  0  0  0  0  0
  185.7850  177.3900  136.4290 C   0  0  0  0  0  3  0  0  0  0  0  0
  184.6940  176.9940  134.3460 F   0  0  0  0  0  0  0  0  0  0  0  0
  188.2250  177.6040  135.0810 C   0  0  0  0  0  3  0  0  0  0  0  0
  190.4210  175.8950  142.8940 C   0  0  0  0  0  2  0  0  0  0  0  0
  191.5150  175.9720  143.9510 C   0  0  0  0  0  2  0  0  0  0  0  0
  191.1980  177.0180  145.0110 C   0  0  0  0  0  2  0  0  0  0  0  0
  190.3580  176.5970  147.2590 N   0  0  0  0  0  2  0  0  0  0  0  0
  190.0000  176.6040  145.8570 C   0  0  1  0  0  3  0  0  0  0  0  0
  189.1080  177.7150  146.0120 C   0  0  0  0  0  2  0  0  0  0  0  0
  189.0830  178.4180  148.4580 O   0  0  0  0  0  0  0  0  0  0  0  0
  189.4380  177.7280  147.4680 C   0  0  0  0  0  0  0  0  0  0  0  0
  187.3410  178.6570  140.0060 N   0  0  0  0  0  2  0  0  0  0  0  0
  186.5100  179.0560  141.0660 N   0  0  0  0  0  2  0  0  0  0  0  0
  185.1440  178.8710  140.6150 C   0  0  0  0  0  2  0  0  0  0  0  0
  184.8780  179.7520  139.5660 O   0  0  0  0  0  0  0  0  0  0  0  0
  183.6900  177.8290  139.2750 O   0  0  0  0  0  1  0  0  0  0  0  0
  183.8530  179.1440  138.8400 C   0  0  1  0  0  3  0  0  0  0  0  0
  182.5610  179.9070  139.0510 C   0  0  0  0  0  1  0  0  0  0  0  0
  1 28  1  6  0  0  0
  1  2  1  0  0  0  0
  3  7  1  6  0  0  0
  3  1  1  0  0  0  0
  3  4  1  0  0  0  0
  4  5  1  1  0  0  0
  4  6  1  0  0  0  0
  6  2  1  0  0  0  0
  6 20  1  1  0  0  0
  8  7  2  0  0  0  0
  9  8  1  0  0  0  0
 10  9  1  0  0  0  0
 11  9  2  0  0  0  0
 12  7  1  0  0  0  0
 14 13  1  0  0  0  0
 14 12  1  0  0  0  0
 15 17  1  0  0  0  0
 16 15  2  0  0  0  0
 16 19  1  0  0  0  0
 17 13  2  0  0  0  0
 18 15  1  0  0  0  0
 19 14  2  0  0  0  0
 20 21  1  0  0  0  0
 21 22  1  0  0  0  0
 23 27  1  0  0  0  0
 24 22  1  6  0  0  0
 24 25  1  0  0  0  0
 24 23  1  0  0  0  0
 25 27  1  0  0  0  0
 27 26  2  0  0  0  0
 28 29  1  0  0  0  0
 30 29  1  0  0  0  0
 31 30  1  0  0  0  0
 33 34  1  1  0  0  0
 33 32  1  0  0  0  0
 33 31  1  0  0  0  0
M  END
>  <MODEL>
3

>  <REMARK>
 VINA RESULT:      -6.6      3.638      8.108
  Name = 
  13 active torsions:
  status: ('A' for Active; 'I' for Inactive)
    1  A    between atoms: C_2  and  C_21
    2  A    between atoms: C_2  and  C_34
    3  A    between atoms: C_3  and  C_19
    4  A    between atoms: C_3  and  C_30
    5  A    between atoms: C_4  and  C_30
    6  A    between atoms: C_5  and  C_28
    7  A    between atoms: C_6  and  N_9
    8  A    between atoms: N_9  and  N_29
    9  A    between atoms: C_12  and  C_18
   10  A    between atoms: C_15  and  O_25
   11  A    between atoms: C_18  and  C_21
   12  A    between atoms: O_25  and  C_26
   13  A    between atoms: C_26  and  N_29
                            x       y       z     vdW  Elec       q    Type
                         _______ _______ _______ _____ _____    ______ ____

>  <TORSDO>
F 13

$$$$
=
 OpenBabel10222421313D

 34 36  0  0  1  0  0  0  0  0999 V2000
  190.9050  177.6240  141.2230 C   0  0  2  0  0  3  0  0  0  0  0  0
  191.8710  177.0830  142.6630 S   0  0  0  0  0  0  0  0  0  0  0  0
  189.5030  177.0550  141.3390 C   0  0  1  0  0  3  0  0  0  0  0  0
  189.1210  177.0570  142.8080 C   0  0  1  0  0  3  0  0  0  0  0  0
  188.0990  175.9730  143.0850 C   0  0  0  0  0  1  0  0  0  0  0  0
  190.3650  176.8270  143.6570 C   0  0  2  0  0  3  0  0  0  0  0  0
  188.5180  177.8260  140.5070 C   0  0  0  0  0  0  0  0  0  0  0  0
  188.2040  177.3230  139.3060 C   0  0  0  0  0  3  0  0  0  0  0  0
  187.2630  177.8950  138.3260 C   0  0  0  0  0  0  0  0  0  0  0  0
  187.6640  179.0320  137.5720 N   0  0  0  0  0  1  0  0  0  0  0  0
  186.1180  177.4060  138.1450 O   0  0  0  0  0  0  0  0  0  0  0  0
  187.8930  179.0880  141.0390 C   0  0  0  0  0  2  0  0  0  0  0  0
  186.2580  178.4760  142.8460 C   0  0  0  0  0  3  0  0  0  0  0  0
  186.4990  178.8530  141.5190 C   0  0  0  0  0  0  0  0  0  0  0  0
  183.8750  178.4740  142.4160 C   0  0  0  0  0  0  0  0  0  0  0  0
  184.1140  178.8480  141.0900 C   0  0  0  0  0  3  0  0  0  0  0  0
  184.9470  178.2870  143.2930 C   0  0  0  0  0  3  0  0  0  0  0  0
  182.6040  178.2920  142.8490 F   0  0  0  0  0  0  0  0  0  0  0  0
  185.4250  179.0380  140.6420 C   0  0  0  0  0  3  0  0  0  0  0  0
  190.3840  177.7800  144.8440 C   0  0  0  0  0  2  0  0  0  0  0  0
  190.0270  177.0700  146.1440 C   0  0  0  0  0  2  0  0  0  0  0  0
  189.2750  177.9900  147.0970 C   0  0  0  0  0  2  0  0  0  0  0  0
  187.1450  178.3940  148.2070 N   0  0  0  0  0  2  0  0  0  0  0  0
  187.9010  177.4280  147.4400 C   0  0  1  0  0  3  0  0  0  0  0  0
  187.0340  177.5380  146.3040 C   0  0  0  0  0  2  0  0  0  0  0  0
  185.1750  179.1930  146.8420 O   0  0  0  0  0  0  0  0  0  0  0  0
  186.2160  178.5260  147.0710 C   0  0  0  0  0  0  0  0  0  0  0  0
  191.5520  177.2440  139.9660 N   0  0  0  0  0  2  0  0  0  0  0  0
  191.1440  175.9470  139.6130 N   0  0  0  0  0  2  0  0  0  0  0  0
  191.4850  175.7690  138.2150 C   0  0  0  0  0  2  0  0  0  0  0  0
  192.6770  176.4420  137.9390 O   0  0  0  0  0  0  0  0  0  0  0  0
  194.7220  175.7080  137.2520 O   0  0  0  0  0  1  0  0  0  0  0  0
  193.3480  175.6220  137.0310 C   0  0  1  0  0  3  0  0  0  0  0  0
  192.8980  174.1870  137.2170 C   0  0  0  0  0  1  0  0  0  0  0  0
  1 28  1  6  0  0  0
  1  3  1  0  0  0  0
  1  2  1  0  0  0  0
  2  6  1  0  0  0  0
  3  7  1  6  0  0  0
  3  4  1  0  0  0  0
  4  5  1  6  0  0  0
  4  6  1  0  0  0  0
  6 20  1  1  0  0  0
  7 12  1  0  0  0  0
  8  7  2  0  0  0  0
  9  8  1  0  0  0  0
 10  9  1  0  0  0  0
 11  9  2  0  0  0  0
 12 14  1  0  0  0  0
 13 17  1  0  0  0  0
 14 13  2  0  0  0  0
 15 18  1  0  0  0  0
 15 17  2  0  0  0  0
 16 15  1  0  0  0  0
 19 16  2  0  0  0  0
 19 14  1  0  0  0  0
 20 21  1  0  0  0  0
 21 22  1  0  0  0  0
 24 22  1  6  0  0  0
 24 23  1  0  0  0  0
 25 27  1  0  0  0  0
 25 24  1  0  0  0  0
 26 27  2  0  0  0  0
 27 23  1  0  0  0  0
 29 28  1  0  0  0  0
 30 29  1  0  0  0  0
 31 30  1  0  0  0  0
 33 34  1  1  0  0  0
 33 32  1  0  0  0  0
 33 31  1  0  0  0  0
M  END
>  <MODEL>
4

>  <REMARK>
 VINA RESULT:      -6.5      3.712      6.953
  Name = 
  13 active torsions:
  status: ('A' for Active; 'I' for Inactive)
    1  A    between atoms: C_2  and  C_21
    2  A    between atoms: C_2  and  C_34
    3  A    between atoms: C_3  and  C_19
    4  A    between atoms: C_3  and  C_30
    5  A    between atoms: C_4  and  C_30
    6  A    between atoms: C_5  and  C_28
    7  A    between atoms: C_6  and  N_9
    8  A    between atoms: N_9  and  N_29
    9  A    between atoms: C_12  and  C_18
   10  A    between atoms: C_15  and  O_25
   11  A    between atoms: C_18  and  C_21
   12  A    between atoms: O_25  and  C_26
   13  A    between atoms: C_26  and  N_29
                            x       y       z     vdW  Elec       q    Type
                         _______ _______ _______ _____ _____    ______ ____

>  <TORSDO>
F 13

$$$$
=
 OpenBabel10222421313D

 34 36  0  0  1  0  0  0  0  0999 V2000
  187.2290  177.9440  146.2920 C   0  0  2  0  0  3  0  0  0  0  0  0
  185.5230  178.3950  146.7200 S   0  0  0  0  0  0  0  0  0  0  0  0
  187.2360  177.3480  144.8970 C   0  0  1  0  0  3  0  0  0  0  0  0
  186.2020  178.0890  144.0700 C   0  0  1  0  0  3  0  0  0  0  0  0
  185.6880  177.2000  142.9540 C   0  0  0  0  0  1  0  0  0  0  0  0
  185.0460  178.5170  144.9660 C   0  0  2  0  0  3  0  0  0  0  0  0
  188.6000  177.4130  144.2700 C   0  0  0  0  0  0  0  0  0  0  0  0
  189.4050  178.4110  144.6570 C   0  0  0  0  0  3  0  0  0  0  0  0
  190.7790  178.6700  144.1900 C   0  0  0  0  0  0  0  0  0  0  0  0
  191.7490  177.6350  144.2980 N   0  0  0  0  0  1  0  0  0  0  0  0
  191.1140  179.7820  143.7040 O   0  0  0  0  0  0  0  0  0  0  0  0
  189.0360  176.3650  143.2810 C   0  0  0  0  0  2  0  0  0  0  0  0
  188.2850  177.8650  141.4110 C   0  0  0  0  0  3  0  0  0  0  0  0
  189.2050  176.9350  141.9120 C   0  0  0  0  0  0  0  0  0  0  0  0
  189.5700  178.0360  139.3650 C   0  0  0  0  0  0  0  0  0  0  0  0
  190.4870  177.1060  139.8630 C   0  0  0  0  0  3  0  0  0  0  0  0
  188.4680  178.4140  140.1380 C   0  0  0  0  0  3  0  0  0  0  0  0
  189.7480  178.5700  138.1330 F   0  0  0  0  0  0  0  0  0  0  0  0
  190.3050  176.5560  141.1350 C   0  0  0  0  0  3  0  0  0  0  0  0
  184.6370  179.9520  144.6600 C   0  0  0  0  0  2  0  0  0  0  0  0
  183.2270  180.0280  144.0910 C   0  0  0  0  0  2  0  0  0  0  0  0
  182.5020  178.6940  144.2060 C   0  0  0  0  0  2  0  0  0  0  0  0
  180.7610  180.1660  143.3470 N   0  0  0  0  0  2  0  0  0  0  0  0
  181.0690  178.7960  143.7000 C   0  0  1  0  0  3  0  0  0  0  0  0
  181.0020  178.3500  142.3390 C   0  0  0  0  0  2  0  0  0  0  0  0
  180.4070  180.3280  140.8510 O   0  0  0  0  0  0  0  0  0  0  0  0
  180.6630  179.7480  141.9370 C   0  0  0  0  0  0  0  0  0  0  0  0
  187.8130  177.0360  147.2820 N   0  0  0  0  0  2  0  0  0  0  0  0
  188.3540  177.7920  148.3350 N   0  0  0  0  0  2  0  0  0  0  0  0
  189.7880  177.8380  148.1190 C   0  0  0  0  0  2  0  0  0  0  0  0
  190.2050  176.6460  147.5240 O   0  0  0  0  0  0  0  0  0  0  0  0
  192.1080  177.3000  148.5930 O   0  0  0  0  0  1  0  0  0  0  0  0
  191.5900  176.7690  147.4120 C   0  0  1  0  0  3  0  0  0  0  0  0
  192.2020  175.4060  147.1620 C   0  0  0  0  0  1  0  0  0  0  0  0
  1  2  1  0  0  0  0
  1 28  1  1  0  0  0
  3  7  1  6  0  0  0
  3  1  1  0  0  0  0
  4  5  1  6  0  0  0
  4  3  1  0  0  0  0
  4  6  1  0  0  0  0
  6 20  1  6  0  0  0
  6  2  1  0  0  0  0
  7  8  2  0  0  0  0
  9 10  1  0  0  0  0
  9  8  1  0  0  0  0
 11  9  2  0  0  0  0
 12  7  1  0  0  0  0
 13 14  1  0  0  0  0
 14 12  1  0  0  0  0
 15 16  2  0  0  0  0
 15 17  1  0  0  0  0
 16 19  1  0  0  0  0
 17 13  2  0  0  0  0
 18 15  1  0  0  0  0
 19 14  2  0  0  0  0
 21 22  1  0  0  0  0
 21 20  1  0  0  0  0
 23 24  1  0  0  0  0
 24 22  1  6  0  0  0
 25 24  1  0  0  0  0
 26 27  2  0  0  0  0
 27 25  1  0  0  0  0
 27 23  1  0  0  0  0
 28 29  1  0  0  0  0
 30 29  1  0  0  0  0
 31 30  1  0  0  0  0
 33 34  1  1  0  0  0
 33 31  1  0  0  0  0
 33 32  1  0  0  0  0
M  END
>  <MODEL>
5

>  <REMARK>
 VINA RESULT:      -6.5      1.588      1.996
  Name = 
  13 active torsions:
  status: ('A' for Active; 'I' for Inactive)
    1  A    between atoms: C_2  and  C_21
    2  A    between atoms: C_2  and  C_34
    3  A    between atoms: C_3  and  C_19
    4  A    between atoms: C_3  and  C_30
    5  A    between atoms: C_4  and  C_30
    6  A    between atoms: C_5  and  C_28
    7  A    between atoms: C_6  and  N_9
    8  A    between atoms: N_9  and  N_29
    9  A    between atoms: C_12  and  C_18
   10  A    between atoms: C_15  and  O_25
   11  A    between atoms: C_18  and  C_21
   12  A    between atoms: O_25  and  C_26
   13  A    between atoms: C_26  and  N_29
                            x       y       z     vdW  Elec       q    Type
                         _______ _______ _______ _____ _____    ______ ____

>  <TORSDO>
F 13

$$$$
=
 OpenBabel10222421313D

 34 36  0  0  1  0  0  0  0  0999 V2000
  186.7390  178.1180  140.0790 C   0  0  2  0  0  3  0  0  0  0  0  0
  185.1270  178.5000  139.3370 S   0  0  0  0  0  0  0  0  0  0  0  0
  186.7790  178.7030  141.4790 C   0  0  1  0  0  3  0  0  0  0  0  0
  185.3910  178.5710  142.0770 C   0  0  1  0  0  3  0  0  0  0  0  0
  185.1660  179.6460  143.1220 C   0  0  0  0  0  1  0  0  0  0  0  0
  184.3480  178.6940  140.9730 C   0  0  2  0  0  3  0  0  0  0  0  0
  187.8190  178.0350  142.3330 C   0  0  0  0  0  0  0  0  0  0  0  0
  189.0660  178.5180  142.2720 C   0  0  0  0  0  3  0  0  0  0  0  0
  190.2400  178.0340  143.0190 C   0  0  0  0  0  0  0  0  0  0  0  0
  190.8010  176.7720  142.6760 N   0  0  0  0  0  1  0  0  0  0  0  0
  190.7540  178.7040  143.9510 O   0  0  0  0  0  0  0  0  0  0  0  0
  187.4410  176.8970  143.2430 C   0  0  0  0  0  2  0  0  0  0  0  0
  186.4300  177.9680  145.2780 C   0  0  0  0  0  3  0  0  0  0  0  0
  187.5030  177.2960  144.6810 C   0  0  0  0  0  0  0  0  0  0  0  0
  187.6130  177.9840  147.3910 C   0  0  0  0  0  0  0  0  0  0  0  0
  188.6850  177.3140  146.7960 C   0  0  0  0  0  3  0  0  0  0  0  0
  186.4860  178.3120  146.6310 C   0  0  0  0  0  3  0  0  0  0  0  0
  187.6660  178.3150  148.7040 F   0  0  0  0  0  0  0  0  0  0  0  0
  188.6300  176.9700  145.4420 C   0  0  0  0  0  3  0  0  0  0  0  0
  183.2680  177.6340  141.1390 C   0  0  0  0  0  2  0  0  0  0  0  0
  182.0600  177.9140  140.2540 C   0  0  0  0  0  2  0  0  0  0  0  0
  181.4950  179.3060  140.4980 C   0  0  0  0  0  2  0  0  0  0  0  0
  180.3320  181.1960  139.4940 N   0  0  0  0  0  2  0  0  0  0  0  0
  180.7830  179.8410  139.2620 C   0  0  1  0  0  3  0  0  0  0  0  0
  181.7490  180.2480  138.2840 C   0  0  0  0  0  2  0  0  0  0  0  0
  181.6130  182.7740  137.9920 O   0  0  0  0  0  0  0  0  0  0  0  0
  181.2980  181.6590  138.4810 C   0  0  0  0  0  0  0  0  0  0  0  0
  187.8440  178.6010  139.2490 N   0  0  0  0  0  2  0  0  0  0  0  0
  188.5800  177.5010  138.7790 N   0  0  0  0  0  2  0  0  0  0  0  0
  189.6340  178.0340  137.9380 C   0  0  0  0  0  2  0  0  0  0  0  0
  190.3040  176.9830  137.3110 O   0  0  0  0  0  0  0  0  0  0  0  0
  190.7070  174.9250  138.2040 O   0  0  0  0  0  1  0  0  0  0  0  0
  190.9350  176.2930  138.3470 C   0  0  1  0  0  3  0  0  0  0  0  0
  192.4250  176.5620  138.3020 C   0  0  0  0  0  1  0  0  0  0  0  0
  1 28  1  6  0  0  0
  1  3  1  0  0  0  0
  2  1  1  0  0  0  0
  2  6  1  0  0  0  0
  3  4  1  0  0  0  0
  3  7  1  1  0  0  0
  4  5  1  1  0  0  0
  6 20  1  1  0  0  0
  6  4  1  0  0  0  0
  7 12  1  0  0  0  0
  8  7  2  0  0  0  0
  8  9  1  0  0  0  0
  9 11  2  0  0  0  0
 10  9  1  0  0  0  0
 12 14  1  0  0  0  0
 13 17  1  0  0  0  0
 14 13  2  0  0  0  0
 14 19  1  0  0  0  0
 15 18  1  0  0  0  0
 16 15  1  0  0  0  0
 17 15  2  0  0  0  0
 19 16  2  0  0  0  0
 21 22  1  0  0  0  0
 21 20  1  0  0  0  0
 24 23  1  0  0  0  0
 24 22  1  1  0  0  0
 25 27  1  0  0  0  0
 25 24  1  0  0  0  0
 26 27  2  0  0  0  0
 27 23  1  0  0  0  0
 29 28  1  0  0  0  0
 30 29  1  0  0  0  0
 31 30  1  0  0  0  0
 31 33  1  0  0  0  0
 32 33  1  0  0  0  0
 33 34  1  6  0  0  0
M  END
>  <MODEL>
6

>  <REMARK>
 VINA RESULT:      -6.5      3.773      6.258
  Name = 
  13 active torsions:
  status: ('A' for Active; 'I' for Inactive)
    1  A    between atoms: C_2  and  C_21
    2  A    between atoms: C_2  and  C_34
    3  A    between atoms: C_3  and  C_19
    4  A    between atoms: C_3  and  C_30
    5  A    between atoms: C_4  and  C_30
    6  A    between atoms: C_5  and  C_28
    7  A    between atoms: C_6  and  N_9
    8  A    between atoms: N_9  and  N_29
    9  A    between atoms: C_12  and  C_18
   10  A    between atoms: C_15  and  O_25
   11  A    between atoms: C_18  and  C_21
   12  A    between atoms: O_25  and  C_26
   13  A    between atoms: C_26  and  N_29
                            x       y       z     vdW  Elec       q    Type
                         _______ _______ _______ _____ _____    ______ ____

>  <TORSDO>
F 13

$$$$
=
 OpenBabel10222421313D

 34 36  0  0  1  0  0  0  0  0999 V2000
  187.9170  178.4130  141.7050 C   0  0  2  0  0  3  0  0  0  0  0  0
  188.6590  177.9000  140.1290 S   0  0  0  0  0  0  0  0  0  0  0  0
  188.1800  177.3340  142.7380 C   0  0  1  0  0  3  0  0  0  0  0  0
  189.5570  176.7570  142.4670 C   0  0  1  0  0  3  0  0  0  0  0  0
  189.6360  175.3290  142.9710 C   0  0  0  0  0  1  0  0  0  0  0  0
  189.8390  176.7960  140.9700 C   0  0  2  0  0  3  0  0  0  0  0  0
  188.0640  177.8630  144.1390 C   0  0  0  0  0  0  0  0  0  0  0  0
  186.9500  177.5620  144.8180 C   0  0  0  0  0  3  0  0  0  0  0  0
  186.6210  177.9610  146.1990 C   0  0  0  0  0  0  0  0  0  0  0  0
  185.8510  179.1380  146.4090 N   0  0  0  0  0  1  0  0  0  0  0  0
  187.0060  177.2900  147.1910 O   0  0  0  0  0  0  0  0  0  0  0  0
  189.1860  178.6620  144.7480 C   0  0  0  0  0  2  0  0  0  0  0  0
  189.8010  177.6440  146.9600 C   0  0  0  0  0  3  0  0  0  0  0  0
  190.0720  177.8120  145.5970 C   0  0  0  0  0  0  0  0  0  0  0  0
  191.7090  176.1650  147.1600 C   0  0  0  0  0  0  0  0  0  0  0  0
  191.9820  176.3340  145.7990 C   0  0  0  0  0  3  0  0  0  0  0  0
  190.6200  176.8220  147.7400 C   0  0  0  0  0  3  0  0  0  0  0  0
  192.5020  175.3680  147.9150 F   0  0  0  0  0  0  0  0  0  0  0  0
  191.1630  177.1560  145.0180 C   0  0  0  0  0  3  0  0  0  0  0  0
  191.2550  177.2880  140.7060 C   0  0  0  0  0  2  0  0  0  0  0  0
  191.5860  177.2900  139.2190 C   0  0  0  0  0  2  0  0  0  0  0  0
  193.0050  176.8040  138.9590 C   0  0  0  0  0  2  0  0  0  0  0  0
  194.4710  175.6570  137.3870 N   0  0  0  0  0  2  0  0  0  0  0  0
  193.1120  176.1020  137.6110 C   0  0  1  0  0  3  0  0  0  0  0  0
  192.6110  174.7630  137.7210 C   0  0  0  0  0  2  0  0  0  0  0  0
  194.5360  173.1320  137.3820 O   0  0  0  0  0  0  0  0  0  0  0  0
  193.9970  174.2650  137.4730 C   0  0  0  0  0  0  0  0  0  0  0  0
  186.4890  178.7020  141.5610 N   0  0  0  0  0  2  0  0  0  0  0  0
  186.1730  178.7890  140.1950 N   0  0  0  0  0  2  0  0  0  0  0  0
  184.7350  178.9620  140.1110 C   0  0  0  0  0  2  0  0  0  0  0  0
  184.4400  179.9180  139.1380 O   0  0  0  0  0  0  0  0  0  0  0  0
  182.6070  181.1430  138.5620 O   0  0  0  0  0  1  0  0  0  0  0  0
  183.0470  179.9110  139.0430 C   0  0  1  0  0  3  0  0  0  0  0  0
  182.6090  178.8140  138.0940 C   0  0  0  0  0  1  0  0  0  0  0  0
  1 28  1  6  0  0  0
  1  3  1  0  0  0  0
  2  6  1  0  0  0  0
  2  1  1  0  0  0  0
  3  7  1  1  0  0  0
  4  3  1  0  0  0  0
  4  5  1  6  0  0  0
  6 20  1  1  0  0  0
  6  4  1  0  0  0  0
  7 12  1  0  0  0  0
  7  8  2  0  0  0  0
  8  9  1  0  0  0  0
  9 10  1  0  0  0  0
  9 11  2  0  0  0  0
 12 14  1  0  0  0  0
 13 17  1  0  0  0  0
 14 13  2  0  0  0  0
 15 17  2  0  0  0  0
 15 18  1  0  0  0  0
 16 15  1  0  0  0  0
 19 14  1  0  0  0  0
 19 16  2  0  0  0  0
 21 20  1  0  0  0  0
 22 21  1  0  0  0  0
 23 27  1  0  0  0  0
 23 24  1  0  0  0  0
 24 25  1  0  0  0  0
 24 22  1  1  0  0  0
 26 27  2  0  0  0  0
 27 25  1  0  0  0  0
 29 28  1  0  0  0  0
 30 29  1  0  0  0  0
 31 30  1  0  0  0  0
 32 33  1  0  0  0  0
 33 34  1  6  0  0  0
 33 31  1  0  0  0  0
M  END
>  <MODEL>
7

>  <REMARK>
 VINA RESULT:      -6.4      3.764      8.479
  Name = 
  13 active torsions:
  status: ('A' for Active; 'I' for Inactive)
    1  A    between atoms: C_2  and  C_21
    2  A    between atoms: C_2  and  C_34
    3  A    between atoms: C_3  and  C_19
    4  A    between atoms: C_3  and  C_30
    5  A    between atoms: C_4  and  C_30
    6  A    between atoms: C_5  and  C_28
    7  A    between atoms: C_6  and  N_9
    8  A    between atoms: N_9  and  N_29
    9  A    between atoms: C_12  and  C_18
   10  A    between atoms: C_15  and  O_25
   11  A    between atoms: C_18  and  C_21
   12  A    between atoms: O_25  and  C_26
   13  A    between atoms: C_26  and  N_29
                            x       y       z     vdW  Elec       q    Type
                         _______ _______ _______ _____ _____    ______ ____

>  <TORSDO>
F 13

$$$$
=
 OpenBabel10222421313D

 34 36  0  0  1  0  0  0  0  0999 V2000
  188.0940  178.4150  140.5470 C   0  0  2  0  0  3  0  0  0  0  0  0
  189.7460  177.7400  140.2070 S   0  0  0  0  0  0  0  0  0  0  0  0
  187.4570  177.5990  141.6560 C   0  0  1  0  0  3  0  0  0  0  0  0
  188.5520  177.2030  142.6290 C   0  0  1  0  0  3  0  0  0  0  0  0
  188.1760  175.9220  143.3490 C   0  0  0  0  0  1  0  0  0  0  0  0
  189.8590  177.0070  141.8710 C   0  0  2  0  0  3  0  0  0  0  0  0
  186.3520  178.3540  142.3390 C   0  0  0  0  0  0  0  0  0  0  0  0
  186.0970  178.0450  143.6170 C   0  0  0  0  0  3  0  0  0  0  0  0
  185.0750  178.6530  144.4870 C   0  0  0  0  0  0  0  0  0  0  0  0
  185.4950  179.4300  145.6030 N   0  0  0  0  0  1  0  0  0  0  0  0
  183.8450  178.4990  144.2710 O   0  0  0  0  0  0  0  0  0  0  0  0
  185.6040  179.4380  141.6090 C   0  0  0  0  0  2  0  0  0  0  0  0
  184.1040  179.5430  139.5970 C   0  0  0  0  0  3  0  0  0  0  0  0
  184.5120  178.8780  140.7600 C   0  0  0  0  0  0  0  0  0  0  0  0
  182.5030  177.7820  139.1480 C   0  0  0  0  0  0  0  0  0  0  0  0
  182.9070  177.1190  140.3100 C   0  0  0  0  0  3  0  0  0  0  0  0
  183.1000  178.9960  138.7930 C   0  0  0  0  0  3  0  0  0  0  0  0
  181.5310  177.2510  138.3680 F   0  0  0  0  0  0  0  0  0  0  0  0
  183.9110  177.6650  141.1150 C   0  0  0  0  0  3  0  0  0  0  0  0
  191.0140  177.6560  142.6230 C   0  0  0  0  0  2  0  0  0  0  0  0
  190.5210  178.5830  143.7260 C   0  0  0  0  0  2  0  0  0  0  0  0
  191.2140  178.2970  145.0510 C   0  0  0  0  0  2  0  0  0  0  0  0
  191.9810  176.0720  145.6810 N   0  0  0  0  0  2  0  0  0  0  0  0
  190.8200  176.9320  145.6010 C   0  0  1  0  0  3  0  0  0  0  0  0
  190.6800  177.0040  147.0250 C   0  0  0  0  0  2  0  0  0  0  0  0
  192.5000  175.5880  148.1050 O   0  0  0  0  0  0  0  0  0  0  0  0
  191.8650  176.1030  147.1490 C   0  0  0  0  0  0  0  0  0  0  0  0
  187.2650  178.4470  139.3410 N   0  0  0  0  0  2  0  0  0  0  0  0
  188.0990  178.4830  138.2110 N   0  0  0  0  0  2  0  0  0  0  0  0
  187.4460  177.6890  137.1880 C   0  0  0  0  0  2  0  0  0  0  0  0
  186.0620  177.8020  137.3270 O   0  0  0  0  0  0  0  0  0  0  0  0
  186.5760  176.4800  135.5440 O   0  0  0  0  0  1  0  0  0  0  0  0
  185.5350  177.0160  136.3010 C   0  0  1  0  0  3  0  0  0  0  0  0
  184.7130  175.8900  136.8950 C   0  0  0  0  0  1  0  0  0  0  0  0
  1 28  1  6  0  0  0
  1  3  1  0  0  0  0
  2  1  1  0  0  0  0
  2  6  1  0  0  0  0
  3  7  1  1  0  0  0
  3  4  1  0  0  0  0
  4  5  1  6  0  0  0
  6 20  1  1  0  0  0
  6  4  1  0  0  0  0
  7  8  2  0  0  0  0
  8  9  1  0  0  0  0
  9 10  1  0  0  0  0
 11  9  2  0  0  0  0
 12  7  1  0  0  0  0
 13 14  1  0  0  0  0
 14 19  2  0  0  0  0
 14 12  1  0  0  0  0
 15 16  2  0  0  0  0
 16 19  1  0  0  0  0
 17 15  1  0  0  0  0
 17 13  2  0  0  0  0
 18 15  1  0  0  0  0
 20 21  1  0  0  0  0
 21 22  1  0  0  0  0
 23 27  1  0  0  0  0
 24 22  1  1  0  0  0
 24 23  1  0  0  0  0
 24 25  1  0  0  0  0
 25 27  1  0  0  0  0
 27 26  2  0  0  0  0
 29 28  1  0  0  0  0
 30 31  1  0  0  0  0
 30 29  1  0  0  0  0
 32 33  1  0  0  0  0
 33 34  1  1  0  0  0
 33 31  1  0  0  0  0
M  END
>  <MODEL>
8

>  <REMARK>
 VINA RESULT:      -6.4      3.344      8.209
  Name = 
  13 active torsions:
  status: ('A' for Active; 'I' for Inactive)
    1  A    between atoms: C_2  and  C_21
    2  A    between atoms: C_2  and  C_34
    3  A    between atoms: C_3  and  C_19
    4  A    between atoms: C_3  and  C_30
    5  A    between atoms: C_4  and  C_30
    6  A    between atoms: C_5  and  C_28
    7  A    between atoms: C_6  and  N_9
    8  A    between atoms: N_9  and  N_29
    9  A    between atoms: C_12  and  C_18
   10  A    between atoms: C_15  and  O_25
   11  A    between atoms: C_18  and  C_21
   12  A    between atoms: O_25  and  C_26
   13  A    between atoms: C_26  and  N_29
                            x       y       z     vdW  Elec       q    Type
                         _______ _______ _______ _____ _____    ______ ____

>  <TORSDO>
F 13

$$$$
=
 OpenBabel10222421313D

 34 36  0  0  1  0  0  0  0  0999 V2000
  187.6070  178.4130  141.1720 C   0  0  2  0  0  3  0  0  0  0  0  0
  187.0660  178.6170  139.4500 S   0  0  0  0  0  0  0  0  0  0  0  0
  188.6250  177.2890  141.2290 C   0  0  1  0  0  3  0  0  0  0  0  0
  189.4570  177.3510  139.9620 C   0  0  1  0  0  3  0  0  0  0  0  0
  190.0050  175.9770  139.6280 C   0  0  0  0  0  1  0  0  0  0  0  0
  188.5950  177.8590  138.8120 C   0  0  2  0  0  3  0  0  0  0  0  0
  189.4800  177.3740  142.4610 C   0  0  0  0  0  0  0  0  0  0  0  0
  190.3280  178.4070  142.5480 C   0  0  0  0  0  3  0  0  0  0  0  0
  191.2530  178.7010  143.6580 C   0  0  0  0  0  0  0  0  0  0  0  0
  191.1730  179.9670  144.3020 N   0  0  0  0  0  1  0  0  0  0  0  0
  192.1100  177.8650  144.0440 O   0  0  0  0  0  0  0  0  0  0  0  0
  189.3430  176.3510  143.5580 C   0  0  0  0  0  2  0  0  0  0  0  0
  189.3580  177.1030  145.9540 C   0  0  0  0  0  3  0  0  0  0  0  0
  188.6570  176.9160  144.7570 C   0  0  0  0  0  0  0  0  0  0  0  0
  187.3680  178.0320  146.9770 C   0  0  0  0  0  0  0  0  0  0  0  0
  186.6670  177.8440  145.7820 C   0  0  0  0  0  3  0  0  0  0  0  0
  188.7140  177.6600  147.0630 C   0  0  0  0  0  3  0  0  0  0  0  0
  186.7450  178.5730  148.0500 F   0  0  0  0  0  0  0  0  0  0  0  0
  187.3110  177.2870  144.6730 C   0  0  0  0  0  3  0  0  0  0  0  0
  189.3570  178.8900  137.9910 C   0  0  0  0  0  2  0  0  0  0  0  0
  189.1110  178.7170  136.4970 C   0  0  0  0  0  2  0  0  0  0  0  0
  188.9680  177.2490  136.1190 C   0  0  0  0  0  2  0  0  0  0  0  0
  186.9050  175.9790  135.8680 N   0  0  0  0  0  2  0  0  0  0  0  0
  187.7230  177.0130  135.2730 C   0  0  1  0  0  3  0  0  0  0  0  0
  186.7560  178.0370  135.5370 C   0  0  0  0  0  2  0  0  0  0  0  0
  184.7320  176.9880  136.6690 O   0  0  0  0  0  0  0  0  0  0  0  0
  185.8740  176.9950  136.1420 C   0  0  0  0  0  0  0  0  0  0  0  0
  186.4750  178.1770  142.0700 N   0  0  0  0  0  2  0  0  0  0  0  0
  185.5980  179.2720  142.0000 N   0  0  0  0  0  2  0  0  0  0  0  0
  184.3060  178.8000  142.4610 C   0  0  0  0  0  2  0  0  0  0  0  0
  183.8560  179.6210  143.4970 O   0  0  0  0  0  0  0  0  0  0  0  0
  183.4300  179.1650  145.6880 O   0  0  0  0  0  1  0  0  0  0  0  0
  183.1980  178.7580  144.3750 C   0  0  1  0  0  3  0  0  0  0  0  0
  181.7100  178.7880  144.0940 C   0  0  0  0  0  1  0  0  0  0  0  0
  1  3  1  0  0  0  0
  1 28  1  1  0  0  0
  2  1  1  0  0  0  0
  3  7  1  1  0  0  0
  4  5  1  6  0  0  0
  4  3  1  0  0  0  0
  6 20  1  1  0  0  0
  6  2  1  0  0  0  0
  6  4  1  0  0  0  0
  7  8  2  0  0  0  0
  7 12  1  0  0  0  0
  8  9  1  0  0  0  0
  9 11  2  0  0  0  0
  9 10  1  0  0  0  0
 12 14  1  0  0  0  0
 13 17  1  0  0  0  0
 14 13  2  0  0  0  0
 15 17  2  0  0  0  0
 15 18  1  0  0  0  0
 16 15  1  0  0  0  0
 19 14  1  0  0  0  0
 19 16  2  0  0  0  0
 21 20  1  0  0  0  0
 22 21  1  0  0  0  0
 23 27  1  0  0  0  0
 24 25  1  0  0  0  0
 24 23  1  0  0  0  0
 24 22  1  1  0  0  0
 25 27  1  0  0  0  0
 27 26  2  0  0  0  0
 29 28  1  0  0  0  0
 29 30  1  0  0  0  0
 30 31  1  0  0  0  0
 31 33  1  0  0  0  0
 33 34  1  6  0  0  0
 33 32  1  0  0  0  0
M  END
>  <MODEL>
9

>  <REMARK>
 VINA RESULT:      -6.3      3.616      6.851
  Name = 
  13 active torsions:
  status: ('A' for Active; 'I' for Inactive)
    1  A    between atoms: C_2  and  C_21
    2  A    between atoms: C_2  and  C_34
    3  A    between atoms: C_3  and  C_19
    4  A    between atoms: C_3  and  C_30
    5  A    between atoms: C_4  and  C_30
    6  A    between atoms: C_5  and  C_28
    7  A    between atoms: C_6  and  N_9
    8  A    between atoms: N_9  and  N_29
    9  A    between atoms: C_12  and  C_18
   10  A    between atoms: C_15  and  O_25
   11  A    between atoms: C_18  and  C_21
   12  A    between atoms: O_25  and  C_26
   13  A    between atoms: C_26  and  N_29
                            x       y       z     vdW  Elec       q    Type
                         _______ _______ _______ _____ _____    ______ ____

>  <TORSDO>
F 13

$$$$
