=
 OpenBabel10232409443D

 25 29  0  0  0  0  0  0  0  0999 V2000
  187.9420  177.0340  143.0710 C   0  0  0  0  0  3  0  0  0  0  0  0
  188.6920  177.4520  144.0550 C   0  0  0  0  0  0  0  0  0  0  0  0
  189.4410  177.8740  145.0390 C   0  0  0  0  0  0  0  0  0  0  0  0
  190.3490  177.5610  138.5420 N   0  0  0  0  0  0  0  0  0  0  0  0
  190.7630  176.8390  139.6340 C   0  0  0  0  0  3  0  0  0  0  0  0
  188.4360  178.2540  139.7250 C   0  0  0  0  0  0  0  0  0  0  0  0
  187.2720  178.8660  140.0030 N   0  0  0  0  0  0  0  0  0  0  0  0
  190.0090  176.8180  140.7740 N   0  0  0  0  0  0  0  0  0  0  0  0
  187.0090  178.4690  141.2790 C   0  0  0  0  0  3  0  0  0  0  0  0
  187.9650  177.6470  141.7780 N   0  0  0  0  0  0  0  0  0  0  0  0
  189.1880  178.2810  138.5630 C   0  0  0  0  0  0  0  0  0  0  0  0
  188.7630  179.0170  137.4190 N   0  0  0  0  0  1  0  0  0  0  0  0
  188.8540  177.5280  140.7840 C   0  0  0  0  0  0  0  0  0  0  0  0
  191.3340  176.4800  144.3040 C   0  0  0  0  0  2  0  0  0  0  0  0
  191.5830  176.8080  145.7590 C   0  0  0  0  0  2  0  0  0  0  0  0
  190.9270  177.8340  144.8520 C   0  0  0  0  0  3  0  0  0  0  0  0
  188.8780  178.3670  146.2300 O   0  0  0  0  0  0  0  0  0  0  0  0
  188.0030  177.6200  147.0780 C   0  0  0  0  0  0  0  0  0  0  0  0
  188.5800  176.6180  148.0530 C   0  0  0  0  0  2  0  0  0  0  0  0
  188.1430  178.0000  148.5320 C   0  0  0  0  0  2  0  0  0  0  0  0
  186.6120  177.4720  146.6670 N   0  0  0  0  0  2  0  0  0  0  0  0
  185.9230  178.7290  146.9150 C   0  0  0  0  0  2  0  0  0  0  0  0
  185.3910  179.2950  145.6200 C   0  0  0  0  0  3  0  0  0  0  0  0
  184.0260  179.1190  145.5800 O   0  0  0  0  0  0  0  0  0  0  0  0
  184.8150  178.2940  144.8770 O   0  0  0  0  0  0  0  0  0  0  0  0
  1  2  2  0  0  0  0
  2  3  2  0  0  0  0
  3 17  1  0  0  0  0
  4 11  2  0  0  0  0
  4  5  1  0  0  0  0
  5  8  2  0  0  0  0
  6  7  1  0  0  0  0
  6 13  2  0  0  0  0
  7  9  2  0  0  0  0
  8 13  1  0  0  0  0
  9 10  1  0  0  0  0
 10  1  1  0  0  0  0
 11  6  1  0  0  0  0
 12 11  1  0  0  0  0
 13 10  1  0  0  0  0
 14 16  1  0  0  0  0
 14 15  1  0  0  0  0
 16  3  1  0  0  0  0
 16 15  1  0  0  0  0
 17 18  1  0  0  0  0
 18 19  1  0  0  0  0
 18 20  1  0  0  0  0
 19 20  1  0  0  0  0
 21 22  1  0  0  0  0
 21 18  1  0  0  0  0
 23 22  1  0  0  0  0
 24 23  1  0  0  0  0
 25 24  1  0  0  0  0
 25 23  1  0  0  0  0
M  END
>  <MODEL>
1

>  <REMARK>
 VINA RESULT:      -7.8      0.000      0.000
  Name = 
  7 active torsions:
  status: ('A' for Active; 'I' for Inactive)
    1  A    between atoms: C_3  and  C_7
    2  A    between atoms: C_4  and  O_18
    3  A    between atoms: C_4  and  N_22
    4  A    between atoms: C_7  and  N_22
    5  A    between atoms: C_10  and  N_20
    6  A    between atoms: C_12  and  C_13
    7  A    between atoms: C_12  and  O_18
                            x       y       z     vdW  Elec       q    Type
                         _______ _______ _______ _____ _____    ______ ____

>  <TORSDO>
F 7

$$$$
=
 OpenBabel10232409443D

 25 29  0  0  0  0  0  0  0  0999 V2000
  186.8150  177.0280  143.7280 C   0  0  0  0  0  3  0  0  0  0  0  0
  186.1160  178.0670  143.3590 C   0  0  0  0  0  0  0  0  0  0  0  0
  185.4190  179.1090  142.9890 C   0  0  0  0  0  0  0  0  0  0  0  0
  191.7660  176.4660  145.0540 N   0  0  0  0  0  0  0  0  0  0  0  0
  191.1870  176.2000  143.8380 C   0  0  0  0  0  3  0  0  0  0  0  0
  189.6680  177.0970  145.9150 C   0  0  0  0  0  0  0  0  0  0  0  0
  188.7300  177.5230  146.7790 N   0  0  0  0  0  0  0  0  0  0  0  0
  189.8450  176.3870  143.6560 N   0  0  0  0  0  0  0  0  0  0  0  0
  187.5920  177.5130  146.0310 C   0  0  0  0  0  3  0  0  0  0  0  0
  187.8070  177.0990  144.7580 N   0  0  0  0  0  0  0  0  0  0  0  0
  191.0260  176.9150  146.1120 C   0  0  0  0  0  0  0  0  0  0  0  0
  191.6410  177.2000  147.3650 N   0  0  0  0  0  1  0  0  0  0  0  0
  189.1190  176.8410  144.7080 C   0  0  0  0  0  0  0  0  0  0  0  0
  184.1210  178.7530  145.0510 C   0  0  0  0  0  2  0  0  0  0  0  0
  183.1400  179.2300  144.0040 C   0  0  0  0  0  2  0  0  0  0  0  0
  184.5570  179.7740  144.0190 C   0  0  0  0  0  3  0  0  0  0  0  0
  185.4860  179.6060  141.6750 O   0  0  0  0  0  0  0  0  0  0  0  0
  185.0390  178.8940  140.5200 C   0  0  0  0  0  0  0  0  0  0  0  0
  183.8900  177.9180  140.6400 C   0  0  0  0  0  2  0  0  0  0  0  0
  183.6600  179.3180  140.0760 C   0  0  0  0  0  2  0  0  0  0  0  0
  185.9670  178.7460  139.4050 N   0  0  0  0  0  2  0  0  0  0  0  0
  187.2620  178.3470  139.9340 C   0  0  0  0  0  2  0  0  0  0  0  0
  188.2180  178.0540  138.8030 C   0  0  0  0  0  3  0  0  0  0  0  0
  189.0280  179.1510  138.6040 O   0  0  0  0  0  0  0  0  0  0  0  0
  188.0010  178.9340  137.7700 O   0  0  0  0  0  0  0  0  0  0  0  0
  1 10  1  0  0  0  0
  2  1  2  0  0  0  0
  3  2  2  0  0  0  0
  3 16  1  0  0  0  0
  4 11  1  0  0  0  0
  5  4  2  0  0  0  0
  6 11  2  0  0  0  0
  6  7  1  0  0  0  0
  8  5  1  0  0  0  0
  8 13  2  0  0  0  0
  9  7  2  0  0  0  0
 10  9  1  0  0  0  0
 11 12  1  0  0  0  0
 13 10  1  0  0  0  0
 13  6  1  0  0  0  0
 15 16  1  0  0  0  0
 15 14  1  0  0  0  0
 16 14  1  0  0  0  0
 17  3  1  0  0  0  0
 18 19  1  0  0  0  0
 18 17  1  0  0  0  0
 20 18  1  0  0  0  0
 20 19  1  0  0  0  0
 21 22  1  0  0  0  0
 21 18  1  0  0  0  0
 23 22  1  0  0  0  0
 24 23  1  0  0  0  0
 25 24  1  0  0  0  0
 25 23  1  0  0  0  0
M  END
>  <MODEL>
2

>  <REMARK>
 VINA RESULT:      -7.7      3.223      6.796
  Name = 
  7 active torsions:
  status: ('A' for Active; 'I' for Inactive)
    1  A    between atoms: C_3  and  C_7
    2  A    between atoms: C_4  and  O_18
    3  A    between atoms: C_4  and  N_22
    4  A    between atoms: C_7  and  N_22
    5  A    between atoms: C_10  and  N_20
    6  A    between atoms: C_12  and  C_13
    7  A    between atoms: C_12  and  O_18
                            x       y       z     vdW  Elec       q    Type
                         _______ _______ _______ _____ _____    ______ ____

>  <TORSDO>
F 7

$$$$
=
 OpenBabel10232409443D

 25 29  0  0  0  0  0  0  0  0999 V2000
  187.0980  176.9360  143.4000 C   0  0  0  0  0  3  0  0  0  0  0  0
  186.3440  177.9790  143.1770 C   0  0  0  0  0  0  0  0  0  0  0  0
  185.5920  179.0240  142.9530 C   0  0  0  0  0  0  0  0  0  0  0  0
  189.0220  177.6310  148.1340 N   0  0  0  0  0  0  0  0  0  0  0  0
  187.7130  177.7370  147.7350 C   0  0  0  0  0  3  0  0  0  0  0  0
  189.6550  177.1380  145.9200 C   0  0  0  0  0  0  0  0  0  0  0  0
  190.4260  176.8400  144.8600 N   0  0  0  0  0  0  0  0  0  0  0  0
  187.3700  177.5370  146.4270 N   0  0  0  0  0  0  0  0  0  0  0  0
  189.5310  176.7580  143.8370 C   0  0  0  0  0  3  0  0  0  0  0  0
  188.2580  176.9960  144.2380 N   0  0  0  0  0  0  0  0  0  0  0  0
  190.0150  177.3350  147.2420 C   0  0  0  0  0  0  0  0  0  0  0  0
  191.3690  177.2150  147.6700 N   0  0  0  0  0  1  0  0  0  0  0  0
  188.3590  177.2350  145.5510 C   0  0  0  0  0  0  0  0  0  0  0  0
  184.3330  178.6010  145.0270 C   0  0  0  0  0  2  0  0  0  0  0  0
  183.4280  179.4230  144.1360 C   0  0  0  0  0  2  0  0  0  0  0  0
  184.9260  179.6700  144.1300 C   0  0  0  0  0  3  0  0  0  0  0  0
  185.4230  179.5410  141.6570 O   0  0  0  0  0  0  0  0  0  0  0  0
  184.8740  178.8080  140.5610 C   0  0  0  0  0  0  0  0  0  0  0  0
  183.8280  177.7460  140.8200 C   0  0  0  0  0  2  0  0  0  0  0  0
  183.4180  179.1300  140.3210 C   0  0  0  0  0  2  0  0  0  0  0  0
  185.6450  178.7400  139.3250 N   0  0  0  0  0  2  0  0  0  0  0  0
  187.0100  178.3600  139.6550 C   0  0  0  0  0  2  0  0  0  0  0  0
  187.7820  178.0470  138.3960 C   0  0  0  0  0  3  0  0  0  0  0  0
  188.7620  178.9980  138.2220 O   0  0  0  0  0  0  0  0  0  0  0  0
  187.6380  179.0740  137.4950 O   0  0  0  0  0  0  0  0  0  0  0  0
  1 10  1  0  0  0  0
  2  1  2  0  0  0  0
  3  2  2  0  0  0  0
  3 16  1  0  0  0  0
  5  4  1  0  0  0  0
  6 11  1  0  0  0  0
  7  6  1  0  0  0  0
  8  5  2  0  0  0  0
  9 10  1  0  0  0  0
  9  7  2  0  0  0  0
 10 13  1  0  0  0  0
 11 12  1  0  0  0  0
 11  4  2  0  0  0  0
 13  6  2  0  0  0  0
 13  8  1  0  0  0  0
 15 14  1  0  0  0  0
 16 15  1  0  0  0  0
 16 14  1  0  0  0  0
 17  3  1  0  0  0  0
 18 19  1  0  0  0  0
 18 17  1  0  0  0  0
 20 18  1  0  0  0  0
 20 19  1  0  0  0  0
 21 22  1  0  0  0  0
 21 18  1  0  0  0  0
 23 22  1  0  0  0  0
 24 23  1  0  0  0  0
 25 24  1  0  0  0  0
 25 23  1  0  0  0  0
M  END
>  <MODEL>
3

>  <REMARK>
 VINA RESULT:      -7.4      3.203      7.177
  Name = 
  7 active torsions:
  status: ('A' for Active; 'I' for Inactive)
    1  A    between atoms: C_3  and  C_7
    2  A    between atoms: C_4  and  O_18
    3  A    between atoms: C_4  and  N_22
    4  A    between atoms: C_7  and  N_22
    5  A    between atoms: C_10  and  N_20
    6  A    between atoms: C_12  and  C_13
    7  A    between atoms: C_12  and  O_18
                            x       y       z     vdW  Elec       q    Type
                         _______ _______ _______ _____ _____    ______ ____

>  <TORSDO>
F 7

$$$$
=
 OpenBabel10232409443D

 25 29  0  0  0  0  0  0  0  0999 V2000
  187.4920  176.8240  143.3480 C   0  0  0  0  0  3  0  0  0  0  0  0
  187.2560  177.7060  142.4140 C   0  0  0  0  0  0  0  0  0  0  0  0
  187.0230  178.5900  141.4800 C   0  0  0  0  0  0  0  0  0  0  0  0
  190.1560  177.4160  147.7230 N   0  0  0  0  0  0  0  0  0  0  0  0
  190.6200  176.9690  146.5110 C   0  0  0  0  0  3  0  0  0  0  0  0
  187.9920  177.6190  146.8190 C   0  0  0  0  0  0  0  0  0  0  0  0
  186.6750  177.8740  146.7310 N   0  0  0  0  0  0  0  0  0  0  0  0
  189.7710  176.8530  145.4460 N   0  0  0  0  0  0  0  0  0  0  0  0
  186.3870  177.5810  145.4330 C   0  0  0  0  0  3  0  0  0  0  0  0
  187.4740  177.1600  144.7400 N   0  0  0  0  0  0  0  0  0  0  0  0
  188.8420  177.7460  147.9040 C   0  0  0  0  0  0  0  0  0  0  0  0
  188.3740  178.2200  149.1640 N   0  0  0  0  0  1  0  0  0  0  0  0
  188.4720  177.1900  145.6310 C   0  0  0  0  0  0  0  0  0  0  0  0
  184.5970  178.2440  141.7300 C   0  0  0  0  0  2  0  0  0  0  0  0
  184.8110  178.7890  140.3360 C   0  0  0  0  0  2  0  0  0  0  0  0
  185.6870  179.2690  141.4800 C   0  0  0  0  0  3  0  0  0  0  0  0
  187.9950  178.9120  140.5160 O   0  0  0  0  0  0  0  0  0  0  0  0
  188.5210  177.9890  139.5620 C   0  0  0  0  0  0  0  0  0  0  0  0
  187.8410  177.8290  138.2200 C   0  0  0  0  0  2  0  0  0  0  0  0
  189.1050  178.6760  138.3510 C   0  0  0  0  0  2  0  0  0  0  0  0
  189.3630  176.9030  140.0510 N   0  0  0  0  0  2  0  0  0  0  0  0
  190.6830  177.4400  140.3430 C   0  0  0  0  0  2  0  0  0  0  0  0
  190.8620  177.6030  141.8330 C   0  0  0  0  0  3  0  0  0  0  0  0
  192.0480  177.0140  142.2100 O   0  0  0  0  0  0  0  0  0  0  0  0
  190.8950  176.3680  142.4350 O   0  0  0  0  0  0  0  0  0  0  0  0
  1 10  1  0  0  0  0
  2  1  2  0  0  0  0
  3 16  1  0  0  0  0
  3  2  2  0  0  0  0
  4 11  1  0  0  0  0
  5  4  2  0  0  0  0
  6 11  2  0  0  0  0
  7  6  1  0  0  0  0
  8 13  2  0  0  0  0
  8  5  1  0  0  0  0
  9  7  2  0  0  0  0
 10  9  1  0  0  0  0
 10 13  1  0  0  0  0
 11 12  1  0  0  0  0
 13  6  1  0  0  0  0
 15 16  1  0  0  0  0
 15 14  1  0  0  0  0
 16 14  1  0  0  0  0
 17  3  1  0  0  0  0
 18 21  1  0  0  0  0
 18 17  1  0  0  0  0
 19 20  1  0  0  0  0
 19 18  1  0  0  0  0
 20 18  1  0  0  0  0
 21 22  1  0  0  0  0
 22 23  1  0  0  0  0
 23 24  1  0  0  0  0
 23 25  1  0  0  0  0
 24 25  1  0  0  0  0
M  END
>  <MODEL>
4

>  <REMARK>
 VINA RESULT:      -7.1      2.479      7.255
  Name = 
  7 active torsions:
  status: ('A' for Active; 'I' for Inactive)
    1  A    between atoms: C_3  and  C_7
    2  A    between atoms: C_4  and  O_18
    3  A    between atoms: C_4  and  N_22
    4  A    between atoms: C_7  and  N_22
    5  A    between atoms: C_10  and  N_20
    6  A    between atoms: C_12  and  C_13
    7  A    between atoms: C_12  and  O_18
                            x       y       z     vdW  Elec       q    Type
                         _______ _______ _______ _____ _____    ______ ____

>  <TORSDO>
F 7

$$$$
=
 OpenBabel10232409443D

 25 29  0  0  0  0  0  0  0  0999 V2000
  186.5610  178.7030  141.8360 C   0  0  0  0  0  3  0  0  0  0  0  0
  187.0880  177.8280  142.6490 C   0  0  0  0  0  0  0  0  0  0  0  0
  187.6140  176.9480  143.4600 C   0  0  0  0  0  0  0  0  0  0  0  0
  181.6550  178.8860  143.4130 N   0  0  0  0  0  0  0  0  0  0  0  0
  182.7870  178.8760  144.1900 C   0  0  0  0  0  3  0  0  0  0  0  0
  182.9840  178.7440  141.4750 C   0  0  0  0  0  0  0  0  0  0  0  0
  183.3260  178.6700  140.1770 N   0  0  0  0  0  0  0  0  0  0  0  0
  184.0230  178.8060  143.6090 N   0  0  0  0  0  0  0  0  0  0  0  0
  184.6870  178.6330  140.2160 C   0  0  0  0  0  3  0  0  0  0  0  0
  185.1740  178.6800  141.4800 N   0  0  0  0  0  0  0  0  0  0  0  0
  181.7270  178.8180  142.0500 C   0  0  0  0  0  0  0  0  0  0  0  0
  180.5450  178.8420  141.2540 N   0  0  0  0  0  1  0  0  0  0  0  0
  184.0860  178.7480  142.2560 C   0  0  0  0  0  0  0  0  0  0  0  0
  186.9260  178.2790  145.4160 C   0  0  0  0  0  2  0  0  0  0  0  0
  188.0710  177.4030  145.8740 C   0  0  0  0  0  2  0  0  0  0  0  0
  187.0740  176.8770  144.8570 C   0  0  0  0  0  3  0  0  0  0  0  0
  188.6380  176.0820  143.0390 O   0  0  0  0  0  0  0  0  0  0  0  0
  189.9120  176.5140  142.5590 C   0  0  0  0  0  0  0  0  0  0  0  0
  190.6760  177.5780  143.3160 C   0  0  0  0  0  2  0  0  0  0  0  0
  191.0440  176.1040  143.4700 C   0  0  0  0  0  2  0  0  0  0  0  0
  190.2220  176.3030  141.1500 N   0  0  0  0  0  2  0  0  0  0  0  0
  190.1910  177.5910  140.4740 C   0  0  0  0  0  2  0  0  0  0  0  0
  189.1010  177.6050  139.4300 C   0  0  0  0  0  3  0  0  0  0  0  0
  189.5990  178.1470  138.2660 O   0  0  0  0  0  0  0  0  0  0  0  0
  188.8260  178.9000  139.0620 O   0  0  0  0  0  0  0  0  0  0  0  0
  1  2  2  0  0  0  0
  2  3  2  0  0  0  0
  3 16  1  0  0  0  0
  4  5  1  0  0  0  0
  6 11  1  0  0  0  0
  6 13  2  0  0  0  0
  7  9  2  0  0  0  0
  7  6  1  0  0  0  0
  8  5  2  0  0  0  0
  9 10  1  0  0  0  0
 10  1  1  0  0  0  0
 10 13  1  0  0  0  0
 11  4  2  0  0  0  0
 12 11  1  0  0  0  0
 13  8  1  0  0  0  0
 14 15  1  0  0  0  0
 16 14  1  0  0  0  0
 16 15  1  0  0  0  0
 17  3  1  0  0  0  0
 18 17  1  0  0  0  0
 18 19  1  0  0  0  0
 18 20  1  0  0  0  0
 19 20  1  0  0  0  0
 21 18  1  0  0  0  0
 22 21  1  0  0  0  0
 23 22  1  0  0  0  0
 24 25  1  0  0  0  0
 24 23  1  0  0  0  0
 25 23  1  0  0  0  0
M  END
>  <MODEL>
5

>  <REMARK>
 VINA RESULT:      -7.1      3.706      6.168
  Name = 
  7 active torsions:
  status: ('A' for Active; 'I' for Inactive)
    1  A    between atoms: C_3  and  C_7
    2  A    between atoms: C_4  and  O_18
    3  A    between atoms: C_4  and  N_22
    4  A    between atoms: C_7  and  N_22
    5  A    between atoms: C_10  and  N_20
    6  A    between atoms: C_12  and  C_13
    7  A    between atoms: C_12  and  O_18
                            x       y       z     vdW  Elec       q    Type
                         _______ _______ _______ _____ _____    ______ ____

>  <TORSDO>
F 7

$$$$
=
 OpenBabel10232409443D

 25 29  0  0  0  0  0  0  0  0999 V2000
  188.2200  176.7060  142.9620 C   0  0  0  0  0  3  0  0  0  0  0  0
  187.8410  177.6090  142.0980 C   0  0  0  0  0  0  0  0  0  0  0  0
  187.4650  178.5140  141.2350 C   0  0  0  0  0  0  0  0  0  0  0  0
  186.3670  178.3810  147.4730 N   0  0  0  0  0  0  0  0  0  0  0  0
  185.7030  178.2880  146.2750 C   0  0  0  0  0  3  0  0  0  0  0  0
  188.3300  177.5830  146.4470 C   0  0  0  0  0  0  0  0  0  0  0  0
  189.6050  177.1860  146.2890 N   0  0  0  0  0  0  0  0  0  0  0  0
  186.3520  177.8360  145.1590 N   0  0  0  0  0  0  0  0  0  0  0  0
  189.6620  176.8440  144.9720 C   0  0  0  0  0  3  0  0  0  0  0  0
  188.4790  177.0200  144.3340 N   0  0  0  0  0  0  0  0  0  0  0  0
  187.6850  178.0360  147.5850 C   0  0  0  0  0  0  0  0  0  0  0  0
  188.3590  178.1250  148.8370 N   0  0  0  0  0  1  0  0  0  0  0  0
  187.6560  177.4880  145.2800 C   0  0  0  0  0  0  0  0  0  0  0  0
  185.0860  178.2310  141.8070 C   0  0  0  0  0  2  0  0  0  0  0  0
  185.1240  178.9070  140.4540 C   0  0  0  0  0  2  0  0  0  0  0  0
  186.1780  179.2370  141.4970 C   0  0  0  0  0  3  0  0  0  0  0  0
  188.2450  178.8200  140.1060 O   0  0  0  0  0  0  0  0  0  0  0  0
  188.6470  177.8660  139.1210 C   0  0  0  0  0  0  0  0  0  0  0  0
  187.6470  177.3850  138.0930 C   0  0  0  0  0  2  0  0  0  0  0  0
  188.6800  178.4490  137.7290 C   0  0  0  0  0  2  0  0  0  0  0  0
  189.8080  177.0320  139.4080 N   0  0  0  0  0  2  0  0  0  0  0  0
  190.6720  177.0280  138.2380 C   0  0  0  0  0  2  0  0  0  0  0  0
  191.2910  175.6640  138.0520 C   0  0  0  0  0  3  0  0  0  0  0  0
  190.9280  175.1690  136.8200 O   0  0  0  0  0  0  0  0  0  0  0  0
  190.3020  174.7190  137.9170 O   0  0  0  0  0  0  0  0  0  0  0  0
  1 10  1  0  0  0  0
  2  1  2  0  0  0  0
  3 16  1  0  0  0  0
  3  2  2  0  0  0  0
  4 11  1  0  0  0  0
  5  4  2  0  0  0  0
  6 11  2  0  0  0  0
  7  6  1  0  0  0  0
  8 13  2  0  0  0  0
  8  5  1  0  0  0  0
  9  7  2  0  0  0  0
 10  9  1  0  0  0  0
 10 13  1  0  0  0  0
 11 12  1  0  0  0  0
 13  6  1  0  0  0  0
 15 16  1  0  0  0  0
 15 14  1  0  0  0  0
 16 14  1  0  0  0  0
 17  3  1  0  0  0  0
 18 21  1  0  0  0  0
 18 17  1  0  0  0  0
 19 18  1  0  0  0  0
 20 19  1  0  0  0  0
 20 18  1  0  0  0  0
 22 21  1  0  0  0  0
 23 22  1  0  0  0  0
 24 25  1  0  0  0  0
 24 23  1  0  0  0  0
 25 23  1  0  0  0  0
M  END
>  <MODEL>
6

>  <REMARK>
 VINA RESULT:      -6.9      3.347      7.911
  Name = 
  7 active torsions:
  status: ('A' for Active; 'I' for Inactive)
    1  A    between atoms: C_3  and  C_7
    2  A    between atoms: C_4  and  O_18
    3  A    between atoms: C_4  and  N_22
    4  A    between atoms: C_7  and  N_22
    5  A    between atoms: C_10  and  N_20
    6  A    between atoms: C_12  and  C_13
    7  A    between atoms: C_12  and  O_18
                            x       y       z     vdW  Elec       q    Type
                         _______ _______ _______ _____ _____    ______ ____

>  <TORSDO>
F 7

$$$$
=
 OpenBabel10232409443D

 25 29  0  0  0  0  0  0  0  0999 V2000
  186.2350  178.7820  142.1750 C   0  0  0  0  0  3  0  0  0  0  0  0
  186.6460  177.9870  143.1260 C   0  0  0  0  0  0  0  0  0  0  0  0
  187.0580  177.1890  144.0750 C   0  0  0  0  0  0  0  0  0  0  0  0
  181.1540  178.8080  143.0560 N   0  0  0  0  0  0  0  0  0  0  0  0
  182.1670  178.8480  143.9810 C   0  0  0  0  0  3  0  0  0  0  0  0
  182.7430  178.6890  141.3230 C   0  0  0  0  0  0  0  0  0  0  0  0
  183.2650  178.6100  140.0860 N   0  0  0  0  0  0  0  0  0  0  0  0
  183.4730  178.8160  143.5780 N   0  0  0  0  0  0  0  0  0  0  0  0
  184.6070  178.6230  140.3130 C   0  0  0  0  0  3  0  0  0  0  0  0
  184.9130  178.7050  141.6320 N   0  0  0  0  0  0  0  0  0  0  0  0
  181.4170  178.7250  141.7160 C   0  0  0  0  0  0  0  0  0  0  0  0
  180.3560  178.6960  140.7650 N   0  0  0  0  0  1  0  0  0  0  0  0
  183.7250  178.7430  142.2480 C   0  0  0  0  0  0  0  0  0  0  0  0
  186.1360  178.6650  145.8180 C   0  0  0  0  0  2  0  0  0  0  0  0
  187.1840  177.8080  146.4920 C   0  0  0  0  0  2  0  0  0  0  0  0
  186.3270  177.2250  145.3830 C   0  0  0  0  0  3  0  0  0  0  0  0
  188.1370  176.3090  143.8770 O   0  0  0  0  0  0  0  0  0  0  0  0
  189.5040  176.7160  143.7930 C   0  0  0  0  0  0  0  0  0  0  0  0
  190.5010  175.8430  143.0630 C   0  0  0  0  0  2  0  0  0  0  0  0
  189.9140  177.0800  142.3870 C   0  0  0  0  0  2  0  0  0  0  0  0
  190.0000  177.6620  144.7850 N   0  0  0  0  0  2  0  0  0  0  0  0
  191.1590  177.0760  145.4410 C   0  0  0  0  0  2  0  0  0  0  0  0
  190.8500  176.7950  146.8910 C   0  0  0  0  0  3  0  0  0  0  0  0
  192.0090  176.9060  147.6270 O   0  0  0  0  0  0  0  0  0  0  0  0
  191.5480  175.6870  147.3090 O   0  0  0  0  0  0  0  0  0  0  0  0
  1  2  2  0  0  0  0
  2  3  2  0  0  0  0
  3 16  1  0  0  0  0
  4  5  1  0  0  0  0
  6 11  1  0  0  0  0
  6 13  2  0  0  0  0
  7  9  2  0  0  0  0
  7  6  1  0  0  0  0
  8  5  2  0  0  0  0
  9 10  1  0  0  0  0
 10  1  1  0  0  0  0
 10 13  1  0  0  0  0
 11  4  2  0  0  0  0
 12 11  1  0  0  0  0
 13  8  1  0  0  0  0
 14 15  1  0  0  0  0
 16 14  1  0  0  0  0
 16 15  1  0  0  0  0
 17  3  1  0  0  0  0
 18 17  1  0  0  0  0
 18 21  1  0  0  0  0
 19 18  1  0  0  0  0
 20 19  1  0  0  0  0
 20 18  1  0  0  0  0
 21 22  1  0  0  0  0
 22 23  1  0  0  0  0
 23 25  1  0  0  0  0
 23 24  1  0  0  0  0
 25 24  1  0  0  0  0
M  END
>  <MODEL>
7

>  <REMARK>
 VINA RESULT:      -6.9      3.438      6.052
  Name = 
  7 active torsions:
  status: ('A' for Active; 'I' for Inactive)
    1  A    between atoms: C_3  and  C_7
    2  A    between atoms: C_4  and  O_18
    3  A    between atoms: C_4  and  N_22
    4  A    between atoms: C_7  and  N_22
    5  A    between atoms: C_10  and  N_20
    6  A    between atoms: C_12  and  C_13
    7  A    between atoms: C_12  and  O_18
                            x       y       z     vdW  Elec       q    Type
                         _______ _______ _______ _____ _____    ______ ____

>  <TORSDO>
F 7

$$$$
=
 OpenBabel10232409443D

 25 29  0  0  0  0  0  0  0  0999 V2000
  186.9590  178.5950  142.1170 C   0  0  0  0  0  3  0  0  0  0  0  0
  187.6860  178.0440  143.0520 C   0  0  0  0  0  0  0  0  0  0  0  0
  188.4100  177.4890  143.9870 C   0  0  0  0  0  0  0  0  0  0  0  0
  182.5030  179.3450  139.6350 N   0  0  0  0  0  0  0  0  0  0  0  0
  183.7740  179.4800  139.1370 C   0  0  0  0  0  3  0  0  0  0  0  0
  183.3890  178.7810  141.7420 C   0  0  0  0  0  0  0  0  0  0  0  0
  183.4470  178.4340  143.0400 N   0  0  0  0  0  0  0  0  0  0  0  0
  184.8580  179.2590  139.9400 N   0  0  0  0  0  0  0  0  0  0  0  0
  184.7850  178.3550  143.2810 C   0  0  0  0  0  3  0  0  0  0  0  0
  185.5300  178.6400  142.1850 N   0  0  0  0  0  0  0  0  0  0  0  0
  182.2820  178.9980  140.9390 C   0  0  0  0  0  0  0  0  0  0  0  0
  180.9570  178.8480  141.4410 N   0  0  0  0  0  1  0  0  0  0  0  0
  184.6320  178.9070  141.2290 C   0  0  0  0  0  0  0  0  0  0  0  0
  188.8090  177.0290  146.3740 C   0  0  0  0  0  2  0  0  0  0  0  0
  187.3260  177.2860  146.2290 C   0  0  0  0  0  2  0  0  0  0  0  0
  188.3160  178.0550  145.3720 C   0  0  0  0  0  3  0  0  0  0  0  0
  189.2380  176.3850  143.7160 O   0  0  0  0  0  0  0  0  0  0  0  0
  190.4780  176.4610  143.0110 C   0  0  0  0  0  0  0  0  0  0  0  0
  191.6040  177.3060  143.5650 C   0  0  0  0  0  2  0  0  0  0  0  0
  191.6090  175.7910  143.7520 C   0  0  0  0  0  2  0  0  0  0  0  0
  190.4770  176.1480  141.5860 N   0  0  0  0  0  2  0  0  0  0  0  0
  190.9930  177.2990  140.8620 C   0  0  0  0  0  2  0  0  0  0  0  0
  190.3180  177.4120  139.5160 C   0  0  0  0  0  3  0  0  0  0  0  0
  189.3650  178.4040  139.5730 O   0  0  0  0  0  0  0  0  0  0  0  0
  188.9810  177.1220  139.6400 O   0  0  0  0  0  0  0  0  0  0  0  0
  1 10  1  0  0  0  0
  1  2  2  0  0  0  0
  2  3  2  0  0  0  0
  3 16  1  0  0  0  0
  4 11  1  0  0  0  0
  5  4  2  0  0  0  0
  5  8  1  0  0  0  0
  6  7  1  0  0  0  0
  7  9  2  0  0  0  0
  8 13  2  0  0  0  0
 10  9  1  0  0  0  0
 11 12  1  0  0  0  0
 11  6  2  0  0  0  0
 13  6  1  0  0  0  0
 13 10  1  0  0  0  0
 15 14  1  0  0  0  0
 16 15  1  0  0  0  0
 16 14  1  0  0  0  0
 17  3  1  0  0  0  0
 18 19  1  0  0  0  0
 18 17  1  0  0  0  0
 18 20  1  0  0  0  0
 19 20  1  0  0  0  0
 21 18  1  0  0  0  0
 22 21  1  0  0  0  0
 23 24  1  0  0  0  0
 23 25  1  0  0  0  0
 23 22  1  0  0  0  0
 24 25  1  0  0  0  0
M  END
>  <MODEL>
8

>  <REMARK>
 VINA RESULT:      -6.9      3.345      5.688
  Name = 
  7 active torsions:
  status: ('A' for Active; 'I' for Inactive)
    1  A    between atoms: C_3  and  C_7
    2  A    between atoms: C_4  and  O_18
    3  A    between atoms: C_4  and  N_22
    4  A    between atoms: C_7  and  N_22
    5  A    between atoms: C_10  and  N_20
    6  A    between atoms: C_12  and  C_13
    7  A    between atoms: C_12  and  O_18
                            x       y       z     vdW  Elec       q    Type
                         _______ _______ _______ _____ _____    ______ ____

>  <TORSDO>
F 7

$$$$
=
 OpenBabel10232409443D

 25 29  0  0  0  0  0  0  0  0999 V2000
  188.7300  178.4770  141.7560 C   0  0  0  0  0  3  0  0  0  0  0  0
  187.9270  178.0170  142.6770 C   0  0  0  0  0  0  0  0  0  0  0  0
  187.1240  177.5540  143.5990 C   0  0  0  0  0  0  0  0  0  0  0  0
  186.1910  177.8530  137.3120 N   0  0  0  0  0  0  0  0  0  0  0  0
  185.7240  178.4130  138.4750 C   0  0  0  0  0  3  0  0  0  0  0  0
  188.2600  177.4260  138.3500 C   0  0  0  0  0  0  0  0  0  0  0  0
  189.5270  177.0100  138.5260 N   0  0  0  0  0  0  0  0  0  0  0  0
  186.5280  178.4860  139.5790 N   0  0  0  0  0  0  0  0  0  0  0  0
  189.7910  177.3580  139.8170 C   0  0  0  0  0  3  0  0  0  0  0  0
  188.7380  177.9610  140.4210 N   0  0  0  0  0  0  0  0  0  0  0  0
  187.4580  177.3490  137.2250 C   0  0  0  0  0  0  0  0  0  0  0  0
  187.9360  176.7810  136.0080 N   0  0  0  0  0  1  0  0  0  0  0  0
  187.7860  177.9920  139.4810 C   0  0  0  0  0  0  0  0  0  0  0  0
  185.2880  179.1090  143.0710 C   0  0  0  0  0  2  0  0  0  0  0  0
  184.9660  178.5070  144.4210 C   0  0  0  0  0  2  0  0  0  0  0  0
  185.6490  177.6640  143.3580 C   0  0  0  0  0  3  0  0  0  0  0  0
  187.6200  176.9540  144.7700 O   0  0  0  0  0  0  0  0  0  0  0  0
  188.3520  177.6470  145.7820 C   0  0  0  0  0  0  0  0  0  0  0  0
  187.6080  178.3360  146.9050 C   0  0  0  0  0  2  0  0  0  0  0  0
  188.2570  176.9720  147.1290 C   0  0  0  0  0  2  0  0  0  0  0  0
  189.7060  178.0880  145.4700 N   0  0  0  0  0  2  0  0  0  0  0  0
  190.5640  176.9160  145.3880 C   0  0  0  0  0  2  0  0  0  0  0  0
  191.2330  176.8530  144.0360 C   0  0  0  0  0  3  0  0  0  0  0  0
  190.7490  175.7660  143.3450 O   0  0  0  0  0  0  0  0  0  0  0  0
  191.9540  175.6880  143.9280 O   0  0  0  0  0  0  0  0  0  0  0  0
  1  2  2  0  0  0  0
  2  3  2  0  0  0  0
  3 17  1  0  0  0  0
  4  5  1  0  0  0  0
  5  8  2  0  0  0  0
  6  7  1  0  0  0  0
  6 13  2  0  0  0  0
  7  9  2  0  0  0  0
  9 10  1  0  0  0  0
 10  1  1  0  0  0  0
 11  4  2  0  0  0  0
 11  6  1  0  0  0  0
 12 11  1  0  0  0  0
 13  8  1  0  0  0  0
 13 10  1  0  0  0  0
 14 16  1  0  0  0  0
 14 15  1  0  0  0  0
 16  3  1  0  0  0  0
 16 15  1  0  0  0  0
 17 18  1  0  0  0  0
 18 19  1  0  0  0  0
 18 20  1  0  0  0  0
 19 20  1  0  0  0  0
 21 18  1  0  0  0  0
 22 21  1  0  0  0  0
 23 22  1  0  0  0  0
 24 25  1  0  0  0  0
 24 23  1  0  0  0  0
 25 23  1  0  0  0  0
M  END
>  <MODEL>
9

>  <REMARK>
 VINA RESULT:      -6.8      2.180      4.304
  Name = 
  7 active torsions:
  status: ('A' for Active; 'I' for Inactive)
    1  A    between atoms: C_3  and  C_7
    2  A    between atoms: C_4  and  O_18
    3  A    between atoms: C_4  and  N_22
    4  A    between atoms: C_7  and  N_22
    5  A    between atoms: C_10  and  N_20
    6  A    between atoms: C_12  and  C_13
    7  A    between atoms: C_12  and  O_18
                            x       y       z     vdW  Elec       q    Type
                         _______ _______ _______ _____ _____    ______ ____

>  <TORSDO>
F 7

$$$$
