=
 OpenBabel10232411373D

 27 31  0  0  1  0  0  0  0  0999 V2000
  191.3180  176.8630  146.3930 C   0  0  0  0  0  3  0  0  0  0  0  0
  190.0190  177.1610  146.8510 C   0  0  0  0  0  3  0  0  0  0  0  0
  188.3780  177.8290  143.4360 C   0  0  1  0  0  3  0  0  0  0  0  0
  190.5810  177.2110  144.1410 C   0  0  0  0  0  0  0  0  0  0  0  0
  189.0940  177.9060  140.9270 C   0  0  0  0  0  3  0  0  0  0  0  0
  193.6370  176.4430  137.5310 N   0  0  0  0  0  1  0  0  0  0  0  0
  192.5280  176.3800  138.4190 C   0  0  0  0  0  0  0  0  0  0  0  0
  191.5550  175.6260  138.1490 O   0  0  0  0  0  0  0  0  0  0  0  0
  191.4310  177.3210  140.5080 C   0  0  0  0  0  0  0  0  0  0  0  0
  189.9130  178.0450  138.5890 C   0  0  0  0  0  1  0  0  0  0  0  0
  188.9980  177.4870  145.9430 C   0  0  0  0  0  3  0  0  0  0  0  0
  191.6120  176.8870  145.0200 C   0  0  0  0  0  3  0  0  0  0  0  0
  192.5510  177.1380  139.6320 N   0  0  0  0  0  2  0  0  0  0  0  0
  189.3020  177.5030  144.5800 C   0  0  0  0  0  0  0  0  0  0  0  0
  191.6240  177.1540  141.8490 N   0  0  0  0  0  0  0  0  0  0  0  0
  190.1530  177.7240  140.0240 C   0  0  0  0  0  0  0  0  0  0  0  0
  190.5880  177.3250  142.7060 C   0  0  0  0  0  0  0  0  0  0  0  0
  189.3310  177.6840  142.2790 C   0  0  0  0  0  0  0  0  0  0  0  0
  187.3320  176.8190  143.3490 N   0  0  0  0  0  2  0  0  0  0  0  0
  185.2610  178.0870  144.5690 C   0  0  0  0  0  0  0  0  0  0  0  0
  182.9830  179.0920  143.5340 C   0  0  0  0  0  0  0  0  0  0  0  0
  183.8210  178.4630  142.6140 N   0  0  0  0  0  0  0  0  0  0  0  0
  183.3140  179.2030  144.9690 C   0  0  0  0  0  3  0  0  0  0  0  0
  181.7580  179.6510  143.0760 N   0  0  0  0  0  1  0  0  0  0  0  0
  184.9010  178.0140  143.2480 C   0  0  0  0  0  0  0  0  0  0  0  0
  186.1190  177.4490  143.6550 N   0  0  0  0  0  0  0  0  0  0  0  0
  184.5290  178.6770  145.5560 C   0  0  0  0  0  3  0  0  0  0  0  0
  1  2  1  0  0  0  0
  3 19  1  6  0  0  0
  3 14  1  0  0  0  0
  4 14  2  0  0  0  0
  4 12  1  0  0  0  0
  5 18  1  0  0  0  0
  6  7  1  0  0  0  0
  7 13  1  0  0  0  0
  8  7  2  0  0  0  0
  9 15  2  0  0  0  0
 10 16  1  0  0  0  0
 11  2  2  0  0  0  0
 12  1  2  0  0  0  0
 13  9  1  0  0  0  0
 14 11  1  0  0  0  0
 15 17  1  0  0  0  0
 16  9  1  0  0  0  0
 16  5  2  0  0  0  0
 17  4  1  0  0  0  0
 18 17  2  0  0  0  0
 18  3  1  0  0  0  0
 19 26  1  0  0  0  0
 20 27  1  0  0  0  0
 21 23  1  0  0  0  0
 22 25  1  0  0  0  0
 22 21  2  0  0  0  0
 23 27  2  0  0  0  0
 24 21  1  0  0  0  0
 25 26  1  0  0  0  0
 25 20  2  0  0  0  0
 26 20  1  0  0  0  0
M  END
>  <MODEL>
1

>  <REMARK>
 VINA RESULT:     -10.1      0.000      0.000
  Name = 
  2 active torsions:
  status: ('A' for Active; 'I' for Inactive)
    1  A    between atoms: C_3  and  N_12
    2  A    between atoms: N_12  and  N_23
                            x       y       z     vdW  Elec       q    Type
                         _______ _______ _______ _____ _____    ______ ____

>  <TORSDO>
F 2

$$$$
=
 OpenBabel10232411373D

 27 31  0  0  1  0  0  0  0  0999 V2000
  191.0150  176.5200  147.5890 C   0  0  0  0  0  3  0  0  0  0  0  0
  192.0640  176.2320  146.6930 C   0  0  0  0  0  3  0  0  0  0  0  0
  190.1590  176.8420  143.4070 C   0  0  1  0  0  3  0  0  0  0  0  0
  189.5790  176.9720  145.7260 C   0  0  0  0  0  0  0  0  0  0  0  0
  187.7390  177.4770  142.6630 C   0  0  0  0  0  3  0  0  0  0  0  0
  182.7250  179.4370  144.9710 N   0  0  0  0  0  1  0  0  0  0  0  0
  184.0780  179.3360  144.5480 C   0  0  0  0  0  0  0  0  0  0  0  0
  184.5720  180.2360  143.8170 O   0  0  0  0  0  0  0  0  0  0  0  0
  186.1810  177.9120  144.4970 C   0  0  0  0  0  0  0  0  0  0  0  0
  185.3830  177.9880  142.0740 C   0  0  0  0  0  1  0  0  0  0  0  0
  191.8630  176.3160  145.3050 C   0  0  0  0  0  3  0  0  0  0  0  0
  189.7500  176.8940  147.1060 C   0  0  0  0  0  3  0  0  0  0  0  0
  184.8790  178.2400  144.9990 N   0  0  0  0  0  2  0  0  0  0  0  0
  190.6030  176.6950  144.8390 C   0  0  0  0  0  0  0  0  0  0  0  0
  187.1700  177.6310  145.3960 N   0  0  0  0  0  0  0  0  0  0  0  0
  186.4500  177.8180  143.1010 C   0  0  0  0  0  0  0  0  0  0  0  0
  188.4110  177.3110  144.9550 C   0  0  0  0  0  0  0  0  0  0  0  0
  188.7220  177.2390  143.6180 C   0  0  0  0  0  0  0  0  0  0  0  0
  190.8900  177.9330  142.7780 N   0  0  0  0  0  2  0  0  0  0  0  0
  190.8870  177.0600  140.2050 C   0  0  0  0  0  0  0  0  0  0  0  0
  192.9200  176.8010  138.4530 C   0  0  0  0  0  0  0  0  0  0  0  0
  193.2880  177.2490  139.7210 N   0  0  0  0  0  0  0  0  0  0  0  0
  191.5220  176.4910  138.0910 C   0  0  0  0  0  3  0  0  0  0  0  0
  193.9290  176.6350  137.4640 N   0  0  0  0  0  1  0  0  0  0  0  0
  192.2020  177.3320  140.4840 C   0  0  0  0  0  0  0  0  0  0  0  0
  191.2410  177.5110  141.4900 N   0  0  0  0  0  0  0  0  0  0  0  0
  190.4080  176.6210  139.0070 C   0  0  0  0  0  3  0  0  0  0  0  0
  2  1  2  0  0  0  0
  3 19  1  1  0  0  0
  3 18  1  0  0  0  0
  3 14  1  0  0  0  0
  4 12  2  0  0  0  0
  5 16  2  0  0  0  0
  5 18  1  0  0  0  0
  7  6  1  0  0  0  0
  7 13  1  0  0  0  0
  8  7  2  0  0  0  0
  9 13  1  0  0  0  0
  9 15  2  0  0  0  0
 10 16  1  0  0  0  0
 11  2  1  0  0  0  0
 12  1  1  0  0  0  0
 14 11  2  0  0  0  0
 14  4  1  0  0  0  0
 16  9  1  0  0  0  0
 17 15  1  0  0  0  0
 17  4  1  0  0  0  0
 18 17  2  0  0  0  0
 20 25  1  0  0  0  0
 20 26  1  0  0  0  0
 21 22  1  0  0  0  0
 22 25  2  0  0  0  0
 23 21  2  0  0  0  0
 23 27  1  0  0  0  0
 24 21  1  0  0  0  0
 25 26  1  0  0  0  0
 26 19  1  0  0  0  0
 27 20  2  0  0  0  0
M  END
>  <MODEL>
2

>  <REMARK>
 VINA RESULT:      -9.9      2.336      7.344
  Name = 
  2 active torsions:
  status: ('A' for Active; 'I' for Inactive)
    1  A    between atoms: C_3  and  N_12
    2  A    between atoms: N_12  and  N_23
                            x       y       z     vdW  Elec       q    Type
                         _______ _______ _______ _____ _____    ______ ____

>  <TORSDO>
F 2

$$$$
=
 OpenBabel10232411373D

 27 31  0  0  1  0  0  0  0  0999 V2000
  183.4330  179.1690  144.3630 C   0  0  0  0  0  3  0  0  0  0  0  0
  183.9810  178.7870  145.6040 C   0  0  0  0  0  3  0  0  0  0  0  0
  187.4080  177.5810  144.3380 C   0  0  1  0  0  3  0  0  0  0  0  0
  185.4640  178.5010  143.2850 C   0  0  0  0  0  0  0  0  0  0  0  0
  188.6380  177.3050  142.0530 C   0  0  0  0  0  3  0  0  0  0  0  0
  188.0350  178.8580  136.4370 N   0  0  0  0  0  1  0  0  0  0  0  0
  188.2050  178.9000  137.8480 C   0  0  0  0  0  0  0  0  0  0  0  0
  189.1900  179.5140  138.3390 O   0  0  0  0  0  0  0  0  0  0  0  0
  187.3790  178.0840  140.1070 C   0  0  0  0  0  0  0  0  0  0  0  0
  189.6690  176.9970  139.8160 C   0  0  0  0  0  1  0  0  0  0  0  0
  185.2800  178.2580  145.6800 C   0  0  0  0  0  3  0  0  0  0  0  0
  184.1780  179.0260  143.1810 C   0  0  0  0  0  3  0  0  0  0  0  0
  187.2300  178.2870  138.6960 N   0  0  0  0  0  2  0  0  0  0  0  0
  186.0120  178.1260  144.4980 C   0  0  0  0  0  0  0  0  0  0  0  0
  186.3360  178.4160  140.9230 N   0  0  0  0  0  0  0  0  0  0  0  0
  188.5510  177.4980  140.6650 C   0  0  0  0  0  0  0  0  0  0  0  0
  186.4400  178.2310  142.2610 C   0  0  0  0  0  0  0  0  0  0  0  0
  187.5650  177.6980  142.8450 C   0  0  0  0  0  0  0  0  0  0  0  0
  188.3560  178.4590  145.0090 N   0  0  0  0  0  2  0  0  0  0  0  0
  190.5240  176.8300  145.1880 C   0  0  0  0  0  0  0  0  0  0  0  0
  191.9570  176.0700  147.3410 C   0  0  0  0  0  0  0  0  0  0  0  0
  190.8670  176.8940  147.6190 N   0  0  0  0  0  0  0  0  0  0  0  0
  192.3050  175.6430  145.9700 C   0  0  0  0  0  3  0  0  0  0  0  0
  192.7690  175.6200  148.4180 N   0  0  0  0  0  1  0  0  0  0  0  0
  190.2490  177.1940  146.4810 C   0  0  0  0  0  0  0  0  0  0  0  0
  189.4200  177.6620  145.4500 N   0  0  0  0  0  0  0  0  0  0  0  0
  191.5580  176.0340  144.7940 C   0  0  0  0  0  3  0  0  0  0  0  0
  1  2  1  0  0  0  0
  2 11  2  0  0  0  0
  3 14  1  0  0  0  0
  3 19  1  1  0  0  0
  4 14  2  0  0  0  0
  5 18  1  0  0  0  0
  6  7  1  0  0  0  0
  7  8  2  0  0  0  0
  7 13  1  0  0  0  0
  9 16  1  0  0  0  0
  9 15  2  0  0  0  0
 10 16  1  0  0  0  0
 12  4  1  0  0  0  0
 12  1  2  0  0  0  0
 13  9  1  0  0  0  0
 14 11  1  0  0  0  0
 15 17  1  0  0  0  0
 16  5  2  0  0  0  0
 17 18  2  0  0  0  0
 17  4  1  0  0  0  0
 18  3  1  0  0  0  0
 19 26  1  0  0  0  0
 20 26  1  0  0  0  0
 20 25  1  0  0  0  0
 21 22  1  0  0  0  0
 21 24  1  0  0  0  0
 23 21  2  0  0  0  0
 25 22  2  0  0  0  0
 26 25  1  0  0  0  0
 27 20  2  0  0  0  0
 27 23  1  0  0  0  0
M  END
>  <MODEL>
3

>  <REMARK>
 VINA RESULT:      -9.8      2.769      6.123
  Name = 
  2 active torsions:
  status: ('A' for Active; 'I' for Inactive)
    1  A    between atoms: C_3  and  N_12
    2  A    between atoms: N_12  and  N_23
                            x       y       z     vdW  Elec       q    Type
                         _______ _______ _______ _____ _____    ______ ____

>  <TORSDO>
F 2

$$$$
=
 OpenBabel10232411373D

 27 31  0  0  1  0  0  0  0  0999 V2000
  190.7380  176.9320  137.1450 C   0  0  0  0  0  3  0  0  0  0  0  0
  191.7560  176.6180  138.0680 C   0  0  0  0  0  3  0  0  0  0  0  0
  189.8410  177.4510  141.2980 C   0  0  1  0  0  3  0  0  0  0  0  0
  189.3010  177.5240  138.9670 C   0  0  0  0  0  0  0  0  0  0  0  0
  187.5010  178.3900  141.9730 C   0  0  0  0  0  3  0  0  0  0  0  0
  182.2890  179.5480  139.5650 N   0  0  0  0  0  1  0  0  0  0  0  0
  183.4470  178.8740  140.0380 C   0  0  0  0  0  0  0  0  0  0  0  0
  183.3240  177.9080  140.8370 O   0  0  0  0  0  0  0  0  0  0  0  0
  185.9860  178.8150  140.1020 C   0  0  0  0  0  0  0  0  0  0  0  0
  185.2850  179.3810  142.4890 C   0  0  0  0  0  1  0  0  0  0  0  0
  191.5400  176.7610  139.4480 C   0  0  0  0  0  3  0  0  0  0  0  0
  189.4900  177.3940  137.5940 C   0  0  0  0  0  3  0  0  0  0  0  0
  184.7380  179.2690  139.5630 N   0  0  0  0  0  2  0  0  0  0  0  0
  190.2930  177.2160  139.8810 C   0  0  0  0  0  0  0  0  0  0  0  0
  186.9570  178.4080  139.2310 N   0  0  0  0  0  0  0  0  0  0  0  0
  186.2550  178.8300  141.5000 C   0  0  0  0  0  0  0  0  0  0  0  0
  188.1510  177.9790  139.7060 C   0  0  0  0  0  0  0  0  0  0  0  0
  188.4420  177.9480  141.0490 C   0  0  0  0  0  0  0  0  0  0  0  0
  189.8000  176.1850  142.0150 N   0  0  0  0  0  2  0  0  0  0  0  0
  189.4940  176.8710  144.6270 C   0  0  0  0  0  0  0  0  0  0  0  0
  191.2410  176.7460  146.6760 C   0  0  0  0  0  0  0  0  0  0  0  0
  191.7500  176.3430  145.4420 N   0  0  0  0  0  0  0  0  0  0  0  0
  189.8490  177.2060  146.8530 C   0  0  0  0  0  3  0  0  0  0  0  0
  192.0940  176.7130  147.8140 N   0  0  0  0  0  1  0  0  0  0  0  0
  190.7960  176.4530  144.5220 C   0  0  0  0  0  0  0  0  0  0  0  0
  189.9900  176.4680  143.3740 N   0  0  0  0  0  0  0  0  0  0  0  0
  188.8860  177.2830  145.7750 C   0  0  0  0  0  3  0  0  0  0  0  0
  1 12  2  0  0  0  0
  1  2  1  0  0  0  0
  2 11  2  0  0  0  0
  3 19  1  1  0  0  0
  4 17  1  0  0  0  0
  4 14  2  0  0  0  0
  6  7  1  0  0  0  0
  7  8  2  0  0  0  0
  9 16  1  0  0  0  0
 11 14  1  0  0  0  0
 12  4  1  0  0  0  0
 13  7  1  0  0  0  0
 13  9  1  0  0  0  0
 14  3  1  0  0  0  0
 15 17  1  0  0  0  0
 15  9  2  0  0  0  0
 16  5  2  0  0  0  0
 16 10  1  0  0  0  0
 17 18  2  0  0  0  0
 18  3  1  0  0  0  0
 18  5  1  0  0  0  0
 19 26  1  0  0  0  0
 20 27  1  0  0  0  0
 21 23  1  0  0  0  0
 21 24  1  0  0  0  0
 22 21  2  0  0  0  0
 25 20  2  0  0  0  0
 25 22  1  0  0  0  0
 26 25  1  0  0  0  0
 26 20  1  0  0  0  0
 27 23  2  0  0  0  0
M  END
>  <MODEL>
4

>  <REMARK>
 VINA RESULT:      -9.6      2.929      6.952
  Name = 
  2 active torsions:
  status: ('A' for Active; 'I' for Inactive)
    1  A    between atoms: C_3  and  N_12
    2  A    between atoms: N_12  and  N_23
                            x       y       z     vdW  Elec       q    Type
                         _______ _______ _______ _____ _____    ______ ____

>  <TORSDO>
F 2

$$$$
=
 OpenBabel10232411373D

 27 31  0  0  1  0  0  0  0  0999 V2000
  184.3800  178.4130  146.7170 C   0  0  0  0  0  3  0  0  0  0  0  0
  183.9120  178.7370  145.4280 C   0  0  0  0  0  3  0  0  0  0  0  0
  187.2360  178.3570  143.5290 C   0  0  1  0  0  3  0  0  0  0  0  0
  186.5760  178.0970  145.8160 C   0  0  0  0  0  0  0  0  0  0  0  0
  189.7270  177.8080  144.0810 C   0  0  0  0  0  3  0  0  0  0  0  0
  192.9830  175.7940  148.5130 N   0  0  0  0  0  1  0  0  0  0  0  0
  192.0220  175.8980  147.4710 C   0  0  0  0  0  0  0  0  0  0  0  0
  192.0040  175.0370  146.5520 O   0  0  0  0  0  0  0  0  0  0  0  0
  190.1690  177.2880  146.4280 C   0  0  0  0  0  0  0  0  0  0  0  0
  192.0800  177.3710  144.7390 C   0  0  0  0  0  1  0  0  0  0  0  0
  184.7870  178.7400  144.3290 C   0  0  0  0  0  3  0  0  0  0  0  0
  185.7310  178.0890  146.9230 C   0  0  0  0  0  3  0  0  0  0  0  0
  191.0550  176.9520  147.5040 N   0  0  0  0  0  2  0  0  0  0  0  0
  186.1260  178.4110  144.5460 C   0  0  0  0  0  0  0  0  0  0  0  0
  188.8510  177.4990  146.7170 N   0  0  0  0  0  0  0  0  0  0  0  0
  190.6350  177.4620  145.0930 C   0  0  0  0  0  0  0  0  0  0  0  0
  187.9870  177.8250  145.7250 C   0  0  0  0  0  0  0  0  0  0  0  0
  188.3880  177.9720  144.4180 C   0  0  0  0  0  0  0  0  0  0  0  0
  186.9690  177.2950  142.5700 N   0  0  0  0  0  2  0  0  0  0  0  0
  188.9820  177.3250  140.7440 C   0  0  0  0  0  0  0  0  0  0  0  0
  189.0790  178.4130  138.2790 C   0  0  0  0  0  0  0  0  0  0  0  0
  187.8850  178.6220  138.9690 N   0  0  0  0  0  0  0  0  0  0  0  0
  190.2080  177.6530  138.8510 C   0  0  0  0  0  3  0  0  0  0  0  0
  189.2180  178.9530  136.9710 N   0  0  0  0  0  1  0  0  0  0  0  0
  187.9660  178.0410  140.1620 C   0  0  0  0  0  0  0  0  0  0  0  0
  187.7840  177.5260  141.4550 N   0  0  0  0  0  0  0  0  0  0  0  0
  190.1880  177.0550  140.1700 C   0  0  0  0  0  3  0  0  0  0  0  0
  1 12  1  0  0  0  0
  2  1  2  0  0  0  0
  3 19  1  6  0  0  0
  3 18  1  0  0  0  0
  3 14  1  0  0  0  0
  4 12  2  0  0  0  0
  5 18  1  0  0  0  0
  5 16  2  0  0  0  0
  7 13  1  0  0  0  0
  7  6  1  0  0  0  0
  8  7  2  0  0  0  0
  9 15  2  0  0  0  0
  9 13  1  0  0  0  0
 10 16  1  0  0  0  0
 11 14  2  0  0  0  0
 11  2  1  0  0  0  0
 14  4  1  0  0  0  0
 16  9  1  0  0  0  0
 17  4  1  0  0  0  0
 17 15  1  0  0  0  0
 18 17  2  0  0  0  0
 20 26  1  0  0  0  0
 21 23  1  0  0  0  0
 21 22  2  0  0  0  0
 22 25  1  0  0  0  0
 23 27  2  0  0  0  0
 24 21  1  0  0  0  0
 25 20  2  0  0  0  0
 25 26  1  0  0  0  0
 26 19  1  0  0  0  0
 27 20  1  0  0  0  0
M  END
>  <MODEL>
5

>  <REMARK>
 VINA RESULT:      -9.5      2.962      6.356
  Name = 
  2 active torsions:
  status: ('A' for Active; 'I' for Inactive)
    1  A    between atoms: C_3  and  N_12
    2  A    between atoms: N_12  and  N_23
                            x       y       z     vdW  Elec       q    Type
                         _______ _______ _______ _____ _____    ______ ____

>  <TORSDO>
F 2

$$$$
=
 OpenBabel10232411373D

 27 31  0  0  1  0  0  0  0  0999 V2000
  190.9940  177.0030  137.7060 C   0  0  0  0  0  3  0  0  0  0  0  0
  191.9550  176.6910  138.6880 C   0  0  0  0  0  3  0  0  0  0  0  0
  189.8270  177.4610  141.7990 C   0  0  1  0  0  3  0  0  0  0  0  0
  189.4350  177.5550  139.4390 C   0  0  0  0  0  0  0  0  0  0  0  0
  187.4360  178.3620  142.3320 C   0  0  0  0  0  3  0  0  0  0  0  0
  182.3730  179.4840  139.6090 N   0  0  0  0  0  1  0  0  0  0  0  0
  183.5080  178.8180  140.1480 C   0  0  0  0  0  0  0  0  0  0  0  0
  183.3460  177.8410  140.9260 O   0  0  0  0  0  0  0  0  0  0  0  0
  186.0380  178.7900  140.3730 C   0  0  0  0  0  0  0  0  0  0  0  0
  185.1780  179.3190  142.7170 C   0  0  0  0  0  1  0  0  0  0  0  0
  191.6490  176.8140  140.0540 C   0  0  0  0  0  3  0  0  0  0  0  0
  189.7130  177.4440  138.0790 C   0  0  0  0  0  3  0  0  0  0  0  0
  184.8200  179.2350  139.7610 N   0  0  0  0  0  2  0  0  0  0  0  0
  190.3710  177.2480  140.4100 C   0  0  0  0  0  0  0  0  0  0  0  0
  187.0680  178.4070  139.5620 N   0  0  0  0  0  0  0  0  0  0  0  0
  186.2170  178.7920  141.7860 C   0  0  0  0  0  0  0  0  0  0  0  0
  188.2350  177.9860  140.1070 C   0  0  0  0  0  0  0  0  0  0  0  0
  188.4390  177.9430  141.4660 C   0  0  0  0  0  0  0  0  0  0  0  0
  189.7560  176.1850  142.4970 N   0  0  0  0  0  2  0  0  0  0  0  0
  190.7070  176.5220  145.0200 C   0  0  0  0  0  0  0  0  0  0  0  0
  189.5020  177.5220  147.2150 C   0  0  0  0  0  0  0  0  0  0  0  0
  188.6970  177.4570  146.0790 N   0  0  0  0  0  0  0  0  0  0  0  0
  190.9110  177.0790  147.2220 C   0  0  0  0  0  3  0  0  0  0  0  0
  188.9480  178.0360  148.4200 N   0  0  0  0  0  1  0  0  0  0  0  0
  189.4050  176.9490  145.0750 C   0  0  0  0  0  0  0  0  0  0  0  0
  189.9090  176.4500  143.8640 N   0  0  0  0  0  0  0  0  0  0  0  0
  191.5880  176.5390  146.0610 C   0  0  0  0  0  3  0  0  0  0  0  0
  1 12  2  0  0  0  0
  1  2  1  0  0  0  0
  2 11  2  0  0  0  0
  3 19  1  1  0  0  0
  4 17  1  0  0  0  0
  4 14  2  0  0  0  0
  6  7  1  0  0  0  0
  7  8  2  0  0  0  0
  9 16  1  0  0  0  0
 11 14  1  0  0  0  0
 12  4  1  0  0  0  0
 13  7  1  0  0  0  0
 13  9  1  0  0  0  0
 14  3  1  0  0  0  0
 15 17  1  0  0  0  0
 15  9  2  0  0  0  0
 16  5  2  0  0  0  0
 16 10  1  0  0  0  0
 17 18  2  0  0  0  0
 18  3  1  0  0  0  0
 18  5  1  0  0  0  0
 19 26  1  0  0  0  0
 20 25  2  0  0  0  0
 20 27  1  0  0  0  0
 21 23  1  0  0  0  0
 21 24  1  0  0  0  0
 22 21  2  0  0  0  0
 25 22  1  0  0  0  0
 26 20  1  0  0  0  0
 26 25  1  0  0  0  0
 27 23  2  0  0  0  0
M  END
>  <MODEL>
6

>  <REMARK>
 VINA RESULT:      -9.3      2.888      6.613
  Name = 
  2 active torsions:
  status: ('A' for Active; 'I' for Inactive)
    1  A    between atoms: C_3  and  N_12
    2  A    between atoms: N_12  and  N_23
                            x       y       z     vdW  Elec       q    Type
                         _______ _______ _______ _____ _____    ______ ____

>  <TORSDO>
F 2

$$$$
=
 OpenBabel10232411373D

 27 31  0  0  1  0  0  0  0  0999 V2000
  189.7690  177.3120  146.8370 C   0  0  0  0  0  3  0  0  0  0  0  0
  188.4380  177.6210  147.1800 C   0  0  0  0  0  3  0  0  0  0  0  0
  187.0640  178.1430  143.6250 C   0  0  1  0  0  3  0  0  0  0  0  0
  189.2070  177.5660  144.5220 C   0  0  0  0  0  0  0  0  0  0  0  0
  187.9720  178.1240  141.1780 C   0  0  0  0  0  3  0  0  0  0  0  0
  192.7680  176.5530  138.2040 N   0  0  0  0  0  1  0  0  0  0  0  0
  191.5940  176.5200  139.0050 C   0  0  0  0  0  0  0  0  0  0  0  0
  190.6470  175.7500  138.6910 O   0  0  0  0  0  0  0  0  0  0  0  0
  190.3360  177.5360  140.9630 C   0  0  0  0  0  0  0  0  0  0  0  0
  188.9690  178.1750  138.9060 C   0  0  0  0  0  1  0  0  0  0  0  0
  187.4890  177.9050  146.1840 C   0  0  0  0  0  3  0  0  0  0  0  0
  190.1680  177.2830  145.4900 C   0  0  0  0  0  3  0  0  0  0  0  0
  191.5210  177.3250  140.1850 N   0  0  0  0  0  2  0  0  0  0  0  0
  187.8980  177.8680  144.8490 C   0  0  0  0  0  0  0  0  0  0  0  0
  190.4250  177.4240  142.3210 N   0  0  0  0  0  0  0  0  0  0  0  0
  189.0980  177.9130  140.3670 C   0  0  0  0  0  0  0  0  0  0  0  0
  189.3250  177.6240  143.0880 C   0  0  0  0  0  0  0  0  0  0  0  0
  188.1040  177.9570  142.5520 C   0  0  0  0  0  0  0  0  0  0  0  0
  186.0310  177.1250  143.4980 N   0  0  0  0  0  2  0  0  0  0  0  0
  184.0160  178.0930  141.9530 C   0  0  0  0  0  0  0  0  0  0  0  0
  181.7560  179.3870  142.6490 C   0  0  0  0  0  0  0  0  0  0  0  0
  182.6000  179.0620  143.7100 N   0  0  0  0  0  0  0  0  0  0  0  0
  182.0710  179.0480  141.2460 C   0  0  0  0  0  3  0  0  0  0  0  0
  180.5400  180.0710  142.9250 N   0  0  0  0  0  1  0  0  0  0  0  0
  183.6710  178.4330  143.2360 C   0  0  0  0  0  0  0  0  0  0  0  0
  184.8800  177.7580  143.0110 N   0  0  0  0  0  0  0  0  0  0  0  0
  183.2740  178.3530  140.8390 C   0  0  0  0  0  3  0  0  0  0  0  0
  1  2  1  0  0  0  0
  3 19  1  6  0  0  0
  3 14  1  0  0  0  0
  4 14  2  0  0  0  0
  4 12  1  0  0  0  0
  5 18  1  0  0  0  0
  6  7  1  0  0  0  0
  7 13  1  0  0  0  0
  8  7  2  0  0  0  0
  9 15  2  0  0  0  0
 10 16  1  0  0  0  0
 11  2  2  0  0  0  0
 12  1  2  0  0  0  0
 13  9  1  0  0  0  0
 14 11  1  0  0  0  0
 15 17  1  0  0  0  0
 16  9  1  0  0  0  0
 16  5  2  0  0  0  0
 17  4  1  0  0  0  0
 18 17  2  0  0  0  0
 18  3  1  0  0  0  0
 20 26  1  0  0  0  0
 20 25  1  0  0  0  0
 21 24  1  0  0  0  0
 21 22  1  0  0  0  0
 23 21  2  0  0  0  0
 25 22  2  0  0  0  0
 26 25  1  0  0  0  0
 26 19  1  0  0  0  0
 27 23  1  0  0  0  0
 27 20  2  0  0  0  0
M  END
>  <MODEL>
7

>  <REMARK>
 VINA RESULT:      -9.2      1.318      1.851
  Name = 
  2 active torsions:
  status: ('A' for Active; 'I' for Inactive)
    1  A    between atoms: C_3  and  N_12
    2  A    between atoms: N_12  and  N_23
                            x       y       z     vdW  Elec       q    Type
                         _______ _______ _______ _____ _____    ______ ____

>  <TORSDO>
F 2

$$$$
=
 OpenBabel10232411373D

 27 31  0  0  1  0  0  0  0  0999 V2000
  188.2030  177.4870  146.5690 C   0  0  0  0  0  3  0  0  0  0  0  0
  186.8450  177.8480  146.6650 C   0  0  0  0  0  3  0  0  0  0  0  0
  186.1560  178.3850  142.9190 C   0  0  1  0  0  3  0  0  0  0  0  0
  188.0790  177.7390  144.1900 C   0  0  0  0  0  0  0  0  0  0  0  0
  187.4900  178.3100  140.6760 C   0  0  0  0  0  3  0  0  0  0  0  0
  192.6810  176.5380  138.6230 N   0  0  0  0  0  1  0  0  0  0  0  0
  191.3820  176.5550  139.1980 C   0  0  0  0  0  0  0  0  0  0  0  0
  190.4790  175.8170  138.7210 O   0  0  0  0  0  0  0  0  0  0  0  0
  189.8300  177.6350  140.8940 C   0  0  0  0  0  0  0  0  0  0  0  0
  188.8820  178.3040  138.6220 C   0  0  0  0  0  1  0  0  0  0  0  0
  186.1030  178.1560  145.5130 C   0  0  0  0  0  3  0  0  0  0  0  0
  188.8380  177.4310  145.3170 C   0  0  0  0  0  3  0  0  0  0  0  0
  191.1270  177.3730  140.3440 N   0  0  0  0  0  2  0  0  0  0  0  0
  186.7440  178.0920  144.2740 C   0  0  0  0  0  0  0  0  0  0  0  0
  189.6680  177.5320  142.2460 N   0  0  0  0  0  0  0  0  0  0  0  0
  188.7350  178.0500  140.0830 C   0  0  0  0  0  0  0  0  0  0  0  0
  188.4560  177.7790  142.8010 C   0  0  0  0  0  0  0  0  0  0  0  0
  187.3650  178.1520  142.0520 C   0  0  0  0  0  0  0  0  0  0  0  0
  185.1260  177.4040  142.6100 N   0  0  0  0  0  2  0  0  0  0  0  0
  182.8510  178.4220  141.5270 C   0  0  0  0  0  0  0  0  0  0  0  0
  182.5070  180.0090  139.3740 C   0  0  0  0  0  0  0  0  0  0  0  0
  183.8270  179.6380  139.6280 N   0  0  0  0  0  0  0  0  0  0  0  0
  181.3780  179.5690  140.2190 C   0  0  0  0  0  3  0  0  0  0  0  0
  182.2320  180.8460  138.2570 N   0  0  0  0  0  1  0  0  0  0  0  0
  183.8590  178.8610  140.7070 C   0  0  0  0  0  0  0  0  0  0  0  0
  184.1770  178.0380  141.7980 N   0  0  0  0  0  0  0  0  0  0  0  0
  181.5290  178.7190  141.3820 C   0  0  0  0  0  3  0  0  0  0  0  0
  1  2  1  0  0  0  0
  3 19  1  6  0  0  0
  3 14  1  0  0  0  0
  4 14  2  0  0  0  0
  4 12  1  0  0  0  0
  5 18  1  0  0  0  0
  6  7  1  0  0  0  0
  7 13  1  0  0  0  0
  8  7  2  0  0  0  0
  9 15  2  0  0  0  0
 10 16  1  0  0  0  0
 11  2  2  0  0  0  0
 12  1  2  0  0  0  0
 13  9  1  0  0  0  0
 14 11  1  0  0  0  0
 15 17  1  0  0  0  0
 16  5  2  0  0  0  0
 16  9  1  0  0  0  0
 17  4  1  0  0  0  0
 18 17  2  0  0  0  0
 18  3  1  0  0  0  0
 20 26  1  0  0  0  0
 21 22  2  0  0  0  0
 21 23  1  0  0  0  0
 22 25  1  0  0  0  0
 23 27  2  0  0  0  0
 24 21  1  0  0  0  0
 25 20  2  0  0  0  0
 25 26  1  0  0  0  0
 26 19  1  0  0  0  0
 27 20  1  0  0  0  0
M  END
>  <MODEL>
8

>  <REMARK>
 VINA RESULT:      -8.8      2.139      2.919
  Name = 
  2 active torsions:
  status: ('A' for Active; 'I' for Inactive)
    1  A    between atoms: C_3  and  N_12
    2  A    between atoms: N_12  and  N_23
                            x       y       z     vdW  Elec       q    Type
                         _______ _______ _______ _____ _____    ______ ____

>  <TORSDO>
F 2

$$$$
=
 OpenBabel10232411373D

 27 31  0  0  1  0  0  0  0  0999 V2000
  192.0840  177.2740  141.0990 C   0  0  0  0  0  3  0  0  0  0  0  0
  191.7900  177.4210  142.4690 C   0  0  0  0  0  3  0  0  0  0  0  0
  188.0210  178.1240  142.1450 C   0  0  1  0  0  3  0  0  0  0  0  0
  189.7810  177.6790  140.5830 C   0  0  0  0  0  0  0  0  0  0  0  0
  186.2640  178.4130  140.2370 C   0  0  0  0  0  3  0  0  0  0  0  0
  185.7670  177.5880  134.4590 N   0  0  0  0  0  1  0  0  0  0  0  0
  185.9390  177.3690  135.8530 C   0  0  0  0  0  0  0  0  0  0  0  0
  185.1990  176.5420  136.4500 O   0  0  0  0  0  0  0  0  0  0  0  0
  187.1370  178.0790  137.9770 C   0  0  0  0  0  0  0  0  0  0  0  0
  184.7060  178.7640  138.3380 C   0  0  0  0  0  1  0  0  0  0  0  0
  190.4800  177.7000  142.8940 C   0  0  0  0  0  3  0  0  0  0  0  0
  191.0710  177.4060  140.1350 C   0  0  0  0  0  3  0  0  0  0  0  0
  186.9810  178.0540  136.5530 N   0  0  0  0  0  2  0  0  0  0  0  0
  189.4810  177.8220  141.9260 C   0  0  0  0  0  0  0  0  0  0  0  0
  188.3800  177.8540  138.4970 N   0  0  0  0  0  0  0  0  0  0  0  0
  186.0530  178.3850  138.8500 C   0  0  0  0  0  0  0  0  0  0  0  0
  188.5630  177.8770  139.8400 C   0  0  0  0  0  0  0  0  0  0  0  0
  187.5390  178.1370  140.7190 C   0  0  0  0  0  0  0  0  0  0  0  0
  187.3990  177.0260  142.8710 N   0  0  0  0  0  2  0  0  0  0  0  0
  186.4800  177.9290  145.2640 C   0  0  0  0  0  0  0  0  0  0  0  0
  187.6960  178.0360  147.6670 C   0  0  0  0  0  0  0  0  0  0  0  0
  188.4850  177.5420  146.6290 N   0  0  0  0  0  0  0  0  0  0  0  0
  186.2970  178.4680  147.4710 C   0  0  0  0  0  3  0  0  0  0  0  0
  188.2570  178.1280  148.9710 N   0  0  0  0  0  1  0  0  0  0  0  0
  187.7730  177.5430  145.5060 C   0  0  0  0  0  0  0  0  0  0  0  0
  187.2610  177.4330  144.2040 N   0  0  0  0  0  0  0  0  0  0  0  0
  185.6150  178.4220  146.1950 C   0  0  0  0  0  3  0  0  0  0  0  0
  1  2  1  0  0  0  0
  2 11  2  0  0  0  0
  3 19  1  1  0  0  0
  4 14  2  0  0  0  0
  5 18  1  0  0  0  0
  6  7  1  0  0  0  0
  7  8  2  0  0  0  0
  7 13  1  0  0  0  0
  9 15  2  0  0  0  0
  9 16  1  0  0  0  0
 10 16  1  0  0  0  0
 12  4  1  0  0  0  0
 12  1  2  0  0  0  0
 13  9  1  0  0  0  0
 14  3  1  0  0  0  0
 14 11  1  0  0  0  0
 15 17  1  0  0  0  0
 16  5  2  0  0  0  0
 17  4  1  0  0  0  0
 17 18  2  0  0  0  0
 18  3  1  0  0  0  0
 19 26  1  0  0  0  0
 20 25  2  0  0  0  0
 20 27  1  0  0  0  0
 21 24  1  0  0  0  0
 22 21  2  0  0  0  0
 23 21  1  0  0  0  0
 25 22  1  0  0  0  0
 26 20  1  0  0  0  0
 26 25  1  0  0  0  0
 27 23  2  0  0  0  0
M  END
>  <MODEL>
9

>  <REMARK>
 VINA RESULT:      -8.6      3.488      4.843
  Name = 
  2 active torsions:
  status: ('A' for Active; 'I' for Inactive)
    1  A    between atoms: C_3  and  N_12
    2  A    between atoms: N_12  and  N_23
                            x       y       z     vdW  Elec       q    Type
                         _______ _______ _______ _____ _____    ______ ____

>  <TORSDO>
F 2

$$$$
