=
 OpenBabel10232410503D

 35 39  0  0  1  0  0  0  0  0999 V2000
  189.2680  176.7290  139.1840 C   0  0  0  0  0  0  0  0  0  0  0  0
  187.0350  177.1830  137.5820 C   0  0  0  0  0  0  0  0  0  0  0  0
  190.5800  176.5510  139.9000 C   0  0  0  0  0  2  0  0  0  0  0  0
  192.7040  176.1790  136.8670 N   0  0  0  0  0  0  0  0  0  0  0  0
  187.1590  177.8850  138.8100 C   0  0  0  0  0  0  0  0  0  0  0  0
  190.3140  174.8490  137.4450 S   0  0  0  0  0  0  0  0  0  0  0  0
  193.9640  176.8260  136.4000 C   0  0  0  0  0  2  0  0  0  0  0  0
  191.6720  175.9730  137.8230 C   0  0  0  0  0  0  0  0  0  0  0  0
  193.3640  175.9160  135.5550 C   0  0  0  0  0  2  0  0  0  0  0  0
  187.9950  176.2950  137.2100 N   0  0  0  0  0  0  0  0  0  0  0  0
  191.6780  176.6450  138.9370 N   0  0  0  0  0  0  0  0  0  0  0  0
  188.2920  177.6430  139.6150 C   0  0  0  0  0  0  0  0  0  0  0  0
  189.0800  176.0410  137.9810 C   0  0  0  0  0  0  0  0  0  0  0  0
  185.9170  177.4210  136.6240 C   0  0  0  0  0  2  0  0  0  0  0  0
  185.0070  176.3670  136.6910 O   0  0  0  0  0  1  0  0  0  0  0  0
  186.1900  178.8460  139.2680 N   0  0  0  0  0  2  0  0  0  0  0  0
  184.7500  178.6560  139.3430 C   0  0  0  0  0  2  0  0  0  0  0  0
  182.2570  181.3670  138.5970 C   0  0  0  0  0  1  0  0  0  0  0  0
  182.8540  180.0160  138.7830 C   0  0  0  0  0  0  0  0  0  0  0  0
  181.9960  178.8110  138.5470 C   0  0  0  0  0  1  0  0  0  0  0  0
  184.0890  179.9200  139.1400 N   0  0  0  0  0  0  0  0  0  0  0  0
  188.4540  178.3760  140.9230 C   0  0  0  0  0  2  0  0  0  0  0  0
  188.0470  177.5490  142.1550 C   0  0  2  0  0  3  0  0  0  0  0  0
  186.5680  177.6720  144.2070 C   0  0  0  0  0  2  0  0  0  0  0  0
  186.6420  177.9020  142.6880 C   0  0  1  0  0  3  0  0  0  0  0  0
  184.9050  179.3210  142.5460 C   0  0  0  0  0  2  0  0  0  0  0  0
  185.0660  178.0450  146.4370 Cl  0  0  0  0  0  0  0  0  0  0  0  0
  184.4760  179.1050  144.0070 C   0  0  0  0  0  2  0  0  0  0  0  0
  185.6560  178.6950  144.8910 C   0  0  2  0  0  3  0  0  0  0  0  0
  186.3020  179.2350  142.3900 O   0  0  0  0  0  0  0  0  0  0  0  0
  191.2920  176.4270  143.1380 C   0  0  0  0  0  2  0  0  0  0  0  0
  191.4740  177.9180  143.2280 C   0  0  0  0  0  2  0  0  0  0  0  0
  189.7950  176.2000  143.2160 C   0  0  0  0  0  2  0  0  0  0  0  0
  189.1280  177.5040  143.1570 N   0  0  0  0  0  0  0  0  0  0  0  0
  190.1420  178.4860  142.8050 C   0  0  0  0  0  2  0  0  0  0  0  0
  1 12  1  0  0  0  0
  1  3  1  0  0  0  0
  2  5  1  0  0  0  0
  4  8  1  0  0  0  0
  5 16  1  0  0  0  0
  5 12  2  0  0  0  0
  6  8  1  0  0  0  0
  6 13  1  0  0  0  0
  7  4  1  0  0  0  0
  8 11  2  0  0  0  0
  9  7  1  0  0  0  0
  9  4  1  0  0  0  0
 10  2  2  0  0  0  0
 10 13  1  0  0  0  0
 11  3  1  0  0  0  0
 12 22  1  0  0  0  0
 13  1  2  0  0  0  0
 14 15  1  0  0  0  0
 14  2  1  0  0  0  0
 16 17  1  0  0  0  0
 18 19  1  0  0  0  0
 19 21  2  0  0  0  0
 20 19  1  0  0  0  0
 21 17  1  0  0  0  0
 23 22  1  6  0  0  0
 23 34  1  0  0  0  0
 24 29  1  0  0  0  0
 25 23  1  1  0  0  0
 25 24  1  0  0  0  0
 26 28  1  0  0  0  0
 28 29  1  0  0  0  0
 29 27  1  1  0  0  0
 30 26  1  0  0  0  0
 30 25  1  0  0  0  0
 31 33  1  0  0  0  0
 31 32  1  0  0  0  0
 34 33  1  0  0  0  0
 35 34  1  0  0  0  0
 35 32  1  0  0  0  0
M  END
>  <MODEL>
1

>  <REMARK>
 VINA RESULT:      -7.5      0.000      0.000
  Name = 
  8 active torsions:
  status: ('A' for Active; 'I' for Inactive)
    1  A    between atoms: CA_4  and  C_10
    2  A    between atoms: C_5  and  C_18
    3  A    between atoms: C_8  and  N_25
    4  A    between atoms: C_18  and  N_27
    5  A    between atoms: C_18  and  C_28
    6  A    between atoms: N_22  and  C_35
    7  A    between atoms: N_25  and  C_35
    8  A    between atoms: C_28  and  C_32
                            x       y       z     vdW  Elec       q    Type
                         _______ _______ _______ _____ _____    ______ ____

>  <TORSDO>
F 8

$$$$
=
 OpenBabel10232410503D

 35 39  0  0  1  0  0  0  0  0999 V2000
  184.7990  178.8320  140.6840 C   0  0  0  0  0  0  0  0  0  0  0  0
  183.9950  178.3830  143.3130 C   0  0  0  0  0  0  0  0  0  0  0  0
  185.1210  179.2350  139.2700 C   0  0  0  0  0  2  0  0  0  0  0  0
  182.0170  181.1880  138.6360 N   0  0  0  0  0  0  0  0  0  0  0  0
  185.3740  178.5770  143.0350 C   0  0  0  0  0  0  0  0  0  0  0  0
  182.2190  178.6140  139.7060 S   0  0  0  0  0  0  0  0  0  0  0  0
  181.7450  182.5590  138.1130 C   0  0  0  0  0  2  0  0  0  0  0  0
  182.8910  180.1200  138.9790 C   0  0  0  0  0  0  0  0  0  0  0  0
  180.6640  181.8070  138.5220 C   0  0  0  0  0  2  0  0  0  0  0  0
  183.0900  178.4070  142.2990 N   0  0  0  0  0  0  0  0  0  0  0  0
  184.1760  180.2610  138.8270 N   0  0  0  0  0  0  0  0  0  0  0  0
  185.7690  178.8000  141.6980 C   0  0  0  0  0  0  0  0  0  0  0  0
  183.4570  178.6020  141.0090 C   0  0  0  0  0  0  0  0  0  0  0  0
  183.4660  178.2180  144.6970 C   0  0  0  0  0  2  0  0  0  0  0  0
  183.5210  179.4380  145.3710 O   0  0  0  0  0  1  0  0  0  0  0  0
  186.3910  178.5750  144.0550 N   0  0  0  0  0  2  0  0  0  0  0  0
  186.4520  177.6990  145.2130 C   0  0  0  0  0  2  0  0  0  0  0  0
  189.7300  177.3870  147.0250 C   0  0  0  0  0  1  0  0  0  0  0  0
  188.2900  177.6520  146.7560 C   0  0  0  0  0  0  0  0  0  0  0  0
  187.4230  178.1260  147.8810 C   0  0  0  0  0  1  0  0  0  0  0  0
  187.8300  177.4690  145.5660 N   0  0  0  0  0  0  0  0  0  0  0  0
  187.2250  179.0130  141.3720 C   0  0  0  0  0  2  0  0  0  0  0  0
  187.9110  177.7840  140.7500 C   0  0  2  0  0  3  0  0  0  0  0  0
  189.8230  178.4850  142.2560 C   0  0  0  0  0  2  0  0  0  0  0  0
  189.1390  177.3010  141.5510 C   0  0  1  0  0  3  0  0  0  0  0  0
  189.9800  175.6840  142.8650 C   0  0  0  0  0  2  0  0  0  0  0  0
  191.7140  179.1970  144.0680 Cl  0  0  0  0  0  0  0  0  0  0  0  0
  190.9370  176.6370  143.6010 C   0  0  0  0  0  2  0  0  0  0  0  0
  190.4140  178.0750  143.6080 C   0  0  2  0  0  3  0  0  0  0  0  0
  188.7800  176.3240  142.4980 O   0  0  0  0  0  0  0  0  0  0  0  0
  189.9770  177.4210  137.8590 C   0  0  0  0  0  2  0  0  0  0  0  0
  188.7790  176.6070  137.4490 C   0  0  0  0  0  2  0  0  0  0  0  0
  189.4790  178.3450  138.9530 C   0  0  0  0  0  2  0  0  0  0  0  0
  188.1100  177.9530  139.2980 N   0  0  0  0  0  0  0  0  0  0  0  0
  187.8470  176.6860  138.6320 C   0  0  0  0  0  2  0  0  0  0  0  0
  1 13  2  0  0  0  0
  1 12  1  0  0  0  0
  2 14  1  0  0  0  0
  3  1  1  0  0  0  0
  4  8  1  0  0  0  0
  5  2  1  0  0  0  0
  5 16  1  0  0  0  0
  6 13  1  0  0  0  0
  7  9  1  0  0  0  0
  7  4  1  0  0  0  0
  8  6  1  0  0  0  0
  9  4  1  0  0  0  0
 10  2  2  0  0  0  0
 11  8  2  0  0  0  0
 11  3  1  0  0  0  0
 12  5  2  0  0  0  0
 13 10  1  0  0  0  0
 14 15  1  0  0  0  0
 16 17  1  0  0  0  0
 17 21  1  0  0  0  0
 19 18  1  0  0  0  0
 19 20  1  0  0  0  0
 21 19  2  0  0  0  0
 22 12  1  0  0  0  0
 23 22  1  1  0  0  0
 24 29  1  0  0  0  0
 25 23  1  1  0  0  0
 25 24  1  0  0  0  0
 25 30  1  0  0  0  0
 26 28  1  0  0  0  0
 28 29  1  0  0  0  0
 29 27  1  6  0  0  0
 30 26  1  0  0  0  0
 31 33  1  0  0  0  0
 32 31  1  0  0  0  0
 32 35  1  0  0  0  0
 33 34  1  0  0  0  0
 34 23  1  0  0  0  0
 35 34  1  0  0  0  0
M  END
>  <MODEL>
2

>  <REMARK>
 VINA RESULT:      -7.5      3.136      7.573
  Name = 
  8 active torsions:
  status: ('A' for Active; 'I' for Inactive)
    1  A    between atoms: CA_4  and  C_10
    2  A    between atoms: C_5  and  C_18
    3  A    between atoms: C_8  and  N_25
    4  A    between atoms: C_18  and  N_27
    5  A    between atoms: C_18  and  C_28
    6  A    between atoms: N_22  and  C_35
    7  A    between atoms: N_25  and  C_35
    8  A    between atoms: C_28  and  C_32
                            x       y       z     vdW  Elec       q    Type
                         _______ _______ _______ _____ _____    ______ ____

>  <TORSDO>
F 8

$$$$
=
 OpenBabel10232410503D

 35 39  0  0  1  0  0  0  0  0999 V2000
  188.3760  177.9890  139.9530 C   0  0  0  0  0  0  0  0  0  0  0  0
  190.1220  176.9000  141.8310 C   0  0  0  0  0  0  0  0  0  0  0  0
  187.4010  178.3930  138.8790 C   0  0  0  0  0  2  0  0  0  0  0  0
  187.9300  175.4550  136.6570 N   0  0  0  0  0  0  0  0  0  0  0  0
  188.9850  177.6220  142.2810 C   0  0  0  0  0  0  0  0  0  0  0  0
  189.8820  177.0860  137.8150 S   0  0  0  0  0  0  0  0  0  0  0  0
  187.0160  174.4780  135.9980 C   0  0  0  0  0  2  0  0  0  0  0  0
  188.1830  176.6070  137.4510 C   0  0  0  0  0  0  0  0  0  0  0  0
  188.3720  174.2870  135.8400 C   0  0  0  0  0  2  0  0  0  0  0  0
  190.3500  176.7580  140.4980 N   0  0  0  0  0  0  0  0  0  0  0  0
  187.1890  177.2700  137.9650 N   0  0  0  0  0  0  0  0  0  0  0  0
  188.1110  178.1730  141.3200 C   0  0  0  0  0  0  0  0  0  0  0  0
  189.5280  177.2960  139.5640 C   0  0  0  0  0  0  0  0  0  0  0  0
  191.0640  176.2160  142.7610 C   0  0  0  0  0  2  0  0  0  0  0  0
  190.5510  174.9690  143.1180 O   0  0  0  0  0  1  0  0  0  0  0  0
  188.6710  177.8080  143.6740 N   0  0  0  0  0  2  0  0  0  0  0  0
  189.6130  178.1050  144.7410 C   0  0  0  0  0  2  0  0  0  0  0  0
  188.5650  177.6260  148.3180 C   0  0  0  0  0  1  0  0  0  0  0  0
  189.3560  177.5440  147.0600 C   0  0  0  0  0  0  0  0  0  0  0  0
  190.6440  176.7780  147.0690 C   0  0  0  0  0  1  0  0  0  0  0  0
  188.9150  178.1310  146.0010 N   0  0  0  0  0  0  0  0  0  0  0  0
  186.8930  178.9420  141.7670 C   0  0  0  0  0  2  0  0  0  0  0  0
  185.6030  178.1040  141.7960 C   0  0  2  0  0  3  0  0  0  0  0  0
  183.3020  177.7420  140.8000 C   0  0  0  0  0  2  0  0  0  0  0  0
  184.7060  178.3240  140.5600 C   0  0  1  0  0  3  0  0  0  0  0  0
  184.1300  179.7400  138.9120 C   0  0  0  0  0  2  0  0  0  0  0  0
  180.7720  177.5800  139.8340 Cl  0  0  0  0  0  0  0  0  0  0  0  0
  182.7000  179.1860  138.7960 C   0  0  0  0  0  2  0  0  0  0  0  0
  182.2170  178.5750  140.1130 C   0  0  2  0  0  3  0  0  0  0  0  0
  184.6070  179.6900  140.2370 O   0  0  0  0  0  0  0  0  0  0  0  0
  185.7940  178.5960  145.3280 C   0  0  0  0  0  2  0  0  0  0  0  0
  184.8540  179.7060  144.9440 C   0  0  0  0  0  2  0  0  0  0  0  0
  185.7230  177.5980  144.1900 C   0  0  0  0  0  2  0  0  0  0  0  0
  184.9320  178.1890  143.1070 N   0  0  0  0  0  0  0  0  0  0  0  0
  184.7270  179.5900  143.4450 C   0  0  0  0  0  2  0  0  0  0  0  0
  1 12  1  0  0  0  0
  2  5  1  0  0  0  0
  2 14  1  0  0  0  0
  3  1  1  0  0  0  0
  4  8  1  0  0  0  0
  5 16  1  0  0  0  0
  6 13  1  0  0  0  0
  7  4  1  0  0  0  0
  8  6  1  0  0  0  0
  8 11  2  0  0  0  0
  9  7  1  0  0  0  0
  9  4  1  0  0  0  0
 10  2  2  0  0  0  0
 11  3  1  0  0  0  0
 12 22  1  0  0  0  0
 12  5  2  0  0  0  0
 13  1  2  0  0  0  0
 13 10  1  0  0  0  0
 14 15  1  0  0  0  0
 16 17  1  0  0  0  0
 17 21  1  0  0  0  0
 19 20  1  0  0  0  0
 19 18  1  0  0  0  0
 21 19  2  0  0  0  0
 23 22  1  1  0  0  0
 23 34  1  0  0  0  0
 25 24  1  0  0  0  0
 25 23  1  1  0  0  0
 26 30  1  0  0  0  0
 28 26  1  0  0  0  0
 28 29  1  0  0  0  0
 29 27  1  6  0  0  0
 29 24  1  0  0  0  0
 30 25  1  0  0  0  0
 32 31  1  0  0  0  0
 33 31  1  0  0  0  0
 34 35  1  0  0  0  0
 34 33  1  0  0  0  0
 35 32  1  0  0  0  0
M  END
>  <MODEL>
3

>  <REMARK>
 VINA RESULT:      -7.4      2.661      6.063
  Name = 
  8 active torsions:
  status: ('A' for Active; 'I' for Inactive)
    1  A    between atoms: CA_4  and  C_10
    2  A    between atoms: C_5  and  C_18
    3  A    between atoms: C_8  and  N_25
    4  A    between atoms: C_18  and  N_27
    5  A    between atoms: C_18  and  C_28
    6  A    between atoms: N_22  and  C_35
    7  A    between atoms: N_25  and  C_35
    8  A    between atoms: C_28  and  C_32
                            x       y       z     vdW  Elec       q    Type
                         _______ _______ _______ _____ _____    ______ ____

>  <TORSDO>
F 8

$$$$
=
 OpenBabel10232410503D

 35 39  0  0  1  0  0  0  0  0999 V2000
  189.6820  176.5600  138.7150 C   0  0  0  0  0  0  0  0  0  0  0  0
  187.3750  176.9740  137.2100 C   0  0  0  0  0  0  0  0  0  0  0  0
  191.0270  176.4010  139.3720 C   0  0  0  0  0  2  0  0  0  0  0  0
  193.0080  175.9720  136.2510 N   0  0  0  0  0  0  0  0  0  0  0  0
  187.5530  177.7020  138.4160 C   0  0  0  0  0  0  0  0  0  0  0  0
  190.6530  174.6480  136.9670 S   0  0  0  0  0  0  0  0  0  0  0  0
  194.2430  176.6130  135.7120 C   0  0  0  0  0  2  0  0  0  0  0  0
  192.0230  175.7830  137.2590 C   0  0  0  0  0  0  0  0  0  0  0  0
  193.6080  175.6840  134.9150 C   0  0  0  0  0  2  0  0  0  0  0  0
  188.3200  176.0820  136.8120 N   0  0  0  0  0  0  0  0  0  0  0  0
  192.0780  176.4780  138.3570 N   0  0  0  0  0  0  0  0  0  0  0  0
  188.7240  177.4800  139.1720 C   0  0  0  0  0  0  0  0  0  0  0  0
  189.4410  175.8470  137.5360 C   0  0  0  0  0  0  0  0  0  0  0  0
  186.2130  177.1900  136.3010 C   0  0  0  0  0  2  0  0  0  0  0  0
  186.6130  177.9410  135.1960 O   0  0  0  0  0  1  0  0  0  0  0  0
  186.6030  178.6700  138.9000 N   0  0  0  0  0  2  0  0  0  0  0  0
  185.2200  178.4160  139.2670 C   0  0  0  0  0  2  0  0  0  0  0  0
  182.5140  180.9700  138.7370 C   0  0  0  0  0  1  0  0  0  0  0  0
  183.2140  179.6590  138.8320 C   0  0  0  0  0  0  0  0  0  0  0  0
  182.4390  178.4080  138.5510 C   0  0  0  0  0  1  0  0  0  0  0  0
  184.4620  179.6360  139.1510 N   0  0  0  0  0  0  0  0  0  0  0  0
  188.9440  178.2400  140.4560 C   0  0  0  0  0  2  0  0  0  0  0  0
  188.9930  177.3470  141.7080 C   0  0  2  0  0  3  0  0  0  0  0  0
  186.7300  178.3720  142.2040 C   0  0  0  0  0  2  0  0  0  0  0  0
  188.0200  177.8010  142.8170 C   0  0  1  0  0  3  0  0  0  0  0  0
  187.1700  177.3360  144.8450 C   0  0  0  0  0  2  0  0  0  0  0  0
  184.2120  179.2320  142.7360 Cl  0  0  0  0  0  0  0  0  0  0  0  0
  185.8340  178.0440  144.5610 C   0  0  0  0  0  2  0  0  0  0  0  0
  185.5050  178.0580  143.0660 C   0  0  2  0  0  3  0  0  0  0  0  0
  187.7060  176.7400  143.6870 O   0  0  0  0  0  0  0  0  0  0  0  0
  191.5020  177.4000  144.2490 C   0  0  0  0  0  2  0  0  0  0  0  0
  191.4910  175.9360  143.8990 C   0  0  0  0  0  2  0  0  0  0  0  0
  190.8980  178.1030  143.0500 C   0  0  0  0  0  2  0  0  0  0  0  0
  190.3820  177.0850  142.1310 N   0  0  0  0  0  0  0  0  0  0  0  0
  190.4310  175.8110  142.8330 C   0  0  0  0  0  2  0  0  0  0  0  0
  1 12  1  0  0  0  0
  1  3  1  0  0  0  0
  2  5  1  0  0  0  0
  4  8  1  0  0  0  0
  5 16  1  0  0  0  0
  5 12  2  0  0  0  0
  6  8  1  0  0  0  0
  6 13  1  0  0  0  0
  7  4  1  0  0  0  0
  8 11  2  0  0  0  0
  9  7  1  0  0  0  0
  9  4  1  0  0  0  0
 10  2  2  0  0  0  0
 10 13  1  0  0  0  0
 11  3  1  0  0  0  0
 12 22  1  0  0  0  0
 13  1  2  0  0  0  0
 14  2  1  0  0  0  0
 15 14  1  0  0  0  0
 16 17  1  0  0  0  0
 18 19  1  0  0  0  0
 19 21  2  0  0  0  0
 20 19  1  0  0  0  0
 21 17  1  0  0  0  0
 23 22  1  6  0  0  0
 23 34  1  0  0  0  0
 24 25  1  0  0  0  0
 24 29  1  0  0  0  0
 25 23  1  6  0  0  0
 25 30  1  0  0  0  0
 28 26  1  0  0  0  0
 29 27  1  1  0  0  0
 29 28  1  0  0  0  0
 30 26  1  0  0  0  0
 32 31  1  0  0  0  0
 33 31  1  0  0  0  0
 34 35  1  0  0  0  0
 34 33  1  0  0  0  0
 35 32  1  0  0  0  0
M  END
>  <MODEL>
4

>  <REMARK>
 VINA RESULT:      -7.3      1.245      1.618
  Name = 
  8 active torsions:
  status: ('A' for Active; 'I' for Inactive)
    1  A    between atoms: CA_4  and  C_10
    2  A    between atoms: C_5  and  C_18
    3  A    between atoms: C_8  and  N_25
    4  A    between atoms: C_18  and  N_27
    5  A    between atoms: C_18  and  C_28
    6  A    between atoms: N_22  and  C_35
    7  A    between atoms: N_25  and  C_35
    8  A    between atoms: C_28  and  C_32
                            x       y       z     vdW  Elec       q    Type
                         _______ _______ _______ _____ _____    ______ ____

>  <TORSDO>
F 8

$$$$
=
 OpenBabel10232410503D

 35 39  0  0  1  0  0  0  0  0999 V2000
  186.7660  178.0250  137.8200 C   0  0  0  0  0  0  0  0  0  0  0  0
  187.5660  178.3790  140.4650 C   0  0  0  0  0  0  0  0  0  0  0  0
  186.3860  177.6470  136.4130 C   0  0  0  0  0  2  0  0  0  0  0  0
  188.6990  174.7500  136.0810 N   0  0  0  0  0  0  0  0  0  0  0  0
  186.2120  178.6230  140.1130 C   0  0  0  0  0  0  0  0  0  0  0  0
  189.3110  177.3210  136.9930 S   0  0  0  0  0  0  0  0  0  0  0  0
  188.5270  173.3320  135.6540 C   0  0  0  0  0  2  0  0  0  0  0  0
  188.2110  176.0670  136.3100 C   0  0  0  0  0  0  0  0  0  0  0  0
  189.7770  173.7190  136.0860 C   0  0  0  0  0  2  0  0  0  0  0  0
  188.4530  177.9880  139.5110 N   0  0  0  0  0  0  0  0  0  0  0  0
  186.9590  176.3410  136.0870 N   0  0  0  0  0  0  0  0  0  0  0  0
  185.8200  178.4450  138.7690 C   0  0  0  0  0  0  0  0  0  0  0  0
  188.0940  177.8300  138.2140 C   0  0  0  0  0  0  0  0  0  0  0  0
  188.0640  178.4630  141.8670 C   0  0  0  0  0  2  0  0  0  0  0  0
  188.0980  177.1880  142.4320 O   0  0  0  0  0  1  0  0  0  0  0  0
  185.2120  179.0300  141.0660 N   0  0  0  0  0  2  0  0  0  0  0  0
  184.4810  178.1640  141.9760 C   0  0  0  0  0  2  0  0  0  0  0  0
  184.8640  178.7890  145.6620 C   0  0  0  0  0  1  0  0  0  0  0  0
  184.2440  178.6360  144.3170 C   0  0  0  0  0  0  0  0  0  0  0  0
  182.7670  178.8410  144.1770 C   0  0  0  0  0  1  0  0  0  0  0  0
  184.9920  178.3320  143.3130 N   0  0  0  0  0  0  0  0  0  0  0  0
  184.3890  178.6940  138.3650 C   0  0  0  0  0  2  0  0  0  0  0  0
  183.4740  177.4670  138.5280 C   0  0  2  0  0  3  0  0  0  0  0  0
  183.8530  175.0290  137.9550 C   0  0  0  0  0  2  0  0  0  0  0  0
  183.6250  176.4400  137.3860 C   0  0  1  0  0  3  0  0  0  0  0  0
  182.8970  175.7960  135.3590 C   0  0  0  0  0  2  0  0  0  0  0  0
  184.0040  172.3880  137.3470 Cl  0  0  0  0  0  0  0  0  0  0  0  0
  183.2360  174.3150  135.5940 C   0  0  0  0  0  2  0  0  0  0  0  0
  183.2040  173.9530  137.0810 C   0  0  2  0  0  3  0  0  0  0  0  0
  182.4950  176.4390  136.5460 O   0  0  0  0  0  0  0  0  0  0  0  0
  180.9470  178.0420  140.9850 C   0  0  0  0  0  2  0  0  0  0  0  0
  181.0180  179.3990  140.3370 C   0  0  0  0  0  2  0  0  0  0  0  0
  181.5310  177.0810  139.9700 C   0  0  0  0  0  2  0  0  0  0  0  0
  182.0940  177.8630  138.8660 N   0  0  0  0  0  0  0  0  0  0  0  0
  182.0890  179.2570  139.2840 C   0  0  0  0  0  2  0  0  0  0  0  0
  1 13  2  0  0  0  0
  1 12  1  0  0  0  0
  2 14  1  0  0  0  0
  3  1  1  0  0  0  0
  4  9  1  0  0  0  0
  4  8  1  0  0  0  0
  5  2  1  0  0  0  0
  5 16  1  0  0  0  0
  6 13  1  0  0  0  0
  7  4  1  0  0  0  0
  7  9  1  0  0  0  0
  8  6  1  0  0  0  0
 10  2  2  0  0  0  0
 11  8  2  0  0  0  0
 11  3  1  0  0  0  0
 12  5  2  0  0  0  0
 13 10  1  0  0  0  0
 14 15  1  0  0  0  0
 16 17  1  0  0  0  0
 17 21  1  0  0  0  0
 19 18  1  0  0  0  0
 20 19  1  0  0  0  0
 21 19  2  0  0  0  0
 22 12  1  0  0  0  0
 23 22  1  6  0  0  0
 23 34  1  0  0  0  0
 25 24  1  0  0  0  0
 25 23  1  1  0  0  0
 26 28  1  0  0  0  0
 26 30  1  0  0  0  0
 28 29  1  0  0  0  0
 29 27  1  6  0  0  0
 29 24  1  0  0  0  0
 30 25  1  0  0  0  0
 32 31  1  0  0  0  0
 33 31  1  0  0  0  0
 34 35  1  0  0  0  0
 34 33  1  0  0  0  0
 35 32  1  0  0  0  0
M  END
>  <MODEL>
5

>  <REMARK>
 VINA RESULT:      -6.7      3.122      6.499
  Name = 
  8 active torsions:
  status: ('A' for Active; 'I' for Inactive)
    1  A    between atoms: CA_4  and  C_10
    2  A    between atoms: C_5  and  C_18
    3  A    between atoms: C_8  and  N_25
    4  A    between atoms: C_18  and  N_27
    5  A    between atoms: C_18  and  C_28
    6  A    between atoms: N_22  and  C_35
    7  A    between atoms: N_25  and  C_35
    8  A    between atoms: C_28  and  C_32
                            x       y       z     vdW  Elec       q    Type
                         _______ _______ _______ _____ _____    ______ ____

>  <TORSDO>
F 8

$$$$
=
 OpenBabel10232410503D

 35 39  0  0  1  0  0  0  0  0999 V2000
  185.6040  178.4140  139.3850 C   0  0  0  0  0  0  0  0  0  0  0  0
  187.5340  177.3440  137.6850 C   0  0  0  0  0  0  0  0  0  0  0  0
  184.4750  178.8170  140.2950 C   0  0  0  0  0  2  0  0  0  0  0  0
  181.9680  176.3840  139.0120 N   0  0  0  0  0  0  0  0  0  0  0  0
  187.9220  177.7950  138.9740 C   0  0  0  0  0  0  0  0  0  0  0  0
  183.5830  178.1090  137.5200 S   0  0  0  0  0  0  0  0  0  0  0  0
  181.0680  175.3860  139.6600 C   0  0  0  0  0  2  0  0  0  0  0  0
  182.9360  177.4250  139.0570 C   0  0  0  0  0  0  0  0  0  0  0  0
  181.0680  175.4440  138.2830 C   0  0  0  0  0  2  0  0  0  0  0  0
  186.2360  177.4490  137.2930 N   0  0  0  0  0  0  0  0  0  0  0  0
  183.3980  177.8310  140.2030 N   0  0  0  0  0  0  0  0  0  0  0  0
  186.9360  178.3390  139.8250 C   0  0  0  0  0  0  0  0  0  0  0  0
  185.2830  177.9850  138.0930 C   0  0  0  0  0  0  0  0  0  0  0  0
  188.4810  176.6840  136.7410 C   0  0  0  0  0  2  0  0  0  0  0  0
  189.2610  177.6500  136.1050 O   0  0  0  0  0  1  0  0  0  0  0  0
  189.2730  177.7090  139.4650 N   0  0  0  0  0  2  0  0  0  0  0  0
  190.1300  176.5350  139.4370 C   0  0  0  0  0  2  0  0  0  0  0  0
  193.3640  176.5400  137.5220 C   0  0  0  0  0  1  0  0  0  0  0  0
  192.0590  176.0910  138.0790 C   0  0  0  0  0  0  0  0  0  0  0  0
  191.5540  174.7270  137.7200 C   0  0  0  0  0  1  0  0  0  0  0  0
  191.4010  176.8840  138.8520 N   0  0  0  0  0  0  0  0  0  0  0  0
  187.3170  178.8230  141.2010 C   0  0  0  0  0  2  0  0  0  0  0  0
  187.0540  177.7960  142.3170 C   0  0  2  0  0  3  0  0  0  0  0  0
  185.9830  177.7980  144.6120 C   0  0  0  0  0  2  0  0  0  0  0  0
  185.7650  178.0830  143.1160 C   0  0  1  0  0  3  0  0  0  0  0  0
  183.9940  179.4450  143.3580 C   0  0  0  0  0  2  0  0  0  0  0  0
  184.9170  178.0410  147.0960 Cl  0  0  0  0  0  0  0  0  0  0  0  0
  183.8530  179.1640  144.8630 C   0  0  0  0  0  2  0  0  0  0  0  0
  185.1880  178.7640  145.4950 C   0  0  2  0  0  3  0  0  0  0  0  0
  185.3390  179.4120  142.9410 O   0  0  0  0  0  0  0  0  0  0  0  0
  190.2320  176.2050  142.6700 C   0  0  0  0  0  2  0  0  0  0  0  0
  190.6290  177.6500  142.8020 C   0  0  0  0  0  2  0  0  0  0  0  0
  188.7520  176.1640  142.9920 C   0  0  0  0  0  2  0  0  0  0  0  0
  188.2690  177.5420  143.1150 N   0  0  0  0  0  0  0  0  0  0  0  0
  189.3360  178.4120  142.6430 C   0  0  0  0  0  2  0  0  0  0  0  0
  1 12  1  0  0  0  0
  1  3  1  0  0  0  0
  2  5  1  0  0  0  0
  4  8  1  0  0  0  0
  4  7  1  0  0  0  0
  5 16  1  0  0  0  0
  5 12  2  0  0  0  0
  6 13  1  0  0  0  0
  6  8  1  0  0  0  0
  8 11  2  0  0  0  0
  9  4  1  0  0  0  0
  9  7  1  0  0  0  0
 10  2  2  0  0  0  0
 10 13  1  0  0  0  0
 11  3  1  0  0  0  0
 12 22  1  0  0  0  0
 13  1  2  0  0  0  0
 14  2  1  0  0  0  0
 15 14  1  0  0  0  0
 17 16  1  0  0  0  0
 18 19  1  0  0  0  0
 19 21  2  0  0  0  0
 20 19  1  0  0  0  0
 21 17  1  0  0  0  0
 23 22  1  6  0  0  0
 23 34  1  0  0  0  0
 24 29  1  0  0  0  0
 25 23  1  6  0  0  0
 25 24  1  0  0  0  0
 26 28  1  0  0  0  0
 28 29  1  0  0  0  0
 29 27  1  1  0  0  0
 30 25  1  0  0  0  0
 30 26  1  0  0  0  0
 31 32  1  0  0  0  0
 31 33  1  0  0  0  0
 33 34  1  0  0  0  0
 35 32  1  0  0  0  0
 35 34  1  0  0  0  0
M  END
>  <MODEL>
6

>  <REMARK>
 VINA RESULT:      -6.6      2.165      5.989
  Name = 
  8 active torsions:
  status: ('A' for Active; 'I' for Inactive)
    1  A    between atoms: CA_4  and  C_10
    2  A    between atoms: C_5  and  C_18
    3  A    between atoms: C_8  and  N_25
    4  A    between atoms: C_18  and  N_27
    5  A    between atoms: C_18  and  C_28
    6  A    between atoms: N_22  and  C_35
    7  A    between atoms: N_25  and  C_35
    8  A    between atoms: C_28  and  C_32
                            x       y       z     vdW  Elec       q    Type
                         _______ _______ _______ _____ _____    ______ ____

>  <TORSDO>
F 8

$$$$
=
 OpenBabel10232410503D

 35 39  0  0  1  0  0  0  0  0999 V2000
  187.4190  177.5860  138.2580 C   0  0  0  0  0  0  0  0  0  0  0  0
  189.2070  175.7220  137.2160 C   0  0  0  0  0  0  0  0  0  0  0  0
  186.3280  178.4440  138.8410 C   0  0  0  0  0  2  0  0  0  0  0  0
  183.4640  176.3150  137.7850 N   0  0  0  0  0  0  0  0  0  0  0  0
  189.5510  176.4200  138.4040 C   0  0  0  0  0  0  0  0  0  0  0  0
  185.5980  177.1990  136.2110 S   0  0  0  0  0  0  0  0  0  0  0  0
  182.2860  175.7380  138.4950 C   0  0  0  0  0  2  0  0  0  0  0  0
  184.6430  177.1080  137.7380 C   0  0  0  0  0  0  0  0  0  0  0  0
  182.4490  175.4140  137.1650 C   0  0  0  0  0  2  0  0  0  0  0  0
  188.0230  175.9770  136.5990 N   0  0  0  0  0  0  0  0  0  0  0  0
  185.0620  177.7100  138.8120 N   0  0  0  0  0  0  0  0  0  0  0  0
  188.6380  177.3660  138.9200 C   0  0  0  0  0  0  0  0  0  0  0  0
  187.1460  176.8940  137.0740 C   0  0  0  0  0  0  0  0  0  0  0  0
  190.0650  174.6510  136.6330 C   0  0  0  0  0  2  0  0  0  0  0  0
  189.9350  173.4830  137.3850 O   0  0  0  0  0  1  0  0  0  0  0  0
  190.7800  176.1990  139.1200 N   0  0  0  0  0  2  0  0  0  0  0  0
  192.0840  176.7510  138.7910 C   0  0  0  0  0  2  0  0  0  0  0  0
  194.6390  174.2940  137.5410 C   0  0  0  0  0  1  0  0  0  0  0  0
  193.6690  175.4220  137.5730 C   0  0  0  0  0  0  0  0  0  0  0  0
  193.4550  176.2220  136.3240 C   0  0  0  0  0  1  0  0  0  0  0  0
  193.0400  175.6800  138.6680 N   0  0  0  0  0  0  0  0  0  0  0  0
  188.9730  178.1200  140.1820 C   0  0  0  0  0  2  0  0  0  0  0  0
  188.9930  177.2430  141.4450 C   0  0  2  0  0  3  0  0  0  0  0  0
  186.7600  178.3420  141.9190 C   0  0  0  0  0  2  0  0  0  0  0  0
  188.0290  177.7370  142.5450 C   0  0  1  0  0  3  0  0  0  0  0  0
  187.1530  177.3180  144.5720 C   0  0  0  0  0  2  0  0  0  0  0  0
  184.2670  179.2850  142.4280 Cl  0  0  0  0  0  0  0  0  0  0  0  0
  185.8420  178.0640  144.2730 C   0  0  0  0  0  2  0  0  0  0  0  0
  185.5210  178.0750  142.7770 C   0  0  2  0  0  3  0  0  0  0  0  0
  187.6770  176.6940  143.4220 O   0  0  0  0  0  0  0  0  0  0  0  0
  191.5640  177.4710  143.9140 C   0  0  0  0  0  2  0  0  0  0  0  0
  191.4510  175.9770  143.7670 C   0  0  0  0  0  2  0  0  0  0  0  0
  190.9750  178.0450  142.6410 C   0  0  0  0  0  2  0  0  0  0  0  0
  190.3720  176.9490  141.8770 N   0  0  0  0  0  0  0  0  0  0  0  0
  190.3590  175.7810  142.7450 C   0  0  0  0  0  2  0  0  0  0  0  0
  1  3  1  0  0  0  0
  1 12  1  0  0  0  0
  2  5  1  0  0  0  0
  4  7  1  0  0  0  0
  5 12  2  0  0  0  0
  5 16  1  0  0  0  0
  6 13  1  0  0  0  0
  6  8  1  0  0  0  0
  8  4  1  0  0  0  0
  8 11  2  0  0  0  0
  9  4  1  0  0  0  0
  9  7  1  0  0  0  0
 10 13  1  0  0  0  0
 10  2  2  0  0  0  0
 11  3  1  0  0  0  0
 12 22  1  0  0  0  0
 13  1  2  0  0  0  0
 14  2  1  0  0  0  0
 14 15  1  0  0  0  0
 17 16  1  0  0  0  0
 18 19  1  0  0  0  0
 19 21  2  0  0  0  0
 20 19  1  0  0  0  0
 21 17  1  0  0  0  0
 23 22  1  6  0  0  0
 23 34  1  0  0  0  0
 24 25  1  0  0  0  0
 24 29  1  0  0  0  0
 25 23  1  6  0  0  0
 25 30  1  0  0  0  0
 28 26  1  0  0  0  0
 29 27  1  1  0  0  0
 29 28  1  0  0  0  0
 30 26  1  0  0  0  0
 32 31  1  0  0  0  0
 33 31  1  0  0  0  0
 34 33  1  0  0  0  0
 34 35  1  0  0  0  0
 35 32  1  0  0  0  0
M  END
>  <MODEL>
7

>  <REMARK>
 VINA RESULT:      -6.6      2.263      6.174
  Name = 
  8 active torsions:
  status: ('A' for Active; 'I' for Inactive)
    1  A    between atoms: CA_4  and  C_10
    2  A    between atoms: C_5  and  C_18
    3  A    between atoms: C_8  and  N_25
    4  A    between atoms: C_18  and  N_27
    5  A    between atoms: C_18  and  C_28
    6  A    between atoms: N_22  and  C_35
    7  A    between atoms: N_25  and  C_35
    8  A    between atoms: C_28  and  C_32
                            x       y       z     vdW  Elec       q    Type
                         _______ _______ _______ _____ _____    ______ ____

>  <TORSDO>
F 8

$$$$
=
 OpenBabel10232410503D

 35 39  0  0  1  0  0  0  0  0999 V2000
  185.8260  178.1730  141.3640 C   0  0  0  0  0  0  0  0  0  0  0  0
  187.8010  178.2270  139.4010 C   0  0  0  0  0  0  0  0  0  0  0  0
  184.6530  178.0390  142.2980 C   0  0  0  0  0  2  0  0  0  0  0  0
  182.0420  177.5900  139.6850 N   0  0  0  0  0  0  0  0  0  0  0  0
  188.0840  177.6110  140.6490 C   0  0  0  0  0  0  0  0  0  0  0  0
  184.0210  179.5600  139.7910 S   0  0  0  0  0  0  0  0  0  0  0  0
  180.9560  176.5900  139.4670 C   0  0  0  0  0  2  0  0  0  0  0  0
  183.1170  178.1400  140.4360 C   0  0  0  0  0  0  0  0  0  0  0  0
  181.1280  177.5630  138.5060 C   0  0  0  0  0  2  0  0  0  0  0  0
  186.5830  178.7880  139.1830 N   0  0  0  0  0  0  0  0  0  0  0  0
  183.4830  177.5770  141.5490 N   0  0  0  0  0  0  0  0  0  0  0  0
  187.0770  177.5950  141.6370 C   0  0  0  0  0  0  0  0  0  0  0  0
  185.6120  178.7940  140.1290 C   0  0  0  0  0  0  0  0  0  0  0  0
  188.7680  178.2310  138.2650 C   0  0  0  0  0  2  0  0  0  0  0  0
  188.9810  179.5400  137.8340 O   0  0  0  0  0  1  0  0  0  0  0  0
  189.3460  176.9880  140.9510 N   0  0  0  0  0  2  0  0  0  0  0  0
  190.5670  177.0800  140.1670 C   0  0  0  0  0  2  0  0  0  0  0  0
  191.5690  174.6400  137.4910 C   0  0  0  0  0  1  0  0  0  0  0  0
  191.6070  175.7970  138.4260 C   0  0  0  0  0  0  0  0  0  0  0  0
  192.7980  176.7050  138.4000 C   0  0  0  0  0  1  0  0  0  0  0  0
  190.6170  175.9880  139.2290 N   0  0  0  0  0  0  0  0  0  0  0  0
  187.3450  176.9450  142.9710 C   0  0  0  0  0  2  0  0  0  0  0  0
  187.6700  177.9440  144.0960 C   0  0  2  0  0  3  0  0  0  0  0  0
  189.8060  176.6250  144.4330 C   0  0  0  0  0  2  0  0  0  0  0  0
  189.1760  178.0290  144.4190 C   0  0  1  0  0  3  0  0  0  0  0  0
  191.0830  179.1740  144.0960 C   0  0  0  0  0  2  0  0  0  0  0  0
  192.1360  175.2380  144.5420 Cl  0  0  0  0  0  0  0  0  0  0  0  0
  191.9790  177.9370  144.2830 C   0  0  0  0  0  2  0  0  0  0  0  0
  191.2470  176.6440  143.9160 C   0  0  2  0  0  3  0  0  0  0  0  0
  189.8530  178.8460  143.4940 O   0  0  0  0  0  0  0  0  0  0  0  0
  186.8470  178.6530  147.4980 C   0  0  0  0  0  2  0  0  0  0  0  0
  185.6130  179.1610  146.8020 C   0  0  0  0  0  2  0  0  0  0  0  0
  187.4860  177.6830  146.5250 C   0  0  0  0  0  2  0  0  0  0  0  0
  186.7680  177.7690  145.2500 N   0  0  0  0  0  0  0  0  0  0  0  0
  185.8810  178.9190  145.3380 C   0  0  0  0  0  2  0  0  0  0  0  0
  1 12  1  0  0  0  0
  1  3  1  0  0  0  0
  2  5  1  0  0  0  0
  4  8  1  0  0  0  0
  5 16  1  0  0  0  0
  5 12  2  0  0  0  0
  6 13  1  0  0  0  0
  6  8  1  0  0  0  0
  7  4  1  0  0  0  0
  8 11  2  0  0  0  0
  9  7  1  0  0  0  0
  9  4  1  0  0  0  0
 10  2  2  0  0  0  0
 10 13  1  0  0  0  0
 11  3  1  0  0  0  0
 12 22  1  0  0  0  0
 13  1  2  0  0  0  0
 14  2  1  0  0  0  0
 15 14  1  0  0  0  0
 17 16  1  0  0  0  0
 18 19  1  0  0  0  0
 19 21  2  0  0  0  0
 20 19  1  0  0  0  0
 21 17  1  0  0  0  0
 23 22  1  6  0  0  0
 23 34  1  0  0  0  0
 25 23  1  6  0  0  0
 25 24  1  0  0  0  0
 26 28  1  0  0  0  0
 29 28  1  0  0  0  0
 29 24  1  0  0  0  0
 29 27  1  1  0  0  0
 30 26  1  0  0  0  0
 30 25  1  0  0  0  0
 32 31  1  0  0  0  0
 33 31  1  0  0  0  0
 34 35  1  0  0  0  0
 34 33  1  0  0  0  0
 35 32  1  0  0  0  0
M  END
>  <MODEL>
8

>  <REMARK>
 VINA RESULT:      -6.5      2.865      6.950
  Name = 
  8 active torsions:
  status: ('A' for Active; 'I' for Inactive)
    1  A    between atoms: CA_4  and  C_10
    2  A    between atoms: C_5  and  C_18
    3  A    between atoms: C_8  and  N_25
    4  A    between atoms: C_18  and  N_27
    5  A    between atoms: C_18  and  C_28
    6  A    between atoms: N_22  and  C_35
    7  A    between atoms: N_25  and  C_35
    8  A    between atoms: C_28  and  C_32
                            x       y       z     vdW  Elec       q    Type
                         _______ _______ _______ _____ _____    ______ ____

>  <TORSDO>
F 8

$$$$
=
 OpenBabel10232410503D

 35 39  0  0  1  0  0  0  0  0999 V2000
  188.8600  178.0070  138.8080 C   0  0  0  0  0  0  0  0  0  0  0  0
  188.5540  177.6740  141.5560 C   0  0  0  0  0  0  0  0  0  0  0  0
  189.0650  177.9950  137.3160 C   0  0  0  0  0  2  0  0  0  0  0  0
  191.3220  175.0390  137.1910 N   0  0  0  0  0  0  0  0  0  0  0  0
  187.4480  178.1210  140.7870 C   0  0  0  0  0  0  0  0  0  0  0  0
  191.5260  177.2650  138.8690 S   0  0  0  0  0  0  0  0  0  0  0  0
  191.3330  173.7780  136.3950 C   0  0  0  0  0  2  0  0  0  0  0  0
  190.7840  176.3100  137.5320 C   0  0  0  0  0  0  0  0  0  0  0  0
  192.3120  173.9340  137.3520 C   0  0  0  0  0  2  0  0  0  0  0  0
  189.7450  177.4250  140.9490 N   0  0  0  0  0  0  0  0  0  0  0  0
  189.7200  176.7470  136.9230 N   0  0  0  0  0  0  0  0  0  0  0  0
  187.6170  178.2900  139.3960 C   0  0  0  0  0  0  0  0  0  0  0  0
  189.9260  177.6000  139.6170 C   0  0  0  0  0  0  0  0  0  0  0  0
  188.4600  177.3900  143.0170 C   0  0  0  0  0  2  0  0  0  0  0  0
  188.1110  176.0540  143.2150 O   0  0  0  0  0  1  0  0  0  0  0  0
  186.1540  178.3960  141.3540 N   0  0  0  0  0  2  0  0  0  0  0  0
  185.8130  179.5010  142.2360 C   0  0  0  0  0  2  0  0  0  0  0  0
  182.8630  178.7900  144.4540 C   0  0  0  0  0  1  0  0  0  0  0  0
  184.2670  178.9790  143.9960 C   0  0  0  0  0  0  0  0  0  0  0  0
  185.3770  178.7900  144.9830 C   0  0  0  0  0  1  0  0  0  0  0  0
  184.4890  179.2980  142.7670 N   0  0  0  0  0  0  0  0  0  0  0  0
  186.4600  178.7610  138.5510 C   0  0  0  0  0  2  0  0  0  0  0  0
  185.5160  177.6310  138.1030 C   0  0  2  0  0  3  0  0  0  0  0  0
  186.2210  175.4850  136.9570 C   0  0  0  0  0  2  0  0  0  0  0  0
  185.9330  176.9840  136.7660 C   0  0  1  0  0  3  0  0  0  0  0  0
  185.5720  176.9060  134.5490 C   0  0  0  0  0  2  0  0  0  0  0  0
  186.7290  173.1430  135.6850 Cl  0  0  0  0  0  0  0  0  0  0  0  0
  186.0240  175.4410  134.4230 C   0  0  0  0  0  2  0  0  0  0  0  0
  185.8180  174.6680  135.7270 C   0  0  2  0  0  3  0  0  0  0  0  0
  184.9410  177.1570  135.7830 O   0  0  0  0  0  0  0  0  0  0  0  0
  182.5530  177.9580  140.0710 C   0  0  0  0  0  2  0  0  0  0  0  0
  182.7700  179.3880  139.6550 C   0  0  0  0  0  2  0  0  0  0  0  0
  183.3180  177.1270  139.0610 C   0  0  0  0  0  2  0  0  0  0  0  0
  184.1010  178.0330  138.2160 N   0  0  0  0  0  0  0  0  0  0  0  0
  184.0290  179.3520  138.8260 C   0  0  0  0  0  2  0  0  0  0  0  0
  1 12  2  0  0  0  0
  1 13  1  0  0  0  0
  2 14  1  0  0  0  0
  3  1  1  0  0  0  0
  4  9  1  0  0  0  0
  4  8  1  0  0  0  0
  5 16  1  0  0  0  0
  5  2  2  0  0  0  0
  6 13  1  0  0  0  0
  7  4  1  0  0  0  0
  7  9  1  0  0  0  0
  8  6  1  0  0  0  0
 10  2  1  0  0  0  0
 11  3  1  0  0  0  0
 11  8  2  0  0  0  0
 12  5  1  0  0  0  0
 13 10  2  0  0  0  0
 14 15  1  0  0  0  0
 16 17  1  0  0  0  0
 17 21  1  0  0  0  0
 19 18  1  0  0  0  0
 19 20  1  0  0  0  0
 21 19  2  0  0  0  0
 22 12  1  0  0  0  0
 23 34  1  0  0  0  0
 23 22  1  6  0  0  0
 25 24  1  0  0  0  0
 25 23  1  1  0  0  0
 26 30  1  0  0  0  0
 28 26  1  0  0  0  0
 28 29  1  0  0  0  0
 29 27  1  6  0  0  0
 29 24  1  0  0  0  0
 30 25  1  0  0  0  0
 32 31  1  0  0  0  0
 33 31  1  0  0  0  0
 34 35  1  0  0  0  0
 34 33  1  0  0  0  0
 35 32  1  0  0  0  0
M  END
>  <MODEL>
9

>  <REMARK>
 VINA RESULT:      -6.4      2.775      6.091
  Name = 
  8 active torsions:
  status: ('A' for Active; 'I' for Inactive)
    1  A    between atoms: CA_4  and  C_10
    2  A    between atoms: C_5  and  C_18
    3  A    between atoms: C_8  and  N_25
    4  A    between atoms: C_18  and  N_27
    5  A    between atoms: C_18  and  C_28
    6  A    between atoms: N_22  and  C_35
    7  A    between atoms: N_25  and  C_35
    8  A    between atoms: C_28  and  C_32
                            x       y       z     vdW  Elec       q    Type
                         _______ _______ _______ _____ _____    ______ ____

>  <TORSDO>
F 8

$$$$
