=
 OpenBabel10232407503D

 61 65  0  0  1  0  0  0  0  0999 V2000
  190.4040  177.3260  140.1640 N   0  0  0  0  0  0  0  0  0  0  0  0
  189.4100  178.1330  139.9400 C   0  0  0  0  0  0  0  0  0  0  0  0
  192.4840  172.6400  136.2040 O   0  0  0  0  0  0  0  0  0  0  0  0
  193.0540  175.0710  137.7630 C   0  0  0  0  0  0  0  0  0  0  0  0
  193.9670  174.0400  137.3700 N   0  0  0  0  0  2  0  0  0  0  0  0
  190.7630  175.6710  138.4780 C   0  0  0  0  0  3  0  0  0  0  0  0
  191.2540  176.6850  139.1970 C   0  0  0  0  0  0  0  0  0  0  0  0
  193.6570  172.8640  136.6150 C   0  0  0  0  0  0  0  0  0  0  0  0
  192.6390  177.1840  138.8790 C   0  0  0  0  0  2  0  0  0  0  0  0
  193.5030  176.0770  138.4580 N   0  0  0  0  0  0  0  0  0  0  0  0
  191.5890  175.0180  137.4040 C   0  0  0  0  0  2  0  0  0  0  0  0
  195.9020  172.5290  135.6520 C   0  0  0  0  0  2  0  0  0  0  0  0
  196.6860  171.2060  137.4770 C   0  0  0  0  0  2  0  0  0  0  0  0
  195.2330  171.2970  137.6010 N   0  0  0  0  0  2  0  0  0  0  0  0
  194.7410  171.8720  136.3530 C   0  0  1  0  0  3  0  0  0  0  0  0
  197.0910  171.7420  136.1200 C   0  0  0  0  0  2  0  0  0  0  0  0
  188.6470  178.6610  141.1080 C   0  0  0  0  0  2  0  0  0  0  0  0
  187.5550  177.8330  141.3650 O   0  0  0  0  0  0  0  0  0  0  0  0
  186.9170  178.4010  142.4770 C   0  0  2  0  0  3  0  0  0  0  0  0
  187.6490  176.3030  143.4380 O   0  0  0  0  0  1  0  0  0  0  0  0
  187.2270  177.5990  143.7490 C   0  0  2  0  0  3  0  0  0  0  0  0
  186.0300  177.5630  144.6880 C   0  0  0  0  0  2  0  0  0  0  0  0
  186.2010  178.5210  145.7690 N   0  0  0  0  0  2  0  0  0  0  0  0
  187.1410  179.1770  147.7860 O   0  0  0  0  0  0  0  0  0  0  0  0
  186.9760  178.2570  146.9420 C   0  0  0  0  0  0  0  0  0  0  0  0
  187.6010  176.9190  147.1730 C   0  0  0  0  0  2  0  0  0  0  0  0
  191.5450  176.4330  147.0680 P   0  0  1  0  0  0  0  0  0  0  0  0
  189.5800  177.7750  146.0430 N   0  0  0  0  0  0  0  0  0  0  0  0
  192.2780  175.0780  146.3640 O   0  0  0  0  0  0  0  0  0  0  0  0
  189.0700  176.9560  146.9130 C   0  0  0  0  0  0  0  0  0  0  0  0
  191.0330  177.7040  145.8880 C   0  0  2  0  0  3  0  0  0  0  0  0
  189.9560  176.1100  147.5700 O   0  0  0  0  0  0  0  0  0  0  0  0
  192.3750  177.0050  148.1980 O   0  0  0  0  0  1  0  0  0  0  0  0
  190.9090  176.1270  143.9450 O   0  0  0  0  0  1  0  0  0  0  0  0
  192.1310  178.0580  143.8020 O   0  0  0  0  0  0  0  0  0  0  0  0
  191.3860  177.3110  144.4900 C   0  0  0  0  0  0  0  0  0  0  0  0
  185.0310  179.8740  142.6370 O   0  0  0  0  0  1  0  0  0  0  0  0
  185.4180  178.5980  142.2200 C   0  0  1  0  0  3  0  0  0  0  0  0
  185.0480  178.3970  140.7560 C   0  0  0  0  0  2  0  0  0  0  0  0
  185.1270  179.6170  140.0810 O   0  0  0  0  0  0  0  0  0  0  0  0
  183.1770  178.3900  139.4410 C   0  0  0  0  0  1  0  0  0  0  0  0
  184.0680  179.5920  139.1700 C   0  0  0  0  0  2  0  0  0  0  0  0
  189.0640  178.6260  138.5680 C   0  0  0  0  0  2  0  0  0  0  0  0
  187.8580  177.8920  138.0150 C   0  0  0  0  0  2  0  0  0  0  0  0
  187.3510  178.6110  136.7780 C   0  0  0  0  0  2  0  0  0  0  0  0
  187.7120  177.8320  135.5260 C   0  0  0  0  0  2  0  0  0  0  0  0
  186.4460  177.4460  134.7790 C   0  0  0  0  0  2  0  0  0  0  0  0
  185.4570  176.7840  135.7250 C   0  0  1  0  0  3  0  0  0  0  0  0
  184.8340  174.6640  136.2470 C   0  0  2  0  0  3  0  0  0  0  0  0
  184.1610  176.5850  135.0310 C   0  0  0  0  0  0  0  0  0  0  0  0
  183.6910  174.9020  134.8460 S   0  0  0  0  0  0  0  0  0  0  0  0
  185.9470  175.5210  136.1130 O   0  0  0  0  0  0  0  0  0  0  0  0
  183.4130  177.5070  134.7580 O   0  0  0  0  0  0  0  0  0  0  0  0
  185.3830  171.0670  135.2850 C   0  0  0  0  0  2  0  0  0  0  0  0
  184.0380  170.5690  135.8250 C   0  0  0  0  0  2  0  0  0  0  0  0
  183.3840  171.5920  136.7660 C   0  0  0  0  0  2  0  0  0  0  0  0
  184.4270  172.4800  137.4380 C   0  0  0  0  0  2  0  0  0  0  0  0
  185.3610  172.5160  135.0860 N   0  0  0  0  0  0  0  0  0  0  0  0
  185.2980  173.2080  136.3930 C   0  0  1  0  0  3  0  0  0  0  0  0
  187.6800  172.3970  135.2890 O   0  0  0  0  0  1  0  0  0  0  0  0
  186.6390  172.8510  134.4770 C   0  0  0  0  0  2  0  0  0  0  0  0
  2  1  2  0  0  0  0
  2 17  1  0  0  0  0
  3  8  2  0  0  0  0
  4 10  2  0  0  0  0
  5  4  1  0  0  0  0
  6  7  2  0  0  0  0
  7  1  1  0  0  0  0
  8  5  1  0  0  0  0
  9  7  1  0  0  0  0
 10  9  1  0  0  0  0
 11  4  1  0  0  0  0
 11  6  1  0  0  0  0
 12 16  1  0  0  0  0
 12 15  1  0  0  0  0
 13 14  1  0  0  0  0
 15  8  1  1  0  0  0
 15 14  1  0  0  0  0
 16 13  1  0  0  0  0
 17 18  1  0  0  0  0
 19 18  1  6  0  0  0
 19 21  1  0  0  0  0
 21 20  1  6  0  0  0
 21 22  1  0  0  0  0
 22 23  1  0  0  0  0
 23 25  1  0  0  0  0
 25 26  1  0  0  0  0
 25 24  2  0  0  0  0
 27 29  2  6  0  0  0
 27 32  1  0  0  0  0
 27 33  1  0  0  0  0
 28 30  2  0  0  0  0
 30 26  1  0  0  0  0
 30 32  1  0  0  0  0
 31 36  1  6  0  0  0
 31 28  1  0  0  0  0
 31 27  1  0  0  0  0
 34 36  1  0  0  0  0
 35 36  2  0  0  0  0
 38 19  1  0  0  0  0
 38 37  1  6  0  0  0
 39 38  1  0  0  0  0
 40 39  1  0  0  0  0
 42 41  1  0  0  0  0
 42 40  1  0  0  0  0
 43  2  1  0  0  0  0
 44 43  1  0  0  0  0
 45 44  1  0  0  0  0
 46 45  1  0  0  0  0
 47 46  1  0  0  0  0
 48 47  1  6  0  0  0
 48 52  1  0  0  0  0
 49 51  1  6  0  0  0
 49 59  1  0  0  0  0
 50 48  1  0  0  0  0
 51 50  1  0  0  0  0
 52 49  1  0  0  0  0
 53 50  2  0  0  0  0
 54 55  1  0  0  0  0
 55 56  1  0  0  0  0
 56 57  1  0  0  0  0
 58 54  1  0  0  0  0
 58 59  1  0  0  0  0
 59 57  1  1  0  0  0
 61 58  1  0  0  0  0
 61 60  1  0  0  0  0
M  END
>  <MODEL>
1

>  <REMARK>
 VINA RESULT:      -6.9      0.000      0.000
  Name = 
  23 active torsions:
  status: ('A' for Active; 'I' for Inactive)
    1  A    between atoms: N_3  and  C_24
    2  A    between atoms: C_4  and  C_54
    3  A    between atoms: N_6  and  C_28
    4  A    between atoms: C_9  and  C_46
    5  A    between atoms: C_11  and  C_47
    6  A    between atoms: C_11  and  C_60
    7  A    between atoms: C_12  and  O_32
    8  A    between atoms: C_12  and  C_39
    9  A    between atoms: C_19  and  C_45
   10  A    between atoms: C_19  and  C_47
   11  A    between atoms: C_20  and  C_38
   12  A    between atoms: C_20  and  C_55
   13  A    between atoms: C_21  and  N_40
   14  A    between atoms: C_23  and  O_32
   15  A    between atoms: C_24  and  C_36
   16  A    between atoms: O_25  and  C_31
   17  A    between atoms: O_25  and  C_42
   18  A    between atoms: C_31  and  C_36
   19  A    between atoms: C_31  and  C_39
   20  A    between atoms: C_34  and  C_58
   21  A    between atoms: C_42  and  C_45
   22  A    between atoms: C_48  and  C_61
   23  A    between atoms: C_54  and  C_60
                            x       y       z     vdW  Elec       q    Type
                         _______ _______ _______ _____ _____    ______ ____

>  <TORSDO>
F 23

$$$$
=
 OpenBabel10232407503D

 61 65  0  0  1  0  0  0  0  0999 V2000
  185.2900  178.6010  138.9240 N   0  0  0  0  0  0  0  0  0  0  0  0
  184.6180  179.0140  139.9560 C   0  0  0  0  0  0  0  0  0  0  0  0
  190.7940  176.3370  136.3640 O   0  0  0  0  0  0  0  0  0  0  0  0
  189.2480  177.1270  138.7410 C   0  0  0  0  0  0  0  0  0  0  0  0
  190.3370  176.1990  138.6640 N   0  0  0  0  0  2  0  0  0  0  0  0
  187.2510  178.1000  137.6520 C   0  0  0  0  0  3  0  0  0  0  0  0
  186.6940  178.2940  138.8520 C   0  0  0  0  0  0  0  0  0  0  0  0
  191.0660  175.8300  137.4880 C   0  0  0  0  0  0  0  0  0  0  0  0
  187.5870  178.2970  140.0650 C   0  0  0  0  0  2  0  0  0  0  0  0
  188.6890  177.3450  139.8970 N   0  0  0  0  0  0  0  0  0  0  0  0
  188.7290  177.8490  137.5230 C   0  0  0  0  0  2  0  0  0  0  0  0
  192.4080  174.1670  136.2580 C   0  0  0  0  0  2  0  0  0  0  0  0
  194.4610  174.7780  137.3110 C   0  0  0  0  0  2  0  0  0  0  0  0
  193.3800  175.3850  138.0850 N   0  0  0  0  0  2  0  0  0  0  0  0
  192.1360  174.7960  137.6010 C   0  0  1  0  0  3  0  0  0  0  0  0
  193.8600  173.7940  136.3280 C   0  0  0  0  0  2  0  0  0  0  0  0
  183.1630  179.2970  139.7880 C   0  0  0  0  0  2  0  0  0  0  0  0
  182.9250  179.7730  138.4990 O   0  0  0  0  0  0  0  0  0  0  0  0
  181.6640  179.2710  138.1490 C   0  0  2  0  0  3  0  0  0  0  0  0
  180.4760  178.3410  136.2550 O   0  0  0  0  0  1  0  0  0  0  0  0
  181.7410  178.4790  136.8350 C   0  0  2  0  0  3  0  0  0  0  0  0
  182.3860  177.1160  137.0460 C   0  0  0  0  0  2  0  0  0  0  0  0
  181.7410  176.1130  136.2140 N   0  0  0  0  0  2  0  0  0  0  0  0
  181.6870  174.7360  134.3480 O   0  0  0  0  0  0  0  0  0  0  0  0
  182.2660  175.6720  134.9590 C   0  0  0  0  0  0  0  0  0  0  0  0
  183.4930  176.2910  134.3720 C   0  0  0  0  0  2  0  0  0  0  0  0
  187.0320  174.8110  135.4150 P   0  0  1  0  0  0  0  0  0  0  0  0
  184.7470  174.2050  134.3520 N   0  0  0  0  0  0  0  0  0  0  0  0
  187.4650  174.5350  137.0290 O   0  0  0  0  0  1  0  0  0  0  0  0
  184.7040  175.4680  134.6560 C   0  0  0  0  0  0  0  0  0  0  0  0
  185.9960  173.5200  134.6870 C   0  0  2  0  0  3  0  0  0  0  0  0
  185.8310  176.0010  135.2710 O   0  0  0  0  0  0  0  0  0  0  0  0
  188.2340  175.1310  134.5510 O   0  0  0  0  0  0  0  0  0  0  0  0
  186.6250  171.3640  135.8010 O   0  0  0  0  0  0  0  0  0  0  0  0
  184.6970  172.4550  136.3790 O   0  0  0  0  0  1  0  0  0  0  0  0
  185.7360  172.4230  135.6700 C   0  0  0  0  0  0  0  0  0  0  0  0
  180.3230  180.7720  139.4530 O   0  0  0  0  0  1  0  0  0  0  0  0
  180.6050  180.3790  138.1420 C   0  0  1  0  0  3  0  0  0  0  0  0
  181.0330  181.5880  137.3200 C   0  0  0  0  0  2  0  0  0  0  0  0
  180.1930  181.7230  136.2130 O   0  0  0  0  0  0  0  0  0  0  0  0
  180.8490  184.0170  136.3750 C   0  0  0  0  0  1  0  0  0  0  0  0
  180.7280  182.7890  135.4850 C   0  0  0  0  0  2  0  0  0  0  0  0
  185.2220  179.1240  141.3230 C   0  0  0  0  0  2  0  0  0  0  0  0
  184.4060  178.3530  142.3420 C   0  0  0  0  0  2  0  0  0  0  0  0
  183.5240  179.3150  143.1180 C   0  0  0  0  0  2  0  0  0  0  0  0
  183.7480  179.1520  144.6100 C   0  0  0  0  0  2  0  0  0  0  0  0
  184.7760  178.0600  144.8590 C   0  0  0  0  0  2  0  0  0  0  0  0
  186.1020  178.6720  145.2810 C   0  0  1  0  0  3  0  0  0  0  0  0
  188.2020  177.9280  145.7180 C   0  0  2  0  0  3  0  0  0  0  0  0
  186.2040  178.6650  146.7610 C   0  0  0  0  0  0  0  0  0  0  0  0
  187.5180  177.6810  147.3900 S   0  0  0  0  0  0  0  0  0  0  0  0
  187.1640  177.9040  144.7630 O   0  0  0  0  0  0  0  0  0  0  0  0
  185.5410  179.4010  147.4710 O   0  0  0  0  0  0  0  0  0  0  0  0
  191.6550  176.5550  145.1230 C   0  0  0  0  0  2  0  0  0  0  0  0
  191.7150  176.9570  143.6440 C   0  0  0  0  0  2  0  0  0  0  0  0
  190.3250  177.3040  143.0900 C   0  0  0  0  0  2  0  0  0  0  0  0
  189.2200  176.5760  143.8510 C   0  0  0  0  0  2  0  0  0  0  0  0
  190.6200  177.3110  145.8270 N   0  0  0  0  0  0  0  0  0  0  0  0
  189.2790  176.8950  145.3590 C   0  0  1  0  0  3  0  0  0  0  0  0
  192.0550  176.5850  147.5140 O   0  0  0  0  0  1  0  0  0  0  0  0
  190.7330  176.9260  147.2260 C   0  0  0  0  0  2  0  0  0  0  0  0
  1  2  2  0  0  0  0
  2 43  1  0  0  0  0
  3  8  2  0  0  0  0
  4 10  2  0  0  0  0
  5  4  1  0  0  0  0
  6  7  2  0  0  0  0
  7  1  1  0  0  0  0
  7  9  1  0  0  0  0
  8  5  1  0  0  0  0
 10  9  1  0  0  0  0
 11  6  1  0  0  0  0
 11  4  1  0  0  0  0
 12 16  1  0  0  0  0
 12 15  1  0  0  0  0
 13 14  1  0  0  0  0
 15  8  1  6  0  0  0
 15 14  1  0  0  0  0
 16 13  1  0  0  0  0
 17  2  1  0  0  0  0
 18 17  1  0  0  0  0
 19 18  1  6  0  0  0
 21 20  1  1  0  0  0
 21 22  1  0  0  0  0
 21 19  1  0  0  0  0
 23 22  1  0  0  0  0
 24 25  2  0  0  0  0
 25 23  1  0  0  0  0
 26 30  1  0  0  0  0
 26 25  1  0  0  0  0
 27 33  2  6  0  0  0
 27 29  1  0  0  0  0
 28 30  2  0  0  0  0
 28 31  1  0  0  0  0
 30 32  1  0  0  0  0
 31 27  1  0  0  0  0
 31 36  1  1  0  0  0
 32 27  1  0  0  0  0
 36 34  2  0  0  0  0
 36 35  1  0  0  0  0
 38 19  1  0  0  0  0
 38 37  1  1  0  0  0
 39 38  1  0  0  0  0
 40 39  1  0  0  0  0
 42 40  1  0  0  0  0
 42 41  1  0  0  0  0
 43 44  1  0  0  0  0
 44 45  1  0  0  0  0
 45 46  1  0  0  0  0
 46 47  1  0  0  0  0
 48 47  1  1  0  0  0
 48 50  1  0  0  0  0
 49 52  1  6  0  0  0
 49 51  1  0  0  0  0
 50 51  1  0  0  0  0
 50 53  2  0  0  0  0
 52 48  1  0  0  0  0
 54 58  1  0  0  0  0
 55 54  1  0  0  0  0
 56 55  1  0  0  0  0
 56 57  1  0  0  0  0
 58 61  1  0  0  0  0
 59 57  1  6  0  0  0
 59 49  1  0  0  0  0
 59 58  1  0  0  0  0
 61 60  1  0  0  0  0
M  END
>  <MODEL>
2

>  <REMARK>
 VINA RESULT:      -6.8      3.457      9.460
  Name = 
  23 active torsions:
  status: ('A' for Active; 'I' for Inactive)
    1  A    between atoms: N_3  and  C_24
    2  A    between atoms: C_4  and  C_54
    3  A    between atoms: N_6  and  C_28
    4  A    between atoms: C_9  and  C_46
    5  A    between atoms: C_11  and  C_47
    6  A    between atoms: C_11  and  C_60
    7  A    between atoms: C_12  and  O_32
    8  A    between atoms: C_12  and  C_39
    9  A    between atoms: C_19  and  C_45
   10  A    between atoms: C_19  and  C_47
   11  A    between atoms: C_20  and  C_38
   12  A    between atoms: C_20  and  C_55
   13  A    between atoms: C_21  and  N_40
   14  A    between atoms: C_23  and  O_32
   15  A    between atoms: C_24  and  C_36
   16  A    between atoms: O_25  and  C_31
   17  A    between atoms: O_25  and  C_42
   18  A    between atoms: C_31  and  C_36
   19  A    between atoms: C_31  and  C_39
   20  A    between atoms: C_34  and  C_58
   21  A    between atoms: C_42  and  C_45
   22  A    between atoms: C_48  and  C_61
   23  A    between atoms: C_54  and  C_60
                            x       y       z     vdW  Elec       q    Type
                         _______ _______ _______ _____ _____    ______ ____

>  <TORSDO>
F 23

$$$$
=
 OpenBabel10232407503D

 61 65  0  0  1  0  0  0  0  0999 V2000
  190.7470  176.9170  142.1460 N   0  0  0  0  0  0  0  0  0  0  0  0
  189.4680  176.8440  142.3640 C   0  0  0  0  0  0  0  0  0  0  0  0
  192.1190  175.5800  135.9580 O   0  0  0  0  0  0  0  0  0  0  0  0
  192.9490  176.7140  138.5440 C   0  0  0  0  0  0  0  0  0  0  0  0
  193.7810  176.1880  137.5020 N   0  0  0  0  0  2  0  0  0  0  0  0
  190.8120  176.5740  139.7820 C   0  0  0  0  0  3  0  0  0  0  0  0
  191.4210  177.0310  140.8810 C   0  0  0  0  0  0  0  0  0  0  0  0
  193.3450  175.6370  136.2550 C   0  0  0  0  0  0  0  0  0  0  0  0
  192.7350  177.7510  140.7250 C   0  0  0  0  0  2  0  0  0  0  0  0
  193.5120  177.1750  139.6240 N   0  0  0  0  0  0  0  0  0  0  0  0
  191.4460  176.7390  138.4270 C   0  0  0  0  0  2  0  0  0  0  0  0
  195.7410  175.5900  135.6740 C   0  0  0  0  0  2  0  0  0  0  0  0
  195.7970  173.2280  135.3330 C   0  0  0  0  0  2  0  0  0  0  0  0
  194.3910  173.6250  135.3780 N   0  0  0  0  0  2  0  0  0  0  0  0
  194.3660  175.0840  135.3180 C   0  0  1  0  0  3  0  0  0  0  0  0
  196.6510  174.4750  135.2460 C   0  0  0  0  0  2  0  0  0  0  0  0
  188.9940  176.7010  143.7720 C   0  0  0  0  0  2  0  0  0  0  0  0
  188.5000  177.9250  144.2230 O   0  0  0  0  0  0  0  0  0  0  0  0
  187.8000  177.6270  145.4000 C   0  0  2  0  0  3  0  0  0  0  0  0
  185.5930  177.7510  146.3880 O   0  0  0  0  0  1  0  0  0  0  0  0
  186.4120  178.2830  145.3880 C   0  0  2  0  0  3  0  0  0  0  0  0
  185.7490  178.1530  144.0240 C   0  0  0  0  0  2  0  0  0  0  0  0
  184.4150  178.7310  144.0490 N   0  0  0  0  0  2  0  0  0  0  0  0
  182.3740  179.2010  143.0510 O   0  0  0  0  0  0  0  0  0  0  0  0
  183.5440  178.7580  142.9140 C   0  0  0  0  0  0  0  0  0  0  0  0
  183.9960  178.2580  141.5800 C   0  0  0  0  0  2  0  0  0  0  0  0
  181.4280  179.0750  138.6570 P   0  0  1  0  0  0  0  0  0  0  0  0
  181.9460  177.4110  140.5750 N   0  0  0  0  0  0  0  0  0  0  0  0
  181.7990  178.8330  137.0230 O   0  0  0  0  0  0  0  0  0  0  0  0
  182.8890  178.3070  140.5810 C   0  0  0  0  0  0  0  0  0  0  0  0
  180.9250  177.5800  139.5410 C   0  0  2  0  0  3  0  0  0  0  0  0
  182.8210  179.2920  139.6030 O   0  0  0  0  0  0  0  0  0  0  0  0
  180.4450  180.2110  138.8540 O   0  0  0  0  0  1  0  0  0  0  0  0
  179.9840  176.3010  137.6010 O   0  0  0  0  0  0  0  0  0  0  0  0
  181.7500  175.4700  138.7980 O   0  0  0  0  0  1  0  0  0  0  0  0
  180.9140  176.3960  138.6280 C   0  0  0  0  0  0  0  0  0  0  0  0
  187.7840  178.2560  147.7150 O   0  0  0  0  0  1  0  0  0  0  0  0
  188.6320  177.9600  146.6440 C   0  0  1  0  0  3  0  0  0  0  0  0
  189.5790  176.8310  147.0310 C   0  0  0  0  0  2  0  0  0  0  0  0
  190.8860  177.1770  146.6860 O   0  0  0  0  0  0  0  0  0  0  0  0
  192.4320  175.3830  147.0200 C   0  0  0  0  0  1  0  0  0  0  0  0
  191.6880  176.5530  147.6450 C   0  0  0  0  0  2  0  0  0  0  0  0
  188.4520  176.9930  141.2720 C   0  0  0  0  0  2  0  0  0  0  0  0
  188.1870  178.4550  140.9720 C   0  0  0  0  0  2  0  0  0  0  0  0
  187.0860  178.5670  139.9340 C   0  0  0  0  0  2  0  0  0  0  0  0
  187.5210  177.9270  138.6280 C   0  0  0  0  0  2  0  0  0  0  0  0
  186.5060  178.2400  137.5400 C   0  0  0  0  0  2  0  0  0  0  0  0
  186.6780  177.2840  136.3700 C   0  0  1  0  0  3  0  0  0  0  0  0
  186.7900  175.0360  136.0740 C   0  0  2  0  0  3  0  0  0  0  0  0
  188.1200  176.9970  136.1690 C   0  0  0  0  0  0  0  0  0  0  0  0
  188.5610  175.3140  136.4090 S   0  0  0  0  0  0  0  0  0  0  0  0
  186.0220  176.0690  136.6510 O   0  0  0  0  0  0  0  0  0  0  0  0
  188.8990  177.8210  135.7220 O   0  0  0  0  0  0  0  0  0  0  0  0
  185.2220  171.6200  135.8900 C   0  0  0  0  0  2  0  0  0  0  0  0
  183.7950  172.1040  136.1750 C   0  0  0  0  0  2  0  0  0  0  0  0
  183.7780  173.5280  136.7490 C   0  0  0  0  0  2  0  0  0  0  0  0
  185.0730  173.8510  137.4880 C   0  0  0  0  0  2  0  0  0  0  0  0
  186.0700  172.7280  135.4500 N   0  0  0  0  0  0  0  0  0  0  0  0
  186.3000  173.6690  136.5690 C   0  0  1  0  0  3  0  0  0  0  0  0
  187.9340  171.5840  136.2550 O   0  0  0  0  0  1  0  0  0  0  0  0
  187.3530  172.1320  135.1100 C   0  0  0  0  0  2  0  0  0  0  0  0
  1  2  2  0  0  0  0
  2 17  1  0  0  0  0
  3  8  2  0  0  0  0
  4 10  2  0  0  0  0
  5  4  1  0  0  0  0
  6  7  2  0  0  0  0
  7  1  1  0  0  0  0
  8  5  1  0  0  0  0
  9  7  1  0  0  0  0
 10  9  1  0  0  0  0
 11  4  1  0  0  0  0
 11  6  1  0  0  0  0
 13 14  1  0  0  0  0
 15 14  1  0  0  0  0
 15 12  1  0  0  0  0
 15  8  1  1  0  0  0
 16 13  1  0  0  0  0
 16 12  1  0  0  0  0
 17 18  1  0  0  0  0
 19 18  1  6  0  0  0
 19 38  1  0  0  0  0
 21 19  1  0  0  0  0
 21 20  1  1  0  0  0
 22 23  1  0  0  0  0
 22 21  1  0  0  0  0
 25 24  2  0  0  0  0
 25 23  1  0  0  0  0
 26 25  1  0  0  0  0
 27 29  2  6  0  0  0
 27 33  1  0  0  0  0
 27 31  1  0  0  0  0
 27 32  1  0  0  0  0
 28 30  2  0  0  0  0
 30 26  1  0  0  0  0
 31 36  1  6  0  0  0
 31 28  1  0  0  0  0
 32 30  1  0  0  0  0
 34 36  2  0  0  0  0
 36 35  1  0  0  0  0
 38 39  1  0  0  0  0
 38 37  1  1  0  0  0
 40 39  1  0  0  0  0
 40 42  1  0  0  0  0
 41 42  1  0  0  0  0
 43  2  1  0  0  0  0
 44 43  1  0  0  0  0
 45 44  1  0  0  0  0
 46 45  1  0  0  0  0
 47 46  1  0  0  0  0
 48 52  1  0  0  0  0
 48 47  1  1  0  0  0
 49 51  1  1  0  0  0
 49 59  1  0  0  0  0
 49 52  1  0  0  0  0
 50 48  1  0  0  0  0
 50 51  1  0  0  0  0
 53 50  2  0  0  0  0
 54 55  1  0  0  0  0
 55 56  1  0  0  0  0
 56 57  1  0  0  0  0
 58 54  1  0  0  0  0
 58 59  1  0  0  0  0
 59 57  1  6  0  0  0
 61 58  1  0  0  0  0
 61 60  1  0  0  0  0
M  END
>  <MODEL>
3

>  <REMARK>
 VINA RESULT:      -6.3      2.896      6.317
  Name = 
  23 active torsions:
  status: ('A' for Active; 'I' for Inactive)
    1  A    between atoms: N_3  and  C_24
    2  A    between atoms: C_4  and  C_54
    3  A    between atoms: N_6  and  C_28
    4  A    between atoms: C_9  and  C_46
    5  A    between atoms: C_11  and  C_47
    6  A    between atoms: C_11  and  C_60
    7  A    between atoms: C_12  and  O_32
    8  A    between atoms: C_12  and  C_39
    9  A    between atoms: C_19  and  C_45
   10  A    between atoms: C_19  and  C_47
   11  A    between atoms: C_20  and  C_38
   12  A    between atoms: C_20  and  C_55
   13  A    between atoms: C_21  and  N_40
   14  A    between atoms: C_23  and  O_32
   15  A    between atoms: C_24  and  C_36
   16  A    between atoms: O_25  and  C_31
   17  A    between atoms: O_25  and  C_42
   18  A    between atoms: C_31  and  C_36
   19  A    between atoms: C_31  and  C_39
   20  A    between atoms: C_34  and  C_58
   21  A    between atoms: C_42  and  C_45
   22  A    between atoms: C_48  and  C_61
   23  A    between atoms: C_54  and  C_60
                            x       y       z     vdW  Elec       q    Type
                         _______ _______ _______ _____ _____    ______ ____

>  <TORSDO>
F 23

$$$$
=
 OpenBabel10232407503D

 61 65  0  0  1  0  0  0  0  0999 V2000
  190.7130  176.7270  140.0390 N   0  0  0  0  0  0  0  0  0  0  0  0
  189.9340  177.3410  139.1990 C   0  0  0  0  0  0  0  0  0  0  0  0
  190.3290  175.7890  146.4370 O   0  0  0  0  0  0  0  0  0  0  0  0
  190.6770  177.6310  144.1680 C   0  0  0  0  0  0  0  0  0  0  0  0
  190.1750  177.9270  145.4770 N   0  0  0  0  0  2  0  0  0  0  0  0
  190.8420  176.0030  142.3130 C   0  0  0  0  0  3  0  0  0  0  0  0
  190.9010  177.0110  141.4360 C   0  0  0  0  0  0  0  0  0  0  0  0
  190.0120  177.0050  146.5600 C   0  0  0  0  0  0  0  0  0  0  0  0
  191.2800  178.3780  141.9410 C   0  0  0  0  0  2  0  0  0  0  0  0
  190.7550  178.5930  143.2930 N   0  0  0  0  0  0  0  0  0  0  0  0
  191.1060  176.2400  143.7750 C   0  0  0  0  0  2  0  0  0  0  0  0
  188.6880  178.7970  147.6160 C   0  0  0  0  0  2  0  0  0  0  0  0
  187.3220  177.2960  148.8720 C   0  0  0  0  0  2  0  0  0  0  0  0
  188.4600  176.5280  148.3690 N   0  0  0  0  0  2  0  0  0  0  0  0
  189.4150  177.4950  147.8370 C   0  0  1  0  0  3  0  0  0  0  0  0
  187.5890  178.7680  148.6380 C   0  0  0  0  0  2  0  0  0  0  0  0
  189.9210  176.8850  137.7790 C   0  0  0  0  0  2  0  0  0  0  0  0
  188.9420  175.9050  137.6120 O   0  0  0  0  0  0  0  0  0  0  0  0
  189.4960  174.9820  136.7150 C   0  0  2  0  0  3  0  0  0  0  0  0
  189.2840  175.7580  134.4320 O   0  0  0  0  0  1  0  0  0  0  0  0
  190.1500  175.7040  135.5270 C   0  0  2  0  0  3  0  0  0  0  0  0
  191.4680  175.0490  135.1370 C   0  0  0  0  0  2  0  0  0  0  0  0
  192.5380  176.0330  135.1090 N   0  0  0  0  0  2  0  0  0  0  0  0
  194.4100  177.0410  136.0350 O   0  0  0  0  0  0  0  0  0  0  0  0
  193.4630  176.2260  136.1830 C   0  0  0  0  0  0  0  0  0  0  0  0
  193.3300  175.4690  137.4640 C   0  0  0  0  0  2  0  0  0  0  0  0
  196.0830  172.6030  137.5760 P   0  0  1  0  0  0  0  0  0  0  0  0
  195.4730  174.9490  138.4940 N   0  0  0  0  0  0  0  0  0  0  0  0
  197.1360  172.2990  136.2850 O   0  0  0  0  0  0  0  0  0  0  0  0
  194.5110  174.5880  137.6980 C   0  0  0  0  0  0  0  0  0  0  0  0
  196.5700  173.9890  138.6300 C   0  0  2  0  0  3  0  0  0  0  0  0
  194.6500  173.3570  137.0670 O   0  0  0  0  0  0  0  0  0  0  0  0
  195.7930  171.3520  138.3790 O   0  0  0  0  0  1  0  0  0  0  0  0
  199.0570  174.2740  138.7660 O   0  0  0  0  0  1  0  0  0  0  0  0
  197.8360  175.4190  137.2030 O   0  0  0  0  0  0  0  0  0  0  0  0
  197.8510  174.5980  138.1570 C   0  0  0  0  0  0  0  0  0  0  0  0
  188.8220  172.6840  136.8570 O   0  0  0  0  0  1  0  0  0  0  0  0
  188.4710  173.9180  136.3040 C   0  0  1  0  0  3  0  0  0  0  0  0
  187.0530  174.2870  136.7200 C   0  0  0  0  0  2  0  0  0  0  0  0
  186.1830  174.0870  135.6470 O   0  0  0  0  0  0  0  0  0  0  0  0
  185.2450  173.2920  137.6970 C   0  0  0  0  0  1  0  0  0  0  0  0
  185.1030  173.3820  136.1850 C   0  0  0  0  0  2  0  0  0  0  0  0
  188.9820  178.4190  139.6200 C   0  0  0  0  0  2  0  0  0  0  0  0
  187.8490  177.8500  140.4520 C   0  0  0  0  0  2  0  0  0  0  0  0
  187.5270  178.8030  141.5890 C   0  0  0  0  0  2  0  0  0  0  0  0
  186.8010  178.0730  142.7030 C   0  0  0  0  0  2  0  0  0  0  0  0
  185.5320  178.8260  143.0690 C   0  0  0  0  0  2  0  0  0  0  0  0
  184.3070  178.0010  142.7070 C   0  0  1  0  0  3  0  0  0  0  0  0
  182.9500  177.7580  140.9030 C   0  0  2  0  0  3  0  0  0  0  0  0
  183.0780  178.7570  143.0500 C   0  0  0  0  0  0  0  0  0  0  0  0
  182.0680  179.1590  141.6690 S   0  0  0  0  0  0  0  0  0  0  0  0
  184.2980  177.7500  141.3210 O   0  0  0  0  0  0  0  0  0  0  0  0
  182.7190  178.9440  144.1990 O   0  0  0  0  0  0  0  0  0  0  0  0
  183.4820  176.5660  137.3740 C   0  0  0  0  0  2  0  0  0  0  0  0
  184.8340  177.2640  137.1910 C   0  0  0  0  0  2  0  0  0  0  0  0
  185.0780  178.3320  138.2670 C   0  0  0  0  0  2  0  0  0  0  0  0
  183.7650  178.8940  138.8060 C   0  0  0  0  0  2  0  0  0  0  0  0
  183.1480  176.4390  138.7920 N   0  0  0  0  0  0  0  0  0  0  0  0
  182.8680  177.7720  139.3710 C   0  0  1  0  0  3  0  0  0  0  0  0
  181.9270  174.6940  137.8470 O   0  0  0  0  0  1  0  0  0  0  0  0
  181.9120  175.6740  138.8400 C   0  0  0  0  0  2  0  0  0  0  0  0
  1  7  1  0  0  0  0
  2 43  1  0  0  0  0
  2  1  2  0  0  0  0
  3  8  2  0  0  0  0
  4  5  1  0  0  0  0
  5  8  1  0  0  0  0
  6 11  1  0  0  0  0
  7  9  1  0  0  0  0
  7  6  2  0  0  0  0
  9 10  1  0  0  0  0
 10  4  2  0  0  0  0
 11  4  1  0  0  0  0
 12 15  1  0  0  0  0
 12 16  1  0  0  0  0
 14 13  1  0  0  0  0
 15  8  1  6  0  0  0
 15 14  1  0  0  0  0
 16 13  1  0  0  0  0
 17  2  1  0  0  0  0
 18 17  1  0  0  0  0
 19 18  1  1  0  0  0
 21 20  1  6  0  0  0
 21 19  1  0  0  0  0
 22 21  1  0  0  0  0
 23 22  1  0  0  0  0
 23 25  1  0  0  0  0
 24 25  2  0  0  0  0
 25 26  1  0  0  0  0
 26 30  1  0  0  0  0
 27 29  2  6  0  0  0
 27 33  1  0  0  0  0
 27 31  1  0  0  0  0
 28 31  1  0  0  0  0
 30 28  2  0  0  0  0
 31 36  1  6  0  0  0
 32 27  1  0  0  0  0
 32 30  1  0  0  0  0
 35 36  2  0  0  0  0
 36 34  1  0  0  0  0
 38 19  1  0  0  0  0
 38 39  1  0  0  0  0
 38 37  1  1  0  0  0
 40 42  1  0  0  0  0
 40 39  1  0  0  0  0
 42 41  1  0  0  0  0
 43 44  1  0  0  0  0
 44 45  1  0  0  0  0
 45 46  1  0  0  0  0
 46 47  1  0  0  0  0
 48 50  1  0  0  0  0
 48 47  1  6  0  0  0
 49 52  1  6  0  0  0
 49 51  1  0  0  0  0
 50 53  2  0  0  0  0
 51 50  1  0  0  0  0
 52 48  1  0  0  0  0
 54 58  1  0  0  0  0
 55 54  1  0  0  0  0
 55 56  1  0  0  0  0
 56 57  1  0  0  0  0
 58 61  1  0  0  0  0
 58 59  1  0  0  0  0
 59 57  1  6  0  0  0
 59 49  1  0  0  0  0
 60 61  1  0  0  0  0
M  END
>  <MODEL>
4

>  <REMARK>
 VINA RESULT:      -6.1      3.191      9.063
  Name = 
  23 active torsions:
  status: ('A' for Active; 'I' for Inactive)
    1  A    between atoms: N_3  and  C_24
    2  A    between atoms: C_4  and  C_54
    3  A    between atoms: N_6  and  C_28
    4  A    between atoms: C_9  and  C_46
    5  A    between atoms: C_11  and  C_47
    6  A    between atoms: C_11  and  C_60
    7  A    between atoms: C_12  and  O_32
    8  A    between atoms: C_12  and  C_39
    9  A    between atoms: C_19  and  C_45
   10  A    between atoms: C_19  and  C_47
   11  A    between atoms: C_20  and  C_38
   12  A    between atoms: C_20  and  C_55
   13  A    between atoms: C_21  and  N_40
   14  A    between atoms: C_23  and  O_32
   15  A    between atoms: C_24  and  C_36
   16  A    between atoms: O_25  and  C_31
   17  A    between atoms: O_25  and  C_42
   18  A    between atoms: C_31  and  C_36
   19  A    between atoms: C_31  and  C_39
   20  A    between atoms: C_34  and  C_58
   21  A    between atoms: C_42  and  C_45
   22  A    between atoms: C_48  and  C_61
   23  A    between atoms: C_54  and  C_60
                            x       y       z     vdW  Elec       q    Type
                         _______ _______ _______ _____ _____    ______ ____

>  <TORSDO>
F 23

$$$$
=
 OpenBabel10232407503D

 61 65  0  0  1  0  0  0  0  0999 V2000
  188.1310  176.5200  138.0100 N   0  0  0  0  0  0  0  0  0  0  0  0
  188.6970  176.2580  136.8700 C   0  0  0  0  0  0  0  0  0  0  0  0
  191.9450  177.1060  143.2140 O   0  0  0  0  0  0  0  0  0  0  0  0
  189.5630  177.9670  141.7150 C   0  0  0  0  0  0  0  0  0  0  0  0
  189.7980  178.0550  143.1250 N   0  0  0  0  0  2  0  0  0  0  0  0
  189.8910  176.6970  139.6180 C   0  0  0  0  0  3  0  0  0  0  0  0
  188.7190  177.1500  139.1620 C   0  0  0  0  0  0  0  0  0  0  0  0
  190.9680  177.6210  143.8270 C   0  0  0  0  0  0  0  0  0  0  0  0
  188.1260  178.3760  139.8050 C   0  0  0  0  0  2  0  0  0  0  0  0
  188.4340  178.4070  141.2380 N   0  0  0  0  0  0  0  0  0  0  0  0
  190.5790  177.3710  140.7730 C   0  0  0  0  0  2  0  0  0  0  0  0
  189.6110  177.6510  145.8850 C   0  0  0  0  0  2  0  0  0  0  0  0
  191.0970  176.2340  147.1020 C   0  0  0  0  0  2  0  0  0  0  0  0
  191.8080  176.6820  145.9060 N   0  0  0  0  0  2  0  0  0  0  0  0
  191.0030  177.7450  145.3140 C   0  0  1  0  0  3  0  0  0  0  0  0
  189.8240  177.0430  147.2410 C   0  0  0  0  0  2  0  0  0  0  0  0
  187.8930  175.5680  135.8200 C   0  0  0  0  0  2  0  0  0  0  0  0
  187.7110  174.2310  136.1750 O   0  0  0  0  0  0  0  0  0  0  0  0
  186.3640  173.9590  135.9010 C   0  0  2  0  0  3  0  0  0  0  0  0
  185.2860  173.0120  137.8510 O   0  0  0  0  0  1  0  0  0  0  0  0
  185.4970  174.2000  137.1450 C   0  0  2  0  0  3  0  0  0  0  0  0
  184.1690  174.8490  136.7790 C   0  0  0  0  0  2  0  0  0  0  0  0
  183.1130  174.3850  137.6640 N   0  0  0  0  0  2  0  0  0  0  0  0
  180.9590  174.5120  138.5150 O   0  0  0  0  0  0  0  0  0  0  0  0
  181.8450  175.0350  137.7890 C   0  0  0  0  0  0  0  0  0  0  0  0
  181.5540  176.3090  137.0660 C   0  0  0  0  0  2  0  0  0  0  0  0
  182.9700  179.1370  139.4750 P   0  0  1  0  0  0  0  0  0  0  0  0
  180.8690  178.3710  138.1650 N   0  0  0  0  0  0  0  0  0  0  0  0
  184.0760  180.3090  138.9550 O   0  0  0  0  0  0  0  0  0  0  0  0
  181.8020  177.4950  137.9380 C   0  0  0  0  0  0  0  0  0  0  0  0
  181.2500  179.4840  139.0360 C   0  0  2  0  0  3  0  0  0  0  0  0
  183.0370  177.7300  138.5290 O   0  0  0  0  0  0  0  0  0  0  0  0
  183.1280  178.8210  140.9480 O   0  0  0  0  0  1  0  0  0  0  0  0
  181.0270  180.8020  136.9150 O   0  0  0  0  0  0  0  0  0  0  0  0
  181.1470  181.8630  138.9410 O   0  0  0  0  0  1  0  0  0  0  0  0
  181.1350  180.7800  138.3000 C   0  0  0  0  0  0  0  0  0  0  0  0
  187.1570  171.6960  135.8010 O   0  0  0  0  0  1  0  0  0  0  0  0
  186.1900  172.5650  135.2860 C   0  0  1  0  0  3  0  0  0  0  0  0
  184.7990  171.9910  135.5280 C   0  0  0  0  0  2  0  0  0  0  0  0
  184.8890  170.6130  135.7330 O   0  0  0  0  0  0  0  0  0  0  0  0
  182.6430  171.0890  136.4030 C   0  0  0  0  0  1  0  0  0  0  0  0
  183.5730  170.1510  135.6480 C   0  0  0  0  0  2  0  0  0  0  0  0
  190.0880  176.7050  136.5360 C   0  0  0  0  0  2  0  0  0  0  0  0
  190.9800  175.5200  136.2240 C   0  0  0  0  0  2  0  0  0  0  0  0
  192.2810  176.0120  135.6140 C   0  0  0  0  0  2  0  0  0  0  0  0
  193.3810  176.0350  136.6590 C   0  0  0  0  0  2  0  0  0  0  0  0
  193.0780  175.0160  137.7460 C   0  0  0  0  0  2  0  0  0  0  0  0
  194.2300  174.0340  137.8830 C   0  0  1  0  0  3  0  0  0  0  0  0
  196.3800  173.8960  137.1650 C   0  0  2  0  0  3  0  0  0  0  0  0
  194.1960  173.0660  136.7590 C   0  0  0  0  0  0  0  0  0  0  0  0
  195.5990  173.1350  135.7030 S   0  0  0  0  0  0  0  0  0  0  0  0
  195.4540  174.7290  137.8280 O   0  0  0  0  0  0  0  0  0  0  0  0
  193.3510  172.1930  136.6670 O   0  0  0  0  0  0  0  0  0  0  0  0
  199.2390  175.1470  135.0610 C   0  0  0  0  0  2  0  0  0  0  0  0
  200.1890  173.9980  135.4160 C   0  0  0  0  0  2  0  0  0  0  0  0
  199.7080  173.2170  136.6480 C   0  0  0  0  0  2  0  0  0  0  0  0
  198.8600  174.0900  137.5690 C   0  0  0  0  0  2  0  0  0  0  0  0
  197.8520  174.7860  135.3540 N   0  0  0  0  0  0  0  0  0  0  0  0
  197.6500  174.6830  136.8170 C   0  0  1  0  0  3  0  0  0  0  0  0
  197.3830  177.0570  135.5820 O   0  0  0  0  0  1  0  0  0  0  0  0
  197.0450  175.8990  134.8800 C   0  0  0  0  0  2  0  0  0  0  0  0
  1  7  1  0  0  0  0
  2  1  2  0  0  0  0
  3  8  2  0  0  0  0
  4  5  1  0  0  0  0
  5  8  1  0  0  0  0
  6 11  1  0  0  0  0
  7  6  2  0  0  0  0
  7  9  1  0  0  0  0
  9 10  1  0  0  0  0
 10  4  2  0  0  0  0
 11  4  1  0  0  0  0
 12 16  1  0  0  0  0
 13 16  1  0  0  0  0
 14 13  1  0  0  0  0
 15  8  1  6  0  0  0
 15 12  1  0  0  0  0
 15 14  1  0  0  0  0
 17 18  1  0  0  0  0
 17  2  1  0  0  0  0
 19 18  1  1  0  0  0
 19 21  1  0  0  0  0
 21 20  1  6  0  0  0
 22 21  1  0  0  0  0
 22 23  1  0  0  0  0
 23 25  1  0  0  0  0
 25 24  2  0  0  0  0
 26 25  1  0  0  0  0
 26 30  1  0  0  0  0
 27 29  2  6  0  0  0
 27 33  1  0  0  0  0
 28 31  1  0  0  0  0
 30 28  2  0  0  0  0
 30 32  1  0  0  0  0
 31 36  1  6  0  0  0
 31 27  1  0  0  0  0
 32 27  1  0  0  0  0
 34 36  2  0  0  0  0
 36 35  1  0  0  0  0
 38 39  1  0  0  0  0
 38 37  1  1  0  0  0
 38 19  1  0  0  0  0
 39 40  1  0  0  0  0
 42 40  1  0  0  0  0
 42 41  1  0  0  0  0
 43  2  1  0  0  0  0
 44 43  1  0  0  0  0
 45 44  1  0  0  0  0
 45 46  1  0  0  0  0
 46 47  1  0  0  0  0
 48 47  1  6  0  0  0
 49 51  1  6  0  0  0
 49 52  1  0  0  0  0
 50 48  1  0  0  0  0
 51 50  1  0  0  0  0
 52 48  1  0  0  0  0
 53 50  2  0  0  0  0
 54 58  1  0  0  0  0
 54 55  1  0  0  0  0
 55 56  1  0  0  0  0
 56 57  1  0  0  0  0
 58 59  1  0  0  0  0
 59 49  1  0  0  0  0
 59 57  1  1  0  0  0
 61 58  1  0  0  0  0
 61 60  1  0  0  0  0
M  END
>  <MODEL>
5

>  <REMARK>
 VINA RESULT:      -5.8      3.549     10.182
  Name = 
  23 active torsions:
  status: ('A' for Active; 'I' for Inactive)
    1  A    between atoms: N_3  and  C_24
    2  A    between atoms: C_4  and  C_54
    3  A    between atoms: N_6  and  C_28
    4  A    between atoms: C_9  and  C_46
    5  A    between atoms: C_11  and  C_47
    6  A    between atoms: C_11  and  C_60
    7  A    between atoms: C_12  and  O_32
    8  A    between atoms: C_12  and  C_39
    9  A    between atoms: C_19  and  C_45
   10  A    between atoms: C_19  and  C_47
   11  A    between atoms: C_20  and  C_38
   12  A    between atoms: C_20  and  C_55
   13  A    between atoms: C_21  and  N_40
   14  A    between atoms: C_23  and  O_32
   15  A    between atoms: C_24  and  C_36
   16  A    between atoms: O_25  and  C_31
   17  A    between atoms: O_25  and  C_42
   18  A    between atoms: C_31  and  C_36
   19  A    between atoms: C_31  and  C_39
   20  A    between atoms: C_34  and  C_58
   21  A    between atoms: C_42  and  C_45
   22  A    between atoms: C_48  and  C_61
   23  A    between atoms: C_54  and  C_60
                            x       y       z     vdW  Elec       q    Type
                         _______ _______ _______ _____ _____    ______ ____

>  <TORSDO>
F 23

$$$$
=
 OpenBabel10232407503D

 61 65  0  0  1  0  0  0  0  0999 V2000
  185.7670  178.4110  139.4390 N   0  0  0  0  0  0  0  0  0  0  0  0
  185.2900  178.8300  140.5730 C   0  0  0  0  0  0  0  0  0  0  0  0
  190.7140  175.8490  136.1320 O   0  0  0  0  0  0  0  0  0  0  0  0
  189.6680  176.9940  138.6340 C   0  0  0  0  0  0  0  0  0  0  0  0
  190.7620  176.0840  138.4690 N   0  0  0  0  0  2  0  0  0  0  0  0
  187.4380  177.7410  137.8660 C   0  0  0  0  0  3  0  0  0  0  0  0
  187.1380  178.1200  139.1130 C   0  0  0  0  0  0  0  0  0  0  0  0
  191.2440  175.5390  137.2360 C   0  0  0  0  0  0  0  0  0  0  0  0
  188.2660  178.3370  140.0870 C   0  0  0  0  0  2  0  0  0  0  0  0
  189.3550  177.3890  139.8350 N   0  0  0  0  0  0  0  0  0  0  0  0
  188.8650  177.4970  137.4600 C   0  0  0  0  0  2  0  0  0  0  0  0
  192.6830  174.0600  135.8860 C   0  0  0  0  0  2  0  0  0  0  0  0
  194.6910  174.6820  137.0170 C   0  0  0  0  0  2  0  0  0  0  0  0
  193.5720  175.1630  137.8250 N   0  0  0  0  0  2  0  0  0  0  0  0
  192.3650  174.5550  137.2740 C   0  0  1  0  0  3  0  0  0  0  0  0
  194.1520  173.7580  135.9450 C   0  0  0  0  0  2  0  0  0  0  0  0
  183.8250  179.0930  140.6720 C   0  0  0  0  0  2  0  0  0  0  0  0
  183.4070  179.8290  139.5630 O   0  0  0  0  0  0  0  0  0  0  0  0
  182.1650  179.2840  139.2090 C   0  0  2  0  0  3  0  0  0  0  0  0
  181.0810  178.8310  137.0930 O   0  0  0  0  0  1  0  0  0  0  0  0
  182.2430  178.6030  137.8350 C   0  0  2  0  0  3  0  0  0  0  0  0
  182.5090  177.1100  137.9710 C   0  0  0  0  0  2  0  0  0  0  0  0
  181.4750  176.3440  137.2940 N   0  0  0  0  0  2  0  0  0  0  0  0
  180.7250  175.0440  135.5250 O   0  0  0  0  0  0  0  0  0  0  0  0
  181.6430  175.7650  135.9970 C   0  0  0  0  0  0  0  0  0  0  0  0
  182.8890  175.9890  135.2040 C   0  0  0  0  0  2  0  0  0  0  0  0
  185.9210  173.8060  136.5640 P   0  0  1  0  0  0  0  0  0  0  0  0
  183.9430  173.8170  134.8890 N   0  0  0  0  0  0  0  0  0  0  0  0
  185.9060  173.0770  138.0920 O   0  0  0  0  0  1  0  0  0  0  0  0
  183.9220  174.9570  135.5140 C   0  0  0  0  0  0  0  0  0  0  0  0
  185.0080  172.8990  135.2930 C   0  0  2  0  0  3  0  0  0  0  0  0
  184.8920  175.1540  136.4890 O   0  0  0  0  0  0  0  0  0  0  0  0
  187.3240  174.1570  136.1150 O   0  0  0  0  0  0  0  0  0  0  0  0
  183.5290  171.6830  136.9100 O   0  0  0  0  0  1  0  0  0  0  0  0
  184.7530  170.5300  135.3550 O   0  0  0  0  0  0  0  0  0  0  0  0
  184.4230  171.6400  135.8490 C   0  0  0  0  0  0  0  0  0  0  0  0
  180.4170  180.4810  138.0820 O   0  0  0  0  0  1  0  0  0  0  0  0
  181.0460  180.3270  139.3200 C   0  0  1  0  0  3  0  0  0  0  0  0
  180.0150  179.9630  140.3810 C   0  0  0  0  0  2  0  0  0  0  0  0
  180.6500  179.8000  141.6140 O   0  0  0  0  0  0  0  0  0  0  0  0
  180.4030  178.6130  143.6750 C   0  0  0  0  0  1  0  0  0  0  0  0
  179.9990  178.7180  142.2120 C   0  0  0  0  0  2  0  0  0  0  0  0
  186.1330  178.9650  141.8040 C   0  0  0  0  0  2  0  0  0  0  0  0
  185.6420  178.0440  142.9030 C   0  0  0  0  0  2  0  0  0  0  0  0
  184.6720  178.7950  143.7970 C   0  0  0  0  0  2  0  0  0  0  0  0
  184.9290  178.4630  145.2550 C   0  0  0  0  0  2  0  0  0  0  0  0
  186.1110  177.5130  145.3650 C   0  0  0  0  0  2  0  0  0  0  0  0
  187.3190  178.2410  145.9320 C   0  0  1  0  0  3  0  0  0  0  0  0
  189.5780  178.0530  145.7940 C   0  0  2  0  0  3  0  0  0  0  0  0
  187.7280  177.6060  147.2090 C   0  0  0  0  0  0  0  0  0  0  0  0
  189.3340  176.8920  147.1790 S   0  0  0  0  0  0  0  0  0  0  0  0
  188.3960  178.1450  145.0280 O   0  0  0  0  0  0  0  0  0  0  0  0
  187.0770  177.7100  148.2340 O   0  0  0  0  0  0  0  0  0  0  0  0
  191.5980  177.7230  142.6360 C   0  0  0  0  0  2  0  0  0  0  0  0
  190.9990  176.3730  142.2240 C   0  0  0  0  0  2  0  0  0  0  0  0
  190.2610  175.6960  143.3890 C   0  0  0  0  0  2  0  0  0  0  0  0
  190.8240  176.1330  144.7390 C   0  0  0  0  0  2  0  0  0  0  0  0
  190.7430  178.3980  143.6120 N   0  0  0  0  0  0  0  0  0  0  0  0
  190.7630  177.6670  144.8980 C   0  0  1  0  0  3  0  0  0  0  0  0
  192.5900  179.5330  144.4660 O   0  0  0  0  0  1  0  0  0  0  0  0
  191.3530  179.6990  143.8400 C   0  0  0  0  0  2  0  0  0  0  0  0
  1  2  2  0  0  0  0
  2 17  1  0  0  0  0
  2 43  1  0  0  0  0
  3  8  2  0  0  0  0
  4 10  2  0  0  0  0
  5  4  1  0  0  0  0
  6  7  2  0  0  0  0
  7  1  1  0  0  0  0
  7  9  1  0  0  0  0
  8  5  1  0  0  0  0
 10  9  1  0  0  0  0
 11  6  1  0  0  0  0
 11  4  1  0  0  0  0
 12 16  1  0  0  0  0
 12 15  1  0  0  0  0
 13 14  1  0  0  0  0
 15  8  1  6  0  0  0
 15 14  1  0  0  0  0
 16 13  1  0  0  0  0
 18 17  1  0  0  0  0
 19 38  1  0  0  0  0
 19 18  1  6  0  0  0
 21 20  1  1  0  0  0
 21 22  1  0  0  0  0
 21 19  1  0  0  0  0
 23 22  1  0  0  0  0
 24 25  2  0  0  0  0
 25 23  1  0  0  0  0
 26 30  1  0  0  0  0
 26 25  1  0  0  0  0
 27 33  2  6  0  0  0
 27 29  1  0  0  0  0
 28 31  1  0  0  0  0
 28 30  2  0  0  0  0
 30 32  1  0  0  0  0
 31 36  1  1  0  0  0
 31 27  1  0  0  0  0
 32 27  1  0  0  0  0
 35 36  2  0  0  0  0
 36 34  1  0  0  0  0
 38 37  1  6  0  0  0
 38 39  1  0  0  0  0
 39 40  1  0  0  0  0
 40 42  1  0  0  0  0
 42 41  1  0  0  0  0
 43 44  1  0  0  0  0
 44 45  1  0  0  0  0
 45 46  1  0  0  0  0
 46 47  1  0  0  0  0
 48 47  1  6  0  0  0
 48 50  1  0  0  0  0
 49 52  1  6  0  0  0
 49 51  1  0  0  0  0
 50 53  2  0  0  0  0
 51 50  1  0  0  0  0
 52 48  1  0  0  0  0
 54 58  1  0  0  0  0
 55 54  1  0  0  0  0
 55 56  1  0  0  0  0
 56 57  1  0  0  0  0
 58 61  1  0  0  0  0
 58 59  1  0  0  0  0
 59 57  1  6  0  0  0
 59 49  1  0  0  0  0
 61 60  1  0  0  0  0
M  END
>  <MODEL>
6

>  <REMARK>
 VINA RESULT:      -5.7      3.400      9.194
  Name = 
  23 active torsions:
  status: ('A' for Active; 'I' for Inactive)
    1  A    between atoms: N_3  and  C_24
    2  A    between atoms: C_4  and  C_54
    3  A    between atoms: N_6  and  C_28
    4  A    between atoms: C_9  and  C_46
    5  A    between atoms: C_11  and  C_47
    6  A    between atoms: C_11  and  C_60
    7  A    between atoms: C_12  and  O_32
    8  A    between atoms: C_12  and  C_39
    9  A    between atoms: C_19  and  C_45
   10  A    between atoms: C_19  and  C_47
   11  A    between atoms: C_20  and  C_38
   12  A    between atoms: C_20  and  C_55
   13  A    between atoms: C_21  and  N_40
   14  A    between atoms: C_23  and  O_32
   15  A    between atoms: C_24  and  C_36
   16  A    between atoms: O_25  and  C_31
   17  A    between atoms: O_25  and  C_42
   18  A    between atoms: C_31  and  C_36
   19  A    between atoms: C_31  and  C_39
   20  A    between atoms: C_34  and  C_58
   21  A    between atoms: C_42  and  C_45
   22  A    between atoms: C_48  and  C_61
   23  A    between atoms: C_54  and  C_60
                            x       y       z     vdW  Elec       q    Type
                         _______ _______ _______ _____ _____    ______ ____

>  <TORSDO>
F 23

$$$$
=
 OpenBabel10232407503D

 61 65  0  0  1  0  0  0  0  0999 V2000
  188.2850  177.1480  139.2850 N   0  0  0  0  0  0  0  0  0  0  0  0
  189.0490  177.0010  138.2440 C   0  0  0  0  0  0  0  0  0  0  0  0
  190.6570  176.3010  145.2530 O   0  0  0  0  0  0  0  0  0  0  0  0
  188.9870  177.8550  143.3930 C   0  0  0  0  0  0  0  0  0  0  0  0
  188.8630  177.7530  144.8170 N   0  0  0  0  0  2  0  0  0  0  0  0
  189.5650  176.7400  141.2620 C   0  0  0  0  0  3  0  0  0  0  0  0
  188.6770  177.5070  140.6220 C   0  0  0  0  0  0  0  0  0  0  0  0
  189.6900  176.9820  145.6950 C   0  0  0  0  0  0  0  0  0  0  0  0
  188.2160  178.7770  141.2870 C   0  0  0  0  0  2  0  0  0  0  0  0
  188.1420  178.6010  142.7410 N   0  0  0  0  0  0  0  0  0  0  0  0
  190.0590  177.1150  142.6320 C   0  0  0  0  0  2  0  0  0  0  0  0
  190.0440  178.1000  147.8650 C   0  0  0  0  0  2  0  0  0  0  0  0
  187.7480  177.9800  148.5060 C   0  0  0  0  0  2  0  0  0  0  0  0
  187.9260  177.0840  147.3650 N   0  0  0  0  0  2  0  0  0  0  0  0
  189.3640  176.9580  147.1520 C   0  0  1  0  0  3  0  0  0  0  0  0
  189.1120  178.4150  148.9990 C   0  0  0  0  0  2  0  0  0  0  0  0
  188.4190  176.5950  136.9530 C   0  0  0  0  0  2  0  0  0  0  0  0
  187.0930  176.2260  137.1770 O   0  0  0  0  0  0  0  0  0  0  0  0
  186.5250  176.1070  135.9010 C   0  0  2  0  0  3  0  0  0  0  0  0
  184.9250  177.5590  134.8100 O   0  0  0  0  0  1  0  0  0  0  0  0
  185.1020  176.6830  135.8840 C   0  0  2  0  0  3  0  0  0  0  0  0
  184.7670  177.3730  137.2000 C   0  0  0  0  0  2  0  0  0  0  0  0
  183.3350  177.6010  137.3060 N   0  0  0  0  0  2  0  0  0  0  0  0
  181.5120  178.8420  138.0260 O   0  0  0  0  0  0  0  0  0  0  0  0
  182.7590  178.6700  138.0620 C   0  0  0  0  0  0  0  0  0  0  0  0
  183.6100  179.5880  138.8780 C   0  0  0  0  0  2  0  0  0  0  0  0
  184.4080  178.8210  142.6960 P   0  0  1  0  0  0  0  0  0  0  0  0
  182.6020  178.5830  140.8520 N   0  0  0  0  0  0  0  0  0  0  0  0
  184.4450  180.0300  143.8810 O   0  0  0  0  0  1  0  0  0  0  0  0
  183.6220  179.1820  140.3130 C   0  0  0  0  0  0  0  0  0  0  0  0
  182.7480  178.2430  142.2680 C   0  0  2  0  0  3  0  0  0  0  0  0
  184.7070  179.4380  141.1440 O   0  0  0  0  0  0  0  0  0  0  0  0
  185.3420  177.6750  143.0250 O   0  0  0  0  0  0  0  0  0  0  0  0
  181.3880  178.5070  144.3570 O   0  0  0  0  0  1  0  0  0  0  0  0
  181.1120  179.9450  142.5960 O   0  0  0  0  0  0  0  0  0  0  0  0
  181.7090  178.9470  143.0800 C   0  0  0  0  0  0  0  0  0  0  0  0
  187.6170  174.5760  134.4120 O   0  0  0  0  0  1  0  0  0  0  0  0
  186.6160  174.6670  135.3810 C   0  0  1  0  0  3  0  0  0  0  0  0
  186.8810  173.6630  136.4960 C   0  0  0  0  0  2  0  0  0  0  0  0
  185.6710  173.2630  137.0650 O   0  0  0  0  0  0  0  0  0  0  0  0
  183.6330  172.3020  136.2660 C   0  0  0  0  0  1  0  0  0  0  0  0
  185.1510  172.3180  136.1770 C   0  0  0  0  0  2  0  0  0  0  0  0
  190.5140  177.3140  138.2650 C   0  0  0  0  0  2  0  0  0  0  0  0
  191.3350  176.1010  137.8750 C   0  0  0  0  0  2  0  0  0  0  0  0
  192.6940  176.5510  137.3700 C   0  0  0  0  0  2  0  0  0  0  0  0
  193.7340  175.4730  137.6160 C   0  0  0  0  0  2  0  0  0  0  0  0
  193.2530  174.1540  137.0340 C   0  0  0  0  0  2  0  0  0  0  0  0
  194.2580  173.0510  137.3260 C   0  0  1  0  0  3  0  0  0  0  0  0
  196.4320  172.6210  136.8320 C   0  0  2  0  0  3  0  0  0  0  0  0
  194.2100  172.0340  136.2480 C   0  0  0  0  0  0  0  0  0  0  0  0
  195.7030  171.8790  135.3340 S   0  0  0  0  0  0  0  0  0  0  0  0
  195.5580  173.5940  137.3630 O   0  0  0  0  0  0  0  0  0  0  0  0
  193.2760  171.2640  136.1100 O   0  0  0  0  0  0  0  0  0  0  0  0
  200.1450  173.1160  137.1980 C   0  0  0  0  0  2  0  0  0  0  0  0
  200.0400  174.1230  138.3490 C   0  0  0  0  0  2  0  0  0  0  0  0
  198.6200  174.6900  138.4870 C   0  0  0  0  0  2  0  0  0  0  0  0
  197.8740  174.6630  137.1550 C   0  0  0  0  0  2  0  0  0  0  0  0
  198.9040  172.3530  137.0590 N   0  0  0  0  0  0  0  0  0  0  0  0
  197.8160  173.2330  136.5780 C   0  0  1  0  0  3  0  0  0  0  0  0
  200.2070  171.8060  135.2060 O   0  0  0  0  0  1  0  0  0  0  0  0
  199.1610  171.3680  136.0200 C   0  0  0  0  0  2  0  0  0  0  0  0
  1  7  1  0  0  0  0
  2 43  1  0  0  0  0
  2  1  2  0  0  0  0
  3  8  2  0  0  0  0
  4  5  1  0  0  0  0
  5  8  1  0  0  0  0
  6 11  1  0  0  0  0
  7  6  2  0  0  0  0
  7  9  1  0  0  0  0
  9 10  1  0  0  0  0
 10  4  2  0  0  0  0
 11  4  1  0  0  0  0
 12 16  1  0  0  0  0
 13 16  1  0  0  0  0
 14 13  1  0  0  0  0
 15  8  1  6  0  0  0
 15 14  1  0  0  0  0
 15 12  1  0  0  0  0
 17 18  1  0  0  0  0
 17  2  1  0  0  0  0
 19 18  1  1  0  0  0
 21 20  1  6  0  0  0
 21 19  1  0  0  0  0
 21 22  1  0  0  0  0
 22 23  1  0  0  0  0
 23 25  1  0  0  0  0
 24 25  2  0  0  0  0
 25 26  1  0  0  0  0
 26 30  1  0  0  0  0
 27 33  2  1  0  0  0
 27 29  1  0  0  0  0
 28 31  1  0  0  0  0
 30 28  2  0  0  0  0
 30 32  1  0  0  0  0
 31 27  1  0  0  0  0
 31 36  1  1  0  0  0
 32 27  1  0  0  0  0
 35 36  2  0  0  0  0
 36 34  1  0  0  0  0
 38 37  1  6  0  0  0
 38 19  1  0  0  0  0
 38 39  1  0  0  0  0
 39 40  1  0  0  0  0
 42 41  1  0  0  0  0
 42 40  1  0  0  0  0
 44 43  1  0  0  0  0
 45 46  1  0  0  0  0
 45 44  1  0  0  0  0
 47 46  1  0  0  0  0
 48 47  1  6  0  0  0
 48 52  1  0  0  0  0
 49 51  1  6  0  0  0
 49 52  1  0  0  0  0
 50 48  1  0  0  0  0
 51 50  1  0  0  0  0
 53 50  2  0  0  0  0
 54 55  1  0  0  0  0
 55 56  1  0  0  0  0
 57 56  1  0  0  0  0
 58 54  1  0  0  0  0
 59 49  1  0  0  0  0
 59 58  1  0  0  0  0
 59 57  1  1  0  0  0
 60 61  1  0  0  0  0
 61 58  1  0  0  0  0
M  END
>  <MODEL>
7

>  <REMARK>
 VINA RESULT:      -5.7      3.246      9.957
  Name = 
  23 active torsions:
  status: ('A' for Active; 'I' for Inactive)
    1  A    between atoms: N_3  and  C_24
    2  A    between atoms: C_4  and  C_54
    3  A    between atoms: N_6  and  C_28
    4  A    between atoms: C_9  and  C_46
    5  A    between atoms: C_11  and  C_47
    6  A    between atoms: C_11  and  C_60
    7  A    between atoms: C_12  and  O_32
    8  A    between atoms: C_12  and  C_39
    9  A    between atoms: C_19  and  C_45
   10  A    between atoms: C_19  and  C_47
   11  A    between atoms: C_20  and  C_38
   12  A    between atoms: C_20  and  C_55
   13  A    between atoms: C_21  and  N_40
   14  A    between atoms: C_23  and  O_32
   15  A    between atoms: C_24  and  C_36
   16  A    between atoms: O_25  and  C_31
   17  A    between atoms: O_25  and  C_42
   18  A    between atoms: C_31  and  C_36
   19  A    between atoms: C_31  and  C_39
   20  A    between atoms: C_34  and  C_58
   21  A    between atoms: C_42  and  C_45
   22  A    between atoms: C_48  and  C_61
   23  A    between atoms: C_54  and  C_60
                            x       y       z     vdW  Elec       q    Type
                         _______ _______ _______ _____ _____    ______ ____

>  <TORSDO>
F 23

$$$$
=
 OpenBabel10232407503D

 61 65  0  0  1  0  0  0  0  0999 V2000
  190.5940  176.9490  139.3800 N   0  0  0  0  0  0  0  0  0  0  0  0
  189.6610  177.3380  138.5630 C   0  0  0  0  0  0  0  0  0  0  0  0
  187.9700  176.7290  145.2990 O   0  0  0  0  0  0  0  0  0  0  0  0
  190.2310  177.4580  143.5610 C   0  0  0  0  0  0  0  0  0  0  0  0
  189.8630  178.0340  144.8200 N   0  0  0  0  0  2  0  0  0  0  0  0
  189.4870  176.4350  141.4350 C   0  0  0  0  0  3  0  0  0  0  0  0
  190.5590  176.9410  140.8180 C   0  0  0  0  0  0  0  0  0  0  0  0
  188.7510  177.6600  145.6400 C   0  0  0  0  0  0  0  0  0  0  0  0
  191.7320  177.3730  141.6590 C   0  0  0  0  0  2  0  0  0  0  0  0
  191.2750  177.9230  142.9380 N   0  0  0  0  0  0  0  0  0  0  0  0
  189.4380  176.3370  142.9350 C   0  0  0  0  0  2  0  0  0  0  0  0
  187.3590  177.8060  147.6700 C   0  0  0  0  0  2  0  0  0  0  0  0
  189.2040  178.2300  149.1240 C   0  0  0  0  0  2  0  0  0  0  0  0
  189.6790  178.4200  147.7550 N   0  0  0  0  0  2  0  0  0  0  0  0
  188.4970  178.4230  146.8980 C   0  0  1  0  0  3  0  0  0  0  0  0
  187.6940  178.1110  149.1010 C   0  0  0  0  0  2  0  0  0  0  0  0
  189.9330  177.2810  137.0970 C   0  0  0  0  0  2  0  0  0  0  0  0
  190.3000  175.9830  136.7410 O   0  0  0  0  0  0  0  0  0  0  0  0
  189.2900  175.5400  135.8770 C   0  0  2  0  0  3  0  0  0  0  0  0
  189.0810  173.3430  134.8810 O   0  0  0  0  0  1  0  0  0  0  0  0
  189.8430  174.5150  134.8760 C   0  0  2  0  0  3  0  0  0  0  0  0
  191.3070  174.2040  135.1520 C   0  0  0  0  0  2  0  0  0  0  0  0
  191.5070  172.7700  135.2930 N   0  0  0  0  0  2  0  0  0  0  0  0
  192.8530  170.8820  135.2540 O   0  0  0  0  0  0  0  0  0  0  0  0
  192.7480  172.1150  135.0210 C   0  0  0  0  0  0  0  0  0  0  0  0
  193.9190  172.8680  134.4790 C   0  0  0  0  0  2  0  0  0  0  0  0
  196.9490  174.0230  136.7790 P   0  0  1  0  0  0  0  0  0  0  0  0
  194.4440  173.3600  136.8050 N   0  0  0  0  0  0  0  0  0  0  0  0
  197.5430  175.6090  136.7770 O   0  0  0  0  0  0  0  0  0  0  0  0
  194.8460  173.2860  135.5710 C   0  0  0  0  0  0  0  0  0  0  0  0
  195.4570  173.7830  137.7720 C   0  0  2  0  0  3  0  0  0  0  0  0
  196.1690  173.6310  135.3230 O   0  0  0  0  0  0  0  0  0  0  0  0
  198.0270  173.0130  137.1170 O   0  0  0  0  0  1  0  0  0  0  0  0
  194.2510  175.9810  137.7580 O   0  0  0  0  0  0  0  0  0  0  0  0
  195.4190  175.3040  139.6070 O   0  0  0  0  0  1  0  0  0  0  0  0
  195.0410  175.0590  138.4320 C   0  0  0  0  0  0  0  0  0  0  0  0
  189.4610  177.4580  134.4460 O   0  0  0  0  0  1  0  0  0  0  0  0
  188.5620  176.7170  135.2180 C   0  0  1  0  0  3  0  0  0  0  0  0
  187.3890  176.2670  134.3560 C   0  0  0  0  0  2  0  0  0  0  0  0
  186.1910  176.6840  134.9400 O   0  0  0  0  0  0  0  0  0  0  0  0
  185.3800  174.6070  135.8030 C   0  0  0  0  0  1  0  0  0  0  0  0
  185.2910  175.6440  134.6940 C   0  0  0  0  0  2  0  0  0  0  0  0
  188.2980  177.7480  139.0300 C   0  0  0  0  0  2  0  0  0  0  0  0
  187.3470  177.9050  137.8590 C   0  0  0  0  0  2  0  0  0  0  0  0
  186.0130  178.4320  138.3580 C   0  0  0  0  0  2  0  0  0  0  0  0
  184.9360  177.3730  138.2070 C   0  0  0  0  0  2  0  0  0  0  0  0
  183.7510  177.9510  137.4500 C   0  0  0  0  0  2  0  0  0  0  0  0
  182.9570  178.8860  138.3490 C   0  0  1  0  0  3  0  0  0  0  0  0
  182.1990  178.8740  140.4890 C   0  0  2  0  0  3  0  0  0  0  0  0
  181.5110  178.5740  138.2400 C   0  0  0  0  0  0  0  0  0  0  0  0
  180.7780  178.0150  139.7350 S   0  0  0  0  0  0  0  0  0  0  0  0
  183.3480  178.6980  139.6900 O   0  0  0  0  0  0  0  0  0  0  0  0
  180.8550  178.8330  137.2460 O   0  0  0  0  0  0  0  0  0  0  0  0
  182.6860  179.1660  144.2090 C   0  0  0  0  0  2  0  0  0  0  0  0
  184.1910  179.4460  144.1340 C   0  0  0  0  0  2  0  0  0  0  0  0
  184.7710  179.0900  142.7570 C   0  0  0  0  0  2  0  0  0  0  0  0
  183.9540  177.9980  142.0710 C   0  0  0  0  0  2  0  0  0  0  0  0
  182.0420  179.4220  142.9210 N   0  0  0  0  0  0  0  0  0  0  0  0
  182.4750  178.4140  141.9270 C   0  0  1  0  0  3  0  0  0  0  0  0
  180.3810  177.9160  143.5550 O   0  0  0  0  0  1  0  0  0  0  0  0
  180.6180  179.2290  143.1450 C   0  0  0  0  0  2  0  0  0  0  0  0
  1  7  1  0  0  0  0
  2 43  1  0  0  0  0
  2  1  2  0  0  0  0
  3  8  2  0  0  0  0
  4  5  1  0  0  0  0
  5  8  1  0  0  0  0
  6 11  1  0  0  0  0
  7  6  2  0  0  0  0
  7  9  1  0  0  0  0
  9 10  1  0  0  0  0
 10  4  2  0  0  0  0
 11  4  1  0  0  0  0
 12 16  1  0  0  0  0
 14 13  1  0  0  0  0
 15  8  1  6  0  0  0
 15 12  1  0  0  0  0
 15 14  1  0  0  0  0
 16 13  1  0  0  0  0
 17  2  1  0  0  0  0
 18 17  1  0  0  0  0
 19 18  1  6  0  0  0
 21 20  1  1  0  0  0
 21 22  1  0  0  0  0
 21 19  1  0  0  0  0
 22 23  1  0  0  0  0
 25 24  2  0  0  0  0
 25 23  1  0  0  0  0
 26 25  1  0  0  0  0
 26 30  1  0  0  0  0
 27 29  2  1  0  0  0
 27 33  1  0  0  0  0
 27 31  1  0  0  0  0
 28 31  1  0  0  0  0
 30 28  2  0  0  0  0
 31 36  1  6  0  0  0
 32 30  1  0  0  0  0
 32 27  1  0  0  0  0
 34 36  2  0  0  0  0
 36 35  1  0  0  0  0
 38 37  1  6  0  0  0
 38 19  1  0  0  0  0
 39 40  1  0  0  0  0
 39 38  1  0  0  0  0
 42 40  1  0  0  0  0
 42 41  1  0  0  0  0
 44 45  1  0  0  0  0
 44 43  1  0  0  0  0
 46 45  1  0  0  0  0
 47 46  1  0  0  0  0
 48 47  1  6  0  0  0
 48 52  1  0  0  0  0
 49 52  1  6  0  0  0
 49 59  1  0  0  0  0
 50 48  1  0  0  0  0
 50 51  1  0  0  0  0
 51 49  1  0  0  0  0
 53 50  2  0  0  0  0
 55 54  1  0  0  0  0
 56 55  1  0  0  0  0
 57 56  1  0  0  0  0
 58 61  1  0  0  0  0
 58 54  1  0  0  0  0
 59 57  1  6  0  0  0
 59 58  1  0  0  0  0
 61 60  1  0  0  0  0
M  END
>  <MODEL>
8

>  <REMARK>
 VINA RESULT:      -5.5      3.207      9.529
  Name = 
  23 active torsions:
  status: ('A' for Active; 'I' for Inactive)
    1  A    between atoms: N_3  and  C_24
    2  A    between atoms: C_4  and  C_54
    3  A    between atoms: N_6  and  C_28
    4  A    between atoms: C_9  and  C_46
    5  A    between atoms: C_11  and  C_47
    6  A    between atoms: C_11  and  C_60
    7  A    between atoms: C_12  and  O_32
    8  A    between atoms: C_12  and  C_39
    9  A    between atoms: C_19  and  C_45
   10  A    between atoms: C_19  and  C_47
   11  A    between atoms: C_20  and  C_38
   12  A    between atoms: C_20  and  C_55
   13  A    between atoms: C_21  and  N_40
   14  A    between atoms: C_23  and  O_32
   15  A    between atoms: C_24  and  C_36
   16  A    between atoms: O_25  and  C_31
   17  A    between atoms: O_25  and  C_42
   18  A    between atoms: C_31  and  C_36
   19  A    between atoms: C_31  and  C_39
   20  A    between atoms: C_34  and  C_58
   21  A    between atoms: C_42  and  C_45
   22  A    between atoms: C_48  and  C_61
   23  A    between atoms: C_54  and  C_60
                            x       y       z     vdW  Elec       q    Type
                         _______ _______ _______ _____ _____    ______ ____

>  <TORSDO>
F 23

$$$$
=
 OpenBabel10232407503D

 61 65  0  0  1  0  0  0  0  0999 V2000
  191.2560  175.8770  135.6420 N   0  0  0  0  0  0  0  0  0  0  0  0
  190.7310  176.0970  136.8100 C   0  0  0  0  0  0  0  0  0  0  0  0
  196.8170  172.5650  135.9160 O   0  0  0  0  0  0  0  0  0  0  0  0
  195.3920  175.0680  135.3090 C   0  0  0  0  0  0  0  0  0  0  0  0
  196.7650  174.9020  135.6820 N   0  0  0  0  0  2  0  0  0  0  0  0
  193.0530  174.3030  135.5580 C   0  0  0  0  0  3  0  0  0  0  0  0
  192.6240  175.5490  135.3370 C   0  0  0  0  0  0  0  0  0  0  0  0
  197.4290  173.6680  135.9770 C   0  0  0  0  0  0  0  0  0  0  0  0
  193.5600  176.5220  134.6700 C   0  0  0  0  0  2  0  0  0  0  0  0
  194.9450  176.2690  135.0800 N   0  0  0  0  0  0  0  0  0  0  0  0
  194.4520  173.8950  135.1860 C   0  0  0  0  0  2  0  0  0  0  0  0
  198.9910  174.3760  137.7500 C   0  0  0  0  0  2  0  0  0  0  0  0
  200.2300  172.3360  137.7230 C   0  0  0  0  0  2  0  0  0  0  0  0
  199.4030  172.3560  136.5180 N   0  0  0  0  0  2  0  0  0  0  0  0
  198.8580  173.7050  136.4060 C   0  0  1  0  0  3  0  0  0  0  0  0
  200.1860  173.7080  138.3630 C   0  0  0  0  0  2  0  0  0  0  0  0
  189.2830  176.4500  136.8820 C   0  0  0  0  0  2  0  0  0  0  0  0
  188.9300  177.2040  135.7630 O   0  0  0  0  0  0  0  0  0  0  0  0
  187.5370  177.3410  135.8370 C   0  0  2  0  0  3  0  0  0  0  0  0
  188.2860  179.2340  137.1480 O   0  0  0  0  0  1  0  0  0  0  0  0
  187.1550  178.5180  136.7460 C   0  0  2  0  0  3  0  0  0  0  0  0
  186.3590  178.0480  137.9560 C   0  0  0  0  0  2  0  0  0  0  0  0
  185.5310  179.1260  138.4720 N   0  0  0  0  0  2  0  0  0  0  0  0
  183.8320  179.9230  139.8360 O   0  0  0  0  0  0  0  0  0  0  0  0
  184.4390  178.9220  139.3730 C   0  0  0  0  0  0  0  0  0  0  0  0
  184.0190  177.5470  139.7810 C   0  0  0  0  0  2  0  0  0  0  0  0
  181.5770  176.6970  136.7610 P   0  0  1  0  0  0  0  0  0  0  0  0
  182.5830  175.7620  138.9590 N   0  0  0  0  0  0  0  0  0  0  0  0
  182.1410  176.3540  135.2010 O   0  0  0  0  0  0  0  0  0  0  0  0
  183.0710  176.9550  138.7920 C   0  0  0  0  0  0  0  0  0  0  0  0
  181.6670  175.3060  137.9130 C   0  0  2  0  0  3  0  0  0  0  0  0
  182.6800  177.6360  137.6460 O   0  0  0  0  0  0  0  0  0  0  0  0
  180.2020  177.3320  136.7410 O   0  0  0  0  0  1  0  0  0  0  0  0
  181.3960  173.2820  136.4590 O   0  0  0  0  0  0  0  0  0  0  0  0
  183.4260  173.7840  137.3920 O   0  0  0  0  0  1  0  0  0  0  0  0
  182.2140  174.0870  137.2400 C   0  0  0  0  0  0  0  0  0  0  0  0
  185.5090  176.2310  136.4760 O   0  0  0  0  0  1  0  0  0  0  0  0
  186.8660  176.0170  136.2230 C   0  0  1  0  0  3  0  0  0  0  0  0
  187.0300  174.9480  135.1500 C   0  0  0  0  0  2  0  0  0  0  0  0
  186.5790  173.7200  135.6390 O   0  0  0  0  0  0  0  0  0  0  0  0
  188.2700  172.2790  136.5220 C   0  0  0  0  0  1  0  0  0  0  0  0
  187.3620  173.4740  136.7690 C   0  0  0  0  0  2  0  0  0  0  0  0
  191.4950  175.9160  138.0860 C   0  0  0  0  0  2  0  0  0  0  0  0
  190.5880  176.0800  139.2910 C   0  0  0  0  0  2  0  0  0  0  0  0
  190.8180  177.4450  139.9150 C   0  0  0  0  0  2  0  0  0  0  0  0
  189.9500  177.6150  141.1480 C   0  0  0  0  0  2  0  0  0  0  0  0
  190.6800  177.0760  142.3680 C   0  0  0  0  0  2  0  0  0  0  0  0
  189.6830  176.5490  143.3870 C   0  0  1  0  0  3  0  0  0  0  0  0
  188.0050  177.4040  144.6550 C   0  0  2  0  0  3  0  0  0  0  0  0
  190.2560  176.6660  144.7510 C   0  0  0  0  0  0  0  0  0  0  0  0
  189.3680  177.7430  145.8170 S   0  0  0  0  0  0  0  0  0  0  0  0
  188.5040  177.3180  143.3380 O   0  0  0  0  0  0  0  0  0  0  0  0
  191.1650  175.9570  145.1460 O   0  0  0  0  0  0  0  0  0  0  0  0
  184.6080  178.8230  145.4360 C   0  0  0  0  0  2  0  0  0  0  0  0
  183.9720  178.4120  144.1030 C   0  0  0  0  0  2  0  0  0  0  0  0
  185.0310  178.0410  143.0540 C   0  0  0  0  0  2  0  0  0  0  0  0
  186.3540  178.7580  143.3160 C   0  0  0  0  0  2  0  0  0  0  0  0
  185.8280  178.0570  145.6900 N   0  0  0  0  0  0  0  0  0  0  0  0
  186.8850  178.4500  144.7320 C   0  0  1  0  0  3  0  0  0  0  0  0
  185.6620  179.6550  147.3790 O   0  0  0  0  0  1  0  0  0  0  0  0
  186.2730  178.4530  147.0170 C   0  0  0  0  0  2  0  0  0  0  0  0
  1  2  2  0  0  0  0
  2 17  1  0  0  0  0
  2 43  1  0  0  0  0
  3  8  2  0  0  0  0
  4  5  1  0  0  0  0
  5  8  1  0  0  0  0
  7  6  2  0  0  0  0
  7  1  1  0  0  0  0
  9 10  1  0  0  0  0
  9  7  1  0  0  0  0
 10  4  2  0  0  0  0
 11  4  1  0  0  0  0
 11  6  1  0  0  0  0
 12 16  1  0  0  0  0
 13 16  1  0  0  0  0
 14 13  1  0  0  0  0
 15  8  1  1  0  0  0
 15 14  1  0  0  0  0
 15 12  1  0  0  0  0
 18 17  1  0  0  0  0
 19 18  1  1  0  0  0
 19 38  1  0  0  0  0
 19 21  1  0  0  0  0
 21 20  1  1  0  0  0
 21 22  1  0  0  0  0
 22 23  1  0  0  0  0
 23 25  1  0  0  0  0
 25 26  1  0  0  0  0
 25 24  2  0  0  0  0
 27 29  2  6  0  0  0
 27 32  1  0  0  0  0
 27 31  1  0  0  0  0
 30 28  2  0  0  0  0
 30 26  1  0  0  0  0
 31 36  1  6  0  0  0
 31 28  1  0  0  0  0
 32 30  1  0  0  0  0
 33 27  1  0  0  0  0
 34 36  2  0  0  0  0
 36 35  1  0  0  0  0
 38 37  1  6  0  0  0
 39 40  1  0  0  0  0
 39 38  1  0  0  0  0
 40 42  1  0  0  0  0
 41 42  1  0  0  0  0
 43 44  1  0  0  0  0
 44 45  1  0  0  0  0
 45 46  1  0  0  0  0
 46 47  1  0  0  0  0
 48 47  1  6  0  0  0
 48 50  1  0  0  0  0
 49 52  1  6  0  0  0
 49 59  1  0  0  0  0
 49 51  1  0  0  0  0
 50 53  2  0  0  0  0
 50 51  1  0  0  0  0
 52 48  1  0  0  0  0
 54 58  1  0  0  0  0
 55 54  1  0  0  0  0
 56 57  1  0  0  0  0
 56 55  1  0  0  0  0
 58 61  1  0  0  0  0
 59 57  1  6  0  0  0
 59 58  1  0  0  0  0
 61 60  1  0  0  0  0
M  END
>  <MODEL>
9

>  <REMARK>
 VINA RESULT:      -5.3      3.580      8.785
  Name = 
  23 active torsions:
  status: ('A' for Active; 'I' for Inactive)
    1  A    between atoms: N_3  and  C_24
    2  A    between atoms: C_4  and  C_54
    3  A    between atoms: N_6  and  C_28
    4  A    between atoms: C_9  and  C_46
    5  A    between atoms: C_11  and  C_47
    6  A    between atoms: C_11  and  C_60
    7  A    between atoms: C_12  and  O_32
    8  A    between atoms: C_12  and  C_39
    9  A    between atoms: C_19  and  C_45
   10  A    between atoms: C_19  and  C_47
   11  A    between atoms: C_20  and  C_38
   12  A    between atoms: C_20  and  C_55
   13  A    between atoms: C_21  and  N_40
   14  A    between atoms: C_23  and  O_32
   15  A    between atoms: C_24  and  C_36
   16  A    between atoms: O_25  and  C_31
   17  A    between atoms: O_25  and  C_42
   18  A    between atoms: C_31  and  C_36
   19  A    between atoms: C_31  and  C_39
   20  A    between atoms: C_34  and  C_58
   21  A    between atoms: C_42  and  C_45
   22  A    between atoms: C_48  and  C_61
   23  A    between atoms: C_54  and  C_60
                            x       y       z     vdW  Elec       q    Type
                         _______ _______ _______ _____ _____    ______ ____

>  <TORSDO>
F 23

$$$$
