=
 OpenBabel10232409503D

 45 50  0  0  1  0  0  0  0  0999 V2000
  185.9980  178.0230  143.4330 C   0  0  0  0  0  2  0  0  0  0  0  0
  184.2100  179.4250  144.4720 C   0  0  0  0  0  2  0  0  0  0  0  0
  185.2020  178.2890  144.7130 C   0  0  2  0  0  3  0  0  0  0  0  0
  181.1810  179.1560  142.2650 C   0  0  0  0  0  0  0  0  0  0  0  0
  181.6260  178.3710  141.1570 N   0  0  0  0  0  2  0  0  0  0  0  0
  183.3250  179.0920  143.3110 C   0  0  0  0  0  0  0  0  0  0  0  0
  185.0900  177.7560  142.2640 C   0  0  0  0  0  3  0  0  0  0  0  0
  182.0910  179.4930  143.3150 N   0  0  0  0  0  0  0  0  0  0  0  0
  179.9820  179.5300  142.3290 O   0  0  0  0  0  0  0  0  0  0  0  0
  183.0400  178.0640  140.9420 C   0  0  2  0  0  3  0  0  0  0  0  0
  183.8640  178.2870  142.1840 C   0  0  0  0  0  0  0  0  0  0  0  0
  186.1300  178.6640  145.8570 C   0  0  0  0  0  2  0  0  0  0  0  0
  190.1410  177.2070  145.0550 C   0  0  0  0  0  2  0  0  0  0  0  0
  191.0030  175.9540  144.9350 C   0  0  0  0  0  2  0  0  0  0  0  0
  189.6840  177.3460  146.4340 N   0  0  0  0  0  0  0  0  0  0  0  0
  187.4560  178.1000  145.6440 N   0  0  0  0  0  2  0  0  0  0  0  0
  188.3730  177.8530  146.7150 C   0  0  0  0  0  0  0  0  0  0  0  0
  192.5790  175.9170  148.2530 N   0  0  0  0  0  1  0  0  0  0  0  0
  192.7940  174.8500  145.7380 O   0  0  0  0  0  1  0  0  0  0  0  0
  188.0200  178.0630  147.9080 O   0  0  0  0  0  0  0  0  0  0  0  0
  191.5170  175.9580  147.2600 C   0  0  1  0  0  3  0  0  0  0  0  0
  190.6630  177.2010  147.5060 C   0  0  0  0  0  2  0  0  0  0  0  0
  192.0920  175.9960  145.9100 N   0  0  0  0  0  0  0  0  0  0  0  0
  183.6040  178.8350  139.7400 C   0  0  1  0  0  3  0  0  0  0  0  0
  182.9270  180.0470  139.5670 O   0  0  0  0  0  0  0  0  0  0  0  0
  182.3550  179.9590  138.2960 C   0  0  0  0  0  2  0  0  0  0  0  0
  181.2400  180.9790  138.1550 C   0  0  2  0  0  3  0  0  0  0  0  0
  180.3880  180.7630  136.5720 S   0  0  0  0  0  0  0  0  0  0  0  0
  180.8760  183.1660  137.5680 N   0  0  0  0  0  2  0  0  0  0  0  0
  181.8030  182.3190  138.1940 N   0  0  0  0  0  2  0  0  0  0  0  0
  180.5320  182.5440  136.3020 C   0  0  0  0  0  2  0  0  0  0  0  0
  185.1190  179.0530  139.7960 C   0  0  0  0  0  2  0  0  0  0  0  0
  189.2660  178.0780  139.3610 N   0  0  0  0  0  2  0  0  0  0  0  0
  189.3440  177.4910  138.0330 C   0  0  2  0  0  3  0  0  0  0  0  0
  185.7840  178.4180  138.6670 N   0  0  0  0  0  2  0  0  0  0  0  0
  187.8990  177.5270  137.5220 C   0  0  0  0  0  2  0  0  0  0  0  0
  187.9550  178.4460  139.6550 N   0  0  0  0  0  0  0  0  0  0  0  0
  187.1860  178.1540  138.6660 C   0  0  0  0  0  0  0  0  0  0  0  0
  189.8280  176.0540  138.1400 C   0  0  0  0  0  2  0  0  0  0  0  0
  193.3690  175.3580  136.2950 N   0  0  0  0  0  2  0  0  0  0  0  0
  191.0410  175.8720  137.3590 N   0  0  0  0  0  0  0  0  0  0  0  0
  193.4670  176.3560  137.3620 C   0  0  0  0  0  2  0  0  0  0  0  0
  192.1150  176.5790  138.0580 C   0  0  0  0  0  2  0  0  0  0  0  0
  191.3380  174.4380  137.3680 C   0  0  0  0  0  2  0  0  0  0  0  0
  192.7470  174.1460  136.8270 C   0  0  0  0  0  2  0  0  0  0  0  0
  1  3  1  0  0  0  0
  2  3  1  0  0  0  0
  3 12  1  1  0  0  0
  4  9  2  0  0  0  0
  4  8  1  0  0  0  0
  5  4  1  0  0  0  0
  6  8  2  0  0  0  0
  6  2  1  0  0  0  0
  7  1  1  0  0  0  0
 10 24  1  6  0  0  0
 10  5  1  0  0  0  0
 10 11  1  0  0  0  0
 11  7  2  0  0  0  0
 11  6  1  0  0  0  0
 13 15  1  0  0  0  0
 14 13  1  0  0  0  0
 14 23  1  0  0  0  0
 15 17  1  0  0  0  0
 15 22  1  0  0  0  0
 16 12  1  0  0  0  0
 16 17  1  0  0  0  0
 17 20  2  0  0  0  0
 19 23  1  0  0  0  0
 21 22  1  0  0  0  0
 21 18  1  1  0  0  0
 23 21  1  0  0  0  0
 24 32  1  1  0  0  0
 25 24  1  0  0  0  0
 26 25  1  0  0  0  0
 27 30  1  0  0  0  0
 27 26  1  6  0  0  0
 28 27  1  0  0  0  0
 29 30  1  0  0  0  0
 31 28  1  0  0  0  0
 31 29  1  0  0  0  0
 33 37  1  0  0  0  0
 34 39  1  1  0  0  0
 34 33  1  0  0  0  0
 35 32  1  0  0  0  0
 36 34  1  0  0  0  0
 36 38  1  0  0  0  0
 38 35  1  0  0  0  0
 38 37  2  0  0  0  0
 40 45  1  0  0  0  0
 40 42  1  0  0  0  0
 41 44  1  0  0  0  0
 41 43  1  0  0  0  0
 41 39  1  0  0  0  0
 42 43  1  0  0  0  0
 45 44  1  0  0  0  0
M  END
>  <MODEL>
1

>  <REMARK>
 VINA RESULT:      -8.5      0.000      0.000
  Name = 
  10 active torsions:
  status: ('A' for Active; 'I' for Inactive)
    1  A    between atoms: C_5  and  C_40
    2  A    between atoms: C_7  and  C_21
    3  A    between atoms: N_10  and  C_21
    4  A    between atoms: C_13  and  N_17
    5  A    between atoms: C_13  and  C_26
    6  A    between atoms: C_22  and  C_44
    7  A    between atoms: O_25  and  C_40
    8  A    between atoms: O_25  and  C_44
    9  A    between atoms: N_27  and  C_32
   10  A    between atoms: C_32  and  C_44
                            x       y       z     vdW  Elec       q    Type
                         _______ _______ _______ _____ _____    ______ ____

>  <TORSDO>
F 10

$$$$
=
 OpenBabel10232409503D

 45 50  0  0  1  0  0  0  0  0999 V2000
  191.8410  175.8830  137.0980 C   0  0  0  0  0  2  0  0  0  0  0  0
  190.3840  173.8540  137.0020 C   0  0  0  0  0  2  0  0  0  0  0  0
  191.7550  174.4240  136.6410 C   0  0  2  0  0  3  0  0  0  0  0  0
  187.1660  174.8890  135.3640 C   0  0  0  0  0  0  0  0  0  0  0  0
  187.3080  176.2990  135.1750 N   0  0  0  0  0  2  0  0  0  0  0  0
  189.3060  174.7030  136.4020 C   0  0  0  0  0  0  0  0  0  0  0  0
  190.7110  176.7030  136.5390 C   0  0  0  0  0  3  0  0  0  0  0  0
  188.2070  174.1430  135.9990 N   0  0  0  0  0  0  0  0  0  0  0  0
  186.1340  174.3010  134.9500 O   0  0  0  0  0  0  0  0  0  0  0  0
  188.3950  177.0580  135.7930 C   0  0  2  0  0  3  0  0  0  0  0  0
  189.5180  176.1660  136.2570 C   0  0  0  0  0  0  0  0  0  0  0  0
  192.8390  173.5880  137.3020 C   0  0  0  0  0  2  0  0  0  0  0  0
  196.6650  175.2590  136.1100 C   0  0  0  0  0  2  0  0  0  0  0  0
  197.9780  174.9600  135.3930 C   0  0  0  0  0  2  0  0  0  0  0  0
  196.5770  174.4370  137.3130 N   0  0  0  0  0  0  0  0  0  0  0  0
  194.1590  174.0610  136.9070 N   0  0  0  0  0  2  0  0  0  0  0  0
  195.3160  173.9030  137.7350 C   0  0  0  0  0  0  0  0  0  0  0  0
  200.1550  174.2470  138.2650 N   0  0  0  0  0  1  0  0  0  0  0  0
  200.2180  174.8490  135.5910 O   0  0  0  0  0  1  0  0  0  0  0  0
  195.2290  173.2770  138.8270 O   0  0  0  0  0  0  0  0  0  0  0  0
  199.0020  174.1470  137.3820 C   0  0  1  0  0  3  0  0  0  0  0  0
  197.7350  174.3830  138.2010 C   0  0  0  0  0  2  0  0  0  0  0  0
  199.1050  175.1410  136.3070 N   0  0  0  0  0  0  0  0  0  0  0  0
  187.8780  177.9560  136.9260 C   0  0  1  0  0  3  0  0  0  0  0  0
  186.9590  177.2660  137.7240 O   0  0  0  0  0  0  0  0  0  0  0  0
  185.7100  177.7580  137.3380 C   0  0  0  0  0  2  0  0  0  0  0  0
  184.8250  177.9460  138.5570 C   0  0  2  0  0  3  0  0  0  0  0  0
  183.1050  178.2010  138.0510 S   0  0  0  0  0  0  0  0  0  0  0  0
  184.1720  179.5440  140.0670 N   0  0  0  0  0  2  0  0  0  0  0  0
  185.2650  179.1180  139.2960 N   0  0  0  0  0  2  0  0  0  0  0  0
  183.0330  179.6190  139.1680 C   0  0  0  0  0  2  0  0  0  0  0  0
  188.9860  178.5830  137.7780 C   0  0  0  0  0  2  0  0  0  0  0  0
  190.3320  176.3970  141.2060 N   0  0  0  0  0  2  0  0  0  0  0  0
  189.5490  176.9540  142.2970 C   0  0  2  0  0  3  0  0  0  0  0  0
  188.5640  178.7280  139.1640 N   0  0  0  0  0  2  0  0  0  0  0  0
  188.6840  178.0280  141.6290 C   0  0  0  0  0  2  0  0  0  0  0  0
  190.0050  177.0230  140.0040 N   0  0  0  0  0  0  0  0  0  0  0  0
  189.1070  177.9200  140.2070 C   0  0  0  0  0  0  0  0  0  0  0  0
  190.4800  177.5880  143.3180 C   0  0  0  0  0  2  0  0  0  0  0  0
  189.8080  176.5370  147.1750 N   0  0  0  0  0  2  0  0  0  0  0  0
  190.1890  177.0810  144.6490 N   0  0  0  0  0  0  0  0  0  0  0  0
  191.2330  176.6200  146.8440 C   0  0  0  0  0  2  0  0  0  0  0  0
  191.4550  177.0450  145.3840 C   0  0  0  0  0  2  0  0  0  0  0  0
  189.3020  178.0560  145.2870 C   0  0  0  0  0  2  0  0  0  0  0  0
  189.1540  177.7880  146.7940 C   0  0  0  0  0  2  0  0  0  0  0  0
  3  2  1  0  0  0  0
  3  1  1  0  0  0  0
  3 12  1  1  0  0  0
  4  8  1  0  0  0  0
  5  4  1  0  0  0  0
  5 10  1  0  0  0  0
  6  2  1  0  0  0  0
  7  1  1  0  0  0  0
  8  6  2  0  0  0  0
  9  4  2  0  0  0  0
 10 11  1  0  0  0  0
 10 24  1  1  0  0  0
 11  6  1  0  0  0  0
 11  7  2  0  0  0  0
 13 15  1  0  0  0  0
 14 13  1  0  0  0  0
 14 23  1  0  0  0  0
 15 17  1  0  0  0  0
 15 22  1  0  0  0  0
 16 12  1  0  0  0  0
 16 17  1  0  0  0  0
 17 20  2  0  0  0  0
 19 23  1  0  0  0  0
 21 22  1  0  0  0  0
 21 18  1  1  0  0  0
 23 21  1  0  0  0  0
 24 25  1  0  0  0  0
 24 32  1  1  0  0  0
 26 25  1  0  0  0  0
 27 26  1  6  0  0  0
 27 30  1  0  0  0  0
 28 27  1  0  0  0  0
 28 31  1  0  0  0  0
 30 29  1  0  0  0  0
 31 29  1  0  0  0  0
 32 35  1  0  0  0  0
 33 34  1  0  0  0  0
 34 39  1  1  0  0  0
 35 38  1  0  0  0  0
 36 34  1  0  0  0  0
 37 38  2  0  0  0  0
 37 33  1  0  0  0  0
 38 36  1  0  0  0  0
 39 41  1  0  0  0  0
 41 44  1  0  0  0  0
 41 43  1  0  0  0  0
 42 40  1  0  0  0  0
 43 42  1  0  0  0  0
 44 45  1  0  0  0  0
 45 40  1  0  0  0  0
M  END
>  <MODEL>
2

>  <REMARK>
 VINA RESULT:      -8.4      3.811      8.980
  Name = 
  10 active torsions:
  status: ('A' for Active; 'I' for Inactive)
    1  A    between atoms: C_5  and  C_40
    2  A    between atoms: C_7  and  C_21
    3  A    between atoms: N_10  and  C_21
    4  A    between atoms: C_13  and  N_17
    5  A    between atoms: C_13  and  C_26
    6  A    between atoms: C_22  and  C_44
    7  A    between atoms: O_25  and  C_40
    8  A    between atoms: O_25  and  C_44
    9  A    between atoms: N_27  and  C_32
   10  A    between atoms: C_32  and  C_44
                            x       y       z     vdW  Elec       q    Type
                         _______ _______ _______ _____ _____    ______ ____

>  <TORSDO>
F 10

$$$$
=
 OpenBabel10232409503D

 45 50  0  0  1  0  0  0  0  0999 V2000
  192.2820  176.0380  134.9840 C   0  0  0  0  0  2  0  0  0  0  0  0
  192.1250  173.8600  136.2000 C   0  0  0  0  0  2  0  0  0  0  0  0
  192.6550  174.5540  134.9460 C   0  0  2  0  0  3  0  0  0  0  0  0
  188.4840  173.2550  136.9020 C   0  0  0  0  0  0  0  0  0  0  0  0
  187.8370  174.4400  136.4330 N   0  0  0  0  0  2  0  0  0  0  0  0
  190.6470  174.0730  136.3130 C   0  0  0  0  0  0  0  0  0  0  0  0
  190.8020  176.2310  135.1660 C   0  0  0  0  0  3  0  0  0  0  0  0
  189.9070  173.1370  136.8220 N   0  0  0  0  0  0  0  0  0  0  0  0
  187.8000  172.3070  137.3640 O   0  0  0  0  0  0  0  0  0  0  0  0
  188.5890  175.6380  136.0570 C   0  0  2  0  0  3  0  0  0  0  0  0
  190.0470  175.3410  135.8210 C   0  0  0  0  0  0  0  0  0  0  0  0
  194.1630  174.3790  134.8720 C   0  0  0  0  0  2  0  0  0  0  0  0
  195.7800  174.1460  138.8950 C   0  0  0  0  0  2  0  0  0  0  0  0
  196.2080  174.9670  140.1080 C   0  0  0  0  0  2  0  0  0  0  0  0
  196.6660  174.4450  137.7750 N   0  0  0  0  0  0  0  0  0  0  0  0
  194.7440  174.3870  136.2080 N   0  0  0  0  0  2  0  0  0  0  0  0
  196.1520  174.4970  136.4390 C   0  0  0  0  0  0  0  0  0  0  0  0
  199.8410  175.0860  139.5780 N   0  0  0  0  0  1  0  0  0  0  0  0
  197.9120  175.5010  141.4800 O   0  0  0  0  0  1  0  0  0  0  0  0
  196.9390  174.6590  135.4650 O   0  0  0  0  0  0  0  0  0  0  0  0
  198.4240  175.2300  139.2800 C   0  0  1  0  0  3  0  0  0  0  0  0
  198.1070  174.4400  138.0120 C   0  0  0  0  0  2  0  0  0  0  0  0
  197.6210  174.7320  140.4030 N   0  0  0  0  0  0  0  0  0  0  0  0
  188.3970  176.7640  137.0820 C   0  0  1  0  0  3  0  0  0  0  0  0
  187.0780  176.7900  137.5480 O   0  0  0  0  0  0  0  0  0  0  0  0
  186.3970  177.6150  136.6500 C   0  0  0  0  0  2  0  0  0  0  0  0
  184.9160  177.2840  136.6590 C   0  0  2  0  0  3  0  0  0  0  0  0
  184.1400  177.9240  138.1660 S   0  0  0  0  0  0  0  0  0  0  0  0
  183.4650  175.5760  137.1480 N   0  0  0  0  0  2  0  0  0  0  0  0
  184.7430  175.8410  136.6320 N   0  0  0  0  0  2  0  0  0  0  0  0
  183.3590  176.3110  138.3960 C   0  0  0  0  0  2  0  0  0  0  0  0
  189.3920  176.7230  138.2460 C   0  0  0  0  0  2  0  0  0  0  0  0
  190.4420  176.2110  142.3660 N   0  0  0  0  0  2  0  0  0  0  0  0
  189.5960  177.1690  143.0570 C   0  0  2  0  0  3  0  0  0  0  0  0
  188.8760  177.4370  139.4040 N   0  0  0  0  0  2  0  0  0  0  0  0
  188.8040  177.8500  141.9350 C   0  0  0  0  0  2  0  0  0  0  0  0
  190.2160  176.2640  140.9920 N   0  0  0  0  0  0  0  0  0  0  0  0
  189.3250  177.1540  140.7290 C   0  0  0  0  0  0  0  0  0  0  0  0
  190.4650  178.1860  143.7790 C   0  0  0  0  0  2  0  0  0  0  0  0
  190.1810  177.2690  147.7170 N   0  0  0  0  0  2  0  0  0  0  0  0
  190.3660  178.0040  145.2180 N   0  0  0  0  0  0  0  0  0  0  0  0
  188.9550  176.9750  146.9710 C   0  0  0  0  0  2  0  0  0  0  0  0
  189.1030  177.3100  145.4780 C   0  0  0  0  0  2  0  0  0  0  0  0
  191.4730  177.1290  145.6100 C   0  0  0  0  0  2  0  0  0  0  0  0
  191.3130  176.6230  147.0530 C   0  0  0  0  0  2  0  0  0  0  0  0
  1  7  1  0  0  0  0
  2  6  1  0  0  0  0
  3 12  1  1  0  0  0
  3  1  1  0  0  0  0
  3  2  1  0  0  0  0
  4  9  2  0  0  0  0
  5  4  1  0  0  0  0
  6  8  2  0  0  0  0
  7 11  2  0  0  0  0
  8  4  1  0  0  0  0
 10  5  1  0  0  0  0
 10 24  1  1  0  0  0
 11 10  1  0  0  0  0
 11  6  1  0  0  0  0
 12 16  1  0  0  0  0
 13 14  1  0  0  0  0
 14 23  1  0  0  0  0
 15 22  1  0  0  0  0
 15 13  1  0  0  0  0
 16 17  1  0  0  0  0
 17 15  1  0  0  0  0
 20 17  2  0  0  0  0
 21 18  1  1  0  0  0
 21 23  1  0  0  0  0
 22 21  1  0  0  0  0
 23 19  1  0  0  0  0
 24 25  1  0  0  0  0
 24 32  1  1  0  0  0
 26 25  1  0  0  0  0
 27 26  1  1  0  0  0
 27 28  1  0  0  0  0
 28 31  1  0  0  0  0
 29 31  1  0  0  0  0
 30 27  1  0  0  0  0
 30 29  1  0  0  0  0
 32 35  1  0  0  0  0
 33 34  1  0  0  0  0
 34 39  1  6  0  0  0
 35 38  1  0  0  0  0
 36 34  1  0  0  0  0
 37 33  1  0  0  0  0
 38 37  2  0  0  0  0
 38 36  1  0  0  0  0
 39 41  1  0  0  0  0
 41 43  1  0  0  0  0
 41 44  1  0  0  0  0
 42 40  1  0  0  0  0
 43 42  1  0  0  0  0
 44 45  1  0  0  0  0
 45 40  1  0  0  0  0
M  END
>  <MODEL>
3

>  <REMARK>
 VINA RESULT:      -8.2      4.340      9.273
  Name = 
  10 active torsions:
  status: ('A' for Active; 'I' for Inactive)
    1  A    between atoms: C_5  and  C_40
    2  A    between atoms: C_7  and  C_21
    3  A    between atoms: N_10  and  C_21
    4  A    between atoms: C_13  and  N_17
    5  A    between atoms: C_13  and  C_26
    6  A    between atoms: C_22  and  C_44
    7  A    between atoms: O_25  and  C_40
    8  A    between atoms: O_25  and  C_44
    9  A    between atoms: N_27  and  C_32
   10  A    between atoms: C_32  and  C_44
                            x       y       z     vdW  Elec       q    Type
                         _______ _______ _______ _____ _____    ______ ____

>  <TORSDO>
F 10

$$$$
=
 OpenBabel10232409503D

 45 50  0  0  1  0  0  0  0  0999 V2000
  186.1270  178.2030  143.4210 C   0  0  0  0  0  2  0  0  0  0  0  0
  184.2400  179.2650  144.6690 C   0  0  0  0  0  2  0  0  0  0  0  0
  185.3310  178.1980  144.7290 C   0  0  2  0  0  3  0  0  0  0  0  0
  181.2110  179.0700  142.4550 C   0  0  0  0  0  0  0  0  0  0  0  0
  181.7040  178.5070  141.2380 N   0  0  0  0  0  2  0  0  0  0  0  0
  183.3690  179.0360  143.4720 C   0  0  0  0  0  0  0  0  0  0  0  0
  185.2270  178.0400  142.2270 C   0  0  0  0  0  3  0  0  0  0  0  0
  182.1050  179.3220  143.5420 N   0  0  0  0  0  0  0  0  0  0  0  0
  179.9850  179.3220  142.5790 O   0  0  0  0  0  0  0  0  0  0  0  0
  183.1360  178.3630  140.9740 C   0  0  2  0  0  3  0  0  0  0  0  0
  183.9580  178.4660  142.2330 C   0  0  0  0  0  0  0  0  0  0  0  0
  186.2420  178.4740  145.9140 C   0  0  0  0  0  2  0  0  0  0  0  0
  190.2430  177.0200  145.0570 C   0  0  0  0  0  2  0  0  0  0  0  0
  191.1040  175.7680  144.9260 C   0  0  0  0  0  2  0  0  0  0  0  0
  189.8050  177.1600  146.4420 N   0  0  0  0  0  0  0  0  0  0  0  0
  187.5650  177.9110  145.6830 N   0  0  0  0  0  2  0  0  0  0  0  0
  188.4980  177.6650  146.7410 C   0  0  0  0  0  0  0  0  0  0  0  0
  192.7280  175.7360  148.2210 N   0  0  0  0  0  1  0  0  0  0  0  0
  192.9080  174.6670  145.7040 O   0  0  0  0  0  1  0  0  0  0  0  0
  188.1610  177.8770  147.9380 O   0  0  0  0  0  0  0  0  0  0  0  0
  191.6520  175.7750  147.2430 C   0  0  1  0  0  3  0  0  0  0  0  0
  190.8000  177.0170  147.5000 C   0  0  0  0  0  2  0  0  0  0  0  0
  192.2080  175.8120  145.8850 N   0  0  0  0  0  0  0  0  0  0  0  0
  183.6110  179.3570  139.9040 C   0  0  1  0  0  3  0  0  0  0  0  0
  185.0060  179.3410  139.7970 O   0  0  0  0  0  0  0  0  0  0  0  0
  185.2760  178.4200  138.7820 C   0  0  0  0  0  2  0  0  0  0  0  0
  186.7450  178.4810  138.4030 C   0  0  2  0  0  3  0  0  0  0  0  0
  187.1780  177.0770  137.3440 S   0  0  0  0  0  0  0  0  0  0  0  0
  188.8280  177.9660  139.2140 N   0  0  0  0  0  2  0  0  0  0  0  0
  187.5580  178.4170  139.6060 N   0  0  0  0  0  2  0  0  0  0  0  0
  188.6160  176.7820  138.3990 C   0  0  0  0  0  2  0  0  0  0  0  0
  182.9520  179.1610  138.5360 C   0  0  0  0  0  2  0  0  0  0  0  0
  181.9820  177.0150  134.9590 N   0  0  0  0  0  2  0  0  0  0  0  0
  181.4420  175.7570  135.4490 C   0  0  2  0  0  3  0  0  0  0  0  0
  182.3920  177.8220  138.4090 N   0  0  0  0  0  2  0  0  0  0  0  0
  181.5300  175.8790  136.9740 C   0  0  0  0  0  2  0  0  0  0  0  0
  182.3550  177.8320  136.0240 N   0  0  0  0  0  0  0  0  0  0  0  0
  182.1200  177.2340  137.1380 C   0  0  0  0  0  0  0  0  0  0  0  0
  182.3100  174.6070  134.9620 C   0  0  0  0  0  2  0  0  0  0  0  0
  184.8520  173.0190  137.6910 N   0  0  0  0  0  2  0  0  0  0  0  0
  183.1490  174.1160  136.0440 N   0  0  0  0  0  0  0  0  0  0  0  0
  183.9160  172.0360  137.1410 C   0  0  0  0  0  2  0  0  0  0  0  0
  182.9830  172.6630  136.0930 C   0  0  0  0  0  2  0  0  0  0  0  0
  184.5330  174.4210  135.6760 C   0  0  0  0  0  2  0  0  0  0  0  0
  185.5360  173.6980  136.5900 C   0  0  0  0  0  2  0  0  0  0  0  0
  1  3  1  0  0  0  0
  2  3  1  0  0  0  0
  3 12  1  1  0  0  0
  4  9  2  0  0  0  0
  4  8  1  0  0  0  0
  5  4  1  0  0  0  0
  6  8  2  0  0  0  0
  6  2  1  0  0  0  0
  7 11  2  0  0  0  0
  7  1  1  0  0  0  0
 10 24  1  6  0  0  0
 10  5  1  0  0  0  0
 10 11  1  0  0  0  0
 11  6  1  0  0  0  0
 13 15  1  0  0  0  0
 14 13  1  0  0  0  0
 14 23  1  0  0  0  0
 15 17  1  0  0  0  0
 15 22  1  0  0  0  0
 16 12  1  0  0  0  0
 16 17  1  0  0  0  0
 17 20  2  0  0  0  0
 19 23  1  0  0  0  0
 21 22  1  0  0  0  0
 21 18  1  1  0  0  0
 23 21  1  0  0  0  0
 24 32  1  6  0  0  0
 25 24  1  0  0  0  0
 26 25  1  0  0  0  0
 27 26  1  1  0  0  0
 27 30  1  0  0  0  0
 28 31  1  0  0  0  0
 28 27  1  0  0  0  0
 29 30  1  0  0  0  0
 31 29  1  0  0  0  0
 33 34  1  0  0  0  0
 33 37  1  0  0  0  0
 34 39  1  6  0  0  0
 34 36  1  0  0  0  0
 35 32  1  0  0  0  0
 36 38  1  0  0  0  0
 37 38  2  0  0  0  0
 38 35  1  0  0  0  0
 39 41  1  0  0  0  0
 41 43  1  0  0  0  0
 42 40  1  0  0  0  0
 43 42  1  0  0  0  0
 44 41  1  0  0  0  0
 44 45  1  0  0  0  0
 45 40  1  0  0  0  0
M  END
>  <MODEL>
4

>  <REMARK>
 VINA RESULT:      -8.1      3.084      5.103
  Name = 
  10 active torsions:
  status: ('A' for Active; 'I' for Inactive)
    1  A    between atoms: C_5  and  C_40
    2  A    between atoms: C_7  and  C_21
    3  A    between atoms: N_10  and  C_21
    4  A    between atoms: C_13  and  N_17
    5  A    between atoms: C_13  and  C_26
    6  A    between atoms: C_22  and  C_44
    7  A    between atoms: O_25  and  C_40
    8  A    between atoms: O_25  and  C_44
    9  A    between atoms: N_27  and  C_32
   10  A    between atoms: C_32  and  C_44
                            x       y       z     vdW  Elec       q    Type
                         _______ _______ _______ _____ _____    ______ ____

>  <TORSDO>
F 10

$$$$
=
 OpenBabel10232409503D

 45 50  0  0  1  0  0  0  0  0999 V2000
  190.1800  174.2130  137.3700 C   0  0  0  0  0  2  0  0  0  0  0  0
  188.1000  175.0380  136.2580 C   0  0  0  0  0  2  0  0  0  0  0  0
  189.4350  174.3310  136.0380 C   0  0  2  0  0  3  0  0  0  0  0  0
  187.7520  178.6740  137.1390 C   0  0  0  0  0  0  0  0  0  0  0  0
  188.8290  178.9180  138.0460 N   0  0  0  0  0  2  0  0  0  0  0  0
  188.3290  176.3710  136.9020 C   0  0  0  0  0  0  0  0  0  0  0  0
  190.3410  175.5530  138.0330 C   0  0  0  0  0  3  0  0  0  0  0  0
  187.5480  177.3640  136.6040 N   0  0  0  0  0  0  0  0  0  0  0  0
  186.9970  179.6180  136.7920 O   0  0  0  0  0  0  0  0  0  0  0  0
  189.6210  177.8300  138.6200 C   0  0  2  0  0  3  0  0  0  0  0  0
  189.4590  176.5430  137.8520 C   0  0  0  0  0  0  0  0  0  0  0  0
  189.1860  172.9580  135.4360 C   0  0  0  0  0  2  0  0  0  0  0  0
  184.9380  172.3370  134.7860 C   0  0  0  0  0  2  0  0  0  0  0  0
  183.5830  172.2220  135.4760 C   0  0  0  0  0  2  0  0  0  0  0  0
  185.7800  171.2150  135.1890 N   0  0  0  0  0  0  0  0  0  0  0  0
  187.7560  172.7100  135.3050 N   0  0  0  0  0  2  0  0  0  0  0  0
  187.1880  171.3990  135.3800 C   0  0  0  0  0  0  0  0  0  0  0  0
  183.2200  168.5690  135.6190 N   0  0  0  0  0  1  0  0  0  0  0  0
  181.7990  170.9010  135.8560 O   0  0  0  0  0  1  0  0  0  0  0  0
  187.9250  170.4060  135.6330 O   0  0  0  0  0  0  0  0  0  0  0  0
  183.8300  169.8770  135.8040 C   0  0  1  0  0  3  0  0  0  0  0  0
  185.2100  169.8720  135.1480 C   0  0  0  0  0  2  0  0  0  0  0  0
  182.9850  170.9150  135.2020 N   0  0  0  0  0  0  0  0  0  0  0  0
  189.3140  177.6410  140.1130 C   0  0  1  0  0  3  0  0  0  0  0  0
  190.4910  177.4280  140.8380 O   0  0  0  0  0  0  0  0  0  0  0  0
  190.2020  176.3530  141.6820 C   0  0  0  0  0  2  0  0  0  0  0  0
  190.7160  176.6380  143.0820 C   0  0  2  0  0  3  0  0  0  0  0  0
  189.3290  176.9100  144.2150 S   0  0  0  0  0  0  0  0  0  0  0  0
  191.5520  178.3400  144.3710 N   0  0  0  0  0  2  0  0  0  0  0  0
  191.5340  177.8390  143.0610 N   0  0  0  0  0  2  0  0  0  0  0  0
  190.1690  178.3940  144.8150 C   0  0  0  0  0  2  0  0  0  0  0  0
  188.4870  178.7750  140.7260 C   0  0  0  0  0  2  0  0  0  0  0  0
  184.3170  179.4860  140.0580 N   0  0  0  0  0  2  0  0  0  0  0  0
  183.6660  178.7320  141.1170 C   0  0  2  0  0  3  0  0  0  0  0  0
  187.3510  178.2530  141.4720 N   0  0  0  0  0  2  0  0  0  0  0  0
  184.8240  178.0830  141.8820 C   0  0  0  0  0  2  0  0  0  0  0  0
  185.7010  179.3450  140.1400 N   0  0  0  0  0  0  0  0  0  0  0  0
  186.0060  178.5820  141.1290 C   0  0  0  0  0  0  0  0  0  0  0  0
  182.7750  177.6630  140.5050 C   0  0  0  0  0  2  0  0  0  0  0  0
  182.7970  177.4190  136.4590 N   0  0  0  0  0  2  0  0  0  0  0  0
  182.8840  177.6850  139.0550 N   0  0  0  0  0  0  0  0  0  0  0  0
  183.4040  176.2540  137.1060 C   0  0  0  0  0  2  0  0  0  0  0  0
  183.3570  176.3640  138.6380 C   0  0  0  0  0  2  0  0  0  0  0  0
  181.5300  177.8860  138.5340 C   0  0  0  0  0  2  0  0  0  0  0  0
  181.4630  177.6380  137.0180 C   0  0  0  0  0  2  0  0  0  0  0  0
  1  7  1  0  0  0  0
  2  6  1  0  0  0  0
  3 12  1  1  0  0  0
  3  2  1  0  0  0  0
  3  1  1  0  0  0  0
  4  5  1  0  0  0  0
  5 10  1  0  0  0  0
  6 11  1  0  0  0  0
  8  6  2  0  0  0  0
  8  4  1  0  0  0  0
  9  4  2  0  0  0  0
 10 24  1  1  0  0  0
 11  7  2  0  0  0  0
 11 10  1  0  0  0  0
 13 15  1  0  0  0  0
 13 14  1  0  0  0  0
 15 17  1  0  0  0  0
 16 17  1  0  0  0  0
 16 12  1  0  0  0  0
 17 20  2  0  0  0  0
 21 18  1  6  0  0  0
 22 15  1  0  0  0  0
 22 21  1  0  0  0  0
 23 14  1  0  0  0  0
 23 21  1  0  0  0  0
 23 19  1  0  0  0  0
 24 32  1  1  0  0  0
 24 25  1  0  0  0  0
 25 26  1  0  0  0  0
 27 26  1  6  0  0  0
 27 28  1  0  0  0  0
 28 31  1  0  0  0  0
 29 31  1  0  0  0  0
 30 27  1  0  0  0  0
 30 29  1  0  0  0  0
 32 35  1  0  0  0  0
 33 37  1  0  0  0  0
 33 34  1  0  0  0  0
 34 39  1  6  0  0  0
 34 36  1  0  0  0  0
 37 38  2  0  0  0  0
 38 35  1  0  0  0  0
 38 36  1  0  0  0  0
 40 45  1  0  0  0  0
 40 42  1  0  0  0  0
 41 39  1  0  0  0  0
 42 43  1  0  0  0  0
 43 41  1  0  0  0  0
 44 41  1  0  0  0  0
 45 44  1  0  0  0  0
M  END
>  <MODEL>
5

>  <REMARK>
 VINA RESULT:      -8.1      5.032     10.505
  Name = 
  10 active torsions:
  status: ('A' for Active; 'I' for Inactive)
    1  A    between atoms: C_5  and  C_40
    2  A    between atoms: C_7  and  C_21
    3  A    between atoms: N_10  and  C_21
    4  A    between atoms: C_13  and  N_17
    5  A    between atoms: C_13  and  C_26
    6  A    between atoms: C_22  and  C_44
    7  A    between atoms: O_25  and  C_40
    8  A    between atoms: O_25  and  C_44
    9  A    between atoms: N_27  and  C_32
   10  A    between atoms: C_32  and  C_44
                            x       y       z     vdW  Elec       q    Type
                         _______ _______ _______ _____ _____    ______ ____

>  <TORSDO>
F 10

$$$$
=
 OpenBabel10232409503D

 45 50  0  0  1  0  0  0  0  0999 V2000
  185.7890  177.9210  143.8280 C   0  0  0  0  0  2  0  0  0  0  0  0
  184.1720  179.6290  144.6740 C   0  0  0  0  0  2  0  0  0  0  0  0
  185.0280  178.4240  145.0580 C   0  0  2  0  0  3  0  0  0  0  0  0
  181.1300  179.4460  142.4750 C   0  0  0  0  0  0  0  0  0  0  0  0
  181.4830  178.4910  141.4720 N   0  0  0  0  0  2  0  0  0  0  0  0
  183.2540  179.2630  143.5480 C   0  0  0  0  0  0  0  0  0  0  0  0
  184.8550  177.6240  142.6870 C   0  0  0  0  0  3  0  0  0  0  0  0
  182.0740  179.7990  143.4900 N   0  0  0  0  0  0  0  0  0  0  0  0
  179.9820  179.9580  142.4800 O   0  0  0  0  0  0  0  0  0  0  0  0
  182.8530  178.0030  141.3120 C   0  0  2  0  0  3  0  0  0  0  0  0
  183.6980  178.2770  142.5290 C   0  0  0  0  0  0  0  0  0  0  0  0
  185.9940  178.8240  146.1620 C   0  0  0  0  0  2  0  0  0  0  0  0
  190.0020  177.4380  145.2290 C   0  0  0  0  0  2  0  0  0  0  0  0
  190.8700  176.2000  145.0300 C   0  0  0  0  0  2  0  0  0  0  0  0
  189.5630  177.5000  146.6190 N   0  0  0  0  0  0  0  0  0  0  0  0
  187.3200  178.2810  145.9010 N   0  0  0  0  0  2  0  0  0  0  0  0
  188.2530  177.9820  146.9440 C   0  0  0  0  0  0  0  0  0  0  0  0
  192.4920  175.9940  148.3190 N   0  0  0  0  0  1  0  0  0  0  0  0
  192.6790  175.0660  145.7470 O   0  0  0  0  0  1  0  0  0  0  0  0
  187.9150  178.1260  148.1510 O   0  0  0  0  0  0  0  0  0  0  0  0
  191.4160  176.0820  147.3440 C   0  0  1  0  0  3  0  0  0  0  0  0
  190.5580  177.3040  147.6680 C   0  0  0  0  0  2  0  0  0  0  0  0
  191.9720  176.1970  145.9910 N   0  0  0  0  0  0  0  0  0  0  0  0
  183.5000  178.5600  140.0350 C   0  0  1  0  0  3  0  0  0  0  0  0
  182.6220  179.4220  139.3700 O   0  0  0  0  0  0  0  0  0  0  0  0
  182.6650  179.0160  138.0340 C   0  0  0  0  0  2  0  0  0  0  0  0
  181.3240  178.4340  137.6230 C   0  0  2  0  0  3  0  0  0  0  0  0
  181.2130  176.6980  138.1300 S   0  0  0  0  0  0  0  0  0  0  0  0
  180.2410  177.5340  135.8140 N   0  0  0  0  0  2  0  0  0  0  0  0
  181.1920  178.5000  136.1780 N   0  0  0  0  0  2  0  0  0  0  0  0
  180.6330  176.2970  136.4660 C   0  0  0  0  0  2  0  0  0  0  0  0
  184.8590  179.2280  140.2670 C   0  0  0  0  0  2  0  0  0  0  0  0
  188.9330  178.0290  140.8110 N   0  0  0  0  0  2  0  0  0  0  0  0
  189.3980  177.7670  139.4590 C   0  0  2  0  0  3  0  0  0  0  0  0
  185.8230  178.8210  139.2550 N   0  0  0  0  0  2  0  0  0  0  0  0
  188.1730  178.0460  138.5800 C   0  0  0  0  0  2  0  0  0  0  0  0
  187.5990  178.4290  140.7980 N   0  0  0  0  0  0  0  0  0  0  0  0
  187.1580  178.4460  139.5910 C   0  0  0  0  0  0  0  0  0  0  0  0
  189.8110  176.3090  139.3370 C   0  0  0  0  0  2  0  0  0  0  0  0
  193.8360  176.4110  138.8660 N   0  0  0  0  0  2  0  0  0  0  0  0
  191.2560  176.2040  139.2120 N   0  0  0  0  0  0  0  0  0  0  0  0
  193.1100  176.4690  137.5960 C   0  0  0  0  0  2  0  0  0  0  0  0
  191.5870  176.4540  137.8080 C   0  0  0  0  0  2  0  0  0  0  0  0
  191.8300  177.2750  140.0300 C   0  0  0  0  0  2  0  0  0  0  0  0
  193.3320  177.4570  139.7560 C   0  0  0  0  0  2  0  0  0  0  0  0
  1  3  1  0  0  0  0
  2  3  1  0  0  0  0
  3 12  1  1  0  0  0
  4  9  2  0  0  0  0
  4  8  1  0  0  0  0
  5  4  1  0  0  0  0
  6  2  1  0  0  0  0
  7  1  1  0  0  0  0
  8  6  2  0  0  0  0
 10 24  1  6  0  0  0
 10  5  1  0  0  0  0
 10 11  1  0  0  0  0
 11  7  2  0  0  0  0
 11  6  1  0  0  0  0
 13 15  1  0  0  0  0
 14 13  1  0  0  0  0
 14 23  1  0  0  0  0
 15 17  1  0  0  0  0
 15 22  1  0  0  0  0
 16 12  1  0  0  0  0
 16 17  1  0  0  0  0
 17 20  2  0  0  0  0
 19 23  1  0  0  0  0
 21 22  1  0  0  0  0
 21 18  1  1  0  0  0
 23 21  1  0  0  0  0
 24 32  1  1  0  0  0
 25 24  1  0  0  0  0
 26 25  1  0  0  0  0
 27 26  1  6  0  0  0
 27 28  1  0  0  0  0
 29 30  1  0  0  0  0
 29 31  1  0  0  0  0
 30 27  1  0  0  0  0
 31 28  1  0  0  0  0
 34 39  1  1  0  0  0
 34 33  1  0  0  0  0
 35 38  1  0  0  0  0
 35 32  1  0  0  0  0
 36 34  1  0  0  0  0
 36 38  1  0  0  0  0
 37 33  1  0  0  0  0
 38 37  2  0  0  0  0
 40 45  1  0  0  0  0
 41 39  1  0  0  0  0
 41 44  1  0  0  0  0
 42 43  1  0  0  0  0
 42 40  1  0  0  0  0
 43 41  1  0  0  0  0
 45 44  1  0  0  0  0
M  END
>  <MODEL>
6

>  <REMARK>
 VINA RESULT:      -8.1      1.695      2.010
  Name = 
  10 active torsions:
  status: ('A' for Active; 'I' for Inactive)
    1  A    between atoms: C_5  and  C_40
    2  A    between atoms: C_7  and  C_21
    3  A    between atoms: N_10  and  C_21
    4  A    between atoms: C_13  and  N_17
    5  A    between atoms: C_13  and  C_26
    6  A    between atoms: C_22  and  C_44
    7  A    between atoms: O_25  and  C_40
    8  A    between atoms: O_25  and  C_44
    9  A    between atoms: N_27  and  C_32
   10  A    between atoms: C_32  and  C_44
                            x       y       z     vdW  Elec       q    Type
                         _______ _______ _______ _____ _____    ______ ____

>  <TORSDO>
F 10

$$$$
=
 OpenBabel10232409503D

 45 50  0  0  1  0  0  0  0  0999 V2000
  190.9930  176.5050  138.9730 C   0  0  0  0  0  2  0  0  0  0  0  0
  192.5980  177.6460  140.5120 C   0  0  0  0  0  2  0  0  0  0  0  0
  192.4530  176.5790  139.4290 C   0  0  2  0  0  3  0  0  0  0  0  0
  191.1950  177.3400  143.9840 C   0  0  0  0  0  0  0  0  0  0  0  0
  189.9290  176.7060  143.7940 N   0  0  0  0  0  2  0  0  0  0  0  0
  191.6620  177.3540  141.6440 C   0  0  0  0  0  0  0  0  0  0  0  0
  190.0640  176.2780  140.1330 C   0  0  0  0  0  3  0  0  0  0  0  0
  192.0180  177.6490  142.8560 N   0  0  0  0  0  0  0  0  0  0  0  0
  191.5970  177.6050  145.1460 O   0  0  0  0  0  0  0  0  0  0  0  0
  189.3360  176.5400  142.4670 C   0  0  2  0  0  3  0  0  0  0  0  0
  190.3520  176.7100  141.3660 C   0  0  0  0  0  0  0  0  0  0  0  0
  193.3660  176.9170  138.2620 C   0  0  0  0  0  2  0  0  0  0  0  0
  194.5570  173.4750  135.8990 C   0  0  0  0  0  2  0  0  0  0  0  0
  194.3480  171.9780  135.6980 C   0  0  0  0  0  2  0  0  0  0  0  0
  195.1710  173.7050  137.2030 N   0  0  0  0  0  0  0  0  0  0  0  0
  193.7470  175.7080  137.5450 N   0  0  0  0  0  2  0  0  0  0  0  0
  194.8080  174.8510  137.9820 C   0  0  0  0  0  0  0  0  0  0  0  0
  197.2520  170.6540  137.5170 N   0  0  0  0  0  1  0  0  0  0  0  0
  195.3280  169.9500  135.6960 O   0  0  0  0  0  1  0  0  0  0  0  0
  195.4120  175.0970  139.0620 O   0  0  0  0  0  0  0  0  0  0  0  0
  196.0400  171.4220  137.2780 C   0  0  1  0  0  3  0  0  0  0  0  0
  196.3240  172.8930  137.5780 C   0  0  0  0  0  2  0  0  0  0  0  0
  195.6100  171.2620  135.8840 N   0  0  0  0  0  0  0  0  0  0  0  0
  188.1280  177.4680  142.2730 C   0  0  1  0  0  3  0  0  0  0  0  0
  187.7950  178.1040  143.4730 O   0  0  0  0  0  0  0  0  0  0  0  0
  186.4450  177.8050  143.6740 C   0  0  0  0  0  2  0  0  0  0  0  0
  186.1810  177.5600  145.1490 C   0  0  2  0  0  3  0  0  0  0  0  0
  184.9260  178.7140  145.7610 S   0  0  0  0  0  0  0  0  0  0  0  0
  187.0270  178.0430  147.2260 N   0  0  0  0  0  2  0  0  0  0  0  0
  187.4060  177.7730  145.9020 N   0  0  0  0  0  2  0  0  0  0  0  0
  186.0070  179.0760  147.1630 C   0  0  0  0  0  2  0  0  0  0  0  0
  188.3000  178.4840  141.1400 C   0  0  0  0  0  2  0  0  0  0  0  0
  188.7290  179.1960  136.9400 N   0  0  0  0  0  2  0  0  0  0  0  0
  187.4370  178.8160  136.3930 C   0  0  2  0  0  3  0  0  0  0  0  0
  187.3250  178.2620  140.0830 N   0  0  0  0  0  2  0  0  0  0  0  0
  186.6340  178.3540  137.6140 C   0  0  0  0  0  2  0  0  0  0  0  0
  188.7470  179.0110  138.3200 N   0  0  0  0  0  0  0  0  0  0  0  0
  187.6140  178.5490  138.7150 C   0  0  0  0  0  0  0  0  0  0  0  0
  187.6170  177.6660  135.4150 C   0  0  0  0  0  2  0  0  0  0  0  0
  189.0640  174.2130  136.9690 N   0  0  0  0  0  2  0  0  0  0  0  0
  188.1310  176.4940  136.1050 N   0  0  0  0  0  0  0  0  0  0  0  0
  187.6860  174.0900  136.4850 C   0  0  0  0  0  2  0  0  0  0  0  0
  187.1760  175.4080  135.8800 C   0  0  0  0  0  2  0  0  0  0  0  0
  189.3990  176.1470  135.4610 C   0  0  0  0  0  2  0  0  0  0  0  0
  189.9000  174.7610  135.9010 C   0  0  0  0  0  2  0  0  0  0  0  0
  1  3  1  0  0  0  0
  1  7  1  0  0  0  0
  2  6  1  0  0  0  0
  3 12  1  6  0  0  0
  3  2  1  0  0  0  0
  4  9  2  0  0  0  0
  5  4  1  0  0  0  0
  6  8  2  0  0  0  0
  7 11  2  0  0  0  0
  8  4  1  0  0  0  0
 10 24  1  6  0  0  0
 10  5  1  0  0  0  0
 11  6  1  0  0  0  0
 11 10  1  0  0  0  0
 13 15  1  0  0  0  0
 14 23  1  0  0  0  0
 14 13  1  0  0  0  0
 15 22  1  0  0  0  0
 15 17  1  0  0  0  0
 16 17  1  0  0  0  0
 16 12  1  0  0  0  0
 17 20  2  0  0  0  0
 19 23  1  0  0  0  0
 21 18  1  6  0  0  0
 21 22  1  0  0  0  0
 23 21  1  0  0  0  0
 24 32  1  6  0  0  0
 24 25  1  0  0  0  0
 25 26  1  0  0  0  0
 27 26  1  6  0  0  0
 27 28  1  0  0  0  0
 27 30  1  0  0  0  0
 28 31  1  0  0  0  0
 30 29  1  0  0  0  0
 31 29  1  0  0  0  0
 33 37  1  0  0  0  0
 34 39  1  6  0  0  0
 34 33  1  0  0  0  0
 34 36  1  0  0  0  0
 35 32  1  0  0  0  0
 36 38  1  0  0  0  0
 37 38  2  0  0  0  0
 38 35  1  0  0  0  0
 39 41  1  0  0  0  0
 42 40  1  0  0  0  0
 43 41  1  0  0  0  0
 43 42  1  0  0  0  0
 44 45  1  0  0  0  0
 44 41  1  0  0  0  0
 45 40  1  0  0  0  0
M  END
>  <MODEL>
7

>  <REMARK>
 VINA RESULT:      -8.0      4.163      8.614
  Name = 
  10 active torsions:
  status: ('A' for Active; 'I' for Inactive)
    1  A    between atoms: C_5  and  C_40
    2  A    between atoms: C_7  and  C_21
    3  A    between atoms: N_10  and  C_21
    4  A    between atoms: C_13  and  N_17
    5  A    between atoms: C_13  and  C_26
    6  A    between atoms: C_22  and  C_44
    7  A    between atoms: O_25  and  C_40
    8  A    between atoms: O_25  and  C_44
    9  A    between atoms: N_27  and  C_32
   10  A    between atoms: C_32  and  C_44
                            x       y       z     vdW  Elec       q    Type
                         _______ _______ _______ _____ _____    ______ ____

>  <TORSDO>
F 10

$$$$
=
 OpenBabel10232409503D

 45 50  0  0  1  0  0  0  0  0999 V2000
  190.0830  173.4470  136.7060 C   0  0  0  0  0  2  0  0  0  0  0  0
  191.1340  174.5840  134.7450 C   0  0  0  0  0  2  0  0  0  0  0  0
  190.7040  173.2370  135.3220 C   0  0  2  0  0  3  0  0  0  0  0  0
  193.9910  176.6360  136.0660 C   0  0  0  0  0  0  0  0  0  0  0  0
  193.9050  176.4800  137.4840 N   0  0  0  0  0  2  0  0  0  0  0  0
  192.0720  175.2680  135.6910 C   0  0  0  0  0  0  0  0  0  0  0  0
  191.0140  174.1950  137.6200 C   0  0  0  0  0  3  0  0  0  0  0  0
  193.0280  176.0060  135.2170 N   0  0  0  0  0  0  0  0  0  0  0  0
  194.9260  177.3090  135.5630 O   0  0  0  0  0  0  0  0  0  0  0  0
  192.7450  175.8650  138.1290 C   0  0  2  0  0  3  0  0  0  0  0  0
  191.9080  175.0740  137.1560 C   0  0  0  0  0  0  0  0  0  0  0  0
  189.7100  172.5790  134.3800 C   0  0  0  0  0  2  0  0  0  0  0  0
  185.6290  173.8760  135.0950 C   0  0  0  0  0  2  0  0  0  0  0  0
  184.6570  174.3800  136.1570 C   0  0  0  0  0  2  0  0  0  0  0  0
  186.0180  172.5050  135.4090 N   0  0  0  0  0  0  0  0  0  0  0  0
  188.3500  172.9820  134.7090 N   0  0  0  0  0  2  0  0  0  0  0  0
  187.3530  172.0550  135.1530 C   0  0  0  0  0  0  0  0  0  0  0  0
  182.8970  171.2600  136.9760 N   0  0  0  0  0  1  0  0  0  0  0  0
  182.7240  173.9820  137.2420 O   0  0  0  0  0  1  0  0  0  0  0  0
  187.6570  170.8430  135.3340 O   0  0  0  0  0  0  0  0  0  0  0  0
  184.0140  172.1700  136.7660 C   0  0  1  0  0  3  0  0  0  0  0  0
  184.9690  171.5490  135.7490 C   0  0  0  0  0  2  0  0  0  0  0  0
  183.5230  173.4640  136.2790 N   0  0  0  0  0  0  0  0  0  0  0  0
  191.9050  176.9070  138.8830 C   0  0  1  0  0  3  0  0  0  0  0  0
  190.5470  176.5750  138.8370 O   0  0  0  0  0  0  0  0  0  0  0  0
  189.9350  177.6570  138.2000 C   0  0  0  0  0  2  0  0  0  0  0  0
  188.4270  177.4840  138.2130 C   0  0  2  0  0  3  0  0  0  0  0  0
  187.8940  176.5310  136.7680 S   0  0  0  0  0  0  0  0  0  0  0  0
  186.4920  178.5870  137.6690 N   0  0  0  0  0  2  0  0  0  0  0  0
  187.7900  178.7890  138.1620 N   0  0  0  0  0  2  0  0  0  0  0  0
  186.6240  177.7810  136.4680 C   0  0  0  0  0  2  0  0  0  0  0  0
  192.3650  177.1520  140.3230 C   0  0  0  0  0  2  0  0  0  0  0  0
  189.3010  175.7900  142.9860 N   0  0  0  0  0  2  0  0  0  0  0  0
  188.6310  177.0140  143.3940 C   0  0  2  0  0  3  0  0  0  0  0  0
  191.3890  177.9450  141.0570 N   0  0  0  0  0  2  0  0  0  0  0  0
  189.3970  178.1220  142.6630 C   0  0  0  0  0  2  0  0  0  0  0  0
  190.3440  176.0750  142.1070 N   0  0  0  0  0  0  0  0  0  0  0  0
  190.4200  177.3440  141.9150 C   0  0  0  0  0  0  0  0  0  0  0  0
  188.7640  177.1870  144.8990 C   0  0  0  0  0  2  0  0  0  0  0  0
  185.6090  179.2130  146.4400 N   0  0  0  0  0  2  0  0  0  0  0  0
  187.6980  178.0380  145.4040 N   0  0  0  0  0  0  0  0  0  0  0  0
  185.2570  178.4160  145.2630 C   0  0  0  0  0  2  0  0  0  0  0  0
  186.4670  177.6410  144.7170 C   0  0  0  0  0  2  0  0  0  0  0  0
  187.5590  177.7390  146.8300 C   0  0  0  0  0  2  0  0  0  0  0  0
  186.2780  178.3550  147.4180 C   0  0  0  0  0  2  0  0  0  0  0  0
  1  7  1  0  0  0  0
  2  3  1  0  0  0  0
  2  6  1  0  0  0  0
  3 12  1  6  0  0  0
  3  1  1  0  0  0  0
  4  5  1  0  0  0  0
  5 10  1  0  0  0  0
  6 11  1  0  0  0  0
  8  6  2  0  0  0  0
  8  4  1  0  0  0  0
  9  4  2  0  0  0  0
 10 24  1  6  0  0  0
 11  7  2  0  0  0  0
 11 10  1  0  0  0  0
 12 16  1  0  0  0  0
 13 15  1  0  0  0  0
 13 14  1  0  0  0  0
 14 23  1  0  0  0  0
 15 22  1  0  0  0  0
 16 17  1  0  0  0  0
 17 20  2  0  0  0  0
 17 15  1  0  0  0  0
 21 18  1  6  0  0  0
 22 21  1  0  0  0  0
 23 21  1  0  0  0  0
 23 19  1  0  0  0  0
 24 32  1  1  0  0  0
 25 24  1  0  0  0  0
 26 25  1  0  0  0  0
 27 26  1  6  0  0  0
 28 27  1  0  0  0  0
 29 30  1  0  0  0  0
 30 27  1  0  0  0  0
 31 28  1  0  0  0  0
 31 29  1  0  0  0  0
 32 35  1  0  0  0  0
 33 34  1  0  0  0  0
 34 39  1  1  0  0  0
 35 38  1  0  0  0  0
 36 34  1  0  0  0  0
 37 33  1  0  0  0  0
 38 37  2  0  0  0  0
 38 36  1  0  0  0  0
 39 41  1  0  0  0  0
 40 45  1  0  0  0  0
 41 44  1  0  0  0  0
 42 40  1  0  0  0  0
 43 42  1  0  0  0  0
 43 41  1  0  0  0  0
 44 45  1  0  0  0  0
M  END
>  <MODEL>
8

>  <REMARK>
 VINA RESULT:      -7.8      4.380     10.827
  Name = 
  10 active torsions:
  status: ('A' for Active; 'I' for Inactive)
    1  A    between atoms: C_5  and  C_40
    2  A    between atoms: C_7  and  C_21
    3  A    between atoms: N_10  and  C_21
    4  A    between atoms: C_13  and  N_17
    5  A    between atoms: C_13  and  C_26
    6  A    between atoms: C_22  and  C_44
    7  A    between atoms: O_25  and  C_40
    8  A    between atoms: O_25  and  C_44
    9  A    between atoms: N_27  and  C_32
   10  A    between atoms: C_32  and  C_44
                            x       y       z     vdW  Elec       q    Type
                         _______ _______ _______ _____ _____    ______ ____

>  <TORSDO>
F 10

$$$$
=
 OpenBabel10232409503D

 45 50  0  0  1  0  0  0  0  0999 V2000
  189.2460  177.1460  141.5010 C   0  0  0  0  0  2  0  0  0  0  0  0
  190.2160  178.2040  143.5470 C   0  0  0  0  0  2  0  0  0  0  0  0
  190.4370  177.1510  142.4630 C   0  0  2  0  0  3  0  0  0  0  0  0
  187.6220  177.9420  146.2530 C   0  0  0  0  0  0  0  0  0  0  0  0
  186.4900  177.3680  145.5960 N   0  0  0  0  0  2  0  0  0  0  0  0
  188.9180  177.9480  144.2490 C   0  0  0  0  0  0  0  0  0  0  0  0
  187.9460  176.9550  142.2330 C   0  0  0  0  0  3  0  0  0  0  0  0
  188.8140  178.2200  145.5130 N   0  0  0  0  0  0  0  0  0  0  0  0
  187.5780  178.1830  147.4860 O   0  0  0  0  0  0  0  0  0  0  0  0
  186.4220  177.2360  144.1410 C   0  0  2  0  0  3  0  0  0  0  0  0
  187.7770  177.3670  143.4950 C   0  0  0  0  0  0  0  0  0  0  0  0
  191.7280  177.4540  141.7210 C   0  0  0  0  0  2  0  0  0  0  0  0
  191.1980  176.6420  137.4890 C   0  0  0  0  0  2  0  0  0  0  0  0
  191.1100  175.5370  136.4410 C   0  0  0  0  0  2  0  0  0  0  0  0
  192.5400  176.6580  138.0600 N   0  0  0  0  0  0  0  0  0  0  0  0
  191.6020  177.1030  140.3130 N   0  0  0  0  0  2  0  0  0  0  0  0
  192.7330  176.9520  139.4490 C   0  0  0  0  0  0  0  0  0  0  0  0
  194.5370  175.6040  135.1200 N   0  0  0  0  0  1  0  0  0  0  0  0
  192.0160  174.6810  134.5660 O   0  0  0  0  0  1  0  0  0  0  0  0
  193.9010  177.0610  139.9150 O   0  0  0  0  0  0  0  0  0  0  0  0
  193.4660  175.5260  136.1020 C   0  0  1  0  0  3  0  0  0  0  0  0
  193.6800  176.6170  137.1490 C   0  0  0  0  0  2  0  0  0  0  0  0
  192.1670  175.7020  135.4430 N   0  0  0  0  0  0  0  0  0  0  0  0
  185.4080  178.2200  143.5370 C   0  0  1  0  0  3  0  0  0  0  0  0
  184.7810  178.9630  144.5420 O   0  0  0  0  0  0  0  0  0  0  0  0
  183.7160  179.6030  143.9020 C   0  0  0  0  0  2  0  0  0  0  0  0
  182.5980  178.6110  143.6360 C   0  0  2  0  0  3  0  0  0  0  0  0
  181.9490  178.8340  141.9590 S   0  0  0  0  0  0  0  0  0  0  0  0
  180.3560  178.2970  144.0050 N   0  0  0  0  0  2  0  0  0  0  0  0
  181.5170  178.8380  144.5800 N   0  0  0  0  0  2  0  0  0  0  0  0
  180.2800  178.8220  142.6520 C   0  0  0  0  0  2  0  0  0  0  0  0
  185.9960  179.1360  142.4600 C   0  0  0  0  0  2  0  0  0  0  0  0
  186.8330  178.1850  138.3690 N   0  0  0  0  0  2  0  0  0  0  0  0
  185.5910  178.5000  137.6820 C   0  0  2  0  0  3  0  0  0  0  0  0
  185.1080  179.2320  141.3100 N   0  0  0  0  0  2  0  0  0  0  0  0
  184.6570  178.9840  138.7970 C   0  0  0  0  0  2  0  0  0  0  0  0
  186.7130  178.4410  139.7330 N   0  0  0  0  0  0  0  0  0  0  0  0
  185.5320  178.8770  139.9950 C   0  0  0  0  0  0  0  0  0  0  0  0
  185.0330  177.2410  137.0380 C   0  0  0  0  0  2  0  0  0  0  0  0
  187.7450  174.3580  136.1640 N   0  0  0  0  0  2  0  0  0  0  0  0
  186.0950  176.2710  136.8250 N   0  0  0  0  0  0  0  0  0  0  0  0
  186.5750  173.8450  136.8800 C   0  0  0  0  0  2  0  0  0  0  0  0
  185.5540  174.9560  137.1740 C   0  0  0  0  0  2  0  0  0  0  0  0
  186.4020  176.2890  135.3930 C   0  0  0  0  0  2  0  0  0  0  0  0
  187.2990  175.1070  134.9890 C   0  0  0  0  0  2  0  0  0  0  0  0
  1  7  1  0  0  0  0
  1  3  1  0  0  0  0
  2  6  1  0  0  0  0
  3 12  1  6  0  0  0
  3  2  1  0  0  0  0
  4  9  2  0  0  0  0
  5  4  1  0  0  0  0
  6  8  2  0  0  0  0
  7 11  2  0  0  0  0
  8  4  1  0  0  0  0
 10 24  1  6  0  0  0
 10  5  1  0  0  0  0
 11 10  1  0  0  0  0
 11  6  1  0  0  0  0
 13 15  1  0  0  0  0
 14 13  1  0  0  0  0
 15 17  1  0  0  0  0
 16 12  1  0  0  0  0
 17 20  2  0  0  0  0
 17 16  1  0  0  0  0
 19 23  1  0  0  0  0
 21 18  1  6  0  0  0
 21 22  1  0  0  0  0
 22 15  1  0  0  0  0
 23 21  1  0  0  0  0
 23 14  1  0  0  0  0
 24 32  1  6  0  0  0
 24 25  1  0  0  0  0
 26 25  1  0  0  0  0
 27 26  1  1  0  0  0
 27 30  1  0  0  0  0
 28 31  1  0  0  0  0
 28 27  1  0  0  0  0
 29 30  1  0  0  0  0
 31 29  1  0  0  0  0
 33 37  1  0  0  0  0
 34 39  1  1  0  0  0
 34 33  1  0  0  0  0
 34 36  1  0  0  0  0
 35 32  1  0  0  0  0
 36 38  1  0  0  0  0
 37 38  2  0  0  0  0
 38 35  1  0  0  0  0
 40 42  1  0  0  0  0
 41 39  1  0  0  0  0
 41 43  1  0  0  0  0
 42 43  1  0  0  0  0
 44 41  1  0  0  0  0
 45 44  1  0  0  0  0
 45 40  1  0  0  0  0
M  END
>  <MODEL>
9

>  <REMARK>
 VINA RESULT:      -7.8      3.098      6.961
  Name = 
  10 active torsions:
  status: ('A' for Active; 'I' for Inactive)
    1  A    between atoms: C_5  and  C_40
    2  A    between atoms: C_7  and  C_21
    3  A    between atoms: N_10  and  C_21
    4  A    between atoms: C_13  and  N_17
    5  A    between atoms: C_13  and  C_26
    6  A    between atoms: C_22  and  C_44
    7  A    between atoms: O_25  and  C_40
    8  A    between atoms: O_25  and  C_44
    9  A    between atoms: N_27  and  C_32
   10  A    between atoms: C_32  and  C_44
                            x       y       z     vdW  Elec       q    Type
                         _______ _______ _______ _____ _____    ______ ____

>  <TORSDO>
F 10

$$$$
