=
 OpenBabel10232410063D

 68 77  0  0  1  0  0  0  0  0999 V2000
  189.6070  177.9150  136.5840 O   0  0  0  0  0  0  0  0  0  0  0  0
  189.2180  176.5590  136.7080 C   0  0  2  0  0  3  0  0  0  0  0  0
  187.8330  177.9770  138.1760 C   0  0  1  0  0  3  0  0  0  0  0  0
  188.8330  178.7260  137.3790 C   0  0  0  0  0  0  0  0  0  0  0  0
  188.1490  176.5230  137.8140 C   0  0  1  0  0  3  0  0  0  0  0  0
  188.9310  179.9780  137.3630 O   0  0  0  0  0  0  0  0  0  0  0  0
  190.3390  174.8880  138.0060 O   0  0  0  0  0  0  0  0  0  0  0  0
  190.4050  175.7270  137.0640 C   0  0  0  0  0  0  0  0  0  0  0  0
  191.6320  175.9430  136.3630 N   0  0  0  0  0  0  0  0  0  0  0  0
  192.7480  176.1800  136.9920 C   0  0  0  0  0  3  0  0  0  0  0  0
  194.0140  176.4040  136.2450 C   0  0  0  0  0  2  0  0  0  0  0  0
  194.9670  175.4950  136.7020 O   0  0  0  0  0  0  0  0  0  0  0  0
  198.8640  174.1700  135.6150 C   0  0  2  0  0  0  0  0  0  0  0  0
  198.1050  171.6800  136.1280 C   0  0  1  0  0  3  0  0  0  0  0  0
  197.4630  174.7080  135.4710 C   0  0  1  0  0  0  0  0  0  0  0  0
  196.5230  173.6900  135.2080 O   0  0  0  0  0  0  0  0  0  0  0  0
  199.9860  175.0240  135.0440 C   0  0  0  0  0  1  0  0  0  0  0  0
  193.7610  171.9530  135.3760 C   0  0  1  0  0  3  0  0  0  0  0  0
  195.7300  169.2510  135.7300 O   0  0  0  0  0  1  0  0  0  0  0  0
  195.9370  170.6270  135.6230 C   0  0  1  0  0  3  0  0  0  0  0  0
  199.0900  172.6310  135.4400 C   0  0  0  0  0  2  0  0  0  0  0  0
  197.3230  170.9220  135.0680 C   0  0  2  0  0  3  0  0  0  0  0  0
  198.4390  170.2320  135.8380 C   0  0  0  0  0  2  0  0  0  0  0  0
  197.2780  174.0350  137.8090 C   0  0  0  0  0  2  0  0  0  0  0  0
  194.2020  174.5620  134.3470 O   0  0  0  0  0  0  0  0  0  0  0  0
  198.1850  174.8440  136.8580 C   0  0  0  0  0  0  0  0  0  0  0  0
  194.2020  172.8460  136.3750 O   0  0  0  0  0  0  0  0  0  0  0  0
  194.9390  174.1840  135.6140 P   0  0  2  0  0  0  0  0  0  0  0  0
  194.9110  171.2150  134.6690 C   0  0  0  0  0  2  0  0  0  0  0  0
  192.8850  171.0280  135.9390 O   0  0  0  0  0  1  0  0  0  0  0  0
  197.3310  175.9860  134.6400 C   0  0  0  0  0  1  0  0  0  0  0  0
  198.7380  173.9400  137.9780 C   0  0  0  0  0  2  0  0  0  0  0  0
  186.8930  175.8540  137.2850 C   0  0  0  0  0  2  0  0  0  0  0  0
  186.2470  176.7430  136.2390 C   0  0  0  0  0  2  0  0  0  0  0  0
  185.7500  175.9150  135.1500 N   0  0  0  0  0  2  0  0  0  0  0  0
  182.9770  173.7610  135.7270 N   0  0  0  0  0  0  0  0  0  0  0  0
  185.1850  173.4760  135.4610 C   0  0  0  0  0  0  0  0  0  0  0  0
  184.8560  174.8120  135.3170 C   0  0  0  0  0  0  0  0  0  0  0  0
  183.9740  172.8550  135.7130 C   0  0  0  0  0  0  0  0  0  0  0  0
  183.5210  174.9420  135.4750 N   0  0  0  0  0  0  0  0  0  0  0  0
  183.5990  170.2760  136.1890 C   0  0  0  0  0  3  0  0  0  0  0  0
  183.7750  171.4520  135.9740 C   0  0  0  0  0  0  0  0  0  0  0  0
  187.5650  172.3290  135.3310 C   0  0  0  0  0  3  0  0  0  0  0  0
  186.4810  172.8540  135.3920 C   0  0  0  0  0  0  0  0  0  0  0  0
  182.7720  176.1290  135.4600 N   0  0  0  0  0  2  0  0  0  0  0  0
  181.9620  176.5690  136.5870 C   0  0  0  0  0  2  0  0  0  0  0  0
  182.9470  175.9910  138.8050 C   0  0  0  0  0  2  0  0  0  0  0  0
  182.8500  177.0480  137.7200 C   0  0  0  0  0  3  0  0  0  0  0  0
  182.0080  177.1730  138.9790 C   0  0  0  0  0  2  0  0  0  0  0  0
  188.0260  178.1840  139.6750 C   0  0  0  0  0  2  0  0  0  0  0  0
  189.7540  177.9440  140.1270 S   0  0  0  0  0  0  0  0  0  0  0  0
  189.7460  176.6220  141.0620 C   0  0  0  0  0  2  0  0  0  0  0  0
  184.7340  178.4490  144.6270 C   0  0  0  0  0  3  0  0  0  0  0  0
  189.3270  177.0910  143.5820 C   0  0  2  0  0  0  0  0  0  0  0  0
  189.7190  177.5260  144.9750 C   0  0  0  0  0  0  0  0  0  0  0  0
  190.9760  177.5210  145.4070 C   0  0  0  0  0  2  0  0  0  0  0  0
  185.0940  178.6550  145.9570 C   0  0  0  0  0  3  0  0  0  0  0  0
  187.0210  177.8320  144.0920 C   0  0  0  0  0  0  0  0  0  0  0  0
  186.4150  178.4700  146.3570 C   0  0  0  0  0  3  0  0  0  0  0  0
  191.7850  176.7690  142.6530 C   0  0  0  0  0  1  0  0  0  0  0  0
  190.2810  176.6690  142.4610 C   0  0  2  0  0  0  0  0  0  0  0  0
  187.9980  177.4070  143.1840 O   0  0  0  0  0  0  0  0  0  0  0  0
  189.6360  175.6170  143.3550 C   0  0  0  0  0  2  0  0  0  0  0  0
  188.7080  177.9330  145.8480 O   0  0  0  0  0  0  0  0  0  0  0  0
  187.3810  178.0710  145.4330 C   0  0  0  0  0  0  0  0  0  0  0  0
  185.6790  178.0390  143.6820 C   0  0  0  0  0  0  0  0  0  0  0  0
  185.2390  177.8670  142.3630 O   0  0  0  0  0  0  0  0  0  0  0  0
  184.1550  178.5660  141.7670 C   0  0  0  0  0  1  0  0  0  0  0  0
  1  2  1  0  0  0  0
  1  4  1  0  0  0  0
  2  8  1  1  0  0  0
  2  5  1  0  0  0  0
  3 50  1  1  0  0  0
  4  3  1  0  0  0  0
  5 33  1  6  0  0  0
  5  3  1  0  0  0  0
  6  4  2  0  0  0  0
  8  7  2  0  0  0  0
  9 10  2  0  0  0  0
  9  8  1  0  0  0  0
 11 12  1  0  0  0  0
 11 10  1  0  0  0  0
 13 17  1  6  0  0  0
 13 26  1  0  0  0  0
 14 21  1  6  0  0  0
 15 31  1  6  0  0  0
 15 13  1  0  0  0  0
 15 26  1  0  0  0  0
 16 15  1  0  0  0  0
 16 28  1  0  0  0  0
 18 30  1  1  0  0  0
 18 27  1  0  0  0  0
 20 19  1  6  0  0  0
 21 13  1  0  0  0  0
 22 20  1  0  0  0  0
 22 23  1  1  0  0  0
 22 14  1  0  0  0  0
 23 14  1  0  0  0  0
 24 32  1  0  0  0  0
 26 24  1  0  0  0  0
 26 32  1  0  0  0  0
 28 25  2  6  0  0  0
 28 27  1  0  0  0  0
 28 12  1  0  0  0  0
 29 18  1  0  0  0  0
 29 20  1  0  0  0  0
 34 33  1  0  0  0  0
 35 38  1  0  0  0  0
 35 34  1  0  0  0  0
 37 39  1  0  0  0  0
 38 37  2  0  0  0  0
 38 40  1  0  0  0  0
 39 36  2  0  0  0  0
 39 42  1  0  0  0  0
 40 36  1  0  0  0  0
 42 41  3  0  0  0  0
 43 44  3  0  0  0  0
 44 37  1  0  0  0  0
 45 40  1  0  0  0  0
 45 46  1  0  0  0  0
 46 48  1  0  0  0  0
 47 49  1  0  0  0  0
 48 47  1  0  0  0  0
 48 49  1  0  0  0  0
 50 51  1  0  0  0  0
 51 52  1  0  0  0  0
 52 61  1  0  0  0  0
 53 57  1  0  0  0  0
 54 63  1  1  0  0  0
 54 55  1  0  0  0  0
 55 56  2  0  0  0  0
 55 64  1  0  0  0  0
 57 59  2  0  0  0  0
 58 65  2  0  0  0  0
 61 60  1  1  0  0  0
 61 63  1  0  0  0  0
 61 54  1  0  0  0  0
 62 54  1  0  0  0  0
 62 58  1  0  0  0  0
 65 64  1  0  0  0  0
 65 59  1  0  0  0  0
 66 58  1  0  0  0  0
 66 53  2  0  0  0  0
 67 66  1  0  0  0  0
 68 67  1  0  0  0  0
M  END
>  <MODEL>
1

>  <REMARK>
 VINA RESULT:      -8.0      0.000      0.000
  Name = 
  18 active torsions:
  status: ('A' for Active; 'I' for Inactive)
    1  A    between atoms: O_4  and  C_66
    2  A    between atoms: C_6  and  C_22
    3  A    between atoms: C_6  and  S_29
    4  A    between atoms: C_14  and  C_56
    5  A    between atoms: C_15  and  C_25
    6  A    between atoms: C_15  and  N_47
    7  A    between atoms: C_19  and  C_48
    8  A    between atoms: C_20  and  C_26
    9  A    between atoms: C_25  and  C_31
   10  A    between atoms: C_34  and  O_35
   11  A    between atoms: C_34  and  C_57
   12  A    between atoms: O_35  and  P_54
   13  A    between atoms: C_38  and  C_42
   14  A    between atoms: N_44  and  C_56
   15  A    between atoms: N_47  and  C_58
   16  A    between atoms: C_48  and  N_51
   17  A    between atoms: N_51  and  N_68
   18  A    between atoms: C_62  and  C_65
                            x       y       z     vdW  Elec       q    Type
                         _______ _______ _______ _____ _____    ______ ____

>  <TORSDO>
F 18

$$$$
=
 OpenBabel10232410063D

 68 77  0  0  1  0  0  0  0  0999 V2000
  189.7200  178.0140  136.5950 O   0  0  0  0  0  0  0  0  0  0  0  0
  189.2950  176.6650  136.6530 C   0  0  2  0  0  3  0  0  0  0  0  0
  187.8640  178.0670  138.0920 C   0  0  1  0  0  3  0  0  0  0  0  0
  188.9210  178.8180  137.3750 C   0  0  0  0  0  0  0  0  0  0  0  0
  188.1670  176.6180  137.6980 C   0  0  1  0  0  3  0  0  0  0  0  0
  189.0470  180.0670  137.4070 O   0  0  0  0  0  0  0  0  0  0  0  0
  190.3600  175.0440  138.0560 O   0  0  0  0  0  0  0  0  0  0  0  0
  190.4430  175.7940  137.0440 C   0  0  0  0  0  0  0  0  0  0  0  0
  191.6540  175.8740  136.2900 N   0  0  0  0  0  0  0  0  0  0  0  0
  192.8070  176.0690  136.8640 C   0  0  0  0  0  3  0  0  0  0  0  0
  194.0570  176.1500  136.0620 C   0  0  0  0  0  2  0  0  0  0  0  0
  195.0110  175.3130  136.6390 O   0  0  0  0  0  0  0  0  0  0  0  0
  199.0070  174.1560  135.7380 C   0  0  2  0  0  0  0  0  0  0  0  0
  198.3880  171.6690  136.4200 C   0  0  1  0  0  3  0  0  0  0  0  0
  197.5810  174.5940  135.5240 C   0  0  1  0  0  0  0  0  0  0  0  0
  196.7110  173.5020  135.3180 O   0  0  0  0  0  0  0  0  0  0  0  0
  200.0910  175.0330  135.1280 C   0  0  0  0  0  1  0  0  0  0  0  0
  194.0550  171.6140  135.5590 C   0  0  1  0  0  3  0  0  0  0  0  0
  196.1750  169.0740  136.1570 O   0  0  0  0  0  1  0  0  0  0  0  0
  196.3010  170.4480  135.9510 C   0  0  1  0  0  3  0  0  0  0  0  0
  199.3300  172.6250  135.6840 C   0  0  0  0  0  2  0  0  0  0  0  0
  197.6800  170.7870  135.4050 C   0  0  2  0  0  3  0  0  0  0  0  0
  198.8160  170.2270  136.2480 C   0  0  0  0  0  2  0  0  0  0  0  0
  197.3760  174.0850  137.9020 C   0  0  0  0  0  2  0  0  0  0  0  0
  194.3640  174.1630  134.3460 O   0  0  0  0  0  0  0  0  0  0  0  0
  198.2580  174.8760  136.9120 C   0  0  0  0  0  0  0  0  0  0  0  0
  194.4160  172.6050  136.4960 O   0  0  0  0  0  0  0  0  0  0  0  0
  195.0900  173.9260  135.6530 P   0  0  2  0  0  0  0  0  0  0  0  0
  195.2660  170.8990  134.9340 C   0  0  0  0  0  2  0  0  0  0  0  0
  193.2220  170.6810  136.1710 O   0  0  0  0  0  1  0  0  0  0  0  0
  197.3930  175.7960  134.5970 C   0  0  0  0  0  1  0  0  0  0  0  0
  198.8350  174.0940  138.1080 C   0  0  0  0  0  2  0  0  0  0  0  0
  186.9280  175.9970  137.0810 C   0  0  0  0  0  2  0  0  0  0  0  0
  186.3120  176.9680  136.0910 C   0  0  0  0  0  2  0  0  0  0  0  0
  185.0290  176.4470  135.6460 N   0  0  0  0  0  2  0  0  0  0  0  0
  182.2670  174.8740  137.2450 N   0  0  0  0  0  0  0  0  0  0  0  0
  183.4430  176.7530  137.5840 C   0  0  0  0  0  0  0  0  0  0  0  0
  183.9730  176.0440  136.5220 C   0  0  0  0  0  0  0  0  0  0  0  0
  182.3760  175.9790  138.0090 C   0  0  0  0  0  0  0  0  0  0  0  0
  183.2450  174.9180  136.3540 N   0  0  0  0  0  0  0  0  0  0  0  0
  180.7100  176.5700  139.9820 C   0  0  0  0  0  3  0  0  0  0  0  0
  181.4660  176.2990  139.0790 C   0  0  0  0  0  0  0  0  0  0  0  0
  184.2300  179.0720  138.5820 C   0  0  0  0  0  3  0  0  0  0  0  0
  183.8680  178.0160  138.1270 C   0  0  0  0  0  0  0  0  0  0  0  0
  183.4040  173.9390  135.3610 N   0  0  0  0  0  2  0  0  0  0  0  0
  184.6190  173.1530  135.2100 C   0  0  0  0  0  2  0  0  0  0  0  0
  185.6640  172.8600  137.4570 C   0  0  0  0  0  2  0  0  0  0  0  0
  184.7920  172.2180  136.3920 C   0  0  0  0  0  3  0  0  0  0  0  0
  186.2600  171.8390  136.5020 C   0  0  0  0  0  2  0  0  0  0  0  0
  187.9800  178.2200  139.6050 C   0  0  0  0  0  2  0  0  0  0  0  0
  189.6850  177.9760  140.1340 S   0  0  0  0  0  0  0  0  0  0  0  0
  189.6240  176.6810  141.1050 C   0  0  0  0  0  2  0  0  0  0  0  0
  184.4390  178.4650  144.4370 C   0  0  0  0  0  3  0  0  0  0  0  0
  189.0960  177.1840  143.5980 C   0  0  2  0  0  0  0  0  0  0  0  0
  189.4230  177.6500  144.9980 C   0  0  0  0  0  0  0  0  0  0  0  0
  190.6620  177.6780  145.4790 C   0  0  0  0  0  2  0  0  0  0  0  0
  184.7420  178.7010  145.7770 C   0  0  0  0  0  3  0  0  0  0  0  0
  186.7570  177.8870  144.0030 C   0  0  0  0  0  0  0  0  0  0  0  0
  186.0500  178.5500  146.2320 C   0  0  0  0  0  3  0  0  0  0  0  0
  191.5950  176.8960  142.7720 C   0  0  0  0  0  1  0  0  0  0  0  0
  190.1020  176.7630  142.5230 C   0  0  2  0  0  0  0  0  0  0  0  0
  187.7780  177.4660  143.1430 O   0  0  0  0  0  0  0  0  0  0  0  0
  189.4420  175.7130  143.4090 C   0  0  0  0  0  2  0  0  0  0  0  0
  188.3710  178.0510  145.8230 O   0  0  0  0  0  0  0  0  0  0  0  0
  187.0590  178.1550  145.3530 C   0  0  0  0  0  0  0  0  0  0  0  0
  185.4290  178.0600  143.5380 C   0  0  0  0  0  0  0  0  0  0  0  0
  185.0450  177.8560  142.2050 O   0  0  0  0  0  0  0  0  0  0  0  0
  183.8070  178.2670  141.6410 C   0  0  0  0  0  1  0  0  0  0  0  0
  1  2  1  0  0  0  0
  1  4  1  0  0  0  0
  2  8  1  1  0  0  0
  2  5  1  0  0  0  0
  3 50  1  1  0  0  0
  4  6  2  0  0  0  0
  4  3  1  0  0  0  0
  5 33  1  6  0  0  0
  5  3  1  0  0  0  0
  8  7  2  0  0  0  0
  9 10  2  0  0  0  0
  9  8  1  0  0  0  0
 11 12  1  0  0  0  0
 11 10  1  0  0  0  0
 13 17  1  6  0  0  0
 13 26  1  0  0  0  0
 14 21  1  6  0  0  0
 15 31  1  6  0  0  0
 15 13  1  0  0  0  0
 15 26  1  0  0  0  0
 16 15  1  0  0  0  0
 16 28  1  0  0  0  0
 18 30  1  1  0  0  0
 18 27  1  0  0  0  0
 20 19  1  6  0  0  0
 21 13  1  0  0  0  0
 22 20  1  0  0  0  0
 22 23  1  1  0  0  0
 22 14  1  0  0  0  0
 23 14  1  0  0  0  0
 24 32  1  0  0  0  0
 26 24  1  0  0  0  0
 26 32  1  0  0  0  0
 28 25  2  6  0  0  0
 28 27  1  0  0  0  0
 28 12  1  0  0  0  0
 29 18  1  0  0  0  0
 29 20  1  0  0  0  0
 34 33  1  0  0  0  0
 35 34  1  0  0  0  0
 35 38  1  0  0  0  0
 36 39  2  0  0  0  0
 37 39  1  0  0  0  0
 37 44  1  0  0  0  0
 38 37  2  0  0  0  0
 39 42  1  0  0  0  0
 40 38  1  0  0  0  0
 40 36  1  0  0  0  0
 42 41  3  0  0  0  0
 44 43  3  0  0  0  0
 45 40  1  0  0  0  0
 46 45  1  0  0  0  0
 46 48  1  0  0  0  0
 48 49  1  0  0  0  0
 48 47  1  0  0  0  0
 49 47  1  0  0  0  0
 50 51  1  0  0  0  0
 51 52  1  0  0  0  0
 52 61  1  0  0  0  0
 53 57  1  0  0  0  0
 54 63  1  1  0  0  0
 54 55  1  0  0  0  0
 55 56  2  0  0  0  0
 55 64  1  0  0  0  0
 57 59  2  0  0  0  0
 58 65  2  0  0  0  0
 61 60  1  1  0  0  0
 61 63  1  0  0  0  0
 61 54  1  0  0  0  0
 62 54  1  0  0  0  0
 62 58  1  0  0  0  0
 65 64  1  0  0  0  0
 65 59  1  0  0  0  0
 66 58  1  0  0  0  0
 66 53  2  0  0  0  0
 67 66  1  0  0  0  0
 68 67  1  0  0  0  0
M  END
>  <MODEL>
2

>  <REMARK>
 VINA RESULT:      -8.0      0.753      2.383
  Name = 
  18 active torsions:
  status: ('A' for Active; 'I' for Inactive)
    1  A    between atoms: O_4  and  C_66
    2  A    between atoms: C_6  and  C_22
    3  A    between atoms: C_6  and  S_29
    4  A    between atoms: C_14  and  C_56
    5  A    between atoms: C_15  and  C_25
    6  A    between atoms: C_15  and  N_47
    7  A    between atoms: C_19  and  C_48
    8  A    between atoms: C_20  and  C_26
    9  A    between atoms: C_25  and  C_31
   10  A    between atoms: C_34  and  O_35
   11  A    between atoms: C_34  and  C_57
   12  A    between atoms: O_35  and  P_54
   13  A    between atoms: C_38  and  C_42
   14  A    between atoms: N_44  and  C_56
   15  A    between atoms: N_47  and  C_58
   16  A    between atoms: C_48  and  N_51
   17  A    between atoms: N_51  and  N_68
   18  A    between atoms: C_62  and  C_65
                            x       y       z     vdW  Elec       q    Type
                         _______ _______ _______ _____ _____    ______ ____

>  <TORSDO>
F 18

$$$$
=
 OpenBabel10232410063D

 68 77  0  0  1  0  0  0  0  0999 V2000
  189.7380  177.6920  136.5410 O   0  0  0  0  0  0  0  0  0  0  0  0
  189.2140  176.3860  136.6950 C   0  0  2  0  0  3  0  0  0  0  0  0
  187.9710  177.9690  138.1190 C   0  0  1  0  0  3  0  0  0  0  0  0
  189.0450  178.5960  137.3110 C   0  0  0  0  0  0  0  0  0  0  0  0
  188.1420  176.4830  137.7930 C   0  0  1  0  0  3  0  0  0  0  0  0
  189.2670  179.8320  137.2670 O   0  0  0  0  0  0  0  0  0  0  0  0
  190.0580  174.4070  137.7460 O   0  0  0  0  0  0  0  0  0  0  0  0
  190.3110  175.4480  137.0780 C   0  0  0  0  0  0  0  0  0  0  0  0
  191.6560  175.7840  136.7300 N   0  0  0  0  0  0  0  0  0  0  0  0
  192.2560  175.2420  135.7090 C   0  0  0  0  0  3  0  0  0  0  0  0
  193.6570  175.6030  135.3640 C   0  0  0  0  0  2  0  0  0  0  0  0
  194.4000  174.4300  135.2410 O   0  0  0  0  0  0  0  0  0  0  0  0
  198.2820  172.6820  135.3160 C   0  0  2  0  0  0  0  0  0  0  0  0
  198.9370  174.3450  137.2750 C   0  0  1  0  0  3  0  0  0  0  0  0
  196.7940  172.8290  135.5100 C   0  0  1  0  0  0  0  0  0  0  0  0
  196.4680  173.3190  136.7920 O   0  0  0  0  0  0  0  0  0  0  0  0
  198.7510  171.4790  134.5110 C   0  0  0  0  0  1  0  0  0  0  0  0
  194.9880  175.0800  139.1120 C   0  0  1  0  0  3  0  0  0  0  0  0
  198.0710  175.7580  140.2670 O   0  0  0  0  0  1  0  0  0  0  0  0
  197.5480  175.0630  139.1770 C   0  0  1  0  0  3  0  0  0  0  0  0
  199.2260  173.0520  136.5080 C   0  0  0  0  0  2  0  0  0  0  0  0
  198.5240  174.0000  138.6960 C   0  0  2  0  0  3  0  0  0  0  0  0
  199.9160  174.5450  138.4130 C   0  0  0  0  0  2  0  0  0  0  0  0
  197.2420  175.1550  134.9240 C   0  0  0  0  0  2  0  0  0  0  0  0
  193.9400  173.0370  137.4420 O   0  0  0  0  0  0  0  0  0  0  0  0
  197.5050  173.7170  134.4290 C   0  0  0  0  0  0  0  0  0  0  0  0
  195.0340  175.4380  137.7480 O   0  0  0  0  0  0  0  0  0  0  0  0
  194.9080  174.0160  136.8130 P   0  0  2  0  0  0  0  0  0  0  0  0
  196.2630  174.3690  139.5970 C   0  0  0  0  0  2  0  0  0  0  0  0
  194.7650  176.2200  139.8810 O   0  0  0  0  0  1  0  0  0  0  0  0
  195.9440  171.6670  134.9910 C   0  0  0  0  0  1  0  0  0  0  0  0
  198.5620  174.8370  134.3520 C   0  0  0  0  0  2  0  0  0  0  0  0
  186.8290  175.9300  137.2720 C   0  0  0  0  0  2  0  0  0  0  0  0
  186.4410  176.6590  135.9990 C   0  0  0  0  0  2  0  0  0  0  0  0
  185.0220  176.4590  135.7480 N   0  0  0  0  0  2  0  0  0  0  0  0
  182.8910  174.2100  137.4980 N   0  0  0  0  0  0  0  0  0  0  0  0
  183.3210  176.4080  137.6090 C   0  0  0  0  0  0  0  0  0  0  0  0
  184.1240  175.8130  136.6530 C   0  0  0  0  0  0  0  0  0  0  0  0
  182.5670  175.3630  138.1160 C   0  0  0  0  0  0  0  0  0  0  0  0
  183.8420  174.4930  136.6210 N   0  0  0  0  0  0  0  0  0  0  0  0
  180.6800  175.5370  139.9670 C   0  0  0  0  0  3  0  0  0  0  0  0
  181.5420  175.4630  139.1240 C   0  0  0  0  0  0  0  0  0  0  0  0
  183.1870  178.9530  138.3180 C   0  0  0  0  0  3  0  0  0  0  0  0
  183.2500  177.7940  137.9930 C   0  0  0  0  0  0  0  0  0  0  0  0
  184.3870  173.5250  135.7620 N   0  0  0  0  0  2  0  0  0  0  0  0
  185.3430  172.5210  136.2050 C   0  0  0  0  0  2  0  0  0  0  0  0
  187.4050  171.5730  135.1660 C   0  0  0  0  0  2  0  0  0  0  0  0
  186.7260  172.8360  135.6660 C   0  0  0  0  0  3  0  0  0  0  0  0
  187.7580  172.1350  136.5330 C   0  0  0  0  0  2  0  0  0  0  0  0
  188.1780  178.1910  139.6150 C   0  0  0  0  0  2  0  0  0  0  0  0
  189.8500  177.7260  140.0960 S   0  0  0  0  0  0  0  0  0  0  0  0
  189.6430  176.5120  141.1480 C   0  0  0  0  0  2  0  0  0  0  0  0
  184.6840  178.5200  144.6910 C   0  0  0  0  0  3  0  0  0  0  0  0
  189.2520  177.0750  143.6540 C   0  0  2  0  0  0  0  0  0  0  0  0
  189.6620  177.5540  145.0280 C   0  0  0  0  0  0  0  0  0  0  0  0
  190.9220  177.5500  145.4480 C   0  0  0  0  0  2  0  0  0  0  0  0
  185.0590  178.7690  146.0100 C   0  0  0  0  0  3  0  0  0  0  0  0
  186.9590  177.8590  144.1580 C   0  0  0  0  0  0  0  0  0  0  0  0
  186.3820  178.5830  146.4040 C   0  0  0  0  0  3  0  0  0  0  0  0
  191.6980  176.6920  142.7150 C   0  0  0  0  0  1  0  0  0  0  0  0
  190.1920  176.6030  142.5400 C   0  0  2  0  0  0  0  0  0  0  0  0
  187.9230  177.3920  143.2570 O   0  0  0  0  0  0  0  0  0  0  0  0
  189.5430  175.5900  143.4770 C   0  0  0  0  0  2  0  0  0  0  0  0
  188.6640  178.0030  145.8950 O   0  0  0  0  0  0  0  0  0  0  0  0
  187.3340  178.1410  145.4860 C   0  0  0  0  0  0  0  0  0  0  0  0
  185.6160  178.0670  143.7530 C   0  0  0  0  0  0  0  0  0  0  0  0
  185.1620  177.8540  142.4440 O   0  0  0  0  0  0  0  0  0  0  0  0
  184.9940  178.8680  141.4630 C   0  0  0  0  0  1  0  0  0  0  0  0
  1  2  1  0  0  0  0
  1  4  1  0  0  0  0
  2  8  1  1  0  0  0
  2  5  1  0  0  0  0
  3 50  1  1  0  0  0
  4  3  1  0  0  0  0
  5 33  1  6  0  0  0
  5  3  1  0  0  0  0
  6  4  2  0  0  0  0
  8  7  2  0  0  0  0
  9  8  1  0  0  0  0
 10  9  2  0  0  0  0
 11 10  1  0  0  0  0
 12 11  1  0  0  0  0
 12 28  1  0  0  0  0
 13 17  1  6  0  0  0
 13 15  1  0  0  0  0
 13 21  1  0  0  0  0
 14 21  1  6  0  0  0
 14 23  1  0  0  0  0
 14 22  1  0  0  0  0
 15 31  1  6  0  0  0
 15 16  1  0  0  0  0
 16 28  1  0  0  0  0
 18 29  1  0  0  0  0
 18 30  1  1  0  0  0
 20 29  1  0  0  0  0
 20 19  1  1  0  0  0
 22 23  1  1  0  0  0
 22 20  1  0  0  0  0
 26 24  1  0  0  0  0
 26 13  1  0  0  0  0
 26 15  1  0  0  0  0
 27 18  1  0  0  0  0
 28 25  2  1  0  0  0
 28 27  1  0  0  0  0
 32 26  1  0  0  0  0
 32 24  1  0  0  0  0
 34 33  1  0  0  0  0
 35 34  1  0  0  0  0
 35 38  1  0  0  0  0
 36 39  2  0  0  0  0
 37 44  1  0  0  0  0
 37 39  1  0  0  0  0
 38 37  2  0  0  0  0
 39 42  1  0  0  0  0
 40 38  1  0  0  0  0
 40 36  1  0  0  0  0
 42 41  3  0  0  0  0
 44 43  3  0  0  0  0
 45 46  1  0  0  0  0
 45 40  1  0  0  0  0
 47 48  1  0  0  0  0
 47 49  1  0  0  0  0
 48 46  1  0  0  0  0
 48 49  1  0  0  0  0
 50 51  1  0  0  0  0
 51 52  1  0  0  0  0
 52 61  1  0  0  0  0
 53 57  1  0  0  0  0
 54 63  1  1  0  0  0
 54 55  1  0  0  0  0
 55 56  2  0  0  0  0
 55 64  1  0  0  0  0
 57 59  2  0  0  0  0
 58 65  2  0  0  0  0
 61 60  1  1  0  0  0
 61 63  1  0  0  0  0
 61 54  1  0  0  0  0
 62 54  1  0  0  0  0
 62 58  1  0  0  0  0
 65 64  1  0  0  0  0
 65 59  1  0  0  0  0
 66 58  1  0  0  0  0
 66 53  2  0  0  0  0
 67 66  1  0  0  0  0
 68 67  1  0  0  0  0
M  END
>  <MODEL>
3

>  <REMARK>
 VINA RESULT:      -7.9      1.266      3.447
  Name = 
  18 active torsions:
  status: ('A' for Active; 'I' for Inactive)
    1  A    between atoms: O_4  and  C_66
    2  A    between atoms: C_6  and  C_22
    3  A    between atoms: C_6  and  S_29
    4  A    between atoms: C_14  and  C_56
    5  A    between atoms: C_15  and  C_25
    6  A    between atoms: C_15  and  N_47
    7  A    between atoms: C_19  and  C_48
    8  A    between atoms: C_20  and  C_26
    9  A    between atoms: C_25  and  C_31
   10  A    between atoms: C_34  and  O_35
   11  A    between atoms: C_34  and  C_57
   12  A    between atoms: O_35  and  P_54
   13  A    between atoms: C_38  and  C_42
   14  A    between atoms: N_44  and  C_56
   15  A    between atoms: N_47  and  C_58
   16  A    between atoms: C_48  and  N_51
   17  A    between atoms: N_51  and  N_68
   18  A    between atoms: C_62  and  C_65
                            x       y       z     vdW  Elec       q    Type
                         _______ _______ _______ _____ _____    ______ ____

>  <TORSDO>
F 18

$$$$
=
 OpenBabel10232410063D

 68 77  0  0  1  0  0  0  0  0999 V2000
  189.4950  175.5770  137.9860 O   0  0  0  0  0  0  0  0  0  0  0  0
  188.4480  176.2870  137.3500 C   0  0  2  0  0  3  0  0  0  0  0  0
  189.2740  174.4930  135.8730 C   0  0  1  0  0  3  0  0  0  0  0  0
  189.9560  174.5570  137.1870 C   0  0  0  0  0  0  0  0  0  0  0  0
  188.3380  175.7040  135.9310 C   0  0  1  0  0  3  0  0  0  0  0  0
  190.8190  173.7310  137.5770 O   0  0  0  0  0  0  0  0  0  0  0  0
  189.1200  178.3010  136.2430 O   0  0  0  0  0  0  0  0  0  0  0  0
  188.7750  177.7430  137.3220 C   0  0  0  0  0  0  0  0  0  0  0  0
  188.7520  178.4770  138.5490 N   0  0  0  0  0  0  0  0  0  0  0  0
  188.1320  178.0300  139.6030 C   0  0  0  0  0  3  0  0  0  0  0  0
  188.1180  178.8080  140.8700 C   0  0  0  0  0  2  0  0  0  0  0  0
  188.9310  178.1610  141.8000 O   0  0  0  0  0  0  0  0  0  0  0  0
  191.0290  176.6180  145.1670 C   0  0  2  0  0  0  0  0  0  0  0  0
  189.4130  178.0070  146.7470 C   0  0  1  0  0  3  0  0  0  0  0  0
  190.1120  176.6600  143.9710 C   0  0  1  0  0  0  0  0  0  0  0  0
  188.7770  176.9400  144.3290 O   0  0  0  0  0  0  0  0  0  0  0  0
  192.1320  175.5710  145.1470 C   0  0  0  0  0  1  0  0  0  0  0  0
  185.7930  178.2660  144.2290 C   0  0  1  0  0  3  0  0  0  0  0  0
  186.2040  178.9200  147.5000 O   0  0  0  0  0  1  0  0  0  0  0  0
  186.9900  178.3670  146.4900 C   0  0  1  0  0  3  0  0  0  0  0  0
  190.4100  176.8560  146.5850 C   0  0  0  0  0  2  0  0  0  0  0  0
  188.0430  177.4360  147.0740 C   0  0  2  0  0  3  0  0  0  0  0  0
  188.8830  178.0860  148.1630 C   0  0  0  0  0  2  0  0  0  0  0  0
  190.4800  179.0660  144.1400 C   0  0  0  0  0  2  0  0  0  0  0  0
  187.0270  176.4400  142.4380 O   0  0  0  0  0  0  0  0  0  0  0  0
  191.2540  177.7310  144.0860 C   0  0  0  0  0  0  0  0  0  0  0  0
  186.9320  178.8220  143.6100 O   0  0  0  0  0  0  0  0  0  0  0  0
  187.8910  177.5470  143.0010 P   0  0  2  0  0  0  0  0  0  0  0  0
  186.1070  177.5550  145.5560 C   0  0  0  0  0  2  0  0  0  0  0  0
  184.8500  179.2680  144.4440 O   0  0  0  0  0  1  0  0  0  0  0  0
  190.3200  175.5460  142.9430 C   0  0  0  0  0  1  0  0  0  0  0  0
  191.6660  178.9020  145.0000 C   0  0  0  0  0  2  0  0  0  0  0  0
  186.9130  175.2490  135.6770 C   0  0  0  0  0  2  0  0  0  0  0  0
  186.1040  175.3770  136.9550 C   0  0  0  0  0  2  0  0  0  0  0  0
  184.8870  176.1240  136.6770 N   0  0  0  0  0  2  0  0  0  0  0  0
  181.5030  175.7050  137.6920 N   0  0  0  0  0  0  0  0  0  0  0  0
  183.1190  174.3450  136.9390 C   0  0  0  0  0  0  0  0  0  0  0  0
  183.5670  175.6530  136.9580 C   0  0  0  0  0  0  0  0  0  0  0  0
  181.8170  174.4260  137.4040 C   0  0  0  0  0  0  0  0  0  0  0  0
  182.5670  176.4400  137.4090 N   0  0  0  0  0  0  0  0  0  0  0  0
  180.1660  172.3890  137.7750 C   0  0  0  0  0  3  0  0  0  0  0  0
  180.9150  173.3210  137.6080 C   0  0  0  0  0  0  0  0  0  0  0  0
  184.4250  172.1570  136.2300 C   0  0  0  0  0  3  0  0  0  0  0  0
  183.8280  173.1530  136.5510 C   0  0  0  0  0  0  0  0  0  0  0  0
  182.6070  177.8250  137.6350 N   0  0  0  0  0  2  0  0  0  0  0  0
  182.6600  178.4100  138.9660 C   0  0  0  0  0  2  0  0  0  0  0  0
  183.6950  177.9850  141.1970 C   0  0  0  0  0  2  0  0  0  0  0  0
  183.9100  177.9500  139.6950 C   0  0  0  0  0  3  0  0  0  0  0  0
  184.4520  179.1110  140.5120 C   0  0  0  0  0  2  0  0  0  0  0  0
  190.2510  174.6580  134.7120 C   0  0  0  0  0  2  0  0  0  0  0  0
  191.4560  175.9450  135.0820 S   0  0  0  0  0  0  0  0  0  0  0  0
  192.8840  175.1810  135.0450 C   0  0  0  0  0  2  0  0  0  0  0  0
  194.2240  168.9920  136.0790 C   0  0  0  0  0  3  0  0  0  0  0  0
  194.2950  173.8450  136.7680 C   0  0  2  0  0  0  0  0  0  0  0  0
  194.9230  173.5930  138.1200 C   0  0  0  0  0  0  0  0  0  0  0  0
  195.1700  174.5640  138.9940 C   0  0  0  0  0  2  0  0  0  0  0  0
  194.9750  168.8130  137.2400 C   0  0  0  0  0  3  0  0  0  0  0  0
  194.2060  171.3920  136.4480 C   0  0  0  0  0  0  0  0  0  0  0  0
  195.3290  169.9140  138.0170 C   0  0  0  0  0  3  0  0  0  0  0  0
  193.7860  176.4170  137.1350 C   0  0  0  0  0  1  0  0  0  0  0  0
  193.7900  175.1910  136.2390 C   0  0  2  0  0  0  0  0  0  0  0  0
  193.8490  172.6910  136.0670 O   0  0  0  0  0  0  0  0  0  0  0  0
  195.1950  174.7090  135.8930 C   0  0  0  0  0  2  0  0  0  0  0  0
  195.2710  172.2830  138.4520 O   0  0  0  0  0  0  0  0  0  0  0  0
  194.9410  171.1980  137.6350 C   0  0  0  0  0  0  0  0  0  0  0  0
  193.8310  170.2690  135.6690 C   0  0  0  0  0  0  0  0  0  0  0  0
  193.0660  170.3620  134.4980 O   0  0  0  0  0  0  0  0  0  0  0  0
  191.6530  170.4970  134.4550 C   0  0  0  0  0  1  0  0  0  0  0  0
  2  8  1  6  0  0  0
  2  1  1  0  0  0  0
  3 50  1  6  0  0  0
  3  5  1  0  0  0  0
  3  4  1  0  0  0  0
  4  6  2  0  0  0  0
  4  1  1  0  0  0  0
  5 33  1  1  0  0  0
  5  2  1  0  0  0  0
  7  8  2  0  0  0  0
  8  9  1  0  0  0  0
  9 10  2  0  0  0  0
 10 11  1  0  0  0  0
 11 12  1  0  0  0  0
 12 28  1  0  0  0  0
 13 17  1  6  0  0  0
 13 21  1  0  0  0  0
 14 21  1  1  0  0  0
 14 22  1  0  0  0  0
 14 23  1  0  0  0  0
 15 31  1  6  0  0  0
 15 26  1  0  0  0  0
 15 16  1  0  0  0  0
 15 13  1  0  0  0  0
 18 30  1  1  0  0  0
 18 29  1  0  0  0  0
 20 22  1  0  0  0  0
 20 19  1  1  0  0  0
 22 23  1  1  0  0  0
 24 32  1  0  0  0  0
 26 24  1  0  0  0  0
 26 32  1  0  0  0  0
 26 13  1  0  0  0  0
 27 18  1  0  0  0  0
 28 25  2  6  0  0  0
 28 27  1  0  0  0  0
 28 16  1  0  0  0  0
 29 20  1  0  0  0  0
 33 34  1  0  0  0  0
 35 34  1  0  0  0  0
 35 38  1  0  0  0  0
 37 38  2  0  0  0  0
 37 39  1  0  0  0  0
 38 40  1  0  0  0  0
 39 42  1  0  0  0  0
 39 36  2  0  0  0  0
 40 45  1  0  0  0  0
 40 36  1  0  0  0  0
 42 41  3  0  0  0  0
 43 44  3  0  0  0  0
 44 37  1  0  0  0  0
 45 46  1  0  0  0  0
 46 48  1  0  0  0  0
 48 49  1  0  0  0  0
 48 47  1  0  0  0  0
 49 47  1  0  0  0  0
 50 51  1  0  0  0  0
 52 51  1  0  0  0  0
 52 61  1  0  0  0  0
 53 57  1  0  0  0  0
 54 63  1  6  0  0  0
 54 55  1  0  0  0  0
 55 64  1  0  0  0  0
 55 56  2  0  0  0  0
 57 59  2  0  0  0  0
 58 65  2  0  0  0  0
 61 54  1  0  0  0  0
 61 60  1  1  0  0  0
 62 58  1  0  0  0  0
 62 54  1  0  0  0  0
 63 61  1  0  0  0  0
 65 59  1  0  0  0  0
 65 64  1  0  0  0  0
 66 53  2  0  0  0  0
 66 58  1  0  0  0  0
 67 66  1  0  0  0  0
 68 67  1  0  0  0  0
M  END
>  <MODEL>
4

>  <REMARK>
 VINA RESULT:      -7.6      2.612      9.775
  Name = 
  18 active torsions:
  status: ('A' for Active; 'I' for Inactive)
    1  A    between atoms: O_4  and  C_66
    2  A    between atoms: C_6  and  C_22
    3  A    between atoms: C_6  and  S_29
    4  A    between atoms: C_14  and  C_56
    5  A    between atoms: C_15  and  C_25
    6  A    between atoms: C_15  and  N_47
    7  A    between atoms: C_19  and  C_48
    8  A    between atoms: C_20  and  C_26
    9  A    between atoms: C_25  and  C_31
   10  A    between atoms: C_34  and  O_35
   11  A    between atoms: C_34  and  C_57
   12  A    between atoms: O_35  and  P_54
   13  A    between atoms: C_38  and  C_42
   14  A    between atoms: N_44  and  C_56
   15  A    between atoms: N_47  and  C_58
   16  A    between atoms: C_48  and  N_51
   17  A    between atoms: N_51  and  N_68
   18  A    between atoms: C_62  and  C_65
                            x       y       z     vdW  Elec       q    Type
                         _______ _______ _______ _____ _____    ______ ____

>  <TORSDO>
F 18

$$$$
=
 OpenBabel10232410063D

 68 77  0  0  1  0  0  0  0  0999 V2000
  189.6690  177.9620  136.6370 O   0  0  0  0  0  0  0  0  0  0  0  0
  189.1710  176.6490  136.8180 C   0  0  2  0  0  3  0  0  0  0  0  0
  188.0330  178.2050  138.3560 C   0  0  1  0  0  3  0  0  0  0  0  0
  189.0320  178.8510  137.4710 C   0  0  0  0  0  0  0  0  0  0  0  0
  188.1900  176.7240  138.0000 C   0  0  1  0  0  3  0  0  0  0  0  0
  189.2390  180.0890  137.4230 O   0  0  0  0  0  0  0  0  0  0  0  0
  190.1020  174.6350  137.7190 O   0  0  0  0  0  0  0  0  0  0  0  0
  190.3030  175.7190  137.1010 C   0  0  0  0  0  0  0  0  0  0  0  0
  191.6250  176.1060  136.7180 N   0  0  0  0  0  0  0  0  0  0  0  0
  192.1700  175.6810  135.6140 C   0  0  0  0  0  3  0  0  0  0  0  0
  193.5470  176.0940  135.2330 C   0  0  0  0  0  2  0  0  0  0  0  0
  194.3240  174.9480  135.0650 O   0  0  0  0  0  0  0  0  0  0  0  0
  198.0050  172.8150  135.2170 C   0  0  2  0  0  0  0  0  0  0  0  0
  198.7090  174.2800  137.3140 C   0  0  1  0  0  3  0  0  0  0  0  0
  196.5300  173.0990  135.3460 C   0  0  1  0  0  0  0  0  0  0  0  0
  196.1820  173.5410  136.6400 O   0  0  0  0  0  0  0  0  0  0  0  0
  198.3990  171.6230  134.3590 C   0  0  0  0  0  1  0  0  0  0  0  0
  194.7530  175.2970  138.9960 C   0  0  1  0  0  3  0  0  0  0  0  0
  197.8170  175.5860  140.3470 O   0  0  0  0  0  1  0  0  0  0  0  0
  197.2910  175.0160  139.1880 C   0  0  1  0  0  3  0  0  0  0  0  0
  198.9130  173.0130  136.4770 C   0  0  0  0  0  2  0  0  0  0  0  0
  198.1840  173.8910  138.6860 C   0  0  2  0  0  3  0  0  0  0  0  0
  199.6360  174.3100  138.5100 C   0  0  0  0  0  2  0  0  0  0  0  0
  197.2360  175.4000  134.9400 C   0  0  0  0  0  2  0  0  0  0  0  0
  193.6060  173.4770  137.1420 O   0  0  0  0  0  0  0  0  0  0  0  0
  197.3850  173.9760  134.3630 C   0  0  0  0  0  0  0  0  0  0  0  0
  194.9100  175.7310  137.6630 O   0  0  0  0  0  0  0  0  0  0  0  0
  194.6990  174.3900  136.6290 P   0  0  2  0  0  0  0  0  0  0  0  0
  195.9220  174.4310  139.4950 C   0  0  0  0  0  2  0  0  0  0  0  0
  194.5990  176.4040  139.8270 O   0  0  0  0  0  1  0  0  0  0  0  0
  195.6020  172.0640  134.7090 C   0  0  0  0  0  1  0  0  0  0  0  0
  198.5490  174.9860  134.4150 C   0  0  0  0  0  2  0  0  0  0  0  0
  186.8440  176.1640  137.5810 C   0  0  0  0  0  2  0  0  0  0  0  0
  186.0520  177.2360  136.8570 C   0  0  0  0  0  2  0  0  0  0  0  0
  185.1050  176.6010  135.9510 N   0  0  0  0  0  2  0  0  0  0  0  0
  182.8550  174.1640  137.2380 N   0  0  0  0  0  0  0  0  0  0  0  0
  184.6810  174.1150  135.9370 C   0  0  0  0  0  0  0  0  0  0  0  0
  184.3600  175.4210  136.2590 C   0  0  0  0  0  0  0  0  0  0  0  0
  183.7070  173.3610  136.5700 C   0  0  0  0  0  0  0  0  0  0  0  0
  183.2540  175.4100  137.0340 N   0  0  0  0  0  0  0  0  0  0  0  0
  183.5290  170.7180  136.5690 C   0  0  0  0  0  3  0  0  0  0  0  0
  183.6120  171.9230  136.5740 C   0  0  0  0  0  0  0  0  0  0  0  0
  186.7010  173.2190  134.4840 C   0  0  0  0  0  3  0  0  0  0  0  0
  185.7800  173.6250  135.1470 C   0  0  0  0  0  0  0  0  0  0  0  0
  182.6160  176.5110  137.6270 N   0  0  0  0  0  2  0  0  0  0  0  0
  182.7680  176.8520  139.0340 C   0  0  0  0  0  2  0  0  0  0  0  0
  180.8310  178.3250  139.5880 C   0  0  0  0  0  2  0  0  0  0  0  0
  181.4100  176.9270  139.7070 C   0  0  0  0  0  3  0  0  0  0  0  0
  181.5010  177.8890  140.8800 C   0  0  0  0  0  2  0  0  0  0  0  0
  188.3570  178.4140  139.8320 C   0  0  0  0  0  2  0  0  0  0  0  0
  189.8830  177.5610  140.2690 S   0  0  0  0  0  0  0  0  0  0  0  0
  189.4360  176.4920  141.4000 C   0  0  0  0  0  2  0  0  0  0  0  0
  184.7530  178.4680  145.3150 C   0  0  0  0  0  3  0  0  0  0  0  0
  189.2090  176.9510  143.9460 C   0  0  2  0  0  0  0  0  0  0  0  0
  189.7120  177.3570  145.3130 C   0  0  0  0  0  0  0  0  0  0  0  0
  190.9940  177.3010  145.6570 C   0  0  0  0  0  2  0  0  0  0  0  0
  185.2110  178.6470  146.6190 C   0  0  0  0  0  3  0  0  0  0  0  0
  186.9730  177.7720  144.6190 C   0  0  0  0  0  0  0  0  0  0  0  0
  186.5490  178.4090  146.9260 C   0  0  0  0  0  3  0  0  0  0  0  0
  191.5840  176.5470  142.8480 C   0  0  0  0  0  1  0  0  0  0  0  0
  190.0680  176.5050  142.7590 C   0  0  2  0  0  0  0  0  0  0  0  0
  187.8690  177.3200  143.6440 O   0  0  0  0  0  0  0  0  0  0  0  0
  189.4460  175.4690  143.6880 C   0  0  0  0  0  2  0  0  0  0  0  0
  188.7790  177.7930  146.2560 O   0  0  0  0  0  0  0  0  0  0  0  0
  187.4330  177.9840  145.9340 C   0  0  0  0  0  0  0  0  0  0  0  0
  185.6150  178.0330  144.3050 C   0  0  0  0  0  0  0  0  0  0  0  0
  185.0790  177.8910  143.0180 O   0  0  0  0  0  0  0  0  0  0  0  0
  184.9160  178.9460  142.0800 C   0  0  0  0  0  1  0  0  0  0  0  0
  1  2  1  0  0  0  0
  1  4  1  0  0  0  0
  2  8  1  1  0  0  0
  2  5  1  0  0  0  0
  3 50  1  1  0  0  0
  4  3  1  0  0  0  0
  5 33  1  6  0  0  0
  5  3  1  0  0  0  0
  6  4  2  0  0  0  0
  8  7  2  0  0  0  0
  9  8  1  0  0  0  0
 10  9  2  0  0  0  0
 11 10  1  0  0  0  0
 12 11  1  0  0  0  0
 12 28  1  0  0  0  0
 13 17  1  6  0  0  0
 13 15  1  0  0  0  0
 13 21  1  0  0  0  0
 14 21  1  6  0  0  0
 14 23  1  0  0  0  0
 14 22  1  0  0  0  0
 15 31  1  6  0  0  0
 15 16  1  0  0  0  0
 18 29  1  0  0  0  0
 18 30  1  1  0  0  0
 20 29  1  0  0  0  0
 20 19  1  1  0  0  0
 22 23  1  1  0  0  0
 22 20  1  0  0  0  0
 26 32  1  0  0  0  0
 26 24  1  0  0  0  0
 26 13  1  0  0  0  0
 26 15  1  0  0  0  0
 27 18  1  0  0  0  0
 28 16  1  0  0  0  0
 28 25  2  1  0  0  0
 28 27  1  0  0  0  0
 32 24  1  0  0  0  0
 34 33  1  0  0  0  0
 35 38  1  0  0  0  0
 35 34  1  0  0  0  0
 37 38  2  0  0  0  0
 37 39  1  0  0  0  0
 38 40  1  0  0  0  0
 39 42  1  0  0  0  0
 39 36  2  0  0  0  0
 40 36  1  0  0  0  0
 40 45  1  0  0  0  0
 41 42  3  0  0  0  0
 43 44  3  0  0  0  0
 44 37  1  0  0  0  0
 45 46  1  0  0  0  0
 46 48  1  0  0  0  0
 47 48  1  0  0  0  0
 47 49  1  0  0  0  0
 48 49  1  0  0  0  0
 50 51  1  0  0  0  0
 51 52  1  0  0  0  0
 52 61  1  0  0  0  0
 53 57  1  0  0  0  0
 54 63  1  1  0  0  0
 54 55  1  0  0  0  0
 55 56  2  0  0  0  0
 55 64  1  0  0  0  0
 57 59  2  0  0  0  0
 58 65  2  0  0  0  0
 61 60  1  1  0  0  0
 61 63  1  0  0  0  0
 61 54  1  0  0  0  0
 62 54  1  0  0  0  0
 62 58  1  0  0  0  0
 65 64  1  0  0  0  0
 65 59  1  0  0  0  0
 66 58  1  0  0  0  0
 66 53  2  0  0  0  0
 67 66  1  0  0  0  0
 68 67  1  0  0  0  0
M  END
>  <MODEL>
5

>  <REMARK>
 VINA RESULT:      -7.5      1.265      2.483
  Name = 
  18 active torsions:
  status: ('A' for Active; 'I' for Inactive)
    1  A    between atoms: O_4  and  C_66
    2  A    between atoms: C_6  and  C_22
    3  A    between atoms: C_6  and  S_29
    4  A    between atoms: C_14  and  C_56
    5  A    between atoms: C_15  and  C_25
    6  A    between atoms: C_15  and  N_47
    7  A    between atoms: C_19  and  C_48
    8  A    between atoms: C_20  and  C_26
    9  A    between atoms: C_25  and  C_31
   10  A    between atoms: C_34  and  O_35
   11  A    between atoms: C_34  and  C_57
   12  A    between atoms: O_35  and  P_54
   13  A    between atoms: C_38  and  C_42
   14  A    between atoms: N_44  and  C_56
   15  A    between atoms: N_47  and  C_58
   16  A    between atoms: C_48  and  N_51
   17  A    between atoms: N_51  and  N_68
   18  A    between atoms: C_62  and  C_65
                            x       y       z     vdW  Elec       q    Type
                         _______ _______ _______ _____ _____    ______ ____

>  <TORSDO>
F 18

$$$$
=
 OpenBabel10232410063D

 68 77  0  0  1  0  0  0  0  0999 V2000
  188.6550  173.7620  137.0060 O   0  0  0  0  0  0  0  0  0  0  0  0
  188.7000  175.1660  136.8220 C   0  0  2  0  0  3  0  0  0  0  0  0
  189.5260  174.0190  134.8010 C   0  0  1  0  0  3  0  0  0  0  0  0
  189.0920  173.1020  135.8820 C   0  0  0  0  0  0  0  0  0  0  0  0
  189.3650  175.3950  135.4540 C   0  0  1  0  0  3  0  0  0  0  0  0
  189.0530  171.8510  135.7750 O   0  0  0  0  0  0  0  0  0  0  0  0
  190.7340  175.6180  138.0010 O   0  0  0  0  0  0  0  0  0  0  0  0
  189.4850  175.7910  137.9270 C   0  0  0  0  0  0  0  0  0  0  0  0
  188.7900  176.5340  138.9300 N   0  0  0  0  0  0  0  0  0  0  0  0
  189.2760  177.6360  139.4270 C   0  0  0  0  0  3  0  0  0  0  0  0
  188.5380  178.3940  140.4730 C   0  0  0  0  0  2  0  0  0  0  0  0
  189.1890  178.2170  141.6930 O   0  0  0  0  0  0  0  0  0  0  0  0
  190.9000  176.6300  145.2530 C   0  0  2  0  0  0  0  0  0  0  0  0
  189.1560  178.0470  146.6630 C   0  0  1  0  0  3  0  0  0  0  0  0
  190.1130  176.6910  143.9690 C   0  0  1  0  0  0  0  0  0  0  0  0
  188.7530  176.9960  144.1890 O   0  0  0  0  0  0  0  0  0  0  0  0
  191.9800  175.5630  145.3440 C   0  0  0  0  0  1  0  0  0  0  0  0
  185.8200  178.3770  143.7860 C   0  0  1  0  0  3  0  0  0  0  0  0
  185.9040  179.0190  147.0840 O   0  0  0  0  0  1  0  0  0  0  0  0
  186.7800  178.4530  146.1590 C   0  0  1  0  0  3  0  0  0  0  0  0
  190.1430  176.8780  146.6010 C   0  0  0  0  0  2  0  0  0  0  0  0
  187.7490  177.5020  146.8450 C   0  0  2  0  0  3  0  0  0  0  0  0
  188.4850  178.1350  148.0170 C   0  0  0  0  0  2  0  0  0  0  0  0
  190.5060  179.0900  144.1830 C   0  0  0  0  0  2  0  0  0  0  0  0
  187.1980  176.5310  142.1260 O   0  0  0  0  0  0  0  0  0  0  0  0
  191.2560  177.7410  144.2040 C   0  0  0  0  0  0  0  0  0  0  0  0
  187.0270  178.9120  143.2900 O   0  0  0  0  0  0  0  0  0  0  0  0
  188.0200  177.6210  142.7780 P   0  0  2  0  0  0  0  0  0  0  0  0
  185.9830  177.6590  145.1360 C   0  0  0  0  0  2  0  0  0  0  0  0
  184.8790  179.3970  143.9060 O   0  0  0  0  0  1  0  0  0  0  0  0
  190.4050  175.5750  142.9650 C   0  0  0  0  0  1  0  0  0  0  0  0
  191.5930  178.9030  145.1600 C   0  0  0  0  0  2  0  0  0  0  0  0
  188.4650  176.2570  134.5890 C   0  0  0  0  0  2  0  0  0  0  0  0
  187.1520  175.5370  134.3470 C   0  0  0  0  0  2  0  0  0  0  0  0
  186.0500  176.4410  134.6390 N   0  0  0  0  0  2  0  0  0  0  0  0
  184.1470  176.5220  137.6440 N   0  0  0  0  0  0  0  0  0  0  0  0
  185.8890  177.6760  136.8320 C   0  0  0  0  0  0  0  0  0  0  0  0
  185.5250  176.6780  135.9470 C   0  0  0  0  0  0  0  0  0  0  0  0
  185.0000  177.5370  137.8840 C   0  0  0  0  0  0  0  0  0  0  0  0
  184.4800  176.0020  136.4730 N   0  0  0  0  0  0  0  0  0  0  0  0
  184.8900  179.0650  140.0450 C   0  0  0  0  0  3  0  0  0  0  0  0
  184.9350  178.3680  139.0600 C   0  0  0  0  0  0  0  0  0  0  0  0
  187.8110  179.4770  136.5940 C   0  0  0  0  0  3  0  0  0  0  0  0
  186.9340  178.6580  136.7040 C   0  0  0  0  0  0  0  0  0  0  0  0
  183.7650  174.9460  135.8860 N   0  0  0  0  0  2  0  0  0  0  0  0
  184.2150  173.5630  135.9300 C   0  0  0  0  0  2  0  0  0  0  0  0
  181.7390  173.2590  135.9670 C   0  0  0  0  0  2  0  0  0  0  0  0
  183.0690  172.6240  135.6020 C   0  0  0  0  0  3  0  0  0  0  0  0
  182.3730  172.2370  136.8960 C   0  0  0  0  0  2  0  0  0  0  0  0
  190.9880  173.8020  134.4200 C   0  0  0  0  0  2  0  0  0  0  0  0
  191.9500  173.3200  135.8640 S   0  0  0  0  0  0  0  0  0  0  0  0
  193.4220  172.9900  135.2750 C   0  0  0  0  0  2  0  0  0  0  0  0
  199.4420  174.2780  137.0820 C   0  0  0  0  0  3  0  0  0  0  0  0
  195.5140  171.5890  135.9110 C   0  0  2  0  0  0  0  0  0  0  0  0
  196.4220  170.3820  135.8510 C   0  0  0  0  0  0  0  0  0  0  0  0
  196.0020  169.1810  135.4650 C   0  0  0  0  0  2  0  0  0  0  0  0
  200.2040  173.1180  137.2050 C   0  0  0  0  0  3  0  0  0  0  0  0
  197.5090  172.9550  136.4440 C   0  0  0  0  0  0  0  0  0  0  0  0
  199.6320  171.8780  136.9330 C   0  0  0  0  0  3  0  0  0  0  0  0
  193.3930  170.4400  134.8200 C   0  0  0  0  0  1  0  0  0  0  0  0
  194.0460  171.6430  135.4800 C   0  0  2  0  0  0  0  0  0  0  0  0
  196.1630  172.8440  136.0780 O   0  0  0  0  0  0  0  0  0  0  0  0
  194.4080  171.3980  136.9410 C   0  0  0  0  0  2  0  0  0  0  0  0
  197.7550  170.5380  136.2340 O   0  0  0  0  0  0  0  0  0  0  0  0
  198.2950  171.7900  136.5430 C   0  0  0  0  0  0  0  0  0  0  0  0
  198.0980  174.2180  136.7030 C   0  0  0  0  0  0  0  0  0  0  0  0
  197.4060  175.4310  136.5900 O   0  0  0  0  0  0  0  0  0  0  0  0
  197.0660  176.0650  135.3640 C   0  0  0  0  0  1  0  0  0  0  0  0
  2  1  1  0  0  0  0
  2  8  1  1  0  0  0
  3 50  1  1  0  0  0
  3  5  1  0  0  0  0
  3  4  1  0  0  0  0
  4  1  1  0  0  0  0
  5 33  1  6  0  0  0
  5  2  1  0  0  0  0
  6  4  2  0  0  0  0
  8  7  2  0  0  0  0
  8  9  1  0  0  0  0
  9 10  2  0  0  0  0
 10 11  1  0  0  0  0
 11 12  1  0  0  0  0
 12 28  1  0  0  0  0
 13 17  1  1  0  0  0
 13 21  1  0  0  0  0
 14 21  1  1  0  0  0
 14 22  1  0  0  0  0
 14 23  1  0  0  0  0
 15 31  1  6  0  0  0
 15 16  1  0  0  0  0
 15 26  1  0  0  0  0
 15 13  1  0  0  0  0
 18 30  1  1  0  0  0
 18 29  1  0  0  0  0
 20 22  1  0  0  0  0
 20 19  1  1  0  0  0
 22 23  1  1  0  0  0
 24 26  1  0  0  0  0
 24 32  1  0  0  0  0
 26 32  1  0  0  0  0
 26 13  1  0  0  0  0
 27 18  1  0  0  0  0
 28 25  2  6  0  0  0
 28 27  1  0  0  0  0
 28 16  1  0  0  0  0
 29 20  1  0  0  0  0
 34 33  1  0  0  0  0
 34 35  1  0  0  0  0
 35 38  1  0  0  0  0
 36 39  2  0  0  0  0
 37 39  1  0  0  0  0
 38 40  1  0  0  0  0
 38 37  2  0  0  0  0
 39 42  1  0  0  0  0
 40 36  1  0  0  0  0
 42 41  3  0  0  0  0
 43 44  3  0  0  0  0
 44 37  1  0  0  0  0
 45 46  1  0  0  0  0
 45 40  1  0  0  0  0
 47 49  1  0  0  0  0
 48 46  1  0  0  0  0
 48 47  1  0  0  0  0
 48 49  1  0  0  0  0
 50 51  1  0  0  0  0
 52 61  1  0  0  0  0
 52 51  1  0  0  0  0
 53 57  1  0  0  0  0
 54 62  1  0  0  0  0
 54 63  1  1  0  0  0
 55 54  1  0  0  0  0
 55 64  1  0  0  0  0
 56 55  2  0  0  0  0
 58 65  2  0  0  0  0
 58 66  1  0  0  0  0
 59 57  2  0  0  0  0
 61 60  1  6  0  0  0
 61 54  1  0  0  0  0
 61 63  1  0  0  0  0
 62 58  1  0  0  0  0
 64 65  1  0  0  0  0
 65 59  1  0  0  0  0
 66 53  2  0  0  0  0
 67 66  1  0  0  0  0
 68 67  1  0  0  0  0
M  END
>  <MODEL>
6

>  <REMARK>
 VINA RESULT:      -6.5      2.425     10.622
  Name = 
  18 active torsions:
  status: ('A' for Active; 'I' for Inactive)
    1  A    between atoms: O_4  and  C_66
    2  A    between atoms: C_6  and  C_22
    3  A    between atoms: C_6  and  S_29
    4  A    between atoms: C_14  and  C_56
    5  A    between atoms: C_15  and  C_25
    6  A    between atoms: C_15  and  N_47
    7  A    between atoms: C_19  and  C_48
    8  A    between atoms: C_20  and  C_26
    9  A    between atoms: C_25  and  C_31
   10  A    between atoms: C_34  and  O_35
   11  A    between atoms: C_34  and  C_57
   12  A    between atoms: O_35  and  P_54
   13  A    between atoms: C_38  and  C_42
   14  A    between atoms: N_44  and  C_56
   15  A    between atoms: N_47  and  C_58
   16  A    between atoms: C_48  and  N_51
   17  A    between atoms: N_51  and  N_68
   18  A    between atoms: C_62  and  C_65
                            x       y       z     vdW  Elec       q    Type
                         _______ _______ _______ _____ _____    ______ ____

>  <TORSDO>
F 18

$$$$
=
 OpenBabel10232410063D

 68 77  0  0  1  0  0  0  0  0999 V2000
  189.7130  177.8290  136.9880 O   0  0  0  0  0  0  0  0  0  0  0  0
  189.5110  176.4270  137.0010 C   0  0  2  0  0  3  0  0  0  0  0  0
  187.6840  177.5590  138.2120 C   0  0  1  0  0  3  0  0  0  0  0  0
  188.6940  178.4810  137.6410 C   0  0  0  0  0  0  0  0  0  0  0  0
  188.2720  176.1840  137.8790 C   0  0  1  0  0  3  0  0  0  0  0  0
  188.6080  179.7340  137.6770 O   0  0  0  0  0  0  0  0  0  0  0  0
  190.7640  175.4170  138.7730 O   0  0  0  0  0  0  0  0  0  0  0  0
  190.7200  175.7510  137.5560 C   0  0  0  0  0  0  0  0  0  0  0  0
  191.8480  175.5480  136.7020 N   0  0  0  0  0  0  0  0  0  0  0  0
  193.0440  175.9370  137.0420 C   0  0  0  0  0  3  0  0  0  0  0  0
  194.2050  175.7180  136.1390 C   0  0  0  0  0  2  0  0  0  0  0  0
  195.1850  175.0140  136.8370 O   0  0  0  0  0  0  0  0  0  0  0  0
  199.2560  174.1480  135.9420 C   0  0  2  0  0  0  0  0  0  0  0  0
  198.9060  171.7170  136.9410 C   0  0  1  0  0  3  0  0  0  0  0  0
  197.7880  174.4160  135.7270 C   0  0  1  0  0  0  0  0  0  0  0  0
  197.0280  173.2280  135.6860 O   0  0  0  0  0  0  0  0  0  0  0  0
  200.2310  175.0450  135.1930 C   0  0  0  0  0  1  0  0  0  0  0  0
  194.5830  171.1350  136.2460 C   0  0  1  0  0  3  0  0  0  0  0  0
  196.9600  168.9060  137.0710 O   0  0  0  0  0  1  0  0  0  0  0  0
  196.9430  170.2500  136.6970 C   0  0  1  0  0  3  0  0  0  0  0  0
  199.7300  172.6620  136.0620 C   0  0  0  0  0  2  0  0  0  0  0  0
  198.2680  170.6520  136.0650 C   0  0  2  0  0  3  0  0  0  0  0  0
  199.4730  170.3130  136.9300 C   0  0  0  0  0  2  0  0  0  0  0  0
  197.6910  174.1880  138.1550 C   0  0  0  0  0  2  0  0  0  0  0  0
  194.6050  173.5320  134.7240 O   0  0  0  0  0  0  0  0  0  0  0  0
  198.4650  174.9330  137.0460 C   0  0  0  0  0  0  0  0  0  0  0  0
  194.8630  172.2640  137.0440 O   0  0  0  0  0  0  0  0  0  0  0  0
  195.3810  173.5310  136.0230 P   0  0  2  0  0  0  0  0  0  0  0  0
  195.8440  170.4690  135.6700 C   0  0  0  0  0  2  0  0  0  0  0  0
  193.8620  170.2080  136.9950 O   0  0  0  0  0  1  0  0  0  0  0  0
  197.4590  175.4700  134.6690 C   0  0  0  0  0  1  0  0  0  0  0  0
  199.1460  174.3630  138.3070 C   0  0  0  0  0  2  0  0  0  0  0  0
  187.2490  175.3760  137.1030 C   0  0  0  0  0  2  0  0  0  0  0  0
  187.1820  175.8810  135.6740 C   0  0  0  0  0  2  0  0  0  0  0  0
  185.7900  175.9360  135.2520 N   0  0  0  0  0  2  0  0  0  0  0  0
  183.3620  173.5110  136.1910 N   0  0  0  0  0  0  0  0  0  0  0  0
  183.7540  175.6550  136.7140 C   0  0  0  0  0  0  0  0  0  0  0  0
  184.7320  175.1870  135.8560 C   0  0  0  0  0  0  0  0  0  0  0  0
  182.9180  174.5680  136.8990 C   0  0  0  0  0  0  0  0  0  0  0  0
  184.4670  173.8940  135.5710 N   0  0  0  0  0  0  0  0  0  0  0  0
  180.7020  174.5350  138.3510 C   0  0  0  0  0  3  0  0  0  0  0  0
  181.7130  174.5440  137.6900 C   0  0  0  0  0  0  0  0  0  0  0  0
  183.4820  178.0700  137.7580 C   0  0  0  0  0  3  0  0  0  0  0  0
  183.6040  176.9700  137.2800 C   0  0  0  0  0  0  0  0  0  0  0  0
  185.1740  173.0500  134.7000 N   0  0  0  0  0  2  0  0  0  0  0  0
  185.9330  171.8960  135.1590 C   0  0  0  0  0  2  0  0  0  0  0  0
  188.2140  170.8850  135.2010 C   0  0  0  0  0  2  0  0  0  0  0  0
  187.4220  172.1730  135.0660 C   0  0  0  0  0  3  0  0  0  0  0  0
  188.0670  171.8140  136.3940 C   0  0  0  0  0  2  0  0  0  0  0  0
  187.5630  177.7100  139.7250 C   0  0  0  0  0  2  0  0  0  0  0  0
  185.9550  178.3970  140.1630 S   0  0  0  0  0  0  0  0  0  0  0  0
  186.2370  179.2560  141.5060 C   0  0  0  0  0  2  0  0  0  0  0  0
  190.7790  177.3000  145.5930 C   0  0  0  0  0  3  0  0  0  0  0  0
  186.2980  178.4510  143.9740 C   0  0  2  0  0  0  0  0  0  0  0  0
  185.7360  177.7860  145.2100 C   0  0  0  0  0  0  0  0  0  0  0  0
  184.4320  177.6330  145.4180 C   0  0  0  0  0  2  0  0  0  0  0  0
  190.2360  176.8720  146.8030 C   0  0  0  0  0  3  0  0  0  0  0  0
  188.5560  177.8160  144.7650 C   0  0  0  0  0  0  0  0  0  0  0  0
  188.8570  176.8970  146.9940 C   0  0  0  0  0  3  0  0  0  0  0  0
  183.9970  178.7230  142.6930 C   0  0  0  0  0  1  0  0  0  0  0  0
  185.4950  178.9620  142.7740 C   0  0  2  0  0  0  0  0  0  0  0  0
  187.6970  178.2970  143.7700 O   0  0  0  0  0  0  0  0  0  0  0  0
  185.8860  179.9160  143.8980 C   0  0  0  0  0  2  0  0  0  0  0  0
  186.6310  177.3310  146.1800 O   0  0  0  0  0  0  0  0  0  0  0  0
  188.0140  177.3550  145.9810 C   0  0  0  0  0  0  0  0  0  0  0  0
  189.9590  177.7730  144.5650 C   0  0  0  0  0  0  0  0  0  0  0  0
  190.5830  178.1710  143.3750 O   0  0  0  0  0  0  0  0  0  0  0  0
  191.1800  177.2920  142.4320 C   0  0  0  0  0  1  0  0  0  0  0  0
  1  2  1  0  0  0  0
  1  4  1  0  0  0  0
  2  8  1  1  0  0  0
  2  5  1  0  0  0  0
  3 50  1  1  0  0  0
  4  6  2  0  0  0  0
  4  3  1  0  0  0  0
  5 33  1  6  0  0  0
  5  3  1  0  0  0  0
  8  7  2  0  0  0  0
  9 10  2  0  0  0  0
  9  8  1  0  0  0  0
 11 12  1  0  0  0  0
 11 10  1  0  0  0  0
 13 17  1  6  0  0  0
 13 21  1  0  0  0  0
 13 26  1  0  0  0  0
 14 21  1  6  0  0  0
 15 31  1  6  0  0  0
 15 13  1  0  0  0  0
 15 26  1  0  0  0  0
 16 15  1  0  0  0  0
 16 28  1  0  0  0  0
 18 30  1  1  0  0  0
 18 27  1  0  0  0  0
 20 19  1  6  0  0  0
 22 20  1  0  0  0  0
 22 23  1  1  0  0  0
 22 14  1  0  0  0  0
 23 14  1  0  0  0  0
 24 32  1  0  0  0  0
 26 24  1  0  0  0  0
 26 32  1  0  0  0  0
 28 25  2  6  0  0  0
 28 12  1  0  0  0  0
 28 27  1  0  0  0  0
 29 18  1  0  0  0  0
 29 20  1  0  0  0  0
 34 33  1  0  0  0  0
 35 34  1  0  0  0  0
 35 38  1  0  0  0  0
 36 39  2  0  0  0  0
 37 39  1  0  0  0  0
 37 44  1  0  0  0  0
 38 37  2  0  0  0  0
 39 42  1  0  0  0  0
 40 38  1  0  0  0  0
 40 36  1  0  0  0  0
 42 41  3  0  0  0  0
 44 43  3  0  0  0  0
 45 46  1  0  0  0  0
 45 40  1  0  0  0  0
 47 49  1  0  0  0  0
 48 46  1  0  0  0  0
 48 47  1  0  0  0  0
 48 49  1  0  0  0  0
 50 51  1  0  0  0  0
 51 52  1  0  0  0  0
 52 61  1  0  0  0  0
 53 57  1  0  0  0  0
 54 63  1  1  0  0  0
 54 55  1  0  0  0  0
 55 56  2  0  0  0  0
 55 64  1  0  0  0  0
 57 59  2  0  0  0  0
 58 65  2  0  0  0  0
 61 60  1  6  0  0  0
 61 63  1  0  0  0  0
 61 54  1  0  0  0  0
 62 54  1  0  0  0  0
 62 58  1  0  0  0  0
 65 64  1  0  0  0  0
 65 59  1  0  0  0  0
 66 58  1  0  0  0  0
 66 53  2  0  0  0  0
 67 66  1  0  0  0  0
 68 67  1  0  0  0  0
M  END
>  <MODEL>
7

>  <REMARK>
 VINA RESULT:      -6.1      1.366      3.525
  Name = 
  18 active torsions:
  status: ('A' for Active; 'I' for Inactive)
    1  A    between atoms: O_4  and  C_66
    2  A    between atoms: C_6  and  C_22
    3  A    between atoms: C_6  and  S_29
    4  A    between atoms: C_14  and  C_56
    5  A    between atoms: C_15  and  C_25
    6  A    between atoms: C_15  and  N_47
    7  A    between atoms: C_19  and  C_48
    8  A    between atoms: C_20  and  C_26
    9  A    between atoms: C_25  and  C_31
   10  A    between atoms: C_34  and  O_35
   11  A    between atoms: C_34  and  C_57
   12  A    between atoms: O_35  and  P_54
   13  A    between atoms: C_38  and  C_42
   14  A    between atoms: N_44  and  C_56
   15  A    between atoms: N_47  and  C_58
   16  A    between atoms: C_48  and  N_51
   17  A    between atoms: N_51  and  N_68
   18  A    between atoms: C_62  and  C_65
                            x       y       z     vdW  Elec       q    Type
                         _______ _______ _______ _____ _____    ______ ____

>  <TORSDO>
F 18

$$$$
=
 OpenBabel10232410063D

 68 77  0  0  1  0  0  0  0  0999 V2000
  190.2110  174.4280  137.9940 O   0  0  0  0  0  0  0  0  0  0  0  0
  188.9680  175.0080  137.6420 C   0  0  2  0  0  3  0  0  0  0  0  0
  189.8350  173.6600  135.7680 C   0  0  1  0  0  3  0  0  0  0  0  0
  190.7020  173.6540  136.9700 C   0  0  0  0  0  0  0  0  0  0  0  0
  188.7290  174.6400  136.1680 C   0  0  1  0  0  3  0  0  0  0  0  0
  191.7460  172.9630  137.0860 O   0  0  0  0  0  0  0  0  0  0  0  0
  189.4580  177.2350  136.9130 O   0  0  0  0  0  0  0  0  0  0  0  0
  189.0330  176.4860  137.8370 C   0  0  0  0  0  0  0  0  0  0  0  0
  188.6640  177.0300  139.1060 N   0  0  0  0  0  0  0  0  0  0  0  0
  188.6560  178.3140  139.3250 C   0  0  0  0  0  3  0  0  0  0  0  0
  188.2720  178.8620  140.6530 C   0  0  0  0  0  2  0  0  0  0  0  0
  189.0220  178.2150  141.6350 O   0  0  0  0  0  0  0  0  0  0  0  0
  190.9030  176.6140  145.1020 C   0  0  2  0  0  0  0  0  0  0  0  0
  189.2280  178.0240  146.5990 C   0  0  1  0  0  3  0  0  0  0  0  0
  190.0550  176.6800  143.8570 C   0  0  1  0  0  0  0  0  0  0  0  0
  188.7070  176.9830  144.1440 O   0  0  0  0  0  0  0  0  0  0  0  0
  191.9870  175.5470  145.1360 C   0  0  0  0  0  1  0  0  0  0  0  0
  185.7570  178.3640  143.8880 C   0  0  1  0  0  3  0  0  0  0  0  0
  185.9990  178.9920  147.1810 O   0  0  0  0  0  1  0  0  0  0  0  0
  186.8300  178.4300  146.2120 C   0  0  1  0  0  3  0  0  0  0  0  0
  190.2110  176.8550  146.4850 C   0  0  0  0  0  2  0  0  0  0  0  0
  187.8320  177.4770  146.8470 C   0  0  2  0  0  3  0  0  0  0  0  0
  188.6220  178.1050  147.9850 C   0  0  0  0  0  2  0  0  0  0  0  0
  190.4570  179.0780  144.0630 C   0  0  0  0  0  2  0  0  0  0  0  0
  187.0550  176.5250  142.1560 O   0  0  0  0  0  0  0  0  0  0  0  0
  191.2080  177.7290  144.0420 C   0  0  0  0  0  0  0  0  0  0  0  0
  186.9400  178.9020  143.3360 O   0  0  0  0  0  0  0  0  0  0  0  0
  187.9070  177.6140  142.7720 P   0  0  2  0  0  0  0  0  0  0  0  0
  185.9850  177.6410  145.2260 C   0  0  0  0  0  2  0  0  0  0  0  0
  184.8230  179.3820  144.0570 O   0  0  0  0  0  1  0  0  0  0  0  0
  190.2990  175.5680  142.8350 C   0  0  0  0  0  1  0  0  0  0  0  0
  191.5900  178.8870  144.9850 C   0  0  0  0  0  2  0  0  0  0  0  0
  187.3800  173.9590  136.0260 C   0  0  0  0  0  2  0  0  0  0  0  0
  186.4660  174.8160  135.1720 C   0  0  0  0  0  2  0  0  0  0  0  0
  185.8030  175.7970  136.0180 N   0  0  0  0  0  2  0  0  0  0  0  0
  182.3750  174.9950  136.5340 N   0  0  0  0  0  0  0  0  0  0  0  0
  183.7900  176.5330  137.3480 C   0  0  0  0  0  0  0  0  0  0  0  0
  184.4530  175.6890  136.4760 C   0  0  0  0  0  0  0  0  0  0  0  0
  182.4900  176.0570  137.3560 C   0  0  0  0  0  0  0  0  0  0  0  0
  183.5730  174.7740  136.0150 N   0  0  0  0  0  0  0  0  0  0  0  0
  180.4510  177.0790  138.7030 C   0  0  0  0  0  3  0  0  0  0  0  0
  181.3830  176.6180  138.0880 C   0  0  0  0  0  0  0  0  0  0  0  0
  184.7350  178.6090  138.6860 C   0  0  0  0  0  3  0  0  0  0  0  0
  184.3040  177.6640  138.0740 C   0  0  0  0  0  0  0  0  0  0  0  0
  183.8090  173.7630  135.0710 N   0  0  0  0  0  2  0  0  0  0  0  0
  183.1620  172.4600  135.1260 C   0  0  0  0  0  2  0  0  0  0  0  0
  183.2070  170.2440  136.2730 C   0  0  0  0  0  2  0  0  0  0  0  0
  184.0090  171.4840  135.9210 C   0  0  0  0  0  3  0  0  0  0  0  0
  183.4090  171.3370  137.3100 C   0  0  0  0  0  2  0  0  0  0  0  0
  190.5670  174.1900  134.5380 C   0  0  0  0  0  2  0  0  0  0  0  0
  191.5430  175.6430  134.9630 S   0  0  0  0  0  0  0  0  0  0  0  0
  193.0790  175.1510  134.8220 C   0  0  0  0  0  2  0  0  0  0  0  0
  194.7500  169.0690  135.9950 C   0  0  0  0  0  3  0  0  0  0  0  0
  194.6100  173.9390  136.5340 C   0  0  2  0  0  0  0  0  0  0  0  0
  195.2940  173.7600  137.8700 C   0  0  0  0  0  0  0  0  0  0  0  0
  195.5230  174.7680  138.7050 C   0  0  0  0  0  2  0  0  0  0  0  0
  195.5470  168.9620  137.1330 C   0  0  0  0  0  3  0  0  0  0  0  0
  194.6290  171.4760  136.2910 C   0  0  0  0  0  0  0  0  0  0  0  0
  195.8730  170.1020  137.8640 C   0  0  0  0  0  3  0  0  0  0  0  0
  193.9900  176.4940  136.8410 C   0  0  0  0  0  1  0  0  0  0  0  0
  194.0230  175.2410  135.9830 C   0  0  2  0  0  0  0  0  0  0  0  0
  194.1970  172.7430  135.8840 O   0  0  0  0  0  0  0  0  0  0  0  0
  195.4370  174.8160  135.6030 C   0  0  0  0  0  2  0  0  0  0  0  0
  195.7160  172.4790  138.2300 O   0  0  0  0  0  0  0  0  0  0  0  0
  195.4110  171.3540  137.4570 C   0  0  0  0  0  0  0  0  0  0  0  0
  194.2820  170.3120  135.5600 C   0  0  0  0  0  0  0  0  0  0  0  0
  193.4760  170.3310  134.4140 O   0  0  0  0  0  0  0  0  0  0  0  0
  192.0810  170.0600  134.3930 C   0  0  0  0  0  1  0  0  0  0  0  0
  2  8  1  6  0  0  0
  2  1  1  0  0  0  0
  3 50  1  6  0  0  0
  3  5  1  0  0  0  0
  3  4  1  0  0  0  0
  4  6  2  0  0  0  0
  4  1  1  0  0  0  0
  5 33  1  1  0  0  0
  5  2  1  0  0  0  0
  7  8  2  0  0  0  0
  8  9  1  0  0  0  0
  9 10  2  0  0  0  0
 10 11  1  0  0  0  0
 11 12  1  0  0  0  0
 12 28  1  0  0  0  0
 13 17  1  1  0  0  0
 13 21  1  0  0  0  0
 14 21  1  1  0  0  0
 14 22  1  0  0  0  0
 14 23  1  0  0  0  0
 15 31  1  6  0  0  0
 15 26  1  0  0  0  0
 15 16  1  0  0  0  0
 15 13  1  0  0  0  0
 18 30  1  1  0  0  0
 18 29  1  0  0  0  0
 20 22  1  0  0  0  0
 20 19  1  1  0  0  0
 22 23  1  1  0  0  0
 24 32  1  0  0  0  0
 26 24  1  0  0  0  0
 26 32  1  0  0  0  0
 26 13  1  0  0  0  0
 27 18  1  0  0  0  0
 28 25  2  6  0  0  0
 28 27  1  0  0  0  0
 28 16  1  0  0  0  0
 29 20  1  0  0  0  0
 34 35  1  0  0  0  0
 34 33  1  0  0  0  0
 35 38  1  0  0  0  0
 36 39  2  0  0  0  0
 37 39  1  0  0  0  0
 37 44  1  0  0  0  0
 38 37  2  0  0  0  0
 39 42  1  0  0  0  0
 40 38  1  0  0  0  0
 40 36  1  0  0  0  0
 42 41  3  0  0  0  0
 44 43  3  0  0  0  0
 45 46  1  0  0  0  0
 45 40  1  0  0  0  0
 46 48  1  0  0  0  0
 47 49  1  0  0  0  0
 48 47  1  0  0  0  0
 48 49  1  0  0  0  0
 50 51  1  0  0  0  0
 52 51  1  0  0  0  0
 52 61  1  0  0  0  0
 53 57  1  0  0  0  0
 54 63  1  6  0  0  0
 54 55  1  0  0  0  0
 55 64  1  0  0  0  0
 55 56  2  0  0  0  0
 57 59  2  0  0  0  0
 58 65  2  0  0  0  0
 61 54  1  0  0  0  0
 61 60  1  1  0  0  0
 62 58  1  0  0  0  0
 62 54  1  0  0  0  0
 63 61  1  0  0  0  0
 65 59  1  0  0  0  0
 65 64  1  0  0  0  0
 66 53  2  0  0  0  0
 66 58  1  0  0  0  0
 67 66  1  0  0  0  0
 68 67  1  0  0  0  0
M  END
>  <MODEL>
8

>  <REMARK>
 VINA RESULT:      -5.9      2.466     10.048
  Name = 
  18 active torsions:
  status: ('A' for Active; 'I' for Inactive)
    1  A    between atoms: O_4  and  C_66
    2  A    between atoms: C_6  and  C_22
    3  A    between atoms: C_6  and  S_29
    4  A    between atoms: C_14  and  C_56
    5  A    between atoms: C_15  and  C_25
    6  A    between atoms: C_15  and  N_47
    7  A    between atoms: C_19  and  C_48
    8  A    between atoms: C_20  and  C_26
    9  A    between atoms: C_25  and  C_31
   10  A    between atoms: C_34  and  O_35
   11  A    between atoms: C_34  and  C_57
   12  A    between atoms: O_35  and  P_54
   13  A    between atoms: C_38  and  C_42
   14  A    between atoms: N_44  and  C_56
   15  A    between atoms: N_47  and  C_58
   16  A    between atoms: C_48  and  N_51
   17  A    between atoms: N_51  and  N_68
   18  A    between atoms: C_62  and  C_65
                            x       y       z     vdW  Elec       q    Type
                         _______ _______ _______ _____ _____    ______ ____

>  <TORSDO>
F 18

$$$$
=
 OpenBabel10232410063D

 68 77  0  0  1  0  0  0  0  0999 V2000
  187.6070  179.2450  136.2810 O   0  0  0  0  0  0  0  0  0  0  0  0
  188.4690  178.2590  136.8200 C   0  0  2  0  0  3  0  0  0  0  0  0
  187.5190  177.4760  134.6830 C   0  0  1  0  0  3  0  0  0  0  0  0
  187.0820  178.8370  135.0780 C   0  0  0  0  0  0  0  0  0  0  0  0
  188.3620  177.0420  135.8860 C   0  0  1  0  0  3  0  0  0  0  0  0
  186.3650  179.5830  134.3660 O   0  0  0  0  0  0  0  0  0  0  0  0
  186.9050  178.2810  138.6320 O   0  0  0  0  0  0  0  0  0  0  0  0
  188.0410  177.9250  138.2100 C   0  0  0  0  0  0  0  0  0  0  0  0
  188.9620  177.2520  139.0720 N   0  0  0  0  0  0  0  0  0  0  0  0
  189.9660  177.8730  139.6210 C   0  0  0  0  0  3  0  0  0  0  0  0
  190.9150  177.1550  140.5130 C   0  0  0  0  0  2  0  0  0  0  0  0
  190.7800  177.6610  141.8050 O   0  0  0  0  0  0  0  0  0  0  0  0
  191.0190  176.7020  145.9460 C   0  0  2  0  0  0  0  0  0  0  0  0
  188.7390  178.0020  146.3260 C   0  0  1  0  0  3  0  0  0  0  0  0
  190.8220  176.5210  144.4620 C   0  0  1  0  0  0  0  0  0  0  0  0
  189.4700  176.6550  144.0820 O   0  0  0  0  0  0  0  0  0  0  0  0
  192.0560  175.8100  146.6120 C   0  0  0  0  0  1  0  0  0  0  0  0
  186.8500  177.5680  142.3570 C   0  0  1  0  0  3  0  0  0  0  0  0
  185.5270  178.5530  145.2860 O   0  0  0  0  0  1  0  0  0  0  0  0
  186.7490  178.0210  144.8750 C   0  0  1  0  0  3  0  0  0  0  0  0
  189.7610  176.9800  146.8340 C   0  0  0  0  0  2  0  0  0  0  0  0
  187.4320  177.2890  146.0210 C   0  0  2  0  0  3  0  0  0  0  0  0
  187.5690  178.1350  147.2780 C   0  0  0  0  0  2  0  0  0  0  0  0
  190.8880  178.9600  144.4510 C   0  0  0  0  0  2  0  0  0  0  0  0
  188.9370  175.7690  141.6690 O   0  0  0  0  0  0  0  0  0  0  0  0
  191.6760  177.7380  144.9670 C   0  0  0  0  0  0  0  0  0  0  0  0
  188.1050  178.2120  142.3000 O   0  0  0  0  0  0  0  0  0  0  0  0
  189.3250  177.0250  142.4200 P   0  0  2  0  0  0  0  0  0  0  0  0
  186.5090  177.0230  143.7540 C   0  0  0  0  0  2  0  0  0  0  0  0
  185.8590  178.4540  141.9430 O   0  0  0  0  0  1  0  0  0  0  0  0
  191.5920  175.3580  143.8330 C   0  0  0  0  0  1  0  0  0  0  0  0
  191.4940  179.0270  145.7920 C   0  0  0  0  0  2  0  0  0  0  0  0
  189.7460  176.6430  135.4100 C   0  0  0  0  0  2  0  0  0  0  0  0
  190.5260  176.0420  136.5640 C   0  0  0  0  0  2  0  0  0  0  0  0
  191.8920  175.7840  136.1340 N   0  0  0  0  0  2  0  0  0  0  0  0
  192.6380  172.3070  136.2410 N   0  0  0  0  0  0  0  0  0  0  0  0
  193.8290  174.1810  135.9290 C   0  0  0  0  0  0  0  0  0  0  0  0
  192.4870  174.4860  136.0650 C   0  0  0  0  0  0  0  0  0  0  0  0
  193.8760  172.8020  136.0430 C   0  0  0  0  0  0  0  0  0  0  0  0
  191.8030  173.3350  136.2430 N   0  0  0  0  0  0  0  0  0  0  0  0
  196.0580  171.3020  135.9840 C   0  0  0  0  0  3  0  0  0  0  0  0
  195.0620  171.9850  136.0060 C   0  0  0  0  0  0  0  0  0  0  0  0
  195.8750  175.8180  135.5710 C   0  0  0  0  0  3  0  0  0  0  0  0
  194.9420  175.0740  135.7370 C   0  0  0  0  0  0  0  0  0  0  0  0
  190.4270  173.1870  136.4720 N   0  0  0  0  0  2  0  0  0  0  0  0
  189.4590  173.0040  135.4000 C   0  0  0  0  0  2  0  0  0  0  0  0
  187.2530  172.0090  136.0070 C   0  0  0  0  0  2  0  0  0  0  0  0
  188.0560  173.2920  135.9000 C   0  0  0  0  0  3  0  0  0  0  0  0
  187.0650  172.9250  134.8090 C   0  0  0  0  0  2  0  0  0  0  0  0
  186.3390  176.5230  134.5160 C   0  0  0  0  0  2  0  0  0  0  0  0
  184.9770  177.0130  135.5880 S   0  0  0  0  0  0  0  0  0  0  0  0
  184.7430  175.7320  136.5510 C   0  0  0  0  0  2  0  0  0  0  0  0
  181.6190  178.7450  141.2760 C   0  0  0  0  0  3  0  0  0  0  0  0
  182.4040  175.5280  137.6620 C   0  0  2  0  0  0  0  0  0  0  0  0
  181.1670  174.7900  138.1180 C   0  0  0  0  0  0  0  0  0  0  0  0
  180.7750  173.6380  137.5850 C   0  0  0  0  0  2  0  0  0  0  0  0
  180.3870  178.1500  141.5420 C   0  0  0  0  0  3  0  0  0  0  0  0
  182.0390  177.1170  139.5240 C   0  0  0  0  0  0  0  0  0  0  0  0
  179.9830  177.0320  140.8180 C   0  0  0  0  0  3  0  0  0  0  0  0
  183.2810  173.6670  135.9960 C   0  0  0  0  0  1  0  0  0  0  0  0
  183.4090  175.0500  136.6100 C   0  0  2  0  0  0  0  0  0  0  0  0
  182.8370  176.5910  138.5020 O   0  0  0  0  0  0  0  0  0  0  0  0
  182.2720  175.9860  136.2150 C   0  0  0  0  0  2  0  0  0  0  0  0
  180.3960  175.3580  139.1350 O   0  0  0  0  0  0  0  0  0  0  0  0
  180.8040  176.5060  139.8200 C   0  0  0  0  0  0  0  0  0  0  0  0
  182.4560  178.2440  140.2760 C   0  0  0  0  0  0  0  0  0  0  0  0
  183.6840  178.8910  140.0800 O   0  0  0  0  0  0  0  0  0  0  0  0
  183.9180  179.9320  139.1420 C   0  0  0  0  0  1  0  0  0  0  0  0
  1  2  1  0  0  0  0
  2  8  1  1  0  0  0
  3 50  1  1  0  0  0
  3  4  1  0  0  0  0
  3  5  1  0  0  0  0
  4  1  1  0  0  0  0
  5 33  1  6  0  0  0
  5  2  1  0  0  0  0
  6  4  2  0  0  0  0
  8  7  2  0  0  0  0
  8  9  1  0  0  0  0
  9 10  2  0  0  0  0
 10 11  1  0  0  0  0
 11 12  1  0  0  0  0
 12 28  1  0  0  0  0
 13 17  1  1  0  0  0
 13 21  1  0  0  0  0
 14 21  1  1  0  0  0
 14 23  1  0  0  0  0
 15 31  1  6  0  0  0
 15 26  1  0  0  0  0
 15 13  1  0  0  0  0
 16 15  1  0  0  0  0
 18 30  1  1  0  0  0
 18 29  1  0  0  0  0
 20 19  1  1  0  0  0
 20 22  1  0  0  0  0
 22 14  1  0  0  0  0
 22 23  1  1  0  0  0
 24 26  1  0  0  0  0
 24 32  1  0  0  0  0
 26 32  1  0  0  0  0
 26 13  1  0  0  0  0
 27 18  1  0  0  0  0
 27 28  1  0  0  0  0
 28 25  2  6  0  0  0
 28 16  1  0  0  0  0
 29 20  1  0  0  0  0
 33 34  1  0  0  0  0
 35 34  1  0  0  0  0
 36 40  1  0  0  0  0
 37 39  1  0  0  0  0
 37 38  2  0  0  0  0
 38 35  1  0  0  0  0
 38 40  1  0  0  0  0
 39 36  2  0  0  0  0
 40 45  1  0  0  0  0
 41 42  3  0  0  0  0
 42 39  1  0  0  0  0
 43 44  3  0  0  0  0
 44 37  1  0  0  0  0
 46 48  1  0  0  0  0
 46 45  1  0  0  0  0
 48 47  1  0  0  0  0
 49 48  1  0  0  0  0
 49 47  1  0  0  0  0
 50 51  1  0  0  0  0
 51 52  1  0  0  0  0
 52 61  1  0  0  0  0
 53 57  1  0  0  0  0
 54 63  1  6  0  0  0
 54 55  1  0  0  0  0
 54 62  1  0  0  0  0
 55 64  1  0  0  0  0
 56 55  2  0  0  0  0
 58 65  2  0  0  0  0
 58 66  1  0  0  0  0
 59 57  2  0  0  0  0
 61 60  1  6  0  0  0
 61 54  1  0  0  0  0
 62 58  1  0  0  0  0
 63 61  1  0  0  0  0
 64 65  1  0  0  0  0
 65 59  1  0  0  0  0
 66 53  2  0  0  0  0
 67 66  1  0  0  0  0
 68 67  1  0  0  0  0
M  END
>  <MODEL>
9

>  <REMARK>
 VINA RESULT:      -5.5      3.853      9.460
  Name = 
  18 active torsions:
  status: ('A' for Active; 'I' for Inactive)
    1  A    between atoms: O_4  and  C_66
    2  A    between atoms: C_6  and  C_22
    3  A    between atoms: C_6  and  S_29
    4  A    between atoms: C_14  and  C_56
    5  A    between atoms: C_15  and  C_25
    6  A    between atoms: C_15  and  N_47
    7  A    between atoms: C_19  and  C_48
    8  A    between atoms: C_20  and  C_26
    9  A    between atoms: C_25  and  C_31
   10  A    between atoms: C_34  and  O_35
   11  A    between atoms: C_34  and  C_57
   12  A    between atoms: O_35  and  P_54
   13  A    between atoms: C_38  and  C_42
   14  A    between atoms: N_44  and  C_56
   15  A    between atoms: N_47  and  C_58
   16  A    between atoms: C_48  and  N_51
   17  A    between atoms: N_51  and  N_68
   18  A    between atoms: C_62  and  C_65
                            x       y       z     vdW  Elec       q    Type
                         _______ _______ _______ _____ _____    ______ ____

>  <TORSDO>
F 18

$$$$
