=
 OpenBabel10232410223D

 68 74  0  0  1  0  0  0  0  0999 V2000
  185.3410  178.8090  139.4250 C   0  0  0  0  0  3  0  0  0  0  0  0
  182.2070  175.0720  137.3770 N   0  0  0  0  0  0  0  0  0  0  0  0
  182.5040  177.0460  140.9090 F   0  0  0  0  0  0  0  0  0  0  0  0
  182.9020  176.8300  135.8270 C   0  0  0  0  0  0  0  0  0  0  0  0
  184.3360  178.4520  140.3260 C   0  0  0  0  0  0  0  0  0  0  0  0
  182.5650  175.6510  138.4890 C   0  0  0  0  0  3  0  0  0  0  0  0
  184.3400  177.3810  137.7460 C   0  0  0  0  0  0  0  0  0  0  0  0
  185.3570  178.2570  138.1420 C   0  0  0  0  0  0  0  0  0  0  0  0
  184.1760  177.1450  136.3520 N   0  0  0  0  0  2  0  0  0  0  0  0
  182.4780  175.4120  135.9720 C   0  0  1  0  0  3  0  0  0  0  0  0
  181.7400  177.9930  135.7950 S   0  0  0  0  0  0  0  0  0  0  0  0
  183.4220  177.4440  139.9810 C   0  0  0  0  0  0  0  0  0  0  0  0
  183.4410  176.8460  138.7060 C   0  0  0  0  0  0  0  0  0  0  0  0
  184.2130  179.1630  141.5220 O   0  0  0  0  0  0  0  0  0  0  0  0
  184.3910  178.5590  142.7950 C   0  0  0  0  0  2  0  0  0  0  0  0
  183.1880  178.8030  143.6730 C   0  0  0  0  0  2  0  0  0  0  0  0
  183.5890  178.6240  145.1290 C   0  0  0  0  0  2  0  0  0  0  0  0
  185.0620  178.9940  145.3010 C   0  0  0  0  0  2  0  0  0  0  0  0
  185.7140  178.1140  146.2690 N   0  0  0  0  0  2  0  0  0  0  0  0
  188.0270  177.7040  146.9310 C   0  0  0  0  0  0  0  0  0  0  0  0
  187.0430  177.6380  146.0610 C   0  0  0  0  0  0  0  0  0  0  0  0
  188.8610  176.8860  144.8760 N   0  0  0  0  0  0  0  0  0  0  0  0
  187.5000  177.1240  144.8720 O   0  0  0  0  0  0  0  0  0  0  0  0
  189.2860  177.2860  146.2330 C   0  0  2  0  0  3  0  0  0  0  0  0
  189.9140  176.1020  146.9390 C   0  0  0  0  0  1  0  0  0  0  0  0
  187.9530  178.4070  148.2370 C   0  0  0  0  0  2  0  0  0  0  0  0
  189.3180  178.5040  148.8640 C   0  0  0  0  0  1  0  0  0  0  0  0
  189.4330  177.8190  143.8990 C   0  0  0  0  0  2  0  0  0  0  0  0
  190.1850  177.1060  142.7570 C   0  0  0  0  0  0  0  0  0  0  0  0
  191.6310  177.5450  142.7740 C   0  0  0  0  0  1  0  0  0  0  0  0
  189.6040  177.4840  141.4030 C   0  0  0  0  0  1  0  0  0  0  0  0
  190.1110  175.7190  142.9050 O   0  0  0  0  0  1  0  0  0  0  0  0
  183.4900  174.4350  135.3230 C   0  0  0  0  0  2  0  0  0  0  0  0
  183.8640  172.1320  136.3290 C   0  0  2  0  0  0  0  0  0  0  0  0
  183.0130  172.9760  135.4530 C   0  0  2  0  0  3  0  0  0  0  0  0
  184.2460  171.9230  134.5580 S   0  0  0  0  0  0  0  0  0  0  0  0
  183.3260  170.9560  136.8590 O   0  0  0  0  0  1  0  0  0  0  0  0
  184.9330  172.7580  137.0970 N   0  0  0  0  0  1  0  0  0  0  0  0
  186.7370  178.6430  137.0720 S   0  0  0  0  0  0  0  0  0  0  0  0
  188.3560  174.9320  136.8790 C   0  0  0  0  0  3  0  0  0  0  0  0
  189.6670  175.1370  137.2840 C   0  0  0  0  0  0  0  0  0  0  0  0
  187.4250  175.9660  136.9700 C   0  0  0  0  0  3  0  0  0  0  0  0
  187.7900  177.2290  137.4630 C   0  0  0  0  0  0  0  0  0  0  0  0
  189.1070  177.4300  137.8820 C   0  0  0  0  0  3  0  0  0  0  0  0
  190.0460  176.3950  137.7860 C   0  0  0  0  0  3  0  0  0  0  0  0
  190.9990  174.2880  135.3670 N   0  0  1  0  0  0  0  0  0  0  0  0
  190.7160  172.8400  135.4580 C   0  0  2  0  0  0  0  0  0  0  0  0
  190.7340  174.2220  136.8040 C   0  0  2  0  0  3  0  0  0  0  0  0
  190.3680  172.8780  136.8190 O   0  0  0  0  0  0  0  0  0  0  0  0
  192.0340  173.3150  134.9750 C   0  0  2  0  0  3  0  0  0  0  0  0
  189.7070  172.5050  134.5500 O   0  0  0  0  0  1  0  0  0  0  0  0
  193.1200  173.2330  136.0120 C   0  0  0  0  0  3  0  0  0  0  0  0
  194.2840  172.6360  135.7360 C   0  0  0  0  0  3  0  0  0  0  0  0
  195.6010  173.4770  137.6450 C   0  0  0  0  0  0  0  0  0  0  0  0
  195.2970  172.4100  136.7260 N   0  0  0  0  0  0  0  0  0  0  0  0
  194.6810  173.9160  138.3870 O   0  0  0  0  0  0  0  0  0  0  0  0
  195.4420  171.0110  137.1670 C   0  0  1  0  0  3  0  0  0  0  0  0
  194.7670  170.1090  136.3080 O   0  0  0  0  0  1  0  0  0  0  0  0
  196.8030  170.6860  137.4290 O   0  0  0  0  0  0  0  0  0  0  0  0
  196.9080  169.3260  137.7700 C   0  0  0  0  0  1  0  0  0  0  0  0
  197.0280  173.9100  137.8340 C   0  0  1  0  0  3  0  0  0  0  0  0
  197.4780  174.7920  136.6990 C   0  0  0  0  0  0  0  0  0  0  0  0
  196.8620  175.8140  136.4320 O   0  0  0  0  0  0  0  0  0  0  0  0
  198.6250  174.3430  135.8350 C   0  0  2  0  0  3  0  0  0  0  0  0
  198.2170  174.3280  134.3800 C   0  0  0  0  0  1  0  0  0  0  0  0
  199.0590  173.0910  136.2000 F   0  0  0  0  0  0  0  0  0  0  0  0
  198.5360  175.1520  139.3830 C   0  0  0  0  0  2  0  0  0  0  0  0
  197.3360  174.5680  139.1560 C   0  0  0  0  0  3  0  0  0  0  0  0
  1  5  1  0  0  0  0
  2  6  2  0  0  0  0
  4 10  1  0  0  0  0
  4  9  1  0  0  0  0
  5 14  1  0  0  0  0
  6 13  1  0  0  0  0
  7  8  1  0  0  0  0
  7 13  2  0  0  0  0
  8  1  2  0  0  0  0
  9  7  1  0  0  0  0
 10 33  1  1  0  0  0
 10  2  1  0  0  0  0
 11  4  2  0  0  0  0
 12  5  2  0  0  0  0
 12  3  1  0  0  0  0
 13 12  1  0  0  0  0
 14 15  1  0  0  0  0
 15 16  1  0  0  0  0
 16 17  1  0  0  0  0
 17 18  1  0  0  0  0
 18 19  1  0  0  0  0
 20 26  1  0  0  0  0
 21 19  1  0  0  0  0
 21 20  2  0  0  0  0
 22 24  1  0  0  0  0
 23 22  1  0  0  0  0
 23 21  1  0  0  0  0
 24 20  1  0  0  0  0
 24 25  1  1  0  0  0
 26 27  1  0  0  0  0
 28 22  1  0  0  0  0
 29 30  1  0  0  0  0
 29 32  1  0  0  0  0
 29 28  1  0  0  0  0
 31 29  1  0  0  0  0
 34 37  1  1  0  0  0
 34 38  1  0  0  0  0
 35 33  1  1  0  0  0
 35 34  1  0  0  0  0
 36 35  1  0  0  0  0
 36 34  1  0  0  0  0
 39 43  1  0  0  0  0
 39  8  1  0  0  0  0
 40 42  2  0  0  0  0
 40 41  1  0  0  0  0
 41 45  2  0  0  0  0
 42 43  1  0  0  0  0
 43 44  2  0  0  0  0
 45 44  1  0  0  0  0
 46 47  1  0  0  0  0
 46 48  1  0  0  0  0
 47 49  1  0  0  0  0
 48 49  1  0  0  0  0
 48 41  1  0  0  0  0
 50 46  1  0  0  0  0
 50 47  1  0  0  0  0
 50 52  1  0  0  0  0
 51 47  1  0  0  0  0
 53 52  2  0  0  0  0
 53 55  1  0  0  0  0
 54 61  1  0  0  0  0
 54 56  2  0  0  0  0
 55 57  1  0  0  0  0
 55 54  1  0  0  0  0
 57 59  1  0  0  0  0
 58 57  1  0  0  0  0
 59 60  1  0  0  0  0
 61 68  1  0  0  0  0
 62 61  1  0  0  0  0
 63 62  2  0  0  0  0
 64 66  1  0  0  0  0
 64 62  1  0  0  0  0
 65 64  1  0  0  0  0
 68 67  2  0  0  0  0
M  END
>  <MODEL>
1

>  <REMARK>
 VINA RESULT:      -7.2      0.000      0.000
  Name = 
  23 active torsions:
  status: ('A' for Active; 'I' for Inactive)
    1  A    between atoms: C_1  and  C_18
    2  A    between atoms: O_6  and  C_53
    3  A    between atoms: C_7  and  C_9
    4  A    between atoms: C_7  and  C_60
    5  A    between atoms: C_8  and  C_38
    6  A    between atoms: C_9  and  C_44
    7  A    between atoms: C_11  and  C_59
    8  A    between atoms: C_12  and  C_28
    9  A    between atoms: C_15  and  C_17
   10  A    between atoms: C_17  and  C_18
   11  A    between atoms: C_17  and  C_51
   12  A    between atoms: C_21  and  C_45
   13  A    between atoms: C_22  and  S_68
   14  A    between atoms: O_23  and  C_40
   15  A    between atoms: O_23  and  C_60
   16  A    between atoms: C_24  and  C_29
   17  A    between atoms: C_26  and  N_43
   18  A    between atoms: C_29  and  C_56
   19  A    between atoms: C_36  and  N_41
   20  A    between atoms: N_37  and  C_59
   21  A    between atoms: N_41  and  C_44
   22  A    between atoms: N_43  and  C_53
   23  A    between atoms: C_52  and  S_68
                            x       y       z     vdW  Elec       q    Type
                         _______ _______ _______ _____ _____    ______ ____

>  <TORSDO>
F 23

$$$$
=
 OpenBabel10232410223D

 68 74  0  0  1  0  0  0  0  0999 V2000
  185.7660  177.9280  138.0210 C   0  0  0  0  0  3  0  0  0  0  0  0
  180.9810  175.6840  137.7960 N   0  0  0  0  0  0  0  0  0  0  0  0
  183.1370  177.7370  140.5530 F   0  0  0  0  0  0  0  0  0  0  0  0
  181.7280  176.7800  135.7430 C   0  0  0  0  0  0  0  0  0  0  0  0
  185.0570  178.1440  139.2040 C   0  0  0  0  0  0  0  0  0  0  0  0
  181.8720  176.1790  138.6070 C   0  0  0  0  0  3  0  0  0  0  0  0
  183.8120  176.8820  137.0460 C   0  0  0  0  0  0  0  0  0  0  0  0
  185.1520  177.2770  136.9480 C   0  0  0  0  0  0  0  0  0  0  0  0
  183.1230  176.5780  135.8380 N   0  0  0  0  0  2  0  0  0  0  0  0
  180.8800  175.7090  136.3290 C   0  0  1  0  0  3  0  0  0  0  0  0
  181.1410  178.3160  135.7240 S   0  0  0  0  0  0  0  0  0  0  0  0
  183.7760  177.5920  139.3560 C   0  0  0  0  0  0  0  0  0  0  0  0
  183.1490  176.8990  138.3010 C   0  0  0  0  0  0  0  0  0  0  0  0
  185.6080  178.9730  140.1840 O   0  0  0  0  0  0  0  0  0  0  0  0
  185.0290  179.1290  141.4710 C   0  0  0  0  0  2  0  0  0  0  0  0
  186.0800  178.9990  142.5470 C   0  0  0  0  0  2  0  0  0  0  0  0
  185.4650  178.3280  143.7660 C   0  0  0  0  0  2  0  0  0  0  0  0
  185.5740  179.2600  144.9710 C   0  0  0  0  0  2  0  0  0  0  0  0
  186.1680  178.5720  146.1150 N   0  0  0  0  0  2  0  0  0  0  0  0
  188.3200  177.8230  146.9910 C   0  0  0  0  0  0  0  0  0  0  0  0
  187.4420  177.9360  146.0180 C   0  0  0  0  0  0  0  0  0  0  0  0
  189.2750  177.0130  144.9860 N   0  0  0  0  0  0  0  0  0  0  0  0
  187.9640  177.4290  144.8530 O   0  0  0  0  0  0  0  0  0  0  0  0
  189.5880  177.2790  146.4040 C   0  0  2  0  0  3  0  0  0  0  0  0
  189.9770  175.9860  147.0910 C   0  0  0  0  0  1  0  0  0  0  0  0
  188.1860  178.4590  148.3260 C   0  0  0  0  0  2  0  0  0  0  0  0
  187.7060  177.4580  149.3440 C   0  0  0  0  0  1  0  0  0  0  0  0
  190.0680  177.9130  144.1410 C   0  0  0  0  0  2  0  0  0  0  0  0
  190.1830  177.4220  142.6840 C   0  0  0  0  0  0  0  0  0  0  0  0
  189.1300  178.1150  141.8500 C   0  0  0  0  0  1  0  0  0  0  0  0
  189.9330  175.9250  142.5930 C   0  0  0  0  0  1  0  0  0  0  0  0
  191.4500  177.6970  142.1660 O   0  0  0  0  0  1  0  0  0  0  0  0
  181.1810  174.3240  135.7030 C   0  0  0  0  0  2  0  0  0  0  0  0
  182.3510  172.1320  136.2340 C   0  0  2  0  0  0  0  0  0  0  0  0
  181.6420  173.3190  136.7750 C   0  0  2  0  0  3  0  0  0  0  0  0
  180.5920  171.8050  136.5840 S   0  0  0  0  0  0  0  0  0  0  0  0
  183.1710  171.3900  137.0890 O   0  0  0  0  0  1  0  0  0  0  0  0
  182.6920  172.0930  134.8170 N   0  0  0  0  0  1  0  0  0  0  0  0
  186.1410  176.9060  135.5050 S   0  0  0  0  0  0  0  0  0  0  0  0
  189.3510  175.7290  137.6820 C   0  0  0  0  0  3  0  0  0  0  0  0
  190.4170  176.3140  137.0150 C   0  0  0  0  0  0  0  0  0  0  0  0
  188.0410  176.0410  137.3190 C   0  0  0  0  0  3  0  0  0  0  0  0
  187.7730  176.9420  136.2750 C   0  0  0  0  0  0  0  0  0  0  0  0
  188.8480  177.5400  135.6140 C   0  0  0  0  0  3  0  0  0  0  0  0
  190.1650  177.2240  135.9720 C   0  0  0  0  0  3  0  0  0  0  0  0
  192.3110  175.5720  138.4400 N   0  0  1  0  0  0  0  0  0  0  0  0
  193.4260  176.3260  137.8290 C   0  0  2  0  0  0  0  0  0  0  0  0
  191.7610  175.6870  137.0900 C   0  0  2  0  0  3  0  0  0  0  0  0
  192.7830  176.4920  136.5900 O   0  0  0  0  0  0  0  0  0  0  0  0
  193.6630  174.9850  138.4130 C   0  0  2  0  0  3  0  0  0  0  0  0
  193.6730  177.4790  138.5790 O   0  0  0  0  0  1  0  0  0  0  0  0
  193.7570  173.8910  137.3860 C   0  0  0  0  0  3  0  0  0  0  0  0
  194.9040  173.6560  136.7410 C   0  0  0  0  0  3  0  0  0  0  0  0
  193.9120  171.8180  135.4260 C   0  0  0  0  0  0  0  0  0  0  0  0
  195.0120  172.7190  135.6600 N   0  0  0  0  0  0  0  0  0  0  0  0
  192.7780  172.3040  135.1660 O   0  0  0  0  0  0  0  0  0  0  0  0
  195.8350  173.1670  134.5220 C   0  0  1  0  0  3  0  0  0  0  0  0
  196.1100  174.5570  134.5780 O   0  0  0  0  0  1  0  0  0  0  0  0
  196.9780  172.3370  134.3460 O   0  0  0  0  0  0  0  0  0  0  0  0
  198.1140  172.9750  134.8750 C   0  0  0  0  0  1  0  0  0  0  0  0
  194.1730  170.3430  135.3110 C   0  0  1  0  0  3  0  0  0  0  0  0
  195.1290  169.8800  136.3780 C   0  0  0  0  0  0  0  0  0  0  0  0
  194.8930  170.1070  137.5570 O   0  0  0  0  0  0  0  0  0  0  0  0
  196.4240  169.2320  135.9700 C   0  0  2  0  0  3  0  0  0  0  0  0
  196.6050  167.9150  136.6870 C   0  0  0  0  0  1  0  0  0  0  0  0
  197.4950  170.0500  136.2420 F   0  0  0  0  0  0  0  0  0  0  0  0
  192.7740  168.5180  134.3470 C   0  0  0  0  0  2  0  0  0  0  0  0
  192.9450  169.4660  135.2970 C   0  0  0  0  0  3  0  0  0  0  0  0
  1  5  1  0  0  0  0
  2  6  2  0  0  0  0
  4  9  1  0  0  0  0
  4 10  1  0  0  0  0
  5 12  2  0  0  0  0
  5 14  1  0  0  0  0
  7 13  2  0  0  0  0
  8  7  1  0  0  0  0
  8  1  2  0  0  0  0
  9  7  1  0  0  0  0
 10 33  1  6  0  0  0
 10  2  1  0  0  0  0
 11  4  2  0  0  0  0
 12  3  1  0  0  0  0
 13  6  1  0  0  0  0
 13 12  1  0  0  0  0
 14 15  1  0  0  0  0
 15 16  1  0  0  0  0
 16 17  1  0  0  0  0
 17 18  1  0  0  0  0
 18 19  1  0  0  0  0
 20 26  1  0  0  0  0
 21 19  1  0  0  0  0
 21 20  2  0  0  0  0
 22 24  1  0  0  0  0
 23 22  1  0  0  0  0
 23 21  1  0  0  0  0
 24 20  1  0  0  0  0
 24 25  1  1  0  0  0
 26 27  1  0  0  0  0
 28 22  1  0  0  0  0
 29 28  1  0  0  0  0
 30 29  1  0  0  0  0
 31 29  1  0  0  0  0
 32 29  1  0  0  0  0
 34 38  1  6  0  0  0
 34 36  1  0  0  0  0
 34 35  1  0  0  0  0
 34 37  1  0  0  0  0
 35 33  1  6  0  0  0
 36 35  1  0  0  0  0
 39 43  1  0  0  0  0
 39  8  1  0  0  0  0
 41 48  1  0  0  0  0
 41 40  2  0  0  0  0
 42 40  1  0  0  0  0
 43 42  2  0  0  0  0
 44 45  2  0  0  0  0
 44 43  1  0  0  0  0
 45 41  1  0  0  0  0
 47 50  1  0  0  0  0
 47 46  1  0  0  0  0
 47 51  1  0  0  0  0
 48 46  1  0  0  0  0
 49 48  1  0  0  0  0
 49 47  1  0  0  0  0
 50 46  1  0  0  0  0
 52 50  1  0  0  0  0
 53 52  2  0  0  0  0
 54 55  1  0  0  0  0
 55 53  1  0  0  0  0
 56 54  2  0  0  0  0
 57 58  1  0  0  0  0
 57 55  1  0  0  0  0
 59 57  1  0  0  0  0
 59 60  1  0  0  0  0
 61 54  1  0  0  0  0
 61 62  1  0  0  0  0
 62 63  2  0  0  0  0
 64 66  1  0  0  0  0
 64 62  1  0  0  0  0
 64 65  1  0  0  0  0
 67 68  2  0  0  0  0
 68 61  1  0  0  0  0
M  END
>  <MODEL>
2

>  <REMARK>
 VINA RESULT:      -5.2      1.935      3.242
  Name = 
  23 active torsions:
  status: ('A' for Active; 'I' for Inactive)
    1  A    between atoms: C_1  and  C_18
    2  A    between atoms: O_6  and  C_53
    3  A    between atoms: C_7  and  C_9
    4  A    between atoms: C_7  and  C_60
    5  A    between atoms: C_8  and  C_38
    6  A    between atoms: C_9  and  C_44
    7  A    between atoms: C_11  and  C_59
    8  A    between atoms: C_12  and  C_28
    9  A    between atoms: C_15  and  C_17
   10  A    between atoms: C_17  and  C_18
   11  A    between atoms: C_17  and  C_51
   12  A    between atoms: C_21  and  C_45
   13  A    between atoms: C_22  and  S_68
   14  A    between atoms: O_23  and  C_40
   15  A    between atoms: O_23  and  C_60
   16  A    between atoms: C_24  and  C_29
   17  A    between atoms: C_26  and  N_43
   18  A    between atoms: C_29  and  C_56
   19  A    between atoms: C_36  and  N_41
   20  A    between atoms: N_37  and  C_59
   21  A    between atoms: N_41  and  C_44
   22  A    between atoms: N_43  and  C_53
   23  A    between atoms: C_52  and  S_68
                            x       y       z     vdW  Elec       q    Type
                         _______ _______ _______ _____ _____    ______ ____

>  <TORSDO>
F 23

$$$$
=
 OpenBabel10232410223D

 68 74  0  0  1  0  0  0  0  0999 V2000
  186.0080  177.6560  137.2890 C   0  0  0  0  0  3  0  0  0  0  0  0
  181.2160  175.4150  137.2480 N   0  0  0  0  0  0  0  0  0  0  0  0
  183.3520  177.7390  139.7990 F   0  0  0  0  0  0  0  0  0  0  0  0
  181.9900  176.2880  135.1000 C   0  0  0  0  0  0  0  0  0  0  0  0
  185.2880  177.9960  138.4360 C   0  0  0  0  0  0  0  0  0  0  0  0
  182.1020  175.9890  138.0130 C   0  0  0  0  0  3  0  0  0  0  0  0
  184.0600  176.5200  136.4070 C   0  0  0  0  0  0  0  0  0  0  0  0
  185.4020  176.8990  136.2840 C   0  0  0  0  0  0  0  0  0  0  0  0
  183.3830  176.0940  135.2310 N   0  0  0  0  0  2  0  0  0  0  0  0
  181.1320  175.2870  135.7860 C   0  0  1  0  0  3  0  0  0  0  0  0
  181.4090  177.8160  134.9140 S   0  0  0  0  0  0  0  0  0  0  0  0
  184.0030  177.4670  138.6300 C   0  0  0  0  0  0  0  0  0  0  0  0
  183.3840  176.6700  137.6470 C   0  0  0  0  0  0  0  0  0  0  0  0
  185.8320  178.9220  139.3300 O   0  0  0  0  0  0  0  0  0  0  0  0
  185.1420  179.3660  140.4890 C   0  0  0  0  0  2  0  0  0  0  0  0
  186.0130  179.2260  141.7130 C   0  0  0  0  0  2  0  0  0  0  0  0
  185.4960  178.0750  142.5630 C   0  0  0  0  0  2  0  0  0  0  0  0
  184.7830  178.6310  143.7950 C   0  0  0  0  0  2  0  0  0  0  0  0
  185.0060  177.7770  144.9600 N   0  0  0  0  0  2  0  0  0  0  0  0
  186.7550  177.9430  146.6550 C   0  0  0  0  0  0  0  0  0  0  0  0
  186.3180  177.5560  145.4770 C   0  0  0  0  0  0  0  0  0  0  0  0
  188.5520  177.0230  145.4250 N   0  0  0  0  0  0  0  0  0  0  0  0
  187.3390  176.9780  144.7630 O   0  0  0  0  0  0  0  0  0  0  0  0
  188.2320  177.6920  146.7020 C   0  0  2  0  0  3  0  0  0  0  0  0
  188.5760  176.7740  147.8570 C   0  0  0  0  0  1  0  0  0  0  0  0
  185.9910  178.7970  147.5990 C   0  0  0  0  0  2  0  0  0  0  0  0
  186.3590  180.2460  147.4200 C   0  0  0  0  0  1  0  0  0  0  0  0
  189.4120  177.9030  144.6240 C   0  0  0  0  0  2  0  0  0  0  0  0
  190.3240  177.1270  143.6530 C   0  0  0  0  0  0  0  0  0  0  0  0
  191.5610  176.6780  144.3950 C   0  0  0  0  0  1  0  0  0  0  0  0
  190.7730  178.0130  142.5020 C   0  0  0  0  0  1  0  0  0  0  0  0
  189.6590  176.0150  143.1300 O   0  0  0  0  0  1  0  0  0  0  0  0
  181.4330  173.8440  135.3110 C   0  0  0  0  0  2  0  0  0  0  0  0
  182.9470  171.8480  135.7380 C   0  0  2  0  0  0  0  0  0  0  0  0
  182.4550  173.1570  136.2370 C   0  0  2  0  0  3  0  0  0  0  0  0
  181.6120  171.6790  136.9680 S   0  0  0  0  0  0  0  0  0  0  0  0
  184.1500  171.3450  136.2420 O   0  0  0  0  0  1  0  0  0  0  0  0
  182.5760  171.4150  134.3960 N   0  0  0  0  0  1  0  0  0  0  0  0
  186.4050  176.3760  134.8990 S   0  0  0  0  0  0  0  0  0  0  0  0
  189.5590  176.1380  137.4330 C   0  0  0  0  0  3  0  0  0  0  0  0
  190.6510  176.3400  136.6000 C   0  0  0  0  0  0  0  0  0  0  0  0
  188.2640  176.3100  136.9450 C   0  0  0  0  0  3  0  0  0  0  0  0
  188.0360  176.6820  135.6100 C   0  0  0  0  0  0  0  0  0  0  0  0
  189.1360  176.8970  134.7760 C   0  0  0  0  0  3  0  0  0  0  0  0
  190.4380  176.7190  135.2620 C   0  0  0  0  0  3  0  0  0  0  0  0
  192.0920  175.3480  138.3610 N   0  0  1  0  0  0  0  0  0  0  0  0
  193.2530  176.2610  138.3110 C   0  0  2  0  0  0  0  0  0  0  0  0
  191.9680  175.7580  136.9630 C   0  0  2  0  0  3  0  0  0  0  0  0
  193.0020  176.6910  136.9970 O   0  0  0  0  0  0  0  0  0  0  0  0
  193.4440  174.8300  138.6420 C   0  0  2  0  0  3  0  0  0  0  0  0
  193.1400  177.2140  139.3270 O   0  0  0  0  0  1  0  0  0  0  0  0
  193.9580  174.0100  137.4910 C   0  0  0  0  0  3  0  0  0  0  0  0
  194.6400  172.8800  137.7080 C   0  0  0  0  0  3  0  0  0  0  0  0
  196.4430  171.3640  136.9750 C   0  0  0  0  0  0  0  0  0  0  0  0
  195.2680  172.1350  136.6560 N   0  0  0  0  0  0  0  0  0  0  0  0
  196.3520  170.4560  137.8450 O   0  0  0  0  0  0  0  0  0  0  0  0
  194.3620  171.6670  135.5920 C   0  0  1  0  0  3  0  0  0  0  0  0
  194.6400  172.2820  134.3460 O   0  0  0  0  0  1  0  0  0  0  0  0
  194.2900  170.2460  135.5560 O   0  0  0  0  0  0  0  0  0  0  0  0
  192.9470  169.8370  135.6430 C   0  0  0  0  0  1  0  0  0  0  0  0
  197.6840  171.5250  136.1430 C   0  0  1  0  0  3  0  0  0  0  0  0
  198.2590  172.9080  136.2960 C   0  0  0  0  0  0  0  0  0  0  0  0
  198.5180  173.5810  135.3080 O   0  0  0  0  0  0  0  0  0  0  0  0
  198.6100  173.4050  137.6720 C   0  0  2  0  0  3  0  0  0  0  0  0
  197.9620  174.7460  137.9300 C   0  0  0  0  0  1  0  0  0  0  0  0
  199.9710  173.5210  137.8250 F   0  0  0  0  0  0  0  0  0  0  0  0
  199.6360  170.1670  135.3950 C   0  0  0  0  0  2  0  0  0  0  0  0
  198.7560  170.4880  136.3710 C   0  0  0  0  0  3  0  0  0  0  0  0
  1  5  1  0  0  0  0
  2  6  2  0  0  0  0
  4  9  1  0  0  0  0
  4 10  1  0  0  0  0
  5 12  2  0  0  0  0
  5 14  1  0  0  0  0
  7 13  2  0  0  0  0
  8  7  1  0  0  0  0
  8  1  2  0  0  0  0
  9  7  1  0  0  0  0
 10 33  1  1  0  0  0
 10  2  1  0  0  0  0
 11  4  2  0  0  0  0
 12  3  1  0  0  0  0
 13  6  1  0  0  0  0
 13 12  1  0  0  0  0
 14 15  1  0  0  0  0
 15 16  1  0  0  0  0
 16 17  1  0  0  0  0
 17 18  1  0  0  0  0
 18 19  1  0  0  0  0
 19 21  1  0  0  0  0
 20 24  1  0  0  0  0
 20 26  1  0  0  0  0
 21 20  2  0  0  0  0
 22 24  1  0  0  0  0
 23 22  1  0  0  0  0
 23 21  1  0  0  0  0
 24 25  1  1  0  0  0
 27 26  1  0  0  0  0
 28 22  1  0  0  0  0
 29 30  1  0  0  0  0
 29 28  1  0  0  0  0
 31 29  1  0  0  0  0
 32 29  1  0  0  0  0
 34 38  1  6  0  0  0
 34 35  1  0  0  0  0
 34 37  1  0  0  0  0
 34 36  1  0  0  0  0
 35 33  1  6  0  0  0
 35 36  1  0  0  0  0
 39 43  1  0  0  0  0
 39  8  1  0  0  0  0
 41 48  1  0  0  0  0
 41 40  2  0  0  0  0
 42 40  1  0  0  0  0
 43 42  2  0  0  0  0
 44 45  2  0  0  0  0
 44 43  1  0  0  0  0
 45 41  1  0  0  0  0
 46 50  1  0  0  0  0
 47 46  1  0  0  0  0
 47 50  1  0  0  0  0
 47 51  1  0  0  0  0
 48 49  1  0  0  0  0
 48 46  1  0  0  0  0
 49 47  1  0  0  0  0
 52 53  2  0  0  0  0
 52 50  1  0  0  0  0
 54 56  2  0  0  0  0
 55 54  1  0  0  0  0
 55 53  1  0  0  0  0
 57 55  1  0  0  0  0
 58 57  1  0  0  0  0
 59 57  1  0  0  0  0
 59 60  1  0  0  0  0
 61 62  1  0  0  0  0
 61 68  1  0  0  0  0
 61 54  1  0  0  0  0
 62 64  1  0  0  0  0
 63 62  2  0  0  0  0
 64 66  1  0  0  0  0
 64 65  1  0  0  0  0
 67 68  2  0  0  0  0
M  END
>  <MODEL>
3

>  <REMARK>
 VINA RESULT:      -5.0      1.944      2.717
  Name = 
  23 active torsions:
  status: ('A' for Active; 'I' for Inactive)
    1  A    between atoms: C_1  and  C_18
    2  A    between atoms: O_6  and  C_53
    3  A    between atoms: C_7  and  C_9
    4  A    between atoms: C_7  and  C_60
    5  A    between atoms: C_8  and  C_38
    6  A    between atoms: C_9  and  C_44
    7  A    between atoms: C_11  and  C_59
    8  A    between atoms: C_12  and  C_28
    9  A    between atoms: C_15  and  C_17
   10  A    between atoms: C_17  and  C_18
   11  A    between atoms: C_17  and  C_51
   12  A    between atoms: C_21  and  C_45
   13  A    between atoms: C_22  and  S_68
   14  A    between atoms: O_23  and  C_40
   15  A    between atoms: O_23  and  C_60
   16  A    between atoms: C_24  and  C_29
   17  A    between atoms: C_26  and  N_43
   18  A    between atoms: C_29  and  C_56
   19  A    between atoms: C_36  and  N_41
   20  A    between atoms: N_37  and  C_59
   21  A    between atoms: N_41  and  C_44
   22  A    between atoms: N_43  and  C_53
   23  A    between atoms: C_52  and  S_68
                            x       y       z     vdW  Elec       q    Type
                         _______ _______ _______ _____ _____    ______ ____

>  <TORSDO>
F 23

$$$$
