=
 OpenBabel10232411253D

 36 37  0  0  1  0  0  0  0  0999 V2000
  190.1530  177.0790  139.9270 C   0  0  0  0  0  0  0  0  0  0  0  0
  190.7940  176.8610  141.0390 N   0  0  0  0  0  0  0  0  0  0  0  0
  188.8170  177.5940  139.9550 N   0  0  0  0  0  0  0  0  0  0  0  0
  188.2200  177.9900  138.8790 C   0  0  0  0  0  3  0  0  0  0  0  0
  186.8940  178.4980  138.9460 N   0  0  0  0  0  0  0  0  0  0  0  0
  186.2810  178.5480  140.0820 C   0  0  0  0  0  3  0  0  0  0  0  0
  184.5310  180.0060  139.4340 O   0  0  0  0  0  0  0  0  0  0  0  0
  184.9110  179.0680  140.1830 C   0  0  0  0  0  0  0  0  0  0  0  0
  183.9580  178.5020  141.1850 C   0  0  2  0  0  3  0  0  0  0  0  0
  184.6850  178.1470  142.4680 C   0  0  0  0  0  1  0  0  0  0  0  0
  183.3290  177.3680  140.6690 O   0  0  0  0  0  1  0  0  0  0  0  0
  190.2370  177.0870  142.3700 C   0  0  1  0  0  3  0  0  0  0  0  0
  189.4920  175.8510  142.8590 C   0  0  0  0  0  1  0  0  0  0  0  0
  191.3480  177.4640  143.3460 C   0  0  0  0  0  2  0  0  0  0  0  0
  190.8020  178.1880  144.5740 C   0  0  0  0  0  2  0  0  0  0  0  0
  191.1140  177.4030  145.8510 C   0  0  2  0  0  3  0  0  0  0  0  0
  191.9540  176.2870  145.6280 O   0  0  0  0  0  0  0  0  0  0  0  0
  192.1990  175.6410  146.8530 C   0  0  0  0  0  1  0  0  0  0  0  0
  189.8470  177.0430  146.6340 C   0  0  0  0  0  2  0  0  0  0  0  0
  187.3680  177.8060  147.8330 O   0  0  0  0  0  0  0  0  0  0  0  0
  188.6510  177.4610  145.9120 N   0  0  0  0  0  2  0  0  0  0  0  0
  187.4450  177.8370  146.5760 C   0  0  0  0  0  0  0  0  0  0  0  0
  186.2750  178.2920  145.7770 C   0  0  0  0  0  2  0  0  0  0  0  0
  185.0550  178.4120  146.6670 C   0  0  0  0  0  1  0  0  0  0  0  0
  190.7660  176.8060  138.6970 O   0  0  0  0  0  0  0  0  0  0  0  0
  190.6270  175.5660  138.0050 C   0  0  0  0  0  2  0  0  0  0  0  0
  195.6740  172.3640  136.1190 S   0  0  0  0  0  0  0  0  0  0  0  0
  194.4620  173.3920  136.6480 C   0  0  0  0  0  0  0  0  0  0  0  0
  194.3770  175.6370  137.7700 N   0  0  0  0  0  0  0  0  0  0  0  0
  196.9780  173.3130  136.5980 C   0  0  0  0  0  3  0  0  0  0  0  0
  193.1110  175.8660  137.9380 C   0  0  0  0  0  3  0  0  0  0  0  0
  196.4530  174.4650  137.1820 C   0  0  0  0  0  3  0  0  0  0  0  0
  191.9560  175.0180  137.5970 C   0  0  0  0  0  0  0  0  0  0  0  0
  193.0790  173.1080  136.4900 N   0  0  0  0  0  0  0  0  0  0  0  0
  191.9530  173.8460  136.9590 C   0  0  0  0  0  3  0  0  0  0  0  0
  195.0510  174.5090  137.2110 C   0  0  2  0  0  3  0  0  0  0  0  0
  1  3  1  0  0  0  0
  1  2  2  0  0  0  0
  2 12  1  0  0  0  0
  4  5  1  0  0  0  0
  4  3  2  0  0  0  0
  5  6  2  0  0  0  0
  6  8  1  0  0  0  0
  7  8  2  0  0  0  0
  8  9  1  0  0  0  0
  9 10  1  1  0  0  0
 11  9  1  0  0  0  0
 12 13  1  1  0  0  0
 12 14  1  0  0  0  0
 14 15  1  0  0  0  0
 16 15  1  6  0  0  0
 16 19  1  0  0  0  0
 17 16  1  0  0  0  0
 17 18  1  0  0  0  0
 21 22  1  0  0  0  0
 21 19  1  0  0  0  0
 22 20  2  0  0  0  0
 23 22  1  0  0  0  0
 23 24  1  0  0  0  0
 25  1  1  0  0  0  0
 26 25  1  0  0  0  0
 27 30  1  0  0  0  0
 27 28  1  0  0  0  0
 28 36  1  0  0  0  0
 29 31  2  0  0  0  0
 30 32  2  0  0  0  0
 33 31  1  0  0  0  0
 33 26  1  0  0  0  0
 34 28  2  0  0  0  0
 34 35  1  0  0  0  0
 35 33  2  0  0  0  0
 36 32  1  6  0  0  0
 36 29  1  0  0  0  0
M  END
>  <MODEL>
1

>  <REMARK>
 VINA RESULT:      -7.3      0.000      0.000
  Name = 
  15 active torsions:
  status: ('A' for Active; 'I' for Inactive)
    1  A    between atoms: N_1  and  C_18
    2  A    between atoms: O_7  and  C_14
    3  A    between atoms: O_7  and  C_18
    4  A    between atoms: C_9  and  C_23
    5  A    between atoms: C_10  and  N_21
    6  A    between atoms: C_10  and  C_24
    7  A    between atoms: C_11  and  N_30
    8  A    between atoms: C_11  and  C_31
    9  A    between atoms: C_13  and  C_17
   10  A    between atoms: C_14  and  C_25
   11  A    between atoms: C_15  and  C_24
   12  A    between atoms: C_15  and  C_31
   13  A    between atoms: C_17  and  C_29
   14  A    between atoms: N_20  and  C_22
   15  A    between atoms: C_24  and  O_27
                            x       y       z     vdW  Elec       q    Type
                         _______ _______ _______ _____ _____    ______ ____

>  <TORSDO>
F 15

$$$$
=
 OpenBabel10232411253D

 36 37  0  0  1  0  0  0  0  0999 V2000
  188.1880  178.5110  140.8170 C   0  0  0  0  0  0  0  0  0  0  0  0
  189.0440  178.0680  141.6910 N   0  0  0  0  0  0  0  0  0  0  0  0
  186.8310  178.7620  141.1990 N   0  0  0  0  0  0  0  0  0  0  0  0
  185.8650  178.7240  140.3410 C   0  0  0  0  0  3  0  0  0  0  0  0
  184.5300  178.9810  140.7570 N   0  0  0  0  0  0  0  0  0  0  0  0
  184.0620  178.3980  141.8100 C   0  0  0  0  0  3  0  0  0  0  0  0
  181.7650  178.8260  141.4270 O   0  0  0  0  0  0  0  0  0  0  0  0
  182.6870  178.6440  142.2650 C   0  0  0  0  0  0  0  0  0  0  0  0
  182.3690  178.6950  143.7240 C   0  0  2  0  0  3  0  0  0  0  0  0
  180.8710  178.8040  143.9360 C   0  0  0  0  0  1  0  0  0  0  0  0
  183.0120  179.7790  144.3220 O   0  0  0  0  0  1  0  0  0  0  0  0
  188.7210  177.7730  143.0850 C   0  0  1  0  0  3  0  0  0  0  0  0
  188.2850  176.3220  143.2410 C   0  0  0  0  0  1  0  0  0  0  0  0
  189.9240  178.0710  143.9760 C   0  0  0  0  0  2  0  0  0  0  0  0
  190.3520  176.8460  144.7790 C   0  0  0  0  0  2  0  0  0  0  0  0
  190.6240  177.2200  146.2380 C   0  0  2  0  0  3  0  0  0  0  0  0
  191.9560  176.9590  146.6410 O   0  0  0  0  0  0  0  0  0  0  0  0
  191.9790  175.7940  147.4300 C   0  0  0  0  0  1  0  0  0  0  0  0
  189.5880  176.6210  147.1950 C   0  0  0  0  0  2  0  0  0  0  0  0
  188.0610  178.6170  148.5530 O   0  0  0  0  0  0  0  0  0  0  0  0
  188.2410  177.0450  146.8360 N   0  0  0  0  0  2  0  0  0  0  0  0
  187.5360  178.0550  147.5550 C   0  0  0  0  0  0  0  0  0  0  0  0
  186.1780  178.4680  147.1070 C   0  0  0  0  0  2  0  0  0  0  0  0
  186.0540  178.3020  145.6060 C   0  0  0  0  0  1  0  0  0  0  0  0
  188.5890  178.7410  139.4940 O   0  0  0  0  0  0  0  0  0  0  0  0
  189.6400  178.0180  138.8530 C   0  0  0  0  0  2  0  0  0  0  0  0
  186.4750  173.4960  135.8840 S   0  0  0  0  0  0  0  0  0  0  0  0
  187.5020  174.5830  136.6370 C   0  0  0  0  0  0  0  0  0  0  0  0
  189.8770  174.5390  137.4510 N   0  0  0  0  0  0  0  0  0  0  0  0
  187.5520  172.2050  135.8150 C   0  0  0  0  0  3  0  0  0  0  0  0
  190.0600  175.7110  137.9770 C   0  0  0  0  0  3  0  0  0  0  0  0
  188.7460  172.6360  136.3910 C   0  0  0  0  0  3  0  0  0  0  0  0
  189.1120  176.8280  138.1190 C   0  0  0  0  0  0  0  0  0  0  0  0
  187.1240  175.9150  136.9550 N   0  0  0  0  0  2  0  0  0  0  0  0
  187.8620  176.9120  137.6590 C   0  0  0  0  0  3  0  0  0  0  0  0
  188.7190  173.9610  136.8500 C   0  0  0  0  0  0  0  0  0  0  0  0
  1  3  1  0  0  0  0
  1  2  2  0  0  0  0
  2 12  1  0  0  0  0
  4  5  1  0  0  0  0
  4  3  2  0  0  0  0
  5  6  2  0  0  0  0
  6  8  1  0  0  0  0
  7  8  2  0  0  0  0
  8  9  1  0  0  0  0
  9 10  1  6  0  0  0
  9 11  1  0  0  0  0
 12 13  1  6  0  0  0
 12 14  1  0  0  0  0
 14 15  1  0  0  0  0
 16 15  1  6  0  0  0
 16 17  1  0  0  0  0
 16 19  1  0  0  0  0
 17 18  1  0  0  0  0
 21 19  1  0  0  0  0
 21 22  1  0  0  0  0
 22 20  2  0  0  0  0
 23 22  1  0  0  0  0
 24 23  1  0  0  0  0
 25  1  1  0  0  0  0
 26 25  1  0  0  0  0
 27 28  1  0  0  0  0
 28 36  2  0  0  0  0
 28 34  1  0  0  0  0
 29 31  2  0  0  0  0
 30 27  1  0  0  0  0
 30 32  2  0  0  0  0
 31 33  1  0  0  0  0
 32 36  1  0  0  0  0
 33 26  1  0  0  0  0
 34 35  1  0  0  0  0
 35 33  2  0  0  0  0
 36 29  1  0  0  0  0
M  END
>  <MODEL>
2

>  <REMARK>
 VINA RESULT:      -7.2      3.161      4.056
  Name = 
  15 active torsions:
  status: ('A' for Active; 'I' for Inactive)
    1  A    between atoms: N_1  and  C_18
    2  A    between atoms: O_7  and  C_14
    3  A    between atoms: O_7  and  C_18
    4  A    between atoms: C_9  and  C_23
    5  A    between atoms: C_10  and  N_21
    6  A    between atoms: C_10  and  C_24
    7  A    between atoms: C_11  and  N_30
    8  A    between atoms: C_11  and  C_31
    9  A    between atoms: C_13  and  C_17
   10  A    between atoms: C_14  and  C_25
   11  A    between atoms: C_15  and  C_24
   12  A    between atoms: C_15  and  C_31
   13  A    between atoms: C_17  and  C_29
   14  A    between atoms: N_20  and  C_22
   15  A    between atoms: C_24  and  O_27
                            x       y       z     vdW  Elec       q    Type
                         _______ _______ _______ _____ _____    ______ ____

>  <TORSDO>
F 15

$$$$
=
 OpenBabel10232411253D

 36 37  0  0  1  0  0  0  0  0999 V2000
  188.0900  178.5450  140.9880 C   0  0  0  0  0  0  0  0  0  0  0  0
  188.9160  177.9150  141.7720 N   0  0  0  0  0  0  0  0  0  0  0  0
  186.8330  179.0130  141.4910 N   0  0  0  0  0  0  0  0  0  0  0  0
  185.7240  178.7790  140.8700 C   0  0  0  0  0  3  0  0  0  0  0  0
  184.4960  179.2620  141.3980 N   0  0  0  0  0  0  0  0  0  0  0  0
  183.5360  178.4360  141.6520 C   0  0  0  0  0  3  0  0  0  0  0  0
  182.1470  179.1680  143.4250 O   0  0  0  0  0  0  0  0  0  0  0  0
  182.2560  178.9060  142.1980 C   0  0  0  0  0  0  0  0  0  0  0  0
  181.0650  179.0640  141.3090 C   0  0  2  0  0  3  0  0  0  0  0  0
  180.3540  177.7360  141.1360 C   0  0  0  0  0  1  0  0  0  0  0  0
  181.4520  179.5600  140.0630 O   0  0  0  0  0  1  0  0  0  0  0  0
  188.6520  177.6140  143.1770 C   0  0  1  0  0  3  0  0  0  0  0  0
  188.3140  176.1390  143.3570 C   0  0  0  0  0  1  0  0  0  0  0  0
  189.8570  177.9960  144.0310 C   0  0  0  0  0  2  0  0  0  0  0  0
  190.2610  176.8700  144.9790 C   0  0  0  0  0  2  0  0  0  0  0  0
  190.4420  177.3960  146.4040 C   0  0  2  0  0  3  0  0  0  0  0  0
  191.7250  177.1300  146.9390 O   0  0  0  0  0  0  0  0  0  0  0  0
  191.9880  175.7510  146.8410 C   0  0  0  0  0  1  0  0  0  0  0  0
  189.3090  176.9520  147.3350 C   0  0  0  0  0  2  0  0  0  0  0  0
  186.7510  176.8200  146.0690 O   0  0  0  0  0  0  0  0  0  0  0  0
  188.2710  177.9720  147.4170 N   0  0  0  0  0  2  0  0  0  0  0  0
  187.0090  177.8390  146.7630 C   0  0  0  0  0  0  0  0  0  0  0  0
  185.9800  178.9010  146.9240 C   0  0  0  0  0  2  0  0  0  0  0  0
  185.2620  179.1310  145.6090 C   0  0  0  0  0  1  0  0  0  0  0  0
  188.4250  178.7640  139.6450 O   0  0  0  0  0  0  0  0  0  0  0  0
  187.9490  177.9520  138.5720 C   0  0  0  0  0  2  0  0  0  0  0  0
  191.5660  173.3930  136.2450 S   0  0  0  0  0  0  0  0  0  0  0  0
  190.7890  174.7140  136.9210 C   0  0  0  0  0  0  0  0  0  0  0  0
  191.4640  176.6360  138.3870 N   0  0  0  0  0  0  0  0  0  0  0  0
  193.0920  173.7000  136.8830 C   0  0  0  0  0  3  0  0  0  0  0  0
  190.3660  177.3000  138.5780 C   0  0  0  0  0  3  0  0  0  0  0  0
  192.9930  174.8670  137.6400 C   0  0  0  0  0  3  0  0  0  0  0  0
  189.0060  177.0090  138.0950 C   0  0  0  0  0  0  0  0  0  0  0  0
  189.4130  174.9980  136.7060 N   0  0  0  0  0  0  0  0  0  0  0  0
  188.6120  176.0310  137.2770 C   0  0  0  0  0  3  0  0  0  0  0  0
  191.7090  175.4320  137.6610 C   0  0  2  0  0  3  0  0  0  0  0  0
  1  3  1  0  0  0  0
  1  2  2  0  0  0  0
  2 12  1  0  0  0  0
  4  5  1  0  0  0  0
  4  3  2  0  0  0  0
  5  6  2  0  0  0  0
  6  8  1  0  0  0  0
  8  7  2  0  0  0  0
  9 10  1  6  0  0  0
  9  8  1  0  0  0  0
 11  9  1  0  0  0  0
 12 13  1  6  0  0  0
 12 14  1  0  0  0  0
 14 15  1  0  0  0  0
 16 15  1  6  0  0  0
 16 17  1  0  0  0  0
 16 19  1  0  0  0  0
 18 17  1  0  0  0  0
 19 21  1  0  0  0  0
 20 22  2  0  0  0  0
 22 23  1  0  0  0  0
 22 21  1  0  0  0  0
 24 23  1  0  0  0  0
 25  1  1  0  0  0  0
 26 25  1  0  0  0  0
 27 30  1  0  0  0  0
 27 28  1  0  0  0  0
 28 36  1  0  0  0  0
 29 31  2  0  0  0  0
 30 32  2  0  0  0  0
 33 26  1  0  0  0  0
 33 31  1  0  0  0  0
 34 28  2  0  0  0  0
 34 35  1  0  0  0  0
 35 33  2  0  0  0  0
 36 32  1  6  0  0  0
 36 29  1  0  0  0  0
M  END
>  <MODEL>
3

>  <REMARK>
 VINA RESULT:      -6.8      2.134      2.950
  Name = 
  15 active torsions:
  status: ('A' for Active; 'I' for Inactive)
    1  A    between atoms: N_1  and  C_18
    2  A    between atoms: O_7  and  C_14
    3  A    between atoms: O_7  and  C_18
    4  A    between atoms: C_9  and  C_23
    5  A    between atoms: C_10  and  N_21
    6  A    between atoms: C_10  and  C_24
    7  A    between atoms: C_11  and  N_30
    8  A    between atoms: C_11  and  C_31
    9  A    between atoms: C_13  and  C_17
   10  A    between atoms: C_14  and  C_25
   11  A    between atoms: C_15  and  C_24
   12  A    between atoms: C_15  and  C_31
   13  A    between atoms: C_17  and  C_29
   14  A    between atoms: N_20  and  C_22
   15  A    between atoms: C_24  and  O_27
                            x       y       z     vdW  Elec       q    Type
                         _______ _______ _______ _____ _____    ______ ____

>  <TORSDO>
F 15

$$$$
=
 OpenBabel10232411253D

 36 37  0  0  1  0  0  0  0  0999 V2000
  189.1700  177.6320  140.3650 C   0  0  0  0  0  0  0  0  0  0  0  0
  189.6040  177.4510  139.1510 N   0  0  0  0  0  0  0  0  0  0  0  0
  187.7900  177.9310  140.6000 N   0  0  0  0  0  0  0  0  0  0  0  0
  187.4270  178.9060  141.3670 C   0  0  0  0  0  3  0  0  0  0  0  0
  186.0460  179.1700  141.5790 N   0  0  0  0  0  0  0  0  0  0  0  0
  185.3370  178.3540  142.2870 C   0  0  0  0  0  3  0  0  0  0  0  0
  183.0610  178.3250  141.6330 O   0  0  0  0  0  0  0  0  0  0  0  0
  183.9090  178.5990  142.5240 C   0  0  0  0  0  0  0  0  0  0  0  0
  183.4450  179.1890  143.8160 C   0  0  2  0  0  3  0  0  0  0  0  0
  184.4100  178.8430  144.9330 C   0  0  0  0  0  1  0  0  0  0  0  0
  182.1690  178.7230  144.1320 O   0  0  0  0  0  1  0  0  0  0  0  0
  188.7710  177.5480  137.9550 C   0  0  1  0  0  3  0  0  0  0  0  0
  189.0300  178.8600  137.2240 C   0  0  0  0  0  1  0  0  0  0  0  0
  189.0350  176.3600  137.0340 C   0  0  0  0  0  2  0  0  0  0  0  0
  190.1500  176.6530  136.0340 C   0  0  0  0  0  2  0  0  0  0  0  0
  191.1480  175.4950  135.9770 C   0  0  2  0  0  3  0  0  0  0  0  0
  190.8380  174.5400  134.9800 O   0  0  0  0  0  0  0  0  0  0  0  0
  190.1210  173.4790  135.5630 C   0  0  0  0  0  1  0  0  0  0  0  0
  191.3800  174.8600  137.3520 C   0  0  0  0  0  2  0  0  0  0  0  0
  193.8040  176.1030  138.2130 O   0  0  0  0  0  0  0  0  0  0  0  0
  192.6860  174.2150  137.4150 N   0  0  0  0  0  2  0  0  0  0  0  0
  193.8580  174.8950  137.8630 C   0  0  0  0  0  0  0  0  0  0  0  0
  195.1510  174.1620  137.9410 C   0  0  0  0  0  2  0  0  0  0  0  0
  195.8110  174.4160  139.2810 C   0  0  0  0  0  1  0  0  0  0  0  0
  190.0550  177.5420  141.4480 O   0  0  0  0  0  0  0  0  0  0  0  0
  190.1480  176.3980  142.2960 C   0  0  0  0  0  2  0  0  0  0  0  0
  187.1890  177.8710  147.6210 S   0  0  0  0  0  0  0  0  0  0  0  0
  188.1590  177.4440  146.3240 C   0  0  0  0  0  0  0  0  0  0  0  0
  190.6250  177.1660  145.9440 N   0  0  0  0  0  0  0  0  0  0  0  0
  188.4250  178.1130  148.7360 C   0  0  0  0  0  3  0  0  0  0  0  0
  190.7250  176.8470  144.6900 C   0  0  0  0  0  3  0  0  0  0  0  0
  189.6260  177.8490  148.0800 C   0  0  0  0  0  3  0  0  0  0  0  0
  189.6660  176.7040  143.6770 C   0  0  0  0  0  0  0  0  0  0  0  0
  187.6400  177.0960  145.0480 N   0  0  0  0  0  0  0  0  0  0  0  0
  188.3460  176.7940  143.8460 C   0  0  0  0  0  3  0  0  0  0  0  0
  189.4790  177.4770  146.7350 C   0  0  2  0  0  3  0  0  0  0  0  0
  1  3  1  0  0  0  0
  1 25  1  0  0  0  0
  2  1  2  0  0  0  0
  3  4  2  0  0  0  0
  4  5  1  0  0  0  0
  5  6  2  0  0  0  0
  6  8  1  0  0  0  0
  7  8  2  0  0  0  0
  8  9  1  0  0  0  0
  9 11  1  0  0  0  0
  9 10  1  1  0  0  0
 12 13  1  6  0  0  0
 12  2  1  0  0  0  0
 14 12  1  0  0  0  0
 15 14  1  0  0  0  0
 16 15  1  1  0  0  0
 16 19  1  0  0  0  0
 17 18  1  0  0  0  0
 17 16  1  0  0  0  0
 19 21  1  0  0  0  0
 21 22  1  0  0  0  0
 22 23  1  0  0  0  0
 22 20  2  0  0  0  0
 23 24  1  0  0  0  0
 25 26  1  0  0  0  0
 26 33  1  0  0  0  0
 27 30  1  0  0  0  0
 28 36  1  0  0  0  0
 28 27  1  0  0  0  0
 29 36  1  0  0  0  0
 31 29  2  0  0  0  0
 32 30  2  0  0  0  0
 33 35  2  0  0  0  0
 33 31  1  0  0  0  0
 34 28  2  0  0  0  0
 35 34  1  0  0  0  0
 36 32  1  1  0  0  0
M  END
>  <MODEL>
4

>  <REMARK>
 VINA RESULT:      -6.8      3.308      8.734
  Name = 
  15 active torsions:
  status: ('A' for Active; 'I' for Inactive)
    1  A    between atoms: N_1  and  C_18
    2  A    between atoms: O_7  and  C_14
    3  A    between atoms: O_7  and  C_18
    4  A    between atoms: C_9  and  C_23
    5  A    between atoms: C_10  and  N_21
    6  A    between atoms: C_10  and  C_24
    7  A    between atoms: C_11  and  N_30
    8  A    between atoms: C_11  and  C_31
    9  A    between atoms: C_13  and  C_17
   10  A    between atoms: C_14  and  C_25
   11  A    between atoms: C_15  and  C_24
   12  A    between atoms: C_15  and  C_31
   13  A    between atoms: C_17  and  C_29
   14  A    between atoms: N_20  and  C_22
   15  A    between atoms: C_24  and  O_27
                            x       y       z     vdW  Elec       q    Type
                         _______ _______ _______ _____ _____    ______ ____

>  <TORSDO>
F 15

$$$$
=
 OpenBabel10232411253D

 36 37  0  0  1  0  0  0  0  0999 V2000
  189.6780  176.8650  139.1210 C   0  0  0  0  0  0  0  0  0  0  0  0
  188.4860  176.9530  138.6070 N   0  0  0  0  0  0  0  0  0  0  0  0
  190.7600  176.3350  138.3470 N   0  0  0  0  0  0  0  0  0  0  0  0
  191.9230  176.8980  138.3330 C   0  0  0  0  0  3  0  0  0  0  0  0
  192.9730  176.3450  137.5490 N   0  0  0  0  0  0  0  0  0  0  0  0
  193.4840  175.2040  137.8730 C   0  0  0  0  0  3  0  0  0  0  0  0
  194.4010  174.3580  135.8600 O   0  0  0  0  0  0  0  0  0  0  0  0
  194.5690  174.6070  137.0840 C   0  0  0  0  0  0  0  0  0  0  0  0
  195.8780  174.2740  137.7230 C   0  0  2  0  0  3  0  0  0  0  0  0
  195.7720  174.3810  139.2330 C   0  0  0  0  0  1  0  0  0  0  0  0
  196.8770  175.1290  137.2570 O   0  0  0  0  0  1  0  0  0  0  0  0
  188.1370  176.5210  137.2560 C   0  0  1  0  0  3  0  0  0  0  0  0
  187.6410  175.0800  137.2620 C   0  0  0  0  0  1  0  0  0  0  0  0
  187.0790  177.4500  136.6650 C   0  0  0  0  0  2  0  0  0  0  0  0
  186.5130  178.4040  137.7120 C   0  0  0  0  0  2  0  0  0  0  0  0
  185.1270  177.9450  138.1730 C   0  0  2  0  0  3  0  0  0  0  0  0
  184.4320  177.2010  137.1910 O   0  0  0  0  0  0  0  0  0  0  0  0
  183.7860  176.1130  137.8070 C   0  0  0  0  0  1  0  0  0  0  0  0
  184.2940  179.0970  138.7430 C   0  0  0  0  0  2  0  0  0  0  0  0
  183.7400  177.8400  141.2480 O   0  0  0  0  0  0  0  0  0  0  0  0
  184.8110  179.5250  140.0370 N   0  0  0  0  0  2  0  0  0  0  0  0
  184.4990  178.8450  141.2520 C   0  0  0  0  0  0  0  0  0  0  0  0
  185.0960  179.3120  142.5330 C   0  0  0  0  0  2  0  0  0  0  0  0
  184.0900  179.1660  143.6570 C   0  0  0  0  0  1  0  0  0  0  0  0
  189.9070  177.2840  140.4390 O   0  0  0  0  0  0  0  0  0  0  0  0
  190.3580  176.4120  141.4750 C   0  0  0  0  0  2  0  0  0  0  0  0
  186.5610  177.8380  146.2530 S   0  0  0  0  0  0  0  0  0  0  0  0
  187.7260  177.4050  145.1310 C   0  0  0  0  0  0  0  0  0  0  0  0
  190.1980  176.9670  145.1890 N   0  0  0  0  0  0  0  0  0  0  0  0
  187.5820  177.9360  147.5880 C   0  0  0  0  0  3  0  0  0  0  0  0
  190.5080  176.7020  143.9570 C   0  0  0  0  0  3  0  0  0  0  0  0
  188.8650  177.6180  147.1450 C   0  0  0  0  0  3  0  0  0  0  0  0
  189.6480  176.6860  142.7620 C   0  0  0  0  0  0  0  0  0  0  0  0
  187.4320  177.1580  143.7640 N   0  0  0  0  0  0  0  0  0  0  0  0
  188.3280  176.8630  142.6940 C   0  0  0  0  0  3  0  0  0  0  0  0
  188.9460  177.3220  145.7770 C   0  0  2  0  0  3  0  0  0  0  0  0
  1 25  1  0  0  0  0
  2  1  2  0  0  0  0
  3  1  1  0  0  0  0
  4  3  2  0  0  0  0
  5  6  2  0  0  0  0
  5  4  1  0  0  0  0
  7  8  2  0  0  0  0
  8  9  1  0  0  0  0
  8  6  1  0  0  0  0
  9 10  1  1  0  0  0
 11  9  1  0  0  0  0
 12 13  1  1  0  0  0
 12  2  1  0  0  0  0
 14 12  1  0  0  0  0
 14 15  1  0  0  0  0
 16 15  1  6  0  0  0
 16 19  1  0  0  0  0
 17 18  1  0  0  0  0
 17 16  1  0  0  0  0
 19 21  1  0  0  0  0
 20 22  2  0  0  0  0
 21 22  1  0  0  0  0
 22 23  1  0  0  0  0
 23 24  1  0  0  0  0
 25 26  1  0  0  0  0
 26 33  1  0  0  0  0
 27 30  1  0  0  0  0
 28 36  1  0  0  0  0
 28 27  1  0  0  0  0
 29 36  1  0  0  0  0
 31 29  2  0  0  0  0
 32 30  2  0  0  0  0
 33 31  1  0  0  0  0
 34 28  2  0  0  0  0
 35 33  2  0  0  0  0
 35 34  1  0  0  0  0
 36 32  1  1  0  0  0
M  END
>  <MODEL>
5

>  <REMARK>
 VINA RESULT:      -6.7      3.398      9.071
  Name = 
  15 active torsions:
  status: ('A' for Active; 'I' for Inactive)
    1  A    between atoms: N_1  and  C_18
    2  A    between atoms: O_7  and  C_14
    3  A    between atoms: O_7  and  C_18
    4  A    between atoms: C_9  and  C_23
    5  A    between atoms: C_10  and  N_21
    6  A    between atoms: C_10  and  C_24
    7  A    between atoms: C_11  and  N_30
    8  A    between atoms: C_11  and  C_31
    9  A    between atoms: C_13  and  C_17
   10  A    between atoms: C_14  and  C_25
   11  A    between atoms: C_15  and  C_24
   12  A    between atoms: C_15  and  C_31
   13  A    between atoms: C_17  and  C_29
   14  A    between atoms: N_20  and  C_22
   15  A    between atoms: C_24  and  O_27
                            x       y       z     vdW  Elec       q    Type
                         _______ _______ _______ _____ _____    ______ ____

>  <TORSDO>
F 15

$$$$
=
 OpenBabel10232411253D

 36 37  0  0  1  0  0  0  0  0999 V2000
  185.3620  178.6360  139.2490 C   0  0  0  0  0  0  0  0  0  0  0  0
  186.5840  178.4780  138.8290 N   0  0  0  0  0  0  0  0  0  0  0  0
  184.2670  178.0950  138.5020 N   0  0  0  0  0  0  0  0  0  0  0  0
  183.7040  176.9800  138.8330 C   0  0  0  0  0  3  0  0  0  0  0  0
  182.6210  176.4720  138.0650 N   0  0  0  0  0  0  0  0  0  0  0  0
  182.4700  175.1960  137.9310 C   0  0  0  0  0  3  0  0  0  0  0  0
  180.4300  175.3910  136.7440 O   0  0  0  0  0  0  0  0  0  0  0  0
  181.3610  174.6420  137.1430 C   0  0  0  0  0  0  0  0  0  0  0  0
  181.3160  173.1840  136.8200 C   0  0  2  0  0  3  0  0  0  0  0  0
  180.3260  172.4720  137.7230 C   0  0  0  0  0  1  0  0  0  0  0  0
  182.5820  172.6150  136.9640 O   0  0  0  0  0  1  0  0  0  0  0  0
  186.9490  177.7820  137.5980 C   0  0  1  0  0  3  0  0  0  0  0  0
  187.3970  178.7740  136.5320 C   0  0  0  0  0  1  0  0  0  0  0  0
  188.0490  176.7620  137.8780 C   0  0  0  0  0  2  0  0  0  0  0  0
  189.4350  177.4010  137.8540 C   0  0  0  0  0  2  0  0  0  0  0  0
  190.3050  176.8570  138.9900 C   0  0  2  0  0  3  0  0  0  0  0  0
  190.8250  175.5680  138.7240 O   0  0  0  0  0  0  0  0  0  0  0  0
  192.0600  175.6950  138.0620 C   0  0  0  0  0  1  0  0  0  0  0  0
  189.6050  176.9440  140.3500 C   0  0  0  0  0  2  0  0  0  0  0  0
  189.8320  175.8850  142.9940 O   0  0  0  0  0  0  0  0  0  0  0  0
  190.5220  177.4230  141.3770 N   0  0  0  0  0  2  0  0  0  0  0  0
  190.5880  176.8420  142.6790 C   0  0  0  0  0  0  0  0  0  0  0  0
  191.5780  177.3550  143.6660 C   0  0  0  0  0  2  0  0  0  0  0  0
  191.2020  178.7590  144.0950 C   0  0  0  0  0  1  0  0  0  0  0  0
  185.1120  179.3430  140.4340 O   0  0  0  0  0  0  0  0  0  0  0  0
  184.2050  178.8950  141.4410 C   0  0  0  0  0  2  0  0  0  0  0  0
  186.4160  178.3890  147.2840 S   0  0  0  0  0  0  0  0  0  0  0  0
  185.9940  178.3930  145.6630 C   0  0  0  0  0  0  0  0  0  0  0  0
  187.1160  177.7350  143.5160 N   0  0  0  0  0  0  0  0  0  0  0  0
  187.9710  177.7760  147.0940 C   0  0  0  0  0  3  0  0  0  0  0  0
  186.2480  178.0230  142.5950 C   0  0  0  0  0  3  0  0  0  0  0  0
  188.1640  177.5650  145.7290 C   0  0  0  0  0  3  0  0  0  0  0  0
  184.9140  178.6300  142.7300 C   0  0  0  0  0  0  0  0  0  0  0  0
  184.7230  178.8180  145.1930 N   0  0  0  0  0  2  0  0  0  0  0  0
  184.2620  178.9490  143.8500 C   0  0  0  0  0  3  0  0  0  0  0  0
  187.0630  177.9100  144.9310 C   0  0  0  0  0  0  0  0  0  0  0  0
  1 25  1  0  0  0  0
  2  1  2  0  0  0  0
  3  4  2  0  0  0  0
  3  1  1  0  0  0  0
  5  4  1  0  0  0  0
  6  5  2  0  0  0  0
  7  8  2  0  0  0  0
  8  6  1  0  0  0  0
  9 11  1  0  0  0  0
  9  8  1  0  0  0  0
  9 10  1  1  0  0  0
 12 13  1  6  0  0  0
 12 14  1  0  0  0  0
 12  2  1  0  0  0  0
 15 14  1  0  0  0  0
 16 15  1  6  0  0  0
 16 19  1  0  0  0  0
 17 16  1  0  0  0  0
 18 17  1  0  0  0  0
 19 21  1  0  0  0  0
 21 22  1  0  0  0  0
 22 20  2  0  0  0  0
 22 23  1  0  0  0  0
 23 24  1  0  0  0  0
 25 26  1  0  0  0  0
 26 33  1  0  0  0  0
 28 27  1  0  0  0  0
 29 36  1  0  0  0  0
 30 27  1  0  0  0  0
 31 33  1  0  0  0  0
 31 29  2  0  0  0  0
 32 30  2  0  0  0  0
 33 35  2  0  0  0  0
 34 28  1  0  0  0  0
 35 34  1  0  0  0  0
 36 28  2  0  0  0  0
 36 32  1  0  0  0  0
M  END
>  <MODEL>
6

>  <REMARK>
 VINA RESULT:      -6.6      4.075      8.405
  Name = 
  15 active torsions:
  status: ('A' for Active; 'I' for Inactive)
    1  A    between atoms: N_1  and  C_18
    2  A    between atoms: O_7  and  C_14
    3  A    between atoms: O_7  and  C_18
    4  A    between atoms: C_9  and  C_23
    5  A    between atoms: C_10  and  N_21
    6  A    between atoms: C_10  and  C_24
    7  A    between atoms: C_11  and  N_30
    8  A    between atoms: C_11  and  C_31
    9  A    between atoms: C_13  and  C_17
   10  A    between atoms: C_14  and  C_25
   11  A    between atoms: C_15  and  C_24
   12  A    between atoms: C_15  and  C_31
   13  A    between atoms: C_17  and  C_29
   14  A    between atoms: N_20  and  C_22
   15  A    between atoms: C_24  and  O_27
                            x       y       z     vdW  Elec       q    Type
                         _______ _______ _______ _____ _____    ______ ____

>  <TORSDO>
F 15

$$$$
=
 OpenBabel10232411253D

 36 37  0  0  1  0  0  0  0  0999 V2000
  189.9570  177.1010  139.7930 C   0  0  0  0  0  0  0  0  0  0  0  0
  190.4420  176.7990  140.9620 N   0  0  0  0  0  0  0  0  0  0  0  0
  188.5430  177.2390  139.6120 N   0  0  0  0  0  0  0  0  0  0  0  0
  187.9900  178.3940  139.4400 C   0  0  0  0  0  3  0  0  0  0  0  0
  186.5820  178.4920  139.2670 N   0  0  0  0  0  0  0  0  0  0  0  0
  185.8330  178.8150  140.2680 C   0  0  0  0  0  3  0  0  0  0  0  0
  183.8750  179.8450  139.4230 O   0  0  0  0  0  0  0  0  0  0  0  0
  184.3760  178.9240  140.1210 C   0  0  0  0  0  0  0  0  0  0  0  0
  183.4700  177.9550  140.8090 C   0  0  2  0  0  3  0  0  0  0  0  0
  182.8930  176.9690  139.8120 C   0  0  0  0  0  1  0  0  0  0  0  0
  182.4360  178.6330  141.4560 O   0  0  0  0  0  1  0  0  0  0  0  0
  189.6330  176.5610  142.1540 C   0  0  1  0  0  3  0  0  0  0  0  0
  190.2700  175.4920  143.0330 C   0  0  0  0  0  1  0  0  0  0  0  0
  189.4520  177.8600  142.9340 C   0  0  0  0  0  2  0  0  0  0  0  0
  188.0610  177.9600  143.5560 C   0  0  0  0  0  2  0  0  0  0  0  0
  188.0300  177.2850  144.9290 C   0  0  2  0  0  3  0  0  0  0  0  0
  186.7250  177.1800  145.4680 O   0  0  0  0  0  0  0  0  0  0  0  0
  185.9950  178.3360  145.1370 C   0  0  0  0  0  1  0  0  0  0  0  0
  189.0260  177.9130  145.9080 C   0  0  0  0  0  2  0  0  0  0  0  0
  191.8010  177.6320  145.2900 O   0  0  0  0  0  0  0  0  0  0  0  0
  189.9190  176.9040  146.4640 N   0  0  0  0  0  2  0  0  0  0  0  0
  191.3000  176.8240  146.1160 C   0  0  0  0  0  0  0  0  0  0  0  0
  192.1630  175.7920  146.7540 C   0  0  0  0  0  2  0  0  0  0  0  0
  192.3590  176.1160  148.2210 C   0  0  0  0  0  1  0  0  0  0  0  0
  190.8170  177.2860  138.7010 O   0  0  0  0  0  0  0  0  0  0  0  0
  190.8430  176.4240  137.5640 C   0  0  0  0  0  2  0  0  0  0  0  0
  196.4730  173.6800  137.8090 S   0  0  0  0  0  0  0  0  0  0  0  0
  194.8880  174.2110  137.6990 C   0  0  0  0  0  0  0  0  0  0  0  0
  192.7320  173.2580  136.8340 N   0  0  0  0  0  0  0  0  0  0  0  0
  196.2380  172.1750  137.0940 C   0  0  0  0  0  3  0  0  0  0  0  0
  191.8640  174.2050  137.0170 C   0  0  0  0  0  3  0  0  0  0  0  0
  194.8870  172.0830  136.7660 C   0  0  0  0  0  3  0  0  0  0  0  0
  192.0600  175.5560  137.5680 C   0  0  0  0  0  0  0  0  0  0  0  0
  194.4590  175.4770  138.1810 N   0  0  0  0  0  2  0  0  0  0  0  0
  193.1720  176.0840  138.0820 C   0  0  0  0  0  3  0  0  0  0  0  0
  194.1340  173.2180  137.1020 C   0  0  0  0  0  0  0  0  0  0  0  0
  1  2  2  0  0  0  0
  2 12  1  0  0  0  0
  3  1  1  0  0  0  0
  4  3  2  0  0  0  0
  5  4  1  0  0  0  0
  5  6  2  0  0  0  0
  7  8  2  0  0  0  0
  8  6  1  0  0  0  0
  8  9  1  0  0  0  0
  9 10  1  6  0  0  0
  9 11  1  0  0  0  0
 12 14  1  0  0  0  0
 12 13  1  1  0  0  0
 14 15  1  0  0  0  0
 16 15  1  6  0  0  0
 16 17  1  0  0  0  0
 16 19  1  0  0  0  0
 18 17  1  0  0  0  0
 19 21  1  0  0  0  0
 20 22  2  0  0  0  0
 22 21  1  0  0  0  0
 22 23  1  0  0  0  0
 23 24  1  0  0  0  0
 25  1  1  0  0  0  0
 26 33  1  0  0  0  0
 26 25  1  0  0  0  0
 28 27  1  0  0  0  0
 28 34  1  0  0  0  0
 29 31  2  0  0  0  0
 29 36  1  0  0  0  0
 30 27  1  0  0  0  0
 31 33  1  0  0  0  0
 32 30  2  0  0  0  0
 32 36  1  0  0  0  0
 33 35  2  0  0  0  0
 35 34  1  0  0  0  0
 36 28  2  0  0  0  0
M  END
>  <MODEL>
7

>  <REMARK>
 VINA RESULT:      -6.6      1.211      2.992
  Name = 
  15 active torsions:
  status: ('A' for Active; 'I' for Inactive)
    1  A    between atoms: N_1  and  C_18
    2  A    between atoms: O_7  and  C_14
    3  A    between atoms: O_7  and  C_18
    4  A    between atoms: C_9  and  C_23
    5  A    between atoms: C_10  and  N_21
    6  A    between atoms: C_10  and  C_24
    7  A    between atoms: C_11  and  N_30
    8  A    between atoms: C_11  and  C_31
    9  A    between atoms: C_13  and  C_17
   10  A    between atoms: C_14  and  C_25
   11  A    between atoms: C_15  and  C_24
   12  A    between atoms: C_15  and  C_31
   13  A    between atoms: C_17  and  C_29
   14  A    between atoms: N_20  and  C_22
   15  A    between atoms: C_24  and  O_27
                            x       y       z     vdW  Elec       q    Type
                         _______ _______ _______ _____ _____    ______ ____

>  <TORSDO>
F 15

$$$$
=
 OpenBabel10232411253D

 36 37  0  0  1  0  0  0  0  0999 V2000
  186.5910  178.4120  139.0090 C   0  0  0  0  0  0  0  0  0  0  0  0
  185.3670  178.7540  138.7260 N   0  0  0  0  0  0  0  0  0  0  0  0
  187.0840  178.5420  140.3470 N   0  0  0  0  0  0  0  0  0  0  0  0
  188.3230  178.3150  140.6390 C   0  0  0  0  0  3  0  0  0  0  0  0
  188.7750  178.4520  141.9800 N   0  0  0  0  0  0  0  0  0  0  0  0
  189.8360  177.8260  142.3670 C   0  0  0  0  0  3  0  0  0  0  0  0
  190.5230  179.0840  144.2520 O   0  0  0  0  0  0  0  0  0  0  0  0
  190.3290  177.9470  143.7460 C   0  0  0  0  0  0  0  0  0  0  0  0
  190.6180  176.7260  144.5570 C   0  0  2  0  0  3  0  0  0  0  0  0
  190.9740  177.1090  145.9810 C   0  0  0  0  0  1  0  0  0  0  0  0
  191.6650  176.0010  143.9870 O   0  0  0  0  0  1  0  0  0  0  0  0
  184.4190  179.3010  139.6920 C   0  0  1  0  0  3  0  0  0  0  0  0
  183.2190  179.9150  138.9810 C   0  0  0  0  0  1  0  0  0  0  0  0
  183.9680  178.2100  140.6600 C   0  0  0  0  0  2  0  0  0  0  0  0
  182.9570  178.7350  141.6760 C   0  0  0  0  0  2  0  0  0  0  0  0
  183.5210  178.6540  143.0960 C   0  0  2  0  0  3  0  0  0  0  0  0
  182.6390  179.1700  144.0760 O   0  0  0  0  0  0  0  0  0  0  0  0
  181.3230  178.7840  143.7610 C   0  0  0  0  0  1  0  0  0  0  0  0
  184.9300  179.2480  143.1970 C   0  0  0  0  0  2  0  0  0  0  0  0
  185.3670  179.2940  146.0200 O   0  0  0  0  0  0  0  0  0  0  0  0
  185.8200  178.3570  143.9300 N   0  0  0  0  0  2  0  0  0  0  0  0
  185.9870  178.4300  145.3450 C   0  0  0  0  0  0  0  0  0  0  0  0
  186.8820  177.4600  146.0330 C   0  0  0  0  0  2  0  0  0  0  0  0
  187.3740  178.0470  147.3410 C   0  0  0  0  0  1  0  0  0  0  0  0
  187.4340  177.9190  138.0040 O   0  0  0  0  0  0  0  0  0  0  0  0
  187.4180  176.5640  137.5570 C   0  0  0  0  0  2  0  0  0  0  0  0
  192.7510  173.4400  136.5160 S   0  0  0  0  0  0  0  0  0  0  0  0
  191.4540  174.4490  136.8420 C   0  0  0  0  0  0  0  0  0  0  0  0
  191.1540  176.6850  137.9440 N   0  0  0  0  0  0  0  0  0  0  0  0
  193.9450  174.4030  137.2080 C   0  0  0  0  0  3  0  0  0  0  0  0
  189.8750  176.8970  137.9020 C   0  0  0  0  0  3  0  0  0  0  0  0
  193.3150  175.5440  137.7020 C   0  0  0  0  0  3  0  0  0  0  0  0
  188.8040  176.0360  137.3720 C   0  0  0  0  0  0  0  0  0  0  0  0
  190.1210  174.1480  136.4570 N   0  0  0  0  0  0  0  0  0  0  0  0
  188.9230  174.8690  136.7370 C   0  0  0  0  0  3  0  0  0  0  0  0
  191.9270  175.5700  137.4990 C   0  0  2  0  0  3  0  0  0  0  0  0
  1  3  1  0  0  0  0
  2  1  2  0  0  0  0
  2 12  1  0  0  0  0
  3  4  2  0  0  0  0
  4  5  1  0  0  0  0
  5  6  2  0  0  0  0
  6  8  1  0  0  0  0
  8  7  2  0  0  0  0
  8  9  1  0  0  0  0
  9 10  1  1  0  0  0
 11  9  1  0  0  0  0
 12 13  1  6  0  0  0
 12 14  1  0  0  0  0
 14 15  1  0  0  0  0
 16 15  1  6  0  0  0
 16 19  1  0  0  0  0
 16 17  1  0  0  0  0
 18 17  1  0  0  0  0
 19 21  1  0  0  0  0
 21 22  1  0  0  0  0
 22 20  2  0  0  0  0
 22 23  1  0  0  0  0
 23 24  1  0  0  0  0
 25  1  1  0  0  0  0
 26 25  1  0  0  0  0
 27 28  1  0  0  0  0
 27 30  1  0  0  0  0
 28 36  1  0  0  0  0
 30 32  2  0  0  0  0
 31 29  2  0  0  0  0
 33 26  1  0  0  0  0
 33 31  1  0  0  0  0
 34 35  1  0  0  0  0
 34 28  2  0  0  0  0
 35 33  2  0  0  0  0
 36 32  1  6  0  0  0
 36 29  1  0  0  0  0
M  END
>  <MODEL>
8

>  <REMARK>
 VINA RESULT:      -6.5      2.134      5.644
  Name = 
  15 active torsions:
  status: ('A' for Active; 'I' for Inactive)
    1  A    between atoms: N_1  and  C_18
    2  A    between atoms: O_7  and  C_14
    3  A    between atoms: O_7  and  C_18
    4  A    between atoms: C_9  and  C_23
    5  A    between atoms: C_10  and  N_21
    6  A    between atoms: C_10  and  C_24
    7  A    between atoms: C_11  and  N_30
    8  A    between atoms: C_11  and  C_31
    9  A    between atoms: C_13  and  C_17
   10  A    between atoms: C_14  and  C_25
   11  A    between atoms: C_15  and  C_24
   12  A    between atoms: C_15  and  C_31
   13  A    between atoms: C_17  and  C_29
   14  A    between atoms: N_20  and  C_22
   15  A    between atoms: C_24  and  O_27
                            x       y       z     vdW  Elec       q    Type
                         _______ _______ _______ _____ _____    ______ ____

>  <TORSDO>
F 15

$$$$
=
 OpenBabel10232411253D

 36 37  0  0  1  0  0  0  0  0999 V2000
  190.4270  176.1430  138.6760 C   0  0  0  0  0  0  0  0  0  0  0  0
  189.7140  176.9590  137.9550 N   0  0  0  0  0  0  0  0  0  0  0  0
  190.6930  176.4410  140.0510 N   0  0  0  0  0  0  0  0  0  0  0  0
  191.7020  177.1670  140.4060 C   0  0  0  0  0  3  0  0  0  0  0  0
  191.9360  177.4390  141.7820 N   0  0  0  0  0  0  0  0  0  0  0  0
  190.9930  177.9420  142.5070 C   0  0  0  0  0  3  0  0  0  0  0  0
  191.9380  179.1970  144.2790 O   0  0  0  0  0  0  0  0  0  0  0  0
  191.2040  178.2340  143.9310 C   0  0  0  0  0  0  0  0  0  0  0  0
  190.5660  177.3850  144.9820 C   0  0  2  0  0  3  0  0  0  0  0  0
  191.6060  176.5210  145.6680 C   0  0  0  0  0  1  0  0  0  0  0  0
  189.5770  176.5780  144.4180 O   0  0  0  0  0  1  0  0  0  0  0  0
  189.1540  178.2160  138.4420 C   0  0  1  0  0  3  0  0  0  0  0  0
  188.8820  179.1690  137.2850 C   0  0  0  0  0  1  0  0  0  0  0  0
  187.8750  177.9510  139.2310 C   0  0  0  0  0  2  0  0  0  0  0  0
  187.8220  178.7680  140.5180 C   0  0  0  0  0  2  0  0  0  0  0  0
  186.5330  178.4810  141.2920 C   0  0  2  0  0  3  0  0  0  0  0  0
  185.5920  179.5350  141.2180 O   0  0  0  0  0  0  0  0  0  0  0  0
  184.5570  179.1690  140.3370 C   0  0  0  0  0  1  0  0  0  0  0  0
  186.8070  178.0330  142.7310 C   0  0  0  0  0  2  0  0  0  0  0  0
  186.8720  177.9750  145.5870 O   0  0  0  0  0  0  0  0  0  0  0  0
  185.7040  178.4000  143.6110 N   0  0  0  0  0  2  0  0  0  0  0  0
  185.8070  178.3540  145.0330 C   0  0  0  0  0  0  0  0  0  0  0  0
  184.6530  178.7830  145.8700 C   0  0  0  0  0  2  0  0  0  0  0  0
  183.4430  179.0380  144.9940 C   0  0  0  0  0  1  0  0  0  0  0  0
  190.9430  174.9700  138.1080 O   0  0  0  0  0  0  0  0  0  0  0  0
  191.4170  174.8870  136.7650 C   0  0  0  0  0  2  0  0  0  0  0  0
  197.6630  175.0120  136.2610 S   0  0  0  0  0  0  0  0  0  0  0  0
  196.0180  174.7680  136.4640 C   0  0  0  0  0  0  0  0  0  0  0  0
  194.5260  172.7760  136.7910 N   0  0  0  0  0  0  0  0  0  0  0  0
  198.1220  173.3940  136.3210 C   0  0  0  0  0  3  0  0  0  0  0  0
  193.3300  173.2740  136.8500 C   0  0  0  0  0  3  0  0  0  0  0  0
  196.9610  172.6450  136.5080 C   0  0  0  0  0  3  0  0  0  0  0  0
  192.8960  174.6760  136.7240 C   0  0  0  0  0  0  0  0  0  0  0  0
  195.0770  175.8310  136.5120 N   0  0  0  0  0  0  0  0  0  0  0  0
  193.6560  175.7660  136.5990 C   0  0  0  0  0  3  0  0  0  0  0  0
  195.7890  173.4110  136.5880 C   0  0  2  0  0  3  0  0  0  0  0  0
  1  3  1  0  0  0  0
  2 12  1  0  0  0  0
  2  1  2  0  0  0  0
  3  4  2  0  0  0  0
  4  5  1  0  0  0  0
  5  6  2  0  0  0  0
  6  8  1  0  0  0  0
  8  7  2  0  0  0  0
  8  9  1  0  0  0  0
  9 10  1  6  0  0  0
 11  9  1  0  0  0  0
 12 13  1  6  0  0  0
 12 14  1  0  0  0  0
 14 15  1  0  0  0  0
 16 15  1  1  0  0  0
 16 19  1  0  0  0  0
 17 16  1  0  0  0  0
 18 17  1  0  0  0  0
 19 21  1  0  0  0  0
 21 22  1  0  0  0  0
 22 20  2  0  0  0  0
 22 23  1  0  0  0  0
 24 23  1  0  0  0  0
 25  1  1  0  0  0  0
 26 25  1  0  0  0  0
 27 30  1  0  0  0  0
 27 28  1  0  0  0  0
 28 34  2  0  0  0  0
 28 36  1  0  0  0  0
 29 31  2  0  0  0  0
 30 32  2  0  0  0  0
 33 26  1  0  0  0  0
 33 31  1  0  0  0  0
 34 35  1  0  0  0  0
 35 33  2  0  0  0  0
 36 32  1  1  0  0  0
 36 29  1  0  0  0  0
M  END
>  <MODEL>
9

>  <REMARK>
 VINA RESULT:      -6.5      1.842      4.919
  Name = 
  15 active torsions:
  status: ('A' for Active; 'I' for Inactive)
    1  A    between atoms: N_1  and  C_18
    2  A    between atoms: O_7  and  C_14
    3  A    between atoms: O_7  and  C_18
    4  A    between atoms: C_9  and  C_23
    5  A    between atoms: C_10  and  N_21
    6  A    between atoms: C_10  and  C_24
    7  A    between atoms: C_11  and  N_30
    8  A    between atoms: C_11  and  C_31
    9  A    between atoms: C_13  and  C_17
   10  A    between atoms: C_14  and  C_25
   11  A    between atoms: C_15  and  C_24
   12  A    between atoms: C_15  and  C_31
   13  A    between atoms: C_17  and  C_29
   14  A    between atoms: N_20  and  C_22
   15  A    between atoms: C_24  and  O_27
                            x       y       z     vdW  Elec       q    Type
                         _______ _______ _______ _____ _____    ______ ____

>  <TORSDO>
F 15

$$$$
