=
 OpenBabel10232410563D

 64 69  0  0  1  0  0  0  0  0999 V2000
  186.8300  177.8850  142.5170 C   0  0  2  0  0  3  0  0  0  0  0  0
  185.7630  178.7460  147.4630 C   0  0  0  0  0  2  0  0  0  0  0  0
  185.5070  178.2470  145.0560 C   0  0  0  0  0  3  0  0  0  0  0  0
  186.9790  177.8260  147.4490 C   0  0  0  0  0  2  0  0  0  0  0  0
  184.9360  178.5400  146.2260 C   0  0  0  0  0  3  0  0  0  0  0  0
  187.8230  178.0760  146.1950 C   0  0  2  0  0  3  0  0  0  0  0  0
  186.9710  178.0470  144.9480 C   0  0  0  0  0  0  0  0  0  0  0  0
  187.5480  177.9250  143.7880 N   0  0  0  0  0  0  0  0  0  0  0  0
  188.8200  177.0980  146.1210 O   0  0  0  0  0  0  0  0  0  0  0  0
  189.3940  177.0540  147.3950 C   0  0  0  0  0  2  0  0  0  0  0  0
  190.9160  177.1510  147.3080 C   0  0  0  0  0  2  0  0  0  0  0  0
  192.7740  175.9310  148.3440 C   0  0  0  0  0  1  0  0  0  0  0  0
  190.7530  174.6780  147.7870 C   0  0  0  0  0  1  0  0  0  0  0  0
  191.6620  175.8090  147.3270 C   0  0  0  0  0  0  0  0  0  0  0  0
  191.7370  176.2560  144.8870 N   0  0  0  0  0  1  0  0  0  0  0  0
  192.3160  175.4840  145.9780 C   0  0  0  0  0  2  0  0  0  0  0  0
  187.7360  178.2740  141.3850 C   0  0  0  0  0  0  0  0  0  0  0  0
  187.9020  179.4500  141.0950 O   0  0  0  0  0  0  0  0  0  0  0  0
  188.4960  177.2090  140.6590 C   0  0  0  0  0  2  0  0  0  0  0  0
  190.1170  176.9790  141.3630 S   0  0  0  0  0  0  0  0  0  0  0  0
  190.1340  175.7170  142.1800 O   0  0  0  0  0  0  0  0  0  0  0  0
  190.4520  178.1510  142.2460 O   0  0  0  0  0  0  0  0  0  0  0  0
  190.7820  177.5610  138.8020 C   0  0  0  0  0  2  0  0  0  0  0  0
  190.6760  176.0490  138.8670 C   0  0  2  0  0  3  0  0  0  0  0  0
  191.2860  176.8240  140.0220 C   0  0  2  0  0  3  0  0  0  0  0  0
  191.4770  174.5110  137.2340 O   0  0  0  0  0  0  0  0  0  0  0  0
  193.1200  175.8330  138.2380 N   0  0  0  0  0  2  0  0  0  0  0  0
  191.7650  175.4070  138.0720 C   0  0  0  0  0  0  0  0  0  0  0  0
  195.0710  173.0270  135.0660 C   0  0  0  0  0  2  0  0  0  0  0  0
  195.3060  173.3890  137.4850 O   0  0  0  0  0  0  0  0  0  0  0  0
  194.2260  175.9400  135.7980 S   0  0  0  0  0  0  0  0  0  0  0  0
  195.9460  175.3980  135.5040 C   0  0  1  0  0  3  0  0  0  0  0  0
  194.0710  173.8590  137.4340 O   0  0  0  0  0  0  0  0  0  0  0  0
  195.4400  172.4450  136.4410 C   0  0  1  0  0  3  0  0  0  0  0  0
  196.0000  174.1560  134.6090 C   0  0  1  0  0  3  0  0  0  0  0  0
  197.3110  173.6830  134.5110 O   0  0  0  0  0  1  0  0  0  0  0  0
  194.2180  175.2500  137.4830 C   0  0  2  0  0  3  0  0  0  0  0  0
  193.5470  169.1450  135.7840 C   0  0  0  0  0  2  0  0  0  0  0  0
  194.6530  171.1640  136.7420 C   0  0  1  0  0  3  0  0  0  0  0  0
  194.4660  170.3270  135.4770 C   0  0  0  0  0  2  0  0  0  0  0  0
  194.7660  168.9560  137.9600 C   0  0  0  0  0  3  0  0  0  0  0  0
  193.9670  168.4060  137.0300 C   0  0  0  0  0  3  0  0  0  0  0  0
  195.3930  170.3150  137.7820 C   0  0  0  0  0  2  0  0  0  0  0  0
  196.7390  176.5290  134.8680 C   0  0  0  0  0  2  0  0  0  0  0  0
  195.8960  177.7890  134.7980 C   0  0  0  0  0  1  0  0  0  0  0  0
  185.5610  178.7330  142.5720 C   0  0  0  0  0  2  0  0  0  0  0  0
  184.4570  178.1980  141.6660 C   0  0  0  0  0  2  0  0  0  0  0  0
  184.2990  179.1110  140.4640 C   0  0  0  0  0  2  0  0  0  0  0  0
  182.8400  175.2610  138.2910 C   0  0  0  0  0  3  0  0  0  0  0  0
  184.5170  178.3910  139.1710 C   0  0  0  0  0  0  0  0  0  0  0  0
  183.1770  175.2360  136.8880 N   0  0  0  0  0  0  0  0  0  0  0  0
  184.2050  176.1120  134.8820 C   0  0  0  0  0  1  0  0  0  0  0  0
  185.4290  177.9110  137.2370 C   0  0  1  0  0  3  0  0  0  0  0  0
  183.8380  176.2050  136.3230 C   0  0  0  0  0  0  0  0  0  0  0  0
  183.4610  177.6590  138.3960 C   0  0  1  0  0  3  0  0  0  0  0  0
  184.2240  177.3590  137.1520 C   0  0  1  0  0  3  0  0  0  0  0  0
  183.0150  176.3670  139.0320 C   0  0  0  0  0  3  0  0  0  0  0  0
  185.5980  178.5700  138.4830 N   0  0  0  0  0  0  0  0  0  0  0  0
  186.5710  177.6410  136.3160 C   0  0  0  0  0  2  0  0  0  0  0  0
  187.6450  176.8480  137.0410 C   0  0  0  0  0  2  0  0  0  0  0  0
  188.3670  176.3870  134.8150 O   0  0  0  0  0  1  0  0  0  0  0  0
  188.2880  175.8440  136.0990 C   0  0  2  0  0  3  0  0  0  0  0  0
  188.2270  173.5140  136.6960 O   0  0  0  0  0  1  0  0  0  0  0  0
  187.5110  174.5320  136.0620 C   0  0  0  0  0  2  0  0  0  0  0  0
  1 46  1  1  0  0  0
  1  8  1  0  0  0  0
  3  5  2  0  0  0  0
  4  2  1  0  0  0  0
  5  2  1  0  0  0  0
  6  9  1  6  0  0  0
  6  4  1  0  0  0  0
  7  3  1  0  0  0  0
  7  6  1  0  0  0  0
  8  7  2  0  0  0  0
  9 10  1  0  0  0  0
 11 14  1  0  0  0  0
 11 10  1  0  0  0  0
 14 13  1  0  0  0  0
 14 12  1  0  0  0  0
 15 16  1  0  0  0  0
 16 14  1  0  0  0  0
 17  1  1  0  0  0  0
 18 17  2  0  0  0  0
 19 20  1  0  0  0  0
 19 17  1  0  0  0  0
 20 21  2  0  0  0  0
 20 22  2  0  0  0  0
 23 24  1  0  0  0  0
 23 25  1  0  0  0  0
 24 28  1  6  0  0  0
 24 25  1  0  0  0  0
 25 20  1  1  0  0  0
 26 28  2  0  0  0  0
 28 27  1  0  0  0  0
 31 37  1  0  0  0  0
 32 44  1  6  0  0  0
 32 31  1  0  0  0  0
 33 37  1  0  0  0  0
 33 30  1  0  0  0  0
 34 29  1  6  0  0  0
 34 39  1  0  0  0  0
 34 30  1  0  0  0  0
 35 36  1  1  0  0  0
 35 29  1  0  0  0  0
 35 32  1  0  0  0  0
 37 27  1  1  0  0  0
 38 42  1  0  0  0  0
 39 40  1  6  0  0  0
 39 43  1  0  0  0  0
 40 38  1  0  0  0  0
 42 41  2  0  0  0  0
 43 41  1  0  0  0  0
 45 44  1  0  0  0  0
 47 46  1  0  0  0  0
 48 47  1  0  0  0  0
 49 57  2  0  0  0  0
 50 48  1  0  0  0  0
 51 49  1  0  0  0  0
 52 54  1  0  0  0  0
 53 59  1  1  0  0  0
 53 58  1  0  0  0  0
 54 51  2  0  0  0  0
 55 57  1  1  0  0  0
 55 50  1  0  0  0  0
 56 54  1  1  0  0  0
 56 53  1  0  0  0  0
 56 55  1  0  0  0  0
 58 50  2  0  0  0  0
 59 60  1  0  0  0  0
 62 61  1  6  0  0  0
 62 60  1  0  0  0  0
 64 62  1  0  0  0  0
 64 63  1  0  0  0  0
M  END
>  <MODEL>
1

>  <REMARK>
 VINA RESULT:      -7.1      0.000      0.000
  Name = 
  22 active torsions:
  status: ('A' for Active; 'I' for Inactive)
    1  A    between atoms: C_5  and  C_40
    2  A    between atoms: C_7  and  C_8
    3  A    between atoms: C_7  and  C_43
    4  A    between atoms: C_8  and  C_33
    5  A    between atoms: C_9  and  C_43
    6  A    between atoms: C_9  and  C_53
    7  A    between atoms: S_13  and  C_53
    8  A    between atoms: S_13  and  C_63
    9  A    between atoms: C_14  and  C_38
   10  A    between atoms: C_16  and  C_34
   11  A    between atoms: C_16  and  O_56
   12  A    between atoms: C_20  and  C_33
   13  A    between atoms: N_21  and  C_59
   14  A    between atoms: C_25  and  C_27
   15  A    between atoms: C_30  and  C_35
   16  A    between atoms: C_34  and  C_45
   17  A    between atoms: C_35  and  C_47
   18  A    between atoms: C_43  and  N_60
   19  A    between atoms: C_44  and  C_45
   20  A    between atoms: C_47  and  C_57
   21  A    between atoms: C_50  and  O_56
   22  A    between atoms: C_54  and  C_57
                            x       y       z     vdW  Elec       q    Type
                         _______ _______ _______ _____ _____    ______ ____

>  <TORSDO>
F 22

$$$$
=
 OpenBabel10232410563D

 64 69  0  0  1  0  0  0  0  0999 V2000
  186.6750  178.5950  138.7190 C   0  0  2  0  0  3  0  0  0  0  0  0
  181.5590  178.6920  138.3290 C   0  0  0  0  0  2  0  0  0  0  0  0
  183.9010  179.3890  138.6980 C   0  0  0  0  0  3  0  0  0  0  0  0
  182.0580  177.9160  137.1150 C   0  0  0  0  0  2  0  0  0  0  0  0
  182.6000  179.6710  138.7890 C   0  0  0  0  0  3  0  0  0  0  0  0
  183.3650  177.1880  137.4480 C   0  0  2  0  0  3  0  0  0  0  0  0
  184.3680  178.1270  138.0780 C   0  0  0  0  0  0  0  0  0  0  0  0
  185.6180  177.7730  138.1350 N   0  0  0  0  0  0  0  0  0  0  0  0
  183.8880  176.6430  136.2710 O   0  0  0  0  0  0  0  0  0  0  0  0
  183.1360  175.4900  136.0290 C   0  0  0  0  0  2  0  0  0  0  0  0
  183.8950  174.2420  136.4750 C   0  0  0  0  0  2  0  0  0  0  0  0
  185.1600  173.3420  134.5770 C   0  0  0  0  0  1  0  0  0  0  0  0
  184.1400  171.7540  136.1280 C   0  0  0  0  0  1  0  0  0  0  0  0
  183.9480  173.1020  135.4470 C   0  0  0  0  0  0  0  0  0  0  0  0
  181.7750  172.0440  134.8830 N   0  0  0  0  0  1  0  0  0  0  0  0
  182.7230  173.0890  134.5240 C   0  0  0  0  0  2  0  0  0  0  0  0
  187.8170  178.7510  137.7570 C   0  0  0  0  0  0  0  0  0  0  0  0
  187.6440  179.2630  136.6610 O   0  0  0  0  0  0  0  0  0  0  0  0
  189.1910  178.3370  138.1820 C   0  0  0  0  0  2  0  0  0  0  0  0
  189.4670  176.6030  137.8750 S   0  0  0  0  0  0  0  0  0  0  0  0
  188.2360  176.0030  137.2530 O   0  0  0  0  0  0  0  0  0  0  0  0
  189.7630  175.9040  139.1750 O   0  0  0  0  0  0  0  0  0  0  0  0
  190.3900  175.7270  135.4830 C   0  0  0  0  0  2  0  0  0  0  0  0
  191.2040  174.9940  136.5340 C   0  0  2  0  0  3  0  0  0  0  0  0
  190.8320  176.4530  136.7340 C   0  0  2  0  0  3  0  0  0  0  0  0
  192.9830  175.3080  134.9820 O   0  0  0  0  0  0  0  0  0  0  0  0
  193.6110  174.3840  137.0320 N   0  0  0  0  0  2  0  0  0  0  0  0
  192.6360  174.9010  136.1230 C   0  0  0  0  0  0  0  0  0  0  0  0
  197.3910  172.3760  135.1830 C   0  0  0  0  0  2  0  0  0  0  0  0
  196.7300  173.1810  137.4090 O   0  0  0  0  0  0  0  0  0  0  0  0
  195.2370  174.6180  134.9130 S   0  0  0  0  0  0  0  0  0  0  0  0
  197.0290  174.9150  135.1120 C   0  0  1  0  0  3  0  0  0  0  0  0
  195.4870  172.9970  136.9970 O   0  0  0  0  0  0  0  0  0  0  0  0
  197.5450  172.2620  136.7090 C   0  0  1  0  0  3  0  0  0  0  0  0
  197.8550  173.7230  134.6190 C   0  0  1  0  0  3  0  0  0  0  0  0
  199.2090  173.9180  134.9050 O   0  0  0  0  0  1  0  0  0  0  0  0
  195.0200  174.2800  136.6890 C   0  0  2  0  0  3  0  0  0  0  0  0
  196.0670  168.6990  136.8310 C   0  0  0  0  0  2  0  0  0  0  0  0
  197.3130  170.8270  137.1950 C   0  0  1  0  0  3  0  0  0  0  0  0
  196.4010  170.0650  136.2340 C   0  0  0  0  0  2  0  0  0  0  0  0
  198.4520  168.6070  137.5750 C   0  0  0  0  0  3  0  0  0  0  0  0
  197.2960  167.9730  137.3170 C   0  0  0  0  0  3  0  0  0  0  0  0
  198.6450  170.0770  137.2990 C   0  0  0  0  0  2  0  0  0  0  0  0
  197.4270  176.1710  134.3520 C   0  0  0  0  0  2  0  0  0  0  0  0
  196.3270  177.2130  134.4420 C   0  0  0  0  0  1  0  0  0  0  0  0
  187.1190  178.0450  140.0730 C   0  0  0  0  0  2  0  0  0  0  0  0
  186.6280  178.8930  141.2410 C   0  0  0  0  0  2  0  0  0  0  0  0
  185.9270  178.0060  142.2530 C   0  0  0  0  0  2  0  0  0  0  0  0
  185.5110  179.2020  146.7340 C   0  0  0  0  0  3  0  0  0  0  0  0
  186.6950  177.8850  143.5320 C   0  0  0  0  0  0  0  0  0  0  0  0
  186.4570  178.5330  147.5930 N   0  0  0  0  0  0  0  0  0  0  0  0
  188.3270  177.0670  148.0440 C   0  0  0  0  0  1  0  0  0  0  0  0
  188.3820  177.4470  144.8600 C   0  0  1  0  0  3  0  0  0  0  0  0
  187.3380  177.6960  147.1250 C   0  0  0  0  0  0  0  0  0  0  0  0
  186.0940  177.6530  144.8870 C   0  0  1  0  0  3  0  0  0  0  0  0
  187.3360  177.4220  145.6780 C   0  0  1  0  0  3  0  0  0  0  0  0
  185.3600  178.8450  145.4480 C   0  0  0  0  0  3  0  0  0  0  0  0
  187.9770  177.7120  143.5260 N   0  0  0  0  0  0  0  0  0  0  0  0
  189.8110  177.5000  145.2860 C   0  0  0  0  0  2  0  0  0  0  0  0
  190.6350  176.5310  144.4550 C   0  0  0  0  0  2  0  0  0  0  0  0
  191.3220  178.6620  143.6320 O   0  0  0  0  0  1  0  0  0  0  0  0
  191.5580  177.2900  143.5160 C   0  0  2  0  0  3  0  0  0  0  0  0
  192.0940  177.6730  141.2020 O   0  0  0  0  0  1  0  0  0  0  0  0
  191.3700  176.8500  142.0680 C   0  0  0  0  0  2  0  0  0  0  0  0
  1 46  1  1  0  0  0
  2  5  1  0  0  0  0
  3  5  2  0  0  0  0
  4  6  1  0  0  0  0
  4  2  1  0  0  0  0
  6  9  1  6  0  0  0
  6  7  1  0  0  0  0
  7  8  2  0  0  0  0
  7  3  1  0  0  0  0
  8  1  1  0  0  0  0
 10  9  1  0  0  0  0
 10 11  1  0  0  0  0
 12 14  1  0  0  0  0
 14 13  1  0  0  0  0
 14 11  1  0  0  0  0
 16 15  1  0  0  0  0
 16 14  1  0  0  0  0
 17 19  1  0  0  0  0
 17  1  1  0  0  0  0
 18 17  2  0  0  0  0
 20 19  1  0  0  0  0
 20 22  2  0  0  0  0
 21 20  2  0  0  0  0
 23 24  1  0  0  0  0
 23 25  1  0  0  0  0
 24 28  1  6  0  0  0
 24 25  1  0  0  0  0
 25 20  1  1  0  0  0
 26 28  2  0  0  0  0
 28 27  1  0  0  0  0
 31 32  1  0  0  0  0
 31 37  1  0  0  0  0
 32 44  1  6  0  0  0
 33 30  1  0  0  0  0
 34 29  1  6  0  0  0
 34 39  1  0  0  0  0
 34 30  1  0  0  0  0
 35 36  1  1  0  0  0
 35 32  1  0  0  0  0
 35 29  1  0  0  0  0
 37 33  1  0  0  0  0
 37 27  1  6  0  0  0
 38 42  1  0  0  0  0
 39 40  1  6  0  0  0
 39 43  1  0  0  0  0
 40 38  1  0  0  0  0
 42 41  2  0  0  0  0
 43 41  1  0  0  0  0
 44 45  1  0  0  0  0
 46 47  1  0  0  0  0
 47 48  1  0  0  0  0
 48 50  1  0  0  0  0
 49 51  1  0  0  0  0
 50 55  1  0  0  0  0
 53 59  1  1  0  0  0
 53 56  1  0  0  0  0
 54 51  2  0  0  0  0
 54 52  1  0  0  0  0
 55 57  1  1  0  0  0
 55 56  1  0  0  0  0
 56 54  1  1  0  0  0
 57 49  2  0  0  0  0
 58 50  2  0  0  0  0
 58 53  1  0  0  0  0
 60 59  1  0  0  0  0
 62 61  1  6  0  0  0
 62 60  1  0  0  0  0
 63 64  1  0  0  0  0
 64 62  1  0  0  0  0
M  END
>  <MODEL>
2

>  <REMARK>
 VINA RESULT:      -6.5      2.237      7.543
  Name = 
  22 active torsions:
  status: ('A' for Active; 'I' for Inactive)
    1  A    between atoms: C_5  and  C_40
    2  A    between atoms: C_7  and  C_8
    3  A    between atoms: C_7  and  C_43
    4  A    between atoms: C_8  and  C_33
    5  A    between atoms: C_9  and  C_43
    6  A    between atoms: C_9  and  C_53
    7  A    between atoms: S_13  and  C_53
    8  A    between atoms: S_13  and  C_63
    9  A    between atoms: C_14  and  C_38
   10  A    between atoms: C_16  and  C_34
   11  A    between atoms: C_16  and  O_56
   12  A    between atoms: C_20  and  C_33
   13  A    between atoms: N_21  and  C_59
   14  A    between atoms: C_25  and  C_27
   15  A    between atoms: C_30  and  C_35
   16  A    between atoms: C_34  and  C_45
   17  A    between atoms: C_35  and  C_47
   18  A    between atoms: C_43  and  N_60
   19  A    between atoms: C_44  and  C_45
   20  A    between atoms: C_47  and  C_57
   21  A    between atoms: C_50  and  O_56
   22  A    between atoms: C_54  and  C_57
                            x       y       z     vdW  Elec       q    Type
                         _______ _______ _______ _____ _____    ______ ____

>  <TORSDO>
F 22

$$$$
=
 OpenBabel10232410563D

 64 69  0  0  1  0  0  0  0  0999 V2000
  192.8750  175.4510  136.0730 C   0  0  2  0  0  3  0  0  0  0  0  0
  197.1040  173.6810  138.3810 C   0  0  0  0  0  2  0  0  0  0  0  0
  194.7360  174.1600  137.8620 C   0  0  0  0  0  3  0  0  0  0  0  0
  197.3040  173.4340  136.8890 C   0  0  0  0  0  2  0  0  0  0  0  0
  195.6410  173.6840  138.7190 C   0  0  0  0  0  3  0  0  0  0  0  0
  196.5690  174.4990  136.0690 C   0  0  2  0  0  3  0  0  0  0  0  0
  195.1340  174.6400  136.5180 C   0  0  0  0  0  0  0  0  0  0  0  0
  194.2850  175.2540  135.7460 N   0  0  0  0  0  0  0  0  0  0  0  0
  196.6180  174.1400  134.7180 O   0  0  0  0  0  0  0  0  0  0  0  0
  196.5510  172.7430  134.7010 C   0  0  0  0  0  2  0  0  0  0  0  0
  195.1420  172.2720  134.3510 C   0  0  0  0  0  2  0  0  0  0  0  0
  195.8090  169.9130  134.4230 C   0  0  0  0  0  1  0  0  0  0  0  0
  194.7800  170.8720  136.4200 C   0  0  0  0  0  1  0  0  0  0  0  0
  194.7570  170.8890  134.8980 C   0  0  0  0  0  0  0  0  0  0  0  0
  193.0740  169.0660  134.8390 N   0  0  0  0  0  1  0  0  0  0  0  0
  193.4080  170.3990  134.3570 C   0  0  0  0  0  2  0  0  0  0  0  0
  192.7280  176.0410  137.4450 C   0  0  0  0  0  0  0  0  0  0  0  0
  193.4210  176.9850  137.7960 O   0  0  0  0  0  0  0  0  0  0  0  0
  191.6690  175.5090  138.3600 C   0  0  0  0  0  2  0  0  0  0  0  0
  190.1790  176.4810  138.2560 S   0  0  0  0  0  0  0  0  0  0  0  0
  188.9850  175.5680  138.2580 O   0  0  0  0  0  0  0  0  0  0  0  0
  190.1920  177.2860  136.9850 O   0  0  0  0  0  0  0  0  0  0  0  0
  191.3440  177.3490  140.5430 C   0  0  0  0  0  2  0  0  0  0  0  0
  190.0320  176.7130  140.9640 C   0  0  2  0  0  3  0  0  0  0  0  0
  190.1090  177.5400  139.6920 C   0  0  2  0  0  3  0  0  0  0  0  0
  189.8080  178.6700  142.3040 O   0  0  0  0  0  0  0  0  0  0  0  0
  188.2400  176.9930  142.7320 N   0  0  0  0  0  2  0  0  0  0  0  0
  189.3750  177.5170  142.0370 C   0  0  0  0  0  0  0  0  0  0  0  0
  184.8390  177.8300  145.8090 C   0  0  0  0  0  2  0  0  0  0  0  0
  185.8350  179.0290  143.9100 O   0  0  0  0  0  0  0  0  0  0  0  0
  187.7790  176.8830  145.3710 S   0  0  0  0  0  0  0  0  0  0  0  0
  187.2940  178.3680  146.3190 C   0  0  1  0  0  3  0  0  0  0  0  0
  186.1930  177.8330  143.4710 O   0  0  0  0  0  0  0  0  0  0  0  0
  184.6630  178.8600  144.6810 C   0  0  1  0  0  3  0  0  0  0  0  0
  185.8680  178.2470  146.8650 C   0  0  1  0  0  3  0  0  0  0  0  0
  185.4740  179.4440  147.4670 O   0  0  0  0  0  1  0  0  0  0  0  0
  187.5550  177.7350  143.7780 C   0  0  2  0  0  3  0  0  0  0  0  0
  181.0460  178.9740  143.3370 C   0  0  0  0  0  2  0  0  0  0  0  0
  183.4560  178.5280  143.7960 C   0  0  1  0  0  3  0  0  0  0  0  0
  182.2710  179.4370  144.1230 C   0  0  0  0  0  2  0  0  0  0  0  0
  182.6060  178.5920  141.4200 C   0  0  0  0  0  3  0  0  0  0  0  0
  181.3540  178.7620  141.8760 C   0  0  0  0  0  3  0  0  0  0  0  0
  183.8130  178.7090  142.3170 C   0  0  0  0  0  2  0  0  0  0  0  0
  188.2710  178.5850  147.4650 C   0  0  0  0  0  2  0  0  0  0  0  0
  188.1930  177.4340  148.4500 C   0  0  0  0  0  1  0  0  0  0  0  0
  192.0820  174.1570  135.9030 C   0  0  0  0  0  2  0  0  0  0  0  0
  191.0390  174.2490  134.7940 C   0  0  0  0  0  2  0  0  0  0  0  0
  190.1980  172.9850  134.7830 C   0  0  0  0  0  2  0  0  0  0  0  0
  186.1500  170.6960  135.0060 C   0  0  0  0  0  3  0  0  0  0  0  0
  188.7630  173.2540  135.1120 C   0  0  0  0  0  0  0  0  0  0  0  0
  185.1180  171.4290  135.6980 N   0  0  0  0  0  0  0  0  0  0  0  0
  184.2170  173.3570  136.8470 C   0  0  0  0  0  1  0  0  0  0  0  0
  186.9650  174.4170  135.5780 C   0  0  1  0  0  3  0  0  0  0  0  0
  185.3280  172.6180  136.1840 C   0  0  0  0  0  0  0  0  0  0  0  0
  187.8440  172.3090  135.8290 C   0  0  1  0  0  3  0  0  0  0  0  0
  186.6710  173.2040  136.0330 C   0  0  1  0  0  3  0  0  0  0  0  0
  187.4260  171.1160  135.0070 C   0  0  0  0  0  3  0  0  0  0  0  0
  188.2730  174.4490  135.0280 N   0  0  0  0  0  0  0  0  0  0  0  0
  185.9870  175.5250  135.3770 C   0  0  0  0  0  2  0  0  0  0  0  0
  186.4280  176.7530  136.1550 C   0  0  0  0  0  2  0  0  0  0  0  0
  184.2100  176.8680  137.0240 O   0  0  0  0  0  1  0  0  0  0  0  0
  185.5570  176.9410  137.3860 C   0  0  2  0  0  3  0  0  0  0  0  0
  186.8490  178.1320  139.0300 O   0  0  0  0  0  1  0  0  0  0  0  0
  185.8390  178.2730  138.0750 C   0  0  0  0  0  2  0  0  0  0  0  0
  1 46  1  1  0  0  0
  1 17  1  0  0  0  0
  2  5  1  0  0  0  0
  3  5  2  0  0  0  0
  4  2  1  0  0  0  0
  6  9  1  6  0  0  0
  6  7  1  0  0  0  0
  6  4  1  0  0  0  0
  7  3  1  0  0  0  0
  8  1  1  0  0  0  0
  8  7  2  0  0  0  0
 10  9  1  0  0  0  0
 11 10  1  0  0  0  0
 11 14  1  0  0  0  0
 12 14  1  0  0  0  0
 14 13  1  0  0  0  0
 16 15  1  0  0  0  0
 16 14  1  0  0  0  0
 17 18  2  0  0  0  0
 17 19  1  0  0  0  0
 20 21  2  0  0  0  0
 20 19  1  0  0  0  0
 22 20  2  0  0  0  0
 23 24  1  0  0  0  0
 24 28  1  1  0  0  0
 25 20  1  6  0  0  0
 25 23  1  0  0  0  0
 25 24  1  0  0  0  0
 28 26  2  0  0  0  0
 28 27  1  0  0  0  0
 29 35  1  0  0  0  0
 30 34  1  0  0  0  0
 31 32  1  0  0  0  0
 32 35  1  0  0  0  0
 32 44  1  1  0  0  0
 33 37  1  0  0  0  0
 33 30  1  0  0  0  0
 34 29  1  1  0  0  0
 35 36  1  6  0  0  0
 37 27  1  6  0  0  0
 37 31  1  0  0  0  0
 38 40  1  0  0  0  0
 39 43  1  6  0  0  0
 39 40  1  0  0  0  0
 39 34  1  0  0  0  0
 41 42  2  0  0  0  0
 41 43  1  0  0  0  0
 42 38  1  0  0  0  0
 44 45  1  0  0  0  0
 47 46  1  0  0  0  0
 48 47  1  0  0  0  0
 48 50  1  0  0  0  0
 49 57  2  0  0  0  0
 49 51  1  0  0  0  0
 50 55  1  0  0  0  0
 51 54  2  0  0  0  0
 53 59  1  6  0  0  0
 53 56  1  0  0  0  0
 54 52  1  0  0  0  0
 55 57  1  6  0  0  0
 55 56  1  0  0  0  0
 56 54  1  6  0  0  0
 58 50  2  0  0  0  0
 58 53  1  0  0  0  0
 59 60  1  0  0  0  0
 60 62  1  0  0  0  0
 62 61  1  6  0  0  0
 62 64  1  0  0  0  0
 64 63  1  0  0  0  0
M  END
>  <MODEL>
3

>  <REMARK>
 VINA RESULT:      -6.5      2.641     11.062
  Name = 
  22 active torsions:
  status: ('A' for Active; 'I' for Inactive)
    1  A    between atoms: C_5  and  C_40
    2  A    between atoms: C_7  and  C_8
    3  A    between atoms: C_7  and  C_43
    4  A    between atoms: C_8  and  C_33
    5  A    between atoms: C_9  and  C_43
    6  A    between atoms: C_9  and  C_53
    7  A    between atoms: S_13  and  C_53
    8  A    between atoms: S_13  and  C_63
    9  A    between atoms: C_14  and  C_38
   10  A    between atoms: C_16  and  C_34
   11  A    between atoms: C_16  and  O_56
   12  A    between atoms: C_20  and  C_33
   13  A    between atoms: N_21  and  C_59
   14  A    between atoms: C_25  and  C_27
   15  A    between atoms: C_30  and  C_35
   16  A    between atoms: C_34  and  C_45
   17  A    between atoms: C_35  and  C_47
   18  A    between atoms: C_43  and  N_60
   19  A    between atoms: C_44  and  C_45
   20  A    between atoms: C_47  and  C_57
   21  A    between atoms: C_50  and  O_56
   22  A    between atoms: C_54  and  C_57
                            x       y       z     vdW  Elec       q    Type
                         _______ _______ _______ _____ _____    ______ ____

>  <TORSDO>
F 22

$$$$
=
 OpenBabel10232410563D

 64 69  0  0  1  0  0  0  0  0999 V2000
  189.4790  174.2910  135.8860 C   0  0  2  0  0  3  0  0  0  0  0  0
  185.6610  170.9630  135.0620 C   0  0  0  0  0  2  0  0  0  0  0  0
  187.8140  171.9360  135.7850 C   0  0  0  0  0  3  0  0  0  0  0  0
  185.0000  172.2490  135.5450 C   0  0  0  0  0  2  0  0  0  0  0  0
  187.0550  170.8530  135.6070 C   0  0  0  0  0  3  0  0  0  0  0  0
  185.8330  173.4660  135.1280 C   0  0  2  0  0  3  0  0  0  0  0  0
  187.2830  173.2940  135.5160 C   0  0  0  0  0  0  0  0  0  0  0  0
  188.0630  174.3350  135.5290 N   0  0  0  0  0  0  0  0  0  0  0  0
  185.3020  174.6050  135.7410 O   0  0  0  0  0  0  0  0  0  0  0  0
  185.2720  174.3130  137.1080 C   0  0  0  0  0  2  0  0  0  0  0  0
  183.8770  174.5490  137.6830 C   0  0  0  0  0  2  0  0  0  0  0  0
  182.4750  176.3540  136.7940 C   0  0  0  0  0  1  0  0  0  0  0  0
  182.8030  176.2460  139.2120 C   0  0  0  0  0  1  0  0  0  0  0  0
  183.4840  176.0230  137.8700 C   0  0  0  0  0  0  0  0  0  0  0  0
  184.6390  178.0860  138.6230 N   0  0  0  0  0  1  0  0  0  0  0  0
  184.6730  176.9740  137.6830 C   0  0  0  0  0  2  0  0  0  0  0  0
  189.6850  174.7750  137.2920 C   0  0  0  0  0  0  0  0  0  0  0  0
  190.5150  174.2480  138.0180 O   0  0  0  0  0  0  0  0  0  0  0  0
  188.9140  175.9640  137.7750 C   0  0  0  0  0  2  0  0  0  0  0  0
  189.9640  177.3970  137.9230 S   0  0  0  0  0  0  0  0  0  0  0  0
  189.3460  178.5490  137.1800 O   0  0  0  0  0  0  0  0  0  0  0  0
  191.3160  177.0920  137.3370 O   0  0  0  0  0  0  0  0  0  0  0  0
  191.5020  177.5950  140.1440 C   0  0  0  0  0  2  0  0  0  0  0  0
  190.4200  176.5850  140.4800 C   0  0  2  0  0  3  0  0  0  0  0  0
  190.0880  177.8160  139.6540 C   0  0  2  0  0  3  0  0  0  0  0  0
  188.8070  176.3160  142.2110 O   0  0  0  0  0  0  0  0  0  0  0  0
  190.7450  177.4590  142.8350 N   0  0  0  0  0  2  0  0  0  0  0  0
  189.9300  176.7800  141.8760 C   0  0  0  0  0  0  0  0  0  0  0  0
  187.9140  177.0310  146.5150 C   0  0  0  0  0  2  0  0  0  0  0  0
  188.8750  178.8950  145.2350 O   0  0  0  0  0  0  0  0  0  0  0  0
  190.5790  176.1360  145.1610 S   0  0  0  0  0  0  0  0  0  0  0  0
  190.4670  177.0190  146.7570 C   0  0  1  0  0  3  0  0  0  0  0  0
  188.9700  178.0310  144.2380 O   0  0  0  0  0  0  0  0  0  0  0  0
  187.7880  178.4890  146.0410 C   0  0  1  0  0  3  0  0  0  0  0  0
  189.1140  176.7870  147.4360 C   0  0  1  0  0  3  0  0  0  0  0  0
  189.0020  177.5780  148.5820 O   0  0  0  0  0  1  0  0  0  0  0  0
  190.3220  177.6670  144.2100 C   0  0  2  0  0  3  0  0  0  0  0  0
  184.9040  178.0300  143.5160 C   0  0  0  0  0  2  0  0  0  0  0  0
  186.4480  178.7410  145.3400 C   0  0  1  0  0  3  0  0  0  0  0  0
  186.1630  177.6590  144.2990 C   0  0  0  0  0  2  0  0  0  0  0  0
  183.9500  178.7890  145.6990 C   0  0  0  0  0  3  0  0  0  0  0  0
  183.7620  178.4160  144.4220 C   0  0  0  0  0  3  0  0  0  0  0  0
  185.3040  178.7470  146.3600 C   0  0  0  0  0  2  0  0  0  0  0  0
  191.5920  176.5640  147.6740 C   0  0  0  0  0  2  0  0  0  0  0  0
  192.3540  175.4130  147.0440 C   0  0  0  0  0  1  0  0  0  0  0  0
  190.3290  175.0540  134.8720 C   0  0  0  0  0  2  0  0  0  0  0  0
  191.4990  174.2300  134.3460 C   0  0  0  0  0  2  0  0  0  0  0  0
  192.0930  173.4120  135.4780 C   0  0  0  0  0  2  0  0  0  0  0  0
  195.3540  176.7340  135.4280 C   0  0  0  0  0  3  0  0  0  0  0  0
  193.5820  173.5350  135.5490 C   0  0  0  0  0  0  0  0  0  0  0  0
  196.6530  176.2640  135.8470 N   0  0  0  0  0  0  0  0  0  0  0  0
  198.2280  174.5740  136.5600 C   0  0  0  0  0  1  0  0  0  0  0  0
  195.6790  172.8990  135.5720 C   0  0  1  0  0  3  0  0  0  0  0  0
  196.8590  175.0240  136.1820 C   0  0  0  0  0  0  0  0  0  0  0  0
  194.3300  174.6300  136.2510 C   0  0  1  0  0  3  0  0  0  0  0  0
  195.7170  174.0950  136.1480 C   0  0  1  0  0  3  0  0  0  0  0  0
  194.2590  175.9670  135.5570 C   0  0  0  0  0  3  0  0  0  0  0  0
  194.3490  172.5460  135.2220 N   0  0  0  0  0  0  0  0  0  0  0  0
  196.8630  172.1420  135.0700 C   0  0  0  0  0  2  0  0  0  0  0  0
  196.6990  170.6630  135.3710 C   0  0  0  0  0  2  0  0  0  0  0  0
  198.0430  171.0010  137.3120 O   0  0  0  0  0  1  0  0  0  0  0  0
  196.8640  170.4030  136.8590 C   0  0  2  0  0  3  0  0  0  0  0  0
  196.7430  168.6870  138.5410 O   0  0  0  0  0  1  0  0  0  0  0  0
  196.8850  168.9100  137.1690 C   0  0  0  0  0  2  0  0  0  0  0  0
  1 46  1  6  0  0  0
  1 17  1  0  0  0  0
  2  4  1  0  0  0  0
  2  5  1  0  0  0  0
  5  3  2  0  0  0  0
  6  7  1  0  0  0  0
  6  4  1  0  0  0  0
  6  9  1  1  0  0  0
  7  8  2  0  0  0  0
  7  3  1  0  0  0  0
  8  1  1  0  0  0  0
  9 10  1  0  0  0  0
 10 11  1  0  0  0  0
 11 14  1  0  0  0  0
 12 14  1  0  0  0  0
 14 13  1  0  0  0  0
 16 14  1  0  0  0  0
 16 15  1  0  0  0  0
 17 19  1  0  0  0  0
 17 18  2  0  0  0  0
 19 20  1  0  0  0  0
 21 20  2  0  0  0  0
 22 20  2  0  0  0  0
 23 24  1  0  0  0  0
 24 28  1  1  0  0  0
 25 20  1  6  0  0  0
 25 23  1  0  0  0  0
 25 24  1  0  0  0  0
 28 26  2  0  0  0  0
 28 27  1  0  0  0  0
 29 35  1  0  0  0  0
 30 34  1  0  0  0  0
 31 32  1  0  0  0  0
 32 35  1  0  0  0  0
 32 44  1  1  0  0  0
 33 30  1  0  0  0  0
 34 29  1  6  0  0  0
 35 36  1  1  0  0  0
 37 27  1  6  0  0  0
 37 33  1  0  0  0  0
 37 31  1  0  0  0  0
 38 40  1  0  0  0  0
 38 42  1  0  0  0  0
 39 40  1  6  0  0  0
 39 34  1  0  0  0  0
 39 43  1  0  0  0  0
 41 43  1  0  0  0  0
 42 41  2  0  0  0  0
 45 44  1  0  0  0  0
 47 46  1  0  0  0  0
 47 48  1  0  0  0  0
 48 50  1  0  0  0  0
 49 57  2  0  0  0  0
 49 51  1  0  0  0  0
 50 55  1  0  0  0  0
 51 54  2  0  0  0  0
 53 59  1  6  0  0  0
 53 56  1  0  0  0  0
 54 52  1  0  0  0  0
 55 57  1  6  0  0  0
 56 54  1  6  0  0  0
 56 55  1  0  0  0  0
 58 50  2  0  0  0  0
 58 53  1  0  0  0  0
 59 60  1  0  0  0  0
 60 62  1  0  0  0  0
 62 64  1  0  0  0  0
 62 61  1  6  0  0  0
 64 63  1  0  0  0  0
M  END
>  <MODEL>
4

>  <REMARK>
 VINA RESULT:      -6.5      2.385     11.361
  Name = 
  22 active torsions:
  status: ('A' for Active; 'I' for Inactive)
    1  A    between atoms: C_5  and  C_40
    2  A    between atoms: C_7  and  C_8
    3  A    between atoms: C_7  and  C_43
    4  A    between atoms: C_8  and  C_33
    5  A    between atoms: C_9  and  C_43
    6  A    between atoms: C_9  and  C_53
    7  A    between atoms: S_13  and  C_53
    8  A    between atoms: S_13  and  C_63
    9  A    between atoms: C_14  and  C_38
   10  A    between atoms: C_16  and  C_34
   11  A    between atoms: C_16  and  O_56
   12  A    between atoms: C_20  and  C_33
   13  A    between atoms: N_21  and  C_59
   14  A    between atoms: C_25  and  C_27
   15  A    between atoms: C_30  and  C_35
   16  A    between atoms: C_34  and  C_45
   17  A    between atoms: C_35  and  C_47
   18  A    between atoms: C_43  and  N_60
   19  A    between atoms: C_44  and  C_45
   20  A    between atoms: C_47  and  C_57
   21  A    between atoms: C_50  and  O_56
   22  A    between atoms: C_54  and  C_57
                            x       y       z     vdW  Elec       q    Type
                         _______ _______ _______ _____ _____    ______ ____

>  <TORSDO>
F 22

$$$$
=
 OpenBabel10232410563D

 64 69  0  0  1  0  0  0  0  0999 V2000
  185.2610  178.0930  138.3030 C   0  0  2  0  0  3  0  0  0  0  0  0
  180.2940  177.0570  139.0740 C   0  0  0  0  0  2  0  0  0  0  0  0
  182.7440  177.1720  139.3730 C   0  0  0  0  0  3  0  0  0  0  0  0
  180.3550  178.5120  138.6220 C   0  0  0  0  0  2  0  0  0  0  0  0
  181.5710  176.6680  139.7610 C   0  0  0  0  0  3  0  0  0  0  0  0
  181.5500  178.7320  137.6900 C   0  0  2  0  0  3  0  0  0  0  0  0
  182.8220  178.1850  138.2950 C   0  0  0  0  0  0  0  0  0  0  0  0
  183.9680  178.5550  137.8030 N   0  0  0  0  0  0  0  0  0  0  0  0
  181.6840  180.1020  137.4450 O   0  0  0  0  0  0  0  0  0  0  0  0
  180.6200  180.4350  136.6010 C   0  0  0  0  0  2  0  0  0  0  0  0
  180.5050  181.9500  136.4440 C   0  0  0  0  0  2  0  0  0  0  0  0
  179.9820  182.2840  138.8160 C   0  0  0  0  0  1  0  0  0  0  0  0
  182.3090  182.5220  138.1140 C   0  0  0  0  0  1  0  0  0  0  0  0
  180.8680  182.7690  137.6920 C   0  0  0  0  0  0  0  0  0  0  0  0
  181.4150  184.8560  136.4650 N   0  0  0  0  0  1  0  0  0  0  0  0
  180.5900  184.2670  137.5100 C   0  0  0  0  0  2  0  0  0  0  0  0
  185.7600  176.9350  137.4900 C   0  0  0  0  0  0  0  0  0  0  0  0
  184.9810  176.2230  136.8740 O   0  0  0  0  0  0  0  0  0  0  0  0
  187.2350  176.7030  137.3780 C   0  0  0  0  0  2  0  0  0  0  0  0
  188.0260  178.0090  136.4610 S   0  0  0  0  0  0  0  0  0  0  0  0
  188.4070  179.1210  137.3990 O   0  0  0  0  0  0  0  0  0  0  0  0
  187.0770  178.5370  135.4190 O   0  0  0  0  0  0  0  0  0  0  0  0
  189.1440  176.4800  134.5240 C   0  0  0  0  0  2  0  0  0  0  0  0
  189.5330  175.8300  135.8390 C   0  0  2  0  0  3  0  0  0  0  0  0
  189.5040  177.3430  135.7120 C   0  0  2  0  0  3  0  0  0  0  0  0
  191.2070  174.2070  135.3540 O   0  0  0  0  0  0  0  0  0  0  0  0
  192.0060  176.2210  136.2260 N   0  0  0  0  0  2  0  0  0  0  0  0
  190.9490  175.3580  135.7970 C   0  0  0  0  0  0  0  0  0  0  0  0
  195.5950  173.4280  135.1960 C   0  0  0  0  0  2  0  0  0  0  0  0
  194.6450  174.3980  137.2430 O   0  0  0  0  0  0  0  0  0  0  0  0
  194.0700  176.0660  134.5210 S   0  0  0  0  0  0  0  0  0  0  0  0
  195.7960  175.9850  135.1150 C   0  0  1  0  0  3  0  0  0  0  0  0
  193.5120  174.4710  136.5640 O   0  0  0  0  0  0  0  0  0  0  0  0
  195.3830  173.3150  136.7140 C   0  0  1  0  0  3  0  0  0  0  0  0
  196.4430  174.6360  134.7830 C   0  0  1  0  0  3  0  0  0  0  0  0
  197.7100  174.5490  135.3640 O   0  0  0  0  0  1  0  0  0  0  0  0
  193.4030  175.8170  136.1970 C   0  0  2  0  0  3  0  0  0  0  0  0
  193.6130  169.9130  136.2750 C   0  0  0  0  0  2  0  0  0  0  0  0
  194.7550  171.9710  137.0990 C   0  0  1  0  0  3  0  0  0  0  0  0
  194.3750  171.1690  135.8540 C   0  0  0  0  0  2  0  0  0  0  0  0
  195.2470  169.7340  138.1590 C   0  0  0  0  0  3  0  0  0  0  0  0
  194.3170  169.1610  137.3770 C   0  0  0  0  0  3  0  0  0  0  0  0
  195.7390  171.1400  137.9300 C   0  0  0  0  0  2  0  0  0  0  0  0
  196.6050  177.1140  134.4960 C   0  0  0  0  0  2  0  0  0  0  0  0
  196.0410  178.4580  134.9160 C   0  0  0  0  0  1  0  0  0  0  0  0
  185.1950  177.7770  139.7960 C   0  0  0  0  0  2  0  0  0  0  0  0
  185.9890  178.7660  140.6420 C   0  0  0  0  0  2  0  0  0  0  0  0
  185.3510  178.8880  142.0140 C   0  0  0  0  0  2  0  0  0  0  0  0
  185.6020  179.0910  146.6590 C   0  0  0  0  0  3  0  0  0  0  0  0
  186.2900  178.5030  143.1140 C   0  0  0  0  0  0  0  0  0  0  0  0
  186.6460  178.2620  147.2100 N   0  0  0  0  0  0  0  0  0  0  0  0
  188.5280  176.7510  147.0650 C   0  0  0  0  0  1  0  0  0  0  0  0
  188.1390  177.8050  144.0610 C   0  0  1  0  0  3  0  0  0  0  0  0
  187.4330  177.5530  146.4530 C   0  0  0  0  0  0  0  0  0  0  0  0
  185.8830  177.9800  144.4600 C   0  0  1  0  0  3  0  0  0  0  0  0
  187.2190  177.5960  144.9960 C   0  0  1  0  0  3  0  0  0  0  0  0
  185.2620  179.0170  145.3610 C   0  0  0  0  0  3  0  0  0  0  0  0
  187.5540  178.3470  142.8870 N   0  0  0  0  0  0  0  0  0  0  0  0
  189.6150  177.7790  144.2790 C   0  0  0  0  0  2  0  0  0  0  0  0
  190.3370  177.9760  142.9570 C   0  0  0  0  0  2  0  0  0  0  0  0
  190.5050  175.5970  142.9680 O   0  0  0  0  0  1  0  0  0  0  0  0
  190.2960  176.6980  142.1350 C   0  0  2  0  0  3  0  0  0  0  0  0
  190.7830  176.2730  139.8180 O   0  0  0  0  0  1  0  0  0  0  0  0
  191.3380  176.7140  141.0210 C   0  0  0  0  0  2  0  0  0  0  0  0
  1 46  1  1  0  0  0
  2  5  1  0  0  0  0
  3  5  2  0  0  0  0
  4  2  1  0  0  0  0
  6  9  1  1  0  0  0
  6  7  1  0  0  0  0
  6  4  1  0  0  0  0
  7  3  1  0  0  0  0
  8  7  2  0  0  0  0
  8  1  1  0  0  0  0
 10  9  1  0  0  0  0
 11 10  1  0  0  0  0
 11 14  1  0  0  0  0
 14 13  1  0  0  0  0
 14 12  1  0  0  0  0
 15 16  1  0  0  0  0
 16 14  1  0  0  0  0
 17  1  1  0  0  0  0
 18 17  2  0  0  0  0
 19 17  1  0  0  0  0
 20 19  1  0  0  0  0
 20 21  2  0  0  0  0
 22 20  2  0  0  0  0
 23 25  1  0  0  0  0
 23 24  1  0  0  0  0
 24 28  1  6  0  0  0
 25 24  1  0  0  0  0
 25 20  1  1  0  0  0
 26 28  2  0  0  0  0
 28 27  1  0  0  0  0
 31 32  1  0  0  0  0
 31 37  1  0  0  0  0
 32 44  1  6  0  0  0
 33 30  1  0  0  0  0
 34 29  1  6  0  0  0
 34 39  1  0  0  0  0
 34 30  1  0  0  0  0
 35 32  1  0  0  0  0
 35 29  1  0  0  0  0
 35 36  1  1  0  0  0
 37 27  1  6  0  0  0
 37 33  1  0  0  0  0
 38 42  1  0  0  0  0
 39 40  1  6  0  0  0
 39 43  1  0  0  0  0
 40 38  1  0  0  0  0
 42 41  2  0  0  0  0
 43 41  1  0  0  0  0
 44 45  1  0  0  0  0
 46 47  1  0  0  0  0
 47 48  1  0  0  0  0
 48 50  1  0  0  0  0
 49 51  1  0  0  0  0
 50 55  1  0  0  0  0
 53 59  1  1  0  0  0
 53 56  1  0  0  0  0
 54 52  1  0  0  0  0
 54 51  2  0  0  0  0
 55 56  1  0  0  0  0
 55 57  1  1  0  0  0
 56 54  1  1  0  0  0
 57 49  2  0  0  0  0
 58 50  2  0  0  0  0
 58 53  1  0  0  0  0
 60 59  1  0  0  0  0
 62 60  1  0  0  0  0
 62 61  1  1  0  0  0
 63 64  1  0  0  0  0
 64 62  1  0  0  0  0
M  END
>  <MODEL>
5

>  <REMARK>
 VINA RESULT:      -6.1      2.773      7.740
  Name = 
  22 active torsions:
  status: ('A' for Active; 'I' for Inactive)
    1  A    between atoms: C_5  and  C_40
    2  A    between atoms: C_7  and  C_8
    3  A    between atoms: C_7  and  C_43
    4  A    between atoms: C_8  and  C_33
    5  A    between atoms: C_9  and  C_43
    6  A    between atoms: C_9  and  C_53
    7  A    between atoms: S_13  and  C_53
    8  A    between atoms: S_13  and  C_63
    9  A    between atoms: C_14  and  C_38
   10  A    between atoms: C_16  and  C_34
   11  A    between atoms: C_16  and  O_56
   12  A    between atoms: C_20  and  C_33
   13  A    between atoms: N_21  and  C_59
   14  A    between atoms: C_25  and  C_27
   15  A    between atoms: C_30  and  C_35
   16  A    between atoms: C_34  and  C_45
   17  A    between atoms: C_35  and  C_47
   18  A    between atoms: C_43  and  N_60
   19  A    between atoms: C_44  and  C_45
   20  A    between atoms: C_47  and  C_57
   21  A    between atoms: C_50  and  O_56
   22  A    between atoms: C_54  and  C_57
                            x       y       z     vdW  Elec       q    Type
                         _______ _______ _______ _____ _____    ______ ____

>  <TORSDO>
F 22

$$$$
=
 OpenBabel10232410563D

 64 69  0  0  1  0  0  0  0  0999 V2000
  189.6300  177.6720  140.3800 C   0  0  2  0  0  3  0  0  0  0  0  0
  191.0420  177.0870  145.2790 C   0  0  0  0  0  2  0  0  0  0  0  0
  191.1060  177.5780  142.8580 C   0  0  0  0  0  3  0  0  0  0  0  0
  189.6910  177.7930  145.3120 C   0  0  0  0  0  2  0  0  0  0  0  0
  191.7680  177.4040  144.0030 C   0  0  0  0  0  3  0  0  0  0  0  0
  188.8450  177.3850  144.1020 C   0  0  2  0  0  3  0  0  0  0  0  0
  189.6250  177.5320  142.8160 C   0  0  0  0  0  0  0  0  0  0  0  0
  188.9850  177.5360  141.6830 N   0  0  0  0  0  0  0  0  0  0  0  0
  187.6990  178.1840  144.0630 O   0  0  0  0  0  0  0  0  0  0  0  0
  186.6520  177.3540  144.4790 C   0  0  0  0  0  2  0  0  0  0  0  0
  185.3620  177.6940  143.7370 C   0  0  0  0  0  2  0  0  0  0  0  0
  184.7980  178.9280  145.7800 C   0  0  0  0  0  1  0  0  0  0  0  0
  185.1470  180.2090  143.7300 C   0  0  0  0  0  1  0  0  0  0  0  0
  184.5900  178.9050  144.2830 C   0  0  0  0  0  0  0  0  0  0  0  0
  182.7430  178.9190  142.6250 N   0  0  0  0  0  1  0  0  0  0  0  0
  183.0800  178.7960  144.0370 C   0  0  0  0  0  2  0  0  0  0  0  0
  188.7250  177.1800  139.2880 C   0  0  0  0  0  0  0  0  0  0  0  0
  188.7790  176.0190  138.9090 O   0  0  0  0  0  0  0  0  0  0  0  0
  187.7010  178.1090  138.7150 C   0  0  0  0  0  2  0  0  0  0  0  0
  188.1410  178.6150  137.0640 S   0  0  0  0  0  0  0  0  0  0  0  0
  189.6110  178.3870  136.8450 O   0  0  0  0  0  0  0  0  0  0  0  0
  187.8290  180.0770  136.8870 O   0  0  0  0  0  0  0  0  0  0  0  0
  186.6470  178.4750  134.8080 C   0  0  0  0  0  2  0  0  0  0  0  0
  185.7460  177.9940  135.9310 C   0  0  2  0  0  3  0  0  0  0  0  0
  187.2160  177.6120  135.9120 C   0  0  2  0  0  3  0  0  0  0  0  0
  184.3770  176.8470  134.3540 O   0  0  0  0  0  0  0  0  0  0  0  0
  184.7960  175.6800  136.3330 N   0  0  0  0  0  2  0  0  0  0  0  0
  184.9260  176.8270  135.4880 C   0  0  0  0  0  0  0  0  0  0  0  0
  183.7220  171.1440  136.2300 C   0  0  0  0  0  2  0  0  0  0  0  0
  184.2360  172.8750  134.5630 O   0  0  0  0  0  0  0  0  0  0  0  0
  183.0120  173.9640  137.3620 S   0  0  0  0  0  0  0  0  0  0  0  0
  181.9170  172.9660  136.2910 C   0  0  1  0  0  3  0  0  0  0  0  0
  184.8800  173.4870  135.5430 O   0  0  0  0  0  0  0  0  0  0  0  0
  184.2740  171.4880  134.8360 C   0  0  1  0  0  3  0  0  0  0  0  0
  182.2350  171.4710  136.3980 C   0  0  1  0  0  3  0  0  0  0  0  0
  181.4800  170.7460  135.4730 O   0  0  0  0  0  1  0  0  0  0  0  0
  184.0190  174.5130  135.9480 C   0  0  2  0  0  3  0  0  0  0  0  0
  188.0660  170.9840  135.3510 C   0  0  0  0  0  2  0  0  0  0  0  0
  185.6810  170.9170  134.6290 C   0  0  1  0  0  3  0  0  0  0  0  0
  186.6490  171.4490  135.6840 C   0  0  0  0  0  2  0  0  0  0  0  0
  187.0400  168.7920  134.7260 C   0  0  0  0  0  3  0  0  0  0  0  0
  188.1270  169.5060  135.0600 C   0  0  0  0  0  3  0  0  0  0  0  0
  185.6540  169.3870  134.7200 C   0  0  0  0  0  2  0  0  0  0  0  0
  180.4650  173.2160  136.6680 C   0  0  0  0  0  2  0  0  0  0  0  0
  180.3210  174.5650  137.3460 C   0  0  0  0  0  1  0  0  0  0  0  0
  190.9950  176.9860  140.3640 C   0  0  0  0  0  2  0  0  0  0  0  0
  191.5430  176.7990  138.9530 C   0  0  0  0  0  2  0  0  0  0  0  0
  193.0590  176.7300  139.0020 C   0  0  0  0  0  2  0  0  0  0  0  0
  191.5260  173.3650  136.1730 C   0  0  0  0  0  3  0  0  0  0  0  0
  193.6110  175.6930  138.0750 C   0  0  0  0  0  0  0  0  0  0  0  0
  192.5400  172.8710  135.2730 N   0  0  0  0  0  0  0  0  0  0  0  0
  194.7820  172.7570  134.3740 C   0  0  0  0  0  1  0  0  0  0  0  0
  195.1110  174.4400  137.0850 C   0  0  1  0  0  3  0  0  0  0  0  0
  193.7570  173.3330  135.2890 C   0  0  0  0  0  0  0  0  0  0  0  0
  192.9920  175.2730  136.7750 C   0  0  1  0  0  3  0  0  0  0  0  0
  194.0810  174.4040  136.2460 C   0  0  1  0  0  3  0  0  0  0  0  0
  191.7330  174.4560  136.9280 C   0  0  0  0  0  3  0  0  0  0  0  0
  194.8230  175.2590  138.2070 N   0  0  0  0  0  0  0  0  0  0  0  0
  196.2910  173.5280  137.0440 C   0  0  0  0  0  2  0  0  0  0  0  0
  197.3520  174.0100  138.0190 C   0  0  0  0  0  2  0  0  0  0  0  0
  199.6060  174.7910  138.0100 O   0  0  0  0  0  1  0  0  0  0  0  0
  198.7350  173.8840  137.4010 C   0  0  2  0  0  3  0  0  0  0  0  0
  199.1860  175.3980  135.5870 O   0  0  0  0  0  1  0  0  0  0  0  0
  198.7010  174.1260  135.8960 C   0  0  0  0  0  2  0  0  0  0  0  0
  1 46  1  1  0  0  0
  1  8  1  0  0  0  0
  2  4  1  0  0  0  0
  3  5  2  0  0  0  0
  5  2  1  0  0  0  0
  6  9  1  6  0  0  0
  6  4  1  0  0  0  0
  7  3  1  0  0  0  0
  7  6  1  0  0  0  0
  8  7  2  0  0  0  0
  9 10  1  0  0  0  0
 11 14  1  0  0  0  0
 11 10  1  0  0  0  0
 13 14  1  0  0  0  0
 14 12  1  0  0  0  0
 15 16  1  0  0  0  0
 16 14  1  0  0  0  0
 17  1  1  0  0  0  0
 18 17  2  0  0  0  0
 19 17  1  0  0  0  0
 20 19  1  0  0  0  0
 21 20  2  0  0  0  0
 22 20  2  0  0  0  0
 23 25  1  0  0  0  0
 23 24  1  0  0  0  0
 24 28  1  6  0  0  0
 25 24  1  0  0  0  0
 25 20  1  1  0  0  0
 26 28  2  0  0  0  0
 28 27  1  0  0  0  0
 29 35  1  0  0  0  0
 30 34  1  0  0  0  0
 30 33  1  0  0  0  0
 32 35  1  0  0  0  0
 32 44  1  1  0  0  0
 32 31  1  0  0  0  0
 33 37  1  0  0  0  0
 34 29  1  1  0  0  0
 35 36  1  6  0  0  0
 37 27  1  1  0  0  0
 37 31  1  0  0  0  0
 38 40  1  0  0  0  0
 39 43  1  1  0  0  0
 39 34  1  0  0  0  0
 39 40  1  0  0  0  0
 41 42  2  0  0  0  0
 42 38  1  0  0  0  0
 43 41  1  0  0  0  0
 44 45  1  0  0  0  0
 47 48  1  0  0  0  0
 47 46  1  0  0  0  0
 49 57  2  0  0  0  0
 50 58  2  0  0  0  0
 50 48  1  0  0  0  0
 51 54  2  0  0  0  0
 51 49  1  0  0  0  0
 52 54  1  0  0  0  0
 53 59  1  1  0  0  0
 53 58  1  0  0  0  0
 55 57  1  1  0  0  0
 55 50  1  0  0  0  0
 56 54  1  1  0  0  0
 56 55  1  0  0  0  0
 56 53  1  0  0  0  0
 59 60  1  0  0  0  0
 62 61  1  1  0  0  0
 62 60  1  0  0  0  0
 63 64  1  0  0  0  0
 64 62  1  0  0  0  0
M  END
>  <MODEL>
6

>  <REMARK>
 VINA RESULT:      -5.8      3.279      9.099
  Name = 
  22 active torsions:
  status: ('A' for Active; 'I' for Inactive)
    1  A    between atoms: C_5  and  C_40
    2  A    between atoms: C_7  and  C_8
    3  A    between atoms: C_7  and  C_43
    4  A    between atoms: C_8  and  C_33
    5  A    between atoms: C_9  and  C_43
    6  A    between atoms: C_9  and  C_53
    7  A    between atoms: S_13  and  C_53
    8  A    between atoms: S_13  and  C_63
    9  A    between atoms: C_14  and  C_38
   10  A    between atoms: C_16  and  C_34
   11  A    between atoms: C_16  and  O_56
   12  A    between atoms: C_20  and  C_33
   13  A    between atoms: N_21  and  C_59
   14  A    between atoms: C_25  and  C_27
   15  A    between atoms: C_30  and  C_35
   16  A    between atoms: C_34  and  C_45
   17  A    between atoms: C_35  and  C_47
   18  A    between atoms: C_43  and  N_60
   19  A    between atoms: C_44  and  C_45
   20  A    between atoms: C_47  and  C_57
   21  A    between atoms: C_50  and  O_56
   22  A    between atoms: C_54  and  C_57
                            x       y       z     vdW  Elec       q    Type
                         _______ _______ _______ _____ _____    ______ ____

>  <TORSDO>
F 22

$$$$
=
 OpenBabel10232410563D

 64 69  0  0  1  0  0  0  0  0999 V2000
  189.6700  173.9110  136.3230 C   0  0  2  0  0  3  0  0  0  0  0  0
  186.6190  170.0910  134.7610 C   0  0  0  0  0  2  0  0  0  0  0  0
  188.2530  171.4100  136.0630 C   0  0  0  0  0  3  0  0  0  0  0  0
  185.7870  171.3650  134.6540 C   0  0  0  0  0  2  0  0  0  0  0  0
  187.6630  170.2370  135.8300 C   0  0  0  0  0  3  0  0  0  0  0  0
  186.6880  172.5680  134.3590 C   0  0  2  0  0  3  0  0  0  0  0  0
  187.8500  172.6290  135.3230 C   0  0  0  0  0  0  0  0  0  0  0  0
  188.5290  173.7340  135.4270 N   0  0  0  0  0  0  0  0  0  0  0  0
  185.9240  173.7350  134.4510 O   0  0  0  0  0  0  0  0  0  0  0  0
  184.5920  173.3150  134.3930 C   0  0  0  0  0  2  0  0  0  0  0  0
  183.7310  174.1000  135.3800 C   0  0  0  0  0  2  0  0  0  0  0  0
  184.1560  172.8640  137.4550 C   0  0  0  0  0  1  0  0  0  0  0  0
  182.0490  174.0830  137.2630 C   0  0  0  0  0  1  0  0  0  0  0  0
  183.0680  173.2630  136.4850 C   0  0  0  0  0  0  0  0  0  0  0  0
  181.0480  171.8290  136.3310 N   0  0  0  0  0  1  0  0  0  0  0  0
  182.4460  171.9690  135.9450 C   0  0  0  0  0  2  0  0  0  0  0  0
  189.3830  174.9780  137.3380 C   0  0  0  0  0  0  0  0  0  0  0  0
  188.3530  175.6330  137.2820 O   0  0  0  0  0  0  0  0  0  0  0  0
  190.3410  175.1850  138.4700 C   0  0  0  0  0  2  0  0  0  0  0  0
  191.2450  176.7090  138.2800 S   0  0  0  0  0  0  0  0  0  0  0  0
  190.7530  177.4340  137.0580 O   0  0  0  0  0  0  0  0  0  0  0  0
  192.7110  176.4080  138.1270 O   0  0  0  0  0  0  0  0  0  0  0  0
  192.1160  177.6480  140.6680 C   0  0  0  0  0  2  0  0  0  0  0  0
  190.8560  176.8570  140.9700 C   0  0  2  0  0  3  0  0  0  0  0  0
  190.9390  177.7180  139.7210 C   0  0  2  0  0  3  0  0  0  0  0  0
  190.5180  178.5210  142.6400 O   0  0  0  0  0  0  0  0  0  0  0  0
  188.6750  177.1470  142.2250 N   0  0  0  0  0  2  0  0  0  0  0  0
  190.0270  177.5540  141.9970 C   0  0  0  0  0  0  0  0  0  0  0  0
  184.7000  177.9300  144.5320 C   0  0  0  0  0  2  0  0  0  0  0  0
  186.2490  179.2740  143.1790 O   0  0  0  0  0  0  0  0  0  0  0  0
  187.5560  176.6760  144.6150 S   0  0  0  0  0  0  0  0  0  0  0  0
  186.9860  178.0400  145.6890 C   0  0  1  0  0  3  0  0  0  0  0  0
  186.5950  178.1280  142.6160 O   0  0  0  0  0  0  0  0  0  0  0  0
  184.9100  179.1430  143.6110 C   0  0  1  0  0  3  0  0  0  0  0  0
  185.4640  178.0270  145.8560 C   0  0  1  0  0  3  0  0  0  0  0  0
  185.0430  179.1530  146.5670 O   0  0  0  0  0  1  0  0  0  0  0  0
  187.8200  177.7970  143.2050 C   0  0  2  0  0  3  0  0  0  0  0  0
  183.2640  177.9630  140.3250 C   0  0  0  0  0  2  0  0  0  0  0  0
  183.9400  179.1260  142.4240 C   0  0  1  0  0  3  0  0  0  0  0  0
  184.1320  177.8680  141.5780 C   0  0  0  0  0  2  0  0  0  0  0  0
  181.5000  178.9430  141.8020 C   0  0  0  0  0  3  0  0  0  0  0  0
  181.8420  178.3530  140.6450 C   0  0  0  0  0  3  0  0  0  0  0  0
  182.4900  179.1620  142.9190 C   0  0  0  0  0  2  0  0  0  0  0  0
  187.6580  177.9350  147.0500 C   0  0  0  0  0  2  0  0  0  0  0  0
  189.1590  177.7820  146.8880 C   0  0  0  0  0  1  0  0  0  0  0  0
  190.9530  174.1770  135.5380 C   0  0  0  0  0  2  0  0  0  0  0  0
  191.9560  173.0340  135.6470 C   0  0  0  0  0  2  0  0  0  0  0  0
  192.7300  172.9110  134.3480 C   0  0  0  0  0  2  0  0  0  0  0  0
  195.3920  169.6900  136.4010 C   0  0  0  0  0  3  0  0  0  0  0  0
  194.1810  172.6190  134.5750 C   0  0  0  0  0  0  0  0  0  0  0  0
  196.7830  169.7760  136.0250 N   0  0  0  0  0  0  0  0  0  0  0  0
  198.6700  170.7660  134.8830 C   0  0  0  0  0  1  0  0  0  0  0  0
  196.3460  172.9560  134.5960 C   0  0  1  0  0  3  0  0  0  0  0  0
  197.2170  170.6860  135.2030 C   0  0  0  0  0  0  0  0  0  0  0  0
  194.8030  171.2540  134.5690 C   0  0  1  0  0  3  0  0  0  0  0  0
  196.2420  171.6330  134.6350 C   0  0  1  0  0  3  0  0  0  0  0  0
  194.4520  170.4130  135.7700 C   0  0  0  0  0  3  0  0  0  0  0  0
  195.0640  173.5640  134.5360 N   0  0  0  0  0  0  0  0  0  0  0  0
  197.5850  173.7360  134.8820 C   0  0  0  0  0  2  0  0  0  0  0  0
  197.2990  174.7980  135.9300 C   0  0  0  0  0  2  0  0  0  0  0  0
  199.0880  173.5560  136.9020 O   0  0  0  0  0  1  0  0  0  0  0  0
  198.1870  174.5950  137.1460 C   0  0  2  0  0  3  0  0  0  0  0  0
  196.0970  174.8670  138.3060 O   0  0  0  0  0  1  0  0  0  0  0  0
  197.3650  174.2890  138.3950 C   0  0  0  0  0  2  0  0  0  0  0  0
  1 46  1  6  0  0  0
  1 17  1  0  0  0  0
  2  5  1  0  0  0  0
  4  2  1  0  0  0  0
  5  3  2  0  0  0  0
  6  9  1  1  0  0  0
  6  4  1  0  0  0  0
  6  7  1  0  0  0  0
  7  8  2  0  0  0  0
  7  3  1  0  0  0  0
  8  1  1  0  0  0  0
 10  9  1  0  0  0  0
 10 11  1  0  0  0  0
 11 14  1  0  0  0  0
 14 13  1  0  0  0  0
 14 12  1  0  0  0  0
 16 15  1  0  0  0  0
 16 14  1  0  0  0  0
 17 19  1  0  0  0  0
 18 17  2  0  0  0  0
 20 19  1  0  0  0  0
 21 20  2  0  0  0  0
 22 20  2  0  0  0  0
 23 24  1  0  0  0  0
 24 28  1  1  0  0  0
 25 20  1  6  0  0  0
 25 23  1  0  0  0  0
 25 24  1  0  0  0  0
 28 27  1  0  0  0  0
 28 26  2  0  0  0  0
 29 35  1  0  0  0  0
 30 34  1  0  0  0  0
 31 32  1  0  0  0  0
 32 35  1  0  0  0  0
 32 44  1  1  0  0  0
 33 30  1  0  0  0  0
 33 37  1  0  0  0  0
 34 29  1  6  0  0  0
 35 36  1  6  0  0  0
 37 27  1  6  0  0  0
 37 31  1  0  0  0  0
 38 42  1  0  0  0  0
 38 40  1  0  0  0  0
 39 40  1  1  0  0  0
 39 43  1  0  0  0  0
 39 34  1  0  0  0  0
 41 43  1  0  0  0  0
 42 41  2  0  0  0  0
 45 44  1  0  0  0  0
 46 47  1  0  0  0  0
 48 50  1  0  0  0  0
 48 47  1  0  0  0  0
 51 49  1  0  0  0  0
 52 54  1  0  0  0  0
 53 56  1  0  0  0  0
 53 59  1  1  0  0  0
 54 51  2  0  0  0  0
 55 50  1  0  0  0  0
 55 56  1  0  0  0  0
 55 57  1  1  0  0  0
 56 54  1  1  0  0  0
 57 49  2  0  0  0  0
 58 50  2  0  0  0  0
 58 53  1  0  0  0  0
 59 60  1  0  0  0  0
 60 62  1  0  0  0  0
 62 61  1  6  0  0  0
 62 64  1  0  0  0  0
 63 64  1  0  0  0  0
M  END
>  <MODEL>
7

>  <REMARK>
 VINA RESULT:      -5.6      2.777     12.102
  Name = 
  22 active torsions:
  status: ('A' for Active; 'I' for Inactive)
    1  A    between atoms: C_5  and  C_40
    2  A    between atoms: C_7  and  C_8
    3  A    between atoms: C_7  and  C_43
    4  A    between atoms: C_8  and  C_33
    5  A    between atoms: C_9  and  C_43
    6  A    between atoms: C_9  and  C_53
    7  A    between atoms: S_13  and  C_53
    8  A    between atoms: S_13  and  C_63
    9  A    between atoms: C_14  and  C_38
   10  A    between atoms: C_16  and  C_34
   11  A    between atoms: C_16  and  O_56
   12  A    between atoms: C_20  and  C_33
   13  A    between atoms: N_21  and  C_59
   14  A    between atoms: C_25  and  C_27
   15  A    between atoms: C_30  and  C_35
   16  A    between atoms: C_34  and  C_45
   17  A    between atoms: C_35  and  C_47
   18  A    between atoms: C_43  and  N_60
   19  A    between atoms: C_44  and  C_45
   20  A    between atoms: C_47  and  C_57
   21  A    between atoms: C_50  and  O_56
   22  A    between atoms: C_54  and  C_57
                            x       y       z     vdW  Elec       q    Type
                         _______ _______ _______ _____ _____    ______ ____

>  <TORSDO>
F 22

$$$$
=
 OpenBabel10232410563D

 64 69  0  0  1  0  0  0  0  0999 V2000
  193.1190  175.1320  135.9440 C   0  0  2  0  0  3  0  0  0  0  0  0
  197.9630  175.7080  134.3480 C   0  0  0  0  0  2  0  0  0  0  0  0
  195.6530  176.2040  135.0740 C   0  0  0  0  0  3  0  0  0  0  0  0
  198.0060  174.6570  135.4520 C   0  0  0  0  0  2  0  0  0  0  0  0
  196.8040  176.6390  134.5560 C   0  0  0  0  0  3  0  0  0  0  0  0
  196.6910  173.8710  135.4930 C   0  0  2  0  0  3  0  0  0  0  0  0
  195.5000  174.8010  135.5260 C   0  0  0  0  0  0  0  0  0  0  0  0
  194.3390  174.3310  135.8760 N   0  0  0  0  0  0  0  0  0  0  0  0
  196.6920  173.0510  136.6250 O   0  0  0  0  0  0  0  0  0  0  0  0
  197.0100  171.7720  136.1580 C   0  0  0  0  0  2  0  0  0  0  0  0
  196.9700  170.7520  137.2940 C   0  0  0  0  0  2  0  0  0  0  0  0
  195.9660  168.7220  138.2340 C   0  0  0  0  0  1  0  0  0  0  0  0
  195.0790  169.5630  136.1190 C   0  0  0  0  0  1  0  0  0  0  0  0
  196.3520  169.3920  136.9350 C   0  0  0  0  0  0  0  0  0  0  0  0
  198.7210  168.7100  136.6480 N   0  0  0  0  0  1  0  0  0  0  0  0
  197.3480  168.4660  136.2260 C   0  0  0  0  0  2  0  0  0  0  0  0
  193.2100  176.1410  137.0520 C   0  0  0  0  0  0  0  0  0  0  0  0
  193.8130  177.1920  136.8910 O   0  0  0  0  0  0  0  0  0  0  0  0
  192.4900  175.8800  138.3380 C   0  0  0  0  0  2  0  0  0  0  0  0
  190.8470  176.5700  138.3090 S   0  0  0  0  0  0  0  0  0  0  0  0
  189.8440  175.4680  138.1100 O   0  0  0  0  0  0  0  0  0  0  0  0
  190.7370  177.5570  137.1780 O   0  0  0  0  0  0  0  0  0  0  0  0
  191.0540  176.4800  141.0090 C   0  0  0  0  0  2  0  0  0  0  0  0
  189.5670  176.5430  140.7100 C   0  0  2  0  0  3  0  0  0  0  0  0
  190.5490  177.3560  139.8840 C   0  0  2  0  0  3  0  0  0  0  0  0
  188.5570  178.6120  141.3240 O   0  0  0  0  0  0  0  0  0  0  0  0
  188.5340  176.9690  142.9840 N   0  0  0  0  0  2  0  0  0  0  0  0
  188.8720  177.4430  141.6770 C   0  0  0  0  0  0  0  0  0  0  0  0
  184.9300  178.3300  145.6100 C   0  0  0  0  0  2  0  0  0  0  0  0
  186.3780  179.3750  143.9210 O   0  0  0  0  0  0  0  0  0  0  0  0
  187.6940  176.8830  145.5280 S   0  0  0  0  0  0  0  0  0  0  0  0
  187.3450  178.4090  146.4710 C   0  0  1  0  0  3  0  0  0  0  0  0
  186.5810  178.1450  143.4790 O   0  0  0  0  0  0  0  0  0  0  0  0
  185.0970  179.4010  144.5180 C   0  0  1  0  0  3  0  0  0  0  0  0
  185.8570  178.5320  146.8130 C   0  0  1  0  0  3  0  0  0  0  0  0
  185.5960  179.7670  147.4120 O   0  0  0  0  0  1  0  0  0  0  0  0
  187.8480  177.7980  143.9610 C   0  0  2  0  0  3  0  0  0  0  0  0
  183.1810  178.1540  141.4080 C   0  0  0  0  0  2  0  0  0  0  0  0
  183.9880  179.3100  143.4640 C   0  0  1  0  0  3  0  0  0  0  0  0
  184.2120  178.1180  142.5350 C   0  0  0  0  0  2  0  0  0  0  0  0
  181.5260  178.8540  143.1460 C   0  0  0  0  0  3  0  0  0  0  0  0
  181.7790  178.3550  141.9250 C   0  0  0  0  0  3  0  0  0  0  0  0
  182.6210  179.1510  144.1390 C   0  0  0  0  0  2  0  0  0  0  0  0
  188.1720  178.4220  147.7470 C   0  0  0  0  0  2  0  0  0  0  0  0
  189.3400  177.4600  147.6300 C   0  0  0  0  0  1  0  0  0  0  0  0
  191.8810  174.2450  136.0580 C   0  0  0  0  0  2  0  0  0  0  0  0
  190.7630  174.6710  135.1120 C   0  0  0  0  0  2  0  0  0  0  0  0
  189.9920  173.4470  134.6530 C   0  0  0  0  0  2  0  0  0  0  0  0
  186.1470  170.8390  134.3520 C   0  0  0  0  0  3  0  0  0  0  0  0
  188.6160  173.3890  135.2380 C   0  0  0  0  0  0  0  0  0  0  0  0
  185.2030  171.0910  135.4140 N   0  0  0  0  0  0  0  0  0  0  0  0
  184.4030  172.2390  137.3860 C   0  0  0  0  0  1  0  0  0  0  0  0
  186.8600  174.0370  136.3780 C   0  0  1  0  0  3  0  0  0  0  0  0
  185.4290  171.9790  136.3380 C   0  0  0  0  0  0  0  0  0  0  0  0
  187.8700  172.1330  135.5800 C   0  0  1  0  0  3  0  0  0  0  0  0
  186.7010  172.7210  136.2930 C   0  0  1  0  0  3  0  0  0  0  0  0
  187.3850  171.3600  134.3790 C   0  0  0  0  0  3  0  0  0  0  0  0
  188.0620  174.4440  135.7410 N   0  0  0  0  0  0  0  0  0  0  0  0
  185.8100  175.0090  136.7980 C   0  0  0  0  0  2  0  0  0  0  0  0
  185.2430  175.7180  135.5800 C   0  0  0  0  0  2  0  0  0  0  0  0
  183.7460  176.4590  137.2820 O   0  0  0  0  0  1  0  0  0  0  0  0
  184.2160  176.7560  136.0000 C   0  0  2  0  0  3  0  0  0  0  0  0
  182.1450  177.8170  135.3900 O   0  0  0  0  0  1  0  0  0  0  0  0
  183.0490  176.8190  135.0200 C   0  0  0  0  0  2  0  0  0  0  0  0
  1 46  1  1  0  0  0
  1 17  1  0  0  0  0
  2  5  1  0  0  0  0
  2  4  1  0  0  0  0
  3  7  1  0  0  0  0
  4  6  1  0  0  0  0
  5  3  2  0  0  0  0
  6  7  1  0  0  0  0
  6  9  1  1  0  0  0
  7  8  2  0  0  0  0
  8  1  1  0  0  0  0
 10  9  1  0  0  0  0
 10 11  1  0  0  0  0
 13 14  1  0  0  0  0
 14 11  1  0  0  0  0
 14 12  1  0  0  0  0
 16 15  1  0  0  0  0
 16 14  1  0  0  0  0
 17 19  1  0  0  0  0
 18 17  2  0  0  0  0
 20 19  1  0  0  0  0
 21 20  2  0  0  0  0
 22 20  2  0  0  0  0
 24 23  1  0  0  0  0
 24 28  1  1  0  0  0
 25 20  1  6  0  0  0
 25 24  1  0  0  0  0
 25 23  1  0  0  0  0
 26 28  2  0  0  0  0
 28 27  1  0  0  0  0
 29 35  1  0  0  0  0
 30 34  1  0  0  0  0
 31 32  1  0  0  0  0
 32 35  1  0  0  0  0
 32 44  1  1  0  0  0
 33 30  1  0  0  0  0
 33 37  1  0  0  0  0
 34 29  1  1  0  0  0
 35 36  1  6  0  0  0
 37 27  1  6  0  0  0
 37 31  1  0  0  0  0
 38 42  1  0  0  0  0
 38 40  1  0  0  0  0
 39 40  1  6  0  0  0
 39 43  1  0  0  0  0
 39 34  1  0  0  0  0
 41 43  1  0  0  0  0
 42 41  2  0  0  0  0
 45 44  1  0  0  0  0
 47 46  1  0  0  0  0
 48 47  1  0  0  0  0
 48 50  1  0  0  0  0
 49 57  2  0  0  0  0
 49 51  1  0  0  0  0
 50 55  1  0  0  0  0
 50 58  2  0  0  0  0
 51 54  2  0  0  0  0
 53 59  1  6  0  0  0
 54 52  1  0  0  0  0
 55 57  1  6  0  0  0
 55 56  1  0  0  0  0
 56 54  1  6  0  0  0
 56 53  1  0  0  0  0
 58 53  1  0  0  0  0
 60 62  1  0  0  0  0
 60 59  1  0  0  0  0
 62 61  1  1  0  0  0
 64 63  1  0  0  0  0
 64 62  1  0  0  0  0
M  END
>  <MODEL>
8

>  <REMARK>
 VINA RESULT:      -5.0      2.794     11.156
  Name = 
  22 active torsions:
  status: ('A' for Active; 'I' for Inactive)
    1  A    between atoms: C_5  and  C_40
    2  A    between atoms: C_7  and  C_8
    3  A    between atoms: C_7  and  C_43
    4  A    between atoms: C_8  and  C_33
    5  A    between atoms: C_9  and  C_43
    6  A    between atoms: C_9  and  C_53
    7  A    between atoms: S_13  and  C_53
    8  A    between atoms: S_13  and  C_63
    9  A    between atoms: C_14  and  C_38
   10  A    between atoms: C_16  and  C_34
   11  A    between atoms: C_16  and  O_56
   12  A    between atoms: C_20  and  C_33
   13  A    between atoms: N_21  and  C_59
   14  A    between atoms: C_25  and  C_27
   15  A    between atoms: C_30  and  C_35
   16  A    between atoms: C_34  and  C_45
   17  A    between atoms: C_35  and  C_47
   18  A    between atoms: C_43  and  N_60
   19  A    between atoms: C_44  and  C_45
   20  A    between atoms: C_47  and  C_57
   21  A    between atoms: C_50  and  O_56
   22  A    between atoms: C_54  and  C_57
                            x       y       z     vdW  Elec       q    Type
                         _______ _______ _______ _____ _____    ______ ____

>  <TORSDO>
F 22

$$$$
=
 OpenBabel10232410563D

 64 69  0  0  1  0  0  0  0  0999 V2000
  191.0350  175.6900  138.0110 C   0  0  2  0  0  3  0  0  0  0  0  0
  188.5680  172.8920  134.4860 C   0  0  0  0  0  2  0  0  0  0  0  0
  189.9000  173.5320  136.4670 C   0  0  0  0  0  3  0  0  0  0  0  0
  187.6400  174.0530  134.8260 C   0  0  0  0  0  2  0  0  0  0  0  0
  189.4550  172.5720  135.6540 C   0  0  0  0  0  3  0  0  0  0  0  0
  188.4540  175.2860  135.2310 C   0  0  2  0  0  3  0  0  0  0  0  0
  189.4790  174.9420  136.2870 C   0  0  0  0  0  0  0  0  0  0  0  0
  190.0340  175.9010  136.9680 N   0  0  0  0  0  0  0  0  0  0  0  0
  187.5790  176.2660  135.7110 O   0  0  0  0  0  0  0  0  0  0  0  0
  186.3010  175.7080  135.6060 C   0  0  0  0  0  2  0  0  0  0  0  0
  185.6590  175.5580  136.9830 C   0  0  0  0  0  2  0  0  0  0  0  0
  184.1220  174.1440  135.6970 C   0  0  0  0  0  1  0  0  0  0  0  0
  185.2060  173.1670  137.6550 C   0  0  0  0  0  1  0  0  0  0  0  0
  184.6030  174.4480  137.0980 C   0  0  0  0  0  0  0  0  0  0  0  0
  182.1740  174.1650  137.5240 N   0  0  0  0  0  1  0  0  0  0  0  0
  183.3790  174.8870  137.9110 C   0  0  0  0  0  2  0  0  0  0  0  0
  190.7840  176.6020  139.1760 C   0  0  0  0  0  0  0  0  0  0  0  0
  190.3540  177.7330  139.0020 O   0  0  0  0  0  0  0  0  0  0  0  0
  190.9980  176.0880  140.5660 C   0  0  0  0  0  2  0  0  0  0  0  0
  191.1260  177.4260  141.7360 S   0  0  0  0  0  0  0  0  0  0  0  0
  191.5060  178.6880  141.0130 O   0  0  0  0  0  0  0  0  0  0  0  0
  192.1810  177.0990  142.7590 O   0  0  0  0  0  0  0  0  0  0  0  0
  188.9270  176.3050  142.8540 C   0  0  0  0  0  2  0  0  0  0  0  0
  188.4320  177.0570  141.6320 C   0  0  2  0  0  3  0  0  0  0  0  0
  189.5280  177.6470  142.5020 C   0  0  2  0  0  3  0  0  0  0  0  0
  186.8830  178.1090  143.1050 O   0  0  0  0  0  0  0  0  0  0  0  0
  186.2240  178.0330  140.8660 N   0  0  0  0  0  2  0  0  0  0  0  0
  187.1420  177.7500  141.9250 C   0  0  0  0  0  0  0  0  0  0  0  0
  181.6320  178.7130  140.4230 C   0  0  0  0  0  2  0  0  0  0  0  0
  183.6620  180.0210  139.9700 O   0  0  0  0  0  0  0  0  0  0  0  0
  183.9570  177.7540  142.2710 S   0  0  0  0  0  0  0  0  0  0  0  0
  182.8690  179.1790  142.6220 C   0  0  1  0  0  3  0  0  0  0  0  0
  184.2750  178.8520  139.8790 O   0  0  0  0  0  0  0  0  0  0  0  0
  182.3130  179.8180  139.5990 C   0  0  1  0  0  3  0  0  0  0  0  0
  181.5160  179.0430  141.9150 C   0  0  1  0  0  3  0  0  0  0  0  0
  180.7580  180.2030  142.0880 O   0  0  0  0  0  1  0  0  0  0  0  0
  184.9590  178.7140  141.0920 C   0  0  2  0  0  3  0  0  0  0  0  0
  181.6740  177.8890  136.3180 C   0  0  0  0  0  2  0  0  0  0  0  0
  182.1800  179.5640  138.0940 C   0  0  1  0  0  3  0  0  0  0  0  0
  181.6420  178.1600  137.8210 C   0  0  0  0  0  2  0  0  0  0  0  0
  180.9020  180.2500  136.0280 C   0  0  0  0  0  3  0  0  0  0  0  0
  181.0610  179.0150  135.5230 C   0  0  0  0  0  3  0  0  0  0  0  0
  181.2230  180.5820  137.4630 C   0  0  0  0  0  2  0  0  0  0  0  0
  182.6580  179.3050  144.1230 C   0  0  0  0  0  2  0  0  0  0  0  0
  183.9370  178.9650  144.8650 C   0  0  0  0  0  1  0  0  0  0  0  0
  192.4510  175.8240  137.4540 C   0  0  0  0  0  2  0  0  0  0  0  0
  192.4880  176.5480  136.1130 C   0  0  0  0  0  2  0  0  0  0  0  0
  193.7400  176.1470  135.3540 C   0  0  0  0  0  2  0  0  0  0  0  0
  193.3270  171.5730  136.1190 C   0  0  0  0  0  3  0  0  0  0  0  0
  194.4870  175.0420  136.0330 C   0  0  0  0  0  0  0  0  0  0  0  0
  194.5460  170.9610  136.5910 N   0  0  0  0  0  0  0  0  0  0  0  0
  196.8500  170.9870  137.3240 C   0  0  0  0  0  1  0  0  0  0  0  0
  196.0070  174.0810  137.2850 C   0  0  1  0  0  3  0  0  0  0  0  0
  195.6300  171.6540  136.7880 C   0  0  0  0  0  0  0  0  0  0  0  0
  194.5860  173.6290  135.5370 C   0  0  1  0  0  3  0  0  0  0  0  0
  195.5970  173.0960  136.4940 C   0  0  1  0  0  3  0  0  0  0  0  0
  193.3080  172.8390  135.6700 C   0  0  0  0  0  3  0  0  0  0  0  0
  195.3320  175.2920  136.9800 N   0  0  0  0  0  0  0  0  0  0  0  0
  196.8240  173.9130  138.5220 C   0  0  0  0  0  2  0  0  0  0  0  0
  196.2060  174.7030  139.6630 C   0  0  0  0  0  2  0  0  0  0  0  0
  198.3110  175.7800  139.3590 O   0  0  0  0  0  1  0  0  0  0  0  0
  197.1910  175.7310  140.1920 C   0  0  2  0  0  3  0  0  0  0  0  0
  198.9620  175.0370  141.6640 O   0  0  0  0  0  1  0  0  0  0  0  0
  197.6190  175.4160  141.6210 C   0  0  0  0  0  2  0  0  0  0  0  0
  1 46  1  6  0  0  0
  1 17  1  0  0  0  0
  2  4  1  0  0  0  0
  2  5  1  0  0  0  0
  4  6  1  0  0  0  0
  5  3  2  0  0  0  0
  6  9  1  1  0  0  0
  6  7  1  0  0  0  0
  7  3  1  0  0  0  0
  7  8  2  0  0  0  0
  8  1  1  0  0  0  0
 10  9  1  0  0  0  0
 10 11  1  0  0  0  0
 11 14  1  0  0  0  0
 12 14  1  0  0  0  0
 14 13  1  0  0  0  0
 14 16  1  0  0  0  0
 15 16  1  0  0  0  0
 17 19  1  0  0  0  0
 18 17  2  0  0  0  0
 19 20  1  0  0  0  0
 20 22  2  0  0  0  0
 21 20  2  0  0  0  0
 24 28  1  1  0  0  0
 24 25  1  0  0  0  0
 24 23  1  0  0  0  0
 25 20  1  6  0  0  0
 25 23  1  0  0  0  0
 27 28  1  0  0  0  0
 28 26  2  0  0  0  0
 29 35  1  0  0  0  0
 31 32  1  0  0  0  0
 32 44  1  1  0  0  0
 33 30  1  0  0  0  0
 33 37  1  0  0  0  0
 34 30  1  0  0  0  0
 34 29  1  1  0  0  0
 35 36  1  6  0  0  0
 35 32  1  0  0  0  0
 37 27  1  6  0  0  0
 37 31  1  0  0  0  0
 38 40  1  0  0  0  0
 39 43  1  1  0  0  0
 39 34  1  0  0  0  0
 40 39  1  0  0  0  0
 41 43  1  0  0  0  0
 42 41  2  0  0  0  0
 42 38  1  0  0  0  0
 44 45  1  0  0  0  0
 47 46  1  0  0  0  0
 48 50  1  0  0  0  0
 48 47  1  0  0  0  0
 49 51  1  0  0  0  0
 50 58  2  0  0  0  0
 51 54  2  0  0  0  0
 53 59  1  1  0  0  0
 54 52  1  0  0  0  0
 55 57  1  1  0  0  0
 55 50  1  0  0  0  0
 55 56  1  0  0  0  0
 56 54  1  1  0  0  0
 56 53  1  0  0  0  0
 57 49  2  0  0  0  0
 58 53  1  0  0  0  0
 59 60  1  0  0  0  0
 60 62  1  0  0  0  0
 62 61  1  6  0  0  0
 62 64  1  0  0  0  0
 64 63  1  0  0  0  0
M  END
>  <MODEL>
9

>  <REMARK>
 VINA RESULT:      -5.0      3.046     11.837
  Name = 
  22 active torsions:
  status: ('A' for Active; 'I' for Inactive)
    1  A    between atoms: C_5  and  C_40
    2  A    between atoms: C_7  and  C_8
    3  A    between atoms: C_7  and  C_43
    4  A    between atoms: C_8  and  C_33
    5  A    between atoms: C_9  and  C_43
    6  A    between atoms: C_9  and  C_53
    7  A    between atoms: S_13  and  C_53
    8  A    between atoms: S_13  and  C_63
    9  A    between atoms: C_14  and  C_38
   10  A    between atoms: C_16  and  C_34
   11  A    between atoms: C_16  and  O_56
   12  A    between atoms: C_20  and  C_33
   13  A    between atoms: N_21  and  C_59
   14  A    between atoms: C_25  and  C_27
   15  A    between atoms: C_30  and  C_35
   16  A    between atoms: C_34  and  C_45
   17  A    between atoms: C_35  and  C_47
   18  A    between atoms: C_43  and  N_60
   19  A    between atoms: C_44  and  C_45
   20  A    between atoms: C_47  and  C_57
   21  A    between atoms: C_50  and  O_56
   22  A    between atoms: C_54  and  C_57
                            x       y       z     vdW  Elec       q    Type
                         _______ _______ _______ _____ _____    ______ ____

>  <TORSDO>
F 22

$$$$
