=
 OpenBabel10222421463D

 31 34  0  0  1  0  0  0  0  0999 V2000
  189.2460  177.8890  139.9530 C   0  0  2  0  0  3  0  0  0  0  0  0
  187.0960  177.9780  142.8480 C   0  0  0  0  0  0  0  0  0  0  0  0
  188.2660  177.6100  142.2240 C   0  0  0  0  0  3  0  0  0  0  0  0
  184.3920  178.5280  143.5000 C   0  0  1  0  0  3  0  0  0  0  0  0
  186.3400  178.6790  141.9540 C   0  0  0  0  0  0  0  0  0  0  0  0
  188.2110  178.0920  140.9620 N   0  0  0  0  0  0  0  0  0  0  0  0
  186.6470  177.7290  144.2190 C   0  0  0  0  0  3  0  0  0  0  0  0
  185.0290  179.2980  142.3190 C   0  0  0  0  0  2  0  0  0  0  0  0
  187.0500  178.7650  140.7800 C   0  0  0  0  0  3  0  0  0  0  0  0
  185.3900  178.0580  144.5530 C   0  0  0  0  0  0  0  0  0  0  0  0
  184.9710  177.8230  145.8220 F   0  0  0  0  0  0  0  0  0  0  0  0
  183.2830  179.3600  144.1250 C   0  0  0  0  0  2  0  0  0  0  0  0
  181.9370  178.6670  143.9660 C   0  0  0  0  0  2  0  0  0  0  0  0
  181.4440  178.6540  141.6330 O   0  0  0  0  0  0  0  0  0  0  0  0
  180.3480  180.2940  142.8600 N   0  0  0  0  0  1  0  0  0  0  0  0
  181.2280  179.1780  142.7560 C   0  0  0  0  0  0  0  0  0  0  0  0
  188.0400  176.3720  138.3930 O   0  0  0  0  0  0  0  0  0  0  0  0
  188.5490  178.3240  137.5310 C   0  0  0  0  0  3  0  0  0  0  0  0
  186.8970  175.3420  136.4660 C   0  0  0  0  0  1  0  0  0  0  0  0
  187.6120  176.4460  137.1570 C   0  0  0  0  0  0  0  0  0  0  0  0
  188.6220  177.5170  138.6480 C   0  0  0  0  0  0  0  0  0  0  0  0
  187.8930  177.6310  136.5750 N   0  0  0  0  0  0  0  0  0  0  0  0
  190.1680  176.8400  140.3840 N   0  0  0  0  0  2  0  0  0  0  0  0
  191.5410  177.3150  140.2250 C   0  0  0  0  0  2  0  0  0  0  0  0
  192.2840  177.2060  141.4790 N   0  0  0  0  0  2  0  0  0  0  0  0
  190.8050  176.4630  144.8400 C   0  0  0  0  0  3  0  0  0  0  0  0
  191.4140  176.2730  143.5960 C   0  0  0  0  0  3  0  0  0  0  0  0
  190.7700  178.8560  144.4590 C   0  0  0  0  0  3  0  0  0  0  0  0
  190.4790  177.7530  145.2690 C   0  0  0  0  0  3  0  0  0  0  0  0
  191.7060  177.3750  142.7780 C   0  0  0  0  0  0  0  0  0  0  0  0
  191.3820  178.6650  143.2150 C   0  0  0  0  0  3  0  0  0  0  0  0
  1 23  1  1  0  0  0
  1  6  1  0  0  0  0
  2  7  1  0  0  0  0
  3  2  2  0  0  0  0
  4 12  1  1  0  0  0
  4 10  1  0  0  0  0
  5  8  1  0  0  0  0
  5  2  1  0  0  0  0
  6  3  1  0  0  0  0
  7 10  2  0  0  0  0
  8  4  1  0  0  0  0
  9  6  1  0  0  0  0
  9  5  2  0  0  0  0
 10 11  1  0  0  0  0
 13 12  1  0  0  0  0
 14 16  2  0  0  0  0
 16 15  1  0  0  0  0
 16 13  1  0  0  0  0
 17 21  1  0  0  0  0
 18 21  2  0  0  0  0
 19 20  1  0  0  0  0
 20 17  1  0  0  0  0
 21  1  1  0  0  0  0
 22 20  2  0  0  0  0
 22 18  1  0  0  0  0
 24 23  1  0  0  0  0
 24 25  1  0  0  0  0
 25 30  1  0  0  0  0
 26 29  1  0  0  0  0
 27 26  2  0  0  0  0
 28 29  2  0  0  0  0
 30 31  2  0  0  0  0
 30 27  1  0  0  0  0
 31 28  1  0  0  0  0
M  END
>  <MODEL>
1

>  <REMARK>
 VINA RESULT:      -7.8      0.000      0.000
  Name = 
  9 active torsions:
  status: ('A' for Active; 'I' for Inactive)
    1  A    between atoms: C_2  and  N_13
    2  A    between atoms: C_2  and  N_25
    3  A    between atoms: C_2  and  C_28
    4  A    between atoms: N_4  and  C_22
    5  A    between atoms: N_4  and  C_27
    6  A    between atoms: C_8  and  C_23
    7  A    between atoms: C_11  and  C_21
    8  A    between atoms: C_11  and  C_23
    9  A    between atoms: C_22  and  N_25
                            x       y       z     vdW  Elec       q    Type
                         _______ _______ _______ _____ _____    ______ ____

>  <TORSDO>
F 9

$$$$
=
 OpenBabel10222421463D

 31 34  0  0  1  0  0  0  0  0999 V2000
  190.4400  177.2330  139.4990 C   0  0  2  0  0  3  0  0  0  0  0  0
  190.3120  177.4700  143.0970 C   0  0  0  0  0  0  0  0  0  0  0  0
  191.0140  177.3610  141.9180 C   0  0  0  0  0  3  0  0  0  0  0  0
  188.4300  177.2070  145.2010 C   0  0  1  0  0  3  0  0  0  0  0  0
  188.9820  177.5380  142.7940 C   0  0  0  0  0  0  0  0  0  0  0  0
  190.1080  177.3670  140.9150 N   0  0  0  0  0  0  0  0  0  0  0  0
  190.7990  177.5260  144.4760 C   0  0  0  0  0  3  0  0  0  0  0  0
  187.9300  177.7360  143.8370 C   0  0  0  0  0  2  0  0  0  0  0  0
  188.8600  177.4930  141.4260 C   0  0  0  0  0  3  0  0  0  0  0  0
  189.9050  177.4780  145.4750 C   0  0  0  0  0  0  0  0  0  0  0  0
  190.3560  177.5250  146.7540 F   0  0  0  0  0  0  0  0  0  0  0  0
  187.5540  177.7470  146.3210 C   0  0  0  0  0  2  0  0  0  0  0  0
  186.0810  177.5300  146.0010 C   0  0  0  0  0  2  0  0  0  0  0  0
  185.7100  179.5140  147.2710 O   0  0  0  0  0  0  0  0  0  0  0  0
  184.0140  178.9710  145.7810 N   0  0  0  0  0  1  0  0  0  0  0  0
  185.2830  178.7330  146.3830 C   0  0  0  0  0  0  0  0  0  0  0  0
  188.2510  176.8460  138.3830 O   0  0  0  0  0  0  0  0  0  0  0  0
  189.0740  178.8560  138.0700 C   0  0  0  0  0  3  0  0  0  0  0  0
  186.1540  177.0420  137.1010 C   0  0  0  0  0  1  0  0  0  0  0  0
  187.4380  177.5580  137.6420 C   0  0  0  0  0  0  0  0  0  0  0  0
  189.2680  177.6230  138.6590 C   0  0  0  0  0  0  0  0  0  0  0  0
  187.8910  178.8090  137.4200 N   0  0  0  0  0  0  0  0  0  0  0  0
  190.8320  175.8560  139.2040 N   0  0  0  0  0  2  0  0  0  0  0  0
  191.5970  175.8330  137.9590 C   0  0  0  0  0  2  0  0  0  0  0  0
  191.2620  174.6570  137.1580 N   0  0  0  0  0  2  0  0  0  0  0  0
  188.3820  175.1690  134.8160 C   0  0  0  0  0  3  0  0  0  0  0  0
  189.6220  175.3400  135.4390 C   0  0  0  0  0  3  0  0  0  0  0  0
  187.9230  173.2720  136.2530 C   0  0  0  0  0  3  0  0  0  0  0  0
  187.5310  174.1380  135.2260 C   0  0  0  0  0  3  0  0  0  0  0  0
  190.0190  174.4760  136.4700 C   0  0  0  0  0  0  0  0  0  0  0  0
  189.1660  173.4420  136.8730 C   0  0  0  0  0  3  0  0  0  0  0  0
  1 23  1  1  0  0  0
  1  6  1  0  0  0  0
  2  7  1  0  0  0  0
  3  2  2  0  0  0  0
  4 10  1  0  0  0  0
  4 12  1  1  0  0  0
  5  2  1  0  0  0  0
  5  8  1  0  0  0  0
  6  9  1  0  0  0  0
  6  3  1  0  0  0  0
  7 10  2  0  0  0  0
  8  4  1  0  0  0  0
  9  5  2  0  0  0  0
 10 11  1  0  0  0  0
 13 12  1  0  0  0  0
 13 16  1  0  0  0  0
 15 16  1  0  0  0  0
 16 14  2  0  0  0  0
 17 21  1  0  0  0  0
 18 21  2  0  0  0  0
 19 20  1  0  0  0  0
 20 17  1  0  0  0  0
 21  1  1  0  0  0  0
 22 20  2  0  0  0  0
 22 18  1  0  0  0  0
 24 23  1  0  0  0  0
 25 24  1  0  0  0  0
 26 29  2  0  0  0  0
 26 27  1  0  0  0  0
 27 30  2  0  0  0  0
 28 31  2  0  0  0  0
 29 28  1  0  0  0  0
 30 31  1  0  0  0  0
 30 25  1  0  0  0  0
M  END
>  <MODEL>
2

>  <REMARK>
 VINA RESULT:      -7.8      2.750      5.301
  Name = 
  9 active torsions:
  status: ('A' for Active; 'I' for Inactive)
    1  A    between atoms: C_2  and  N_13
    2  A    between atoms: C_2  and  N_25
    3  A    between atoms: C_2  and  C_28
    4  A    between atoms: N_4  and  C_22
    5  A    between atoms: N_4  and  C_27
    6  A    between atoms: C_8  and  C_23
    7  A    between atoms: C_11  and  C_21
    8  A    between atoms: C_11  and  C_23
    9  A    between atoms: C_22  and  N_25
                            x       y       z     vdW  Elec       q    Type
                         _______ _______ _______ _____ _____    ______ ____

>  <TORSDO>
F 9

$$$$
=
 OpenBabel10222421463D

 31 34  0  0  1  0  0  0  0  0999 V2000
  190.3060  177.1840  139.2490 C   0  0  2  0  0  3  0  0  0  0  0  0
  190.2550  177.3120  142.8530 C   0  0  0  0  0  0  0  0  0  0  0  0
  190.9260  177.1770  141.6600 C   0  0  0  0  0  3  0  0  0  0  0  0
  188.3880  177.1580  144.9820 C   0  0  1  0  0  3  0  0  0  0  0  0
  188.9330  177.5150  142.5770 C   0  0  0  0  0  0  0  0  0  0  0  0
  190.0090  177.3010  140.6740 N   0  0  0  0  0  0  0  0  0  0  0  0
  190.7660  177.2770  144.2240 C   0  0  0  0  0  3  0  0  0  0  0  0
  187.9200  177.7770  143.6440 C   0  0  0  0  0  2  0  0  0  0  0  0
  188.7860  177.5270  141.2110 C   0  0  0  0  0  3  0  0  0  0  0  0
  189.8870  177.2810  145.2380 C   0  0  0  0  0  0  0  0  0  0  0  0
  190.3580  177.2420  146.5090 F   0  0  0  0  0  0  0  0  0  0  0  0
  187.5840  177.7410  146.1340 C   0  0  0  0  0  2  0  0  0  0  0  0
  186.0960  177.4890  145.9300 C   0  0  0  0  0  2  0  0  0  0  0  0
  185.7340  179.4740  147.2010 O   0  0  0  0  0  0  0  0  0  0  0  0
  184.0470  178.9520  145.6930 N   0  0  0  0  0  1  0  0  0  0  0  0
  185.3080  178.7000  146.3060 C   0  0  0  0  0  0  0  0  0  0  0  0
  188.0350  177.0270  138.2450 O   0  0  0  0  0  0  0  0  0  0  0  0
  189.0820  178.9050  137.8060 C   0  0  0  0  0  3  0  0  0  0  0  0
  185.9190  177.4300  137.0460 C   0  0  0  0  0  1  0  0  0  0  0  0
  187.2800  177.8040  137.5080 C   0  0  0  0  0  0  0  0  0  0  0  0
  189.1520  177.6820  138.4420 C   0  0  0  0  0  0  0  0  0  0  0  0
  187.8720  178.9800  137.2100 N   0  0  0  0  0  0  0  0  0  0  0  0
  190.5900  175.7910  138.9090 N   0  0  0  0  0  2  0  0  0  0  0  0
  191.1480  175.7310  137.5590 C   0  0  0  0  0  2  0  0  0  0  0  0
  192.4050  176.4730  137.4760 N   0  0  0  0  0  2  0  0  0  0  0  0
  195.4620  175.6600  135.4680 C   0  0  0  0  0  3  0  0  0  0  0  0
  194.2660  176.2680  135.8620 C   0  0  0  0  0  3  0  0  0  0  0  0
  195.4410  174.3120  137.4820 C   0  0  0  0  0  3  0  0  0  0  0  0
  196.0470  174.6790  136.2750 C   0  0  0  0  0  3  0  0  0  0  0  0
  193.6540  175.9020  137.0710 C   0  0  0  0  0  0  0  0  0  0  0  0
  194.2470  174.9230  137.8770 C   0  0  0  0  0  3  0  0  0  0  0  0
  1 23  1  6  0  0  0
  1  6  1  0  0  0  0
  2  7  1  0  0  0  0
  3  2  2  0  0  0  0
  4 10  1  0  0  0  0
  4 12  1  1  0  0  0
  5  2  1  0  0  0  0
  5  8  1  0  0  0  0
  6  9  1  0  0  0  0
  6  3  1  0  0  0  0
  7 10  2  0  0  0  0
  8  4  1  0  0  0  0
  9  5  2  0  0  0  0
 10 11  1  0  0  0  0
 13 12  1  0  0  0  0
 13 16  1  0  0  0  0
 15 16  1  0  0  0  0
 16 14  2  0  0  0  0
 17 21  1  0  0  0  0
 18 21  2  0  0  0  0
 19 20  1  0  0  0  0
 20 17  1  0  0  0  0
 21  1  1  0  0  0  0
 22 20  2  0  0  0  0
 22 18  1  0  0  0  0
 24 23  1  0  0  0  0
 25 24  1  0  0  0  0
 26 27  2  0  0  0  0
 26 29  1  0  0  0  0
 27 30  1  0  0  0  0
 28 31  1  0  0  0  0
 29 28  2  0  0  0  0
 30 25  1  0  0  0  0
 30 31  2  0  0  0  0
M  END
>  <MODEL>
3

>  <REMARK>
 VINA RESULT:      -7.7      3.329      5.111
  Name = 
  9 active torsions:
  status: ('A' for Active; 'I' for Inactive)
    1  A    between atoms: C_2  and  N_13
    2  A    between atoms: C_2  and  N_25
    3  A    between atoms: C_2  and  C_28
    4  A    between atoms: N_4  and  C_22
    5  A    between atoms: N_4  and  C_27
    6  A    between atoms: C_8  and  C_23
    7  A    between atoms: C_11  and  C_21
    8  A    between atoms: C_11  and  C_23
    9  A    between atoms: C_22  and  N_25
                            x       y       z     vdW  Elec       q    Type
                         _______ _______ _______ _____ _____    ______ ____

>  <TORSDO>
F 9

$$$$
=
 OpenBabel10222421463D

 31 34  0  0  1  0  0  0  0  0999 V2000
  188.6560  177.7180  143.3730 C   0  0  2  0  0  3  0  0  0  0  0  0
  189.1510  177.9670  139.8080 C   0  0  0  0  0  0  0  0  0  0  0  0
  188.5230  178.3550  140.9700 C   0  0  0  0  0  3  0  0  0  0  0  0
  190.3550  176.5030  137.6990 C   0  0  1  0  0  3  0  0  0  0  0  0
  190.0720  177.0100  140.1220 C   0  0  0  0  0  0  0  0  0  0  0  0
  189.0690  177.6340  141.9740 N   0  0  0  0  0  0  0  0  0  0  0  0
  188.9560  178.4380  138.4360 C   0  0  0  0  0  3  0  0  0  0  0  0
  190.9920  176.4150  139.1060 C   0  0  0  0  0  2  0  0  0  0  0  0
  190.0320  176.8180  141.4830 C   0  0  0  0  0  3  0  0  0  0  0  0
  189.5850  177.7940  137.4410 C   0  0  0  0  0  0  0  0  0  0  0  0
  189.4010  178.2250  136.1680 F   0  0  0  0  0  0  0  0  0  0  0  0
  191.4140  176.2710  136.6330 C   0  0  0  0  0  2  0  0  0  0  0  0
  192.3870  175.1860  137.0710 C   0  0  0  0  0  2  0  0  0  0  0  0
  194.1010  176.7380  136.4890 O   0  0  0  0  0  0  0  0  0  0  0  0
  194.7330  175.1040  138.0140 N   0  0  0  0  0  1  0  0  0  0  0  0
  193.7700  175.7380  137.1770 C   0  0  0  0  0  0  0  0  0  0  0  0
  190.1270  176.6540  145.0720 O   0  0  0  0  0  0  0  0  0  0  0  0
  190.8440  178.6010  144.3590 C   0  0  0  0  0  3  0  0  0  0  0  0
  191.9210  176.0990  146.6700 C   0  0  0  0  0  1  0  0  0  0  0  0
  191.2550  176.9630  145.6610 C   0  0  0  0  0  0  0  0  0  0  0  0
  189.8500  177.6480  144.2660 C   0  0  0  0  0  0  0  0  0  0  0  0
  191.7490  178.1520  145.2560 N   0  0  0  0  0  0  0  0  0  0  0  0
  187.7300  176.6320  143.6870 N   0  0  0  0  0  2  0  0  0  0  0  0
  186.7720  177.0950  144.6900 C   0  0  0  0  0  2  0  0  0  0  0  0
  186.1950  178.3840  144.3120 N   0  0  0  0  0  2  0  0  0  0  0  0
  182.5420  178.9990  143.7500 C   0  0  0  0  0  3  0  0  0  0  0  0
  183.7790  178.8970  144.3950 C   0  0  0  0  0  3  0  0  0  0  0  0
  183.5870  178.3920  141.6500 C   0  0  0  0  0  3  0  0  0  0  0  0
  182.4460  178.7430  142.3790 C   0  0  0  0  0  3  0  0  0  0  0  0
  184.9260  178.5430  143.6690 C   0  0  0  0  0  0  0  0  0  0  0  0
  184.8250  178.2930  142.2950 C   0  0  0  0  0  3  0  0  0  0  0  0
  1 23  1  1  0  0  0
  1 21  1  0  0  0  0
  2  5  1  0  0  0  0
  2  3  2  0  0  0  0
  3  6  1  0  0  0  0
  4 12  1  6  0  0  0
  4  8  1  0  0  0  0
  5  9  2  0  0  0  0
  6  1  1  0  0  0  0
  7  2  1  0  0  0  0
  8  5  1  0  0  0  0
  9  6  1  0  0  0  0
 10  4  1  0  0  0  0
 10  7  2  0  0  0  0
 11 10  1  0  0  0  0
 12 13  1  0  0  0  0
 13 16  1  0  0  0  0
 14 16  2  0  0  0  0
 16 15  1  0  0  0  0
 17 20  1  0  0  0  0
 18 22  1  0  0  0  0
 20 19  1  0  0  0  0
 21 18  2  0  0  0  0
 21 17  1  0  0  0  0
 22 20  2  0  0  0  0
 23 24  1  0  0  0  0
 25 24  1  0  0  0  0
 26 27  1  0  0  0  0
 28 31  2  0  0  0  0
 28 29  1  0  0  0  0
 29 26  2  0  0  0  0
 30 25  1  0  0  0  0
 30 27  2  0  0  0  0
 31 30  1  0  0  0  0
M  END
>  <MODEL>
4

>  <REMARK>
 VINA RESULT:      -7.7      3.527      8.564
  Name = 
  9 active torsions:
  status: ('A' for Active; 'I' for Inactive)
    1  A    between atoms: C_2  and  N_13
    2  A    between atoms: C_2  and  N_25
    3  A    between atoms: C_2  and  C_28
    4  A    between atoms: N_4  and  C_22
    5  A    between atoms: N_4  and  C_27
    6  A    between atoms: C_8  and  C_23
    7  A    between atoms: C_11  and  C_21
    8  A    between atoms: C_11  and  C_23
    9  A    between atoms: C_22  and  N_25
                            x       y       z     vdW  Elec       q    Type
                         _______ _______ _______ _____ _____    ______ ____

>  <TORSDO>
F 9

$$$$
=
 OpenBabel10222421463D

 31 34  0  0  1  0  0  0  0  0999 V2000
  188.9640  177.6770  139.7660 C   0  0  2  0  0  3  0  0  0  0  0  0
  186.5570  178.4300  142.3450 C   0  0  0  0  0  0  0  0  0  0  0  0
  187.0040  178.5230  141.0470 C   0  0  0  0  0  3  0  0  0  0  0  0
  186.3400  178.3480  145.1710 C   0  0  1  0  0  3  0  0  0  0  0  0
  187.4390  177.6580  143.0440 C   0  0  0  0  0  0  0  0  0  0  0  0
  188.1480  177.8060  140.9700 N   0  0  0  0  0  0  0  0  0  0  0  0
  185.3620  179.0020  142.9670 C   0  0  0  0  0  3  0  0  0  0  0  0
  187.2230  177.2860  144.4760 C   0  0  0  0  0  2  0  0  0  0  0  0
  188.4240  177.2530  142.1750 C   0  0  0  0  0  3  0  0  0  0  0  0
  185.2180  178.8990  144.2970 C   0  0  0  0  0  0  0  0  0  0  0  0
  184.1130  179.4330  144.8760 F   0  0  0  0  0  0  0  0  0  0  0  0
  185.7980  177.7970  146.4800 C   0  0  0  0  0  2  0  0  0  0  0  0
  186.4780  178.4660  147.6670 C   0  0  0  0  0  2  0  0  0  0  0  0
  187.9060  176.5730  147.9270 O   0  0  0  0  0  0  0  0  0  0  0  0
  188.9320  178.6310  148.2560 N   0  0  0  0  0  1  0  0  0  0  0  0
  187.8000  177.8270  147.9360 C   0  0  0  0  0  0  0  0  0  0  0  0
  187.0200  177.7060  138.2150 O   0  0  0  0  0  0  0  0  0  0  0  0
  188.4240  176.0580  137.8620 C   0  0  0  0  0  3  0  0  0  0  0  0
  185.3680  177.2430  136.4440 C   0  0  0  0  0  1  0  0  0  0  0  0
  186.6130  176.9730  137.2080 C   0  0  0  0  0  0  0  0  0  0  0  0
  188.1340  177.1620  138.6370 C   0  0  0  0  0  0  0  0  0  0  0  0
  187.4430  175.9430  136.9400 N   0  0  0  0  0  0  0  0  0  0  0  0
  190.0860  176.7750  140.0150 N   0  0  0  0  0  2  0  0  0  0  0  0
  191.3250  177.5490  140.0490 C   0  0  0  0  0  2  0  0  0  0  0  0
  192.1320  177.2030  141.2170 N   0  0  0  0  0  2  0  0  0  0  0  0
  191.1280  176.4640  144.7510 C   0  0  0  0  0  3  0  0  0  0  0  0
  191.5950  176.2780  143.4450 C   0  0  0  0  0  3  0  0  0  0  0  0
  190.8730  178.8350  144.3210 C   0  0  0  0  0  3  0  0  0  0  0  0
  190.7640  177.7410  145.1870 C   0  0  0  0  0  3  0  0  0  0  0  0
  191.7040  177.3710  142.5730 C   0  0  0  0  0  0  0  0  0  0  0  0
  191.3420  178.6490  143.0170 C   0  0  0  0  0  3  0  0  0  0  0  0
  1 23  1  1  0  0  0
  1  6  1  0  0  0  0
  2  7  1  0  0  0  0
  2  5  1  0  0  0  0
  3  2  2  0  0  0  0
  4 12  1  1  0  0  0
  5  8  1  0  0  0  0
  6  3  1  0  0  0  0
  6  9  1  0  0  0  0
  7 10  2  0  0  0  0
  8  4  1  0  0  0  0
  9  5  2  0  0  0  0
 10 11  1  0  0  0  0
 10  4  1  0  0  0  0
 12 13  1  0  0  0  0
 13 16  1  0  0  0  0
 14 16  2  0  0  0  0
 16 15  1  0  0  0  0
 17 21  1  0  0  0  0
 18 21  2  0  0  0  0
 19 20  1  0  0  0  0
 20 17  1  0  0  0  0
 21  1  1  0  0  0  0
 22 20  2  0  0  0  0
 22 18  1  0  0  0  0
 23 24  1  0  0  0  0
 24 25  1  0  0  0  0
 25 30  1  0  0  0  0
 26 29  1  0  0  0  0
 27 26  2  0  0  0  0
 28 29  2  0  0  0  0
 30 31  2  0  0  0  0
 30 27  1  0  0  0  0
 31 28  1  0  0  0  0
M  END
>  <MODEL>
5

>  <REMARK>
 VINA RESULT:      -7.7      2.497      3.482
  Name = 
  9 active torsions:
  status: ('A' for Active; 'I' for Inactive)
    1  A    between atoms: C_2  and  N_13
    2  A    between atoms: C_2  and  N_25
    3  A    between atoms: C_2  and  C_28
    4  A    between atoms: N_4  and  C_22
    5  A    between atoms: N_4  and  C_27
    6  A    between atoms: C_8  and  C_23
    7  A    between atoms: C_11  and  C_21
    8  A    between atoms: C_11  and  C_23
    9  A    between atoms: C_22  and  N_25
                            x       y       z     vdW  Elec       q    Type
                         _______ _______ _______ _____ _____    ______ ____

>  <TORSDO>
F 9

$$$$
=
 OpenBabel10222421463D

 31 34  0  0  1  0  0  0  0  0999 V2000
  184.9090  179.0070  139.2880 C   0  0  2  0  0  3  0  0  0  0  0  0
  184.5470  178.6730  142.8620 C   0  0  0  0  0  0  0  0  0  0  0  0
  184.0330  178.9590  141.6180 C   0  0  0  0  0  3  0  0  0  0  0  0
  186.1730  178.4690  145.1760 C   0  0  1  0  0  3  0  0  0  0  0  0
  185.8570  178.3180  142.7090 C   0  0  0  0  0  0  0  0  0  0  0  0
  185.0310  178.7730  140.7250 N   0  0  0  0  0  0  0  0  0  0  0  0
  183.8960  178.6970  144.1730 C   0  0  0  0  0  3  0  0  0  0  0  0
  186.7070  177.8700  143.8540 C   0  0  0  0  0  2  0  0  0  0  0  0
  186.1500  178.3630  141.3670 C   0  0  0  0  0  3  0  0  0  0  0  0
  184.6510  178.5250  145.2680 C   0  0  0  0  0  0  0  0  0  0  0  0
  184.0510  178.5530  146.4840 F   0  0  0  0  0  0  0  0  0  0  0  0
  186.7680  177.7250  146.3610 C   0  0  0  0  0  2  0  0  0  0  0  0
  188.2480  177.4480  146.1320 C   0  0  0  0  0  2  0  0  0  0  0  0
  188.3990  177.7020  148.4980 O   0  0  0  0  0  0  0  0  0  0  0  0
  190.3070  176.8570  147.4760 N   0  0  0  0  0  1  0  0  0  0  0  0
  188.9640  177.3330  147.4360 C   0  0  0  0  0  0  0  0  0  0  0  0
  183.2260  180.7900  138.8770 O   0  0  0  0  0  0  0  0  0  0  0  0
  182.4340  178.7520  138.6970 C   0  0  0  0  0  3  0  0  0  0  0  0
  181.1870  182.0830  138.3750 C   0  0  0  0  0  1  0  0  0  0  0  0
  181.9540  180.8250  138.5630 C   0  0  0  0  0  0  0  0  0  0  0  0
  183.5460  179.5240  138.9660 C   0  0  0  0  0  0  0  0  0  0  0  0
  181.4120  179.5960  138.4340 N   0  0  0  0  0  0  0  0  0  0  0  0
  185.1610  177.7670  138.5560 N   0  0  0  0  0  2  0  0  0  0  0  0
  186.1060  178.0330  137.4740 C   0  0  0  0  0  2  0  0  0  0  0  0
  187.3560  178.5860  137.9910 N   0  0  0  0  0  2  0  0  0  0  0  0
  190.4440  177.4310  139.7720 C   0  0  0  0  0  3  0  0  0  0  0  0
  189.3180  178.1930  139.4410 C   0  0  0  0  0  3  0  0  0  0  0  0
  189.9180  175.8800  137.9850 C   0  0  0  0  0  3  0  0  0  0  0  0
  190.7460  176.2780  139.0410 C   0  0  0  0  0  3  0  0  0  0  0  0
  188.4870  177.8000  138.3820 C   0  0  0  0  0  0  0  0  0  0  0  0
  188.7910  176.6410  137.6570 C   0  0  0  0  0  3  0  0  0  0  0  0
  1 23  1  6  0  0  0
  1  6  1  0  0  0  0
  2  7  1  0  0  0  0
  3  2  2  0  0  0  0
  4 10  1  0  0  0  0
  4 12  1  1  0  0  0
  5  2  1  0  0  0  0
  5  8  1  0  0  0  0
  6  9  1  0  0  0  0
  6  3  1  0  0  0  0
  7 10  2  0  0  0  0
  8  4  1  0  0  0  0
  9  5  2  0  0  0  0
 10 11  1  0  0  0  0
 13 12  1  0  0  0  0
 13 16  1  0  0  0  0
 16 15  1  0  0  0  0
 16 14  2  0  0  0  0
 17 21  1  0  0  0  0
 18 21  2  0  0  0  0
 19 20  1  0  0  0  0
 20 17  1  0  0  0  0
 21  1  1  0  0  0  0
 22 20  2  0  0  0  0
 22 18  1  0  0  0  0
 24 25  1  0  0  0  0
 24 23  1  0  0  0  0
 25 30  1  0  0  0  0
 27 26  1  0  0  0  0
 28 29  1  0  0  0  0
 29 26  2  0  0  0  0
 30 27  2  0  0  0  0
 31 28  2  0  0  0  0
 31 30  1  0  0  0  0
M  END
>  <MODEL>
6

>  <REMARK>
 VINA RESULT:      -7.6      3.252      5.909
  Name = 
  9 active torsions:
  status: ('A' for Active; 'I' for Inactive)
    1  A    between atoms: C_2  and  N_13
    2  A    between atoms: C_2  and  N_25
    3  A    between atoms: C_2  and  C_28
    4  A    between atoms: N_4  and  C_22
    5  A    between atoms: N_4  and  C_27
    6  A    between atoms: C_8  and  C_23
    7  A    between atoms: C_11  and  C_21
    8  A    between atoms: C_11  and  C_23
    9  A    between atoms: C_22  and  N_25
                            x       y       z     vdW  Elec       q    Type
                         _______ _______ _______ _____ _____    ______ ____

>  <TORSDO>
F 9

$$$$
=
 OpenBabel10222421463D

 31 34  0  0  1  0  0  0  0  0999 V2000
  183.5000  178.8510  139.2300 C   0  0  2  0  0  3  0  0  0  0  0  0
  183.6880  178.7230  142.8300 C   0  0  0  0  0  0  0  0  0  0  0  0
  182.9740  178.8720  141.6630 C   0  0  0  0  0  3  0  0  0  0  0  0
  185.6380  178.8390  144.8850 C   0  0  1  0  0  3  0  0  0  0  0  0
  184.9930  178.4920  142.5030 C   0  0  0  0  0  0  0  0  0  0  0  0
  183.8490  178.7280  140.6430 N   0  0  0  0  0  0  0  0  0  0  0  0
  183.2310  178.7700  144.2200 C   0  0  0  0  0  3  0  0  0  0  0  0
  186.0410  178.2090  143.5310 C   0  0  0  0  0  2  0  0  0  0  0  0
  185.0870  178.4760  141.1320 C   0  0  0  0  0  3  0  0  0  0  0  0
  184.1480  178.7490  145.1990 C   0  0  0  0  0  0  0  0  0  0  0  0
  183.7270  178.7980  146.4870 F   0  0  0  0  0  0  0  0  0  0  0  0
  186.4730  178.2400  146.0060 C   0  0  0  0  0  2  0  0  0  0  0  0
  187.6890  177.5180  145.4410 C   0  0  0  0  0  2  0  0  0  0  0  0
  189.9080  177.0960  146.2080 O   0  0  0  0  0  0  0  0  0  0  0  0
  188.3000  177.2320  147.8780 N   0  0  0  0  0  1  0  0  0  0  0  0
  188.7030  177.2880  146.5130 C   0  0  0  0  0  0  0  0  0  0  0  0
  185.7620  178.8490  138.1960 O   0  0  0  0  0  0  0  0  0  0  0  0
  184.5430  177.0970  137.6880 C   0  0  0  0  0  3  0  0  0  0  0  0
  187.8170  178.3140  136.9420 C   0  0  0  0  0  1  0  0  0  0  0  0
  186.4340  178.0430  137.4100 C   0  0  0  0  0  0  0  0  0  0  0  0
  184.5930  178.2890  138.3810 C   0  0  0  0  0  0  0  0  0  0  0  0
  185.7340  176.9410  137.0680 N   0  0  0  0  0  0  0  0  0  0  0  0
  183.2730  180.2540  138.8900 N   0  0  0  0  0  2  0  0  0  0  0  0
  181.8800  180.4280  138.4840 C   0  0  0  0  0  2  0  0  0  0  0  0
  181.4920  181.8370  138.5220 N   0  0  0  0  0  2  0  0  0  0  0  0
  180.2510  182.7710  135.1130 C   0  0  0  0  0  3  0  0  0  0  0  0
  180.5520  182.0040  136.2420 C   0  0  0  0  0  3  0  0  0  0  0  0
  181.1040  184.7470  136.2270 C   0  0  0  0  0  3  0  0  0  0  0  0
  180.5310  184.1410  135.1040 C   0  0  0  0  0  3  0  0  0  0  0  0
  181.1290  182.6060  137.3710 C   0  0  0  0  0  0  0  0  0  0  0  0
  181.4020  183.9790  137.3580 C   0  0  0  0  0  3  0  0  0  0  0  0
  1 23  1  6  0  0  0
  1  6  1  0  0  0  0
  2  7  1  0  0  0  0
  3  2  2  0  0  0  0
  4 10  1  0  0  0  0
  4 12  1  1  0  0  0
  5  2  1  0  0  0  0
  5  8  1  0  0  0  0
  6  9  1  0  0  0  0
  6  3  1  0  0  0  0
  7 10  2  0  0  0  0
  8  4  1  0  0  0  0
  9  5  2  0  0  0  0
 10 11  1  0  0  0  0
 13 12  1  0  0  0  0
 13 16  1  0  0  0  0
 14 16  2  0  0  0  0
 16 15  1  0  0  0  0
 17 21  1  0  0  0  0
 18 21  2  0  0  0  0
 19 20  1  0  0  0  0
 20 17  1  0  0  0  0
 21  1  1  0  0  0  0
 22 20  2  0  0  0  0
 22 18  1  0  0  0  0
 24 25  1  0  0  0  0
 24 23  1  0  0  0  0
 26 27  1  0  0  0  0
 27 30  2  0  0  0  0
 28 31  2  0  0  0  0
 29 26  2  0  0  0  0
 29 28  1  0  0  0  0
 30 25  1  0  0  0  0
 31 30  1  0  0  0  0
M  END
>  <MODEL>
7

>  <REMARK>
 VINA RESULT:      -7.6      4.600      8.122
  Name = 
  9 active torsions:
  status: ('A' for Active; 'I' for Inactive)
    1  A    between atoms: C_2  and  N_13
    2  A    between atoms: C_2  and  N_25
    3  A    between atoms: C_2  and  C_28
    4  A    between atoms: N_4  and  C_22
    5  A    between atoms: N_4  and  C_27
    6  A    between atoms: C_8  and  C_23
    7  A    between atoms: C_11  and  C_21
    8  A    between atoms: C_11  and  C_23
    9  A    between atoms: C_22  and  N_25
                            x       y       z     vdW  Elec       q    Type
                         _______ _______ _______ _____ _____    ______ ____

>  <TORSDO>
F 9

$$$$
=
 OpenBabel10222421463D

 31 34  0  0  1  0  0  0  0  0999 V2000
  189.3540  178.0250  142.0220 C   0  0  2  0  0  3  0  0  0  0  0  0
  190.4500  176.9040  138.7730 C   0  0  0  0  0  0  0  0  0  0  0  0
  189.4640  177.3250  139.6350 C   0  0  0  0  0  3  0  0  0  0  0  0
  192.6960  175.6520  137.5770 C   0  0  1  0  0  3  0  0  0  0  0  0
  191.6370  176.9120  139.4480 C   0  0  0  0  0  0  0  0  0  0  0  0
  190.0590  177.5860  140.8210 N   0  0  0  0  0  0  0  0  0  0  0  0
  190.3590  176.5090  137.3660 C   0  0  0  0  0  3  0  0  0  0  0  0
  192.9380  176.5800  138.7920 C   0  0  0  0  0  2  0  0  0  0  0  0
  191.3910  177.3580  140.7250 C   0  0  0  0  0  3  0  0  0  0  0  0
  191.4430  175.9860  136.7740 C   0  0  0  0  0  0  0  0  0  0  0  0
  191.3580  175.6140  135.4720 F   0  0  0  0  0  0  0  0  0  0  0  0
  193.9290  175.6280  136.6880 C   0  0  0  0  0  2  0  0  0  0  0  0
  194.5750  174.2500  136.7050 C   0  0  0  0  0  2  0  0  0  0  0  0
  196.5620  174.8930  137.8560 O   0  0  0  0  0  0  0  0  0  0  0  0
  195.3670  173.1660  138.8480 N   0  0  0  0  0  1  0  0  0  0  0  0
  195.5510  174.1460  137.8300 C   0  0  0  0  0  0  0  0  0  0  0  0
  190.4770  176.8020  143.8730 O   0  0  0  0  0  0  0  0  0  0  0  0
  190.9760  178.9360  143.7770 C   0  0  0  0  0  3  0  0  0  0  0  0
  191.8350  176.1350  145.8200 C   0  0  0  0  0  1  0  0  0  0  0  0
  191.3200  177.1120  144.8270 C   0  0  0  0  0  0  0  0  0  0  0  0
  190.2480  177.9080  143.2120 C   0  0  0  0  0  0  0  0  0  0  0  0
  191.6680  178.4150  144.8140 N   0  0  0  0  0  0  0  0  0  0  0  0
  188.1500  177.2210  142.2180 N   0  0  0  0  0  2  0  0  0  0  0  0
  187.0260  178.1070  142.5170 C   0  0  0  0  0  2  0  0  0  0  0  0
  186.2230  177.5850  143.6200 N   0  0  0  0  0  2  0  0  0  0  0  0
  185.9360  178.9410  147.1020 C   0  0  0  0  0  3  0  0  0  0  0  0
  185.6320  178.6620  145.7660 C   0  0  0  0  0  3  0  0  0  0  0  0
  187.9460  177.5970  146.9250 C   0  0  0  0  0  3  0  0  0  0  0  0
  187.0950  178.4120  147.6800 C   0  0  0  0  0  3  0  0  0  0  0  0
  186.4840  177.8470  145.0030 C   0  0  0  0  0  0  0  0  0  0  0  0
  187.6390  177.3160  145.5890 C   0  0  0  0  0  3  0  0  0  0  0  0
  1 23  1  1  0  0  0
  1 21  1  0  0  0  0
  2  5  1  0  0  0  0
  2  3  2  0  0  0  0
  3  6  1  0  0  0  0
  4 12  1  6  0  0  0
  4  8  1  0  0  0  0
  5  9  2  0  0  0  0
  6  1  1  0  0  0  0
  7  2  1  0  0  0  0
  8  5  1  0  0  0  0
  9  6  1  0  0  0  0
 10  7  2  0  0  0  0
 10  4  1  0  0  0  0
 11 10  1  0  0  0  0
 12 13  1  0  0  0  0
 13 16  1  0  0  0  0
 16 14  2  0  0  0  0
 16 15  1  0  0  0  0
 17 20  1  0  0  0  0
 18 22  1  0  0  0  0
 20 19  1  0  0  0  0
 21 18  2  0  0  0  0
 21 17  1  0  0  0  0
 22 20  2  0  0  0  0
 23 24  1  0  0  0  0
 24 25  1  0  0  0  0
 25 30  1  0  0  0  0
 26 29  1  0  0  0  0
 27 26  2  0  0  0  0
 28 29  2  0  0  0  0
 30 31  2  0  0  0  0
 30 27  1  0  0  0  0
 31 28  1  0  0  0  0
M  END
>  <MODEL>
8

>  <REMARK>
 VINA RESULT:      -7.5      3.974      8.887
  Name = 
  9 active torsions:
  status: ('A' for Active; 'I' for Inactive)
    1  A    between atoms: C_2  and  N_13
    2  A    between atoms: C_2  and  N_25
    3  A    between atoms: C_2  and  C_28
    4  A    between atoms: N_4  and  C_22
    5  A    between atoms: N_4  and  C_27
    6  A    between atoms: C_8  and  C_23
    7  A    between atoms: C_11  and  C_21
    8  A    between atoms: C_11  and  C_23
    9  A    between atoms: C_22  and  N_25
                            x       y       z     vdW  Elec       q    Type
                         _______ _______ _______ _____ _____    ______ ____

>  <TORSDO>
F 9

$$$$
=
 OpenBabel10222421463D

 31 34  0  0  1  0  0  0  0  0999 V2000
  185.8880  177.8220  144.1440 C   0  0  2  0  0  3  0  0  0  0  0  0
  187.8550  178.2590  141.1510 C   0  0  0  0  0  0  0  0  0  0  0  0
  186.7500  178.5410  141.9210 C   0  0  0  0  0  3  0  0  0  0  0  0
  189.9960  176.9990  139.7840 C   0  0  1  0  0  3  0  0  0  0  0  0
  188.6400  177.3790  141.8400 C   0  0  0  0  0  0  0  0  0  0  0  0
  186.8740  177.8330  143.0660 N   0  0  0  0  0  0  0  0  0  0  0  0
  188.2290  178.7660  139.8300 C   0  0  0  0  0  3  0  0  0  0  0  0
  189.9640  176.9130  141.3280 C   0  0  0  0  0  2  0  0  0  0  0  0
  188.0320  177.1300  143.0470 C   0  0  0  0  0  3  0  0  0  0  0  0
  189.2890  178.2230  139.2110 C   0  0  0  0  0  0  0  0  0  0  0  0
  189.6340  178.6870  137.9830 F   0  0  0  0  0  0  0  0  0  0  0  0
  191.4300  176.9090  139.2880 C   0  0  0  0  0  2  0  0  0  0  0  0
  191.5090  176.0570  138.0290 C   0  0  0  0  0  2  0  0  0  0  0  0
  193.7760  176.7940  138.0040 O   0  0  0  0  0  0  0  0  0  0  0  0
  193.1120  175.6010  136.1260 N   0  0  0  0  0  1  0  0  0  0  0  0
  192.8640  176.1640  137.4110 C   0  0  0  0  0  0  0  0  0  0  0  0
  183.9730  178.0570  142.5740 O   0  0  0  0  0  0  0  0  0  0  0  0
  183.8780  179.3930  144.3110 C   0  0  0  0  0  3  0  0  0  0  0  0
  181.8910  178.7060  141.4240 C   0  0  0  0  0  1  0  0  0  0  0  0
  182.8880  178.7880  142.5220 C   0  0  0  0  0  0  0  0  0  0  0  0
  184.6020  178.4110  143.6670 C   0  0  0  0  0  0  0  0  0  0  0  0
  182.7720  179.6290  143.5710 N   0  0  0  0  0  0  0  0  0  0  0  0
  186.3900  178.5770  145.2900 N   0  0  0  0  0  2  0  0  0  0  0  0
  186.8040  177.6420  146.3350 C   0  0  0  0  0  2  0  0  0  0  0  0
  188.0460  178.0770  146.9700 N   0  0  0  0  0  2  0  0  0  0  0  0
  191.2120  177.4430  145.0700 C   0  0  0  0  0  3  0  0  0  0  0  0
  189.9630  177.9680  145.4130 C   0  0  0  0  0  3  0  0  0  0  0  0
  191.2390  176.1620  147.1270 C   0  0  0  0  0  3  0  0  0  0  0  0
  191.8480  176.5370  145.9250 C   0  0  0  0  0  3  0  0  0  0  0  0
  189.3460  177.5930  146.6170 C   0  0  0  0  0  0  0  0  0  0  0  0
  189.9900  176.6900  147.4710 C   0  0  0  0  0  3  0  0  0  0  0  0
  1 23  1  1  0  0  0
  2  5  1  0  0  0  0
  2  3  2  0  0  0  0
  3  6  1  0  0  0  0
  4 12  1  1  0  0  0
  4  8  1  0  0  0  0
  5  9  2  0  0  0  0
  6  1  1  0  0  0  0
  7  2  1  0  0  0  0
  8  5  1  0  0  0  0
  9  6  1  0  0  0  0
 10  4  1  0  0  0  0
 10  7  2  0  0  0  0
 11 10  1  0  0  0  0
 13 12  1  0  0  0  0
 15 16  1  0  0  0  0
 16 14  2  0  0  0  0
 16 13  1  0  0  0  0
 17 21  1  0  0  0  0
 19 20  1  0  0  0  0
 20 17  1  0  0  0  0
 20 22  2  0  0  0  0
 21  1  1  0  0  0  0
 21 18  2  0  0  0  0
 22 18  1  0  0  0  0
 23 24  1  0  0  0  0
 24 25  1  0  0  0  0
 26 27  2  0  0  0  0
 26 29  1  0  0  0  0
 27 30  1  0  0  0  0
 28 31  1  0  0  0  0
 29 28  2  0  0  0  0
 30 25  1  0  0  0  0
 30 31  2  0  0  0  0
M  END
>  <MODEL>
9

>  <REMARK>
 VINA RESULT:      -7.3      3.053      7.307
  Name = 
  9 active torsions:
  status: ('A' for Active; 'I' for Inactive)
    1  A    between atoms: C_2  and  N_13
    2  A    between atoms: C_2  and  N_25
    3  A    between atoms: C_2  and  C_28
    4  A    between atoms: N_4  and  C_22
    5  A    between atoms: N_4  and  C_27
    6  A    between atoms: C_8  and  C_23
    7  A    between atoms: C_11  and  C_21
    8  A    between atoms: C_11  and  C_23
    9  A    between atoms: C_22  and  N_25
                            x       y       z     vdW  Elec       q    Type
                         _______ _______ _______ _____ _____    ______ ____

>  <TORSDO>
F 9

$$$$
