=
 OpenBabel10232410383D

 50 57  0  0  1  0  0  0  0  0999 V2000
  183.8640  178.4850  144.4540 C   0  0  0  0  0  2  0  0  0  0  0  0
  185.8080  178.6790  146.0270 C   0  0  0  0  0  0  0  0  0  0  0  0
  187.7470  177.2900  142.4250 C   0  0  0  0  0  0  0  0  0  0  0  0
  187.3840  177.7010  141.2450 N   0  0  0  0  0  0  0  0  0  0  0  0
  187.5200  177.3230  147.3970 C   0  0  0  0  0  1  0  0  0  0  0  0
  187.1550  177.8890  143.6410 C   0  0  0  0  0  0  0  0  0  0  0  0
  185.5010  179.0470  142.1980 C   0  0  2  0  0  3  0  0  0  0  0  0
  185.2550  179.0700  147.0900 O   0  0  0  0  0  0  0  0  0  0  0  0
  186.4890  178.8410  141.0340 C   0  0  2  0  0  3  0  0  0  0  0  0
  186.1310  178.7550  143.5310 C   0  0  0  0  0  0  0  0  0  0  0  0
  186.9960  177.8070  146.0900 C   0  0  0  0  0  0  0  0  0  0  0  0
  187.6110  177.4330  144.9680 C   0  0  0  0  0  3  0  0  0  0  0  0
  183.4030  178.7740  143.0120 C   0  0  0  0  0  2  0  0  0  0  0  0
  184.3330  178.2690  142.0710 O   0  0  0  0  0  0  0  0  0  0  0  0
  185.2460  179.1100  144.6990 C   0  0  1  0  0  3  0  0  0  0  0  0
  184.8470  179.5500  139.4400 O   0  0  0  0  0  0  0  0  0  0  0  0
  185.7970  178.7650  139.7090 C   0  0  0  0  0  0  0  0  0  0  0  0
  186.2840  177.8570  138.7170 N   0  0  0  0  0  2  0  0  0  0  0  0
  186.9210  174.3250  136.5200 C   0  0  1  0  0  3  0  0  0  0  0  0
  185.7170  177.7270  134.4990 C   0  0  0  0  0  2  0  0  0  0  0  0
  186.7750  175.5170  137.4700 C   0  0  0  0  0  2  0  0  0  0  0  0
  186.5210  175.3960  134.5590 C   0  0  0  0  0  2  0  0  0  0  0  0
  185.8270  177.9210  137.3900 N   0  0  0  0  0  0  0  0  0  0  0  0
  186.1050  176.6790  135.2290 C   0  0  0  0  0  0  0  0  0  0  0  0
  187.5210  174.7450  135.3120 O   0  0  0  0  0  0  0  0  0  0  0  0
  186.0640  176.6680  136.7340 C   0  0  1  0  0  0  0  0  0  0  0  0
  184.7740  176.9390  137.2640 N   0  0  0  0  0  2  0  0  0  0  0  0
  187.8990  172.1550  136.3360 O   0  0  0  0  0  1  0  0  0  0  0  0
  187.7690  173.2550  137.1820 C   0  0  0  0  0  2  0  0  0  0  0  0
  188.6630  176.2400  142.5590 O   0  0  0  0  0  0  0  0  0  0  0  0
  190.0640  176.4490  142.7240 C   0  0  0  0  0  2  0  0  0  0  0  0
  190.5110  177.6970  141.9810 C   0  0  0  0  0  2  0  0  0  0  0  0
  191.4050  177.3210  140.8140 C   0  0  0  0  0  2  0  0  0  0  0  0
  190.5660  176.6850  139.7240 C   0  0  0  0  0  2  0  0  0  0  0  0
  194.6770  172.5520  137.2160 N   0  0  0  0  0  0  0  0  0  0  0  0
  192.5920  176.3110  138.3250 C   0  0  0  0  0  2  0  0  0  0  0  0
  196.9280  172.8770  137.8240 N   0  0  0  0  0  0  0  0  0  0  0  0
  195.9050  172.0420  137.5010 C   0  0  0  0  0  3  0  0  0  0  0  0
  196.7390  174.2210  137.8700 C   0  0  0  0  0  0  0  0  0  0  0  0
  191.3410  175.7610  136.3320 C   0  0  1  0  0  3  0  0  0  0  0  0
  197.8220  175.0790  138.2090 N   0  0  0  0  0  1  0  0  0  0  0  0
  194.4440  173.8890  137.2520 C   0  0  0  0  0  0  0  0  0  0  0  0
  190.4060  176.2740  137.3280 N   0  0  0  0  0  0  0  0  0  0  0  0
  195.4870  174.7590  137.5850 C   0  0  0  0  0  3  0  0  0  0  0  0
  192.7540  175.7960  136.9160 C   0  0  2  0  0  3  0  0  0  0  0  0
  192.1140  173.5820  136.4590 N   0  0  0  0  0  0  0  0  0  0  0  0
  189.6330  177.3230  136.6800 C   0  0  0  0  0  1  0  0  0  0  0  0
  191.2050  176.9150  138.3640 C   0  0  1  0  0  3  0  0  0  0  0  0
  191.0980  174.2960  136.1170 C   0  0  0  0  0  3  0  0  0  0  0  0
  193.1400  174.3940  136.9360 N   0  0  0  0  0  0  0  0  0  0  0  0
  2 11  1  0  0  0  0
  2  8  2  0  0  0  0
  3 30  1  0  0  0  0
  3  6  1  0  0  0  0
  4  3  2  0  0  0  0
  6 12  1  0  0  0  0
  7 14  1  6  0  0  0
  7 10  1  0  0  0  0
  9 17  1  6  0  0  0
  9  4  1  0  0  0  0
  9  7  1  0  0  0  0
 10  6  2  0  0  0  0
 10 15  1  0  0  0  0
 11  5  1  0  0  0  0
 12 11  2  0  0  0  0
 13  1  1  0  0  0  0
 14 13  1  0  0  0  0
 15  1  1  6  0  0  0
 15  2  1  0  0  0  0
 16 17  2  0  0  0  0
 18 17  1  0  0  0  0
 19 29  1  1  0  0  0
 19 21  1  0  0  0  0
 20 24  2  0  0  0  0
 22 24  1  0  0  0  0
 22 25  1  0  0  0  0
 23 18  1  0  0  0  0
 24 26  1  0  0  0  0
 25 19  1  0  0  0  0
 26 27  1  0  0  0  0
 26 23  1  0  0  0  0
 26 21  1  1  0  0  0
 27 23  1  0  0  0  0
 28 29  1  0  0  0  0
 30 31  1  0  0  0  0
 32 31  1  0  0  0  0
 33 32  1  0  0  0  0
 34 33  1  0  0  0  0
 35 42  2  0  0  0  0
 35 38  1  0  0  0  0
 36 48  1  0  0  0  0
 37 39  1  0  0  0  0
 38 37  2  0  0  0  0
 39 41  1  0  0  0  0
 40 49  1  1  0  0  0
 40 45  1  0  0  0  0
 40 43  1  0  0  0  0
 42 44  1  0  0  0  0
 43 48  1  0  0  0  0
 44 39  2  0  0  0  0
 45 50  1  0  0  0  0
 45 36  1  1  0  0  0
 46 50  1  0  0  0  0
 47 43  1  0  0  0  0
 48 34  1  1  0  0  0
 49 46  2  0  0  0  0
 50 42  1  0  0  0  0
M  END
>  <MODEL>
1

>  <REMARK>
 VINA RESULT:      -9.3      0.000      0.000
  Name = 
  9 active torsions:
  status: ('A' for Active; 'I' for Inactive)
    1  A    between atoms: C_1  and  C_28
    2  A    between atoms: C_6  and  C_37
    3  A    between atoms: C_6  and  C_49
    4  A    between atoms: C_11  and  O_13
    5  A    between atoms: O_13  and  C_37
    6  A    between atoms: N_18  and  N_33
    7  A    between atoms: C_27  and  C_32
    8  A    between atoms: C_42  and  C_44
    9  A    between atoms: C_42  and  C_49
                            x       y       z     vdW  Elec       q    Type
                         _______ _______ _______ _____ _____    ______ ____

>  <TORSDO>
F 9

$$$$
=
 OpenBabel10232410383D

 50 57  0  0  1  0  0  0  0  0999 V2000
  187.3730  176.7990  144.9360 C   0  0  0  0  0  2  0  0  0  0  0  0
  189.5630  177.4100  145.9950 C   0  0  0  0  0  0  0  0  0  0  0  0
  190.6020  177.4030  141.8020 C   0  0  0  0  0  0  0  0  0  0  0  0
  189.7860  177.8450  140.8890 N   0  0  0  0  0  0  0  0  0  0  0  0
  191.9350  176.5460  146.5200 C   0  0  0  0  0  1  0  0  0  0  0  0
  190.2700  177.5480  143.2350 C   0  0  0  0  0  0  0  0  0  0  0  0
  187.9860  178.2630  142.5770 C   0  0  2  0  0  3  0  0  0  0  0  0
  189.2790  177.4020  147.2230 O   0  0  0  0  0  0  0  0  0  0  0  0
  188.5770  178.6120  141.1990 C   0  0  2  0  0  3  0  0  0  0  0  0
  189.0560  178.0000  143.6000 C   0  0  0  0  0  0  0  0  0  0  0  0
  190.9120  177.0180  145.5460 C   0  0  0  0  0  0  0  0  0  0  0  0
  191.2290  177.0740  144.2520 C   0  0  0  0  0  3  0  0  0  0  0  0
  186.4220  177.1360  143.7710 C   0  0  0  0  0  2  0  0  0  0  0  0
  187.1180  177.1520  142.5380 O   0  0  0  0  0  0  0  0  0  0  0  0
  188.5150  177.8240  144.9970 C   0  0  1  0  0  3  0  0  0  0  0  0
  187.8240  177.8760  139.0470 O   0  0  0  0  0  0  0  0  0  0  0  0
  187.5610  178.5120  140.1040 C   0  0  0  0  0  0  0  0  0  0  0  0
  186.2580  179.0650  140.3080 N   0  0  0  0  0  2  0  0  0  0  0  0
  182.4660  178.9530  142.1280 C   0  0  1  0  0  3  0  0  0  0  0  0
  182.8350  177.6150  138.2320 C   0  0  0  0  0  2  0  0  0  0  0  0
  183.9170  179.0340  141.6450 C   0  0  0  0  0  2  0  0  0  0  0  0
  181.5540  177.9360  140.3160 C   0  0  0  0  0  2  0  0  0  0  0  0
  185.2070  178.7880  139.4180 N   0  0  0  0  0  0  0  0  0  0  0  0
  182.8070  178.0640  139.4890 C   0  0  0  0  0  0  0  0  0  0  0  0
  181.8750  177.7530  141.6770 O   0  0  0  0  0  0  0  0  0  0  0  0
  183.9590  178.7960  140.1240 C   0  0  1  0  0  0  0  0  0  0  0  0
  184.3540  179.9550  139.4030 N   0  0  0  0  0  2  0  0  0  0  0  0
  183.5380  179.7260  144.1160 O   0  0  0  0  0  1  0  0  0  0  0  0
  182.4360  179.0160  143.6440 C   0  0  0  0  0  2  0  0  0  0  0  0
  191.7800  176.7390  141.4380 O   0  0  0  0  0  0  0  0  0  0  0  0
  192.5630  177.1130  140.3070 C   0  0  0  0  0  2  0  0  0  0  0  0
  191.8340  176.7820  139.0160 C   0  0  0  0  0  2  0  0  0  0  0  0
  192.8230  176.3460  137.9510 C   0  0  0  0  0  2  0  0  0  0  0  0
  193.0160  174.8450  138.0290 C   0  0  0  0  0  2  0  0  0  0  0  0
  187.1910  176.3690  136.0280 N   0  0  0  0  0  0  0  0  0  0  0  0
  190.8780  174.0960  136.9980 C   0  0  0  0  0  2  0  0  0  0  0  0
  185.4320  175.1870  137.0540 N   0  0  0  0  0  0  0  0  0  0  0  0
  185.9140  176.3280  136.4950 C   0  0  0  0  0  3  0  0  0  0  0  0
  186.2140  174.0810  137.1580 C   0  0  0  0  0  0  0  0  0  0  0  0
  191.4710  174.8440  134.7780 C   0  0  1  0  0  3  0  0  0  0  0  0
  185.6920  172.8950  137.7450 N   0  0  0  0  0  1  0  0  0  0  0  0
  188.0070  175.2880  136.1130 C   0  0  0  0  0  0  0  0  0  0  0  0
  192.6590  174.9380  135.6210 N   0  0  0  0  0  0  0  0  0  0  0  0
  187.5250  174.1070  136.6880 C   0  0  0  0  0  3  0  0  0  0  0  0
  190.3170  174.2810  135.6090 C   0  0  2  0  0  3  0  0  0  0  0  0
  189.8190  176.4620  134.8920 N   0  0  0  0  0  0  0  0  0  0  0  0
  193.7300  174.2490  134.9180 C   0  0  0  0  0  1  0  0  0  0  0  0
  192.3790  174.1680  136.8270 C   0  0  1  0  0  3  0  0  0  0  0  0
  190.9930  176.2210  134.4220 C   0  0  0  0  0  3  0  0  0  0  0  0
  189.3440  175.3620  135.6020 N   0  0  0  0  0  0  0  0  0  0  0  0
  2  8  2  0  0  0  0
  3  6  1  0  0  0  0
  4  9  1  0  0  0  0
  4  3  2  0  0  0  0
  6 10  2  0  0  0  0
  6 12  1  0  0  0  0
  7 14  1  6  0  0  0
  7 10  1  0  0  0  0
  9 17  1  6  0  0  0
  9  7  1  0  0  0  0
 10 15  1  0  0  0  0
 11  2  1  0  0  0  0
 11  5  1  0  0  0  0
 12 11  2  0  0  0  0
 13  1  1  0  0  0  0
 14 13  1  0  0  0  0
 15  1  1  6  0  0  0
 15  2  1  0  0  0  0
 16 17  2  0  0  0  0
 17 18  1  0  0  0  0
 19 29  1  1  0  0  0
 20 24  2  0  0  0  0
 21 19  1  0  0  0  0
 22 25  1  0  0  0  0
 23 26  1  0  0  0  0
 23 18  1  0  0  0  0
 24 26  1  0  0  0  0
 24 22  1  0  0  0  0
 25 19  1  0  0  0  0
 26 21  1  1  0  0  0
 27 23  1  0  0  0  0
 27 26  1  0  0  0  0
 29 28  1  0  0  0  0
 30  3  1  0  0  0  0
 31 30  1  0  0  0  0
 32 31  1  0  0  0  0
 33 34  1  0  0  0  0
 33 32  1  0  0  0  0
 35 42  2  0  0  0  0
 35 38  1  0  0  0  0
 37 39  1  0  0  0  0
 38 37  2  0  0  0  0
 39 41  1  0  0  0  0
 40 49  1  1  0  0  0
 40 45  1  0  0  0  0
 40 43  1  0  0  0  0
 42 44  1  0  0  0  0
 43 48  1  0  0  0  0
 44 39  2  0  0  0  0
 45 36  1  1  0  0  0
 46 50  1  0  0  0  0
 47 43  1  0  0  0  0
 48 36  1  0  0  0  0
 48 34  1  1  0  0  0
 49 46  2  0  0  0  0
 50 45  1  0  0  0  0
 50 42  1  0  0  0  0
M  END
>  <MODEL>
2

>  <REMARK>
 VINA RESULT:      -8.8      2.497      5.765
  Name = 
  9 active torsions:
  status: ('A' for Active; 'I' for Inactive)
    1  A    between atoms: C_1  and  C_28
    2  A    between atoms: C_6  and  C_37
    3  A    between atoms: C_6  and  C_49
    4  A    between atoms: C_11  and  O_13
    5  A    between atoms: O_13  and  C_37
    6  A    between atoms: N_18  and  N_33
    7  A    between atoms: C_27  and  C_32
    8  A    between atoms: C_42  and  C_44
    9  A    between atoms: C_42  and  C_49
                            x       y       z     vdW  Elec       q    Type
                         _______ _______ _______ _____ _____    ______ ____

>  <TORSDO>
F 9

$$$$
=
 OpenBabel10232410383D

 50 57  0  0  1  0  0  0  0  0999 V2000
  188.1740  176.9020  147.8980 C   0  0  0  0  0  2  0  0  0  0  0  0
  190.4150  177.1400  146.7970 C   0  0  0  0  0  0  0  0  0  0  0  0
  187.7540  177.4170  143.4050 C   0  0  0  0  0  0  0  0  0  0  0  0
  186.6120  178.0400  143.4750 N   0  0  0  0  0  0  0  0  0  0  0  0
  192.1260  175.9510  145.2780 C   0  0  0  0  0  1  0  0  0  0  0  0
  188.6990  177.4600  144.5420 C   0  0  0  0  0  0  0  0  0  0  0  0
  186.9140  178.5040  145.9150 C   0  0  2  0  0  3  0  0  0  0  0  0
  191.2050  177.0460  147.7750 O   0  0  0  0  0  0  0  0  0  0  0  0
  186.2420  178.9120  144.5910 C   0  0  2  0  0  3  0  0  0  0  0  0
  188.3200  178.0170  145.7080 C   0  0  0  0  0  0  0  0  0  0  0  0
  190.8170  176.6340  145.4710 C   0  0  0  0  0  0  0  0  0  0  0  0
  190.0020  176.7780  144.4260 C   0  0  0  0  0  3  0  0  0  0  0  0
  186.7380  177.4620  147.9210 C   0  0  0  0  0  2  0  0  0  0  0  0
  186.1930  177.5150  146.6150 O   0  0  0  0  0  0  0  0  0  0  0  0
  189.0630  177.7710  146.9970 C   0  0  1  0  0  3  0  0  0  0  0  0
  184.2370  179.2960  145.8450 O   0  0  0  0  0  0  0  0  0  0  0  0
  184.7570  179.0410  144.7240 C   0  0  0  0  0  0  0  0  0  0  0  0
  183.9400  178.9660  143.5520 N   0  0  0  0  0  2  0  0  0  0  0  0
  181.7790  177.8340  140.1240 C   0  0  1  0  0  3  0  0  0  0  0  0
  179.9820  180.3700  142.8520 C   0  0  0  0  0  2  0  0  0  0  0  0
  182.7230  178.1650  141.2840 C   0  0  0  0  0  2  0  0  0  0  0  0
  180.0500  179.1920  140.6860 C   0  0  0  0  0  2  0  0  0  0  0  0
  182.5820  179.3190  143.5920 N   0  0  0  0  0  0  0  0  0  0  0  0
  180.6380  179.5520  142.0250 C   0  0  0  0  0  0  0  0  0  0  0  0
  181.0730  178.9920  139.7340 O   0  0  0  0  0  0  0  0  0  0  0  0
  181.9280  178.8710  142.3970 C   0  0  1  0  0  0  0  0  0  0  0  0
  181.8290  178.0860  143.5770 N   0  0  0  0  0  2  0  0  0  0  0  0
  182.7050  175.9100  139.0540 O   0  0  0  0  0  1  0  0  0  0  0  0
  182.5870  177.2950  138.9560 C   0  0  0  0  0  2  0  0  0  0  0  0
  188.0780  176.6550  142.2770 O   0  0  0  0  0  0  0  0  0  0  0  0
  189.0840  177.0420  141.3430 C   0  0  0  0  0  2  0  0  0  0  0  0
  188.6020  178.2000  140.4850 C   0  0  0  0  0  2  0  0  0  0  0  0
  189.0400  178.0040  139.0460 C   0  0  0  0  0  2  0  0  0  0  0  0
  187.8170  177.8330  138.1670 C   0  0  0  0  0  2  0  0  0  0  0  0
  192.9820  174.1790  137.6780 N   0  0  0  0  0  0  0  0  0  0  0  0
  189.6990  177.0200  136.7540 C   0  0  0  0  0  2  0  0  0  0  0  0
  194.9710  175.3150  137.1350 N   0  0  0  0  0  0  0  0  0  0  0  0
  194.3320  174.3090  137.7880 C   0  0  0  0  0  3  0  0  0  0  0  0
  194.2770  176.2010  136.3740 C   0  0  0  0  0  0  0  0  0  0  0  0
  188.5950  174.9590  136.1440 C   0  0  1  0  0  3  0  0  0  0  0  0
  194.9640  177.2460  135.6970 N   0  0  0  0  0  1  0  0  0  0  0  0
  192.2490  175.0430  136.9300 C   0  0  0  0  0  0  0  0  0  0  0  0
  187.6240  175.8110  136.8220 N   0  0  0  0  0  0  0  0  0  0  0  0
  192.8940  176.0840  136.2540 C   0  0  0  0  0  3  0  0  0  0  0  0
  189.9270  175.7040  136.0500 C   0  0  2  0  0  3  0  0  0  0  0  0
  190.1650  173.7690  137.3600 N   0  0  0  0  0  0  0  0  0  0  0  0
  186.4500  175.8770  135.9640 C   0  0  0  0  0  1  0  0  0  0  0  0
  188.1960  177.1510  136.8620 C   0  0  1  0  0  3  0  0  0  0  0  0
  188.9260  173.7800  137.0100 C   0  0  0  0  0  3  0  0  0  0  0  0
  190.8310  174.8710  136.8280 N   0  0  0  0  0  0  0  0  0  0  0  0
  1 13  1  0  0  0  0
  2 15  1  0  0  0  0
  2  8  2  0  0  0  0
  3  4  2  0  0  0  0
  3  6  1  0  0  0  0
  4  9  1  0  0  0  0
  5 11  1  0  0  0  0
  6 10  2  0  0  0  0
  7 10  1  6  0  0  0
  7 14  1  0  0  0  0
  9 17  1  1  0  0  0
  9  7  1  0  0  0  0
 10 15  1  0  0  0  0
 11  2  1  0  0  0  0
 12  6  1  0  0  0  0
 12 11  2  0  0  0  0
 14 13  1  0  0  0  0
 15  1  1  1  0  0  0
 17 16  2  0  0  0  0
 18 23  1  0  0  0  0
 18 17  1  0  0  0  0
 19 29  1  6  0  0  0
 19 21  1  0  0  0  0
 22 24  1  0  0  0  0
 24 26  1  0  0  0  0
 24 20  2  0  0  0  0
 25 19  1  0  0  0  0
 25 22  1  0  0  0  0
 26 21  1  6  0  0  0
 26 27  1  0  0  0  0
 26 23  1  0  0  0  0
 27 23  1  0  0  0  0
 29 28  1  0  0  0  0
 30  3  1  0  0  0  0
 31 30  1  0  0  0  0
 32 31  1  0  0  0  0
 33 32  1  0  0  0  0
 34 33  1  0  0  0  0
 35 38  1  0  0  0  0
 36 48  1  0  0  0  0
 37 38  2  0  0  0  0
 39 37  1  0  0  0  0
 40 43  1  0  0  0  0
 40 49  1  1  0  0  0
 41 39  1  0  0  0  0
 42 35  2  0  0  0  0
 43 48  1  0  0  0  0
 44 39  2  0  0  0  0
 44 42  1  0  0  0  0
 45 40  1  0  0  0  0
 45 36  1  1  0  0  0
 45 50  1  0  0  0  0
 47 43  1  0  0  0  0
 48 34  1  1  0  0  0
 49 46  2  0  0  0  0
 50 42  1  0  0  0  0
 50 46  1  0  0  0  0
M  END
>  <MODEL>
3

>  <REMARK>
 VINA RESULT:      -8.6      2.622      5.025
  Name = 
  9 active torsions:
  status: ('A' for Active; 'I' for Inactive)
    1  A    between atoms: C_1  and  C_28
    2  A    between atoms: C_6  and  C_37
    3  A    between atoms: C_6  and  C_49
    4  A    between atoms: C_11  and  O_13
    5  A    between atoms: O_13  and  C_37
    6  A    between atoms: N_18  and  N_33
    7  A    between atoms: C_27  and  C_32
    8  A    between atoms: C_42  and  C_44
    9  A    between atoms: C_42  and  C_49
                            x       y       z     vdW  Elec       q    Type
                         _______ _______ _______ _____ _____    ______ ____

>  <TORSDO>
F 9

$$$$
=
 OpenBabel10232410383D

 50 57  0  0  1  0  0  0  0  0999 V2000
  190.2590  177.6700  143.5480 C   0  0  0  0  0  2  0  0  0  0  0  0
  187.8030  177.4440  143.0930 C   0  0  0  0  0  0  0  0  0  0  0  0
  189.3480  178.2090  139.1320 C   0  0  0  0  0  0  0  0  0  0  0  0
  190.4800  177.7110  138.7260 N   0  0  0  0  0  0  0  0  0  0  0  0
  185.6760  178.7510  142.4480 C   0  0  0  0  0  1  0  0  0  0  0  0
  188.7840  177.8150  140.4410 C   0  0  0  0  0  0  0  0  0  0  0  0
  190.9330  176.6890  140.9650 C   0  0  2  0  0  3  0  0  0  0  0  0
  187.3350  177.2340  144.2440 O   0  0  0  0  0  0  0  0  0  0  0  0
  191.1970  176.6580  139.4480 C   0  0  2  0  0  3  0  0  0  0  0  0
  189.5110  177.0580  141.2830 C   0  0  0  0  0  0  0  0  0  0  0  0
  187.0070  178.1840  142.0960 C   0  0  0  0  0  0  0  0  0  0  0  0
  187.4800  178.3630  140.8620 C   0  0  0  0  0  3  0  0  0  0  0  0
  191.6570  177.2750  143.0330 C   0  0  0  0  0  2  0  0  0  0  0  0
  191.7920  177.5700  141.6540 O   0  0  0  0  0  0  0  0  0  0  0  0
  189.1760  176.9320  142.7480 C   0  0  1  0  0  3  0  0  0  0  0  0
  193.4230  177.5230  139.6400 O   0  0  0  0  0  0  0  0  0  0  0  0
  192.6590  176.6610  139.1270 C   0  0  0  0  0  0  0  0  0  0  0  0
  193.1960  175.6200  138.3060 N   0  0  0  0  0  2  0  0  0  0  0  0
  194.2820  172.2890  135.9750 C   0  0  1  0  0  3  0  0  0  0  0  0
  197.2180  174.2320  138.1460 C   0  0  0  0  0  2  0  0  0  0  0  0
  193.7000  173.4490  136.7890 C   0  0  0  0  0  2  0  0  0  0  0  0
  196.4190  172.3740  136.7330 C   0  0  0  0  0  2  0  0  0  0  0  0
  194.5830  175.4430  138.1760 N   0  0  0  0  0  0  0  0  0  0  0  0
  196.2090  173.6650  137.4800 C   0  0  0  0  0  0  0  0  0  0  0  0
  195.2420  171.5970  136.7450 O   0  0  0  0  0  0  0  0  0  0  0  0
  194.8520  174.3030  137.3480 C   0  0  1  0  0  0  0  0  0  0  0  0
  194.8950  175.6020  136.7740 N   0  0  0  0  0  2  0  0  0  0  0  0
  191.9600  172.0490  135.4740 O   0  0  0  0  0  1  0  0  0  0  0  0
  193.1620  171.3500  135.5660 C   0  0  0  0  0  2  0  0  0  0  0  0
  188.6750  179.1630  138.3590 O   0  0  0  0  0  0  0  0  0  0  0  0
  188.2910  178.9330  137.0050 C   0  0  0  0  0  2  0  0  0  0  0  0
  187.3100  177.7750  136.9150 C   0  0  0  0  0  2  0  0  0  0  0  0
  186.0620  178.0800  137.7200 C   0  0  0  0  0  2  0  0  0  0  0  0
  184.8410  177.6160  136.9510 C   0  0  0  0  0  2  0  0  0  0  0  0
  180.1570  179.5090  140.7910 N   0  0  0  0  0  0  0  0  0  0  0  0
  183.5860  177.2740  139.0740 C   0  0  0  0  0  2  0  0  0  0  0  0
  180.8200  180.1050  142.9700 N   0  0  0  0  0  0  0  0  0  0  0  0
  180.0020  180.2830  141.8990 C   0  0  0  0  0  3  0  0  0  0  0  0
  181.7980  179.1640  142.9480 C   0  0  0  0  0  0  0  0  0  0  0  0
  181.7810  176.0550  138.0270 C   0  0  1  0  0  3  0  0  0  0  0  0
  182.6430  178.9920  144.0790 N   0  0  0  0  0  1  0  0  0  0  0  0
  181.1230  178.5570  140.7260 C   0  0  0  0  0  0  0  0  0  0  0  0
  182.8490  176.2180  137.0450 N   0  0  0  0  0  0  0  0  0  0  0  0
  181.9720  178.3650  141.8200 C   0  0  0  0  0  3  0  0  0  0  0  0
  182.2220  176.6880  139.3470 C   0  0  2  0  0  3  0  0  0  0  0  0
  180.3400  177.8050  138.4960 N   0  0  0  0  0  0  0  0  0  0  0  0
  183.1250  174.8970  136.5000 C   0  0  0  0  0  1  0  0  0  0  0  0
  184.0370  176.6290  137.7820 C   0  0  1  0  0  3  0  0  0  0  0  0
  180.5980  176.8870  137.6300 C   0  0  0  0  0  3  0  0  0  0  0  0
  181.2510  177.7520  139.5480 N   0  0  0  0  0  0  0  0  0  0  0  0
  2  8  2  0  0  0  0
  3  6  1  0  0  0  0
  4  3  2  0  0  0  0
  4  9  1  0  0  0  0
  6 12  1  0  0  0  0
  6 10  2  0  0  0  0
  7 10  1  6  0  0  0
  7 14  1  0  0  0  0
  9 17  1  1  0  0  0
  9  7  1  0  0  0  0
 10 15  1  0  0  0  0
 11  5  1  0  0  0  0
 11  2  1  0  0  0  0
 12 11  2  0  0  0  0
 13  1  1  0  0  0  0
 14 13  1  0  0  0  0
 15  2  1  0  0  0  0
 15  1  1  1  0  0  0
 17 16  2  0  0  0  0
 18 17  1  0  0  0  0
 19 29  1  1  0  0  0
 19 25  1  0  0  0  0
 19 21  1  0  0  0  0
 22 25  1  0  0  0  0
 22 24  1  0  0  0  0
 23 18  1  0  0  0  0
 24 20  2  0  0  0  0
 26 21  1  6  0  0  0
 26 24  1  0  0  0  0
 26 23  1  0  0  0  0
 27 26  1  0  0  0  0
 27 23  1  0  0  0  0
 28 29  1  0  0  0  0
 30  3  1  0  0  0  0
 31 30  1  0  0  0  0
 32 31  1  0  0  0  0
 32 33  1  0  0  0  0
 34 33  1  0  0  0  0
 35 38  1  0  0  0  0
 38 37  2  0  0  0  0
 39 37  1  0  0  0  0
 39 41  1  0  0  0  0
 40 49  1  6  0  0  0
 40 45  1  0  0  0  0
 42 35  2  0  0  0  0
 42 44  1  0  0  0  0
 43 48  1  0  0  0  0
 43 40  1  0  0  0  0
 44 39  2  0  0  0  0
 45 36  1  6  0  0  0
 45 50  1  0  0  0  0
 46 50  1  0  0  0  0
 47 43  1  0  0  0  0
 48 34  1  6  0  0  0
 48 36  1  0  0  0  0
 49 46  2  0  0  0  0
 50 42  1  0  0  0  0
M  END
>  <MODEL>
4

>  <REMARK>
 VINA RESULT:      -8.4      3.169      9.481
  Name = 
  9 active torsions:
  status: ('A' for Active; 'I' for Inactive)
    1  A    between atoms: C_1  and  C_28
    2  A    between atoms: C_6  and  C_37
    3  A    between atoms: C_6  and  C_49
    4  A    between atoms: C_11  and  O_13
    5  A    between atoms: O_13  and  C_37
    6  A    between atoms: N_18  and  N_33
    7  A    between atoms: C_27  and  C_32
    8  A    between atoms: C_42  and  C_44
    9  A    between atoms: C_42  and  C_49
                            x       y       z     vdW  Elec       q    Type
                         _______ _______ _______ _____ _____    ______ ____

>  <TORSDO>
F 9

$$$$
=
 OpenBabel10232410383D

 50 57  0  0  1  0  0  0  0  0999 V2000
  190.1290  177.8970  143.4840 C   0  0  0  0  0  2  0  0  0  0  0  0
  187.6800  177.6130  143.0230 C   0  0  0  0  0  0  0  0  0  0  0  0
  189.2480  178.1870  139.0390 C   0  0  0  0  0  0  0  0  0  0  0  0
  190.3910  177.6840  138.6700 N   0  0  0  0  0  0  0  0  0  0  0  0
  185.5410  178.8530  142.2920 C   0  0  0  0  0  1  0  0  0  0  0  0
  188.6790  177.8560  140.3630 C   0  0  0  0  0  0  0  0  0  0  0  0
  190.8380  176.7900  140.9630 C   0  0  2  0  0  3  0  0  0  0  0  0
  187.2050  177.4580  144.1800 O   0  0  0  0  0  0  0  0  0  0  0  0
  191.1160  176.6810  139.4530 C   0  0  2  0  0  3  0  0  0  0  0  0
  189.4090  177.1550  141.2500 C   0  0  0  0  0  0  0  0  0  0  0  0
  186.8830  178.2880  141.9810 C   0  0  0  0  0  0  0  0  0  0  0  0
  187.3640  178.4070  140.7440 C   0  0  0  0  0  3  0  0  0  0  0  0
  191.5360  177.4940  143.0020 C   0  0  0  0  0  2  0  0  0  0  0  0
  191.6790  177.7180  141.6110 O   0  0  0  0  0  0  0  0  0  0  0  0
  189.0620  177.1020  142.7170 C   0  0  1  0  0  3  0  0  0  0  0  0
  193.3740  177.3860  139.8310 O   0  0  0  0  0  0  0  0  0  0  0  0
  192.5800  176.6880  139.1430 C   0  0  0  0  0  0  0  0  0  0  0  0
  193.0820  175.8220  138.1200 N   0  0  0  0  0  2  0  0  0  0  0  0
  194.0430  172.4600  135.7800 C   0  0  1  0  0  3  0  0  0  0  0  0
  197.0690  174.3480  137.8740 C   0  0  0  0  0  2  0  0  0  0  0  0
  193.5040  173.6350  136.6010 C   0  0  0  0  0  2  0  0  0  0  0  0
  196.1990  172.5020  136.4880 C   0  0  0  0  0  2  0  0  0  0  0  0
  194.4620  175.6150  137.9590 N   0  0  0  0  0  0  0  0  0  0  0  0
  196.0330  173.8000  137.2340 C   0  0  0  0  0  0  0  0  0  0  0  0
  195.0050  171.7510  136.5310 O   0  0  0  0  0  0  0  0  0  0  0  0
  194.6870  174.4670  137.1300 C   0  0  1  0  0  0  0  0  0  0  0  0
  194.7450  175.7630  136.5500 N   0  0  0  0  0  2  0  0  0  0  0  0
  191.9080  172.2630  134.7300 O   0  0  0  0  0  1  0  0  0  0  0  0
  192.8940  171.5430  135.4010 C   0  0  0  0  0  2  0  0  0  0  0  0
  188.5700  179.0890  138.2110 O   0  0  0  0  0  0  0  0  0  0  0  0
  187.9740  178.7070  136.9730 C   0  0  0  0  0  2  0  0  0  0  0  0
  186.6310  178.0350  137.2090 C   0  0  0  0  0  2  0  0  0  0  0  0
  186.4310  176.9020  136.2210 C   0  0  0  0  0  2  0  0  0  0  0  0
  187.7320  176.1410  136.0570 C   0  0  0  0  0  2  0  0  0  0  0  0
  184.2160  171.0280  134.7290 N   0  0  0  0  0  0  0  0  0  0  0  0
  186.3910  174.2250  136.9100 C   0  0  0  0  0  2  0  0  0  0  0  0
  182.0190  171.0690  135.5760 N   0  0  0  0  0  0  0  0  0  0  0  0
  182.9010  170.7050  134.6070 C   0  0  0  0  0  3  0  0  0  0  0  0
  182.4360  171.7600  136.6680 C   0  0  0  0  0  0  0  0  0  0  0  0
  188.1910  172.6280  136.6890 C   0  0  1  0  0  3  0  0  0  0  0  0
  181.4990  172.1320  137.6720 N   0  0  0  0  0  1  0  0  0  0  0  0
  184.6750  171.7200  135.8030 C   0  0  0  0  0  0  0  0  0  0  0  0
  188.7390  173.9630  136.4720 N   0  0  0  0  0  0  0  0  0  0  0  0
  183.7790  172.1030  136.8070 C   0  0  0  0  0  3  0  0  0  0  0  0
  186.7000  172.7500  137.0040 C   0  0  2  0  0  3  0  0  0  0  0  0
  187.0180  171.5510  135.0090 N   0  0  0  0  0  0  0  0  0  0  0  0
  189.8950  174.0920  137.3460 C   0  0  0  0  0  1  0  0  0  0  0  0
  187.7390  174.9100  136.9480 C   0  0  1  0  0  3  0  0  0  0  0  0
  188.2060  171.8590  135.4020 C   0  0  0  0  0  3  0  0  0  0  0  0
  186.0690  172.0360  135.9050 N   0  0  0  0  0  0  0  0  0  0  0  0
  2  8  2  0  0  0  0
  3  6  1  0  0  0  0
  4  3  2  0  0  0  0
  4  9  1  0  0  0  0
  6 12  1  0  0  0  0
  6 10  2  0  0  0  0
  7 10  1  6  0  0  0
  7 14  1  0  0  0  0
  9 17  1  1  0  0  0
  9  7  1  0  0  0  0
 10 15  1  0  0  0  0
 11  5  1  0  0  0  0
 11  2  1  0  0  0  0
 12 11  2  0  0  0  0
 13  1  1  0  0  0  0
 14 13  1  0  0  0  0
 15  2  1  0  0  0  0
 15  1  1  1  0  0  0
 17 16  2  0  0  0  0
 18 17  1  0  0  0  0
 19 29  1  1  0  0  0
 19 25  1  0  0  0  0
 19 21  1  0  0  0  0
 22 25  1  0  0  0  0
 22 24  1  0  0  0  0
 23 18  1  0  0  0  0
 24 20  2  0  0  0  0
 26 21  1  6  0  0  0
 26 24  1  0  0  0  0
 26 23  1  0  0  0  0
 27 26  1  0  0  0  0
 27 23  1  0  0  0  0
 28 29  1  0  0  0  0
 30  3  1  0  0  0  0
 31 32  1  0  0  0  0
 31 30  1  0  0  0  0
 33 32  1  0  0  0  0
 34 33  1  0  0  0  0
 35 42  1  0  0  0  0
 36 48  1  0  0  0  0
 37 39  2  0  0  0  0
 38 35  2  0  0  0  0
 38 37  1  0  0  0  0
 39 44  1  0  0  0  0
 39 41  1  0  0  0  0
 40 49  1  6  0  0  0
 40 45  1  0  0  0  0
 42 50  1  0  0  0  0
 42 44  2  0  0  0  0
 43 40  1  0  0  0  0
 43 48  1  0  0  0  0
 43 47  1  0  0  0  0
 45 36  1  6  0  0  0
 46 49  2  0  0  0  0
 46 50  1  0  0  0  0
 48 34  1  6  0  0  0
 50 45  1  0  0  0  0
M  END
>  <MODEL>
5

>  <REMARK>
 VINA RESULT:      -8.3      3.138      7.909
  Name = 
  9 active torsions:
  status: ('A' for Active; 'I' for Inactive)
    1  A    between atoms: C_1  and  C_28
    2  A    between atoms: C_6  and  C_37
    3  A    between atoms: C_6  and  C_49
    4  A    between atoms: C_11  and  O_13
    5  A    between atoms: O_13  and  C_37
    6  A    between atoms: N_18  and  N_33
    7  A    between atoms: C_27  and  C_32
    8  A    between atoms: C_42  and  C_44
    9  A    between atoms: C_42  and  C_49
                            x       y       z     vdW  Elec       q    Type
                         _______ _______ _______ _____ _____    ______ ____

>  <TORSDO>
F 9

$$$$
=
 OpenBabel10232410383D

 50 57  0  0  1  0  0  0  0  0999 V2000
  193.4870  176.5190  139.1930 C   0  0  0  0  0  2  0  0  0  0  0  0
  194.0660  175.2650  137.0990 C   0  0  0  0  0  0  0  0  0  0  0  0
  189.8020  174.6120  137.3460 C   0  0  0  0  0  0  0  0  0  0  0  0
  188.9850  175.5410  137.7510 N   0  0  0  0  0  0  0  0  0  0  0  0
  194.3050  172.9080  136.0820 C   0  0  0  0  0  1  0  0  0  0  0  0
  191.2360  174.9130  137.1430 C   0  0  0  0  0  0  0  0  0  0  0  0
  190.8730  177.1090  138.2410 C   0  0  2  0  0  3  0  0  0  0  0  0
  195.3120  175.4350  137.0210 O   0  0  0  0  0  0  0  0  0  0  0  0
  189.3800  176.9430  137.9040 C   0  0  2  0  0  3  0  0  0  0  0  0
  191.7290  176.1080  137.5180 C   0  0  0  0  0  0  0  0  0  0  0  0
  193.4580  174.0130  136.6110 C   0  0  0  0  0  0  0  0  0  0  0  0
  192.1350  173.8530  136.6470 C   0  0  0  0  0  3  0  0  0  0  0  0
  192.4600  177.4850  139.8160 C   0  0  0  0  0  2  0  0  0  0  0  0
  191.1380  177.0150  139.6230 O   0  0  0  0  0  0  0  0  0  0  0  0
  193.2080  176.3510  137.6920 C   0  0  1  0  0  3  0  0  0  0  0  0
  187.6120  178.4620  138.4570 O   0  0  0  0  0  0  0  0  0  0  0  0
  188.4960  177.6650  138.8730 C   0  0  0  0  0  0  0  0  0  0  0  0
  188.6020  177.3710  140.2690 N   0  0  0  0  0  2  0  0  0  0  0  0
  189.9290  177.4300  144.2620 C   0  0  1  0  0  3  0  0  0  0  0  0
  185.9100  178.0390  143.4990 C   0  0  0  0  0  2  0  0  0  0  0  0
  189.6250  177.3380  142.7630 C   0  0  0  0  0  2  0  0  0  0  0  0
  187.8070  177.6700  145.0320 C   0  0  0  0  0  2  0  0  0  0  0  0
  187.6420  177.8360  141.1820 N   0  0  0  0  0  0  0  0  0  0  0  0
  187.2200  177.8330  143.6540 C   0  0  0  0  0  0  0  0  0  0  0  0
  188.9100  176.7900  144.9990 O   0  0  0  0  0  0  0  0  0  0  0  0
  188.1930  177.8430  142.5060 C   0  0  1  0  0  0  0  0  0  0  0  0
  188.1680  179.0520  141.7590 N   0  0  0  0  0  2  0  0  0  0  0  0
  191.6700  177.0480  145.8500 O   0  0  0  0  0  1  0  0  0  0  0  0
  191.2700  176.7770  144.5440 C   0  0  0  0  0  2  0  0  0  0  0  0
  189.3460  173.3030  137.1490 O   0  0  0  0  0  0  0  0  0  0  0  0
  188.7290  172.8710  135.9390 C   0  0  0  0  0  2  0  0  0  0  0  0
  187.2580  172.5640  136.1660 C   0  0  0  0  0  2  0  0  0  0  0  0
  186.4680  172.8070  134.8940 C   0  0  0  0  0  2  0  0  0  0  0  0
  185.4590  173.9120  135.1310 C   0  0  0  0  0  2  0  0  0  0  0  0
  181.7700  178.4240  137.6420 N   0  0  0  0  0  0  0  0  0  0  0  0
  184.6610  175.0880  137.1760 C   0  0  0  0  0  2  0  0  0  0  0  0
  182.8990  180.0670  138.8930 N   0  0  0  0  0  0  0  0  0  0  0  0
  181.8850  179.7120  138.0610 C   0  0  0  0  0  3  0  0  0  0  0  0
  183.8080  179.1490  139.3110 C   0  0  0  0  0  0  0  0  0  0  0  0
  182.6240  173.7990  137.3470 C   0  0  1  0  0  3  0  0  0  0  0  0
  184.8620  179.5390  140.1820 N   0  0  0  0  0  1  0  0  0  0  0  0
  182.6570  177.4740  138.0340 C   0  0  0  0  0  0  0  0  0  0  0  0
  183.4700  173.1790  136.3310 N   0  0  0  0  0  0  0  0  0  0  0  0
  183.7070  177.8250  138.8880 C   0  0  0  0  0  3  0  0  0  0  0  0
  183.3600  175.0040  137.9360 C   0  0  2  0  0  3  0  0  0  0  0  0
  181.3930  175.6960  136.8530 N   0  0  0  0  0  0  0  0  0  0  0  0
  183.5660  171.7670  136.6670 C   0  0  0  0  0  1  0  0  0  0  0  0
  184.8030  173.7460  136.4920 C   0  0  1  0  0  3  0  0  0  0  0  0
  181.4230  174.4180  136.6970 C   0  0  0  0  0  3  0  0  0  0  0  0
  182.5010  176.1230  137.5820 N   0  0  0  0  0  0  0  0  0  0  0  0
  1 13  1  0  0  0  0
  2 15  1  0  0  0  0
  3  4  2  0  0  0  0
  4  9  1  0  0  0  0
  5 11  1  0  0  0  0
  6  3  1  0  0  0  0
  6 10  2  0  0  0  0
  7 10  1  6  0  0  0
  7 14  1  0  0  0  0
  8  2  2  0  0  0  0
  9  7  1  0  0  0  0
  9 17  1  1  0  0  0
 10 15  1  0  0  0  0
 11 12  2  0  0  0  0
 11  2  1  0  0  0  0
 12  6  1  0  0  0  0
 14 13  1  0  0  0  0
 15  1  1  1  0  0  0
 16 17  2  0  0  0  0
 17 18  1  0  0  0  0
 18 23  1  0  0  0  0
 19 29  1  6  0  0  0
 19 25  1  0  0  0  0
 20 24  2  0  0  0  0
 21 19  1  0  0  0  0
 23 27  1  0  0  0  0
 23 26  1  0  0  0  0
 24 22  1  0  0  0  0
 25 22  1  0  0  0  0
 26 21  1  1  0  0  0
 26 24  1  0  0  0  0
 27 26  1  0  0  0  0
 29 28  1  0  0  0  0
 30  3  1  0  0  0  0
 31 32  1  0  0  0  0
 31 30  1  0  0  0  0
 33 34  1  0  0  0  0
 33 32  1  0  0  0  0
 35 42  2  0  0  0  0
 35 38  1  0  0  0  0
 37 39  1  0  0  0  0
 38 37  2  0  0  0  0
 39 41  1  0  0  0  0
 40 49  1  6  0  0  0
 40 45  1  0  0  0  0
 42 44  1  0  0  0  0
 43 48  1  0  0  0  0
 43 47  1  0  0  0  0
 43 40  1  0  0  0  0
 44 39  2  0  0  0  0
 45 36  1  6  0  0  0
 46 50  1  0  0  0  0
 48 34  1  6  0  0  0
 48 36  1  0  0  0  0
 49 46  2  0  0  0  0
 50 45  1  0  0  0  0
 50 42  1  0  0  0  0
M  END
>  <MODEL>
6

>  <REMARK>
 VINA RESULT:      -8.1      2.980      9.738
  Name = 
  9 active torsions:
  status: ('A' for Active; 'I' for Inactive)
    1  A    between atoms: C_1  and  C_28
    2  A    between atoms: C_6  and  C_37
    3  A    between atoms: C_6  and  C_49
    4  A    between atoms: C_11  and  O_13
    5  A    between atoms: O_13  and  C_37
    6  A    between atoms: N_18  and  N_33
    7  A    between atoms: C_27  and  C_32
    8  A    between atoms: C_42  and  C_44
    9  A    between atoms: C_42  and  C_49
                            x       y       z     vdW  Elec       q    Type
                         _______ _______ _______ _____ _____    ______ ____

>  <TORSDO>
F 9

$$$$
=
 OpenBabel10232410383D

 50 57  0  0  1  0  0  0  0  0999 V2000
  187.5670  176.6570  136.3630 C   0  0  0  0  0  2  0  0  0  0  0  0
  187.0190  178.3790  138.1020 C   0  0  0  0  0  0  0  0  0  0  0  0
  190.5350  176.5290  139.7980 C   0  0  0  0  0  0  0  0  0  0  0  0
  191.5380  176.1510  139.0590 N   0  0  0  0  0  0  0  0  0  0  0  0
  186.1150  178.7090  140.4940 C   0  0  0  0  0  1  0  0  0  0  0  0
  189.4100  177.2820  139.2020 C   0  0  0  0  0  0  0  0  0  0  0  0
  190.3450  176.7920  136.9550 C   0  0  2  0  0  3  0  0  0  0  0  0
  185.9840  178.9190  137.6270 O   0  0  0  0  0  0  0  0  0  0  0  0
  191.6930  176.5410  137.6570 C   0  0  2  0  0  3  0  0  0  0  0  0
  189.3470  177.4490  137.8680 C   0  0  0  0  0  0  0  0  0  0  0  0
  187.1860  178.2580  139.5620 C   0  0  0  0  0  0  0  0  0  0  0  0
  188.3030  177.7330  140.0660 C   0  0  0  0  0  3  0  0  0  0  0  0
  188.7250  176.0220  135.5680 C   0  0  0  0  0  2  0  0  0  0  0  0
  189.7710  175.6150  136.4320 O   0  0  0  0  0  0  0  0  0  0  0  0
  188.0780  177.8620  137.1660 C   0  0  1  0  0  3  0  0  0  0  0  0
  192.7420  175.7220  135.6650 O   0  0  0  0  0  0  0  0  0  0  0  0
  192.5530  175.5760  136.9040 C   0  0  0  0  0  0  0  0  0  0  0  0
  193.2340  174.5400  137.6190 N   0  0  0  0  0  2  0  0  0  0  0  0
  196.9510  174.6630  139.5880 C   0  0  1  0  0  3  0  0  0  0  0  0
  196.7540  172.9510  135.8280 C   0  0  0  0  0  2  0  0  0  0  0  0
  195.5330  174.7400  139.0120 C   0  0  0  0  0  2  0  0  0  0  0  0
  198.0080  173.7760  137.7860 C   0  0  0  0  0  2  0  0  0  0  0  0
  194.2320  173.7690  137.0010 N   0  0  0  0  0  0  0  0  0  0  0  0
  196.7270  173.5220  137.0350 C   0  0  0  0  0  0  0  0  0  0  0  0
  197.8950  174.9400  138.5760 O   0  0  0  0  0  0  0  0  0  0  0  0
  195.4480  173.8540  137.7560 C   0  0  1  0  0  0  0  0  0  0  0  0
  194.5970  172.7310  137.9380 N   0  0  0  0  0  2  0  0  0  0  0  0
  198.0520  175.2290  141.6290 O   0  0  0  0  0  1  0  0  0  0  0  0
  197.0880  175.6630  140.7220 C   0  0  0  0  0  2  0  0  0  0  0  0
  190.4810  176.1820  141.1530 O   0  0  0  0  0  0  0  0  0  0  0  0
  190.8960  177.0610  142.1960 C   0  0  0  0  0  2  0  0  0  0  0  0
  190.0090  176.9000  143.4190 C   0  0  0  0  0  2  0  0  0  0  0  0
  188.8700  175.9440  143.1180 C   0  0  0  0  0  2  0  0  0  0  0  0
  187.7510  176.1640  144.1170 C   0  0  0  0  0  2  0  0  0  0  0  0
  181.8130  178.3730  144.4710 N   0  0  0  0  0  0  0  0  0  0  0  0
  186.1460  177.9910  143.5850 C   0  0  0  0  0  2  0  0  0  0  0  0
  180.7840  178.8310  142.4030 N   0  0  0  0  0  0  0  0  0  0  0  0
  180.6980  178.4140  143.6940 C   0  0  0  0  0  3  0  0  0  0  0  0
  181.9780  179.2050  141.8730 C   0  0  0  0  0  0  0  0  0  0  0  0
  186.2980  179.0120  145.7700 C   0  0  1  0  0  3  0  0  0  0  0  0
  182.0490  179.6400  140.5210 N   0  0  0  0  0  1  0  0  0  0  0  0
  183.0260  178.7360  143.9810 C   0  0  0  0  0  0  0  0  0  0  0  0
  187.3380  177.9930  145.6720 N   0  0  0  0  0  0  0  0  0  0  0  0
  183.1310  179.1650  142.6550 C   0  0  0  0  0  3  0  0  0  0  0  0
  185.5320  179.0670  144.4480 C   0  0  2  0  0  3  0  0  0  0  0  0
  184.1020  178.4120  146.1930 N   0  0  0  0  0  0  0  0  0  0  0  0
  188.5890  178.6290  146.0570 C   0  0  0  0  0  1  0  0  0  0  0  0
  187.4560  177.6480  144.2600 C   0  0  1  0  0  3  0  0  0  0  0  0
  185.2510  178.5740  146.7510 C   0  0  0  0  0  3  0  0  0  0  0  0
  184.1800  178.6900  144.8300 N   0  0  0  0  0  0  0  0  0  0  0  0
  2 11  1  0  0  0  0
  3 30  1  0  0  0  0
  4  3  2  0  0  0  0
  6  3  1  0  0  0  0
  6 12  1  0  0  0  0
  7 14  1  1  0  0  0
  7  9  1  0  0  0  0
  7 10  1  0  0  0  0
  8  2  2  0  0  0  0
  9 17  1  6  0  0  0
  9  4  1  0  0  0  0
 10  6  2  0  0  0  0
 11 12  2  0  0  0  0
 11  5  1  0  0  0  0
 13  1  1  0  0  0  0
 13 14  1  0  0  0  0
 15  1  1  1  0  0  0
 15 10  1  0  0  0  0
 15  2  1  0  0  0  0
 16 17  2  0  0  0  0
 17 18  1  0  0  0  0
 19 29  1  1  0  0  0
 20 24  2  0  0  0  0
 21 19  1  0  0  0  0
 22 25  1  0  0  0  0
 23 18  1  0  0  0  0
 23 26  1  0  0  0  0
 23 27  1  0  0  0  0
 24 26  1  0  0  0  0
 24 22  1  0  0  0  0
 25 19  1  0  0  0  0
 26 27  1  0  0  0  0
 26 21  1  1  0  0  0
 29 28  1  0  0  0  0
 30 31  1  0  0  0  0
 31 32  1  0  0  0  0
 33 32  1  0  0  0  0
 33 34  1  0  0  0  0
 36 48  1  0  0  0  0
 37 38  1  0  0  0  0
 38 35  2  0  0  0  0
 39 37  2  0  0  0  0
 39 44  1  0  0  0  0
 40 49  1  1  0  0  0
 41 39  1  0  0  0  0
 42 35  1  0  0  0  0
 42 50  1  0  0  0  0
 43 40  1  0  0  0  0
 43 47  1  0  0  0  0
 44 42  2  0  0  0  0
 45 36  1  6  0  0  0
 45 50  1  0  0  0  0
 45 40  1  0  0  0  0
 46 49  2  0  0  0  0
 48 34  1  1  0  0  0
 48 43  1  0  0  0  0
 50 46  1  0  0  0  0
M  END
>  <MODEL>
7

>  <REMARK>
 VINA RESULT:      -8.0      3.195     10.184
  Name = 
  9 active torsions:
  status: ('A' for Active; 'I' for Inactive)
    1  A    between atoms: C_1  and  C_28
    2  A    between atoms: C_6  and  C_37
    3  A    between atoms: C_6  and  C_49
    4  A    between atoms: C_11  and  O_13
    5  A    between atoms: O_13  and  C_37
    6  A    between atoms: N_18  and  N_33
    7  A    between atoms: C_27  and  C_32
    8  A    between atoms: C_42  and  C_44
    9  A    between atoms: C_42  and  C_49
                            x       y       z     vdW  Elec       q    Type
                         _______ _______ _______ _____ _____    ______ ____

>  <TORSDO>
F 9

$$$$
=
 OpenBabel10232410383D

 50 57  0  0  1  0  0  0  0  0999 V2000
  187.0550  177.2130  147.3110 C   0  0  0  0  0  2  0  0  0  0  0  0
  189.4940  177.5250  146.8180 C   0  0  0  0  0  0  0  0  0  0  0  0
  187.7970  177.5780  142.8460 C   0  0  0  0  0  0  0  0  0  0  0  0
  186.6540  178.1480  142.5930 N   0  0  0  0  0  0  0  0  0  0  0  0
  191.5850  176.3760  145.8420 C   0  0  0  0  0  1  0  0  0  0  0  0
  188.4120  177.6980  144.1850 C   0  0  0  0  0  0  0  0  0  0  0  0
  186.2930  178.6960  145.0080 C   0  0  2  0  0  3  0  0  0  0  0  0
  190.0060  177.4980  147.9700 O   0  0  0  0  0  0  0  0  0  0  0  0
  185.9730  179.0330  143.5400 C   0  0  2  0  0  3  0  0  0  0  0  0
  187.7230  178.2700  145.1910 C   0  0  0  0  0  0  0  0  0  0  0  0
  190.2460  177.0020  145.6620 C   0  0  0  0  0  0  0  0  0  0  0  0
  189.7260  177.0760  144.4370 C   0  0  0  0  0  3  0  0  0  0  0  0
  185.6420  177.7040  146.9400 C   0  0  0  0  0  2  0  0  0  0  0  0
  185.4530  177.6940  145.5370 O   0  0  0  0  0  0  0  0  0  0  0  0
  188.1140  178.0970  146.6370 C   0  0  1  0  0  3  0  0  0  0  0  0
  183.7340  179.6830  144.0930 O   0  0  0  0  0  0  0  0  0  0  0  0
  184.5000  179.0960  143.2800 C   0  0  0  0  0  0  0  0  0  0  0  0
  183.9830  178.5650  142.0570 N   0  0  0  0  0  2  0  0  0  0  0  0
  183.1890  177.6080  138.0370 C   0  0  1  0  0  3  0  0  0  0  0  0
  180.3540  179.7400  140.1640 C   0  0  0  0  0  2  0  0  0  0  0  0
  183.6620  177.8960  139.4650 C   0  0  0  0  0  2  0  0  0  0  0  0
  181.2450  178.7780  138.0740 C   0  0  0  0  0  2  0  0  0  0  0  0
  182.6580  178.8140  141.6620 N   0  0  0  0  0  0  0  0  0  0  0  0
  181.3230  179.0520  139.5530 C   0  0  0  0  0  0  0  0  0  0  0  0
  182.5380  178.7430  137.5090 O   0  0  0  0  0  0  0  0  0  0  0  0
  182.4800  178.4340  140.2910 C   0  0  1  0  0  0  0  0  0  0  0  0
  182.0780  177.5370  141.3160 N   0  0  0  0  0  2  0  0  0  0  0  0
  185.5110  177.9460  137.5940 O   0  0  0  0  0  1  0  0  0  0  0  0
  184.3840  177.2410  137.1760 C   0  0  0  0  0  2  0  0  0  0  0  0
  188.4320  176.8000  141.8710 O   0  0  0  0  0  0  0  0  0  0  0  0
  189.0700  177.3610  140.7260 C   0  0  0  0  0  2  0  0  0  0  0  0
  190.4490  176.7540  140.5280 C   0  0  0  0  0  2  0  0  0  0  0  0
  190.9200  176.9750  139.1030 C   0  0  0  0  0  2  0  0  0  0  0  0
  190.2650  175.9560  138.1920 C   0  0  0  0  0  2  0  0  0  0  0  0
  195.2150  172.1260  137.1450 N   0  0  0  0  0  0  0  0  0  0  0  0
  192.4410  175.5900  137.0400 C   0  0  0  0  0  2  0  0  0  0  0  0
  197.3170  173.0190  137.7170 N   0  0  0  0  0  0  0  0  0  0  0  0
  196.4800  171.9530  137.6120 C   0  0  0  0  0  3  0  0  0  0  0  0
  196.9030  174.2640  137.3650 C   0  0  0  0  0  0  0  0  0  0  0  0
  191.4820  174.2860  135.2460 C   0  0  1  0  0  3  0  0  0  0  0  0
  197.7930  175.3670  137.4810 N   0  0  0  0  0  1  0  0  0  0  0  0
  194.7590  173.3530  136.7840 C   0  0  0  0  0  0  0  0  0  0  0  0
  190.3890  174.8730  136.0140 N   0  0  0  0  0  0  0  0  0  0  0  0
  195.6080  174.4590  136.8890 C   0  0  0  0  0  3  0  0  0  0  0  0
  192.8110  174.7430  135.8460 C   0  0  2  0  0  3  0  0  0  0  0  0
  192.5930  172.4110  136.0270 N   0  0  0  0  0  0  0  0  0  0  0  0
  189.5130  175.5380  135.0610 C   0  0  0  0  0  1  0  0  0  0  0  0
  190.9750  175.9140  136.8500 C   0  0  1  0  0  3  0  0  0  0  0  0
  191.5070  172.8010  135.4550 C   0  0  0  0  0  3  0  0  0  0  0  0
  193.4230  173.4990  136.2870 N   0  0  0  0  0  0  0  0  0  0  0  0
  2  8  2  0  0  0  0
  3  6  1  0  0  0  0
  4  3  2  0  0  0  0
  4  9  1  0  0  0  0
  6 12  1  0  0  0  0
  6 10  2  0  0  0  0
  7 10  1  6  0  0  0
  7 14  1  0  0  0  0
  9 17  1  1  0  0  0
  9  7  1  0  0  0  0
 10 15  1  0  0  0  0
 11  5  1  0  0  0  0
 11  2  1  0  0  0  0
 12 11  2  0  0  0  0
 13  1  1  0  0  0  0
 14 13  1  0  0  0  0
 15  2  1  0  0  0  0
 15  1  1  6  0  0  0
 17 16  2  0  0  0  0
 18 17  1  0  0  0  0
 19 29  1  6  0  0  0
 19 21  1  0  0  0  0
 22 24  1  0  0  0  0
 23 18  1  0  0  0  0
 24 20  2  0  0  0  0
 24 26  1  0  0  0  0
 25 19  1  0  0  0  0
 25 22  1  0  0  0  0
 26 21  1  6  0  0  0
 26 27  1  0  0  0  0
 26 23  1  0  0  0  0
 27 23  1  0  0  0  0
 29 28  1  0  0  0  0
 30  3  1  0  0  0  0
 31 30  1  0  0  0  0
 32 31  1  0  0  0  0
 33 32  1  0  0  0  0
 34 33  1  0  0  0  0
 35 38  1  0  0  0  0
 38 37  2  0  0  0  0
 39 41  1  0  0  0  0
 39 37  1  0  0  0  0
 40 49  1  1  0  0  0
 40 45  1  0  0  0  0
 40 43  1  0  0  0  0
 42 44  1  0  0  0  0
 42 35  2  0  0  0  0
 43 48  1  0  0  0  0
 44 39  2  0  0  0  0
 45 50  1  0  0  0  0
 45 36  1  1  0  0  0
 46 50  1  0  0  0  0
 47 43  1  0  0  0  0
 48 36  1  0  0  0  0
 48 34  1  1  0  0  0
 49 46  2  0  0  0  0
 50 42  1  0  0  0  0
M  END
>  <MODEL>
8

>  <REMARK>
 VINA RESULT:      -7.8      2.308      3.679
  Name = 
  9 active torsions:
  status: ('A' for Active; 'I' for Inactive)
    1  A    between atoms: C_1  and  C_28
    2  A    between atoms: C_6  and  C_37
    3  A    between atoms: C_6  and  C_49
    4  A    between atoms: C_11  and  O_13
    5  A    between atoms: O_13  and  C_37
    6  A    between atoms: N_18  and  N_33
    7  A    between atoms: C_27  and  C_32
    8  A    between atoms: C_42  and  C_44
    9  A    between atoms: C_42  and  C_49
                            x       y       z     vdW  Elec       q    Type
                         _______ _______ _______ _____ _____    ______ ____

>  <TORSDO>
F 9

$$$$
=
 OpenBabel10232410383D

 50 57  0  0  1  0  0  0  0  0999 V2000
  181.1090  179.3940  141.7060 C   0  0  0  0  0  2  0  0  0  0  0  0
  181.2000  178.3070  139.4480 C   0  0  0  0  0  0  0  0  0  0  0  0
  185.3880  178.4740  140.4960 C   0  0  0  0  0  0  0  0  0  0  0  0
  185.8020  178.2670  141.7130 N   0  0  0  0  0  0  0  0  0  0  0  0
  181.8660  178.6760  136.9840 C   0  0  0  0  0  1  0  0  0  0  0  0
  183.9650  178.2740  140.1460 C   0  0  0  0  0  0  0  0  0  0  0  0
  183.4590  178.0450  142.5660 C   0  0  2  0  0  3  0  0  0  0  0  0
  179.9830  178.2640  139.1210 O   0  0  0  0  0  0  0  0  0  0  0  0
  184.9490  177.7110  142.7660 C   0  0  2  0  0  3  0  0  0  0  0  0
  183.0650  178.0220  141.1160 C   0  0  0  0  0  0  0  0  0  0  0  0
  182.2370  178.4820  138.4140 C   0  0  0  0  0  0  0  0  0  0  0  0
  183.5270  178.4770  138.7520 C   0  0  0  0  0  3  0  0  0  0  0  0
  181.6840  179.3350  143.1350 C   0  0  0  0  0  2  0  0  0  0  0  0
  183.0990  179.2950  143.1100 O   0  0  0  0  0  0  0  0  0  0  0  0
  181.5810  178.1770  140.8980 C   0  0  1  0  0  3  0  0  0  0  0  0
  184.7510  178.8470  144.8650 O   0  0  0  0  0  0  0  0  0  0  0  0
  185.4370  178.0860  144.1300 C   0  0  0  0  0  0  0  0  0  0  0  0
  186.6420  177.4970  144.6280 N   0  0  0  0  0  2  0  0  0  0  0  0
  190.7880  177.2600  145.3050 C   0  0  1  0  0  3  0  0  0  0  0  0
  188.2390  177.1530  148.5600 C   0  0  0  0  0  2  0  0  0  0  0  0
  189.3210  177.3210  144.8680 C   0  0  0  0  0  2  0  0  0  0  0  0
  190.4730  176.9600  147.5330 C   0  0  0  0  0  2  0  0  0  0  0  0
  187.0070  177.6280  145.9780 N   0  0  0  0  0  0  0  0  0  0  0  0
  188.9870  177.1930  147.4550 C   0  0  0  0  0  0  0  0  0  0  0  0
  190.9380  176.3320  146.3580 O   0  0  0  0  0  0  0  0  0  0  0  0
  188.4340  177.5600  146.1030 C   0  0  1  0  0  0  0  0  0  0  0  0
  187.8010  178.8310  146.0810 N   0  0  0  0  0  2  0  0  0  0  0  0
  190.9580  175.9570  143.3120 O   0  0  0  0  0  1  0  0  0  0  0  0
  191.6490  176.8560  144.1220 C   0  0  0  0  0  2  0  0  0  0  0  0
  186.2720  178.9400  139.5160 O   0  0  0  0  0  0  0  0  0  0  0  0
  187.0620  178.0710  138.7080 C   0  0  0  0  0  2  0  0  0  0  0  0
  188.5130  178.5220  138.6950 C   0  0  0  0  0  2  0  0  0  0  0  0
  189.0850  178.4080  137.2950 C   0  0  0  0  0  2  0  0  0  0  0  0
  188.0030  177.9310  136.3460 C   0  0  0  0  0  2  0  0  0  0  0  0
  193.1230  174.4880  137.8280 N   0  0  0  0  0  0  0  0  0  0  0  0
  190.0540  176.7590  135.5620 C   0  0  0  0  0  2  0  0  0  0  0  0
  195.1880  175.4430  137.2240 N   0  0  0  0  0  0  0  0  0  0  0  0
  194.4450  174.6890  138.0770 C   0  0  0  0  0  3  0  0  0  0  0  0
  194.6250  176.0050  136.1230 C   0  0  0  0  0  0  0  0  0  0  0  0
  189.0150  174.5770  135.5210 C   0  0  1  0  0  3  0  0  0  0  0  0
  195.4200  176.7900  135.2420 N   0  0  0  0  0  1  0  0  0  0  0  0
  192.5200  175.0320  136.7400 C   0  0  0  0  0  0  0  0  0  0  0  0
  187.9700  175.5740  135.7340 N   0  0  0  0  0  0  0  0  0  0  0  0
  193.2720  175.8110  135.8560 C   0  0  0  0  0  3  0  0  0  0  0  0
  190.3590  175.2920  135.3740 C   0  0  2  0  0  3  0  0  0  0  0  0
  190.3740  173.9060  137.2710 N   0  0  0  0  0  0  0  0  0  0  0  0
  186.9330  175.3160  134.7470 C   0  0  0  0  0  1  0  0  0  0  0  0
  188.5530  176.8700  135.4090 C   0  0  1  0  0  3  0  0  0  0  0  0
  189.1980  173.7610  136.7660 C   0  0  0  0  0  3  0  0  0  0  0  0
  191.1270  174.7910  136.5030 N   0  0  0  0  0  0  0  0  0  0  0  0
  1 13  1  0  0  0  0
  2 15  1  0  0  0  0
  3  4  2  0  0  0  0
  4  9  1  0  0  0  0
  5 11  1  0  0  0  0
  6  3  1  0  0  0  0
  6 10  2  0  0  0  0
  7 10  1  6  0  0  0
  7  9  1  0  0  0  0
  7 14  1  0  0  0  0
  8  2  2  0  0  0  0
  9 17  1  1  0  0  0
 11 12  2  0  0  0  0
 11  2  1  0  0  0  0
 12  6  1  0  0  0  0
 14 13  1  0  0  0  0
 15 10  1  0  0  0  0
 15  1  1  1  0  0  0
 17 18  1  0  0  0  0
 17 16  2  0  0  0  0
 18 23  1  0  0  0  0
 19 29  1  6  0  0  0
 19 25  1  0  0  0  0
 21 19  1  0  0  0  0
 23 27  1  0  0  0  0
 23 26  1  0  0  0  0
 24 22  1  0  0  0  0
 24 20  2  0  0  0  0
 25 22  1  0  0  0  0
 26 21  1  6  0  0  0
 26 24  1  0  0  0  0
 27 26  1  0  0  0  0
 28 29  1  0  0  0  0
 30  3  1  0  0  0  0
 31 30  1  0  0  0  0
 32 31  1  0  0  0  0
 33 32  1  0  0  0  0
 34 33  1  0  0  0  0
 35 38  1  0  0  0  0
 37 38  2  0  0  0  0
 39 37  1  0  0  0  0
 40 43  1  0  0  0  0
 40 49  1  1  0  0  0
 41 39  1  0  0  0  0
 42 35  2  0  0  0  0
 44 39  2  0  0  0  0
 44 42  1  0  0  0  0
 45 40  1  0  0  0  0
 45 36  1  1  0  0  0
 45 50  1  0  0  0  0
 47 43  1  0  0  0  0
 48 36  1  0  0  0  0
 48 43  1  0  0  0  0
 48 34  1  1  0  0  0
 49 46  2  0  0  0  0
 50 42  1  0  0  0  0
 50 46  1  0  0  0  0
M  END
>  <MODEL>
9

>  <REMARK>
 VINA RESULT:      -7.7      2.526      6.560
  Name = 
  9 active torsions:
  status: ('A' for Active; 'I' for Inactive)
    1  A    between atoms: C_1  and  C_28
    2  A    between atoms: C_6  and  C_37
    3  A    between atoms: C_6  and  C_49
    4  A    between atoms: C_11  and  O_13
    5  A    between atoms: O_13  and  C_37
    6  A    between atoms: N_18  and  N_33
    7  A    between atoms: C_27  and  C_32
    8  A    between atoms: C_42  and  C_44
    9  A    between atoms: C_42  and  C_49
                            x       y       z     vdW  Elec       q    Type
                         _______ _______ _______ _____ _____    ______ ____

>  <TORSDO>
F 9

$$$$
