=
 OpenBabel10222422043D

 44 51  0  0  1  0  0  0  0  0999 V2000
  183.8320  171.6500  136.5110 C   0  0  0  0  0  0  0  0  0  0  0  0
  184.9170  178.2080  138.6570 C   0  0  1  0  0  3  0  0  0  0  0  0
  182.6410  173.4430  135.3010 C   0  0  0  0  0  2  0  0  0  0  0  0
  183.0380  177.0220  137.5330 C   0  0  0  0  0  0  0  0  0  0  0  0
  183.0030  170.4370  136.3640 C   0  0  0  0  0  0  0  0  0  0  0  0
  190.5900  175.4390  135.9050 C   0  0  0  0  0  3  0  0  0  0  0  0
  189.9890  176.6030  135.7480 O   0  0  0  0  0  0  0  0  0  0  0  0
  181.4220  179.6020  136.5160 O   0  0  0  0  0  0  0  0  0  0  0  0
  181.3820  171.4010  134.8320 N   0  0  0  0  0  2  0  0  0  0  0  0
  185.1190  171.5840  136.6600 N   0  0  0  0  0  0  0  0  0  0  0  0
  187.0060  173.2920  137.0940 C   0  0  0  0  0  2  0  0  0  0  0  0
  186.2690  178.2350  137.9330 C   0  0  0  0  0  2  0  0  0  0  0  0
  183.3060  173.0520  136.5990 C   0  0  2  0  0  3  0  0  0  0  0  0
  184.8080  175.2210  136.9860 C   0  0  0  0  0  0  0  0  0  0  0  0
  188.7320  176.4690  136.0740 C   0  0  0  0  0  0  0  0  0  0  0  0
  181.7380  179.9620  137.6830 C   0  0  0  0  0  0  0  0  0  0  0  0
  181.9610  170.3600  135.5850 N   0  0  0  0  0  0  0  0  0  0  0  0
  181.2800  172.7910  135.2570 C   0  0  0  0  0  2  0  0  0  0  0  0
  184.8150  179.3340  139.6780 C   0  0  1  0  0  3  0  0  0  0  0  0
  187.2140  174.7260  136.8600 N   0  0  0  0  0  0  0  0  0  0  0  0
  188.4970  175.1920  136.4500 C   0  0  0  0  0  0  0  0  0  0  0  0
  187.6720  177.5080  135.9760 C   0  0  0  0  0  2  0  0  0  0  0  0
  186.2040  175.7070  137.3110 C   0  0  1  0  0  3  0  0  0  0  0  0
  189.6770  174.4850  136.3520 C   0  0  0  0  0  3  0  0  0  0  0  0
  184.5930  173.7830  136.7780 C   0  0  0  0  0  0  0  0  0  0  0  0
  183.4660  169.1840  137.0230 C   0  0  0  0  0  1  0  0  0  0  0  0
  183.8200  176.0320  137.2200 C   0  0  0  0  0  0  0  0  0  0  0  0
  182.8530  179.3510  138.3440 N   0  0  0  0  0  0  0  0  0  0  0  0
  183.7150  178.3630  137.7180 C   0  0  1  0  0  3  0  0  0  0  0  0
  183.4080  179.9030  139.5640 C   0  0  0  0  0  2  0  0  0  0  0  0
  181.6410  176.7440  137.9760 C   0  0  0  0  0  1  0  0  0  0  0  0
  185.5840  172.9140  136.8050 C   0  0  0  0  0  0  0  0  0  0  0  0
  186.4270  177.1850  136.8220 C   0  0  1  0  0  3  0  0  0  0  0  0
  185.0960  178.8410  141.0640 C   0  0  0  0  0  0  0  0  0  0  0  0
  186.4070  178.5820  141.4940 C   0  0  0  0  0  3  0  0  0  0  0  0
  184.2640  178.1860  143.2440 C   0  0  0  0  0  3  0  0  0  0  0  0
  184.0270  178.6420  141.9440 C   0  0  0  0  0  3  0  0  0  0  0  0
  185.5700  177.9280  143.6690 C   0  0  0  0  0  3  0  0  0  0  0  0
  186.6420  178.1250  142.7930 C   0  0  0  0  0  3  0  0  0  0  0  0
  181.0060  180.9560  138.3370 O   0  0  0  0  0  0  0  0  0  0  0  0
  180.5850  182.6290  136.1510 S   0  0  0  0  0  0  0  0  0  0  0  0
  182.5250  183.2480  138.0200 O   0  0  0  0  0  0  0  0  0  0  0  0
  180.9990  182.5790  137.8070 S   0  0  2  0  0  0  0  0  0  0  0  0
  179.9920  183.3650  138.5970 O   0  0  0  0  0  1  0  0  0  0  0  0
  1 13  1  0  0  0  0
  1 10  2  0  0  0  0
  2 12  1  6  0  0  0
  2 19  1  0  0  0  0
  4 31  1  0  0  0  0
  5  1  1  0  0  0  0
  5 26  1  0  0  0  0
  6 24  2  0  0  0  0
  7  6  1  0  0  0  0
  7 15  1  0  0  0  0
  8 16  2  0  0  0  0
  9 18  1  0  0  0  0
  9 17  1  0  0  0  0
 10 32  1  0  0  0  0
 13  3  1  6  0  0  0
 13 25  1  0  0  0  0
 14 27  2  0  0  0  0
 15 21  2  0  0  0  0
 16 40  1  0  0  0  0
 16 28  1  0  0  0  0
 17  5  2  0  0  0  0
 18  3  1  0  0  0  0
 19 34  1  1  0  0  0
 20 11  1  0  0  0  0
 20 23  1  0  0  0  0
 21 20  1  0  0  0  0
 22 15  1  0  0  0  0
 23 14  1  6  0  0  0
 24 21  1  0  0  0  0
 25 32  2  0  0  0  0
 25 14  1  0  0  0  0
 27  4  2  0  0  0  0
 28 30  1  0  0  0  0
 29  4  1  1  0  0  0
 29 28  1  0  0  0  0
 29  2  1  0  0  0  0
 30 19  1  0  0  0  0
 32 11  1  0  0  0  0
 33 22  1  1  0  0  0
 33 23  1  0  0  0  0
 33 12  1  0  0  0  0
 34 35  2  0  0  0  0
 34 37  1  0  0  0  0
 35 39  1  0  0  0  0
 36 38  1  0  0  0  0
 37 36  2  0  0  0  0
 39 38  2  0  0  0  0
 43 41  2  6  0  0  0
 43 42  2  0  0  0  0
 43 40  1  0  0  0  0
 43 44  1  0  0  0  0
M  END
>  <MODEL>
1

>  <REMARK>
 VINA RESULT:      -6.3      0.000      0.000
  Name = 
  3 active torsions:
  status: ('A' for Active; 'I' for Inactive)
    1  A    between atoms: C_9  and  C_25
    2  A    between atoms: O_18  and  S_21
    3  A    between atoms: O_18  and  C_22
                            x       y       z     vdW  Elec       q    Type
                         _______ _______ _______ _____ _____    ______ ____

>  <TORSDO>
F 3

$$$$
=
 OpenBabel10222422043D

 44 51  0  0  1  0  0  0  0  0999 V2000
  187.4080  177.8340  144.4510 C   0  0  0  0  0  0  0  0  0  0  0  0
  185.9500  176.9420  137.6790 C   0  0  1  0  0  3  0  0  0  0  0  0
  188.7610  179.1140  142.8290 C   0  0  0  0  0  2  0  0  0  0  0  0
  187.9910  177.5620  138.9630 C   0  0  0  0  0  0  0  0  0  0  0  0
  188.2600  177.6590  145.6450 C   0  0  0  0  0  0  0  0  0  0  0  0
  180.8010  180.0640  141.0220 C   0  0  0  0  0  3  0  0  0  0  0  0
  181.4100  180.3090  139.8760 O   0  0  0  0  0  0  0  0  0  0  0  0
  189.7270  178.7130  136.5210 O   0  0  0  0  0  0  0  0  0  0  0  0
  190.0930  179.0550  144.8780 N   0  0  0  0  0  2  0  0  0  0  0  0
  186.1150  177.8770  144.5350 N   0  0  0  0  0  0  0  0  0  0  0  0
  184.1700  178.0140  142.8420 C   0  0  0  0  0  2  0  0  0  0  0  0
  184.7280  177.8620  137.8070 C   0  0  0  0  0  2  0  0  0  0  0  0
  187.9030  177.8880  143.0360 C   0  0  2  0  0  3  0  0  0  0  0  0
  186.3430  178.0850  140.8830 C   0  0  0  0  0  0  0  0  0  0  0  0
  182.6020  179.7750  139.9180 C   0  0  0  0  0  0  0  0  0  0  0  0
  189.2290  177.6800  135.9950 C   0  0  0  0  0  0  0  0  0  0  0  0
  189.4110  178.2470  145.8080 N   0  0  0  0  0  0  0  0  0  0  0  0
  190.1170  178.8450  143.4370 C   0  0  0  0  0  2  0  0  0  0  0  0
  185.8810  176.1090  136.4060 C   0  0  1  0  0  3  0  0  0  0  0  0
  183.9900  178.5000  141.4690 N   0  0  0  0  0  0  0  0  0  0  0  0
  182.7840  179.1710  141.1130 C   0  0  0  0  0  0  0  0  0  0  0  0
  183.6560  179.8720  138.8730 C   0  0  0  0  0  2  0  0  0  0  0  0
  184.9090  178.0590  140.3980 C   0  0  1  0  0  3  0  0  0  0  0  0
  181.6400  179.3370  141.8640 C   0  0  0  0  0  3  0  0  0  0  0  0
  186.5990  178.0280  142.3290 C   0  0  0  0  0  0  0  0  0  0  0  0
  187.7080  176.8900  146.7960 C   0  0  0  0  0  1  0  0  0  0  0  0
  187.2750  177.8320  140.0140 C   0  0  0  0  0  0  0  0  0  0  0  0
  188.0290  177.1100  136.5320 N   0  0  0  0  0  0  0  0  0  0  0  0
  187.2830  177.6990  137.6320 C   0  0  1  0  0  3  0  0  0  0  0  0
  187.2840  176.0930  135.8160 C   0  0  0  0  0  2  0  0  0  0  0  0
  189.3030  176.8710  139.1240 C   0  0  0  0  0  1  0  0  0  0  0  0
  185.6220  178.0170  143.2140 C   0  0  0  0  0  0  0  0  0  0  0  0
  184.7540  178.8030  139.0220 C   0  0  1  0  0  3  0  0  0  0  0  0
  185.3900  174.7230  136.6880 C   0  0  0  0  0  0  0  0  0  0  0  0
  186.2500  173.7340  137.1930 C   0  0  0  0  0  3  0  0  0  0  0  0
  183.5650  173.1280  136.7060 C   0  0  0  0  0  3  0  0  0  0  0  0
  184.0470  174.4140  136.4470 C   0  0  0  0  0  3  0  0  0  0  0  0
  184.4230  172.1460  137.2080 C   0  0  0  0  0  3  0  0  0  0  0  0
  185.7660  172.4490  137.4510 C   0  0  0  0  0  3  0  0  0  0  0  0
  189.8410  177.0870  134.8890 O   0  0  0  0  0  0  0  0  0  0  0  0
  190.4310  174.4200  134.3460 S   0  0  0  0  0  0  0  0  0  0  0  0
  191.3430  175.5970  136.6750 O   0  0  0  0  0  1  0  0  0  0  0  0
  191.0190  175.8610  135.0470 S   0  0  2  0  0  0  0  0  0  0  0  0
  192.2810  176.2780  134.3460 O   0  0  0  0  0  0  0  0  0  0  0  0
  1 10  2  0  0  0  0
  1  5  1  0  0  0  0
  2 12  1  6  0  0  0
  3 18  1  0  0  0  0
  4 31  1  0  0  0  0
  4 27  2  0  0  0  0
  5 17  2  0  0  0  0
  5 26  1  0  0  0  0
  6 24  2  0  0  0  0
  7 15  1  0  0  0  0
  7  6  1  0  0  0  0
  9 17  1  0  0  0  0
 11 32  1  0  0  0  0
 13  3  1  1  0  0  0
 13  1  1  0  0  0  0
 14 25  1  0  0  0  0
 15 21  2  0  0  0  0
 16  8  2  0  0  0  0
 16 28  1  0  0  0  0
 18  9  1  0  0  0  0
 19 34  1  1  0  0  0
 19  2  1  0  0  0  0
 20 11  1  0  0  0  0
 21 20  1  0  0  0  0
 21 24  1  0  0  0  0
 22 33  1  0  0  0  0
 22 15  1  0  0  0  0
 23 14  1  1  0  0  0
 23 20  1  0  0  0  0
 25 13  1  0  0  0  0
 25 32  2  0  0  0  0
 27 14  2  0  0  0  0
 28 29  1  0  0  0  0
 29  2  1  0  0  0  0
 29  4  1  1  0  0  0
 30 19  1  0  0  0  0
 30 28  1  0  0  0  0
 32 10  1  0  0  0  0
 33 12  1  6  0  0  0
 33 23  1  0  0  0  0
 34 35  1  0  0  0  0
 35 39  2  0  0  0  0
 36 38  2  0  0  0  0
 37 34  2  0  0  0  0
 37 36  1  0  0  0  0
 38 39  1  0  0  0  0
 40 43  1  0  0  0  0
 40 16  1  0  0  0  0
 41 43  2  0  0  0  0
 43 44  2  6  0  0  0
 43 42  1  0  0  0  0
M  END
>  <MODEL>
2

>  <REMARK>
 VINA RESULT:      -6.0      3.991      9.169
  Name = 
  3 active torsions:
  status: ('A' for Active; 'I' for Inactive)
    1  A    between atoms: C_9  and  C_25
    2  A    between atoms: O_18  and  S_21
    3  A    between atoms: O_18  and  C_22
                            x       y       z     vdW  Elec       q    Type
                         _______ _______ _______ _____ _____    ______ ____

>  <TORSDO>
F 3

$$$$
=
 OpenBabel10222422043D

 44 51  0  0  1  0  0  0  0  0999 V2000
  194.6830  170.3240  136.7610 C   0  0  0  0  0  0  0  0  0  0  0  0
  190.3420  175.7960  136.7830 C   0  0  1  0  0  3  0  0  0  0  0  0
  192.8560  170.3190  135.1000 C   0  0  0  0  0  2  0  0  0  0  0  0
  190.1380  173.4030  136.1280 C   0  0  0  0  0  0  0  0  0  0  0  0
  195.0100  168.9060  137.0140 C   0  0  0  0  0  0  0  0  0  0  0  0
  196.7030  177.5760  134.8310 C   0  0  0  0  0  3  0  0  0  0  0  0
  195.5050  177.8420  134.3460 O   0  0  0  0  0  0  0  0  0  0  0  0
  187.4270  173.6310  134.4250 O   0  0  0  0  0  0  0  0  0  0  0  0
  193.5430  167.9830  135.3110 N   0  0  0  0  0  2  0  0  0  0  0  0
  195.5710  171.2620  136.8840 N   0  0  0  0  0  0  0  0  0  0  0  0
  195.5520  173.8390  136.7220 C   0  0  0  0  0  2  0  0  0  0  0  0
  191.3870  176.6440  136.0440 C   0  0  0  0  0  2  0  0  0  0  0  0
  193.3180  170.8530  136.4350 C   0  0  2  0  0  3  0  0  0  0  0  0
  192.7220  173.4300  136.1000 C   0  0  0  0  0  0  0  0  0  0  0  0
  194.6810  176.9060  134.7350 C   0  0  0  0  0  0  0  0  0  0  0  0
  187.1480  174.3580  135.4180 C   0  0  0  0  0  0  0  0  0  0  0  0
  194.5180  167.9150  136.3260 N   0  0  0  0  0  0  0  0  0  0  0  0
  192.4050  168.8920  135.2970 C   0  0  0  0  0  2  0  0  0  0  0  0
  189.2690  176.6720  137.4160 C   0  0  1  0  0  3  0  0  0  0  0  0
  194.7270  174.8550  136.0580 N   0  0  0  0  0  0  0  0  0  0  0  0
  195.3490  176.0020  135.4880 C   0  0  0  0  0  0  0  0  0  0  0  0
  193.2500  176.7680  134.3580 C   0  0  0  0  0  2  0  0  0  0  0  0
  193.2570  174.8400  136.2210 C   0  0  1  0  0  3  0  0  0  0  0  0
  196.6680  176.3970  135.5730 C   0  0  0  0  0  3  0  0  0  0  0  0
  193.6360  172.3060  136.3450 C   0  0  0  0  0  0  0  0  0  0  0  0
  196.0750  168.5960  138.0070 C   0  0  0  0  0  1  0  0  0  0  0  0
  191.4320  173.2750  136.1070 C   0  0  0  0  0  0  0  0  0  0  0  0
  188.2000  174.9380  136.2000 N   0  0  0  0  0  0  0  0  0  0  0  0
  189.6110  174.7990  135.8770 C   0  0  1  0  0  3  0  0  0  0  0  0
  187.9370  175.9750  137.1780 C   0  0  0  0  0  2  0  0  0  0  0  0
  189.2990  172.2980  136.6770 C   0  0  0  0  0  1  0  0  0  0  0  0
  194.9160  172.4860  136.6040 C   0  0  0  0  0  0  0  0  0  0  0  0
  192.4630  175.8370  135.3000 C   0  0  1  0  0  3  0  0  0  0  0  0
  189.5250  176.8770  138.8770 C   0  0  0  0  0  0  0  0  0  0  0  0
  190.7250  176.4560  139.4730 C   0  0  0  0  0  3  0  0  0  0  0  0
  188.7670  177.7130  141.0220 C   0  0  0  0  0  3  0  0  0  0  0  0
  188.5490  177.5060  139.6570 C   0  0  0  0  0  3  0  0  0  0  0  0
  189.9620  177.2920  141.6130 C   0  0  0  0  0  3  0  0  0  0  0  0
  190.9410  176.6630  140.8380 C   0  0  0  0  0  3  0  0  0  0  0  0
  185.8170  174.6030  135.7610 O   0  0  0  0  0  0  0  0  0  0  0  0
  184.2960  172.2740  135.8690 S   0  0  0  0  0  0  0  0  0  0  0  0
  183.6740  174.4150  137.5030 O   0  0  0  0  0  0  0  0  0  0  0  0
  184.9340  173.5630  136.7870 S   0  0  2  0  0  0  0  0  0  0  0  0
  185.8390  173.0170  137.8540 O   0  0  0  0  0  1  0  0  0  0  0  0
  1 10  2  0  0  0  0
  1  5  1  0  0  0  0
  2 12  1  6  0  0  0
  2 19  1  0  0  0  0
  3 18  1  0  0  0  0
  4 31  1  0  0  0  0
  5 26  1  0  0  0  0
  6 24  2  0  0  0  0
  7 15  1  0  0  0  0
  7  6  1  0  0  0  0
  8 16  2  0  0  0  0
  9 17  1  0  0  0  0
 13  3  1  6  0  0  0
 13  1  1  0  0  0  0
 14 27  2  0  0  0  0
 14 25  1  0  0  0  0
 15 21  2  0  0  0  0
 16 40  1  0  0  0  0
 16 28  1  0  0  0  0
 17  5  2  0  0  0  0
 18  9  1  0  0  0  0
 19 34  1  1  0  0  0
 20 23  1  0  0  0  0
 20 11  1  0  0  0  0
 21 24  1  0  0  0  0
 21 20  1  0  0  0  0
 22 15  1  0  0  0  0
 23 14  1  6  0  0  0
 25 13  1  0  0  0  0
 25 32  2  0  0  0  0
 27  4  2  0  0  0  0
 28 30  1  0  0  0  0
 29  4  1  1  0  0  0
 29 28  1  0  0  0  0
 29  2  1  0  0  0  0
 30 19  1  0  0  0  0
 32 11  1  0  0  0  0
 32 10  1  0  0  0  0
 33 22  1  1  0  0  0
 33 12  1  0  0  0  0
 33 23  1  0  0  0  0
 34 35  2  0  0  0  0
 34 37  1  0  0  0  0
 35 39  1  0  0  0  0
 36 38  1  0  0  0  0
 37 36  2  0  0  0  0
 39 38  2  0  0  0  0
 40 43  1  0  0  0  0
 43 41  2  6  0  0  0
 43 42  2  0  0  0  0
 43 44  1  0  0  0  0
M  END
>  <MODEL>
3

>  <REMARK>
 VINA RESULT:      -5.8      5.412      8.527
  Name = 
  3 active torsions:
  status: ('A' for Active; 'I' for Inactive)
    1  A    between atoms: C_9  and  C_25
    2  A    between atoms: O_18  and  S_21
    3  A    between atoms: O_18  and  C_22
                            x       y       z     vdW  Elec       q    Type
                         _______ _______ _______ _____ _____    ______ ____

>  <TORSDO>
F 3

$$$$
=
 OpenBabel10222422043D

 44 51  0  0  1  0  0  0  0  0999 V2000
  187.2670  170.9110  135.6020 C   0  0  0  0  0  0  0  0  0  0  0  0
  187.6300  177.3190  138.3560 C   0  0  1  0  0  3  0  0  0  0  0  0
  185.5850  172.5570  134.8520 C   0  0  0  0  0  2  0  0  0  0  0  0
  185.7970  175.9160  137.4250 C   0  0  0  0  0  0  0  0  0  0  0  0
  186.6390  169.5830  135.4430 C   0  0  0  0  0  0  0  0  0  0  0  0
  193.0580  175.9390  134.3490 C   0  0  0  0  0  3  0  0  0  0  0  0
  192.2530  176.9800  134.4460 O   0  0  0  0  0  0  0  0  0  0  0  0
  183.6100  178.2330  137.0370 O   0  0  0  0  0  0  0  0  0  0  0  0
  184.6190  170.3690  134.3460 N   0  0  0  0  0  2  0  0  0  0  0  0
  188.5510  171.0730  135.5210 N   0  0  0  0  0  0  0  0  0  0  0  0
  190.1750  173.0550  135.8430 C   0  0  0  0  0  2  0  0  0  0  0  0
  188.7970  177.6690  137.4220 C   0  0  0  0  0  2  0  0  0  0  0  0
  186.5410  172.1740  135.9580 C   0  0  2  0  0  3  0  0  0  0  0  0
  187.7060  174.5390  136.3590 C   0  0  0  0  0  0  0  0  0  0  0  0
  191.1200  176.5820  134.9620 C   0  0  0  0  0  0  0  0  0  0  0  0
  184.0770  178.5320  138.1700 C   0  0  0  0  0  0  0  0  0  0  0  0
  185.4960  169.3880  134.8490 N   0  0  0  0  0  0  0  0  0  0  0  0
  184.3700  171.6680  134.9560 C   0  0  0  0  0  2  0  0  0  0  0  0
  187.5390  178.3030  139.5150 C   0  0  1  0  0  3  0  0  0  0  0  0
  190.0930  174.5180  135.7630 N   0  0  0  0  0  0  0  0  0  0  0  0
  191.1780  175.2530  135.2050 C   0  0  0  0  0  0  0  0  0  0  0  0
  189.9040  177.4080  135.1790 C   0  0  0  0  0  2  0  0  0  0  0  0
  189.0370  175.2440  136.5020 C   0  0  1  0  0  3  0  0  0  0  0  0
  192.4190  174.7930  134.8180 C   0  0  0  0  0  3  0  0  0  0  0  0
  187.6980  173.1130  136.0070 C   0  0  0  0  0  0  0  0  0  0  0  0
  187.4210  168.3820  135.8470 C   0  0  0  0  0  1  0  0  0  0  0  0
  186.6590  175.1250  136.8590 C   0  0  0  0  0  0  0  0  0  0  0  0
  185.3830  178.0800  138.5480 N   0  0  0  0  0  0  0  0  0  0  0  0
  186.2640  177.3360  137.6620 C   0  0  1  0  0  3  0  0  0  0  0  0
  186.0610  178.6070  139.7170 C   0  0  0  0  0  2  0  0  0  0  0  0
  184.5760  175.3400  138.0590 C   0  0  0  0  0  1  0  0  0  0  0  0
  188.8070  172.4470  135.7540 C   0  0  0  0  0  0  0  0  0  0  0  0
  188.9140  176.7780  136.1760 C   0  0  1  0  0  3  0  0  0  0  0  0
  188.1550  177.7410  140.7580 C   0  0  0  0  0  0  0  0  0  0  0  0
  189.4460  177.1870  140.7450 C   0  0  0  0  0  3  0  0  0  0  0  0
  187.9860  177.2610  143.1280 C   0  0  0  0  0  3  0  0  0  0  0  0
  187.4300  177.7760  141.9540 C   0  0  0  0  0  3  0  0  0  0  0  0
  189.2700  176.7090  143.1120 C   0  0  0  0  0  3  0  0  0  0  0  0
  190.0000  176.6720  141.9200 C   0  0  0  0  0  3  0  0  0  0  0  0
  183.3280  179.3040  139.0600 O   0  0  0  0  0  0  0  0  0  0  0  0
  180.8560  179.4620  140.3320 S   0  0  0  0  0  0  0  0  0  0  0  0
  183.0990  178.6860  141.7480 O   0  0  0  0  0  1  0  0  0  0  0  0
  182.3300  178.6050  140.2560 S   0  0  2  0  0  0  0  0  0  0  0  0
  182.0560  177.1690  139.9110 O   0  0  0  0  0  0  0  0  0  0  0  0
  1 13  1  0  0  0  0
  2 12  1  6  0  0  0
  2 19  1  0  0  0  0
  3 18  1  0  0  0  0
  4 31  1  0  0  0  0
  5  1  1  0  0  0  0
  5 26  1  0  0  0  0
  6  7  1  0  0  0  0
  6 24  2  0  0  0  0
  7 15  1  0  0  0  0
  8 16  2  0  0  0  0
  9 17  1  0  0  0  0
  9 18  1  0  0  0  0
 10  1  2  0  0  0  0
 10 32  1  0  0  0  0
 13  3  1  6  0  0  0
 13 25  1  0  0  0  0
 14 27  2  0  0  0  0
 15 22  1  0  0  0  0
 15 21  2  0  0  0  0
 16 28  1  0  0  0  0
 16 40  1  0  0  0  0
 17  5  2  0  0  0  0
 19 30  1  0  0  0  0
 19 34  1  1  0  0  0
 20 11  1  0  0  0  0
 20 23  1  0  0  0  0
 21 20  1  0  0  0  0
 23 14  1  6  0  0  0
 24 21  1  0  0  0  0
 25 14  1  0  0  0  0
 27  4  2  0  0  0  0
 28 30  1  0  0  0  0
 29  4  1  1  0  0  0
 29  2  1  0  0  0  0
 29 28  1  0  0  0  0
 32 11  1  0  0  0  0
 32 25  2  0  0  0  0
 33 22  1  1  0  0  0
 33 23  1  0  0  0  0
 33 12  1  0  0  0  0
 34 37  1  0  0  0  0
 35 34  2  0  0  0  0
 35 39  1  0  0  0  0
 37 36  2  0  0  0  0
 38 36  1  0  0  0  0
 39 38  2  0  0  0  0
 40 43  1  0  0  0  0
 43 44  2  6  0  0  0
 43 41  2  0  0  0  0
 43 42  1  0  0  0  0
M  END
>  <MODEL>
4

>  <REMARK>
 VINA RESULT:      -5.5      2.544      3.510
  Name = 
  3 active torsions:
  status: ('A' for Active; 'I' for Inactive)
    1  A    between atoms: C_9  and  C_25
    2  A    between atoms: O_18  and  S_21
    3  A    between atoms: O_18  and  C_22
                            x       y       z     vdW  Elec       q    Type
                         _______ _______ _______ _____ _____    ______ ____

>  <TORSDO>
F 3

$$$$
=
 OpenBabel10222422043D

 44 51  0  0  1  0  0  0  0  0999 V2000
  189.1940  175.9850  135.9230 C   0  0  0  0  0  0  0  0  0  0  0  0
  182.6190  177.1030  138.0000 C   0  0  1  0  0  3  0  0  0  0  0  0
  188.7630  175.9750  138.3550 C   0  0  0  0  0  2  0  0  0  0  0  0
  184.8630  177.4970  139.0040 C   0  0  0  0  0  0  0  0  0  0  0  0
  190.6050  176.3870  135.7590 C   0  0  0  0  0  0  0  0  0  0  0  0
  183.2660  171.1260  134.6410 C   0  0  0  0  0  3  0  0  0  0  0  0
  182.6680  171.4650  135.7680 O   0  0  0  0  0  0  0  0  0  0  0  0
  183.9250  177.9500  142.0400 O   0  0  0  0  0  0  0  0  0  0  0  0
  191.1600  176.3970  138.1240 N   0  0  0  0  0  2  0  0  0  0  0  0
  188.5960  175.2210  135.0610 N   0  0  0  0  0  0  0  0  0  0  0  0
  186.1910  174.3350  134.7510 C   0  0  0  0  0  2  0  0  0  0  0  0
  182.2480  175.6560  137.6470 C   0  0  0  0  0  2  0  0  0  0  0  0
  188.2780  176.4640  137.0100 C   0  0  2  0  0  3  0  0  0  0  0  0
  185.6990  175.8220  137.2230 C   0  0  0  0  0  0  0  0  0  0  0  0
  183.2330  172.5500  136.2260 C   0  0  0  0  0  0  0  0  0  0  0  0
  183.0480  178.6100  141.4170 C   0  0  0  0  0  0  0  0  0  0  0  0
  191.4420  176.5150  136.7490 N   0  0  0  0  0  0  0  0  0  0  0  0
  189.9310  176.8360  138.7720 C   0  0  0  0  0  2  0  0  0  0  0  0
  181.3760  177.9680  138.1560 C   0  0  1  0  0  3  0  0  0  0  0  0
  185.0330  174.0810  135.6170 N   0  0  0  0  0  0  0  0  0  0  0  0
  184.2230  172.9320  135.3890 C   0  0  0  0  0  0  0  0  0  0  0  0
  182.9250  173.2380  137.5080 C   0  0  0  0  0  2  0  0  0  0  0  0
  184.5420  175.1380  136.5280 C   0  0  1  0  0  3  0  0  0  0  0  0
  184.2830  172.0320  134.3460 C   0  0  0  0  0  3  0  0  0  0  0  0
  187.0310  175.7550  136.6070 C   0  0  0  0  0  0  0  0  0  0  0  0
  191.1470  176.5050  134.3770 C   0  0  0  0  0  1  0  0  0  0  0  0
  185.4150  176.6970  138.1410 C   0  0  0  0  0  0  0  0  0  0  0  0
  182.7730  178.3160  140.0420 N   0  0  0  0  0  0  0  0  0  0  0  0
  183.4050  177.2310  139.3100 C   0  0  1  0  0  3  0  0  0  0  0  0
  181.6120  178.8610  139.3660 C   0  0  0  0  0  2  0  0  0  0  0  0
  185.5630  178.7560  139.3910 C   0  0  0  0  0  1  0  0  0  0  0  0
  187.2600  175.0680  135.5050 C   0  0  0  0  0  0  0  0  0  0  0  0
  183.4380  174.6890  137.5550 C   0  0  1  0  0  3  0  0  0  0  0  0
  181.1170  178.7770  136.9230 C   0  0  0  0  0  0  0  0  0  0  0  0
  181.3230  178.2390  135.6420 C   0  0  0  0  0  3  0  0  0  0  0  0
  180.4040  180.8650  135.9180 C   0  0  0  0  0  3  0  0  0  0  0  0
  180.6560  180.0910  137.0550 C   0  0  0  0  0  3  0  0  0  0  0  0
  180.6100  180.3270  134.6450 C   0  0  0  0  0  3  0  0  0  0  0  0
  181.0700  179.0140  134.5070 C   0  0  0  0  0  3  0  0  0  0  0  0
  182.3400  179.6260  142.0620 O   0  0  0  0  0  0  0  0  0  0  0  0
  180.1660  177.9510  142.5260 S   0  0  0  0  0  0  0  0  0  0  0  0
  180.0100  180.6360  143.1610 O   0  0  0  0  0  0  0  0  0  0  0  0
  181.0300  179.3030  143.1080 S   0  0  2  0  0  0  0  0  0  0  0  0
  181.5450  179.0100  144.4880 O   0  0  0  0  0  1  0  0  0  0  0  0
  1 13  1  0  0  0  0
  2 12  1  1  0  0  0
  2 19  1  0  0  0  0
  2 29  1  0  0  0  0
  3 18  1  0  0  0  0
  4 31  1  0  0  0  0
  5  1  1  0  0  0  0
  5 17  2  0  0  0  0
  6  7  1  0  0  0  0
  7 15  1  0  0  0  0
  9 18  1  0  0  0  0
 10 32  1  0  0  0  0
 10  1  2  0  0  0  0
 11 32  1  0  0  0  0
 11 20  1  0  0  0  0
 13  3  1  1  0  0  0
 14 27  2  0  0  0  0
 15 22  1  0  0  0  0
 16  8  2  0  0  0  0
 16 40  1  0  0  0  0
 17  9  1  0  0  0  0
 19 34  1  6  0  0  0
 19 30  1  0  0  0  0
 20 23  1  0  0  0  0
 21 20  1  0  0  0  0
 21 15  2  0  0  0  0
 23 14  1  1  0  0  0
 23 33  1  0  0  0  0
 24  6  2  0  0  0  0
 24 21  1  0  0  0  0
 25 13  1  0  0  0  0
 25 14  1  0  0  0  0
 26  5  1  0  0  0  0
 27  4  2  0  0  0  0
 28 16  1  0  0  0  0
 29  4  1  6  0  0  0
 29 28  1  0  0  0  0
 30 28  1  0  0  0  0
 32 25  2  0  0  0  0
 33 22  1  6  0  0  0
 33 12  1  0  0  0  0
 34 37  1  0  0  0  0
 35 34  2  0  0  0  0
 36 37  2  0  0  0  0
 38 36  1  0  0  0  0
 39 38  2  0  0  0  0
 39 35  1  0  0  0  0
 40 43  1  0  0  0  0
 43 41  2  6  0  0  0
 43 42  2  0  0  0  0
 43 44  1  0  0  0  0
M  END
>  <MODEL>
5

>  <REMARK>
 VINA RESULT:      -4.8      3.179      6.540
  Name = 
  3 active torsions:
  status: ('A' for Active; 'I' for Inactive)
    1  A    between atoms: C_9  and  C_25
    2  A    between atoms: O_18  and  S_21
    3  A    between atoms: O_18  and  C_22
                            x       y       z     vdW  Elec       q    Type
                         _______ _______ _______ _____ _____    ______ ____

>  <TORSDO>
F 3

$$$$
