=
 OpenBabel10232411173D

 50 54  0  0  1  0  0  0  0  0999 V2000
  184.2190  178.1470  138.8160 C   0  0  0  0  0  0  0  0  0  0  0  0
  182.5180  176.9670  138.0570 N   0  0  0  0  0  0  0  0  0  0  0  0
  182.8450  178.0470  138.7870 C   0  0  0  0  0  0  0  0  0  0  0  0
  183.6680  176.4450  137.6580 N   0  0  0  0  0  0  0  0  0  0  0  0
  184.7210  177.1210  138.1070 N   0  0  0  0  0  0  0  0  0  0  0  0
  181.1290  179.6210  139.9330 N   0  0  0  0  0  0  0  0  0  0  0  0
  181.8950  178.9210  139.4220 C   0  0  0  0  0  0  0  0  0  0  0  0
  183.7500  175.2000  136.8970 C   0  0  1  0  0  3  0  0  0  0  0  0
  182.6560  174.1520  134.9060 C   0  0  0  0  0  1  0  0  0  0  0  0
  183.3580  175.3880  135.4350 C   0  0  0  0  0  2  0  0  0  0  0  0
  185.1210  174.5470  137.0650 C   0  0  0  0  0  2  0  0  0  0  0  0
  186.0220  174.7450  135.8550 C   0  0  0  0  0  2  0  0  0  0  0  0
  189.6290  174.0940  137.1560 N   0  0  0  0  0  0  0  0  0  0  0  0
  188.3800  174.3200  136.6060 C   0  0  0  0  0  0  0  0  0  0  0  0
  188.9190  173.0910  136.5370 N   0  0  0  0  0  0  0  0  0  0  0  0
  187.3210  175.2220  136.2990 N   0  0  0  0  0  2  0  0  0  0  0  0
  190.7620  174.5470  137.8440 N   0  0  0  0  0  2  0  0  0  0  0  0
  191.8980  174.4290  136.9420 C   0  0  0  0  0  2  0  0  0  0  0  0
  196.4480  173.7480  136.8830 N   0  0  0  0  0  2  0  0  0  0  0  0
  193.8410  175.9610  136.6180 C   0  0  0  0  0  2  0  0  0  0  0  0
  195.2170  175.5530  136.7380 N   0  0  2  0  0  0  0  0  0  0  0  0
  196.1780  175.8020  135.7000 C   0  0  0  0  0  2  0  0  0  0  0  0
  193.1550  174.9900  137.5910 C   0  0  2  0  0  3  0  0  0  0  0  0
  194.2120  173.8890  137.7840 C   0  0  0  0  0  2  0  0  0  0  0  0
  195.1290  174.1730  136.7050 N   0  0  2  0  0  0  0  0  0  0  0  0
  197.1660  174.6630  135.9820 C   0  0  0  0  0  2  0  0  0  0  0  0
  185.0440  179.1620  139.5260 C   0  0  0  0  0  2  0  0  0  0  0  0
  185.8760  178.5150  140.5230 N   0  0  0  0  0  2  0  0  0  0  0  0
  185.6960  179.2610  141.7600 C   0  0  0  0  0  2  0  0  0  0  0  0
  184.9330  178.4400  142.7980 C   0  0  1  0  0  3  0  0  0  0  0  0
  185.5390  178.5570  144.1870 C   0  0  1  0  0  3  0  0  0  0  0  0
  184.3690  178.4950  145.1380 C   0  0  0  0  0  2  0  0  0  0  0  0
  183.2120  179.1130  144.3850 C   0  0  0  0  0  2  0  0  0  0  0  0
  183.4790  178.8770  142.9090 C   0  0  0  0  0  2  0  0  0  0  0  0
  186.5030  177.4150  144.4660 C   0  0  0  0  0  2  0  0  0  0  0  0
  187.7670  177.9500  144.9390 N   0  0  0  0  0  2  0  0  0  0  0  0
  188.0140  177.3790  146.2550 C   0  0  0  0  0  2  0  0  0  0  0  0
  189.3740  177.8280  146.7970 C   0  0  1  0  0  3  0  0  0  0  0  0
  189.3070  177.9550  148.1850 O   0  0  0  0  0  0  0  0  0  0  0  0
  187.9870  177.6420  148.5090 C   0  0  0  0  0  1  0  0  0  0  0  0
  190.5400  176.8990  146.4080 C   0  0  2  0  0  3  0  0  0  0  0  0
  191.4190  176.5700  147.6050 C   0  0  0  0  0  2  0  0  0  0  0  0
  192.4150  175.4850  147.2470 C   0  0  0  0  0  1  0  0  0  0  0  0
  191.3950  177.4570  145.2760 C   0  0  0  0  0  2  0  0  0  0  0  0
  191.2220  176.6540  144.0760 N   0  0  0  0  0  2  0  0  0  0  0  0
  191.1680  178.9870  143.4120 C   0  0  0  0  0  1  0  0  0  0  0  0
  191.3070  177.5550  142.9380 C   0  0  2  0  0  3  0  0  0  0  0  0
  190.4290  176.2150  141.0230 O   0  0  0  0  0  0  0  0  0  0  0  0
  190.2350  177.2390  141.9450 C   0  0  0  0  0  0  0  0  0  0  0  0
  189.1740  177.9160  141.9110 O   0  0  0  0  0  1  0  0  0  0  0  0
  1 27  1  0  0  0  0
  2  3  2  0  0  0  0
  3  1  1  0  0  0  0
  3  7  1  0  0  0  0
  4  2  1  0  0  0  0
  4  5  1  0  0  0  0
  5  1  2  0  0  0  0
  7  6  3  0  0  0  0
  8 10  1  6  0  0  0
  8 11  1  0  0  0  0
  8  4  1  0  0  0  0
  9 10  1  0  0  0  0
 12 16  1  0  0  0  0
 12 11  1  0  0  0  0
 13 17  1  0  0  0  0
 14 13  1  0  0  0  0
 15 14  2  0  0  0  0
 15 13  1  0  0  0  0
 16 14  1  0  0  0  0
 18 17  1  0  0  0  0
 20 21  1  0  0  0  0
 20 23  1  0  0  0  0
 21 22  1  6  0  0  0
 22 26  1  0  0  0  0
 23 18  1  6  0  0  0
 23 24  1  0  0  0  0
 25 21  1  0  0  0  0
 25 19  1  0  0  0  0
 25 24  1  1  0  0  0
 26 19  1  0  0  0  0
 27 28  1  0  0  0  0
 28 29  1  0  0  0  0
 30 29  1  6  0  0  0
 30 34  1  0  0  0  0
 30 31  1  0  0  0  0
 31 35  1  1  0  0  0
 31 32  1  0  0  0  0
 33 32  1  0  0  0  0
 34 33  1  0  0  0  0
 35 36  1  0  0  0  0
 36 37  1  0  0  0  0
 38 37  1  1  0  0  0
 38 39  1  0  0  0  0
 39 40  1  0  0  0  0
 41 44  1  6  0  0  0
 41 38  1  0  0  0  0
 41 42  1  0  0  0  0
 43 42  1  0  0  0  0
 45 44  1  0  0  0  0
 47 46  1  1  0  0  0
 47 45  1  0  0  0  0
 48 49  2  0  0  0  0
 49 47  1  0  0  0  0
 50 49  1  0  0  0  0
M  END
>  <MODEL>
1

>  <REMARK>
 VINA RESULT:      -6.7      0.000      0.000
  Name = 
  24 active torsions:
  status: ('A' for Active; 'I' for Inactive)
    1  A    between atoms: O_2  and  C_16
    2  A    between atoms: N_5  and  CA_17
    3  A    between atoms: N_5  and  C_46
    4  A    between atoms: N_6  and  C_23
    5  A    between atoms: N_6  and  C_31
    6  A    between atoms: N_7  and  N_45
    7  A    between atoms: C_9  and  C_49
    8  A    between atoms: C_14  and  CA_17
    9  A    between atoms: C_16  and  C_23
   10  A    between atoms: C_16  and  C_47
   11  A    between atoms: C_19  and  C_22
   12  A    between atoms: N_20  and  C_22
   13  A    between atoms: N_20  and  C_49
   14  A    between atoms: C_24  and  C_47
   15  A    between atoms: C_25  and  C_34
   16  A    between atoms: C_25  and  N_41
   17  A    between atoms: C_28  and  C_32
   18  A    between atoms: C_29  and  C_38
   19  A    between atoms: C_30  and  C_31
   20  A    between atoms: C_32  and  N_45
   21  A    between atoms: C_33  and  C_35
   22  A    between atoms: C_34  and  C_35
   23  A    between atoms: C_35  and  N_48
   24  A    between atoms: C_46  and  C_47
                            x       y       z     vdW  Elec       q    Type
                         _______ _______ _______ _____ _____    ______ ____

>  <TORSDO>
F 24

$$$$
=
 OpenBabel10232411173D

 50 54  0  0  1  0  0  0  0  0999 V2000
  187.3980  177.7030  145.6130 C   0  0  0  0  0  0  0  0  0  0  0  0
  189.5880  177.6050  145.8580 N   0  0  0  0  0  0  0  0  0  0  0  0
  188.4310  177.7710  146.5230 C   0  0  0  0  0  0  0  0  0  0  0  0
  189.2480  177.4350  144.5890 N   0  0  0  0  0  0  0  0  0  0  0  0
  187.9340  177.5010  144.3970 N   0  0  0  0  0  0  0  0  0  0  0  0
  188.2480  178.1640  149.0810 N   0  0  0  0  0  0  0  0  0  0  0  0
  188.3290  177.9900  147.9400 C   0  0  0  0  0  0  0  0  0  0  0  0
  190.2320  177.2970  143.5180 C   0  0  1  0  0  3  0  0  0  0  0  0
  191.8540  175.4440  143.9610 C   0  0  0  0  0  1  0  0  0  0  0  0
  191.6180  176.9400  144.0470 C   0  0  0  0  0  2  0  0  0  0  0  0
  189.7390  176.3290  142.4440 C   0  0  0  0  0  2  0  0  0  0  0  0
  189.3110  177.0330  141.1650 C   0  0  0  0  0  2  0  0  0  0  0  0
  192.0510  176.3860  138.4820 N   0  0  0  0  0  0  0  0  0  0  0  0
  191.0230  176.6540  139.3680 C   0  0  0  0  0  0  0  0  0  0  0  0
  190.8820  175.6600  138.4750 N   0  0  0  0  0  0  0  0  0  0  0  0
  190.4930  177.4460  140.4270 N   0  0  0  0  0  2  0  0  0  0  0  0
  193.3320  176.6480  137.9790 N   0  0  0  0  0  2  0  0  0  0  0  0
  193.4090  176.0600  136.6490 C   0  0  0  0  0  2  0  0  0  0  0  0
  197.8870  175.0700  137.0190 N   0  0  0  0  0  2  0  0  0  0  0  0
  194.6850  174.4890  138.1080 C   0  0  0  0  0  2  0  0  0  0  0  0
  196.1020  174.2540  137.9930 N   0  0  2  0  0  0  0  0  0  0  0  0
  196.9870  174.3730  139.1160 C   0  0  0  0  0  2  0  0  0  0  0  0
  194.3220  174.8430  136.6580 C   0  0  2  0  0  3  0  0  0  0  0  0
  195.6860  175.1750  136.0300 C   0  0  0  0  0  2  0  0  0  0  0  0
  196.5220  175.3080  137.2000 N   0  0  2  0  0  0  0  0  0  0  0  0
  198.2950  174.7030  138.3850 C   0  0  0  0  0  2  0  0  0  0  0  0
  185.9420  177.8630  145.8750 C   0  0  0  0  0  2  0  0  0  0  0  0
  185.3990  178.9130  145.0320 N   0  0  0  0  0  2  0  0  0  0  0  0
  184.9890  178.2750  143.7890 C   0  0  0  0  0  2  0  0  0  0  0  0
  183.9060  179.0870  143.0810 C   0  0  1  0  0  3  0  0  0  0  0  0
  183.4230  178.4160  141.8040 C   0  0  1  0  0  3  0  0  0  0  0  0
  181.9550  178.7520  141.7090 C   0  0  0  0  0  2  0  0  0  0  0  0
  181.4800  178.8670  143.1400 C   0  0  0  0  0  2  0  0  0  0  0  0
  182.6830  179.2920  143.9640 C   0  0  0  0  0  2  0  0  0  0  0  0
  184.1630  178.9490  140.5880 C   0  0  0  0  0  2  0  0  0  0  0  0
  183.3570  178.7390  139.3980 N   0  0  0  0  0  2  0  0  0  0  0  0
  183.5320  177.3500  138.9960 C   0  0  0  0  0  2  0  0  0  0  0  0
  184.1860  177.2620  137.6150 C   0  0  1  0  0  3  0  0  0  0  0  0
  185.5720  177.3730  137.7430 O   0  0  0  0  0  0  0  0  0  0  0  0
  186.0610  177.2440  136.4430 C   0  0  0  0  0  1  0  0  0  0  0  0
  183.8300  175.9810  136.8350 C   0  0  2  0  0  3  0  0  0  0  0  0
  182.6560  176.2040  135.8950 C   0  0  0  0  0  2  0  0  0  0  0  0
  183.0670  175.9330  134.4620 C   0  0  0  0  0  1  0  0  0  0  0  0
  183.5480  174.7900  137.7440 C   0  0  0  0  0  2  0  0  0  0  0  0
  184.6510  173.8450  137.6880 N   0  0  0  0  0  2  0  0  0  0  0  0
  183.6470  171.7400  137.0190 C   0  0  0  0  0  1  0  0  0  0  0  0
  184.4100  172.9650  136.5560 C   0  0  2  0  0  3  0  0  0  0  0  0
  186.7310  173.4850  135.7980 O   0  0  0  0  0  1  0  0  0  0  0  0
  185.7050  172.5550  135.9320 C   0  0  0  0  0  0  0  0  0  0  0  0
  185.8630  171.3850  135.4930 O   0  0  0  0  0  0  0  0  0  0  0  0
  1 27  1  0  0  0  0
  1  3  1  0  0  0  0
  2  3  2  0  0  0  0
  3  7  1  0  0  0  0
  4  2  1  0  0  0  0
  5  4  1  0  0  0  0
  5  1  2  0  0  0  0
  7  6  3  0  0  0  0
  8 11  1  6  0  0  0
  8 10  1  0  0  0  0
  8  4  1  0  0  0  0
  9 10  1  0  0  0  0
 12 11  1  0  0  0  0
 13 14  1  0  0  0  0
 14 16  1  0  0  0  0
 15 13  1  0  0  0  0
 15 14  2  0  0  0  0
 16 12  1  0  0  0  0
 17 13  1  0  0  0  0
 18 17  1  0  0  0  0
 19 25  1  0  0  0  0
 19 26  1  0  0  0  0
 21 20  1  1  0  0  0
 21 22  1  0  0  0  0
 23 18  1  1  0  0  0
 23 20  1  0  0  0  0
 24 23  1  0  0  0  0
 25 24  1  6  0  0  0
 25 21  1  0  0  0  0
 26 22  1  0  0  0  0
 28 27  1  0  0  0  0
 29 28  1  0  0  0  0
 30 29  1  1  0  0  0
 30 34  1  0  0  0  0
 31 35  1  6  0  0  0
 31 30  1  0  0  0  0
 32 31  1  0  0  0  0
 32 33  1  0  0  0  0
 33 34  1  0  0  0  0
 36 35  1  0  0  0  0
 37 36  1  0  0  0  0
 38 39  1  0  0  0  0
 38 37  1  1  0  0  0
 40 39  1  0  0  0  0
 41 42  1  1  0  0  0
 41 38  1  0  0  0  0
 41 44  1  0  0  0  0
 43 42  1  0  0  0  0
 45 44  1  0  0  0  0
 47 46  1  1  0  0  0
 47 45  1  0  0  0  0
 48 49  1  0  0  0  0
 49 47  1  0  0  0  0
 50 49  2  0  0  0  0
M  END
>  <MODEL>
2

>  <REMARK>
 VINA RESULT:      -6.4      2.685      8.026
  Name = 
  24 active torsions:
  status: ('A' for Active; 'I' for Inactive)
    1  A    between atoms: O_2  and  C_16
    2  A    between atoms: N_5  and  CA_17
    3  A    between atoms: N_5  and  C_46
    4  A    between atoms: N_6  and  C_23
    5  A    between atoms: N_6  and  C_31
    6  A    between atoms: N_7  and  N_45
    7  A    between atoms: C_9  and  C_49
    8  A    between atoms: C_14  and  CA_17
    9  A    between atoms: C_16  and  C_23
   10  A    between atoms: C_16  and  C_47
   11  A    between atoms: C_19  and  C_22
   12  A    between atoms: N_20  and  C_22
   13  A    between atoms: N_20  and  C_49
   14  A    between atoms: C_24  and  C_47
   15  A    between atoms: C_25  and  C_34
   16  A    between atoms: C_25  and  N_41
   17  A    between atoms: C_28  and  C_32
   18  A    between atoms: C_29  and  C_38
   19  A    between atoms: C_30  and  C_31
   20  A    between atoms: C_32  and  N_45
   21  A    between atoms: C_33  and  C_35
   22  A    between atoms: C_34  and  C_35
   23  A    between atoms: C_35  and  N_48
   24  A    between atoms: C_46  and  C_47
                            x       y       z     vdW  Elec       q    Type
                         _______ _______ _______ _____ _____    ______ ____

>  <TORSDO>
F 24

$$$$
=
 OpenBabel10232411173D

 50 54  0  0  1  0  0  0  0  0999 V2000
  190.6560  176.2400  138.2220 C   0  0  0  0  0  0  0  0  0  0  0  0
  191.8830  176.9970  139.8910 N   0  0  0  0  0  0  0  0  0  0  0  0
  191.9310  176.5900  138.6110 C   0  0  0  0  0  0  0  0  0  0  0  0
  190.6110  176.8980  140.2490 N   0  0  0  0  0  0  0  0  0  0  0  0
  189.8390  176.4310  139.2720 N   0  0  0  0  0  0  0  0  0  0  0  0
  194.0930  176.4900  137.1780 N   0  0  0  0  0  0  0  0  0  0  0  0
  193.1290  176.5330  137.8180 C   0  0  0  0  0  0  0  0  0  0  0  0
  190.1470  177.1770  141.6060 C   0  0  1  0  0  3  0  0  0  0  0  0
  188.2480  178.8050  141.5980 C   0  0  0  0  0  1  0  0  0  0  0  0
  188.6320  177.3400  141.6790 C   0  0  0  0  0  2  0  0  0  0  0  0
  190.6800  176.1350  142.5890 C   0  0  0  0  0  2  0  0  0  0  0  0
  191.5640  176.7390  143.6690 C   0  0  0  0  0  2  0  0  0  0  0  0
  190.0450  177.1120  147.2300 N   0  0  0  0  0  0  0  0  0  0  0  0
  190.6590  177.0300  145.9920 C   0  0  0  0  0  0  0  0  0  0  0  0
  191.1530  176.3220  147.0230 N   0  0  0  0  0  0  0  0  0  0  0  0
  190.7320  177.4430  144.6310 N   0  0  0  0  0  2  0  0  0  0  0  0
  189.0380  177.6130  148.0640 N   0  0  0  0  0  2  0  0  0  0  0  0
  187.7600  177.3280  147.4270 C   0  0  0  0  0  2  0  0  0  0  0  0
  185.3380  178.1220  143.5960 N   0  0  0  0  0  2  0  0  0  0  0  0
  185.8650  178.8650  146.9040 C   0  0  0  0  0  2  0  0  0  0  0  0
  185.3050  179.0340  145.5880 N   0  0  2  0  0  0  0  0  0  0  0  0
  183.8980  178.8940  145.3350 C   0  0  0  0  0  2  0  0  0  0  0  0
  187.3200  178.5030  146.5660 C   0  0  2  0  0  3  0  0  0  0  0  0
  187.2400  178.0990  145.0840 C   0  0  0  0  0  2  0  0  0  0  0  0
  185.8160  177.9490  144.8970 N   0  0  2  0  0  0  0  0  0  0  0  0
  183.9380  178.4940  143.8550 C   0  0  0  0  0  2  0  0  0  0  0  0
  190.2210  175.7010  136.9040 C   0  0  0  0  0  2  0  0  0  0  0  0
  189.4680  174.4750  137.0950 N   0  0  0  0  0  2  0  0  0  0  0  0
  188.1250  174.7320  136.5930 C   0  0  0  0  0  2  0  0  0  0  0  0
  187.1920  173.5570  136.8800 C   0  0  1  0  0  3  0  0  0  0  0  0
  185.9420  173.5890  136.0160 C   0  0  1  0  0  3  0  0  0  0  0  0
  185.6110  172.1410  135.7420 C   0  0  0  0  0  2  0  0  0  0  0  0
  186.9430  171.4250  135.7270 C   0  0  0  0  0  2  0  0  0  0  0  0
  187.8720  172.2180  136.6280 C   0  0  0  0  0  2  0  0  0  0  0  0
  184.7870  174.2630  136.7390 C   0  0  0  0  0  2  0  0  0  0  0  0
  183.5310  173.8560  136.1350 N   0  0  0  0  0  2  0  0  0  0  0  0
  182.5290  173.8390  137.1910 C   0  0  0  0  0  2  0  0  0  0  0  0
  181.3140  174.6870  136.8030 C   0  0  1  0  0  3  0  0  0  0  0  0
  180.1420  174.0100  137.1400 O   0  0  0  0  0  0  0  0  0  0  0  0
  180.0000  173.0300  136.1580 C   0  0  0  0  0  1  0  0  0  0  0  0
  181.3090  176.0950  137.4290 C   0  0  2  0  0  3  0  0  0  0  0  0
  181.5110  177.1770  136.3800 C   0  0  0  0  0  2  0  0  0  0  0  0
  181.3210  176.6070  134.9890 C   0  0  0  0  0  1  0  0  0  0  0  0
  182.3360  176.2560  138.5440 C   0  0  0  0  0  2  0  0  0  0  0  0
  183.2220  177.3700  138.2510 N   0  0  0  0  0  2  0  0  0  0  0  0
  182.4590  178.5010  140.2580 C   0  0  0  0  0  1  0  0  0  0  0  0
  183.6530  177.9260  139.5240 C   0  0  2  0  0  3  0  0  0  0  0  0
  184.2750  180.3010  139.0730 O   0  0  0  0  0  0  0  0  0  0  0  0
  184.6800  178.9910  139.3050 C   0  0  0  0  0  0  0  0  0  0  0  0
  185.9060  178.7050  139.2900 O   0  0  0  0  0  1  0  0  0  0  0  0
  1  3  1  0  0  0  0
  1  5  2  0  0  0  0
  2  4  1  0  0  0  0
  3  2  2  0  0  0  0
  4  8  1  0  0  0  0
  5  4  1  0  0  0  0
  6  7  3  0  0  0  0
  7  3  1  0  0  0  0
  8 10  1  6  0  0  0
  8 11  1  0  0  0  0
  9 10  1  0  0  0  0
 11 12  1  0  0  0  0
 12 16  1  0  0  0  0
 13 17  1  0  0  0  0
 14 15  2  0  0  0  0
 14 13  1  0  0  0  0
 15 13  1  0  0  0  0
 16 14  1  0  0  0  0
 18 17  1  0  0  0  0
 19 26  1  0  0  0  0
 19 25  1  0  0  0  0
 21 22  1  1  0  0  0
 21 20  1  0  0  0  0
 23 20  1  0  0  0  0
 23 18  1  1  0  0  0
 24 23  1  0  0  0  0
 25 24  1  6  0  0  0
 25 21  1  0  0  0  0
 26 22  1  0  0  0  0
 27 28  1  0  0  0  0
 27  1  1  0  0  0  0
 29 28  1  0  0  0  0
 30 29  1  6  0  0  0
 31 35  1  1  0  0  0
 31 30  1  0  0  0  0
 32 31  1  0  0  0  0
 33 32  1  0  0  0  0
 33 34  1  0  0  0  0
 34 30  1  0  0  0  0
 36 35  1  0  0  0  0
 36 37  1  0  0  0  0
 38 39  1  0  0  0  0
 38 37  1  1  0  0  0
 38 41  1  0  0  0  0
 40 39  1  0  0  0  0
 41 42  1  6  0  0  0
 41 44  1  0  0  0  0
 43 42  1  0  0  0  0
 45 44  1  0  0  0  0
 45 47  1  0  0  0  0
 47 46  1  6  0  0  0
 48 49  2  0  0  0  0
 49 47  1  0  0  0  0
 50 49  1  0  0  0  0
M  END
>  <MODEL>
3

>  <REMARK>
 VINA RESULT:      -6.4      2.769     10.913
  Name = 
  24 active torsions:
  status: ('A' for Active; 'I' for Inactive)
    1  A    between atoms: O_2  and  C_16
    2  A    between atoms: N_5  and  CA_17
    3  A    between atoms: N_5  and  C_46
    4  A    between atoms: N_6  and  C_23
    5  A    between atoms: N_6  and  C_31
    6  A    between atoms: N_7  and  N_45
    7  A    between atoms: C_9  and  C_49
    8  A    between atoms: C_14  and  CA_17
    9  A    between atoms: C_16  and  C_23
   10  A    between atoms: C_16  and  C_47
   11  A    between atoms: C_19  and  C_22
   12  A    between atoms: N_20  and  C_22
   13  A    between atoms: N_20  and  C_49
   14  A    between atoms: C_24  and  C_47
   15  A    between atoms: C_25  and  C_34
   16  A    between atoms: C_25  and  N_41
   17  A    between atoms: C_28  and  C_32
   18  A    between atoms: C_29  and  C_38
   19  A    between atoms: C_30  and  C_31
   20  A    between atoms: C_32  and  N_45
   21  A    between atoms: C_33  and  C_35
   22  A    between atoms: C_34  and  C_35
   23  A    between atoms: C_35  and  N_48
   24  A    between atoms: C_46  and  C_47
                            x       y       z     vdW  Elec       q    Type
                         _______ _______ _______ _____ _____    ______ ____

>  <TORSDO>
F 24

$$$$
=
 OpenBabel10232411173D

 50 54  0  0  1  0  0  0  0  0999 V2000
  189.8970  174.5250  137.0760 C   0  0  0  0  0  0  0  0  0  0  0  0
  191.5260  175.7190  137.9620 N   0  0  0  0  0  0  0  0  0  0  0  0
  191.2620  174.6130  137.2440 C   0  0  0  0  0  0  0  0  0  0  0  0
  190.3480  176.2750  138.2060 N   0  0  0  0  0  0  0  0  0  0  0  0
  189.3370  175.5760  137.6990 N   0  0  0  0  0  0  0  0  0  0  0  0
  193.0610  172.9590  136.3710 N   0  0  0  0  0  0  0  0  0  0  0  0
  192.2600  173.6980  136.7600 C   0  0  0  0  0  0  0  0  0  0  0  0
  190.1930  177.4680  139.0350 C   0  0  1  0  0  3  0  0  0  0  0  0
  189.1030  179.0180  137.4020 C   0  0  0  0  0  1  0  0  0  0  0  0
  188.9270  178.2480  138.6970 C   0  0  0  0  0  2  0  0  0  0  0  0
  190.2970  177.1190  140.5190 C   0  0  0  0  0  2  0  0  0  0  0  0
  191.6380  177.5030  141.1240 C   0  0  0  0  0  2  0  0  0  0  0  0
  191.1750  176.6460  144.8900 N   0  0  0  0  0  0  0  0  0  0  0  0
  191.4330  176.9520  143.5650 C   0  0  0  0  0  0  0  0  0  0  0  0
  191.7050  175.7180  144.0230 N   0  0  0  0  0  0  0  0  0  0  0  0
  191.4420  177.9050  142.5070 N   0  0  0  0  0  2  0  0  0  0  0  0
  190.7070  177.0080  146.1590 N   0  0  0  0  0  2  0  0  0  0  0  0
  189.5950  177.9290  145.9690 C   0  0  0  0  0  2  0  0  0  0  0  0
  185.1120  178.7960  146.5380 N   0  0  0  0  0  2  0  0  0  0  0  0
  187.5690  177.3390  144.6380 C   0  0  0  0  0  2  0  0  0  0  0  0
  186.2200  177.6280  145.0520 N   0  0  2  0  0  0  0  0  0  0  0  0
  185.2970  178.3300  144.2050 C   0  0  0  0  0  2  0  0  0  0  0  0
  188.2710  177.1780  145.9950 C   0  0  2  0  0  3  0  0  0  0  0  0
  187.2850  177.8370  146.9750 C   0  0  0  0  0  2  0  0  0  0  0  0
  186.4050  178.5430  146.0730 N   0  0  2  0  0  0  0  0  0  0  0  0
  184.3780  178.9410  145.2700 C   0  0  0  0  0  2  0  0  0  0  0  0
  189.1330  173.4550  136.3780 C   0  0  0  0  0  2  0  0  0  0  0  0
  187.7240  173.8010  136.3340 N   0  0  0  0  0  2  0  0  0  0  0  0
  187.1290  172.9850  135.2850 C   0  0  0  0  0  2  0  0  0  0  0  0
  186.3000  171.8450  135.8720 C   0  0  1  0  0  3  0  0  0  0  0  0
  184.8070  172.1280  135.8160 C   0  0  1  0  0  3  0  0  0  0  0  0
  184.1560  170.7870  135.5790 C   0  0  0  0  0  2  0  0  0  0  0  0
  185.1580  169.9970  134.7680 C   0  0  0  0  0  2  0  0  0  0  0  0
  186.5310  170.5350  135.1300 C   0  0  0  0  0  2  0  0  0  0  0  0
  184.3110  172.7300  137.1210 C   0  0  0  0  0  2  0  0  0  0  0  0
  182.8920  173.0230  137.0120 N   0  0  0  0  0  2  0  0  0  0  0  0
  182.7350  174.4620  137.1700 C   0  0  0  0  0  2  0  0  0  0  0  0
  183.0680  175.1920  135.8670 C   0  0  1  0  0  3  0  0  0  0  0  0
  181.8880  175.5640  135.2220 O   0  0  0  0  0  0  0  0  0  0  0  0
  181.1090  176.1560  136.2170 C   0  0  0  0  0  1  0  0  0  0  0  0
  183.9760  176.4230  136.0550 C   0  0  2  0  0  3  0  0  0  0  0  0
  185.1860  176.3740  135.1340 C   0  0  0  0  0  2  0  0  0  0  0  0
  186.4050  176.9430  135.8320 C   0  0  0  0  0  1  0  0  0  0  0  0
  184.4310  176.6140  137.4970 C   0  0  0  0  0  2  0  0  0  0  0  0
  183.7670  177.7660  138.0830 N   0  0  0  0  0  2  0  0  0  0  0  0
  182.3230  176.9040  139.8320 C   0  0  0  0  0  1  0  0  0  0  0  0
  183.6680  177.5260  139.5140 C   0  0  2  0  0  3  0  0  0  0  0  0
  184.6730  179.7970  139.7730 O   0  0  0  0  0  0  0  0  0  0  0  0
  183.8290  178.8080  140.2680 C   0  0  0  0  0  0  0  0  0  0  0  0
  183.2370  178.9850  141.3650 O   0  0  0  0  0  1  0  0  0  0  0  0
  1  3  1  0  0  0  0
  1  5  2  0  0  0  0
  2  4  1  0  0  0  0
  3  2  2  0  0  0  0
  4  8  1  0  0  0  0
  5  4  1  0  0  0  0
  6  7  3  0  0  0  0
  7  3  1  0  0  0  0
  8 10  1  1  0  0  0
  8 11  1  0  0  0  0
  9 10  1  0  0  0  0
 11 12  1  0  0  0  0
 12 16  1  0  0  0  0
 13 17  1  0  0  0  0
 14 15  2  0  0  0  0
 14 13  1  0  0  0  0
 15 13  1  0  0  0  0
 16 14  1  0  0  0  0
 18 17  1  0  0  0  0
 20 21  1  0  0  0  0
 20 23  1  0  0  0  0
 21 22  1  6  0  0  0
 21 25  1  0  0  0  0
 22 26  1  0  0  0  0
 23 18  1  6  0  0  0
 23 24  1  0  0  0  0
 25 19  1  0  0  0  0
 25 24  1  1  0  0  0
 26 19  1  0  0  0  0
 27  1  1  0  0  0  0
 28 27  1  0  0  0  0
 29 28  1  0  0  0  0
 30 29  1  6  0  0  0
 31 30  1  0  0  0  0
 31 35  1  1  0  0  0
 32 31  1  0  0  0  0
 33 34  1  0  0  0  0
 33 32  1  0  0  0  0
 34 30  1  0  0  0  0
 36 35  1  0  0  0  0
 36 37  1  0  0  0  0
 38 41  1  0  0  0  0
 38 37  1  1  0  0  0
 39 38  1  0  0  0  0
 39 40  1  0  0  0  0
 41 42  1  6  0  0  0
 41 44  1  0  0  0  0
 42 43  1  0  0  0  0
 44 45  1  0  0  0  0
 45 47  1  0  0  0  0
 47 46  1  6  0  0  0
 47 49  1  0  0  0  0
 48 49  2  0  0  0  0
 49 50  1  0  0  0  0
M  END
>  <MODEL>
4

>  <REMARK>
 VINA RESULT:      -6.2      2.795     10.520
  Name = 
  24 active torsions:
  status: ('A' for Active; 'I' for Inactive)
    1  A    between atoms: O_2  and  C_16
    2  A    between atoms: N_5  and  CA_17
    3  A    between atoms: N_5  and  C_46
    4  A    between atoms: N_6  and  C_23
    5  A    between atoms: N_6  and  C_31
    6  A    between atoms: N_7  and  N_45
    7  A    between atoms: C_9  and  C_49
    8  A    between atoms: C_14  and  CA_17
    9  A    between atoms: C_16  and  C_23
   10  A    between atoms: C_16  and  C_47
   11  A    between atoms: C_19  and  C_22
   12  A    between atoms: N_20  and  C_22
   13  A    between atoms: N_20  and  C_49
   14  A    between atoms: C_24  and  C_47
   15  A    between atoms: C_25  and  C_34
   16  A    between atoms: C_25  and  N_41
   17  A    between atoms: C_28  and  C_32
   18  A    between atoms: C_29  and  C_38
   19  A    between atoms: C_30  and  C_31
   20  A    between atoms: C_32  and  N_45
   21  A    between atoms: C_33  and  C_35
   22  A    between atoms: C_34  and  C_35
   23  A    between atoms: C_35  and  N_48
   24  A    between atoms: C_46  and  C_47
                            x       y       z     vdW  Elec       q    Type
                         _______ _______ _______ _____ _____    ______ ____

>  <TORSDO>
F 24

$$$$
=
 OpenBabel10232411173D

 50 54  0  0  1  0  0  0  0  0999 V2000
  190.3130  176.6470  142.6610 C   0  0  0  0  0  0  0  0  0  0  0  0
  191.2760  177.8730  141.1010 N   0  0  0  0  0  0  0  0  0  0  0  0
  191.0890  177.7620  142.4280 C   0  0  0  0  0  0  0  0  0  0  0  0
  190.6330  176.8470  140.5630 N   0  0  0  0  0  0  0  0  0  0  0  0
  190.0260  176.0900  141.4720 N   0  0  0  0  0  0  0  0  0  0  0  0
  192.0440  179.4110  144.1890 N   0  0  0  0  0  0  0  0  0  0  0  0
  191.6170  178.6750  143.4050 C   0  0  0  0  0  0  0  0  0  0  0  0
  190.5270  176.6490  139.1200 C   0  0  1  0  0  3  0  0  0  0  0  0
  188.7220  177.3140  137.5200 C   0  0  0  0  0  1  0  0  0  0  0  0
  189.8310  177.8150  138.4250 C   0  0  0  0  0  2  0  0  0  0  0  0
  191.8900  176.3240  138.5120 C   0  0  0  0  0  2  0  0  0  0  0  0
  191.8100  175.2880  137.4000 C   0  0  0  0  0  2  0  0  0  0  0  0
  188.6630  173.0880  136.7850 N   0  0  0  0  0  0  0  0  0  0  0  0
  189.8330  173.8070  136.9560 C   0  0  0  0  0  0  0  0  0  0  0  0
  189.2470  173.7760  135.7460 N   0  0  0  0  0  0  0  0  0  0  0  0
  190.9000  174.2270  137.7990 N   0  0  0  0  0  2  0  0  0  0  0  0
  187.6400  172.2780  137.2940 N   0  0  0  0  0  2  0  0  0  0  0  0
  186.4350  172.5600  136.5260 C   0  0  0  0  0  2  0  0  0  0  0  0
  182.7050  175.2520  136.5920 N   0  0  0  0  0  2  0  0  0  0  0  0
  184.0310  172.1180  137.0260 C   0  0  0  0  0  2  0  0  0  0  0  0
  183.0210  173.1420  137.0890 N   0  0  2  0  0  0  0  0  0  0  0  0
  181.8040  173.0590  136.3310 C   0  0  0  0  0  2  0  0  0  0  0  0
  185.2800  172.9040  137.4550 C   0  0  2  0  0  3  0  0  0  0  0  0
  184.8470  174.3680  137.2740 C   0  0  0  0  0  2  0  0  0  0  0  0
  183.6430  174.2230  136.4890 N   0  0  2  0  0  0  0  0  0  0  0  0
  181.4690  174.5510  136.2090 C   0  0  0  0  0  2  0  0  0  0  0  0
  189.8190  176.1390  143.9700 C   0  0  0  0  0  2  0  0  0  0  0  0
  190.4490  176.8690  145.0540 N   0  0  0  0  0  2  0  0  0  0  0  0
  189.6870  176.5620  146.2570 C   0  0  0  0  0  2  0  0  0  0  0  0
  188.9400  177.7930  146.7700 C   0  0  1  0  0  3  0  0  0  0  0  0
  187.4380  177.6830  146.5650 C   0  0  1  0  0  3  0  0  0  0  0  0
  186.8230  178.3850  147.7520 C   0  0  0  0  0  2  0  0  0  0  0  0
  187.7990  178.1740  148.8880 C   0  0  0  0  0  2  0  0  0  0  0  0
  189.1710  178.0170  148.2580 C   0  0  0  0  0  2  0  0  0  0  0  0
  187.0060  178.3580  145.2740 C   0  0  0  0  0  2  0  0  0  0  0  0
  185.9530  177.5790  144.6470 N   0  0  0  0  0  2  0  0  0  0  0  0
  186.0600  177.7840  143.2090 C   0  0  0  0  0  2  0  0  0  0  0  0
  185.3350  179.0640  142.7860 C   0  0  1  0  0  3  0  0  0  0  0  0
  185.9980  179.6430  141.7040 O   0  0  0  0  0  0  0  0  0  0  0  0
  186.9880  178.7230  141.3580 C   0  0  0  0  0  1  0  0  0  0  0  0
  183.8470  178.8540  142.4410 C   0  0  2  0  0  3  0  0  0  0  0  0
  183.0220  178.5440  143.6810 C   0  0  0  0  0  2  0  0  0  0  0  0
  181.6870  179.2580  143.6200 C   0  0  0  0  0  1  0  0  0  0  0  0
  183.6260  177.7750  141.3880 C   0  0  0  0  0  2  0  0  0  0  0  0
  182.3740  178.0080  140.6880 N   0  0  0  0  0  2  0  0  0  0  0  0
  181.0870  179.7550  139.6010 C   0  0  0  0  0  1  0  0  0  0  0  0
  182.4620  179.3220  140.0700 C   0  0  2  0  0  3  0  0  0  0  0  0
  184.5440  180.0950  138.9310 O   0  0  0  0  0  1  0  0  0  0  0  0
  183.4100  179.2900  138.9150 C   0  0  0  0  0  0  0  0  0  0  0  0
  183.1710  178.5700  137.9090 O   0  0  0  0  0  0  0  0  0  0  0  0
  1 27  1  0  0  0  0
  2  3  2  0  0  0  0
  3  1  1  0  0  0  0
  3  7  1  0  0  0  0
  4  2  1  0  0  0  0
  4  5  1  0  0  0  0
  5  1  2  0  0  0  0
  7  6  3  0  0  0  0
  8 10  1  6  0  0  0
  8  4  1  0  0  0  0
  9 10  1  0  0  0  0
 11  8  1  0  0  0  0
 12 16  1  0  0  0  0
 12 11  1  0  0  0  0
 13 14  1  0  0  0  0
 13 17  1  0  0  0  0
 14 16  1  0  0  0  0
 15 13  1  0  0  0  0
 15 14  2  0  0  0  0
 18 17  1  0  0  0  0
 20 21  1  0  0  0  0
 20 23  1  0  0  0  0
 21 22  1  6  0  0  0
 23 18  1  6  0  0  0
 24 23  1  0  0  0  0
 25 19  1  0  0  0  0
 25 21  1  0  0  0  0
 25 24  1  1  0  0  0
 26 22  1  0  0  0  0
 26 19  1  0  0  0  0
 27 28  1  0  0  0  0
 28 29  1  0  0  0  0
 30 29  1  1  0  0  0
 30 34  1  0  0  0  0
 31 35  1  6  0  0  0
 31 30  1  0  0  0  0
 31 32  1  0  0  0  0
 32 33  1  0  0  0  0
 34 33  1  0  0  0  0
 36 35  1  0  0  0  0
 37 36  1  0  0  0  0
 38 37  1  6  0  0  0
 39 38  1  0  0  0  0
 40 39  1  0  0  0  0
 41 44  1  6  0  0  0
 41 38  1  0  0  0  0
 41 42  1  0  0  0  0
 43 42  1  0  0  0  0
 45 44  1  0  0  0  0
 47 46  1  6  0  0  0
 47 45  1  0  0  0  0
 49 48  1  0  0  0  0
 49 47  1  0  0  0  0
 50 49  2  0  0  0  0
M  END
>  <MODEL>
5

>  <REMARK>
 VINA RESULT:      -6.2      2.642      8.234
  Name = 
  24 active torsions:
  status: ('A' for Active; 'I' for Inactive)
    1  A    between atoms: O_2  and  C_16
    2  A    between atoms: N_5  and  CA_17
    3  A    between atoms: N_5  and  C_46
    4  A    between atoms: N_6  and  C_23
    5  A    between atoms: N_6  and  C_31
    6  A    between atoms: N_7  and  N_45
    7  A    between atoms: C_9  and  C_49
    8  A    between atoms: C_14  and  CA_17
    9  A    between atoms: C_16  and  C_23
   10  A    between atoms: C_16  and  C_47
   11  A    between atoms: C_19  and  C_22
   12  A    between atoms: N_20  and  C_22
   13  A    between atoms: N_20  and  C_49
   14  A    between atoms: C_24  and  C_47
   15  A    between atoms: C_25  and  C_34
   16  A    between atoms: C_25  and  N_41
   17  A    between atoms: C_28  and  C_32
   18  A    between atoms: C_29  and  C_38
   19  A    between atoms: C_30  and  C_31
   20  A    between atoms: C_32  and  N_45
   21  A    between atoms: C_33  and  C_35
   22  A    between atoms: C_34  and  C_35
   23  A    between atoms: C_35  and  N_48
   24  A    between atoms: C_46  and  C_47
                            x       y       z     vdW  Elec       q    Type
                         _______ _______ _______ _____ _____    ______ ____

>  <TORSDO>
F 24

$$$$
=
 OpenBabel10232411173D

 50 54  0  0  1  0  0  0  0  0999 V2000
  187.4000  177.6850  145.6330 C   0  0  0  0  0  0  0  0  0  0  0  0
  189.6020  177.7150  145.7590 N   0  0  0  0  0  0  0  0  0  0  0  0
  188.4750  177.7940  146.4880 C   0  0  0  0  0  0  0  0  0  0  0  0
  189.2040  177.5540  144.5050 N   0  0  0  0  0  0  0  0  0  0  0  0
  187.8790  177.5460  144.3850 N   0  0  0  0  0  0  0  0  0  0  0  0
  188.4060  178.1170  149.0620 N   0  0  0  0  0  0  0  0  0  0  0  0
  188.4390  177.9730  147.9150 C   0  0  0  0  0  0  0  0  0  0  0  0
  190.1340  177.5030  143.3800 C   0  0  1  0  0  3  0  0  0  0  0  0
  191.7350  175.6930  144.0280 C   0  0  0  0  0  1  0  0  0  0  0  0
  191.5600  177.1850  143.8210 C   0  0  0  0  0  2  0  0  0  0  0  0
  189.6250  176.5580  142.2930 C   0  0  0  0  0  2  0  0  0  0  0  0
  189.2750  177.2790  141.0000 C   0  0  0  0  0  2  0  0  0  0  0  0
  192.1210  176.3760  138.5080 N   0  0  0  0  0  0  0  0  0  0  0  0
  191.0600  176.7300  139.3210 C   0  0  0  0  0  0  0  0  0  0  0  0
  190.9370  175.6740  138.4990 N   0  0  0  0  0  0  0  0  0  0  0  0
  190.5000  177.6110  140.2900 N   0  0  0  0  0  2  0  0  0  0  0  0
  193.4300  176.5730  138.0500 N   0  0  0  0  0  2  0  0  0  0  0  0
  193.7050  175.5470  137.0540 C   0  0  0  0  0  2  0  0  0  0  0  0
  195.5310  171.4500  136.0300 N   0  0  0  0  0  2  0  0  0  0  0  0
  195.4710  174.1570  138.1370 C   0  0  0  0  0  2  0  0  0  0  0  0
  195.8310  172.8320  137.7030 N   0  0  2  0  0  0  0  0  0  0  0  0
  197.1890  172.4690  137.4090 C   0  0  0  0  0  2  0  0  0  0  0  0
  193.9910  174.2130  137.7280 C   0  0  2  0  0  3  0  0  0  0  0  0
  193.8640  173.0530  136.7260 C   0  0  0  0  0  2  0  0  0  0  0  0
  195.2490  172.7520  136.4500 N   0  0  2  0  0  0  0  0  0  0  0  0
  196.9450  171.3260  136.4160 C   0  0  0  0  0  2  0  0  0  0  0  0
  185.9530  177.7490  145.9770 C   0  0  0  0  0  2  0  0  0  0  0  0
  185.2960  178.7590  145.1670 N   0  0  0  0  0  2  0  0  0  0  0  0
  185.0960  178.1680  143.8510 C   0  0  0  0  0  2  0  0  0  0  0  0
  184.1410  179.0090  143.0050 C   0  0  1  0  0  3  0  0  0  0  0  0
  184.0080  178.4790  141.5860 C   0  0  1  0  0  3  0  0  0  0  0  0
  182.5770  178.7540  141.1920 C   0  0  0  0  0  2  0  0  0  0  0  0
  181.7870  178.6680  142.4780 C   0  0  0  0  0  2  0  0  0  0  0  0
  182.7400  179.0450  143.5990 C   0  0  0  0  0  2  0  0  0  0  0  0
  184.9600  179.1930  140.6400 C   0  0  0  0  0  2  0  0  0  0  0  0
  185.6160  178.2190  139.7850 N   0  0  0  0  0  2  0  0  0  0  0  0
  185.2190  178.5080  138.4150 C   0  0  0  0  0  2  0  0  0  0  0  0
  185.2990  177.2490  137.5470 C   0  0  1  0  0  3  0  0  0  0  0  0
  184.6520  177.4750  136.3320 O   0  0  0  0  0  0  0  0  0  0  0  0
  183.4320  176.8070  136.4480 C   0  0  0  0  0  1  0  0  0  0  0  0
  186.7360  176.7540  137.2950 C   0  0  2  0  0  3  0  0  0  0  0  0
  187.4540  177.6160  136.2670 C   0  0  0  0  0  2  0  0  0  0  0  0
  188.5960  178.3720  136.9170 C   0  0  0  0  0  1  0  0  0  0  0  0
  186.7970  175.2900  136.8770 C   0  0  0  0  0  2  0  0  0  0  0  0
  187.8190  175.1010  135.8600 N   0  0  0  0  0  2  0  0  0  0  0  0
  186.3190  173.1960  135.7740 C   0  0  0  0  0  1  0  0  0  0  0  0
  187.6480  173.7630  135.3180 C   0  0  2  0  0  3  0  0  0  0  0  0
  188.8010  171.5480  135.3490 O   0  0  0  0  0  0  0  0  0  0  0  0
  188.7630  172.8740  135.7680 C   0  0  0  0  0  0  0  0  0  0  0  0
  189.6480  173.3050  136.5550 O   0  0  0  0  0  1  0  0  0  0  0  0
  1 27  1  0  0  0  0
  1  3  1  0  0  0  0
  2  3  2  0  0  0  0
  3  7  1  0  0  0  0
  4  2  1  0  0  0  0
  5  4  1  0  0  0  0
  5  1  2  0  0  0  0
  7  6  3  0  0  0  0
  8 11  1  6  0  0  0
  8 10  1  0  0  0  0
  8  4  1  0  0  0  0
 10  9  1  0  0  0  0
 12 11  1  0  0  0  0
 13 14  1  0  0  0  0
 14 16  1  0  0  0  0
 15 13  1  0  0  0  0
 15 14  2  0  0  0  0
 16 12  1  0  0  0  0
 17 13  1  0  0  0  0
 18 17  1  0  0  0  0
 19 26  1  0  0  0  0
 19 25  1  0  0  0  0
 21 22  1  6  0  0  0
 21 20  1  0  0  0  0
 23 18  1  6  0  0  0
 23 20  1  0  0  0  0
 24 23  1  0  0  0  0
 25 24  1  1  0  0  0
 25 21  1  0  0  0  0
 26 22  1  0  0  0  0
 28 27  1  0  0  0  0
 29 28  1  0  0  0  0
 30 34  1  0  0  0  0
 30 29  1  1  0  0  0
 31 35  1  6  0  0  0
 31 30  1  0  0  0  0
 32 31  1  0  0  0  0
 32 33  1  0  0  0  0
 33 34  1  0  0  0  0
 36 35  1  0  0  0  0
 37 36  1  0  0  0  0
 38 37  1  1  0  0  0
 39 40  1  0  0  0  0
 39 38  1  0  0  0  0
 41 42  1  6  0  0  0
 41 38  1  0  0  0  0
 42 43  1  0  0  0  0
 44 41  1  0  0  0  0
 45 44  1  0  0  0  0
 47 49  1  0  0  0  0
 47 46  1  1  0  0  0
 47 45  1  0  0  0  0
 48 49  2  0  0  0  0
 49 50  1  0  0  0  0
M  END
>  <MODEL>
6

>  <REMARK>
 VINA RESULT:      -6.1      2.902      7.568
  Name = 
  24 active torsions:
  status: ('A' for Active; 'I' for Inactive)
    1  A    between atoms: O_2  and  C_16
    2  A    between atoms: N_5  and  CA_17
    3  A    between atoms: N_5  and  C_46
    4  A    between atoms: N_6  and  C_23
    5  A    between atoms: N_6  and  C_31
    6  A    between atoms: N_7  and  N_45
    7  A    between atoms: C_9  and  C_49
    8  A    between atoms: C_14  and  CA_17
    9  A    between atoms: C_16  and  C_23
   10  A    between atoms: C_16  and  C_47
   11  A    between atoms: C_19  and  C_22
   12  A    between atoms: N_20  and  C_22
   13  A    between atoms: N_20  and  C_49
   14  A    between atoms: C_24  and  C_47
   15  A    between atoms: C_25  and  C_34
   16  A    between atoms: C_25  and  N_41
   17  A    between atoms: C_28  and  C_32
   18  A    between atoms: C_29  and  C_38
   19  A    between atoms: C_30  and  C_31
   20  A    between atoms: C_32  and  N_45
   21  A    between atoms: C_33  and  C_35
   22  A    between atoms: C_34  and  C_35
   23  A    between atoms: C_35  and  N_48
   24  A    between atoms: C_46  and  C_47
                            x       y       z     vdW  Elec       q    Type
                         _______ _______ _______ _____ _____    ______ ____

>  <TORSDO>
F 24

$$$$
=
 OpenBabel10232411173D

 50 54  0  0  1  0  0  0  0  0999 V2000
  184.8350  177.8100  137.9380 C   0  0  0  0  0  0  0  0  0  0  0  0
  185.1660  176.4970  136.1970 N   0  0  0  0  0  0  0  0  0  0  0  0
  184.2520  177.2650  136.8140 C   0  0  0  0  0  0  0  0  0  0  0  0
  186.2650  176.5910  136.9310 N   0  0  0  0  0  0  0  0  0  0  0  0
  186.1020  177.3640  138.0010 N   0  0  0  0  0  0  0  0  0  0  0  0
  181.8150  177.6080  135.9900 N   0  0  0  0  0  0  0  0  0  0  0  0
  182.9020  177.4540  136.3560 C   0  0  0  0  0  0  0  0  0  0  0  0
  187.4790  175.8330  136.6380 C   0  0  1  0  0  3  0  0  0  0  0  0
  187.9980  174.3110  134.7210 C   0  0  0  0  0  1  0  0  0  0  0  0
  187.7630  175.7490  135.1410 C   0  0  0  0  0  2  0  0  0  0  0  0
  188.6640  176.3700  137.4380 C   0  0  0  0  0  2  0  0  0  0  0  0
  189.4940  177.3800  136.6590 C   0  0  0  0  0  2  0  0  0  0  0  0
  193.1030  176.0640  137.2700 N   0  0  0  0  0  0  0  0  0  0  0  0
  191.7870  176.4480  137.0790 C   0  0  0  0  0  0  0  0  0  0  0  0
  192.2560  176.2980  138.3300 N   0  0  0  0  0  0  0  0  0  0  0  0
  190.7120  176.7390  136.1910 N   0  0  0  0  0  2  0  0  0  0  0  0
  194.3600  175.7150  136.7610 N   0  0  0  0  0  2  0  0  0  0  0  0
  194.3400  174.2860  136.4850 C   0  0  0  0  0  2  0  0  0  0  0  0
  198.3450  175.2910  138.5140 N   0  0  0  0  0  2  0  0  0  0  0  0
  195.2640  173.8010  138.7520 C   0  0  0  0  0  2  0  0  0  0  0  0
  196.6060  174.1260  139.1600 N   0  0  2  0  0  0  0  0  0  0  0  0
  196.8780  174.8810  140.3510 C   0  0  0  0  0  2  0  0  0  0  0  0
  195.4550  173.5810  137.2430 C   0  0  2  0  0  3  0  0  0  0  0  0
  196.8140  174.2470  136.9660 C   0  0  0  0  0  2  0  0  0  0  0  0
  197.0190  175.0070  138.1760 N   0  0  2  0  0  0  0  0  0  0  0  0
  198.2310  175.4950  139.9670 C   0  0  0  0  0  2  0  0  0  0  0  0
  184.2050  178.6990  138.9510 C   0  0  0  0  0  2  0  0  0  0  0  0
  183.4600  177.9050  139.9110 N   0  0  0  0  0  2  0  0  0  0  0  0
  183.1370  178.7930  141.0200 C   0  0  0  0  0  2  0  0  0  0  0  0
  183.9490  178.4430  142.2660 C   0  0  1  0  0  3  0  0  0  0  0  0
  185.0930  179.4150  142.5010 C   0  0  1  0  0  3  0  0  0  0  0  0
  185.2180  179.5270  144.0020 C   0  0  0  0  0  2  0  0  0  0  0  0
  183.8160  179.3250  144.5330 C   0  0  0  0  0  2  0  0  0  0  0  0
  183.0910  178.4530  143.5230 C   0  0  0  0  0  2  0  0  0  0  0  0
  186.3910  178.8950  141.9050 C   0  0  0  0  0  2  0  0  0  0  0  0
  186.7790  177.6690  142.5780 N   0  0  0  0  0  2  0  0  0  0  0  0
  188.1630  177.3970  142.2190 C   0  0  0  0  0  2  0  0  0  0  0  0
  188.9450  176.8710  143.4250 C   0  0  1  0  0  3  0  0  0  0  0  0
  189.9780  176.0400  142.9890 O   0  0  0  0  0  0  0  0  0  0  0  0
  190.1200  176.3300  141.6320 C   0  0  0  0  0  1  0  0  0  0  0  0
  189.5100  177.9790  144.3360 C   0  0  2  0  0  3  0  0  0  0  0  0
  190.4360  178.9140  143.5740 C   0  0  0  0  0  2  0  0  0  0  0  0
  191.8530  178.7980  144.1000 C   0  0  0  0  0  1  0  0  0  0  0  0
  190.2230  177.4330  145.5670 C   0  0  0  0  0  2  0  0  0  0  0  0
  189.2520  176.9620  146.5410 N   0  0  0  0  0  2  0  0  0  0  0  0
  189.9590  178.0670  148.5820 C   0  0  0  0  0  1  0  0  0  0  0  0
  188.9650  178.0700  147.4380 C   0  0  2  0  0  3  0  0  0  0  0  0
  186.4910  178.1240  147.1120 O   0  0  0  0  0  0  0  0  0  0  0  0
  187.5730  177.9600  147.9710 C   0  0  0  0  0  0  0  0  0  0  0  0
  187.3700  177.7590  149.1970 O   0  0  0  0  0  1  0  0  0  0  0  0
  1  5  2  0  0  0  0
  1 27  1  0  0  0  0
  2  3  2  0  0  0  0
  2  4  1  0  0  0  0
  3  1  1  0  0  0  0
  4  5  1  0  0  0  0
  6  7  3  0  0  0  0
  7  3  1  0  0  0  0
  8 10  1  6  0  0  0
  8  4  1  0  0  0  0
  8 11  1  0  0  0  0
  9 10  1  0  0  0  0
 12 11  1  0  0  0  0
 13 15  1  0  0  0  0
 14 13  1  0  0  0  0
 14 15  2  0  0  0  0
 16 12  1  0  0  0  0
 16 14  1  0  0  0  0
 17 13  1  0  0  0  0
 18 17  1  0  0  0  0
 19 26  1  0  0  0  0
 21 20  1  6  0  0  0
 21 22  1  0  0  0  0
 23 18  1  6  0  0  0
 23 20  1  0  0  0  0
 24 23  1  0  0  0  0
 25 24  1  6  0  0  0
 25 19  1  0  0  0  0
 25 21  1  0  0  0  0
 26 22  1  0  0  0  0
 27 28  1  0  0  0  0
 28 29  1  0  0  0  0
 30 29  1  6  0  0  0
 30 31  1  0  0  0  0
 30 34  1  0  0  0  0
 31 35  1  1  0  0  0
 31 32  1  0  0  0  0
 32 33  1  0  0  0  0
 34 33  1  0  0  0  0
 35 36  1  0  0  0  0
 37 36  1  0  0  0  0
 38 37  1  6  0  0  0
 38 41  1  0  0  0  0
 39 38  1  0  0  0  0
 40 39  1  0  0  0  0
 41 42  1  6  0  0  0
 41 44  1  0  0  0  0
 42 43  1  0  0  0  0
 44 45  1  0  0  0  0
 45 47  1  0  0  0  0
 47 49  1  0  0  0  0
 47 46  1  1  0  0  0
 48 49  2  0  0  0  0
 49 50  1  0  0  0  0
M  END
>  <MODEL>
7

>  <REMARK>
 VINA RESULT:      -6.0      2.001      3.923
  Name = 
  24 active torsions:
  status: ('A' for Active; 'I' for Inactive)
    1  A    between atoms: O_2  and  C_16
    2  A    between atoms: N_5  and  CA_17
    3  A    between atoms: N_5  and  C_46
    4  A    between atoms: N_6  and  C_23
    5  A    between atoms: N_6  and  C_31
    6  A    between atoms: N_7  and  N_45
    7  A    between atoms: C_9  and  C_49
    8  A    between atoms: C_14  and  CA_17
    9  A    between atoms: C_16  and  C_23
   10  A    between atoms: C_16  and  C_47
   11  A    between atoms: C_19  and  C_22
   12  A    between atoms: N_20  and  C_22
   13  A    between atoms: N_20  and  C_49
   14  A    between atoms: C_24  and  C_47
   15  A    between atoms: C_25  and  C_34
   16  A    between atoms: C_25  and  N_41
   17  A    between atoms: C_28  and  C_32
   18  A    between atoms: C_29  and  C_38
   19  A    between atoms: C_30  and  C_31
   20  A    between atoms: C_32  and  N_45
   21  A    between atoms: C_33  and  C_35
   22  A    between atoms: C_34  and  C_35
   23  A    between atoms: C_35  and  N_48
   24  A    between atoms: C_46  and  C_47
                            x       y       z     vdW  Elec       q    Type
                         _______ _______ _______ _____ _____    ______ ____

>  <TORSDO>
F 24

$$$$
=
 OpenBabel10232411173D

 50 54  0  0  1  0  0  0  0  0999 V2000
  187.4100  177.6950  145.5490 C   0  0  0  0  0  0  0  0  0  0  0  0
  189.5970  177.6410  145.8220 N   0  0  0  0  0  0  0  0  0  0  0  0
  188.4290  177.7660  146.4740 C   0  0  0  0  0  0  0  0  0  0  0  0
  189.2790  177.4910  144.5450 N   0  0  0  0  0  0  0  0  0  0  0  0
  187.9660  177.5330  144.3360 N   0  0  0  0  0  0  0  0  0  0  0  0
  188.2060  178.1020  149.0380 N   0  0  0  0  0  0  0  0  0  0  0  0
  188.3030  177.9510  147.8950 C   0  0  0  0  0  0  0  0  0  0  0  0
  190.2800  177.4000  143.4850 C   0  0  1  0  0  3  0  0  0  0  0  0
  191.8210  175.5240  144.0900 C   0  0  0  0  0  1  0  0  0  0  0  0
  191.6600  177.0300  144.0220 C   0  0  0  0  0  2  0  0  0  0  0  0
  189.8100  176.4710  142.3670 C   0  0  0  0  0  2  0  0  0  0  0  0
  189.6970  177.1740  141.0230 C   0  0  0  0  0  2  0  0  0  0  0  0
  192.3080  176.5520  138.2080 N   0  0  0  0  0  0  0  0  0  0  0  0
  191.3510  176.8500  139.1630 C   0  0  0  0  0  0  0  0  0  0  0  0
  190.9640  176.3800  137.9640 N   0  0  0  0  0  0  0  0  0  0  0  0
  191.0250  177.3440  140.4580 N   0  0  0  0  0  2  0  0  0  0  0  0
  193.6460  176.4710  137.8020 N   0  0  0  0  0  2  0  0  0  0  0  0
  193.6590  175.9560  136.4400 C   0  0  0  0  0  2  0  0  0  0  0  0
  195.6500  172.3480  138.4850 N   0  0  0  0  0  2  0  0  0  0  0  0
  194.3580  173.7090  135.6130 C   0  0  0  0  0  2  0  0  0  0  0  0
  195.0700  172.7430  136.4100 N   0  0  2  0  0  0  0  0  0  0  0  0
  194.6060  171.3930  136.5650 C   0  0  0  0  0  2  0  0  0  0  0  0
  194.8460  175.0270  136.2340 C   0  0  2  0  0  3  0  0  0  0  0  0
  195.4330  174.5780  137.5830 C   0  0  0  0  0  2  0  0  0  0  0  0
  194.9150  173.2340  137.6950 N   0  0  2  0  0  0  0  0  0  0  0  0
  195.2380  171.0530  137.9210 C   0  0  0  0  0  2  0  0  0  0  0  0
  185.9470  177.8160  145.7940 C   0  0  0  0  0  2  0  0  0  0  0  0
  185.3910  178.8700  144.9650 N   0  0  0  0  0  2  0  0  0  0  0  0
  184.9600  178.2380  143.7260 C   0  0  0  0  0  2  0  0  0  0  0  0
  183.8880  179.0690  143.0230 C   0  0  1  0  0  3  0  0  0  0  0  0
  183.3990  178.4150  141.7400 C   0  0  1  0  0  3  0  0  0  0  0  0
  181.9350  178.7700  141.6460 C   0  0  0  0  0  2  0  0  0  0  0  0
  181.4590  178.8790  143.0770 C   0  0  0  0  0  2  0  0  0  0  0  0
  182.6660  179.2820  143.9060 C   0  0  0  0  0  2  0  0  0  0  0  0
  184.1480  178.9480  140.5290 C   0  0  0  0  0  2  0  0  0  0  0  0
  183.4040  178.6360  139.3220 N   0  0  0  0  0  2  0  0  0  0  0  0
  183.9820  177.4250  138.7580 C   0  0  0  0  0  2  0  0  0  0  0  0
  183.1390  176.9140  137.5860 C   0  0  1  0  0  3  0  0  0  0  0  0
  182.9450  177.9430  136.6630 O   0  0  0  0  0  0  0  0  0  0  0  0
  181.6000  177.8490  136.3040 C   0  0  0  0  0  1  0  0  0  0  0  0
  183.7330  175.6790  136.8810 C   0  0  2  0  0  3  0  0  0  0  0  0
  183.1050  174.3880  137.3850 C   0  0  0  0  0  2  0  0  0  0  0  0
  181.6690  174.2780  136.9120 C   0  0  0  0  0  1  0  0  0  0  0  0
  185.2500  175.5970  136.9980 C   0  0  0  0  0  2  0  0  0  0  0  0
  185.8770  176.3240  135.9070 N   0  0  0  0  0  2  0  0  0  0  0  0
  187.1030  178.3860  136.2700 C   0  0  0  0  0  1  0  0  0  0  0  0
  187.1220  176.8780  136.4150 C   0  0  2  0  0  3  0  0  0  0  0  0
  189.0530  177.1320  134.8530 O   0  0  0  0  0  0  0  0  0  0  0  0
  188.2860  176.3080  135.6690 C   0  0  0  0  0  0  0  0  0  0  0  0
  188.5550  175.0790  135.7440 O   0  0  0  0  0  1  0  0  0  0  0  0
  1 27  1  0  0  0  0
  1  3  1  0  0  0  0
  2  3  2  0  0  0  0
  3  7  1  0  0  0  0
  4  2  1  0  0  0  0
  5  4  1  0  0  0  0
  5  1  2  0  0  0  0
  7  6  3  0  0  0  0
  8 11  1  6  0  0  0
  8 10  1  0  0  0  0
  8  4  1  0  0  0  0
 10  9  1  0  0  0  0
 12 11  1  0  0  0  0
 13 14  1  0  0  0  0
 14 16  1  0  0  0  0
 15 13  1  0  0  0  0
 15 14  2  0  0  0  0
 16 12  1  0  0  0  0
 17 13  1  0  0  0  0
 18 17  1  0  0  0  0
 20 23  1  0  0  0  0
 21 20  1  6  0  0  0
 21 22  1  0  0  0  0
 21 25  1  0  0  0  0
 22 26  1  0  0  0  0
 23 18  1  1  0  0  0
 23 24  1  0  0  0  0
 25 24  1  6  0  0  0
 25 19  1  0  0  0  0
 26 19  1  0  0  0  0
 28 27  1  0  0  0  0
 29 28  1  0  0  0  0
 30 29  1  1  0  0  0
 30 34  1  0  0  0  0
 31 35  1  6  0  0  0
 31 30  1  0  0  0  0
 32 31  1  0  0  0  0
 32 33  1  0  0  0  0
 33 34  1  0  0  0  0
 36 35  1  0  0  0  0
 37 36  1  0  0  0  0
 38 37  1  1  0  0  0
 39 38  1  0  0  0  0
 40 39  1  0  0  0  0
 41 44  1  1  0  0  0
 41 42  1  0  0  0  0
 41 38  1  0  0  0  0
 43 42  1  0  0  0  0
 45 47  1  0  0  0  0
 45 44  1  0  0  0  0
 47 46  1  6  0  0  0
 48 49  2  0  0  0  0
 49 50  1  0  0  0  0
 49 47  1  0  0  0  0
M  END
>  <MODEL>
8

>  <REMARK>
 VINA RESULT:      -6.0      2.873      7.828
  Name = 
  24 active torsions:
  status: ('A' for Active; 'I' for Inactive)
    1  A    between atoms: O_2  and  C_16
    2  A    between atoms: N_5  and  CA_17
    3  A    between atoms: N_5  and  C_46
    4  A    between atoms: N_6  and  C_23
    5  A    between atoms: N_6  and  C_31
    6  A    between atoms: N_7  and  N_45
    7  A    between atoms: C_9  and  C_49
    8  A    between atoms: C_14  and  CA_17
    9  A    between atoms: C_16  and  C_23
   10  A    between atoms: C_16  and  C_47
   11  A    between atoms: C_19  and  C_22
   12  A    between atoms: N_20  and  C_22
   13  A    between atoms: N_20  and  C_49
   14  A    between atoms: C_24  and  C_47
   15  A    between atoms: C_25  and  C_34
   16  A    between atoms: C_25  and  N_41
   17  A    between atoms: C_28  and  C_32
   18  A    between atoms: C_29  and  C_38
   19  A    between atoms: C_30  and  C_31
   20  A    between atoms: C_32  and  N_45
   21  A    between atoms: C_33  and  C_35
   22  A    between atoms: C_34  and  C_35
   23  A    between atoms: C_35  and  N_48
   24  A    between atoms: C_46  and  C_47
                            x       y       z     vdW  Elec       q    Type
                         _______ _______ _______ _____ _____    ______ ____

>  <TORSDO>
F 24

$$$$
=
 OpenBabel10232411173D

 50 54  0  0  1  0  0  0  0  0999 V2000
  189.0750  176.7190  142.8410 C   0  0  0  0  0  0  0  0  0  0  0  0
  190.9780  177.0110  141.7660 N   0  0  0  0  0  0  0  0  0  0  0  0
  190.3960  177.0890  142.9750 C   0  0  0  0  0  0  0  0  0  0  0  0
  190.0290  176.5990  140.9390 N   0  0  0  0  0  0  0  0  0  0  0  0
  188.8600  176.4240  141.5470 N   0  0  0  0  0  0  0  0  0  0  0  0
  191.6090  177.8340  145.1450 N   0  0  0  0  0  0  0  0  0  0  0  0
  191.0660  177.5010  144.1780 C   0  0  0  0  0  0  0  0  0  0  0  0
  190.2400  176.4610  139.5000 C   0  0  1  0  0  3  0  0  0  0  0  0
  189.0250  178.6100  139.0920 C   0  0  0  0  0  1  0  0  0  0  0  0
  189.1520  177.1540  138.6860 C   0  0  0  0  0  2  0  0  0  0  0  0
  191.6480  176.9050  139.1090 C   0  0  0  0  0  2  0  0  0  0  0  0
  192.0020  176.5530  137.6720 C   0  0  0  0  0  2  0  0  0  0  0  0
  195.2860  175.8130  135.7250 N   0  0  0  0  0  0  0  0  0  0  0  0
  194.1510  176.1630  136.4350 C   0  0  0  0  0  0  0  0  0  0  0  0
  194.3540  176.6880  135.2140 N   0  0  0  0  0  0  0  0  0  0  0  0
  193.3700  176.0650  137.6220 N   0  0  0  0  0  2  0  0  0  0  0  0
  196.4820  175.0930  135.6080 N   0  0  0  0  0  2  0  0  0  0  0  0
  196.1800  173.6960  135.8860 C   0  0  0  0  0  2  0  0  0  0  0  0
  198.4140  175.5610  139.4490 N   0  0  0  0  0  2  0  0  0  0  0  0
  195.8540  173.5560  138.3550 C   0  0  0  0  0  2  0  0  0  0  0  0
  196.7440  174.1490  139.3200 N   0  0  2  0  0  0  0  0  0  0  0  0
  196.2720  175.0270  140.3530 C   0  0  0  0  0  2  0  0  0  0  0  0
  196.8200  173.2640  137.1970 C   0  0  2  0  0  3  0  0  0  0  0  0
  198.0370  174.1440  137.5300 C   0  0  0  0  0  2  0  0  0  0  0  0
  197.4970  175.0160  138.5470 N   0  0  2  0  0  0  0  0  0  0  0  0
  197.5440  175.8470  140.6020 C   0  0  0  0  0  2  0  0  0  0  0  0
  188.0280  176.6810  143.8980 C   0  0  0  0  0  2  0  0  0  0  0  0
  187.4030  177.9850  144.0230 N   0  0  0  0  0  2  0  0  0  0  0  0
  186.3950  178.0640  142.9750 C   0  0  0  0  0  2  0  0  0  0  0  0
  185.2330  178.9650  143.3890 C   0  0  1  0  0  3  0  0  0  0  0  0
  183.8810  178.3180  143.1340 C   0  0  1  0  0  3  0  0  0  0  0  0
  182.9920  178.7990  144.2550 C   0  0  0  0  0  2  0  0  0  0  0  0
  183.9140  178.9940  145.4380 C   0  0  0  0  0  2  0  0  0  0  0  0
  185.2860  179.3130  144.8700 C   0  0  0  0  0  2  0  0  0  0  0  0
  183.3100  178.7450  141.7910 C   0  0  0  0  0  2  0  0  0  0  0  0
  184.3880  178.8930  140.8300 N   0  0  0  0  0  2  0  0  0  0  0  0
  183.7860  179.2720  139.5590 C   0  0  0  0  0  2  0  0  0  0  0  0
  182.4050  178.6320  139.3990 C   0  0  1  0  0  3  0  0  0  0  0  0
  181.4820  179.6000  139.0010 O   0  0  0  0  0  0  0  0  0  0  0  0
  182.2570  180.6580  138.5270 C   0  0  0  0  0  1  0  0  0  0  0  0
  182.3770  177.4430  138.4190 C   0  0  2  0  0  3  0  0  0  0  0  0
  182.2170  176.1180  139.1480 C   0  0  0  0  0  2  0  0  0  0  0  0
  180.7590  175.8720  139.4830 C   0  0  0  0  0  1  0  0  0  0  0  0
  183.6010  177.3900  137.5110 C   0  0  0  0  0  2  0  0  0  0  0  0
  183.7250  176.0710  136.9140 N   0  0  0  0  0  2  0  0  0  0  0  0
  186.1430  176.1210  136.7160 C   0  0  0  0  0  1  0  0  0  0  0  0
  184.9580  175.4840  137.4140 C   0  0  2  0  0  3  0  0  0  0  0  0
  185.6020  173.1680  138.0900 O   0  0  0  0  0  1  0  0  0  0  0  0
  184.9620  174.0070  137.1830 C   0  0  0  0  0  0  0  0  0  0  0  0
  184.4240  173.5180  136.1540 O   0  0  0  0  0  0  0  0  0  0  0  0
  1  3  1  0  0  0  0
  1 27  1  0  0  0  0
  2  3  2  0  0  0  0
  3  7  1  0  0  0  0
  4  5  1  0  0  0  0
  4  2  1  0  0  0  0
  5  1  2  0  0  0  0
  7  6  3  0  0  0  0
  8 10  1  6  0  0  0
  8  4  1  0  0  0  0
 10  9  1  0  0  0  0
 11  8  1  0  0  0  0
 12 11  1  0  0  0  0
 13 14  1  0  0  0  0
 14 16  1  0  0  0  0
 15 13  1  0  0  0  0
 15 14  2  0  0  0  0
 16 12  1  0  0  0  0
 17 13  1  0  0  0  0
 17 18  1  0  0  0  0
 19 26  1  0  0  0  0
 21 20  1  6  0  0  0
 21 22  1  0  0  0  0
 22 26  1  0  0  0  0
 23 18  1  6  0  0  0
 23 24  1  0  0  0  0
 23 20  1  0  0  0  0
 25 24  1  6  0  0  0
 25 21  1  0  0  0  0
 25 19  1  0  0  0  0
 27 28  1  0  0  0  0
 29 28  1  0  0  0  0
 30 29  1  1  0  0  0
 30 34  1  0  0  0  0
 31 35  1  6  0  0  0
 31 30  1  0  0  0  0
 31 32  1  0  0  0  0
 32 33  1  0  0  0  0
 34 33  1  0  0  0  0
 36 35  1  0  0  0  0
 37 36  1  0  0  0  0
 38 37  1  6  0  0  0
 39 38  1  0  0  0  0
 40 39  1  0  0  0  0
 41 44  1  1  0  0  0
 41 42  1  0  0  0  0
 41 38  1  0  0  0  0
 42 43  1  0  0  0  0
 45 47  1  0  0  0  0
 45 44  1  0  0  0  0
 47 46  1  6  0  0  0
 49 47  1  0  0  0  0
 49 48  1  0  0  0  0
 50 49  2  0  0  0  0
M  END
>  <MODEL>
9

>  <REMARK>
 VINA RESULT:      -5.7      3.080      7.432
  Name = 
  24 active torsions:
  status: ('A' for Active; 'I' for Inactive)
    1  A    between atoms: O_2  and  C_16
    2  A    between atoms: N_5  and  CA_17
    3  A    between atoms: N_5  and  C_46
    4  A    between atoms: N_6  and  C_23
    5  A    between atoms: N_6  and  C_31
    6  A    between atoms: N_7  and  N_45
    7  A    between atoms: C_9  and  C_49
    8  A    between atoms: C_14  and  CA_17
    9  A    between atoms: C_16  and  C_23
   10  A    between atoms: C_16  and  C_47
   11  A    between atoms: C_19  and  C_22
   12  A    between atoms: N_20  and  C_22
   13  A    between atoms: N_20  and  C_49
   14  A    between atoms: C_24  and  C_47
   15  A    between atoms: C_25  and  C_34
   16  A    between atoms: C_25  and  N_41
   17  A    between atoms: C_28  and  C_32
   18  A    between atoms: C_29  and  C_38
   19  A    between atoms: C_30  and  C_31
   20  A    between atoms: C_32  and  N_45
   21  A    between atoms: C_33  and  C_35
   22  A    between atoms: C_34  and  C_35
   23  A    between atoms: C_35  and  N_48
   24  A    between atoms: C_46  and  C_47
                            x       y       z     vdW  Elec       q    Type
                         _______ _______ _______ _____ _____    ______ ____

>  <TORSDO>
F 24

$$$$
