=
 OpenBabel10232408433D

 30 33  0  0  1  0  0  0  0  0999 V2000
  188.4900  177.9850  138.6540 C   0  0  0  0  0  0  0  0  0  0  0  0
  188.2320  178.2220  136.3440 C   0  0  1  0  0  3  0  0  0  0  0  0
  189.5670  177.5160  136.6060 C   0  0  0  0  0  2  0  0  0  0  0  0
  187.3510  177.3530  135.6090 N   0  0  0  0  0  0  0  0  0  0  0  0
  188.2900  178.2540  139.9170 C   0  0  0  0  0  0  0  0  0  0  0  0
  185.1850  176.2780  135.5180 C   0  0  0  0  0  1  0  0  0  0  0  0
  187.6170  178.4410  137.6390 N   0  0  0  0  0  0  0  0  0  0  0  0
  189.7700  177.4640  138.1200 C   0  0  2  0  0  3  0  0  0  0  0  0
  188.0880  178.5210  141.1750 C   0  0  0  0  0  3  0  0  0  0  0  0
  185.8960  178.0490  137.6660 S   0  0  0  0  0  0  0  0  0  0  0  0
  186.1930  177.1870  136.1310 C   0  0  0  0  0  0  0  0  0  0  0  0
  188.9680  177.9940  142.1590 N   0  0  0  0  0  2  0  0  0  0  0  0
  188.5000  177.0030  143.1090 C   0  0  0  0  0  2  0  0  0  0  0  0
  189.7160  177.3250  146.6690 C   0  0  0  0  0  0  0  0  0  0  0  0
  188.8790  177.3570  145.5510 C   0  0  0  0  0  3  0  0  0  0  0  0
  191.0540  176.9240  146.5280 C   0  0  0  0  0  0  0  0  0  0  0  0
  189.3890  177.0040  144.3010 C   0  0  0  0  0  0  0  0  0  0  0  0
  190.6840  176.6100  144.1810 N   0  0  0  0  0  0  0  0  0  0  0  0
  191.5190  176.5650  145.2540 C   0  0  0  0  0  3  0  0  0  0  0  0
  187.7000  178.0870  147.8750 C   0  0  0  0  0  1  0  0  0  0  0  0
  189.1580  177.6870  148.0070 C   0  0  0  0  0  2  0  0  0  0  0  0
  191.8930  176.8850  147.6470 O   0  0  0  0  0  0  0  0  0  0  0  0
  192.6350  175.7290  148.0150 C   0  0  0  0  0  1  0  0  0  0  0  0
  189.9720  176.0160  138.5420 C   0  0  0  0  0  2  0  0  0  0  0  0
  193.5290  175.0270  137.2810 C   0  0  0  0  0  0  0  0  0  0  0  0
  192.7030  176.3220  137.9630 S   0  0  0  0  0  0  0  0  0  0  0  0
  194.9750  175.0110  136.9410 C   0  0  0  0  0  1  0  0  0  0  0  0
  191.3780  174.2290  137.4950 N   0  0  0  0  0  0  0  0  0  0  0  0
  192.6520  173.9670  137.0940 C   0  0  0  0  0  3  0  0  0  0  0  0
  191.2460  175.4820  137.9830 C   0  0  0  0  0  0  0  0  0  0  0  0
  1  5  2  0  0  0  0
  2  3  1  1  0  0  0
  2  7  1  0  0  0  0
  3  8  1  0  0  0  0
  4 11  2  0  0  0  0
  4  2  1  0  0  0  0
  5  9  2  0  0  0  0
  6 11  1  0  0  0  0
  7 10  1  0  0  0  0
  7  1  1  0  0  0  0
  8 24  1  1  0  0  0
  8  1  1  0  0  0  0
  9 12  1  0  0  0  0
 11 10  1  0  0  0  0
 12 13  1  0  0  0  0
 13 17  1  0  0  0  0
 14 21  1  0  0  0  0
 15 14  2  0  0  0  0
 16 14  1  0  0  0  0
 16 22  1  0  0  0  0
 17 15  1  0  0  0  0
 18 17  2  0  0  0  0
 18 19  1  0  0  0  0
 19 16  2  0  0  0  0
 20 21  1  0  0  0  0
 22 23  1  0  0  0  0
 25 26  1  0  0  0  0
 26 30  1  0  0  0  0
 27 25  1  0  0  0  0
 28 30  2  0  0  0  0
 29 25  2  0  0  0  0
 29 28  1  0  0  0  0
 30 24  1  0  0  0  0
M  END
>  <MODEL>
1

>  <REMARK>
 VINA RESULT:      -8.1      0.000      0.000
  Name = 
  7 active torsions:
  status: ('A' for Active; 'I' for Inactive)
    1  A    between atoms: C_2  and  C_28
    2  A    between atoms: N_4  and  C_23
    3  A    between atoms: N_4  and  C_26
    4  A    between atoms: C_5  and  O_14
    5  A    between atoms: C_7  and  C_26
    6  A    between atoms: C_18  and  C_21
    7  A    between atoms: C_18  and  C_30
                            x       y       z     vdW  Elec       q    Type
                         _______ _______ _______ _____ _____    ______ ____

>  <TORSDO>
F 7

$$$$
=
 OpenBabel10232408433D

 30 33  0  0  1  0  0  0  0  0999 V2000
  190.6990  177.2540  138.6790 C   0  0  0  0  0  0  0  0  0  0  0  0
  192.8760  176.6450  138.0860 C   0  0  1  0  0  3  0  0  0  0  0  0
  192.8220  176.8050  139.6090 C   0  0  0  0  0  2  0  0  0  0  0  0
  193.1920  175.2820  137.7430 N   0  0  0  0  0  0  0  0  0  0  0  0
  189.5000  177.7430  138.5030 C   0  0  0  0  0  0  0  0  0  0  0  0
  192.5400  173.3050  136.5130 C   0  0  0  0  0  1  0  0  0  0  0  0
  191.5350  176.8980  137.5940 N   0  0  0  0  0  0  0  0  0  0  0  0
  191.4230  177.3050  139.9700 C   0  0  2  0  0  3  0  0  0  0  0  0
  188.3060  178.2290  138.3250 C   0  0  0  0  0  3  0  0  0  0  0  0
  191.0100  175.7330  136.3760 S   0  0  0  0  0  0  0  0  0  0  0  0
  192.3780  174.7260  136.9250 C   0  0  0  0  0  0  0  0  0  0  0  0
  187.4880  178.5210  139.4510 N   0  0  0  0  0  2  0  0  0  0  0  0
  188.0480  178.5100  140.7890 C   0  0  0  0  0  2  0  0  0  0  0  0
  186.1010  177.9870  143.9810 C   0  0  0  0  0  0  0  0  0  0  0  0
  187.1340  177.9440  143.0420 C   0  0  0  0  0  3  0  0  0  0  0  0
  184.8900  178.6200  143.6590 C   0  0  0  0  0  0  0  0  0  0  0  0
  186.9440  178.5210  141.7860 C   0  0  0  0  0  0  0  0  0  0  0  0
  185.7690  179.1370  141.4900 N   0  0  0  0  0  0  0  0  0  0  0  0
  184.7490  179.1970  142.3880 C   0  0  0  0  0  3  0  0  0  0  0  0
  187.7210  177.6930  145.8230 C   0  0  0  0  0  1  0  0  0  0  0  0
  186.3180  177.3830  145.3310 C   0  0  0  0  0  2  0  0  0  0  0  0
  183.8550  178.6690  144.5990 O   0  0  0  0  0  0  0  0  0  0  0  0
  182.4840  178.7490  144.2320 C   0  0  0  0  0  1  0  0  0  0  0  0
  190.7980  176.3430  140.9700 C   0  0  0  0  0  2  0  0  0  0  0  0
  191.4320  177.0830  144.7470 C   0  0  0  0  0  0  0  0  0  0  0  0
  191.0410  175.8140  143.7170 S   0  0  0  0  0  0  0  0  0  0  0  0
  191.6270  176.9720  146.2150 C   0  0  0  0  0  1  0  0  0  0  0  0
  191.3360  178.0920  142.6780 N   0  0  0  0  0  0  0  0  0  0  0  0
  191.5570  178.2540  144.0110 C   0  0  0  0  0  3  0  0  0  0  0  0
  191.0330  176.8130  142.3630 C   0  0  0  0  0  0  0  0  0  0  0  0
  1  8  1  0  0  0  0
  2  3  1  1  0  0  0
  3  8  1  0  0  0  0
  4  2  1  0  0  0  0
  5  1  2  0  0  0  0
  6 11  1  0  0  0  0
  7  2  1  0  0  0  0
  7  1  1  0  0  0  0
  8 24  1  1  0  0  0
  9  5  2  0  0  0  0
  9 12  1  0  0  0  0
 10 11  1  0  0  0  0
 10  7  1  0  0  0  0
 11  4  2  0  0  0  0
 12 13  1  0  0  0  0
 13 17  1  0  0  0  0
 14 21  1  0  0  0  0
 15 14  2  0  0  0  0
 16 14  1  0  0  0  0
 16 22  1  0  0  0  0
 17 15  1  0  0  0  0
 18 17  2  0  0  0  0
 18 19  1  0  0  0  0
 19 16  2  0  0  0  0
 21 20  1  0  0  0  0
 23 22  1  0  0  0  0
 24 30  1  0  0  0  0
 25 27  1  0  0  0  0
 26 25  1  0  0  0  0
 28 29  1  0  0  0  0
 29 25  2  0  0  0  0
 30 28  2  0  0  0  0
 30 26  1  0  0  0  0
M  END
>  <MODEL>
2

>  <REMARK>
 VINA RESULT:      -8.0      3.047      5.904
  Name = 
  7 active torsions:
  status: ('A' for Active; 'I' for Inactive)
    1  A    between atoms: C_2  and  C_28
    2  A    between atoms: N_4  and  C_23
    3  A    between atoms: N_4  and  C_26
    4  A    between atoms: C_5  and  O_14
    5  A    between atoms: C_7  and  C_26
    6  A    between atoms: C_18  and  C_21
    7  A    between atoms: C_18  and  C_30
                            x       y       z     vdW  Elec       q    Type
                         _______ _______ _______ _____ _____    ______ ____

>  <TORSDO>
F 7

$$$$
=
 OpenBabel10232408433D

 30 33  0  0  1  0  0  0  0  0999 V2000
  190.4840  176.2180  138.7660 C   0  0  0  0  0  0  0  0  0  0  0  0
  191.1250  174.9020  136.9450 C   0  0  1  0  0  3  0  0  0  0  0  0
  189.7020  175.4110  136.6900 C   0  0  0  0  0  2  0  0  0  0  0  0
  192.0210  175.4170  135.9430 N   0  0  0  0  0  0  0  0  0  0  0  0
  190.5090  176.6570  139.9970 C   0  0  0  0  0  0  0  0  0  0  0  0
  194.0570  176.6420  135.4900 C   0  0  0  0  0  1  0  0  0  0  0  0
  191.5470  175.4670  138.2120 N   0  0  0  0  0  0  0  0  0  0  0  0
  189.2590  176.1820  137.9340 C   0  0  2  0  0  3  0  0  0  0  0  0
  190.5360  177.0940  141.2230 C   0  0  0  0  0  3  0  0  0  0  0  0
  193.1950  176.0980  138.1770 S   0  0  0  0  0  0  0  0  0  0  0  0
  193.0600  176.0110  136.3990 C   0  0  0  0  0  0  0  0  0  0  0  0
  189.4640  177.8900  141.7120 N   0  0  0  0  0  2  0  0  0  0  0  0
  188.2100  177.2750  142.1010 C   0  0  0  0  0  2  0  0  0  0  0  0
  186.6180  177.9750  145.4520 C   0  0  0  0  0  0  0  0  0  0  0  0
  186.7950  177.8660  144.0710 C   0  0  0  0  0  3  0  0  0  0  0  0
  187.6660  177.6290  146.3190 C   0  0  0  0  0  0  0  0  0  0  0  0
  188.0200  177.4260  143.5680 C   0  0  0  0  0  0  0  0  0  0  0  0
  189.0240  177.0870  144.4200 N   0  0  0  0  0  0  0  0  0  0  0  0
  188.8750  177.1800  145.7690 C   0  0  0  0  0  3  0  0  0  0  0  0
  184.4080  178.8960  144.8450 C   0  0  0  0  0  1  0  0  0  0  0  0
  185.2970  178.4290  145.9830 C   0  0  0  0  0  2  0  0  0  0  0  0
  187.4900  177.7330  147.7040 O   0  0  0  0  0  0  0  0  0  0  0  0
  188.5320  178.1340  148.5850 C   0  0  0  0  0  1  0  0  0  0  0  0
  188.8510  177.5890  137.5240 C   0  0  0  0  0  2  0  0  0  0  0  0
  184.9680  177.8330  137.8120 C   0  0  0  0  0  0  0  0  0  0  0  0
  186.1630  177.2350  136.7920 S   0  0  0  0  0  0  0  0  0  0  0  0
  183.5050  177.7060  137.5910 C   0  0  0  0  0  1  0  0  0  0  0  0
  186.9210  178.4320  138.8770 N   0  0  0  0  0  0  0  0  0  0  0  0
  185.5610  178.4560  138.9020 C   0  0  0  0  0  3  0  0  0  0  0  0
  187.4000  177.8070  137.7790 C   0  0  0  0  0  0  0  0  0  0  0  0
  1  5  2  0  0  0  0
  2  3  1  6  0  0  0
  2  7  1  0  0  0  0
  3  8  1  0  0  0  0
  4 11  2  0  0  0  0
  4  2  1  0  0  0  0
  5  9  2  0  0  0  0
  6 11  1  0  0  0  0
  7  1  1  0  0  0  0
  8 24  1  6  0  0  0
  8  1  1  0  0  0  0
  9 12  1  0  0  0  0
 10  7  1  0  0  0  0
 11 10  1  0  0  0  0
 12 13  1  0  0  0  0
 13 17  1  0  0  0  0
 14 21  1  0  0  0  0
 14 16  1  0  0  0  0
 15 14  2  0  0  0  0
 16 22  1  0  0  0  0
 17 15  1  0  0  0  0
 17 18  2  0  0  0  0
 18 19  1  0  0  0  0
 19 16  2  0  0  0  0
 20 21  1  0  0  0  0
 22 23  1  0  0  0  0
 24 30  1  0  0  0  0
 25 29  2  0  0  0  0
 26 30  1  0  0  0  0
 26 25  1  0  0  0  0
 27 25  1  0  0  0  0
 28 29  1  0  0  0  0
 30 28  2  0  0  0  0
M  END
>  <MODEL>
3

>  <REMARK>
 VINA RESULT:      -7.9      2.075      5.216
  Name = 
  7 active torsions:
  status: ('A' for Active; 'I' for Inactive)
    1  A    between atoms: C_2  and  C_28
    2  A    between atoms: N_4  and  C_23
    3  A    between atoms: N_4  and  C_26
    4  A    between atoms: C_5  and  O_14
    5  A    between atoms: C_7  and  C_26
    6  A    between atoms: C_18  and  C_21
    7  A    between atoms: C_18  and  C_30
                            x       y       z     vdW  Elec       q    Type
                         _______ _______ _______ _____ _____    ______ ____

>  <TORSDO>
F 7

$$$$
=
 OpenBabel10232408433D

 30 33  0  0  1  0  0  0  0  0999 V2000
  188.4330  177.8270  138.3690 C   0  0  0  0  0  0  0  0  0  0  0  0
  188.0410  178.1620  136.0890 C   0  0  1  0  0  3  0  0  0  0  0  0
  189.3470  177.3730  136.2390 C   0  0  0  0  0  2  0  0  0  0  0  0
  187.0650  177.3700  135.3860 N   0  0  0  0  0  0  0  0  0  0  0  0
  188.3300  178.0610  139.6500 C   0  0  0  0  0  0  0  0  0  0  0  0
  184.8390  176.4220  135.4040 C   0  0  0  0  0  1  0  0  0  0  0  0
  187.5240  178.3680  137.4280 N   0  0  0  0  0  0  0  0  0  0  0  0
  189.6430  177.2550  137.7340 C   0  0  2  0  0  3  0  0  0  0  0  0
  188.2250  178.2930  140.9270 C   0  0  0  0  0  3  0  0  0  0  0  0
  185.7880  178.0720  137.5570 S   0  0  0  0  0  0  0  0  0  0  0  0
  185.9350  177.2500  135.9780 C   0  0  0  0  0  0  0  0  0  0  0  0
  189.1340  177.6820  141.8330 N   0  0  0  0  0  2  0  0  0  0  0  0
  188.7160  176.5580  142.6480 C   0  0  0  0  0  2  0  0  0  0  0  0
  186.7290  177.8590  145.5840 C   0  0  0  0  0  0  0  0  0  0  0  0
  187.0560  177.4360  144.2930 C   0  0  0  0  0  3  0  0  0  0  0  0
  187.7140  177.8680  146.5850 C   0  0  0  0  0  0  0  0  0  0  0  0
  188.3640  177.0410  144.0100 C   0  0  0  0  0  0  0  0  0  0  0  0
  189.3050  177.0480  144.9910 N   0  0  0  0  0  0  0  0  0  0  0  0
  189.0120  177.4500  146.2570 C   0  0  0  0  0  3  0  0  0  0  0  0
  184.7990  179.1820  144.7950 C   0  0  0  0  0  1  0  0  0  0  0  0
  185.3230  178.2630  145.8840 C   0  0  0  0  0  2  0  0  0  0  0  0
  187.3890  178.2860  147.8800 O   0  0  0  0  0  0  0  0  0  0  0  0
  188.1930  177.9820  149.0120 C   0  0  0  0  0  1  0  0  0  0  0  0
  189.7880  175.7840  138.0940 C   0  0  0  0  0  2  0  0  0  0  0  0
  193.5030  174.8960  137.3040 C   0  0  0  0  0  0  0  0  0  0  0  0
  192.5550  176.1800  137.8300 S   0  0  0  0  0  0  0  0  0  0  0  0
  194.9790  174.9270  137.1390 C   0  0  0  0  0  1  0  0  0  0  0  0
  191.3730  174.0190  137.2940 N   0  0  0  0  0  0  0  0  0  0  0  0
  192.6940  173.7950  137.0580 C   0  0  0  0  0  3  0  0  0  0  0  0
  191.1370  175.2830  137.7120 C   0  0  0  0  0  0  0  0  0  0  0  0
  1  5  2  0  0  0  0
  2  3  1  1  0  0  0
  2  7  1  0  0  0  0
  3  8  1  0  0  0  0
  4 11  2  0  0  0  0
  4  2  1  0  0  0  0
  5  9  2  0  0  0  0
  6 11  1  0  0  0  0
  7 10  1  0  0  0  0
  7  1  1  0  0  0  0
  8 24  1  1  0  0  0
  8  1  1  0  0  0  0
  9 12  1  0  0  0  0
 11 10  1  0  0  0  0
 12 13  1  0  0  0  0
 13 17  1  0  0  0  0
 14 21  1  0  0  0  0
 14 16  1  0  0  0  0
 15 14  2  0  0  0  0
 16 22  1  0  0  0  0
 17 15  1  0  0  0  0
 17 18  2  0  0  0  0
 18 19  1  0  0  0  0
 19 16  2  0  0  0  0
 20 21  1  0  0  0  0
 22 23  1  0  0  0  0
 25 26  1  0  0  0  0
 27 25  1  0  0  0  0
 28 30  2  0  0  0  0
 29 28  1  0  0  0  0
 29 25  2  0  0  0  0
 30 26  1  0  0  0  0
 30 24  1  0  0  0  0
M  END
>  <MODEL>
4

>  <REMARK>
 VINA RESULT:      -7.7      1.524      2.072
  Name = 
  7 active torsions:
  status: ('A' for Active; 'I' for Inactive)
    1  A    between atoms: C_2  and  C_28
    2  A    between atoms: N_4  and  C_23
    3  A    between atoms: N_4  and  C_26
    4  A    between atoms: C_5  and  O_14
    5  A    between atoms: C_7  and  C_26
    6  A    between atoms: C_18  and  C_21
    7  A    between atoms: C_18  and  C_30
                            x       y       z     vdW  Elec       q    Type
                         _______ _______ _______ _____ _____    ______ ____

>  <TORSDO>
F 7

$$$$
=
 OpenBabel10232408433D

 30 33  0  0  1  0  0  0  0  0999 V2000
  186.3160  177.9350  143.2250 C   0  0  0  0  0  0  0  0  0  0  0  0
  187.0060  176.6900  145.0780 C   0  0  1  0  0  3  0  0  0  0  0  0
  188.0810  176.5670  143.9930 C   0  0  0  0  0  2  0  0  0  0  0  0
  187.5510  177.3410  146.2410 N   0  0  0  0  0  0  0  0  0  0  0  0
  185.4710  178.5410  142.4350 C   0  0  0  0  0  0  0  0  0  0  0  0
  187.3470  179.1630  147.8190 C   0  0  0  0  0  1  0  0  0  0  0  0
  185.9810  177.5700  144.5500 N   0  0  0  0  0  0  0  0  0  0  0  0
  187.5680  177.2980  142.7520 C   0  0  2  0  0  3  0  0  0  0  0  0
  184.6270  179.1470  141.6490 C   0  0  0  0  0  3  0  0  0  0  0  0
  185.4250  178.7700  145.7190 S   0  0  0  0  0  0  0  0  0  0  0  0
  186.8850  178.3530  146.6580 C   0  0  0  0  0  0  0  0  0  0  0  0
  185.0340  179.5380  140.3440 N   0  0  0  0  0  2  0  0  0  0  0  0
  184.1070  179.4650  139.2320 C   0  0  0  0  0  2  0  0  0  0  0  0
  185.5660  176.6700  137.1560 C   0  0  0  0  0  0  0  0  0  0  0  0
  185.4100  177.9110  137.7760 C   0  0  0  0  0  3  0  0  0  0  0  0
  184.5830  175.6800  137.3170 C   0  0  0  0  0  0  0  0  0  0  0  0
  184.2690  178.1590  138.5400 C   0  0  0  0  0  0  0  0  0  0  0  0
  183.3290  177.1880  138.6940 N   0  0  0  0  0  0  0  0  0  0  0  0
  183.4590  175.9700  138.1040 C   0  0  0  0  0  3  0  0  0  0  0  0
  187.1380  177.6150  135.5020 C   0  0  0  0  0  1  0  0  0  0  0  0
  186.7990  176.4060  136.3550 C   0  0  0  0  0  2  0  0  0  0  0  0
  184.7390  174.4330  136.7000 O   0  0  0  0  0  0  0  0  0  0  0  0
  184.8560  173.2210  137.4330 C   0  0  0  0  0  1  0  0  0  0  0  0
  188.5830  178.3560  142.3460 C   0  0  0  0  0  2  0  0  0  0  0  0
  189.9500  177.4480  138.8070 C   0  0  0  0  0  0  0  0  0  0  0  0
  190.1890  177.0780  140.4290 S   0  0  0  0  0  0  0  0  0  0  0  0
  190.6890  176.8450  137.6690 C   0  0  0  0  0  1  0  0  0  0  0  0
  188.4190  178.7880  139.8860 N   0  0  0  0  0  0  0  0  0  0  0  0
  188.9460  178.4000  138.6940 C   0  0  0  0  0  3  0  0  0  0  0  0
  189.0030  178.1600  140.9310 C   0  0  0  0  0  0  0  0  0  0  0  0
  1  7  1  0  0  0  0
  2  3  1  6  0  0  0
  2  4  1  0  0  0  0
  4 11  2  0  0  0  0
  5  1  2  0  0  0  0
  7  2  1  0  0  0  0
  7 10  1  0  0  0  0
  8 24  1  1  0  0  0
  8  1  1  0  0  0  0
  8  3  1  0  0  0  0
  9  5  2  0  0  0  0
 10 11  1  0  0  0  0
 11  6  1  0  0  0  0
 12  9  1  0  0  0  0
 13 12  1  0  0  0  0
 14 16  2  0  0  0  0
 14 15  1  0  0  0  0
 15 17  2  0  0  0  0
 16 19  1  0  0  0  0
 17 18  1  0  0  0  0
 17 13  1  0  0  0  0
 19 18  2  0  0  0  0
 20 21  1  0  0  0  0
 21 14  1  0  0  0  0
 22 16  1  0  0  0  0
 22 23  1  0  0  0  0
 25 26  1  0  0  0  0
 26 30  1  0  0  0  0
 27 25  1  0  0  0  0
 28 30  2  0  0  0  0
 29 25  2  0  0  0  0
 29 28  1  0  0  0  0
 30 24  1  0  0  0  0
M  END
>  <MODEL>
5

>  <REMARK>
 VINA RESULT:      -7.4      3.883      8.522
  Name = 
  7 active torsions:
  status: ('A' for Active; 'I' for Inactive)
    1  A    between atoms: C_2  and  C_28
    2  A    between atoms: N_4  and  C_23
    3  A    between atoms: N_4  and  C_26
    4  A    between atoms: C_5  and  O_14
    5  A    between atoms: C_7  and  C_26
    6  A    between atoms: C_18  and  C_21
    7  A    between atoms: C_18  and  C_30
                            x       y       z     vdW  Elec       q    Type
                         _______ _______ _______ _____ _____    ______ ____

>  <TORSDO>
F 7

$$$$
=
 OpenBabel10232408433D

 30 33  0  0  1  0  0  0  0  0999 V2000
  189.1360  177.5860  138.5980 C   0  0  0  0  0  0  0  0  0  0  0  0
  191.3690  177.0220  138.2060 C   0  0  1  0  0  3  0  0  0  0  0  0
  191.2060  177.3200  139.7010 C   0  0  0  0  0  2  0  0  0  0  0  0
  191.7590  175.6480  138.0170 N   0  0  0  0  0  0  0  0  0  0  0  0
  187.9340  178.0030  138.2990 C   0  0  0  0  0  0  0  0  0  0  0  0
  191.2680  173.5380  136.9420 C   0  0  0  0  0  1  0  0  0  0  0  0
  190.0560  177.1680  137.6080 N   0  0  0  0  0  0  0  0  0  0  0  0
  189.7680  177.7890  139.9220 C   0  0  2  0  0  3  0  0  0  0  0  0
  186.7360  178.4170  138.0000 C   0  0  0  0  0  3  0  0  0  0  0  0
  189.6600  175.8730  136.4760 S   0  0  0  0  0  0  0  0  0  0  0  0
  191.0250  174.9830  137.2050 C   0  0  0  0  0  0  0  0  0  0  0  0
  185.8330  178.7750  139.0380 N   0  0  0  0  0  2  0  0  0  0  0  0
  184.4060  178.5880  138.8680 C   0  0  0  0  0  2  0  0  0  0  0  0
  183.8780  178.5870  142.6070 C   0  0  0  0  0  0  0  0  0  0  0  0
  184.5090  178.5320  141.3620 C   0  0  0  0  0  3  0  0  0  0  0  0
  182.4840  178.7380  142.6760 C   0  0  0  0  0  0  0  0  0  0  0  0
  183.7420  178.6130  140.1990 C   0  0  0  0  0  0  0  0  0  0  0  0
  182.3940  178.7670  140.2810 N   0  0  0  0  0  0  0  0  0  0  0  0
  181.7560  178.8280  141.4810 C   0  0  0  0  0  3  0  0  0  0  0  0
  186.1160  178.0630  143.5100 C   0  0  0  0  0  1  0  0  0  0  0  0
  184.7080  178.5170  143.8470 C   0  0  0  0  0  2  0  0  0  0  0  0
  181.8490  178.7980  143.9220 O   0  0  0  0  0  0  0  0  0  0  0  0
  180.4550  178.5750  144.0880 C   0  0  0  0  0  1  0  0  0  0  0  0
  189.1130  176.8970  140.9670 C   0  0  0  0  0  2  0  0  0  0  0  0
  190.8500  177.1100  144.4540 C   0  0  0  0  0  0  0  0  0  0  0  0
  190.4930  176.0010  143.2420 S   0  0  0  0  0  0  0  0  0  0  0  0
  191.5960  176.8100  145.7030 C   0  0  0  0  0  1  0  0  0  0  0  0
  189.7110  178.3720  142.9000 N   0  0  0  0  0  0  0  0  0  0  0  0
  190.3490  178.3560  144.1010 C   0  0  0  0  0  3  0  0  0  0  0  0
  189.6980  177.1550  142.3130 C   0  0  0  0  0  0  0  0  0  0  0  0
  1  8  1  0  0  0  0
  2  3  1  1  0  0  0
  3  8  1  0  0  0  0
  4  2  1  0  0  0  0
  5  1  2  0  0  0  0
  6 11  1  0  0  0  0
  7  2  1  0  0  0  0
  7  1  1  0  0  0  0
  8 24  1  1  0  0  0
  9  5  2  0  0  0  0
  9 12  1  0  0  0  0
 10 11  1  0  0  0  0
 10  7  1  0  0  0  0
 11  4  2  0  0  0  0
 13 12  1  0  0  0  0
 13 17  1  0  0  0  0
 14 16  1  0  0  0  0
 14 21  1  0  0  0  0
 15 14  2  0  0  0  0
 16 22  1  0  0  0  0
 17 18  2  0  0  0  0
 17 15  1  0  0  0  0
 18 19  1  0  0  0  0
 19 16  2  0  0  0  0
 20 21  1  0  0  0  0
 22 23  1  0  0  0  0
 24 30  1  0  0  0  0
 25 27  1  0  0  0  0
 26 25  1  0  0  0  0
 28 29  1  0  0  0  0
 29 25  2  0  0  0  0
 30 28  2  0  0  0  0
 30 26  1  0  0  0  0
M  END
>  <MODEL>
6

>  <REMARK>
 VINA RESULT:      -7.4      3.963      6.739
  Name = 
  7 active torsions:
  status: ('A' for Active; 'I' for Inactive)
    1  A    between atoms: C_2  and  C_28
    2  A    between atoms: N_4  and  C_23
    3  A    between atoms: N_4  and  C_26
    4  A    between atoms: C_5  and  O_14
    5  A    between atoms: C_7  and  C_26
    6  A    between atoms: C_18  and  C_21
    7  A    between atoms: C_18  and  C_30
                            x       y       z     vdW  Elec       q    Type
                         _______ _______ _______ _____ _____    ______ ____

>  <TORSDO>
F 7

$$$$
=
 OpenBabel10232408433D

 30 33  0  0  1  0  0  0  0  0999 V2000
  184.3800  178.2470  140.2020 C   0  0  0  0  0  0  0  0  0  0  0  0
  183.8960  177.8840  137.9450 C   0  0  1  0  0  3  0  0  0  0  0  0
  185.3090  178.4720  138.0430 C   0  0  0  0  0  2  0  0  0  0  0  0
  183.9520  176.5590  137.3840 N   0  0  0  0  0  0  0  0  0  0  0  0
  184.1200  178.4450  141.4670 C   0  0  0  0  0  0  0  0  0  0  0  0
  183.3770  174.2250  137.6540 C   0  0  0  0  0  1  0  0  0  0  0  0
  183.4100  177.7420  139.3030 N   0  0  0  0  0  0  0  0  0  0  0  0
  185.5690  178.8010  139.5130 C   0  0  2  0  0  3  0  0  0  0  0  0
  183.8600  178.6390  142.7280 C   0  0  0  0  0  3  0  0  0  0  0  0
  182.6060  176.1970  139.5960 S   0  0  0  0  0  0  0  0  0  0  0  0
  183.3650  175.6530  138.0740 C   0  0  0  0  0  0  0  0  0  0  0  0
  184.8870  179.0990  143.5970 N   0  0  0  0  0  2  0  0  0  0  0  0
  185.1490  178.4180  144.8510 C   0  0  0  0  0  2  0  0  0  0  0  0
  188.5360  177.3290  146.1130 C   0  0  0  0  0  0  0  0  0  0  0  0
  187.2170  177.7890  146.0990 C   0  0  0  0  0  3  0  0  0  0  0  0
  189.1850  177.0310  144.9040 C   0  0  0  0  0  0  0  0  0  0  0  0
  186.5630  177.9610  144.8780 C   0  0  0  0  0  0  0  0  0  0  0  0
  187.2010  177.6610  143.7150 N   0  0  0  0  0  0  0  0  0  0  0  0
  188.4840  177.2080  143.7020 C   0  0  0  0  0  3  0  0  0  0  0  0
  188.6150  178.0380  148.4770 C   0  0  0  0  0  1  0  0  0  0  0  0
  189.2230  177.1300  147.4250 C   0  0  0  0  0  2  0  0  0  0  0  0
  190.5050  176.5660  144.9160 O   0  0  0  0  0  0  0  0  0  0  0  0
  191.2340  176.2870  143.7270 C   0  0  0  0  0  1  0  0  0  0  0  0
  186.8300  178.0810  139.9650 C   0  0  0  0  0  2  0  0  0  0  0  0
  189.2160  177.4680  136.9410 C   0  0  0  0  0  0  0  0  0  0  0  0
  188.0830  176.6660  137.8890 S   0  0  0  0  0  0  0  0  0  0  0  0
  189.9470  176.8790  135.7890 C   0  0  0  0  0  1  0  0  0  0  0  0
  188.5690  179.0720  138.4620 N   0  0  0  0  0  0  0  0  0  0  0  0
  189.3570  178.7720  137.3940 C   0  0  0  0  0  3  0  0  0  0  0  0
  187.8210  178.0170  138.8550 C   0  0  0  0  0  0  0  0  0  0  0  0
  1  5  2  0  0  0  0
  2  3  1  1  0  0  0
  2  7  1  0  0  0  0
  3  8  1  0  0  0  0
  4  2  1  0  0  0  0
  4 11  2  0  0  0  0
  5  9  2  0  0  0  0
  6 11  1  0  0  0  0
  7 10  1  0  0  0  0
  7  1  1  0  0  0  0
  8 24  1  1  0  0  0
  8  1  1  0  0  0  0
  9 12  1  0  0  0  0
 11 10  1  0  0  0  0
 12 13  1  0  0  0  0
 13 17  1  0  0  0  0
 14 21  1  0  0  0  0
 15 14  1  0  0  0  0
 16 22  1  0  0  0  0
 16 14  2  0  0  0  0
 17 15  2  0  0  0  0
 18 17  1  0  0  0  0
 19 18  2  0  0  0  0
 19 16  1  0  0  0  0
 21 20  1  0  0  0  0
 23 22  1  0  0  0  0
 25 29  2  0  0  0  0
 25 26  1  0  0  0  0
 26 30  1  0  0  0  0
 27 25  1  0  0  0  0
 28 30  2  0  0  0  0
 29 28  1  0  0  0  0
 30 24  1  0  0  0  0
M  END
>  <MODEL>
7

>  <REMARK>
 VINA RESULT:      -7.3      2.788      4.064
  Name = 
  7 active torsions:
  status: ('A' for Active; 'I' for Inactive)
    1  A    between atoms: C_2  and  C_28
    2  A    between atoms: N_4  and  C_23
    3  A    between atoms: N_4  and  C_26
    4  A    between atoms: C_5  and  O_14
    5  A    between atoms: C_7  and  C_26
    6  A    between atoms: C_18  and  C_21
    7  A    between atoms: C_18  and  C_30
                            x       y       z     vdW  Elec       q    Type
                         _______ _______ _______ _____ _____    ______ ____

>  <TORSDO>
F 7

$$$$
=
 OpenBabel10232408433D

 30 33  0  0  1  0  0  0  0  0999 V2000
  187.3350  178.2110  138.5180 C   0  0  0  0  0  0  0  0  0  0  0  0
  188.0790  178.0940  136.3060 C   0  0  1  0  0  3  0  0  0  0  0  0
  189.3070  178.1220  137.2230 C   0  0  0  0  0  2  0  0  0  0  0  0
  188.0350  176.8520  135.5790 N   0  0  0  0  0  0  0  0  0  0  0  0
  186.5000  178.4650  139.4900 C   0  0  0  0  0  0  0  0  0  0  0  0
  186.7440  174.8850  135.0160 C   0  0  0  0  0  1  0  0  0  0  0  0
  186.9150  178.1130  137.1700 N   0  0  0  0  0  0  0  0  0  0  0  0
  188.8070  178.3050  138.6560 C   0  0  2  0  0  3  0  0  0  0  0  0
  185.6670  178.7170  140.4580 C   0  0  0  0  0  3  0  0  0  0  0  0
  185.6670  176.9650  136.6800 S   0  0  0  0  0  0  0  0  0  0  0  0
  186.9300  176.2100  135.6690 C   0  0  0  0  0  0  0  0  0  0  0  0
  186.1340  178.7520  141.8000 N   0  0  0  0  0  2  0  0  0  0  0  0
  185.3110  178.2390  142.8790 C   0  0  0  0  0  2  0  0  0  0  0  0
  188.3050  177.4300  145.0320 C   0  0  0  0  0  0  0  0  0  0  0  0
  187.5060  177.6390  143.9060 C   0  0  0  0  0  3  0  0  0  0  0  0
  187.7550  177.5800  146.3150 C   0  0  0  0  0  0  0  0  0  0  0  0
  186.1640  177.9820  144.0700 C   0  0  0  0  0  0  0  0  0  0  0  0
  185.6460  178.1310  145.3180 N   0  0  0  0  0  0  0  0  0  0  0  0
  186.4040  177.9380  146.4320 C   0  0  0  0  0  3  0  0  0  0  0  0
  190.4720  178.2120  144.1420 C   0  0  0  0  0  1  0  0  0  0  0  0
  189.7460  177.0820  144.8490 C   0  0  0  0  0  2  0  0  0  0  0  0
  188.5540  177.3760  147.4460 O   0  0  0  0  0  0  0  0  0  0  0  0
  188.3580  178.0800  148.6650 C   0  0  0  0  0  1  0  0  0  0  0  0
  189.3350  177.1640  139.5130 C   0  0  0  0  0  2  0  0  0  0  0  0
  192.3310  175.3470  137.7980 C   0  0  0  0  0  0  0  0  0  0  0  0
  192.0000  176.6730  138.7770 S   0  0  0  0  0  0  0  0  0  0  0  0
  193.6820  174.9290  137.3420 C   0  0  0  0  0  1  0  0  0  0  0  0
  190.0410  175.2700  138.0360 N   0  0  0  0  0  0  0  0  0  0  0  0
  191.1450  174.6940  137.4890 C   0  0  0  0  0  3  0  0  0  0  0  0
  190.3450  176.3700  138.7600 C   0  0  0  0  0  0  0  0  0  0  0  0
  1  8  1  0  0  0  0
  1  5  2  0  0  0  0
  2  7  1  0  0  0  0
  2  3  1  1  0  0  0
  3  8  1  0  0  0  0
  4 11  2  0  0  0  0
  4  2  1  0  0  0  0
  5  9  2  0  0  0  0
  6 11  1  0  0  0  0
  7  1  1  0  0  0  0
  8 24  1  1  0  0  0
  9 12  1  0  0  0  0
 10  7  1  0  0  0  0
 11 10  1  0  0  0  0
 12 13  1  0  0  0  0
 13 17  1  0  0  0  0
 14 16  1  0  0  0  0
 15 17  1  0  0  0  0
 15 14  2  0  0  0  0
 16 19  2  0  0  0  0
 16 22  1  0  0  0  0
 17 18  2  0  0  0  0
 18 19  1  0  0  0  0
 20 21  1  0  0  0  0
 21 14  1  0  0  0  0
 22 23  1  0  0  0  0
 25 26  1  0  0  0  0
 27 25  1  0  0  0  0
 28 30  2  0  0  0  0
 29 25  2  0  0  0  0
 29 28  1  0  0  0  0
 30 26  1  0  0  0  0
 30 24  1  0  0  0  0
M  END
>  <MODEL>
8

>  <REMARK>
 VINA RESULT:      -7.3      1.950      2.702
  Name = 
  7 active torsions:
  status: ('A' for Active; 'I' for Inactive)
    1  A    between atoms: C_2  and  C_28
    2  A    between atoms: N_4  and  C_23
    3  A    between atoms: N_4  and  C_26
    4  A    between atoms: C_5  and  O_14
    5  A    between atoms: C_7  and  C_26
    6  A    between atoms: C_18  and  C_21
    7  A    between atoms: C_18  and  C_30
                            x       y       z     vdW  Elec       q    Type
                         _______ _______ _______ _____ _____    ______ ____

>  <TORSDO>
F 7

$$$$
=
 OpenBabel10232408433D

 30 33  0  0  1  0  0  0  0  0999 V2000
  189.2670  177.9660  143.0230 C   0  0  0  0  0  0  0  0  0  0  0  0
  190.6940  177.8800  144.8710 C   0  0  1  0  0  3  0  0  0  0  0  0
  189.2630  178.0770  145.3820 C   0  0  0  0  0  2  0  0  0  0  0  0
  191.2170  176.6220  145.3400 N   0  0  0  0  0  0  0  0  0  0  0  0
  188.9330  178.1450  141.7720 C   0  0  0  0  0  0  0  0  0  0  0  0
  192.2190  174.5030  144.7450 C   0  0  0  0  0  1  0  0  0  0  0  0
  190.6110  177.7840  143.4270 N   0  0  0  0  0  0  0  0  0  0  0  0
  188.3570  178.2370  144.1610 C   0  0  2  0  0  3  0  0  0  0  0  0
  188.6030  178.3220  140.5260 C   0  0  0  0  0  3  0  0  0  0  0  0
  191.6000  176.4830  142.7580 S   0  0  0  0  0  0  0  0  0  0  0  0
  191.6880  175.8570  144.4270 C   0  0  0  0  0  0  0  0  0  0  0  0
  187.2320  178.4470  140.1700 N   0  0  0  0  0  2  0  0  0  0  0  0
  186.7760  178.0550  138.8500 C   0  0  0  0  0  2  0  0  0  0  0  0
  183.1490  177.9900  137.8040 C   0  0  0  0  0  0  0  0  0  0  0  0
  184.4950  177.6390  137.9240 C   0  0  0  0  0  3  0  0  0  0  0  0
  182.6640  179.1320  138.4620 C   0  0  0  0  0  0  0  0  0  0  0  0
  185.3480  178.4370  138.6880 C   0  0  0  0  0  0  0  0  0  0  0  0
  184.8630  179.5360  139.3250 N   0  0  0  0  0  0  0  0  0  0  0  0
  183.5550  179.8970  139.2280 C   0  0  0  0  0  3  0  0  0  0  0  0
  182.2280  177.5720  135.5510 C   0  0  0  0  0  1  0  0  0  0  0  0
  182.2380  177.1200  137.0000 C   0  0  0  0  0  2  0  0  0  0  0  0
  181.3150  179.4840  138.3460 O   0  0  0  0  0  0  0  0  0  0  0  0
  180.8870  180.8030  138.0300 C   0  0  0  0  0  1  0  0  0  0  0  0
  187.2550  177.1890  144.2220 C   0  0  0  0  0  2  0  0  0  0  0  0
  183.6830  178.7360  143.9710 C   0  0  0  0  0  0  0  0  0  0  0  0
  184.8710  178.0410  143.0070 S   0  0  0  0  0  0  0  0  0  0  0  0
  182.3580  179.2120  143.4960 C   0  0  0  0  0  1  0  0  0  0  0  0
  185.3760  178.2810  145.4650 N   0  0  0  0  0  0  0  0  0  0  0  0
  184.1260  178.7880  145.2850 C   0  0  0  0  0  3  0  0  0  0  0  0
  185.9190  177.8420  144.3070 C   0  0  0  0  0  0  0  0  0  0  0  0
  1  7  1  0  0  0  0
  1  8  1  0  0  0  0
  2  4  1  0  0  0  0
  2  3  1  1  0  0  0
  5  1  2  0  0  0  0
  7  2  1  0  0  0  0
  8 24  1  1  0  0  0
  8  3  1  0  0  0  0
  9  5  2  0  0  0  0
 10  7  1  0  0  0  0
 10 11  1  0  0  0  0
 11  6  1  0  0  0  0
 11  4  2  0  0  0  0
 12  9  1  0  0  0  0
 13 12  1  0  0  0  0
 14 15  2  0  0  0  0
 14 16  1  0  0  0  0
 15 17  1  0  0  0  0
 16 19  2  0  0  0  0
 17 13  1  0  0  0  0
 17 18  2  0  0  0  0
 19 18  1  0  0  0  0
 20 21  1  0  0  0  0
 21 14  1  0  0  0  0
 22 16  1  0  0  0  0
 23 22  1  0  0  0  0
 24 30  1  0  0  0  0
 25 29  2  0  0  0  0
 26 25  1  0  0  0  0
 26 30  1  0  0  0  0
 27 25  1  0  0  0  0
 29 28  1  0  0  0  0
 30 28  2  0  0  0  0
M  END
>  <MODEL>
9

>  <REMARK>
 VINA RESULT:      -7.3      4.523      9.912
  Name = 
  7 active torsions:
  status: ('A' for Active; 'I' for Inactive)
    1  A    between atoms: C_2  and  C_28
    2  A    between atoms: N_4  and  C_23
    3  A    between atoms: N_4  and  C_26
    4  A    between atoms: C_5  and  O_14
    5  A    between atoms: C_7  and  C_26
    6  A    between atoms: C_18  and  C_21
    7  A    between atoms: C_18  and  C_30
                            x       y       z     vdW  Elec       q    Type
                         _______ _______ _______ _____ _____    ______ ____

>  <TORSDO>
F 7

$$$$
