=
 OpenBabel10232409303D

 53 55  0  0  1  0  0  0  0  0999 V2000
  191.0260  176.7280  139.3540 C   0  0  2  0  0  3  0  0  0  0  0  0
  192.6660  175.3590  138.0120 C   0  0  0  0  0  0  0  0  0  0  0  0
  191.8630  174.3910  137.9620 O   0  0  0  0  0  0  0  0  0  0  0  0
  192.2760  176.5910  138.6190 N   0  0  0  0  0  2  0  0  0  0  0  0
  194.0360  175.2250  137.4390 C   0  0  0  0  0  2  0  0  0  0  0  0
  194.2320  173.8800  136.9100 N   0  0  0  0  0  0  0  0  0  0  0  0
  194.8890  172.8780  137.6980 C   0  0  0  0  0  0  0  0  0  0  0  0
  195.2350  171.6170  137.1100 N   0  0  0  0  0  2  0  0  0  0  0  0
  193.7970  173.5870  135.5530 C   0  0  0  0  0  1  0  0  0  0  0  0
  195.1610  173.1050  138.9070 O   0  0  0  0  0  0  0  0  0  0  0  0
  195.8830  170.5540  137.8640 C   0  0  0  0  0  2  0  0  0  0  0  0
  195.8500  169.2440  137.0840 C   0  0  0  0  0  2  0  0  0  0  0  0
  194.4410  168.9410  136.5900 C   0  0  0  0  0  2  0  0  0  0  0  0
  193.6170  168.4520  137.6820 N   0  0  0  0  0  1  0  0  0  0  0  0
  190.1280  177.7440  138.6640 C   0  0  0  0  0  2  0  0  0  0  0  0
  189.8210  177.2280  136.2600 N   0  0  0  0  0  2  0  0  0  0  0  0
  189.2610  177.0830  137.5980 C   0  0  2  0  0  0  0  0  0  0  0  0
  188.0220  177.9050  137.2720 C   0  0  1  0  0  3  0  0  0  0  0  0
  188.6580  178.0300  135.8890 C   0  0  2  0  0  3  0  0  0  0  0  0
  188.9940  175.7400  137.8910 O   0  0  0  0  0  1  0  0  0  0  0  0
  187.9270  177.3660  134.9000 O   0  0  0  0  0  1  0  0  0  0  0  0
  184.3870  176.7610  137.5850 N   0  0  0  0  0  2  0  0  0  0  0  0
  185.5330  177.6120  137.6310 C   0  0  0  0  0  0  0  0  0  0  0  0
  185.4210  178.8140  138.0010 O   0  0  0  0  0  0  0  0  0  0  0  0
  186.8060  177.0900  137.2530 N   0  0  0  0  0  2  0  0  0  0  0  0
  183.0560  177.2500  137.9020 C   0  0  0  0  0  2  0  0  0  0  0  0
  182.7130  176.9130  139.3410 C   0  0  0  0  0  2  0  0  0  0  0  0
  182.7510  178.0780  140.1350 O   0  0  0  0  0  0  0  0  0  0  0  0
  181.4690  178.3590  140.6790 C   0  0  2  0  0  0  0  0  0  0  0  0
  180.7200  177.1840  140.5780 O   0  0  0  0  0  1  0  0  0  0  0  0
  181.6480  180.2700  139.1890 O   0  0  0  0  0  1  0  0  0  0  0  0
  180.7400  179.4490  139.8610 C   0  0  0  0  0  2  0  0  0  0  0  0
  181.5690  178.7270  142.1810 C   0  0  2  0  0  3  0  0  0  0  0  0
  180.9080  179.9310  142.4480 O   0  0  0  0  0  1  0  0  0  0  0  0
  182.9020  178.8290  142.6000 O   0  0  0  0  0  0  0  0  0  0  0  0
  184.7570  180.0730  144.3320 O   0  0  0  0  0  0  0  0  0  0  0  0
  182.8750  178.5710  143.9310 N   0  0  0  0  0  2  0  0  0  0  0  0
  183.7890  179.2070  144.8220 C   0  0  0  0  0  0  0  0  0  0  0  0
  183.7220  178.9800  146.0540 O   0  0  0  0  0  1  0  0  0  0  0  0
  191.3000  177.1440  140.7960 C   0  0  0  0  0  2  0  0  0  0  0  0
  190.1370  177.6170  141.4070 O   0  0  0  0  0  0  0  0  0  0  0  0
  189.7420  176.5940  142.2690 C   0  0  0  0  0  2  0  0  0  0  0  0
  190.2180  177.1680  144.8080 C   0  0  0  0  0  0  0  0  0  0  0  0
  187.0270  177.9860  146.6080 S   0  0  0  0  0  0  0  0  0  0  0  0
  188.1250  177.5560  143.9470 C   0  0  0  0  0  0  0  0  0  0  0  0
  189.3640  177.1510  143.6030 C   0  0  0  0  0  0  0  0  0  0  0  0
  189.4830  177.5510  147.2210 N   0  0  0  0  0  0  0  0  0  0  0  0
  188.0100  177.7320  149.2360 C   0  0  0  0  0  1  0  0  0  0  0  0
  188.2580  177.7800  147.7720 C   0  0  0  0  0  0  0  0  0  0  0  0
  189.3770  177.6600  145.8770 C   0  0  0  0  0  0  0  0  0  0  0  0
  191.4120  176.7790  144.9030 O   0  0  0  0  0  0  0  0  0  0  0  0
  186.9240  177.5460  143.0720 C   0  0  0  0  0  1  0  0  0  0  0  0
  188.1520  177.8860  145.3690 C   0  0  0  0  0  0  0  0  0  0  0  0
  1 15  1  6  0  0  0
  1 40  1  0  0  0  0
  2  4  1  0  0  0  0
  3  2  2  0  0  0  0
  4  1  1  0  0  0  0
  5  2  1  0  0  0  0
  6  5  1  0  0  0  0
  6  7  1  0  0  0  0
  7 10  2  0  0  0  0
  8  7  1  0  0  0  0
  8 11  1  0  0  0  0
  9  6  1  0  0  0  0
 12 11  1  0  0  0  0
 13 12  1  0  0  0  0
 13 14  1  0  0  0  0
 16 17  1  0  0  0  0
 17 20  1  1  0  0  0
 17 15  1  0  0  0  0
 18 25  1  6  0  0  0
 18 17  1  0  0  0  0
 19 21  1  6  0  0  0
 19 16  1  0  0  0  0
 19 18  1  0  0  0  0
 22 23  1  0  0  0  0
 22 26  1  0  0  0  0
 23 24  2  0  0  0  0
 25 23  1  0  0  0  0
 26 27  1  0  0  0  0
 27 28  1  0  0  0  0
 28 29  1  0  0  0  0
 29 30  1  6  0  0  0
 29 33  1  0  0  0  0
 31 32  1  0  0  0  0
 32 29  1  0  0  0  0
 33 34  1  6  0  0  0
 33 35  1  0  0  0  0
 35 37  1  0  0  0  0
 36 38  2  0  0  0  0
 37 38  1  0  0  0  0
 38 39  1  0  0  0  0
 40 41  1  0  0  0  0
 41 42  1  0  0  0  0
 42 46  1  0  0  0  0
 43 51  2  0  0  0  0
 43 50  1  0  0  0  0
 44 49  1  0  0  0  0
 45 53  1  0  0  0  0
 46 45  2  0  0  0  0
 46 43  1  0  0  0  0
 47 49  2  0  0  0  0
 49 48  1  0  0  0  0
 50 47  1  0  0  0  0
 52 45  1  0  0  0  0
 53 50  2  0  0  0  0
 53 44  1  0  0  0  0
M  END
>  <MODEL>
1

>  <REMARK>
 VINA RESULT:      -7.1      0.000      0.000
  Name = 
  21 active torsions:
  status: ('A' for Active; 'I' for Inactive)
    1  A    between atoms: C_3  and  C_21
    2  A    between atoms: C_3  and  C_41
    3  A    between atoms: C_3  and  O_51
    4  A    between atoms: N_4  and  C_32
    5  A    between atoms: C_5  and  N_28
    6  A    between atoms: C_5  and  C_33
    7  A    between atoms: O_7  and  N_11
    8  A    between atoms: O_7  and  C_41
    9  A    between atoms: C_8  and  C_44
   10  A    between atoms: N_10  and  C_44
   11  A    between atoms: C_12  and  C_15
   12  A    between atoms: C_14  and  C_33
   13  A    between atoms: C_15  and  C_39
   14  A    between atoms: C_20  and  C_45
   15  A    between atoms: C_22  and  N_46
   16  A    between atoms: C_25  and  C_32
   17  A    between atoms: C_25  and  O_51
   18  A    between atoms: C_37  and  C_39
   19  A    between atoms: C_37  and  O_53
   20  A    between atoms: C_39  and  N_42
   21  A    between atoms: C_45  and  O_53
                            x       y       z     vdW  Elec       q    Type
                         _______ _______ _______ _____ _____    ______ ____

>  <TORSDO>
F 21

$$$$
=
 OpenBabel10232409303D

 53 55  0  0  1  0  0  0  0  0999 V2000
  188.8290  177.5920  138.5670 C   0  0  2  0  0  3  0  0  0  0  0  0
  186.8720  177.8820  137.0020 C   0  0  0  0  0  0  0  0  0  0  0  0
  187.4200  178.8730  136.4510 O   0  0  0  0  0  0  0  0  0  0  0  0
  187.5620  177.1410  138.0090 N   0  0  0  0  0  2  0  0  0  0  0  0
  185.4930  177.4750  136.6060 C   0  0  0  0  0  2  0  0  0  0  0  0
  184.6700  177.2610  137.7900 N   0  0  0  0  0  0  0  0  0  0  0  0
  184.5960  178.2620  138.8150 C   0  0  0  0  0  0  0  0  0  0  0  0
  183.9300  177.9750  140.0510 N   0  0  0  0  0  2  0  0  0  0  0  0
  183.9660  175.9960  137.9390 C   0  0  0  0  0  1  0  0  0  0  0  0
  185.1170  179.3950  138.6280 O   0  0  0  0  0  0  0  0  0  0  0  0
  183.8050  178.9560  141.1190 C   0  0  0  0  0  2  0  0  0  0  0  0
  184.4070  178.4210  142.4140 C   0  0  0  0  0  2  0  0  0  0  0  0
  183.6470  178.9490  143.6240 C   0  0  0  0  0  2  0  0  0  0  0  0
  182.2220  178.7150  143.4680 N   0  0  0  0  0  1  0  0  0  0  0  0
  189.7720  176.4090  138.7330 C   0  0  0  0  0  2  0  0  0  0  0  0
  189.4050  174.5620  137.1230 N   0  0  0  0  0  2  0  0  0  0  0  0
  190.1340  175.7970  137.3840 C   0  0  2  0  0  0  0  0  0  0  0  0
  191.4890  175.1030  137.4120 C   0  0  1  0  0  3  0  0  0  0  0  0
  190.6740  173.8390  137.1440 C   0  0  2  0  0  3  0  0  0  0  0  0
  189.9800  176.7060  136.3310 O   0  0  0  0  0  1  0  0  0  0  0  0
  190.9250  173.2960  135.8820 O   0  0  0  0  0  1  0  0  0  0  0  0
  194.2170  176.6750  135.2440 N   0  0  0  0  0  2  0  0  0  0  0  0
  193.4420  176.3560  136.4000 C   0  0  0  0  0  0  0  0  0  0  0  0
  193.7420  176.8450  137.5240 O   0  0  0  0  0  0  0  0  0  0  0  0
  192.3250  175.4760  136.2710 N   0  0  0  0  0  2  0  0  0  0  0  0
  195.3990  177.5160  135.3220 C   0  0  0  0  0  2  0  0  0  0  0  0
  196.6440  176.6770  135.0960 C   0  0  0  0  0  2  0  0  0  0  0  0
  197.1710  176.2490  136.3320 O   0  0  0  0  0  0  0  0  0  0  0  0
  197.4350  174.8530  136.3110 C   0  0  2  0  0  0  0  0  0  0  0  0
  198.7600  174.6850  136.7220 O   0  0  0  0  0  1  0  0  0  0  0  0
  198.5710  173.9810  134.3480 O   0  0  0  0  0  1  0  0  0  0  0  0
  197.3160  174.2830  134.8790 C   0  0  0  0  0  2  0  0  0  0  0  0
  196.5290  174.0990  137.3160 C   0  0  2  0  0  3  0  0  0  0  0  0
  196.2060  174.9110  138.4090 O   0  0  0  0  0  1  0  0  0  0  0  0
  197.1350  172.9230  137.7770 O   0  0  0  0  0  0  0  0  0  0  0  0
  197.9040  170.2040  137.7690 O   0  0  0  0  0  1  0  0  0  0  0  0
  196.2090  171.9500  137.5870 N   0  0  0  0  0  2  0  0  0  0  0  0
  196.5770  170.5720  137.6020 C   0  0  0  0  0  0  0  0  0  0  0  0
  195.6970  169.6890  137.4600 O   0  0  0  0  0  0  0  0  0  0  0  0
  188.6030  178.2910  139.9030 C   0  0  0  0  0  2  0  0  0  0  0  0
  189.2700  177.6240  140.9330 O   0  0  0  0  0  0  0  0  0  0  0  0
  188.3870  177.6530  142.0120 C   0  0  0  0  0  2  0  0  0  0  0  0
  190.5830  177.3780  143.4620 C   0  0  0  0  0  0  0  0  0  0  0  0
  189.7360  176.9480  147.0930 S   0  0  0  0  0  0  0  0  0  0  0  0
  188.5700  177.6710  144.5260 C   0  0  0  0  0  0  0  0  0  0  0  0
  189.1380  177.6340  143.3040 C   0  0  0  0  0  0  0  0  0  0  0  0
  191.8210  176.7610  145.6070 N   0  0  0  0  0  0  0  0  0  0  0  0
  192.2360  175.9680  147.9440 C   0  0  0  0  0  1  0  0  0  0  0  0
  191.3850  176.5670  146.8830 C   0  0  0  0  0  0  0  0  0  0  0  0
  190.8160  177.3110  144.8880 C   0  0  0  0  0  0  0  0  0  0  0  0
  191.4310  177.1950  142.5490 O   0  0  0  0  0  0  0  0  0  0  0  0
  187.1150  177.7580  144.8160 C   0  0  0  0  0  1  0  0  0  0  0  0
  189.6340  177.4840  145.5080 C   0  0  0  0  0  0  0  0  0  0  0  0
  1 15  1  1  0  0  0
  1 40  1  0  0  0  0
  2  4  1  0  0  0  0
  3  2  2  0  0  0  0
  4  1  1  0  0  0  0
  5  2  1  0  0  0  0
  5  6  1  0  0  0  0
  6  9  1  0  0  0  0
  6  7  1  0  0  0  0
  7  8  1  0  0  0  0
  8 11  1  0  0  0  0
 10  7  2  0  0  0  0
 11 12  1  0  0  0  0
 12 13  1  0  0  0  0
 14 13  1  0  0  0  0
 16 19  1  0  0  0  0
 16 17  1  0  0  0  0
 17 20  1  6  0  0  0
 17 18  1  0  0  0  0
 17 15  1  0  0  0  0
 18 25  1  6  0  0  0
 19 21  1  6  0  0  0
 19 18  1  0  0  0  0
 22 26  1  0  0  0  0
 22 23  1  0  0  0  0
 23 24  2  0  0  0  0
 25 23  1  0  0  0  0
 27 26  1  0  0  0  0
 27 28  1  0  0  0  0
 29 28  1  0  0  0  0
 29 30  1  1  0  0  0
 29 33  1  0  0  0  0
 31 32  1  0  0  0  0
 32 29  1  0  0  0  0
 33 35  1  0  0  0  0
 33 34  1  1  0  0  0
 37 38  1  0  0  0  0
 37 35  1  0  0  0  0
 38 36  1  0  0  0  0
 39 38  2  0  0  0  0
 40 41  1  0  0  0  0
 41 42  1  0  0  0  0
 42 46  1  0  0  0  0
 43 50  1  0  0  0  0
 45 52  1  0  0  0  0
 45 53  1  0  0  0  0
 46 43  1  0  0  0  0
 46 45  2  0  0  0  0
 47 49  2  0  0  0  0
 49 44  1  0  0  0  0
 49 48  1  0  0  0  0
 50 53  2  0  0  0  0
 50 47  1  0  0  0  0
 51 43  2  0  0  0  0
 53 44  1  0  0  0  0
M  END
>  <MODEL>
2

>  <REMARK>
 VINA RESULT:      -6.9      2.730     10.803
  Name = 
  21 active torsions:
  status: ('A' for Active; 'I' for Inactive)
    1  A    between atoms: C_3  and  C_21
    2  A    between atoms: C_3  and  C_41
    3  A    between atoms: C_3  and  O_51
    4  A    between atoms: N_4  and  C_32
    5  A    between atoms: C_5  and  N_28
    6  A    between atoms: C_5  and  C_33
    7  A    between atoms: O_7  and  N_11
    8  A    between atoms: O_7  and  C_41
    9  A    between atoms: C_8  and  C_44
   10  A    between atoms: N_10  and  C_44
   11  A    between atoms: C_12  and  C_15
   12  A    between atoms: C_14  and  C_33
   13  A    between atoms: C_15  and  C_39
   14  A    between atoms: C_20  and  C_45
   15  A    between atoms: C_22  and  N_46
   16  A    between atoms: C_25  and  C_32
   17  A    between atoms: C_25  and  O_51
   18  A    between atoms: C_37  and  C_39
   19  A    between atoms: C_37  and  O_53
   20  A    between atoms: C_39  and  N_42
   21  A    between atoms: C_45  and  O_53
                            x       y       z     vdW  Elec       q    Type
                         _______ _______ _______ _____ _____    ______ ____

>  <TORSDO>
F 21

$$$$
=
 OpenBabel10232409303D

 53 55  0  0  1  0  0  0  0  0999 V2000
  190.0250  176.7410  138.5400 C   0  0  2  0  0  3  0  0  0  0  0  0
  191.2840  174.9540  137.2820 C   0  0  0  0  0  0  0  0  0  0  0  0
  190.5190  174.0590  137.7270 O   0  0  0  0  0  0  0  0  0  0  0  0
  191.0400  176.3280  137.5800 N   0  0  0  0  0  2  0  0  0  0  0  0
  192.4570  174.5830  136.4390 C   0  0  0  0  0  2  0  0  0  0  0  0
  193.6760  175.1680  136.9840 N   0  0  0  0  0  0  0  0  0  0  0  0
  194.4890  174.4290  137.9060 C   0  0  0  0  0  0  0  0  0  0  0  0
  195.5840  175.0710  138.5710 N   0  0  0  0  0  2  0  0  0  0  0  0
  194.0270  176.5320  136.6180 C   0  0  0  0  0  1  0  0  0  0  0  0
  194.2400  173.2140  138.1300 O   0  0  0  0  0  0  0  0  0  0  0  0
  196.4560  174.3680  139.5000 C   0  0  0  0  0  2  0  0  0  0  0  0
  197.5350  175.3020  140.0380 C   0  0  0  0  0  2  0  0  0  0  0  0
  198.8360  175.1290  139.2650 C   0  0  0  0  0  2  0  0  0  0  0  0
  199.9130  174.7530  140.1650 N   0  0  0  0  0  1  0  0  0  0  0  0
  189.4720  178.1050  138.1540 C   0  0  0  0  0  2  0  0  0  0  0  0
  187.2580  178.9460  137.4240 N   0  0  0  0  0  2  0  0  0  0  0  0
  188.3140  177.9730  137.1710 C   0  0  2  0  0  0  0  0  0  0  0  0
  187.4220  176.7810  137.4880 C   0  0  1  0  0  3  0  0  0  0  0  0
  186.3560  177.8440  137.7470 C   0  0  2  0  0  3  0  0  0  0  0  0
  188.7410  178.0270  135.8390 O   0  0  0  0  0  1  0  0  0  0  0  0
  185.3170  177.8000  136.8130 O   0  0  0  0  0  1  0  0  0  0  0  0
  186.8500  173.8290  135.1260 N   0  0  0  0  0  2  0  0  0  0  0  0
  187.1500  174.5500  136.3220 C   0  0  0  0  0  0  0  0  0  0  0  0
  187.4310  173.9320  137.3870 O   0  0  0  0  0  0  0  0  0  0  0  0
  187.1280  175.9770  136.3010 N   0  0  0  0  0  2  0  0  0  0  0  0
  186.7990  172.3780  135.0990 C   0  0  0  0  0  2  0  0  0  0  0  0
  185.4630  171.8990  135.6390 C   0  0  0  0  0  2  0  0  0  0  0  0
  184.4340  172.7760  135.2360 O   0  0  0  0  0  0  0  0  0  0  0  0
  183.3910  172.8050  136.1990 C   0  0  2  0  0  0  0  0  0  0  0  0
  183.8280  172.0520  137.2920 O   0  0  0  0  0  1  0  0  0  0  0  0
  182.1770  170.7450  135.7650 O   0  0  0  0  0  1  0  0  0  0  0  0
  182.1090  172.1350  135.6550 C   0  0  0  0  0  2  0  0  0  0  0  0
  183.1280  174.2490  136.6940 C   0  0  2  0  0  3  0  0  0  0  0  0
  183.7170  175.1880  135.8400 O   0  0  0  0  0  1  0  0  0  0  0  0
  183.6080  174.4440  137.9960 O   0  0  0  0  0  0  0  0  0  0  0  0
  181.3940  175.2990  139.5310 O   0  0  0  0  0  1  0  0  0  0  0  0
  183.4190  175.7630  138.2490 N   0  0  0  0  0  2  0  0  0  0  0  0
  182.3200  176.2100  139.0400 C   0  0  0  0  0  0  0  0  0  0  0  0
  182.1860  177.4320  139.2900 O   0  0  0  0  0  0  0  0  0  0  0  0
  190.6100  176.7770  139.9490 C   0  0  0  0  0  2  0  0  0  0  0  0
  189.8590  177.6130  140.7780 O   0  0  0  0  0  0  0  0  0  0  0  0
  189.0140  176.7560  141.4820 C   0  0  0  0  0  2  0  0  0  0  0  0
  189.8080  177.1000  143.9830 C   0  0  0  0  0  0  0  0  0  0  0  0
  186.9100  178.0190  146.1850 S   0  0  0  0  0  0  0  0  0  0  0  0
  187.6740  177.7080  143.3940 C   0  0  0  0  0  0  0  0  0  0  0  0
  188.8310  177.2380  142.8850 C   0  0  0  0  0  0  0  0  0  0  0  0
  189.3730  177.3550  146.4850 N   0  0  0  0  0  0  0  0  0  0  0  0
  188.1460  177.4940  148.6620 C   0  0  0  0  0  1  0  0  0  0  0  0
  188.2380  177.6340  147.1850 C   0  0  0  0  0  0  0  0  0  0  0  0
  189.1320  177.5710  145.1720 C   0  0  0  0  0  0  0  0  0  0  0  0
  190.9680  176.6150  143.9160 O   0  0  0  0  0  0  0  0  0  0  0  0
  186.3890  177.8550  142.6620 C   0  0  0  0  0  1  0  0  0  0  0  0
  187.8820  177.9270  144.8220 C   0  0  0  0  0  0  0  0  0  0  0  0
  1 15  1  6  0  0  0
  1 40  1  0  0  0  0
  2  4  1  0  0  0  0
  2  3  2  0  0  0  0
  4  1  1  0  0  0  0
  5  6  1  0  0  0  0
  5  2  1  0  0  0  0
  6  7  1  0  0  0  0
  7 10  2  0  0  0  0
  7  8  1  0  0  0  0
  8 11  1  0  0  0  0
  9  6  1  0  0  0  0
 11 12  1  0  0  0  0
 13 12  1  0  0  0  0
 13 14  1  0  0  0  0
 16 19  1  0  0  0  0
 17 20  1  6  0  0  0
 17 16  1  0  0  0  0
 17 18  1  0  0  0  0
 17 15  1  0  0  0  0
 18 25  1  6  0  0  0
 18 19  1  0  0  0  0
 19 21  1  6  0  0  0
 22 23  1  0  0  0  0
 23 24  2  0  0  0  0
 25 23  1  0  0  0  0
 26 22  1  0  0  0  0
 26 27  1  0  0  0  0
 28 27  1  0  0  0  0
 28 29  1  0  0  0  0
 29 33  1  0  0  0  0
 29 30  1  1  0  0  0
 32 31  1  0  0  0  0
 32 29  1  0  0  0  0
 33 34  1  6  0  0  0
 33 35  1  0  0  0  0
 35 37  1  0  0  0  0
 37 38  1  0  0  0  0
 38 39  2  0  0  0  0
 38 36  1  0  0  0  0
 40 41  1  0  0  0  0
 41 42  1  0  0  0  0
 42 46  1  0  0  0  0
 43 50  1  0  0  0  0
 44 49  1  0  0  0  0
 45 53  1  0  0  0  0
 46 45  2  0  0  0  0
 46 43  1  0  0  0  0
 47 49  2  0  0  0  0
 49 48  1  0  0  0  0
 50 47  1  0  0  0  0
 51 43  2  0  0  0  0
 52 45  1  0  0  0  0
 53 50  2  0  0  0  0
 53 44  1  0  0  0  0
M  END
>  <MODEL>
3

>  <REMARK>
 VINA RESULT:      -6.5      3.060      4.682
  Name = 
  21 active torsions:
  status: ('A' for Active; 'I' for Inactive)
    1  A    between atoms: C_3  and  C_21
    2  A    between atoms: C_3  and  C_41
    3  A    between atoms: C_3  and  O_51
    4  A    between atoms: N_4  and  C_32
    5  A    between atoms: C_5  and  N_28
    6  A    between atoms: C_5  and  C_33
    7  A    between atoms: O_7  and  N_11
    8  A    between atoms: O_7  and  C_41
    9  A    between atoms: C_8  and  C_44
   10  A    between atoms: N_10  and  C_44
   11  A    between atoms: C_12  and  C_15
   12  A    between atoms: C_14  and  C_33
   13  A    between atoms: C_15  and  C_39
   14  A    between atoms: C_20  and  C_45
   15  A    between atoms: C_22  and  N_46
   16  A    between atoms: C_25  and  C_32
   17  A    between atoms: C_25  and  O_51
   18  A    between atoms: C_37  and  C_39
   19  A    between atoms: C_37  and  O_53
   20  A    between atoms: C_39  and  N_42
   21  A    between atoms: C_45  and  O_53
                            x       y       z     vdW  Elec       q    Type
                         _______ _______ _______ _____ _____    ______ ____

>  <TORSDO>
F 21

$$$$
=
 OpenBabel10232409303D

 53 55  0  0  1  0  0  0  0  0999 V2000
  191.4780  176.5150  138.7950 C   0  0  2  0  0  3  0  0  0  0  0  0
  193.3210  175.2290  137.6500 C   0  0  0  0  0  0  0  0  0  0  0  0
  192.6280  174.1780  137.6460 O   0  0  0  0  0  0  0  0  0  0  0  0
  192.7730  176.4560  138.1310 N   0  0  0  0  0  2  0  0  0  0  0  0
  194.7270  175.1990  137.1520 C   0  0  0  0  0  2  0  0  0  0  0  0
  195.4690  174.1240  137.8000 N   0  0  0  0  0  0  0  0  0  0  0  0
  195.8320  172.9460  137.0670 C   0  0  0  0  0  0  0  0  0  0  0  0
  196.4020  171.8230  137.7510 N   0  0  0  0  0  2  0  0  0  0  0  0
  195.7910  174.2440  139.2140 C   0  0  0  0  0  1  0  0  0  0  0  0
  195.6480  172.8980  135.8210 O   0  0  0  0  0  0  0  0  0  0  0  0
  196.8090  170.6100  137.0590 C   0  0  0  0  0  2  0  0  0  0  0  0
  196.3820  169.3730  137.8440 C   0  0  0  0  0  2  0  0  0  0  0  0
  194.9110  169.4570  138.2310 C   0  0  0  0  0  2  0  0  0  0  0  0
  194.7340  169.0980  139.6280 N   0  0  0  0  0  1  0  0  0  0  0  0
  190.4540  177.1670  137.8760 C   0  0  0  0  0  2  0  0  0  0  0  0
  190.2240  175.8120  135.8150 N   0  0  0  0  0  2  0  0  0  0  0  0
  189.6460  176.1200  137.1170 C   0  0  2  0  0  0  0  0  0  0  0  0
  188.3700  176.6990  136.5200 C   0  0  1  0  0  3  0  0  0  0  0  0
  189.0260  176.3610  135.1830 C   0  0  2  0  0  3  0  0  0  0  0  0
  189.4470  174.9570  137.8690 O   0  0  0  0  0  1  0  0  0  0  0  0
  188.3520  175.3470  134.4970 O   0  0  0  0  0  1  0  0  0  0  0  0
  184.7760  175.4320  136.8200 N   0  0  0  0  0  2  0  0  0  0  0  0
  185.8700  176.3030  136.5310 C   0  0  0  0  0  0  0  0  0  0  0  0
  185.6620  177.4510  136.0480 O   0  0  0  0  0  0  0  0  0  0  0  0
  187.2020  175.8620  136.7940 N   0  0  0  0  0  2  0  0  0  0  0  0
  183.4030  175.8010  136.5200 C   0  0  0  0  0  2  0  0  0  0  0  0
  182.7910  176.5160  137.7100 C   0  0  0  0  0  2  0  0  0  0  0  0
  182.9560  177.9110  137.5760 O   0  0  0  0  0  0  0  0  0  0  0  0
  181.8310  178.6040  138.1000 C   0  0  2  0  0  0  0  0  0  0  0  0
  181.0580  177.6620  138.7830 O   0  0  0  0  0  1  0  0  0  0  0  0
  181.5560  179.0060  135.7200 O   0  0  0  0  0  1  0  0  0  0  0  0
  180.9580  179.1910  136.9680 C   0  0  0  0  0  2  0  0  0  0  0  0
  182.2680  179.6850  139.1190 C   0  0  2  0  0  3  0  0  0  0  0  0
  182.2050  180.9640  138.5540 O   0  0  0  0  0  1  0  0  0  0  0  0
  183.5660  179.4530  139.5950 O   0  0  0  0  0  0  0  0  0  0  0  0
  185.5190  179.6000  141.6310 O   0  0  0  0  0  0  0  0  0  0  0  0
  183.4010  178.7660  140.7520 N   0  0  0  0  0  2  0  0  0  0  0  0
  184.3660  178.8460  141.7990 C   0  0  0  0  0  0  0  0  0  0  0  0
  184.1740  178.2290  142.8750 O   0  0  0  0  0  1  0  0  0  0  0  0
  191.5880  177.2820  140.1080 C   0  0  0  0  0  2  0  0  0  0  0  0
  190.5490  176.9360  140.9750 O   0  0  0  0  0  0  0  0  0  0  0  0
  191.0930  177.0560  142.2540 C   0  0  0  0  0  2  0  0  0  0  0  0
  188.5790  177.2940  143.0460 C   0  0  0  0  0  0  0  0  0  0  0  0
  188.3830  177.5960  146.7820 S   0  0  0  0  0  0  0  0  0  0  0  0
  190.2190  176.9540  144.6160 C   0  0  0  0  0  0  0  0  0  0  0  0
  190.0120  177.0350  143.2860 C   0  0  0  0  0  0  0  0  0  0  0  0
  186.7910  177.8440  144.7810 N   0  0  0  0  0  0  0  0  0  0  0  0
  185.7400  178.5610  146.9360 C   0  0  0  0  0  1  0  0  0  0  0  0
  186.8550  177.9930  146.1340 C   0  0  0  0  0  0  0  0  0  0  0  0
  187.9590  177.3130  144.3520 C   0  0  0  0  0  0  0  0  0  0  0  0
  188.0180  177.5120  141.9390 O   0  0  0  0  0  0  0  0  0  0  0  0
  191.5360  176.8490  145.2960 C   0  0  0  0  0  1  0  0  0  0  0  0
  188.9230  177.1140  145.2700 C   0  0  0  0  0  0  0  0  0  0  0  0
  1 15  1  6  0  0  0
  1 40  1  0  0  0  0
  2  4  1  0  0  0  0
  3  2  2  0  0  0  0
  4  1  1  0  0  0  0
  5  2  1  0  0  0  0
  5  6  1  0  0  0  0
  6  9  1  0  0  0  0
  7  8  1  0  0  0  0
  7  6  1  0  0  0  0
 10  7  2  0  0  0  0
 11  8  1  0  0  0  0
 11 12  1  0  0  0  0
 12 13  1  0  0  0  0
 13 14  1  0  0  0  0
 16 17  1  0  0  0  0
 17 20  1  1  0  0  0
 17 15  1  0  0  0  0
 18 25  1  1  0  0  0
 18 17  1  0  0  0  0
 19 21  1  1  0  0  0
 19 16  1  0  0  0  0
 19 18  1  0  0  0  0
 23 25  1  0  0  0  0
 23 22  1  0  0  0  0
 24 23  2  0  0  0  0
 26 22  1  0  0  0  0
 26 27  1  0  0  0  0
 28 27  1  0  0  0  0
 28 29  1  0  0  0  0
 29 30  1  1  0  0  0
 29 33  1  0  0  0  0
 31 32  1  0  0  0  0
 32 29  1  0  0  0  0
 33 34  1  6  0  0  0
 33 35  1  0  0  0  0
 35 37  1  0  0  0  0
 36 38  2  0  0  0  0
 37 38  1  0  0  0  0
 38 39  1  0  0  0  0
 40 41  1  0  0  0  0
 41 42  1  0  0  0  0
 42 46  1  0  0  0  0
 43 46  1  0  0  0  0
 43 50  1  0  0  0  0
 45 53  1  0  0  0  0
 45 52  1  0  0  0  0
 46 45  2  0  0  0  0
 47 49  2  0  0  0  0
 49 44  1  0  0  0  0
 49 48  1  0  0  0  0
 50 47  1  0  0  0  0
 50 53  2  0  0  0  0
 51 43  2  0  0  0  0
 53 44  1  0  0  0  0
M  END
>  <MODEL>
4

>  <REMARK>
 VINA RESULT:      -6.5      1.924      2.374
  Name = 
  21 active torsions:
  status: ('A' for Active; 'I' for Inactive)
    1  A    between atoms: C_3  and  C_21
    2  A    between atoms: C_3  and  C_41
    3  A    between atoms: C_3  and  O_51
    4  A    between atoms: N_4  and  C_32
    5  A    between atoms: C_5  and  N_28
    6  A    between atoms: C_5  and  C_33
    7  A    between atoms: O_7  and  N_11
    8  A    between atoms: O_7  and  C_41
    9  A    between atoms: C_8  and  C_44
   10  A    between atoms: N_10  and  C_44
   11  A    between atoms: C_12  and  C_15
   12  A    between atoms: C_14  and  C_33
   13  A    between atoms: C_15  and  C_39
   14  A    between atoms: C_20  and  C_45
   15  A    between atoms: C_22  and  N_46
   16  A    between atoms: C_25  and  C_32
   17  A    between atoms: C_25  and  O_51
   18  A    between atoms: C_37  and  C_39
   19  A    between atoms: C_37  and  O_53
   20  A    between atoms: C_39  and  N_42
   21  A    between atoms: C_45  and  O_53
                            x       y       z     vdW  Elec       q    Type
                         _______ _______ _______ _____ _____    ______ ____

>  <TORSDO>
F 21

$$$$
=
 OpenBabel10232409303D

 53 55  0  0  1  0  0  0  0  0999 V2000
  190.0150  176.9570  138.6490 C   0  0  2  0  0  3  0  0  0  0  0  0
  191.8630  175.4940  137.7520 C   0  0  0  0  0  0  0  0  0  0  0  0
  191.2050  174.4520  138.0110 O   0  0  0  0  0  0  0  0  0  0  0  0
  191.2900  176.7830  137.9660 N   0  0  0  0  0  2  0  0  0  0  0  0
  193.2520  175.3880  137.2200 C   0  0  0  0  0  2  0  0  0  0  0  0
  193.4020  174.1660  136.4390 N   0  0  0  0  0  0  0  0  0  0  0  0
  194.1460  173.0560  136.9590 C   0  0  0  0  0  0  0  0  0  0  0  0
  194.4370  171.9310  136.1200 N   0  0  0  0  0  2  0  0  0  0  0  0
  192.8270  174.1100  135.1030 C   0  0  0  0  0  1  0  0  0  0  0  0
  194.5430  173.0700  138.1550 O   0  0  0  0  0  0  0  0  0  0  0  0
  195.1700  170.7680  136.5980 C   0  0  0  0  0  2  0  0  0  0  0  0
  194.2170  169.6110  136.8810 C   0  0  0  0  0  2  0  0  0  0  0  0
  194.7870  168.6890  137.9510 C   0  0  0  0  0  2  0  0  0  0  0  0
  194.8850  169.3870  139.2210 N   0  0  0  0  0  1  0  0  0  0  0  0
  189.3850  178.2810  138.2390 C   0  0  0  0  0  2  0  0  0  0  0  0
  187.1240  178.8720  137.4180 N   0  0  0  0  0  2  0  0  0  0  0  0
  188.3200  178.0780  137.1670 C   0  0  2  0  0  0  0  0  0  0  0  0
  187.5890  176.7520  137.3250 C   0  0  1  0  0  3  0  0  0  0  0  0
  186.3690  177.6330  137.5870 C   0  0  2  0  0  3  0  0  0  0  0  0
  188.8160  178.3060  135.8780 O   0  0  0  0  0  1  0  0  0  0  0  0
  185.4060  177.5290  136.5790 O   0  0  0  0  0  1  0  0  0  0  0  0
  187.6160  173.9720  134.7000 N   0  0  0  0  0  2  0  0  0  0  0  0
  187.7380  174.6200  135.9660 C   0  0  0  0  0  0  0  0  0  0  0  0
  188.0630  173.9610  136.9930 O   0  0  0  0  0  0  0  0  0  0  0  0
  187.4870  176.0230  136.0600 N   0  0  0  0  0  2  0  0  0  0  0  0
  187.8010  172.5390  134.5520 C   0  0  0  0  0  2  0  0  0  0  0  0
  186.4520  171.8580  134.4080 C   0  0  0  0  0  2  0  0  0  0  0  0
  185.4160  172.7620  134.7190 O   0  0  0  0  0  0  0  0  0  0  0  0
  184.5610  172.2250  135.7190 C   0  0  2  0  0  0  0  0  0  0  0  0
  185.3740  171.8710  136.7980 O   0  0  0  0  0  1  0  0  0  0  0  0
  183.1790  170.3020  136.2620 O   0  0  0  0  0  1  0  0  0  0  0  0
  183.8590  170.9410  135.2240 C   0  0  0  0  0  2  0  0  0  0  0  0
  183.5500  173.2880  136.2180 C   0  0  2  0  0  3  0  0  0  0  0  0
  182.5720  173.5440  135.2500 O   0  0  0  0  0  1  0  0  0  0  0  0
  184.1880  174.4870  136.5610 O   0  0  0  0  0  0  0  0  0  0  0  0
  182.3000  176.4390  137.3440 O   0  0  0  0  0  0  0  0  0  0  0  0
  183.9030  174.6770  137.8730 N   0  0  0  0  0  2  0  0  0  0  0  0
  182.9380  175.6420  138.2840 C   0  0  0  0  0  0  0  0  0  0  0  0
  182.6660  175.7750  139.5020 O   0  0  0  0  0  1  0  0  0  0  0  0
  190.2100  176.8990  140.1610 C   0  0  0  0  0  2  0  0  0  0  0  0
  188.9810  176.9500  140.8230 O   0  0  0  0  0  0  0  0  0  0  0  0
  189.0700  178.0620  141.6610 C   0  0  0  0  0  2  0  0  0  0  0  0
  187.6420  177.6770  143.8550 C   0  0  0  0  0  0  0  0  0  0  0  0
  189.8760  177.2700  146.8430 S   0  0  0  0  0  0  0  0  0  0  0  0
  189.9170  177.3790  143.9350 C   0  0  0  0  0  0  0  0  0  0  0  0
  188.9040  177.6550  143.0890 C   0  0  0  0  0  0  0  0  0  0  0  0
  187.3660  177.5650  146.3890 N   0  0  0  0  0  0  0  0  0  0  0  0
  187.9180  177.6760  148.8280 C   0  0  0  0  0  1  0  0  0  0  0  0
  188.2770  177.4810  147.3990 C   0  0  0  0  0  0  0  0  0  0  0  0
  188.0030  177.3480  145.2160 C   0  0  0  0  0  0  0  0  0  0  0  0
  186.4960  177.9790  143.4290 O   0  0  0  0  0  0  0  0  0  0  0  0
  191.3660  177.4060  143.6070 C   0  0  0  0  0  1  0  0  0  0  0  0
  189.3370  177.1740  145.2590 C   0  0  0  0  0  0  0  0  0  0  0  0
  1 15  1  1  0  0  0
  1 40  1  0  0  0  0
  2  4  1  0  0  0  0
  2  3  2  0  0  0  0
  4  1  1  0  0  0  0
  5  2  1  0  0  0  0
  6  7  1  0  0  0  0
  6  5  1  0  0  0  0
  7 10  2  0  0  0  0
  8 11  1  0  0  0  0
  8  7  1  0  0  0  0
  9  6  1  0  0  0  0
 11 12  1  0  0  0  0
 12 13  1  0  0  0  0
 13 14  1  0  0  0  0
 16 19  1  0  0  0  0
 17 20  1  6  0  0  0
 17 18  1  0  0  0  0
 17 16  1  0  0  0  0
 17 15  1  0  0  0  0
 18 25  1  6  0  0  0
 18 19  1  0  0  0  0
 19 21  1  6  0  0  0
 22 23  1  0  0  0  0
 23 25  1  0  0  0  0
 23 24  2  0  0  0  0
 26 22  1  0  0  0  0
 27 26  1  0  0  0  0
 27 28  1  0  0  0  0
 28 29  1  0  0  0  0
 29 33  1  0  0  0  0
 29 30  1  1  0  0  0
 32 29  1  0  0  0  0
 32 31  1  0  0  0  0
 33 34  1  6  0  0  0
 33 35  1  0  0  0  0
 35 37  1  0  0  0  0
 36 38  2  0  0  0  0
 37 38  1  0  0  0  0
 38 39  1  0  0  0  0
 40 41  1  0  0  0  0
 41 42  1  0  0  0  0
 42 46  1  0  0  0  0
 43 50  1  0  0  0  0
 44 49  1  0  0  0  0
 45 53  1  0  0  0  0
 46 43  1  0  0  0  0
 46 45  2  0  0  0  0
 47 49  2  0  0  0  0
 49 48  1  0  0  0  0
 50 53  2  0  0  0  0
 50 47  1  0  0  0  0
 51 43  2  0  0  0  0
 52 45  1  0  0  0  0
 53 44  1  0  0  0  0
M  END
>  <MODEL>
5

>  <REMARK>
 VINA RESULT:      -6.5      3.041      4.792
  Name = 
  21 active torsions:
  status: ('A' for Active; 'I' for Inactive)
    1  A    between atoms: C_3  and  C_21
    2  A    between atoms: C_3  and  C_41
    3  A    between atoms: C_3  and  O_51
    4  A    between atoms: N_4  and  C_32
    5  A    between atoms: C_5  and  N_28
    6  A    between atoms: C_5  and  C_33
    7  A    between atoms: O_7  and  N_11
    8  A    between atoms: O_7  and  C_41
    9  A    between atoms: C_8  and  C_44
   10  A    between atoms: N_10  and  C_44
   11  A    between atoms: C_12  and  C_15
   12  A    between atoms: C_14  and  C_33
   13  A    between atoms: C_15  and  C_39
   14  A    between atoms: C_20  and  C_45
   15  A    between atoms: C_22  and  N_46
   16  A    between atoms: C_25  and  C_32
   17  A    between atoms: C_25  and  O_51
   18  A    between atoms: C_37  and  C_39
   19  A    between atoms: C_37  and  O_53
   20  A    between atoms: C_39  and  N_42
   21  A    between atoms: C_45  and  O_53
                            x       y       z     vdW  Elec       q    Type
                         _______ _______ _______ _____ _____    ______ ____

>  <TORSDO>
F 21

$$$$
=
 OpenBabel10232409303D

 53 55  0  0  1  0  0  0  0  0999 V2000
  190.5200  176.0080  137.7940 C   0  0  2  0  0  3  0  0  0  0  0  0
  190.5420  176.8490  140.1720 C   0  0  0  0  0  0  0  0  0  0  0  0
  190.4180  178.0410  139.7830 O   0  0  0  0  0  0  0  0  0  0  0  0
  190.5120  175.7760  139.2320 N   0  0  0  0  0  2  0  0  0  0  0  0
  190.7230  176.5510  141.6210 C   0  0  0  0  0  2  0  0  0  0  0  0
  189.6260  177.1210  142.3950 N   0  0  0  0  0  0  0  0  0  0  0  0
  189.7750  177.3590  143.8010 C   0  0  0  0  0  0  0  0  0  0  0  0
  188.6420  177.7520  144.5860 N   0  0  0  0  0  2  0  0  0  0  0  0
  188.3630  177.3970  141.7270 C   0  0  0  0  0  1  0  0  0  0  0  0
  190.9030  177.2230  144.3470 O   0  0  0  0  0  0  0  0  0  0  0  0
  188.7350  178.0270  146.0120 C   0  0  0  0  0  2  0  0  0  0  0  0
  187.4230  177.6880  146.7130 C   0  0  0  0  0  2  0  0  0  0  0  0
  186.2380  178.2830  145.9640 C   0  0  0  0  0  2  0  0  0  0  0  0
  185.1730  178.6230  146.8910 N   0  0  0  0  0  1  0  0  0  0  0  0
  189.1910  175.5760  137.1920 C   0  0  0  0  0  2  0  0  0  0  0  0
  189.2040  178.0010  136.6870 N   0  0  0  0  0  2  0  0  0  0  0  0
  188.4840  176.7450  136.5150 C   0  0  2  0  0  0  0  0  0  0  0  0
  187.2730  177.2210  137.3050 C   0  0  1  0  0  3  0  0  0  0  0  0
  188.0740  178.5130  137.4590 C   0  0  2  0  0  3  0  0  0  0  0  0
  188.2210  176.4950  135.1630 O   0  0  0  0  0  1  0  0  0  0  0  0
  187.4930  179.5890  136.7830 O   0  0  0  0  0  1  0  0  0  0  0  0
  183.7500  176.9440  135.8460 N   0  0  0  0  0  2  0  0  0  0  0  0
  184.8620  176.7230  136.7130 C   0  0  0  0  0  0  0  0  0  0  0  0
  184.7580  175.9390  137.6980 O   0  0  0  0  0  0  0  0  0  0  0  0
  186.0940  177.3980  136.4570 N   0  0  0  0  0  2  0  0  0  0  0  0
  182.4550  176.3330  136.0880 C   0  0  0  0  0  2  0  0  0  0  0  0
  181.6040  177.2520  136.9460 C   0  0  0  0  0  2  0  0  0  0  0  0
  182.1580  178.5500  136.9640 O   0  0  0  0  0  0  0  0  0  0  0  0
  181.6170  179.3130  138.0330 C   0  0  2  0  0  0  0  0  0  0  0  0
  180.7630  178.4660  138.7440 O   0  0  0  0  0  1  0  0  0  0  0  0
  180.8900  180.6240  136.1210 O   0  0  0  0  0  1  0  0  0  0  0  0
  180.7700  180.4930  137.5060 C   0  0  0  0  0  2  0  0  0  0  0  0
  182.7310  179.7820  139.0020 C   0  0  2  0  0  3  0  0  0  0  0  0
  182.9920  181.1480  138.8440 O   0  0  0  0  0  1  0  0  0  0  0  0
  183.9160  179.0590  138.8160 O   0  0  0  0  0  0  0  0  0  0  0  0
  184.0350  178.0930  141.4690 O   0  0  0  0  0  0  0  0  0  0  0  0
  184.7980  179.5900  139.6990 N   0  0  0  0  0  2  0  0  0  0  0  0
  184.8860  179.1000  141.0350 C   0  0  0  0  0  0  0  0  0  0  0  0
  185.7340  179.5840  141.8240 O   0  0  0  0  0  1  0  0  0  0  0  0
  191.6760  175.2560  137.1410 C   0  0  0  0  0  2  0  0  0  0  0  0
  192.5420  176.1410  136.4930 O   0  0  0  0  0  0  0  0  0  0  0  0
  193.2140  175.3620  135.5520 C   0  0  0  0  0  2  0  0  0  0  0  0
  195.7850  175.8490  135.9440 C   0  0  0  0  0  0  0  0  0  0  0  0
  197.6200  172.6950  136.8250 S   0  0  0  0  0  0  0  0  0  0  0  0
  194.9420  173.7870  136.4970 C   0  0  0  0  0  0  0  0  0  0  0  0
  194.5790  175.0050  136.0470 C   0  0  0  0  0  0  0  0  0  0  0  0
  198.2150  175.1190  136.2200 N   0  0  0  0  0  0  0  0  0  0  0  0
  200.2310  173.6440  136.3580 C   0  0  0  0  0  1  0  0  0  0  0  0
  198.7740  173.9050  136.4820 C   0  0  0  0  0  0  0  0  0  0  0  0
  196.8800  175.0300  136.4150 C   0  0  0  0  0  0  0  0  0  0  0  0
  195.8610  177.0200  135.4860 O   0  0  0  0  0  0  0  0  0  0  0  0
  194.0630  172.5940  136.6060 C   0  0  0  0  0  1  0  0  0  0  0  0
  196.3810  173.8220  136.7380 C   0  0  0  0  0  0  0  0  0  0  0  0
  1 40  1  6  0  0  0
  1  4  1  0  0  0  0
  2  5  1  0  0  0  0
  3  2  2  0  0  0  0
  4  2  1  0  0  0  0
  5  6  1  0  0  0  0
  6  7  1  0  0  0  0
  7 10  2  0  0  0  0
  7  8  1  0  0  0  0
  8 11  1  0  0  0  0
  9  6  1  0  0  0  0
 11 12  1  0  0  0  0
 13 12  1  0  0  0  0
 13 14  1  0  0  0  0
 15  1  1  0  0  0  0
 16 19  1  0  0  0  0
 17 20  1  6  0  0  0
 17 16  1  0  0  0  0
 17 15  1  0  0  0  0
 17 18  1  0  0  0  0
 18 25  1  6  0  0  0
 18 19  1  0  0  0  0
 19 21  1  6  0  0  0
 22 26  1  0  0  0  0
 22 23  1  0  0  0  0
 23 24  2  0  0  0  0
 25 23  1  0  0  0  0
 26 27  1  0  0  0  0
 27 28  1  0  0  0  0
 28 29  1  0  0  0  0
 29 30  1  1  0  0  0
 29 33  1  0  0  0  0
 31 32  1  0  0  0  0
 32 29  1  0  0  0  0
 33 34  1  6  0  0  0
 35 33  1  0  0  0  0
 35 37  1  0  0  0  0
 37 38  1  0  0  0  0
 38 36  2  0  0  0  0
 38 39  1  0  0  0  0
 41 40  1  0  0  0  0
 42 46  1  0  0  0  0
 42 41  1  0  0  0  0
 43 46  1  0  0  0  0
 43 50  1  0  0  0  0
 45 52  1  0  0  0  0
 45 53  1  0  0  0  0
 46 45  2  0  0  0  0
 47 50  1  0  0  0  0
 47 49  2  0  0  0  0
 48 49  1  0  0  0  0
 49 44  1  0  0  0  0
 50 53  2  0  0  0  0
 51 43  2  0  0  0  0
 53 44  1  0  0  0  0
M  END
>  <MODEL>
6

>  <REMARK>
 VINA RESULT:      -6.4      3.343      8.256
  Name = 
  21 active torsions:
  status: ('A' for Active; 'I' for Inactive)
    1  A    between atoms: C_3  and  C_21
    2  A    between atoms: C_3  and  C_41
    3  A    between atoms: C_3  and  O_51
    4  A    between atoms: N_4  and  C_32
    5  A    between atoms: C_5  and  N_28
    6  A    between atoms: C_5  and  C_33
    7  A    between atoms: O_7  and  N_11
    8  A    between atoms: O_7  and  C_41
    9  A    between atoms: C_8  and  C_44
   10  A    between atoms: N_10  and  C_44
   11  A    between atoms: C_12  and  C_15
   12  A    between atoms: C_14  and  C_33
   13  A    between atoms: C_15  and  C_39
   14  A    between atoms: C_20  and  C_45
   15  A    between atoms: C_22  and  N_46
   16  A    between atoms: C_25  and  C_32
   17  A    between atoms: C_25  and  O_51
   18  A    between atoms: C_37  and  C_39
   19  A    between atoms: C_37  and  O_53
   20  A    between atoms: C_39  and  N_42
   21  A    between atoms: C_45  and  O_53
                            x       y       z     vdW  Elec       q    Type
                         _______ _______ _______ _____ _____    ______ ____

>  <TORSDO>
F 21

$$$$
=
 OpenBabel10232409303D

 53 55  0  0  1  0  0  0  0  0999 V2000
  186.0470  178.9530  140.0840 C   0  0  2  0  0  3  0  0  0  0  0  0
  183.5690  178.7170  140.4890 C   0  0  0  0  0  0  0  0  0  0  0  0
  183.7450  177.6500  141.1330 O   0  0  0  0  0  0  0  0  0  0  0  0
  184.6860  179.4660  140.0110 N   0  0  0  0  0  2  0  0  0  0  0  0
  182.1870  179.2060  140.2170 C   0  0  0  0  0  2  0  0  0  0  0  0
  182.0350  179.5320  138.8040 N   0  0  0  0  0  0  0  0  0  0  0  0
  181.2590  180.6680  138.3980 C   0  0  0  0  0  0  0  0  0  0  0  0
  180.9690  180.8790  137.0100 N   0  0  0  0  0  2  0  0  0  0  0  0
  182.6420  178.6570  137.8110 C   0  0  0  0  0  1  0  0  0  0  0  0
  180.8330  181.4800  139.2620 O   0  0  0  0  0  0  0  0  0  0  0  0
  180.2040  182.0230  136.5370 C   0  0  0  0  0  2  0  0  0  0  0  0
  181.0530  182.8940  135.6160 C   0  0  0  0  0  2  0  0  0  0  0  0
  180.9980  184.3540  136.0470 C   0  0  0  0  0  2  0  0  0  0  0  0
  181.8380  184.5680  137.2130 N   0  0  0  0  0  1  0  0  0  0  0  0
  186.2130  177.7860  139.1200 C   0  0  0  0  0  2  0  0  0  0  0  0
  186.2770  179.0010  136.9620 N   0  0  0  0  0  2  0  0  0  0  0  0
  187.0380  178.1880  137.9030 C   0  0  2  0  0  0  0  0  0  0  0  0
  187.2080  177.0390  136.9180 C   0  0  1  0  0  3  0  0  0  0  0  0
  186.4010  177.9310  135.9760 C   0  0  2  0  0  3  0  0  0  0  0  0
  188.2370  178.8160  138.2590 O   0  0  0  0  0  1  0  0  0  0  0  0
  187.1540  178.3810  134.8880 O   0  0  0  0  0  1  0  0  0  0  0  0
  190.4440  175.6020  135.4760 N   0  0  0  0  0  2  0  0  0  0  0  0
  189.0770  175.6830  135.8800 C   0  0  0  0  0  0  0  0  0  0  0  0
  188.3010  174.7020  135.7040 O   0  0  0  0  0  0  0  0  0  0  0  0
  188.5970  176.8840  136.4830 N   0  0  0  0  0  2  0  0  0  0  0  0
  190.9770  174.4290  134.8040 C   0  0  0  0  0  2  0  0  0  0  0  0
  192.4220  174.6740  134.4080 C   0  0  0  0  0  2  0  0  0  0  0  0
  192.9270  175.8020  135.0880 O   0  0  0  0  0  0  0  0  0  0  0  0
  194.2250  175.5410  135.6030 C   0  0  2  0  0  0  0  0  0  0  0  0
  195.0860  176.4770  135.0240 O   0  0  0  0  0  1  0  0  0  0  0  0
  195.9830  174.1970  134.5990 O   0  0  0  0  0  1  0  0  0  0  0  0
  194.7190  174.1360  135.1890 C   0  0  0  0  0  2  0  0  0  0  0  0
  194.2680  175.7450  137.1380 C   0  0  2  0  0  3  0  0  0  0  0  0
  195.3140  175.0150  137.7130 O   0  0  0  0  0  1  0  0  0  0  0  0
  193.0590  175.3760  137.7420 O   0  0  0  0  0  0  0  0  0  0  0  0
  190.4810  175.4220  138.9000 O   0  0  0  0  0  0  0  0  0  0  0  0
  192.5780  176.5160  138.2980 N   0  0  0  0  0  2  0  0  0  0  0  0
  191.2890  176.5510  138.9060 C   0  0  0  0  0  0  0  0  0  0  0  0
  190.8810  177.6070  139.4460 O   0  0  0  0  0  1  0  0  0  0  0  0
  186.3780  178.5240  141.5100 C   0  0  0  0  0  2  0  0  0  0  0  0
  187.7450  178.6560  141.7650 O   0  0  0  0  0  0  0  0  0  0  0  0
  188.1760  177.3700  142.0890 C   0  0  0  0  0  2  0  0  0  0  0  0
  190.4580  177.0920  143.4000 C   0  0  0  0  0  0  0  0  0  0  0  0
  189.8550  176.9050  147.1000 S   0  0  0  0  0  0  0  0  0  0  0  0
  188.5370  177.5250  144.5800 C   0  0  0  0  0  0  0  0  0  0  0  0
  189.0150  177.3960  143.3260 C   0  0  0  0  0  0  0  0  0  0  0  0
  191.8220  176.5510  145.4870 N   0  0  0  0  0  0  0  0  0  0  0  0
  192.3730  175.8780  147.8340 C   0  0  0  0  0  1  0  0  0  0  0  0
  191.4710  176.4470  146.8000 C   0  0  0  0  0  0  0  0  0  0  0  0
  190.7890  177.0980  144.8080 C   0  0  0  0  0  0  0  0  0  0  0  0
  191.2320  176.8230  142.4430 O   0  0  0  0  0  0  0  0  0  0  0  0
  187.1100  177.6860  144.9630 C   0  0  0  0  0  1  0  0  0  0  0  0
  189.6600  177.3530  145.4960 C   0  0  0  0  0  0  0  0  0  0  0  0
  1 15  1  6  0  0  0
  1 40  1  0  0  0  0
  2  3  2  0  0  0  0
  4  1  1  0  0  0  0
  4  2  1  0  0  0  0
  5  2  1  0  0  0  0
  6  5  1  0  0  0  0
  7  6  1  0  0  0  0
  7 10  2  0  0  0  0
  8  7  1  0  0  0  0
  9  6  1  0  0  0  0
 11  8  1  0  0  0  0
 12 13  1  0  0  0  0
 12 11  1  0  0  0  0
 13 14  1  0  0  0  0
 16 17  1  0  0  0  0
 17 20  1  1  0  0  0
 17 15  1  0  0  0  0
 18 25  1  6  0  0  0
 18 17  1  0  0  0  0
 19 21  1  6  0  0  0
 19 18  1  0  0  0  0
 19 16  1  0  0  0  0
 22 23  1  0  0  0  0
 23 25  1  0  0  0  0
 24 23  2  0  0  0  0
 26 22  1  0  0  0  0
 27 26  1  0  0  0  0
 27 28  1  0  0  0  0
 28 29  1  0  0  0  0
 29 30  1  6  0  0  0
 29 33  1  0  0  0  0
 31 32  1  0  0  0  0
 32 29  1  0  0  0  0
 33 34  1  1  0  0  0
 33 35  1  0  0  0  0
 35 37  1  0  0  0  0
 36 38  2  0  0  0  0
 37 38  1  0  0  0  0
 38 39  1  0  0  0  0
 40 41  1  0  0  0  0
 41 42  1  0  0  0  0
 42 46  1  0  0  0  0
 43 50  1  0  0  0  0
 45 52  1  0  0  0  0
 45 53  1  0  0  0  0
 46 43  1  0  0  0  0
 46 45  2  0  0  0  0
 47 49  2  0  0  0  0
 49 44  1  0  0  0  0
 49 48  1  0  0  0  0
 50 47  1  0  0  0  0
 50 53  2  0  0  0  0
 51 43  2  0  0  0  0
 53 44  1  0  0  0  0
M  END
>  <MODEL>
7

>  <REMARK>
 VINA RESULT:      -6.4      2.878     10.413
  Name = 
  21 active torsions:
  status: ('A' for Active; 'I' for Inactive)
    1  A    between atoms: C_3  and  C_21
    2  A    between atoms: C_3  and  C_41
    3  A    between atoms: C_3  and  O_51
    4  A    between atoms: N_4  and  C_32
    5  A    between atoms: C_5  and  N_28
    6  A    between atoms: C_5  and  C_33
    7  A    between atoms: O_7  and  N_11
    8  A    between atoms: O_7  and  C_41
    9  A    between atoms: C_8  and  C_44
   10  A    between atoms: N_10  and  C_44
   11  A    between atoms: C_12  and  C_15
   12  A    between atoms: C_14  and  C_33
   13  A    between atoms: C_15  and  C_39
   14  A    between atoms: C_20  and  C_45
   15  A    between atoms: C_22  and  N_46
   16  A    between atoms: C_25  and  C_32
   17  A    between atoms: C_25  and  O_51
   18  A    between atoms: C_37  and  C_39
   19  A    between atoms: C_37  and  O_53
   20  A    between atoms: C_39  and  N_42
   21  A    between atoms: C_45  and  O_53
                            x       y       z     vdW  Elec       q    Type
                         _______ _______ _______ _____ _____    ______ ____

>  <TORSDO>
F 21

$$$$
=
 OpenBabel10232409303D

 53 55  0  0  1  0  0  0  0  0999 V2000
  186.3030  178.0740  142.2810 C   0  0  2  0  0  3  0  0  0  0  0  0
  185.2690  178.8260  144.4550 C   0  0  0  0  0  0  0  0  0  0  0  0
  185.1180  179.9950  144.0140 O   0  0  0  0  0  0  0  0  0  0  0  0
  185.7760  177.7940  143.6100 N   0  0  0  0  0  2  0  0  0  0  0  0
  184.9210  178.5100  145.8710 C   0  0  0  0  0  2  0  0  0  0  0  0
  186.0250  178.8680  146.7540 N   0  0  0  0  0  0  0  0  0  0  0  0
  187.1000  177.9480  146.9840 C   0  0  0  0  0  0  0  0  0  0  0  0
  188.0860  178.2330  147.9850 N   0  0  0  0  0  2  0  0  0  0  0  0
  185.9910  180.1530  147.4370 C   0  0  0  0  0  1  0  0  0  0  0  0
  187.1780  176.8880  146.3060 O   0  0  0  0  0  0  0  0  0  0  0  0
  189.2100  177.3470  148.2500 C   0  0  0  0  0  2  0  0  0  0  0  0
  190.0380  177.1350  146.9870 C   0  0  0  0  0  2  0  0  0  0  0  0
  191.4530  176.6920  147.3330 C   0  0  0  0  0  2  0  0  0  0  0  0
  191.9720  175.8070  146.3050 N   0  0  0  0  0  1  0  0  0  0  0  0
  187.7150  178.6320  142.3900 C   0  0  0  0  0  2  0  0  0  0  0  0
  189.5470  177.5660  143.6730 N   0  0  0  0  0  2  0  0  0  0  0  0
  188.7480  177.5120  142.4550 C   0  0  2  0  0  0  0  0  0  0  0  0
  189.9410  177.7760  141.5470 C   0  0  1  0  0  3  0  0  0  0  0  0
  190.7280  177.8280  142.8550 C   0  0  2  0  0  3  0  0  0  0  0  0
  188.1710  176.2480  142.2860 O   0  0  0  0  0  1  0  0  0  0  0  0
  191.6300  176.7690  142.9810 O   0  0  0  0  0  1  0  0  0  0  0  0
  190.5980  175.4550  138.5810 N   0  0  0  0  0  2  0  0  0  0  0  0
  190.2420  176.6300  139.3090 C   0  0  0  0  0  0  0  0  0  0  0  0
  189.8930  177.6780  138.6980 O   0  0  0  0  0  0  0  0  0  0  0  0
  190.2880  176.6080  140.7360 N   0  0  0  0  0  2  0  0  0  0  0  0
  190.6280  175.4330  137.1290 C   0  0  0  0  0  2  0  0  0  0  0  0
  191.8400  174.6550  136.6500 C   0  0  0  0  0  2  0  0  0  0  0  0
  192.6400  174.2770  137.7500 O   0  0  0  0  0  0  0  0  0  0  0  0
  193.9940  174.6510  137.5390 C   0  0  2  0  0  0  0  0  0  0  0  0
  194.2960  175.6310  138.4890 O   0  0  0  0  0  1  0  0  0  0  0  0
  194.6020  176.6110  136.2380 O   0  0  0  0  0  1  0  0  0  0  0  0
  194.1910  175.2800  136.1420 C   0  0  0  0  0  2  0  0  0  0  0  0
  194.9470  173.4530  137.7780 C   0  0  2  0  0  3  0  0  0  0  0  0
  195.2040  173.2790  139.1430 O   0  0  0  0  0  1  0  0  0  0  0  0
  196.1600  173.6120  137.0950 O   0  0  0  0  0  0  0  0  0  0  0  0
  198.2160  175.5430  136.9250 O   0  0  0  0  0  0  0  0  0  0  0  0
  197.1040  173.6940  138.0650 N   0  0  0  0  0  2  0  0  0  0  0  0
  198.1360  174.6760  138.0060 C   0  0  0  0  0  0  0  0  0  0  0  0
  198.9780  174.7550  138.9330 O   0  0  0  0  0  1  0  0  0  0  0  0
  185.3930  179.0530  141.5450 C   0  0  0  0  0  2  0  0  0  0  0  0
  184.2110  178.4280  141.1420 O   0  0  0  0  0  0  0  0  0  0  0  0
  183.9640  178.9170  139.8600 C   0  0  0  0  0  2  0  0  0  0  0  0
  183.0800  176.6560  138.8050 C   0  0  0  0  0  0  0  0  0  0  0  0
  185.6280  175.1910  136.4710 S   0  0  0  0  0  0  0  0  0  0  0  0
  185.0000  177.6030  137.9740 C   0  0  0  0  0  0  0  0  0  0  0  0
  184.0040  177.8070  138.8600 C   0  0  0  0  0  0  0  0  0  0  0  0
  183.4080  174.4660  137.5380 N   0  0  0  0  0  0  0  0  0  0  0  0
  184.5340  172.5990  136.3090 C   0  0  0  0  0  1  0  0  0  0  0  0
  184.4280  174.0120  136.7570 C   0  0  0  0  0  0  0  0  0  0  0  0
  183.6020  175.7830  137.7780 C   0  0  0  0  0  0  0  0  0  0  0  0
  182.0790  176.4460  139.5390 O   0  0  0  0  0  0  0  0  0  0  0  0
  186.2160  178.4410  137.8120 C   0  0  0  0  0  1  0  0  0  0  0  0
  184.7270  176.3410  137.2930 C   0  0  0  0  0  0  0  0  0  0  0  0
  1 40  1  1  0  0  0
  1 15  1  0  0  0  0
  1  4  1  0  0  0  0
  2  5  1  0  0  0  0
  3  2  2  0  0  0  0
  4  2  1  0  0  0  0
  5  6  1  0  0  0  0
  6  7  1  0  0  0  0
  6  9  1  0  0  0  0
  7  8  1  0  0  0  0
  8 11  1  0  0  0  0
 10  7  2  0  0  0  0
 12 13  1  0  0  0  0
 12 11  1  0  0  0  0
 14 13  1  0  0  0  0
 15 17  1  0  0  0  0
 17 20  1  6  0  0  0
 17 16  1  0  0  0  0
 18 25  1  6  0  0  0
 18 17  1  0  0  0  0
 18 19  1  0  0  0  0
 19 21  1  6  0  0  0
 19 16  1  0  0  0  0
 22 23  1  0  0  0  0
 23 25  1  0  0  0  0
 24 23  2  0  0  0  0
 26 22  1  0  0  0  0
 27 26  1  0  0  0  0
 27 28  1  0  0  0  0
 29 28  1  0  0  0  0
 29 33  1  0  0  0  0
 29 30  1  1  0  0  0
 32 31  1  0  0  0  0
 32 29  1  0  0  0  0
 33 34  1  1  0  0  0
 35 33  1  0  0  0  0
 35 37  1  0  0  0  0
 36 38  2  0  0  0  0
 38 37  1  0  0  0  0
 38 39  1  0  0  0  0
 41 40  1  0  0  0  0
 42 41  1  0  0  0  0
 43 46  1  0  0  0  0
 43 51  2  0  0  0  0
 44 49  1  0  0  0  0
 44 53  1  0  0  0  0
 45 46  2  0  0  0  0
 46 42  1  0  0  0  0
 47 50  1  0  0  0  0
 48 49  1  0  0  0  0
 49 47  2  0  0  0  0
 50 43  1  0  0  0  0
 52 45  1  0  0  0  0
 53 50  2  0  0  0  0
 53 45  1  0  0  0  0
M  END
>  <MODEL>
8

>  <REMARK>
 VINA RESULT:      -6.2      2.906     11.189
  Name = 
  21 active torsions:
  status: ('A' for Active; 'I' for Inactive)
    1  A    between atoms: C_3  and  C_21
    2  A    between atoms: C_3  and  C_41
    3  A    between atoms: C_3  and  O_51
    4  A    between atoms: N_4  and  C_32
    5  A    between atoms: C_5  and  N_28
    6  A    between atoms: C_5  and  C_33
    7  A    between atoms: O_7  and  N_11
    8  A    between atoms: O_7  and  C_41
    9  A    between atoms: C_8  and  C_44
   10  A    between atoms: N_10  and  C_44
   11  A    between atoms: C_12  and  C_15
   12  A    between atoms: C_14  and  C_33
   13  A    between atoms: C_15  and  C_39
   14  A    between atoms: C_20  and  C_45
   15  A    between atoms: C_22  and  N_46
   16  A    between atoms: C_25  and  C_32
   17  A    between atoms: C_25  and  O_51
   18  A    between atoms: C_37  and  C_39
   19  A    between atoms: C_37  and  O_53
   20  A    between atoms: C_39  and  N_42
   21  A    between atoms: C_45  and  O_53
                            x       y       z     vdW  Elec       q    Type
                         _______ _______ _______ _____ _____    ______ ____

>  <TORSDO>
F 21

$$$$
=
 OpenBabel10232409303D

 53 55  0  0  1  0  0  0  0  0999 V2000
  191.2940  176.7340  138.0740 C   0  0  2  0  0  3  0  0  0  0  0  0
  191.1290  177.2860  140.5290 C   0  0  0  0  0  0  0  0  0  0  0  0
  190.0240  177.8660  140.3560 O   0  0  0  0  0  0  0  0  0  0  0  0
  191.7760  176.6230  139.4440 N   0  0  0  0  0  2  0  0  0  0  0  0
  191.7720  177.2910  141.8750 C   0  0  0  0  0  2  0  0  0  0  0  0
  190.8310  176.8250  142.8860 N   0  0  0  0  0  0  0  0  0  0  0  0
  190.3040  177.7320  143.8630 C   0  0  0  0  0  0  0  0  0  0  0  0
  189.5220  177.2330  144.9560 N   0  0  0  0  0  2  0  0  0  0  0  0
  190.4760  175.4130  142.9180 C   0  0  0  0  0  1  0  0  0  0  0  0
  190.5280  178.9680  143.7610 O   0  0  0  0  0  0  0  0  0  0  0  0
  188.9440  178.1060  145.9670 C   0  0  0  0  0  2  0  0  0  0  0  0
  189.3550  177.6560  147.3660 C   0  0  0  0  0  2  0  0  0  0  0  0
  190.3050  176.4670  147.2970 C   0  0  0  0  0  2  0  0  0  0  0  0
  191.6820  176.9140  147.4050 N   0  0  0  0  0  1  0  0  0  0  0  0
  189.9700  175.9980  137.9290 C   0  0  0  0  0  2  0  0  0  0  0  0
  189.2130  178.2310  137.1700 N   0  0  0  0  0  2  0  0  0  0  0  0
  188.9850  176.7940  137.0790 C   0  0  2  0  0  0  0  0  0  0  0  0
  187.6070  176.8760  137.7210 C   0  0  1  0  0  3  0  0  0  0  0  0
  187.9010  178.3730  137.7960 C   0  0  2  0  0  3  0  0  0  0  0  0
  188.9700  176.3680  135.7460 O   0  0  0  0  0  1  0  0  0  0  0  0
  187.0650  179.1260  136.9670 O   0  0  0  0  0  1  0  0  0  0  0  0
  184.8160  175.0800  135.8230 N   0  0  0  0  0  2  0  0  0  0  0  0
  185.8540  175.3130  136.7750 C   0  0  0  0  0  0  0  0  0  0  0  0
  186.1650  174.4190  137.6120 O   0  0  0  0  0  0  0  0  0  0  0  0
  186.5360  176.5670  136.7730 N   0  0  0  0  0  2  0  0  0  0  0  0
  184.0470  173.8480  135.8140 C   0  0  0  0  0  2  0  0  0  0  0  0
  182.8030  174.0100  136.6700 C   0  0  0  0  0  2  0  0  0  0  0  0
  182.3860  175.3580  136.6690 O   0  0  0  0  0  0  0  0  0  0  0  0
  181.9720  175.7580  137.9670 C   0  0  2  0  0  0  0  0  0  0  0  0
  183.0070  175.4200  138.8440 O   0  0  0  0  0  1  0  0  0  0  0  0
  180.5530  175.0340  139.8020 O   0  0  0  0  0  1  0  0  0  0  0  0
  180.7110  174.9850  138.4160 C   0  0  0  0  0  2  0  0  0  0  0  0
  181.7730  177.2930  138.0410 C   0  0  2  0  0  3  0  0  0  0  0  0
  182.4130  177.9340  136.9740 O   0  0  0  0  0  1  0  0  0  0  0  0
  182.2480  177.8180  139.2500 O   0  0  0  0  0  0  0  0  0  0  0  0
  184.9390  178.5090  139.7650 O   0  0  0  0  0  1  0  0  0  0  0  0
  182.7080  179.0560  138.9410 N   0  0  0  0  0  2  0  0  0  0  0  0
  184.0680  179.4140  139.1730 C   0  0  0  0  0  0  0  0  0  0  0  0
  184.4800  180.5530  138.8470 O   0  0  0  0  0  0  0  0  0  0  0  0
  192.3290  176.1780  137.1000 C   0  0  0  0  0  2  0  0  0  0  0  0
  193.4710  175.7490  137.7800 O   0  0  0  0  0  0  0  0  0  0  0  0
  194.4330  175.5660  136.7870 C   0  0  0  0  0  2  0  0  0  0  0  0
  196.7330  174.4010  137.3830 C   0  0  0  0  0  0  0  0  0  0  0  0
  196.5290  170.6940  136.8370 S   0  0  0  0  0  0  0  0  0  0  0  0
  194.8890  173.0940  136.9800 C   0  0  0  0  0  0  0  0  0  0  0  0
  195.2850  174.3780  137.0960 C   0  0  0  0  0  0  0  0  0  0  0  0
  198.3520  172.4290  137.3470 N   0  0  0  0  0  0  0  0  0  0  0  0
  199.2960  170.1630  136.8590 C   0  0  0  0  0  1  0  0  0  0  0  0
  198.1680  171.1090  137.0650 C   0  0  0  0  0  0  0  0  0  0  0  0
  197.1400  173.0160  137.4670 C   0  0  0  0  0  0  0  0  0  0  0  0
  197.4760  175.4140  137.4760 O   0  0  0  0  0  0  0  0  0  0  0  0
  193.5460  172.6250  136.5520 C   0  0  0  0  0  1  0  0  0  0  0  0
  196.0560  172.2530  137.2300 C   0  0  0  0  0  0  0  0  0  0  0  0
  1 40  1  6  0  0  0
  1  4  1  0  0  0  0
  2  5  1  0  0  0  0
  3  2  2  0  0  0  0
  4  2  1  0  0  0  0
  5  6  1  0  0  0  0
  6  9  1  0  0  0  0
  6  7  1  0  0  0  0
  7  8  1  0  0  0  0
  8 11  1  0  0  0  0
 10  7  2  0  0  0  0
 11 12  1  0  0  0  0
 13 12  1  0  0  0  0
 13 14  1  0  0  0  0
 15  1  1  0  0  0  0
 16 19  1  0  0  0  0
 17 20  1  6  0  0  0
 17 16  1  0  0  0  0
 17 18  1  0  0  0  0
 17 15  1  0  0  0  0
 18 25  1  6  0  0  0
 18 19  1  0  0  0  0
 19 21  1  6  0  0  0
 22 23  1  0  0  0  0
 23 24  2  0  0  0  0
 25 23  1  0  0  0  0
 26 22  1  0  0  0  0
 26 27  1  0  0  0  0
 28 27  1  0  0  0  0
 28 29  1  0  0  0  0
 29 33  1  0  0  0  0
 29 32  1  0  0  0  0
 29 30  1  1  0  0  0
 32 31  1  0  0  0  0
 33 34  1  6  0  0  0
 33 35  1  0  0  0  0
 37 38  1  0  0  0  0
 37 35  1  0  0  0  0
 38 36  1  0  0  0  0
 39 38  2  0  0  0  0
 40 41  1  0  0  0  0
 42 46  1  0  0  0  0
 42 41  1  0  0  0  0
 43 50  1  0  0  0  0
 43 51  2  0  0  0  0
 44 49  1  0  0  0  0
 44 53  1  0  0  0  0
 45 46  2  0  0  0  0
 45 53  1  0  0  0  0
 46 43  1  0  0  0  0
 47 50  1  0  0  0  0
 48 49  1  0  0  0  0
 49 47  2  0  0  0  0
 52 45  1  0  0  0  0
 53 50  2  0  0  0  0
M  END
>  <MODEL>
9

>  <REMARK>
 VINA RESULT:      -6.0      3.441      8.208
  Name = 
  21 active torsions:
  status: ('A' for Active; 'I' for Inactive)
    1  A    between atoms: C_3  and  C_21
    2  A    between atoms: C_3  and  C_41
    3  A    between atoms: C_3  and  O_51
    4  A    between atoms: N_4  and  C_32
    5  A    between atoms: C_5  and  N_28
    6  A    between atoms: C_5  and  C_33
    7  A    between atoms: O_7  and  N_11
    8  A    between atoms: O_7  and  C_41
    9  A    between atoms: C_8  and  C_44
   10  A    between atoms: N_10  and  C_44
   11  A    between atoms: C_12  and  C_15
   12  A    between atoms: C_14  and  C_33
   13  A    between atoms: C_15  and  C_39
   14  A    between atoms: C_20  and  C_45
   15  A    between atoms: C_22  and  N_46
   16  A    between atoms: C_25  and  C_32
   17  A    between atoms: C_25  and  O_51
   18  A    between atoms: C_37  and  C_39
   19  A    between atoms: C_37  and  O_53
   20  A    between atoms: C_39  and  N_42
   21  A    between atoms: C_45  and  O_53
                            x       y       z     vdW  Elec       q    Type
                         _______ _______ _______ _____ _____    ______ ____

>  <TORSDO>
F 21

$$$$
