=
 OpenBabel10232412233D

 38 42  0  0  0  0  0  0  0  0999 V2000
  187.8130  178.1050  138.8640 C   0  0  0  0  0  0  0  0  0  0  0  0
  188.5770  177.7610  139.9790 C   0  0  0  0  0  0  0  0  0  0  0  0
  189.7110  177.4160  137.4740 C   0  0  0  0  0  3  0  0  0  0  0  0
  189.8430  177.2750  139.8650 C   0  0  0  0  0  0  0  0  0  0  0  0
  190.4520  177.0840  138.6240 C   0  0  0  0  0  0  0  0  0  0  0  0
  190.3570  177.0380  141.0810 N   0  0  0  0  0  0  0  0  0  0  0  0
  188.2350  177.8520  141.2730 N   0  0  0  0  0  2  0  0  0  0  0  0
  188.3990  177.9260  137.5920 C   0  0  0  0  0  3  0  0  0  0  0  0
  189.3460  177.3990  141.9130 C   0  0  0  0  0  0  0  0  0  0  0  0
  187.2240  177.9830  147.5960 C   0  0  0  0  0  3  0  0  0  0  0  0
  189.5050  177.2500  146.1500 C   0  0  0  0  0  0  0  0  0  0  0  0
  190.5990  176.9240  144.0740 C   0  0  0  0  0  0  0  0  0  0  0  0
  187.2050  178.0300  146.1990 C   0  0  0  0  0  3  0  0  0  0  0  0
  188.3430  177.6650  145.4740 C   0  0  0  0  0  0  0  0  0  0  0  0
  189.4350  177.3400  143.3890 C   0  0  0  0  0  0  0  0  0  0  0  0
  188.3820  177.5710  148.2680 C   0  0  0  0  0  3  0  0  0  0  0  0
  191.7690  176.5040  143.3740 N   0  0  0  0  0  1  0  0  0  0  0  0
  188.3400  177.6980  144.1180 N   0  0  0  0  0  0  0  0  0  0  0  0
  189.5220  177.2030  147.5470 C   0  0  0  0  0  3  0  0  0  0  0  0
  190.5990  176.8890  145.4330 N   0  0  0  0  0  0  0  0  0  0  0  0
  192.1240  176.4620  138.4880 S   0  0  0  0  0  0  0  0  0  0  0  0
  191.7910  175.6640  136.8930 C   0  0  0  0  0  2  0  0  0  0  0  0
  191.6070  174.1730  137.1110 C   0  0  0  0  0  2  0  0  0  0  0  0
  190.5610  173.6610  136.2370 N   0  0  0  0  0  0  0  0  0  0  0  0
  188.2080  174.1110  136.0680 C   0  0  0  0  0  2  0  0  0  0  0  0
  188.8920  174.6340  134.8310 C   0  0  0  0  0  2  0  0  0  0  0  0
  189.3230  173.6890  137.0030 C   0  0  0  0  0  2  0  0  0  0  0  0
  190.3640  174.6310  135.1700 C   0  0  0  0  0  2  0  0  0  0  0  0
  186.4860  178.6160  139.0210 N   0  0  0  0  0  2  0  0  0  0  0  0
  185.3580  178.1220  138.2460 C   0  0  0  0  0  2  0  0  0  0  0  0
  184.2500  177.9780  139.0790 O   0  0  0  0  0  0  0  0  0  0  0  0
  184.5640  178.7290  140.2130 C   0  0  0  0  0  2  0  0  0  0  0  0
  183.7240  178.2560  141.3820 C   0  0  0  0  0  2  0  0  0  0  0  0
  184.5640  178.1250  142.5590 N   0  0  0  0  0  2  0  0  0  0  0  0
  184.3570  179.3230  143.3530 C   0  0  0  0  0  2  0  0  0  0  0  0
  183.4530  179.0160  144.4970 C   0  0  0  0  0  0  0  0  0  0  0  0
  182.2540  178.7020  144.2820 O   0  0  0  0  0  0  0  0  0  0  0  0
  183.9440  179.0480  145.7970 O   0  0  0  0  0  1  0  0  0  0  0  0
  1 29  1  0  0  0  0
  1  2  1  0  0  0  0
  2  7  1  0  0  0  0
  3  8  1  0  0  0  0
  3  5  2  0  0  0  0
  4  2  2  0  0  0  0
  4  6  1  0  0  0  0
  5  4  1  0  0  0  0
  6  9  2  0  0  0  0
  7  9  1  0  0  0  0
  8  1  2  0  0  0  0
  9 15  1  0  0  0  0
 10 16  1  0  0  0  0
 11 19  1  0  0  0  0
 12 20  1  0  0  0  0
 13 10  2  0  0  0  0
 14 11  1  0  0  0  0
 14 13  1  0  0  0  0
 15 12  2  0  0  0  0
 15 18  1  0  0  0  0
 17 12  1  0  0  0  0
 18 14  2  0  0  0  0
 19 16  2  0  0  0  0
 20 11  2  0  0  0  0
 21  5  1  0  0  0  0
 22 23  1  0  0  0  0
 22 21  1  0  0  0  0
 24 27  1  0  0  0  0
 24 23  1  0  0  0  0
 25 27  1  0  0  0  0
 26 28  1  0  0  0  0
 26 25  1  0  0  0  0
 28 24  1  0  0  0  0
 30 29  1  0  0  0  0
 30 31  1  0  0  0  0
 31 32  1  0  0  0  0
 32 33  1  0  0  0  0
 33 34  1  0  0  0  0
 34 35  1  0  0  0  0
 35 36  1  0  0  0  0
 36 38  1  0  0  0  0
 37 36  2  0  0  0  0
M  END
>  <MODEL>
1

>  <REMARK>
 VINA RESULT:      -8.0      0.000      0.000
  Name = 
  13 active torsions:
  status: ('A' for Active; 'I' for Inactive)
    1  A    between atoms: C_2  and  C_3
    2  A    between atoms: C_3  and  N_27
    3  A    between atoms: C_5  and  N_28
    4  A    between atoms: N_6  and  C_14
    5  A    between atoms: C_13  and  S_15
    6  A    between atoms: C_14  and  C_18
    7  A    between atoms: S_15  and  C_18
    8  A    between atoms: C_20  and  C_36
    9  A    between atoms: C_22  and  O_23
   10  A    between atoms: C_22  and  N_28
   11  A    between atoms: O_23  and  C_29
   12  A    between atoms: C_26  and  N_27
   13  A    between atoms: C_26  and  C_29
                            x       y       z     vdW  Elec       q    Type
                         _______ _______ _______ _____ _____    ______ ____

>  <TORSDO>
F 13

$$$$
=
 OpenBabel10232412233D

 38 42  0  0  0  0  0  0  0  0999 V2000
  190.4080  177.0740  139.0590 C   0  0  0  0  0  0  0  0  0  0  0  0
  189.1620  177.5370  139.4830 C   0  0  0  0  0  0  0  0  0  0  0  0
  189.6600  177.4720  136.7570 C   0  0  0  0  0  3  0  0  0  0  0  0
  188.2050  177.9440  138.6050 C   0  0  0  0  0  0  0  0  0  0  0  0
  188.4150  177.9300  137.2250 C   0  0  0  0  0  0  0  0  0  0  0  0
  187.1040  178.3270  139.2680 N   0  0  0  0  0  0  0  0  0  0  0  0
  188.7080  177.6470  140.7400 N   0  0  0  0  0  2  0  0  0  0  0  0
  190.6520  177.0450  137.6680 C   0  0  0  0  0  3  0  0  0  0  0  0
  187.4510  178.1340  140.5670 C   0  0  0  0  0  0  0  0  0  0  0  0
  185.7510  177.9620  146.4170 C   0  0  0  0  0  3  0  0  0  0  0  0
  184.9230  178.8550  143.8980 C   0  0  0  0  0  0  0  0  0  0  0  0
  185.3150  179.0790  141.5720 C   0  0  0  0  0  0  0  0  0  0  0  0
  186.5590  177.7320  145.2990 C   0  0  0  0  0  3  0  0  0  0  0  0
  186.1470  178.1760  144.0400 C   0  0  0  0  0  0  0  0  0  0  0  0
  186.5460  178.3980  141.7080 C   0  0  0  0  0  0  0  0  0  0  0  0
  184.5320  178.6360  146.2750 C   0  0  0  0  0  3  0  0  0  0  0  0
  184.8750  179.5860  140.3130 N   0  0  0  0  0  1  0  0  0  0  0  0
  186.9210  177.9680  142.9450 N   0  0  0  0  0  0  0  0  0  0  0  0
  184.1170  179.0850  145.0170 C   0  0  0  0  0  3  0  0  0  0  0  0
  184.5420  179.2900  142.6710 N   0  0  0  0  0  0  0  0  0  0  0  0
  187.1410  178.4500  136.0800 S   0  0  0  0  0  0  0  0  0  0  0  0
  186.7420  176.7430  135.6130 C   0  0  0  0  0  2  0  0  0  0  0  0
  185.5980  176.2450  136.4770 C   0  0  0  0  0  2  0  0  0  0  0  0
  185.4230  174.8100  136.3050 N   0  0  0  0  0  0  0  0  0  0  0  0
  186.4810  172.9030  137.3100 C   0  0  0  0  0  2  0  0  0  0  0  0
  185.0440  172.9560  137.7640 C   0  0  0  0  0  2  0  0  0  0  0  0
  186.7190  174.1960  136.5580 C   0  0  0  0  0  2  0  0  0  0  0  0
  184.5670  174.3380  137.3840 C   0  0  0  0  0  2  0  0  0  0  0  0
  191.3900  176.6510  140.0080 N   0  0  0  0  0  2  0  0  0  0  0  0
  192.1290  177.5860  140.8420 C   0  0  0  0  0  2  0  0  0  0  0  0
  192.2090  177.0870  142.1400 O   0  0  0  0  0  0  0  0  0  0  0  0
  191.3600  177.9060  142.8850 C   0  0  0  0  0  2  0  0  0  0  0  0
  190.4230  177.0480  143.7100 C   0  0  0  0  0  2  0  0  0  0  0  0
  190.4520  177.4920  145.0930 N   0  0  0  0  0  2  0  0  0  0  0  0
  191.6350  176.9040  145.6940 C   0  0  0  0  0  2  0  0  0  0  0  0
  191.3490  176.5370  147.1090 C   0  0  0  0  0  0  0  0  0  0  0  0
  192.0310  175.6460  147.6770 O   0  0  0  0  0  0  0  0  0  0  0  0
  190.3470  177.2010  147.8080 O   0  0  0  0  0  1  0  0  0  0  0  0
  1  2  1  0  0  0  0
  1 29  1  0  0  0  0
  2  7  1  0  0  0  0
  3  5  2  0  0  0  0
  3  8  1  0  0  0  0
  4  6  1  0  0  0  0
  4  2  2  0  0  0  0
  5  4  1  0  0  0  0
  6  9  2  0  0  0  0
  8  1  2  0  0  0  0
  9  7  1  0  0  0  0
  9 15  1  0  0  0  0
 11 14  1  0  0  0  0
 11 19  1  0  0  0  0
 12 15  2  0  0  0  0
 12 20  1  0  0  0  0
 13 10  2  0  0  0  0
 14 13  1  0  0  0  0
 15 18  1  0  0  0  0
 16 10  1  0  0  0  0
 17 12  1  0  0  0  0
 18 14  2  0  0  0  0
 19 16  2  0  0  0  0
 20 11  2  0  0  0  0
 21  5  1  0  0  0  0
 22 21  1  0  0  0  0
 22 23  1  0  0  0  0
 24 23  1  0  0  0  0
 24 27  1  0  0  0  0
 24 28  1  0  0  0  0
 25 26  1  0  0  0  0
 27 25  1  0  0  0  0
 28 26  1  0  0  0  0
 29 30  1  0  0  0  0
 30 31  1  0  0  0  0
 31 32  1  0  0  0  0
 32 33  1  0  0  0  0
 33 34  1  0  0  0  0
 34 35  1  0  0  0  0
 35 36  1  0  0  0  0
 36 37  2  0  0  0  0
 36 38  1  0  0  0  0
M  END
>  <MODEL>
2

>  <REMARK>
 VINA RESULT:      -8.0      3.126      5.467
  Name = 
  13 active torsions:
  status: ('A' for Active; 'I' for Inactive)
    1  A    between atoms: C_2  and  C_3
    2  A    between atoms: C_3  and  N_27
    3  A    between atoms: C_5  and  N_28
    4  A    between atoms: N_6  and  C_14
    5  A    between atoms: C_13  and  S_15
    6  A    between atoms: C_14  and  C_18
    7  A    between atoms: S_15  and  C_18
    8  A    between atoms: C_20  and  C_36
    9  A    between atoms: C_22  and  O_23
   10  A    between atoms: C_22  and  N_28
   11  A    between atoms: O_23  and  C_29
   12  A    between atoms: C_26  and  N_27
   13  A    between atoms: C_26  and  C_29
                            x       y       z     vdW  Elec       q    Type
                         _______ _______ _______ _____ _____    ______ ____

>  <TORSDO>
F 13

$$$$
=
 OpenBabel10232412233D

 38 42  0  0  0  0  0  0  0  0999 V2000
  185.0810  178.7580  139.5730 C   0  0  0  0  0  0  0  0  0  0  0  0
  184.8860  178.6650  140.9510 C   0  0  0  0  0  0  0  0  0  0  0  0
  182.6430  178.8800  139.3370 C   0  0  0  0  0  3  0  0  0  0  0  0
  183.6430  178.6710  141.5070 C   0  0  0  0  0  0  0  0  0  0  0  0
  182.4880  178.7800  140.7320 C   0  0  0  0  0  0  0  0  0  0  0  0
  183.7340  178.5570  142.8400 N   0  0  0  0  0  0  0  0  0  0  0  0
  185.8160  178.5470  141.9080 N   0  0  0  0  0  2  0  0  0  0  0  0
  183.9320  178.8680  138.7590 C   0  0  0  0  0  3  0  0  0  0  0  0
  185.0750  178.4870  143.0470 C   0  0  0  0  0  0  0  0  0  0  0  0
  189.5800  177.1080  146.9120 C   0  0  0  0  0  3  0  0  0  0  0  0
  186.9350  178.0150  146.8310 C   0  0  0  0  0  0  0  0  0  0  0  0
  185.0140  178.6270  145.5850 C   0  0  0  0  0  0  0  0  0  0  0  0
  188.9380  177.2650  145.6810 C   0  0  0  0  0  3  0  0  0  0  0  0
  187.6160  177.7170  145.6370 C   0  0  0  0  0  0  0  0  0  0  0  0
  185.6940  178.3290  144.3820 C   0  0  0  0  0  0  0  0  0  0  0  0
  188.9010  177.4030  148.1010 C   0  0  0  0  0  3  0  0  0  0  0  0
  183.6800  179.1300  145.5850 N   0  0  0  0  0  1  0  0  0  0  0  0
  186.9800  177.8820  144.4510 N   0  0  0  0  0  0  0  0  0  0  0  0
  187.5790  177.8580  148.0620 C   0  0  0  0  0  3  0  0  0  0  0  0
  185.6550  178.4640  146.7730 N   0  0  0  0  0  0  0  0  0  0  0  0
  180.8590  178.7690  141.4740 S   0  0  0  0  0  0  0  0  0  0  0  0
  180.1260  177.9000  140.0600 C   0  0  0  0  0  2  0  0  0  0  0  0
  179.9820  176.4280  140.4000 C   0  0  0  0  0  2  0  0  0  0  0  0
  180.3850  175.6070  139.2680 N   0  0  0  0  0  0  0  0  0  0  0  0
  181.3450  176.1310  137.1290 C   0  0  0  0  0  2  0  0  0  0  0  0
  182.3660  175.3840  137.9500 C   0  0  0  0  0  2  0  0  0  0  0  0
  180.1940  176.4160  138.0730 C   0  0  0  0  0  2  0  0  0  0  0  0
  181.8240  175.4070  139.3600 C   0  0  0  0  0  2  0  0  0  0  0  0
  186.4000  178.7450  139.0220 N   0  0  0  0  0  2  0  0  0  0  0  0
  186.7060  178.1480  137.7310 C   0  0  0  0  0  2  0  0  0  0  0  0
  188.0820  177.9530  137.6250 O   0  0  0  0  0  0  0  0  0  0  0  0
  188.2800  176.6280  138.0160 C   0  0  0  0  0  2  0  0  0  0  0  0
  189.5530  176.5260  138.8310 C   0  0  0  0  0  2  0  0  0  0  0  0
  189.7000  177.7150  139.6510 N   0  0  0  0  0  2  0  0  0  0  0  0
  189.0410  177.4340  140.9140 C   0  0  0  0  0  2  0  0  0  0  0  0
  190.0590  177.0730  141.9400 C   0  0  0  0  0  0  0  0  0  0  0  0
  190.4230  175.8750  142.0690 O   0  0  0  0  0  0  0  0  0  0  0  0
  190.6260  178.0640  142.7330 O   0  0  0  0  0  1  0  0  0  0  0  0
  1  2  1  0  0  0  0
  2  4  2  0  0  0  0
  2  7  1  0  0  0  0
  3  5  2  0  0  0  0
  4  6  1  0  0  0  0
  5 21  1  0  0  0  0
  5  4  1  0  0  0  0
  6  9  2  0  0  0  0
  7  9  1  0  0  0  0
  8  3  1  0  0  0  0
  8  1  2  0  0  0  0
  9 15  1  0  0  0  0
 10 16  1  0  0  0  0
 11 19  1  0  0  0  0
 12 20  2  0  0  0  0
 13 10  2  0  0  0  0
 14 13  1  0  0  0  0
 14 11  2  0  0  0  0
 15 18  2  0  0  0  0
 15 12  1  0  0  0  0
 17 12  1  0  0  0  0
 18 14  1  0  0  0  0
 19 16  2  0  0  0  0
 20 11  1  0  0  0  0
 22 23  1  0  0  0  0
 22 21  1  0  0  0  0
 24 28  1  0  0  0  0
 24 23  1  0  0  0  0
 25 26  1  0  0  0  0
 25 27  1  0  0  0  0
 26 28  1  0  0  0  0
 27 24  1  0  0  0  0
 29  1  1  0  0  0  0
 30 29  1  0  0  0  0
 31 30  1  0  0  0  0
 31 32  1  0  0  0  0
 32 33  1  0  0  0  0
 33 34  1  0  0  0  0
 34 35  1  0  0  0  0
 35 36  1  0  0  0  0
 36 37  2  0  0  0  0
 36 38  1  0  0  0  0
M  END
>  <MODEL>
3

>  <REMARK>
 VINA RESULT:      -7.8      3.534      6.618
  Name = 
  13 active torsions:
  status: ('A' for Active; 'I' for Inactive)
    1  A    between atoms: C_2  and  C_3
    2  A    between atoms: C_3  and  N_27
    3  A    between atoms: C_5  and  N_28
    4  A    between atoms: N_6  and  C_14
    5  A    between atoms: C_13  and  S_15
    6  A    between atoms: C_14  and  C_18
    7  A    between atoms: S_15  and  C_18
    8  A    between atoms: C_20  and  C_36
    9  A    between atoms: C_22  and  O_23
   10  A    between atoms: C_22  and  N_28
   11  A    between atoms: O_23  and  C_29
   12  A    between atoms: C_26  and  N_27
   13  A    between atoms: C_26  and  C_29
                            x       y       z     vdW  Elec       q    Type
                         _______ _______ _______ _____ _____    ______ ____

>  <TORSDO>
F 13

$$$$
=
 OpenBabel10232412233D

 38 42  0  0  0  0  0  0  0  0999 V2000
  190.6940  177.2750  139.7080 C   0  0  0  0  0  0  0  0  0  0  0  0
  189.6630  177.6480  140.5700 C   0  0  0  0  0  0  0  0  0  0  0  0
  192.2490  177.6500  141.5680 C   0  0  0  0  0  3  0  0  0  0  0  0
  189.8960  178.0100  141.8620 C   0  0  0  0  0  0  0  0  0  0  0  0
  191.1810  178.0220  142.4050 C   0  0  0  0  0  0  0  0  0  0  0  0
  188.7410  178.3320  142.4650 N   0  0  0  0  0  0  0  0  0  0  0  0
  188.3520  177.7250  140.3010 N   0  0  0  0  0  2  0  0  0  0  0  0
  192.0080  177.2790  140.2260 C   0  0  0  0  0  3  0  0  0  0  0  0
  187.8230  178.1430  141.4820 C   0  0  0  0  0  0  0  0  0  0  0  0
  182.6720  178.7780  144.6760 C   0  0  0  0  0  3  0  0  0  0  0  0
  183.6810  178.8540  142.0670 C   0  0  0  0  0  0  0  0  0  0  0  0
  185.5090  178.6720  140.5700 C   0  0  0  0  0  0  0  0  0  0  0  0
  184.0310  178.5400  144.4500 C   0  0  0  0  0  3  0  0  0  0  0  0
  184.5380  178.5760  143.1480 C   0  0  0  0  0  0  0  0  0  0  0  0
  186.3740  178.3920  141.6520 C   0  0  0  0  0  0  0  0  0  0  0  0
  181.8200  179.0540  143.5990 C   0  0  0  0  0  3  0  0  0  0  0  0
  185.9910  178.7600  139.2300 N   0  0  0  0  0  1  0  0  0  0  0  0
  185.8550  178.3540  142.9110 N   0  0  0  0  0  0  0  0  0  0  0  0
  182.3230  179.0940  142.2950 C   0  0  0  0  0  3  0  0  0  0  0  0
  184.1900  178.8980  140.8100 N   0  0  0  0  0  0  0  0  0  0  0  0
  191.4750  178.5180  144.0990 S   0  0  0  0  0  0  0  0  0  0  0  0
  191.2740  176.8260  144.7210 C   0  0  0  0  0  2  0  0  0  0  0  0
  189.8250  176.6120  145.1210 C   0  0  0  0  0  2  0  0  0  0  0  0
  189.3920  177.6640  146.0300 N   0  0  0  0  0  0  0  0  0  0  0  0
  187.4030  177.9730  147.3410 C   0  0  0  0  0  2  0  0  0  0  0  0
  188.5660  177.7400  148.2710 C   0  0  0  0  0  2  0  0  0  0  0  0
  187.9390  177.7180  145.9470 C   0  0  0  0  0  2  0  0  0  0  0  0
  189.6730  177.2170  147.3860 C   0  0  0  0  0  2  0  0  0  0  0  0
  190.4150  176.9030  138.3560 N   0  0  0  0  0  2  0  0  0  0  0  0
  189.8360  175.6170  138.0000 C   0  0  0  0  0  2  0  0  0  0  0  0
  190.8570  174.7040  137.7410 O   0  0  0  0  0  0  0  0  0  0  0  0
  191.5380  175.2400  136.6470 C   0  0  0  0  0  2  0  0  0  0  0  0
  192.9340  174.6530  136.5820 C   0  0  0  0  0  2  0  0  0  0  0  0
  193.7780  175.3020  137.5710 N   0  0  0  0  0  2  0  0  0  0  0  0
  195.0780  174.6620  137.4910 C   0  0  0  0  0  2  0  0  0  0  0  0
  195.4740  174.1610  138.8370 C   0  0  0  0  0  0  0  0  0  0  0  0
  195.8870  174.9670  139.7100 O   0  0  0  0  0  1  0  0  0  0  0  0
  195.3560  172.8090  139.1360 O   0  0  0  0  0  0  0  0  0  0  0  0
  1  8  2  0  0  0  0
  1  2  1  0  0  0  0
  2  4  2  0  0  0  0
  3  5  2  0  0  0  0
  4  5  1  0  0  0  0
  4  6  1  0  0  0  0
  5 21  1  0  0  0  0
  7  2  1  0  0  0  0
  7  9  1  0  0  0  0
  8  3  1  0  0  0  0
  9 15  1  0  0  0  0
  9  6  2  0  0  0  0
 11 19  2  0  0  0  0
 11 14  1  0  0  0  0
 12 20  2  0  0  0  0
 12 15  1  0  0  0  0
 13 10  1  0  0  0  0
 14 13  2  0  0  0  0
 15 18  2  0  0  0  0
 16 10  2  0  0  0  0
 17 12  1  0  0  0  0
 18 14  1  0  0  0  0
 19 16  1  0  0  0  0
 20 11  1  0  0  0  0
 21 22  1  0  0  0  0
 22 23  1  0  0  0  0
 23 24  1  0  0  0  0
 24 28  1  0  0  0  0
 25 26  1  0  0  0  0
 27 24  1  0  0  0  0
 27 25  1  0  0  0  0
 28 26  1  0  0  0  0
 29  1  1  0  0  0  0
 30 29  1  0  0  0  0
 31 30  1  0  0  0  0
 32 31  1  0  0  0  0
 33 32  1  0  0  0  0
 33 34  1  0  0  0  0
 35 34  1  0  0  0  0
 35 36  1  0  0  0  0
 36 38  2  0  0  0  0
 36 37  1  0  0  0  0
M  END
>  <MODEL>
4

>  <REMARK>
 VINA RESULT:      -7.8      3.620      8.319
  Name = 
  13 active torsions:
  status: ('A' for Active; 'I' for Inactive)
    1  A    between atoms: C_2  and  C_3
    2  A    between atoms: C_3  and  N_27
    3  A    between atoms: C_5  and  N_28
    4  A    between atoms: N_6  and  C_14
    5  A    between atoms: C_13  and  S_15
    6  A    between atoms: C_14  and  C_18
    7  A    between atoms: S_15  and  C_18
    8  A    between atoms: C_20  and  C_36
    9  A    between atoms: C_22  and  O_23
   10  A    between atoms: C_22  and  N_28
   11  A    between atoms: O_23  and  C_29
   12  A    between atoms: C_26  and  N_27
   13  A    between atoms: C_26  and  C_29
                            x       y       z     vdW  Elec       q    Type
                         _______ _______ _______ _____ _____    ______ ____

>  <TORSDO>
F 13

$$$$
=
 OpenBabel10232412233D

 38 42  0  0  0  0  0  0  0  0999 V2000
  188.2710  177.8950  137.6160 C   0  0  0  0  0  0  0  0  0  0  0  0
  188.8570  177.5060  138.8210 C   0  0  0  0  0  0  0  0  0  0  0  0
  189.9580  176.5350  136.4700 C   0  0  0  0  0  3  0  0  0  0  0  0
  189.9390  176.6810  138.8640 C   0  0  0  0  0  0  0  0  0  0  0  0
  190.5230  176.1670  137.7050 C   0  0  0  0  0  0  0  0  0  0  0  0
  190.3110  176.4760  140.1370 N   0  0  0  0  0  0  0  0  0  0  0  0
  188.4970  177.8570  140.0640 N   0  0  0  0  0  2  0  0  0  0  0  0
  188.8380  177.3950  136.4240 C   0  0  0  0  0  3  0  0  0  0  0  0
  189.4060  177.2060  140.8380 C   0  0  0  0  0  0  0  0  0  0  0  0
  186.8310  177.5230  146.3520 C   0  0  0  0  0  3  0  0  0  0  0  0
  189.3170  177.5210  145.0680 C   0  0  0  0  0  0  0  0  0  0  0  0
  190.5950  177.4140  143.0760 C   0  0  0  0  0  0  0  0  0  0  0  0
  186.8920  177.4290  144.9590 C   0  0  0  0  0  3  0  0  0  0  0  0
  188.1320  177.4290  144.3150 C   0  0  0  0  0  0  0  0  0  0  0  0
  189.4090  177.3210  142.3130 C   0  0  0  0  0  0  0  0  0  0  0  0
  188.0100  177.6160  147.1020 C   0  0  0  0  0  3  0  0  0  0  0  0
  191.8830  177.3760  142.4640 N   0  0  0  0  0  1  0  0  0  0  0  0
  188.2110  177.3310  142.9640 N   0  0  0  0  0  0  0  0  0  0  0  0
  189.2540  177.6140  146.4620 C   0  0  0  0  0  3  0  0  0  0  0  0
  190.5140  177.5090  144.4300 N   0  0  0  0  0  0  0  0  0  0  0  0
  191.9570  175.0990  137.7760 S   0  0  0  0  0  0  0  0  0  0  0  0
  193.0930  176.4510  137.3580 C   0  0  0  0  0  2  0  0  0  0  0  0
  193.8160  176.1120  136.0670 C   0  0  0  0  0  2  0  0  0  0  0  0
  195.2560  176.2290  136.2490 N   0  0  0  0  0  0  0  0  0  0  0  0
  197.0960  174.7920  135.6860 C   0  0  0  0  0  2  0  0  0  0  0  0
  197.1700  176.0330  134.8330 C   0  0  0  0  0  2  0  0  0  0  0  0
  195.7690  174.8760  136.4130 C   0  0  0  0  0  2  0  0  0  0  0  0
  195.8220  176.6960  134.9920 C   0  0  0  0  0  2  0  0  0  0  0  0
  187.1360  178.7650  137.6070 N   0  0  0  0  0  2  0  0  0  0  0  0
  185.7990  178.3160  137.9620 C   0  0  0  0  0  2  0  0  0  0  0  0
  185.1890  179.2710  138.7740 O   0  0  0  0  0  0  0  0  0  0  0  0
  184.7460  178.5550  139.8870 C   0  0  0  0  0  2  0  0  0  0  0  0
  183.2460  178.7180  140.0300 C   0  0  0  0  0  2  0  0  0  0  0  0
  182.8760  178.5830  141.4280 N   0  0  0  0  0  2  0  0  0  0  0  0
  184.1130  178.5870  142.1880 C   0  0  0  0  0  2  0  0  0  0  0  0
  183.8570  179.1070  143.5600 C   0  0  0  0  0  0  0  0  0  0  0  0
  184.6460  179.9420  144.0730 O   0  0  0  0  0  0  0  0  0  0  0  0
  182.7300  178.6910  144.2600 O   0  0  0  0  0  1  0  0  0  0  0  0
  1  2  1  0  0  0  0
  2  4  2  0  0  0  0
  2  7  1  0  0  0  0
  3  5  2  0  0  0  0
  4  6  1  0  0  0  0
  5 21  1  0  0  0  0
  5  4  1  0  0  0  0
  6  9  2  0  0  0  0
  7  9  1  0  0  0  0
  8  3  1  0  0  0  0
  8  1  2  0  0  0  0
  9 15  1  0  0  0  0
 10 16  1  0  0  0  0
 11 19  1  0  0  0  0
 12 20  2  0  0  0  0
 13 10  2  0  0  0  0
 14 13  1  0  0  0  0
 14 11  2  0  0  0  0
 15 18  2  0  0  0  0
 15 12  1  0  0  0  0
 17 12  1  0  0  0  0
 18 14  1  0  0  0  0
 19 16  2  0  0  0  0
 20 11  1  0  0  0  0
 22 21  1  0  0  0  0
 23 24  1  0  0  0  0
 23 22  1  0  0  0  0
 24 27  1  0  0  0  0
 25 27  1  0  0  0  0
 26 28  1  0  0  0  0
 26 25  1  0  0  0  0
 28 24  1  0  0  0  0
 29  1  1  0  0  0  0
 29 30  1  0  0  0  0
 30 31  1  0  0  0  0
 31 32  1  0  0  0  0
 32 33  1  0  0  0  0
 33 34  1  0  0  0  0
 34 35  1  0  0  0  0
 35 36  1  0  0  0  0
 36 37  2  0  0  0  0
 36 38  1  0  0  0  0
M  END
>  <MODEL>
5

>  <REMARK>
 VINA RESULT:      -7.7      2.180      2.936
  Name = 
  13 active torsions:
  status: ('A' for Active; 'I' for Inactive)
    1  A    between atoms: C_2  and  C_3
    2  A    between atoms: C_3  and  N_27
    3  A    between atoms: C_5  and  N_28
    4  A    between atoms: N_6  and  C_14
    5  A    between atoms: C_13  and  S_15
    6  A    between atoms: C_14  and  C_18
    7  A    between atoms: S_15  and  C_18
    8  A    between atoms: C_20  and  C_36
    9  A    between atoms: C_22  and  O_23
   10  A    between atoms: C_22  and  N_28
   11  A    between atoms: O_23  and  C_29
   12  A    between atoms: C_26  and  N_27
   13  A    between atoms: C_26  and  C_29
                            x       y       z     vdW  Elec       q    Type
                         _______ _______ _______ _____ _____    ______ ____

>  <TORSDO>
F 13

$$$$
=
 OpenBabel10232412233D

 38 42  0  0  0  0  0  0  0  0999 V2000
  191.0130  176.6540  137.9450 C   0  0  0  0  0  0  0  0  0  0  0  0
  190.2590  176.9620  139.0780 C   0  0  0  0  0  0  0  0  0  0  0  0
  189.0330  177.1920  136.6030 C   0  0  0  0  0  3  0  0  0  0  0  0
  188.9600  177.3590  138.9950 C   0  0  0  0  0  0  0  0  0  0  0  0
  188.3050  177.4900  137.7700 C   0  0  0  0  0  0  0  0  0  0  0  0
  188.4660  177.5790  140.2230 N   0  0  0  0  0  0  0  0  0  0  0  0
  190.6440  176.9150  140.3620 N   0  0  0  0  0  2  0  0  0  0  0  0
  190.3800  176.7750  136.6890 C   0  0  0  0  0  3  0  0  0  0  0  0
  189.5230  177.3000  141.0280 C   0  0  0  0  0  0  0  0  0  0  0  0
  186.7500  177.6710  146.4420 C   0  0  0  0  0  3  0  0  0  0  0  0
  189.2800  177.5100  145.2590 C   0  0  0  0  0  0  0  0  0  0  0  0
  190.6300  177.3560  143.3180 C   0  0  0  0  0  0  0  0  0  0  0  0
  186.8620  177.6090  145.0500 C   0  0  0  0  0  3  0  0  0  0  0  0
  188.1250  177.5290  144.4560 C   0  0  0  0  0  0  0  0  0  0  0  0
  189.4730  177.3760  142.5050 C   0  0  0  0  0  0  0  0  0  0  0  0
  187.9000  177.6530  147.2410 C   0  0  0  0  0  3  0  0  0  0  0  0
  191.9350  177.2340  142.7560 N   0  0  0  0  0  1  0  0  0  0  0  0
  188.2530  177.4620  143.1080 N   0  0  0  0  0  0  0  0  0  0  0  0
  189.1660  177.5700  146.6510 C   0  0  0  0  0  3  0  0  0  0  0  0
  190.4990  177.4210  144.6700 N   0  0  0  0  0  0  0  0  0  0  0  0
  186.5900  177.9950  137.6760 S   0  0  0  0  0  0  0  0  0  0  0  0
  186.3790  177.2770  136.0230 C   0  0  0  0  0  2  0  0  0  0  0  0
  185.3330  176.1780  136.0880 C   0  0  0  0  0  2  0  0  0  0  0  0
  185.6330  175.2600  137.1770 N   0  0  0  0  0  0  0  0  0  0  0  0
  184.8620  173.0470  137.7070 C   0  0  0  0  0  2  0  0  0  0  0  0
  186.3220  172.9770  137.3340 C   0  0  0  0  0  2  0  0  0  0  0  0
  184.4320  174.4680  137.4010 C   0  0  0  0  0  2  0  0  0  0  0  0
  186.6240  174.3100  136.6910 C   0  0  0  0  0  2  0  0  0  0  0  0
  192.3760  176.2380  138.0690 N   0  0  0  0  0  2  0  0  0  0  0  0
  193.3150  176.2860  136.9590 C   0  0  0  0  0  2  0  0  0  0  0  0
  194.5380  175.7540  137.3630 O   0  0  0  0  0  0  0  0  0  0  0  0
  194.2490  174.4340  137.7110 C   0  0  0  0  0  2  0  0  0  0  0  0
  195.4930  173.5840  137.5540 C   0  0  0  0  0  2  0  0  0  0  0  0
  196.1090  173.3830  138.8540 N   0  0  0  0  0  2  0  0  0  0  0  0
  197.1760  174.3620  138.9640 C   0  0  0  0  0  2  0  0  0  0  0  0
  197.0540  175.0910  140.2570 C   0  0  0  0  0  0  0  0  0  0  0  0
  197.9880  175.0380  141.0990 O   0  0  0  0  0  1  0  0  0  0  0  0
  195.9220  175.8550  140.5190 O   0  0  0  0  0  0  0  0  0  0  0  0
  1 29  1  0  0  0  0
  1  2  1  0  0  0  0
  2  7  1  0  0  0  0
  3  8  1  0  0  0  0
  3  5  2  0  0  0  0
  4  2  2  0  0  0  0
  4  6  1  0  0  0  0
  5  4  1  0  0  0  0
  6  9  2  0  0  0  0
  7  9  1  0  0  0  0
  8  1  2  0  0  0  0
  9 15  1  0  0  0  0
 10 16  1  0  0  0  0
 11 19  1  0  0  0  0
 12 20  2  0  0  0  0
 13 10  2  0  0  0  0
 14 13  1  0  0  0  0
 14 11  2  0  0  0  0
 15 18  2  0  0  0  0
 15 12  1  0  0  0  0
 17 12  1  0  0  0  0
 18 14  1  0  0  0  0
 19 16  2  0  0  0  0
 20 11  1  0  0  0  0
 21  5  1  0  0  0  0
 22 23  1  0  0  0  0
 22 21  1  0  0  0  0
 23 24  1  0  0  0  0
 24 27  1  0  0  0  0
 26 25  1  0  0  0  0
 27 25  1  0  0  0  0
 28 24  1  0  0  0  0
 28 26  1  0  0  0  0
 30 31  1  0  0  0  0
 30 29  1  0  0  0  0
 31 32  1  0  0  0  0
 33 32  1  0  0  0  0
 33 34  1  0  0  0  0
 34 35  1  0  0  0  0
 35 36  1  0  0  0  0
 36 38  2  0  0  0  0
 36 37  1  0  0  0  0
M  END
>  <MODEL>
6

>  <REMARK>
 VINA RESULT:      -7.5      4.381      6.944
  Name = 
  13 active torsions:
  status: ('A' for Active; 'I' for Inactive)
    1  A    between atoms: C_2  and  C_3
    2  A    between atoms: C_3  and  N_27
    3  A    between atoms: C_5  and  N_28
    4  A    between atoms: N_6  and  C_14
    5  A    between atoms: C_13  and  S_15
    6  A    between atoms: C_14  and  C_18
    7  A    between atoms: S_15  and  C_18
    8  A    between atoms: C_20  and  C_36
    9  A    between atoms: C_22  and  O_23
   10  A    between atoms: C_22  and  N_28
   11  A    between atoms: O_23  and  C_29
   12  A    between atoms: C_26  and  N_27
   13  A    between atoms: C_26  and  C_29
                            x       y       z     vdW  Elec       q    Type
                         _______ _______ _______ _____ _____    ______ ____

>  <TORSDO>
F 13

$$$$
=
 OpenBabel10232412233D

 38 42  0  0  0  0  0  0  0  0999 V2000
  190.6910  177.2660  140.0430 C   0  0  0  0  0  0  0  0  0  0  0  0
  189.6080  177.6510  140.8320 C   0  0  0  0  0  0  0  0  0  0  0  0
  192.1250  177.6600  141.9930 C   0  0  0  0  0  3  0  0  0  0  0  0
  189.7590  178.0280  142.1320 C   0  0  0  0  0  0  0  0  0  0  0  0
  191.0070  178.0450  142.7560 C   0  0  0  0  0  0  0  0  0  0  0  0
  188.5700  178.3600  142.6560 N   0  0  0  0  0  0  0  0  0  0  0  0
  188.3170  177.7270  140.4800 N   0  0  0  0  0  2  0  0  0  0  0  0
  191.9690  177.2730  140.6430 C   0  0  0  0  0  3  0  0  0  0  0  0
  187.7150  178.1610  141.6190 C   0  0  0  0  0  0  0  0  0  0  0  0
  182.3660  178.8050  144.4680 C   0  0  0  0  0  3  0  0  0  0  0  0
  183.5460  178.8850  141.9320 C   0  0  0  0  0  0  0  0  0  0  0  0
  185.4680  178.7000  140.5580 C   0  0  0  0  0  0  0  0  0  0  0  0
  183.7360  178.5620  144.3320 C   0  0  0  0  0  3  0  0  0  0  0  0
  184.3280  178.6010  143.0660 C   0  0  0  0  0  0  0  0  0  0  0  0
  186.2590  178.4140  141.6940 C   0  0  0  0  0  0  0  0  0  0  0  0
  181.5880  179.0870  143.3380 C   0  0  0  0  0  3  0  0  0  0  0  0
  186.0380  178.7900  139.2540 N   0  0  0  0  0  1  0  0  0  0  0  0
  185.6570  178.3740  142.9170 N   0  0  0  0  0  0  0  0  0  0  0  0
  182.1770  179.1290  142.0700 C   0  0  0  0  0  3  0  0  0  0  0  0
  184.1360  178.9300  140.7110 N   0  0  0  0  0  0  0  0  0  0  0  0
  191.1940  178.5600  144.4590 S   0  0  0  0  0  0  0  0  0  0  0  0
  191.1070  176.8560  145.0760 C   0  0  0  0  0  2  0  0  0  0  0  0
  190.4160  176.8510  146.4280 C   0  0  0  0  0  2  0  0  0  0  0  0
  189.3690  177.8610  146.4620 N   0  0  0  0  0  0  0  0  0  0  0  0
  186.9740  177.7270  146.5940 C   0  0  0  0  0  2  0  0  0  0  0  0
  187.4980  178.3230  147.8760 C   0  0  0  0  0  2  0  0  0  0  0  0
  188.1980  177.2740  145.8250 C   0  0  0  0  0  2  0  0  0  0  0  0
  188.9840  178.0490  147.8540 C   0  0  0  0  0  2  0  0  0  0  0  0
  190.4970  176.8790  138.6800 N   0  0  0  0  0  2  0  0  0  0  0  0
  191.4780  176.1020  137.9380 C   0  0  0  0  0  2  0  0  0  0  0  0
  191.2130  174.7430  138.1010 O   0  0  0  0  0  0  0  0  0  0  0  0
  190.0870  174.5080  137.3120 C   0  0  0  0  0  2  0  0  0  0  0  0
  190.3170  175.0640  135.9210 C   0  0  0  0  0  2  0  0  0  0  0  0
  189.0410  175.4180  135.3250 N   0  0  0  0  0  2  0  0  0  0  0  0
  189.0020  176.8670  135.2550 C   0  0  0  0  0  2  0  0  0  0  0  0
  187.9780  177.3870  136.2030 C   0  0  0  0  0  0  0  0  0  0  0  0
  187.8040  178.6280  136.3220 O   0  0  0  0  0  0  0  0  0  0  0  0
  187.1950  176.5000  136.9340 O   0  0  0  0  0  1  0  0  0  0  0  0
  1  8  2  0  0  0  0
  1  2  1  0  0  0  0
  2  4  2  0  0  0  0
  3  5  2  0  0  0  0
  4  6  1  0  0  0  0
  4  5  1  0  0  0  0
  5 21  1  0  0  0  0
  7  2  1  0  0  0  0
  7  9  1  0  0  0  0
  8  3  1  0  0  0  0
  9 15  1  0  0  0  0
  9  6  2  0  0  0  0
 11 19  2  0  0  0  0
 11 14  1  0  0  0  0
 12 20  2  0  0  0  0
 12 15  1  0  0  0  0
 13 10  1  0  0  0  0
 14 13  2  0  0  0  0
 15 18  2  0  0  0  0
 16 10  2  0  0  0  0
 17 12  1  0  0  0  0
 18 14  1  0  0  0  0
 19 16  1  0  0  0  0
 20 11  1  0  0  0  0
 21 22  1  0  0  0  0
 22 23  1  0  0  0  0
 23 24  1  0  0  0  0
 24 28  1  0  0  0  0
 25 26  1  0  0  0  0
 27 24  1  0  0  0  0
 27 25  1  0  0  0  0
 28 26  1  0  0  0  0
 29  1  1  0  0  0  0
 30 31  1  0  0  0  0
 30 29  1  0  0  0  0
 32 31  1  0  0  0  0
 33 32  1  0  0  0  0
 34 33  1  0  0  0  0
 35 34  1  0  0  0  0
 35 36  1  0  0  0  0
 36 37  2  0  0  0  0
 36 38  1  0  0  0  0
M  END
>  <MODEL>
7

>  <REMARK>
 VINA RESULT:      -7.4      2.897      7.601
  Name = 
  13 active torsions:
  status: ('A' for Active; 'I' for Inactive)
    1  A    between atoms: C_2  and  C_3
    2  A    between atoms: C_3  and  N_27
    3  A    between atoms: C_5  and  N_28
    4  A    between atoms: N_6  and  C_14
    5  A    between atoms: C_13  and  S_15
    6  A    between atoms: C_14  and  C_18
    7  A    between atoms: S_15  and  C_18
    8  A    between atoms: C_20  and  C_36
    9  A    between atoms: C_22  and  O_23
   10  A    between atoms: C_22  and  N_28
   11  A    between atoms: O_23  and  C_29
   12  A    between atoms: C_26  and  N_27
   13  A    between atoms: C_26  and  C_29
                            x       y       z     vdW  Elec       q    Type
                         _______ _______ _______ _____ _____    ______ ____

>  <TORSDO>
F 13

$$$$
=
 OpenBabel10232412233D

 38 42  0  0  0  0  0  0  0  0999 V2000
  187.8530  178.0460  139.5390 C   0  0  0  0  0  0  0  0  0  0  0  0
  189.0260  177.3300  139.3000 C   0  0  0  0  0  0  0  0  0  0  0  0
  188.4790  178.0880  141.9090 C   0  0  0  0  0  3  0  0  0  0  0  0
  189.8860  176.9980  140.3020 C   0  0  0  0  0  0  0  0  0  0  0  0
  189.6510  177.3610  141.6280 C   0  0  0  0  0  0  0  0  0  0  0  0
  190.9220  176.3030  139.8080 N   0  0  0  0  0  0  0  0  0  0  0  0
  189.4810  176.8610  138.1300 N   0  0  0  0  0  2  0  0  0  0  0  0
  187.5830  178.4290  140.8710 C   0  0  0  0  0  3  0  0  0  0  0  0
  190.6400  176.2430  138.4800 C   0  0  0  0  0  0  0  0  0  0  0  0
  195.5160  175.5970  134.8820 C   0  0  0  0  0  3  0  0  0  0  0  0
  193.1510  174.3170  135.6540 C   0  0  0  0  0  0  0  0  0  0  0  0
  191.1660  174.2840  136.9470 C   0  0  0  0  0  0  0  0  0  0  0  0
  194.6640  176.2110  135.8050 C   0  0  0  0  0  3  0  0  0  0  0  0
  193.4820  175.5740  136.1920 C   0  0  0  0  0  0  0  0  0  0  0  0
  191.4920  175.5470  137.4910 C   0  0  0  0  0  0  0  0  0  0  0  0
  195.1860  174.3460  134.3460 C   0  0  0  0  0  3  0  0  0  0  0  0
  189.9900  173.5800  137.3440 N   0  0  0  0  0  1  0  0  0  0  0  0
  192.6470  176.1510  137.0920 N   0  0  0  0  0  0  0  0  0  0  0  0
  194.0050  173.7040  134.7320 C   0  0  0  0  0  3  0  0  0  0  0  0
  192.0060  173.7050  136.0470 N   0  0  0  0  0  0  0  0  0  0  0  0
  190.7800  176.9020  142.9380 S   0  0  0  0  0  0  0  0  0  0  0  0
  189.6790  177.5420  144.2310 C   0  0  0  0  0  2  0  0  0  0  0  0
  190.2940  177.2640  145.5910 C   0  0  0  0  0  2  0  0  0  0  0  0
  189.2550  176.9330  146.5550 N   0  0  0  0  0  0  0  0  0  0  0  0
  188.4070  178.0650  148.4960 C   0  0  0  0  0  2  0  0  0  0  0  0
  187.3350  178.0490  147.4360 C   0  0  0  0  0  2  0  0  0  0  0  0
  189.6530  177.5290  147.8220 C   0  0  0  0  0  2  0  0  0  0  0  0
  188.0490  177.6490  146.1670 C   0  0  0  0  0  2  0  0  0  0  0  0
  186.9700  178.3760  138.4630 N   0  0  0  0  0  2  0  0  0  0  0  0
  185.5220  178.3610  138.6040 C   0  0  0  0  0  2  0  0  0  0  0  0
  185.0540  179.6690  138.7260 O   0  0  0  0  0  0  0  0  0  0  0  0
  183.8260  179.5430  139.3770 C   0  0  0  0  0  2  0  0  0  0  0  0
  183.8430  178.3110  140.2580 C   0  0  0  0  0  2  0  0  0  0  0  0
  183.3190  178.6470  141.5700 N   0  0  0  0  0  2  0  0  0  0  0  0
  184.2100  178.0400  142.5420 C   0  0  0  0  0  2  0  0  0  0  0  0
  184.8080  179.0980  143.4020 C   0  0  0  0  0  0  0  0  0  0  0  0
  185.3780  180.0890  142.8750 O   0  0  0  0  0  0  0  0  0  0  0  0
  184.7100  179.0060  144.7860 O   0  0  0  0  0  1  0  0  0  0  0  0
  1  8  1  0  0  0  0
  2  1  2  0  0  0  0
  2  4  1  0  0  0  0
  4  5  2  0  0  0  0
  5  3  1  0  0  0  0
  5 21  1  0  0  0  0
  6  4  1  0  0  0  0
  7  9  1  0  0  0  0
  7  2  1  0  0  0  0
  8  3  2  0  0  0  0
  9  6  2  0  0  0  0
 10 13  1  0  0  0  0
 11 20  1  0  0  0  0
 11 14  1  0  0  0  0
 12 17  1  0  0  0  0
 12 15  1  0  0  0  0
 13 14  2  0  0  0  0
 14 18  1  0  0  0  0
 15  9  1  0  0  0  0
 16 19  1  0  0  0  0
 16 10  2  0  0  0  0
 18 15  2  0  0  0  0
 19 11  2  0  0  0  0
 20 12  2  0  0  0  0
 21 22  1  0  0  0  0
 22 23  1  0  0  0  0
 23 24  1  0  0  0  0
 24 27  1  0  0  0  0
 26 25  1  0  0  0  0
 27 25  1  0  0  0  0
 28 24  1  0  0  0  0
 28 26  1  0  0  0  0
 29 30  1  0  0  0  0
 29  1  1  0  0  0  0
 30 31  1  0  0  0  0
 31 32  1  0  0  0  0
 32 33  1  0  0  0  0
 33 34  1  0  0  0  0
 34 35  1  0  0  0  0
 35 36  1  0  0  0  0
 36 38  1  0  0  0  0
 37 36  2  0  0  0  0
M  END
>  <MODEL>
8

>  <REMARK>
 VINA RESULT:      -7.3      2.008      7.980
  Name = 
  13 active torsions:
  status: ('A' for Active; 'I' for Inactive)
    1  A    between atoms: C_2  and  C_3
    2  A    between atoms: C_3  and  N_27
    3  A    between atoms: C_5  and  N_28
    4  A    between atoms: N_6  and  C_14
    5  A    between atoms: C_13  and  S_15
    6  A    between atoms: C_14  and  C_18
    7  A    between atoms: S_15  and  C_18
    8  A    between atoms: C_20  and  C_36
    9  A    between atoms: C_22  and  O_23
   10  A    between atoms: C_22  and  N_28
   11  A    between atoms: O_23  and  C_29
   12  A    between atoms: C_26  and  N_27
   13  A    between atoms: C_26  and  C_29
                            x       y       z     vdW  Elec       q    Type
                         _______ _______ _______ _____ _____    ______ ____

>  <TORSDO>
F 13

$$$$
=
 OpenBabel10232412233D

 38 42  0  0  0  0  0  0  0  0999 V2000
  189.1410  178.3860  139.4520 C   0  0  0  0  0  0  0  0  0  0  0  0
  188.2340  178.1570  140.4860 C   0  0  0  0  0  0  0  0  0  0  0  0
  190.7360  176.9780  140.6710 C   0  0  0  0  0  3  0  0  0  0  0  0
  188.5480  177.3870  141.5640 C   0  0  0  0  0  0  0  0  0  0  0  0
  189.7940  176.7730  141.6960 C   0  0  0  0  0  0  0  0  0  0  0  0
  187.5100  177.3390  142.4130 N   0  0  0  0  0  0  0  0  0  0  0  0
  186.9850  178.6280  140.6060 N   0  0  0  0  0  2  0  0  0  0  0  0
  190.4130  177.7810  139.5550 C   0  0  0  0  0  3  0  0  0  0  0  0
  186.5750  178.1050  141.7930 C   0  0  0  0  0  0  0  0  0  0  0  0
  180.5610  179.0440  141.5100 C   0  0  0  0  0  3  0  0  0  0  0  0
  182.6930  178.8860  143.3150 C   0  0  0  0  0  0  0  0  0  0  0  0
  185.0000  178.5520  143.7380 C   0  0  0  0  0  0  0  0  0  0  0  0
  181.8530  178.7960  141.0380 C   0  0  0  0  0  3  0  0  0  0  0  0
  182.9200  178.7180  141.9370 C   0  0  0  0  0  0  0  0  0  0  0  0
  185.2350  178.3820  142.3550 C   0  0  0  0  0  0  0  0  0  0  0  0
  180.3350  179.2130  142.8820 C   0  0  0  0  0  3  0  0  0  0  0  0
  186.0520  178.4390  144.6950 N   0  0  0  0  0  1  0  0  0  0  0  0
  184.1790  178.4710  141.4970 N   0  0  0  0  0  0  0  0  0  0  0  0
  181.4000  179.1330  143.7860 C   0  0  0  0  0  3  0  0  0  0  0  0
  183.7360  178.7960  144.1770 N   0  0  0  0  0  0  0  0  0  0  0  0
  190.1990  175.7780  143.1280 S   0  0  0  0  0  0  0  0  0  0  0  0
  191.2000  177.0970  143.8690 C   0  0  0  0  0  2  0  0  0  0  0  0
  191.6100  176.6830  145.2710 C   0  0  0  0  0  2  0  0  0  0  0  0
  190.8790  177.4620  146.2610 N   0  0  0  0  0  0  0  0  0  0  0  0
  188.5360  177.7640  146.6960 C   0  0  0  0  0  2  0  0  0  0  0  0
  189.1500  177.0040  147.8450 C   0  0  0  0  0  2  0  0  0  0  0  0
  189.6200  177.8520  145.6410 C   0  0  0  0  0  2  0  0  0  0  0  0
  190.5020  176.5600  147.3400 C   0  0  0  0  0  2  0  0  0  0  0  0
  188.7800  179.2030  138.3350 N   0  0  0  0  0  2  0  0  0  0  0  0
  188.9840  178.7830  136.9570 C   0  0  0  0  0  2  0  0  0  0  0  0
  187.7660  178.3850  136.4080 O   0  0  0  0  0  0  0  0  0  0  0  0
  187.8520  176.9950  136.3360 C   0  0  0  0  0  2  0  0  0  0  0  0
  186.5020  176.3870  136.6620 C   0  0  0  0  0  2  0  0  0  0  0  0
  186.5720  174.9440  136.5100 N   0  0  0  0  0  2  0  0  0  0  0  0
  185.2170  174.4850  136.2670 C   0  0  0  0  0  2  0  0  0  0  0  0
  184.6170  173.9980  137.5400 C   0  0  0  0  0  0  0  0  0  0  0  0
  183.7170  174.6690  138.1070 O   0  0  0  0  0  1  0  0  0  0  0  0
  185.0320  172.7870  138.0830 O   0  0  0  0  0  0  0  0  0  0  0  0
  1  8  2  0  0  0  0
  1  2  1  0  0  0  0
  2  7  1  0  0  0  0
  2  4  2  0  0  0  0
  3  5  2  0  0  0  0
  4  5  1  0  0  0  0
  4  6  1  0  0  0  0
  5 21  1  0  0  0  0
  7  9  1  0  0  0  0
  8  3  1  0  0  0  0
  9 15  1  0  0  0  0
  9  6  2  0  0  0  0
 10 16  1  0  0  0  0
 11 19  1  0  0  0  0
 11 20  1  0  0  0  0
 12 20  2  0  0  0  0
 12 17  1  0  0  0  0
 13 10  2  0  0  0  0
 13 14  1  0  0  0  0
 14 11  2  0  0  0  0
 15 12  1  0  0  0  0
 16 19  2  0  0  0  0
 18 14  1  0  0  0  0
 18 15  2  0  0  0  0
 21 22  1  0  0  0  0
 22 23  1  0  0  0  0
 23 24  1  0  0  0  0
 24 28  1  0  0  0  0
 25 26  1  0  0  0  0
 27 24  1  0  0  0  0
 27 25  1  0  0  0  0
 28 26  1  0  0  0  0
 29  1  1  0  0  0  0
 30 29  1  0  0  0  0
 31 30  1  0  0  0  0
 32 31  1  0  0  0  0
 32 33  1  0  0  0  0
 34 33  1  0  0  0  0
 35 34  1  0  0  0  0
 35 36  1  0  0  0  0
 36 38  2  0  0  0  0
 36 37  1  0  0  0  0
M  END
>  <MODEL>
9

>  <REMARK>
 VINA RESULT:      -7.3      2.979      7.099
  Name = 
  13 active torsions:
  status: ('A' for Active; 'I' for Inactive)
    1  A    between atoms: C_2  and  C_3
    2  A    between atoms: C_3  and  N_27
    3  A    between atoms: C_5  and  N_28
    4  A    between atoms: N_6  and  C_14
    5  A    between atoms: C_13  and  S_15
    6  A    between atoms: C_14  and  C_18
    7  A    between atoms: S_15  and  C_18
    8  A    between atoms: C_20  and  C_36
    9  A    between atoms: C_22  and  O_23
   10  A    between atoms: C_22  and  N_28
   11  A    between atoms: O_23  and  C_29
   12  A    between atoms: C_26  and  N_27
   13  A    between atoms: C_26  and  C_29
                            x       y       z     vdW  Elec       q    Type
                         _______ _______ _______ _____ _____    ______ ____

>  <TORSDO>
F 13

$$$$
