=
 OpenBabel10232409313D

 53 60  0  0  1  0  0  0  0  0999 V2000
  185.3020  178.4660  138.9210 C   0  0  0  0  0  0  0  0  0  0  0  0
  186.4290  178.5270  139.4870 O   0  0  0  0  0  0  0  0  0  0  0  0
  182.8140  178.7580  139.1430 C   0  0  0  0  0  3  0  0  0  0  0  0
  184.1550  178.5020  141.1400 C   0  0  0  0  0  3  0  0  0  0  0  0
  181.6680  178.8890  139.9310 C   0  0  0  0  0  3  0  0  0  0  0  0
  184.0700  178.5680  139.7410 C   0  0  0  0  0  0  0  0  0  0  0  0
  183.0110  178.6390  141.9380 C   0  0  0  0  0  0  0  0  0  0  0  0
  181.7660  178.8360  141.3230 C   0  0  0  0  0  3  0  0  0  0  0  0
  183.1180  178.6110  143.4070 C   0  0  0  0  0  0  0  0  0  0  0  0
  184.4050  178.5760  144.0260 N   0  0  0  0  0  2  0  0  0  0  0  0
  182.0720  178.5950  144.1170 O   0  0  0  0  0  0  0  0  0  0  0  0
  184.5590  178.4450  145.4670 C   0  0  0  0  0  2  0  0  0  0  0  0
  185.5990  179.4430  145.9490 C   0  0  0  0  0  2  0  0  0  0  0  0
  188.9090  177.1760  147.3070 C   0  0  0  0  0  2  0  0  0  0  0  0
  187.1330  178.8700  147.8500 C   0  0  0  0  0  2  0  0  0  0  0  0
  186.8080  177.3710  145.9710 O   0  0  0  0  0  0  0  0  0  0  0  0
  188.0990  176.7850  146.0540 C   0  0  1  0  0  3  0  0  0  0  0  0
  187.9760  177.7130  148.3890 C   0  0  0  0  0  2  0  0  0  0  0  0
  186.8840  178.7320  146.3380 C   0  0  1  0  0  3  0  0  0  0  0  0
  191.3190  177.8330  141.9690 O   0  0  0  0  0  1  0  0  0  0  0  0
  189.8610  178.1500  144.7810 C   0  0  0  0  0  2  0  0  0  0  0  0
  190.5730  176.7040  142.3060 C   0  0  1  0  0  3  0  0  0  0  0  0
  191.0490  176.1490  143.6600 C   0  0  0  0  0  2  0  0  0  0  0  0
  188.2810  176.5460  143.4270 C   0  0  0  0  0  2  0  0  0  0  0  0
  189.0810  177.0370  142.2230 C   0  0  0  0  0  2  0  0  0  0  0  0
  188.9000  176.9710  144.7680 C   0  0  2  0  0  0  0  0  0  0  0  0
  190.3910  176.7220  144.9340 C   0  0  2  0  0  3  0  0  0  0  0  0
  185.2700  178.2910  137.4280 C   0  0  2  0  0  3  0  0  0  0  0  0
  185.1550  176.8140  137.0250 C   0  0  2  0  0  3  0  0  0  0  0  0
  183.8100  176.5130  136.5660 N   0  0  0  0  0  1  0  0  0  0  0  0
  185.4620  175.9900  138.0980 F   0  0  0  0  0  0  0  0  0  0  0  0
  186.4490  178.9160  136.8360 N   0  0  0  0  0  2  0  0  0  0  0  0
  187.1470  177.9260  136.0210 C   0  0  1  0  0  3  0  0  0  0  0  0
  186.8640  178.1760  134.5510 C   0  0  0  0  0  1  0  0  0  0  0  0
  188.5820  178.0280  136.2440 N   0  0  0  0  0  2  0  0  0  0  0  0
  192.8610  175.6360  136.2020 C   0  0  2  0  0  3  0  0  0  0  0  0
  189.0090  176.4660  138.3850 S   0  0  0  0  0  0  0  0  0  0  0  0
  189.0810  176.7010  136.5750 C   0  0  2  0  0  3  0  0  0  0  0  0
  190.5970  176.6680  136.4800 C   0  0  1  0  0  0  0  0  0  0  0  0
  191.8550  176.6260  138.6030 C   0  0  0  0  0  2  0  0  0  0  0  0
  190.9200  176.3660  135.1110 O   0  0  0  0  0  0  0  0  0  0  0  0
  193.3220  175.7100  137.9940 S   0  0  0  0  0  0  0  0  0  0  0  0
  190.6820  176.0440  137.8560 C   0  0  1  0  0  3  0  0  0  0  0  0
  191.3440  175.4310  135.9820 C   0  0  1  0  0  3  0  0  0  0  0  0
  193.6170  174.5850  135.5390 N   0  0  0  0  0  2  0  0  0  0  0  0
  193.7580  173.4990  136.4960 C   0  0  0  0  0  2  0  0  0  0  0  0
  195.6890  172.8430  137.8660 C   0  0  0  0  0  0  0  0  0  0  0  0
  197.8500  175.5330  137.2700 O   0  0  0  0  0  0  0  0  0  0  0  0
  195.2600  171.9650  138.6610 O   0  0  0  0  0  0  0  0  0  0  0  0
  196.2530  174.1720  135.6030 S   0  0  0  0  0  0  0  0  0  0  0  0
  196.6960  173.7570  138.2540 N   0  0  0  0  0  2  0  0  0  0  0  0
  195.1780  172.9640  136.4700 C   0  0  2  0  0  3  0  0  0  0  0  0
  197.0420  174.5730  137.1520 C   0  0  0  0  0  0  0  0  0  0  0  0
  1  2  2  0  0  0  0
  1  6  1  0  0  0  0
  3  6  2  0  0  0  0
  3  5  1  0  0  0  0
  4  7  2  0  0  0  0
  5  8  2  0  0  0  0
  6  4  1  0  0  0  0
  7  9  1  0  0  0  0
  8  7  1  0  0  0  0
  9 10  1  0  0  0  0
  9 11  2  0  0  0  0
 10 12  1  0  0  0  0
 12 13  1  0  0  0  0
 14 18  1  0  0  0  0
 15 18  1  0  0  0  0
 16 17  1  0  0  0  0
 16 19  1  0  0  0  0
 17 14  1  1  0  0  0
 19 13  1  1  0  0  0
 19 15  1  0  0  0  0
 21 27  1  0  0  0  0
 22 20  1  1  0  0  0
 22 23  1  0  0  0  0
 25 22  1  0  0  0  0
 25 24  1  0  0  0  0
 26 24  1  6  0  0  0
 26 21  1  0  0  0  0
 26 27  1  0  0  0  0
 26 17  1  0  0  0  0
 27 23  1  6  0  0  0
 28 32  1  6  0  0  0
 28  1  1  0  0  0  0
 29 30  1  1  0  0  0
 29 28  1  0  0  0  0
 29 31  1  0  0  0  0
 33 34  1  6  0  0  0
 33 35  1  0  0  0  0
 33 32  1  0  0  0  0
 36 45  1  1  0  0  0
 36 42  1  0  0  0  0
 38 35  1  1  0  0  0
 38 37  1  0  0  0  0
 39 41  1  6  0  0  0
 39 38  1  0  0  0  0
 39 43  1  0  0  0  0
 42 40  1  0  0  0  0
 43 37  1  0  0  0  0
 43 40  1  1  0  0  0
 44 41  1  6  0  0  0
 44 36  1  0  0  0  0
 44 39  1  0  0  0  0
 45 46  1  0  0  0  0
 47 51  1  0  0  0  0
 47 49  2  0  0  0  0
 50 52  1  0  0  0  0
 50 53  1  0  0  0  0
 52 46  1  1  0  0  0
 52 47  1  0  0  0  0
 53 48  2  0  0  0  0
 53 51  1  0  0  0  0
M  END
>  <MODEL>
1

>  <REMARK>
 VINA RESULT:      -8.3      0.000      0.000
  Name = 
  15 active torsions:
  status: ('A' for Active; 'I' for Inactive)
    1  A    between atoms: C_2  and  N_4
    2  A    between atoms: C_2  and  N_9
    3  A    between atoms: C_3  and  N_51
    4  A    between atoms: N_4  and  C_13
    5  A    between atoms: N_9  and  C_18
    6  A    between atoms: C_13  and  C_17
    7  A    between atoms: C_13  and  C_39
    8  A    between atoms: C_20  and  C_39
    9  A    between atoms: C_21  and  C_27
   10  A    between atoms: N_29  and  C_52
   11  A    between atoms: C_34  and  C_35
   12  A    between atoms: C_37  and  C_44
   13  A    between atoms: C_44  and  C_52
   14  A    between atoms: C_48  and  C_53
   15  A    between atoms: N_51  and  C_53
                            x       y       z     vdW  Elec       q    Type
                         _______ _______ _______ _____ _____    ______ ____

>  <TORSDO>
F 15

$$$$
=
 OpenBabel10232409313D

 53 60  0  0  1  0  0  0  0  0999 V2000
  188.3730  176.5860  143.5990 C   0  0  0  0  0  0  0  0  0  0  0  0
  188.2470  175.3550  143.3480 O   0  0  0  0  0  0  0  0  0  0  0  0
  186.6720  177.8500  144.9540 C   0  0  0  0  0  3  0  0  0  0  0  0
  186.4690  177.8110  142.5440 C   0  0  0  0  0  3  0  0  0  0  0  0
  185.5090  178.6180  145.0390 C   0  0  0  0  0  3  0  0  0  0  0  0
  187.1620  177.4340  143.7050 C   0  0  0  0  0  0  0  0  0  0  0  0
  185.2970  178.5760  142.6210 C   0  0  0  0  0  0  0  0  0  0  0  0
  184.8200  178.9750  143.8780 C   0  0  0  0  0  3  0  0  0  0  0  0
  184.5550  178.9290  141.3980 C   0  0  0  0  0  0  0  0  0  0  0  0
  183.1880  178.5400  141.2560 N   0  0  0  0  0  2  0  0  0  0  0  0
  185.1360  179.5550  140.4660 O   0  0  0  0  0  0  0  0  0  0  0  0
  182.4470  178.7770  140.0270 C   0  0  0  0  0  2  0  0  0  0  0  0
  181.6710  177.5220  139.6650 C   0  0  0  0  0  2  0  0  0  0  0  0
  182.5820  176.8770  135.5780 C   0  0  0  0  0  2  0  0  0  0  0  0
  181.1940  178.1130  137.2730 C   0  0  0  0  0  2  0  0  0  0  0  0
  183.3070  177.1360  137.9540 O   0  0  0  0  0  0  0  0  0  0  0  0
  183.5550  176.4930  136.7120 C   0  0  1  0  0  3  0  0  0  0  0  0
  181.8830  178.1940  135.9090 C   0  0  0  0  0  2  0  0  0  0  0  0
  181.9200  177.1380  138.2160 C   0  0  1  0  0  3  0  0  0  0  0  0
  183.3400  171.2120  137.1750 O   0  0  0  0  0  1  0  0  0  0  0  0
  182.4110  174.2560  137.2360 C   0  0  0  0  0  2  0  0  0  0  0  0
  184.2850  172.0630  136.6020 C   0  0  1  0  0  3  0  0  0  0  0  0
  183.6430  172.8550  135.4500 C   0  0  0  0  0  2  0  0  0  0  0  0
  185.0320  174.3940  137.3410 C   0  0  0  0  0  2  0  0  0  0  0  0
  184.9350  172.9120  137.6970 C   0  0  0  0  0  2  0  0  0  0  0  0
  183.6950  174.9810  136.8630 C   0  0  2  0  0  0  0  0  0  0  0  0
  182.9470  174.1870  135.8040 C   0  0  2  0  0  3  0  0  0  0  0  0
  189.7630  177.1320  143.7780 C   0  0  2  0  0  3  0  0  0  0  0  0
  190.0880  177.4000  145.2550 C   0  0  2  0  0  3  0  0  0  0  0  0
  191.4690  177.0550  145.5440 N   0  0  0  0  0  1  0  0  0  0  0  0
  189.2540  176.6620  146.0800 F   0  0  0  0  0  0  0  0  0  0  0  0
  189.9250  178.3360  142.9680 N   0  0  0  0  0  2  0  0  0  0  0  0
  190.6510  177.9890  141.7500 C   0  0  1  0  0  3  0  0  0  0  0  0
  191.8210  177.0830  142.0880 C   0  0  0  0  0  1  0  0  0  0  0  0
  189.7660  177.2860  140.8320 N   0  0  0  0  0  2  0  0  0  0  0  0
  190.4050  174.8140  136.6470 C   0  0  2  0  0  3  0  0  0  0  0  0
  188.9820  178.6010  138.6280 S   0  0  0  0  0  0  0  0  0  0  0  0
  190.2180  177.5580  139.4750 C   0  0  2  0  0  3  0  0  0  0  0  0
  190.0120  176.3360  138.5950 C   0  0  1  0  0  0  0  0  0  0  0  0
  188.1540  176.4220  136.9720 C   0  0  0  0  0  2  0  0  0  0  0  0
  191.1860  175.5170  138.7410 O   0  0  0  0  0  0  0  0  0  0  0  0
  188.8900  175.3150  135.7090 S   0  0  0  0  0  0  0  0  0  0  0  0
  189.3150  177.1880  137.5560 C   0  0  1  0  0  3  0  0  0  0  0  0
  190.9980  175.9680  137.4870 C   0  0  1  0  0  3  0  0  0  0  0  0
  191.4040  174.2870  135.7300 N   0  0  0  0  0  2  0  0  0  0  0  0
  192.2210  173.3540  136.4880 C   0  0  0  0  0  2  0  0  0  0  0  0
  194.4330  173.9910  137.3480 C   0  0  0  0  0  0  0  0  0  0  0  0
  194.8030  177.1580  135.8990 O   0  0  0  0  0  0  0  0  0  0  0  0
  194.6550  173.2220  138.3200 O   0  0  0  0  0  0  0  0  0  0  0  0
  193.8320  174.8750  134.8850 S   0  0  0  0  0  0  0  0  0  0  0  0
  194.8960  175.3270  137.3470 N   0  0  0  0  0  2  0  0  0  0  0  0
  193.6860  173.5410  136.1380 C   0  0  2  0  0  3  0  0  0  0  0  0
  194.5790  175.9350  136.1100 C   0  0  0  0  0  0  0  0  0  0  0  0
  1  6  1  0  0  0  0
  1 28  1  0  0  0  0
  2  1  2  0  0  0  0
  3  5  1  0  0  0  0
  4  7  2  0  0  0  0
  4  6  1  0  0  0  0
  6  3  2  0  0  0  0
  7  8  1  0  0  0  0
  8  5  2  0  0  0  0
  9  7  1  0  0  0  0
 10  9  1  0  0  0  0
 11  9  2  0  0  0  0
 12 10  1  0  0  0  0
 13 12  1  0  0  0  0
 14 18  1  0  0  0  0
 15 19  1  0  0  0  0
 16 19  1  0  0  0  0
 17 14  1  6  0  0  0
 17 26  1  0  0  0  0
 17 16  1  0  0  0  0
 18 15  1  0  0  0  0
 19 13  1  1  0  0  0
 22 20  1  1  0  0  0
 22 25  1  0  0  0  0
 23 22  1  0  0  0  0
 24 25  1  0  0  0  0
 26 21  1  1  0  0  0
 26 24  1  0  0  0  0
 27 23  1  1  0  0  0
 27 26  1  0  0  0  0
 27 21  1  0  0  0  0
 28 32  1  6  0  0  0
 28 29  1  0  0  0  0
 29 30  1  6  0  0  0
 29 31  1  0  0  0  0
 33 34  1  1  0  0  0
 33 32  1  0  0  0  0
 35 33  1  0  0  0  0
 36 45  1  6  0  0  0
 36 44  1  0  0  0  0
 37 38  1  0  0  0  0
 38 35  1  1  0  0  0
 39 41  1  1  0  0  0
 39 38  1  0  0  0  0
 42 36  1  0  0  0  0
 42 40  1  0  0  0  0
 43 40  1  1  0  0  0
 43 39  1  0  0  0  0
 43 37  1  0  0  0  0
 44 39  1  0  0  0  0
 44 41  1  1  0  0  0
 45 46  1  0  0  0  0
 47 49  2  0  0  0  0
 48 53  2  0  0  0  0
 50 53  1  0  0  0  0
 50 52  1  0  0  0  0
 51 47  1  0  0  0  0
 52 46  1  1  0  0  0
 52 47  1  0  0  0  0
 53 51  1  0  0  0  0
M  END
>  <MODEL>
2

>  <REMARK>
 VINA RESULT:      -8.2      3.170      7.112
  Name = 
  15 active torsions:
  status: ('A' for Active; 'I' for Inactive)
    1  A    between atoms: C_2  and  N_4
    2  A    between atoms: C_2  and  N_9
    3  A    between atoms: C_3  and  N_51
    4  A    between atoms: N_4  and  C_13
    5  A    between atoms: N_9  and  C_18
    6  A    between atoms: C_13  and  C_17
    7  A    between atoms: C_13  and  C_39
    8  A    between atoms: C_20  and  C_39
    9  A    between atoms: C_21  and  C_27
   10  A    between atoms: N_29  and  C_52
   11  A    between atoms: C_34  and  C_35
   12  A    between atoms: C_37  and  C_44
   13  A    between atoms: C_44  and  C_52
   14  A    between atoms: C_48  and  C_53
   15  A    between atoms: N_51  and  C_53
                            x       y       z     vdW  Elec       q    Type
                         _______ _______ _______ _____ _____    ______ ____

>  <TORSDO>
F 15

$$$$
=
 OpenBabel10232409313D

 53 60  0  0  1  0  0  0  0  0999 V2000
  190.3280  177.9880  144.8280 C   0  0  0  0  0  0  0  0  0  0  0  0
  191.0080  179.0450  144.7090 O   0  0  0  0  0  0  0  0  0  0  0  0
  189.3880  177.6640  147.1380 C   0  0  0  0  0  3  0  0  0  0  0  0
  187.8880  178.2000  145.3170 C   0  0  0  0  0  3  0  0  0  0  0  0
  188.3020  177.6030  148.0140 C   0  0  0  0  0  3  0  0  0  0  0  0
  189.1910  177.9580  145.7790 C   0  0  0  0  0  0  0  0  0  0  0  0
  186.7920  178.1340  146.1890 C   0  0  0  0  0  0  0  0  0  0  0  0
  187.0080  177.8320  147.5410 C   0  0  0  0  0  3  0  0  0  0  0  0
  185.4240  178.3480  145.6840 C   0  0  0  0  0  0  0  0  0  0  0  0
  185.1790  178.3680  144.2770 N   0  0  0  0  0  2  0  0  0  0  0  0
  184.4730  178.5370  146.4950 O   0  0  0  0  0  0  0  0  0  0  0  0
  183.8660  178.6750  143.7310 C   0  0  0  0  0  2  0  0  0  0  0  0
  184.0030  178.9780  142.2480 C   0  0  0  0  0  2  0  0  0  0  0  0
  180.4440  178.0390  140.1510 C   0  0  0  0  0  2  0  0  0  0  0  0
  181.5200  178.6250  142.3470 C   0  0  0  0  0  2  0  0  0  0  0  0
  182.6510  179.2020  140.2800 O   0  0  0  0  0  0  0  0  0  0  0  0
  181.7140  178.5460  139.4370 C   0  0  1  0  0  3  0  0  0  0  0  0
  180.2650  178.7650  141.4830 C   0  0  0  0  0  2  0  0  0  0  0  0
  182.7870  178.4800  141.4850 C   0  0  1  0  0  3  0  0  0  0  0  0
  183.9610  175.2440  135.9430 O   0  0  0  0  0  1  0  0  0  0  0  0
  182.2500  177.6750  137.0830 C   0  0  0  0  0  2  0  0  0  0  0  0
  184.1410  175.4190  137.3150 C   0  0  1  0  0  3  0  0  0  0  0  0
  184.6410  176.8460  137.5980 C   0  0  0  0  0  2  0  0  0  0  0  0
  182.4300  176.0210  139.1160 C   0  0  0  0  0  2  0  0  0  0  0  0
  182.8620  175.0150  138.0520 C   0  0  0  0  0  2  0  0  0  0  0  0
  182.3670  177.4610  138.5840 C   0  0  2  0  0  0  0  0  0  0  0  0
  183.5750  177.9460  137.7980 C   0  0  2  0  0  3  0  0  0  0  0  0
  190.7130  176.8010  143.9870 C   0  0  2  0  0  3  0  0  0  0  0  0
  191.9320  176.0640  144.5600 C   0  0  2  0  0  3  0  0  0  0  0  0
  191.9470  174.6810  144.1160 N   0  0  0  0  0  1  0  0  0  0  0  0
  191.9150  176.0950  145.9460 F   0  0  0  0  0  0  0  0  0  0  0  0
  190.9460  177.2310  142.6110 N   0  0  0  0  0  2  0  0  0  0  0  0
  189.8620  176.7280  141.7730 C   0  0  1  0  0  3  0  0  0  0  0  0
  188.8950  175.9150  142.6120 C   0  0  0  0  0  1  0  0  0  0  0  0
  189.1390  177.8450  141.1800 N   0  0  0  0  0  2  0  0  0  0  0  0
  191.8300  175.3450  137.9330 C   0  0  2  0  0  3  0  0  0  0  0  0
  188.1900  177.8950  138.6690 S   0  0  0  0  0  0  0  0  0  0  0  0
  189.6110  178.0100  139.8120 C   0  0  2  0  0  3  0  0  0  0  0  0
  190.2930  176.7400  139.3320 C   0  0  1  0  0  0  0  0  0  0  0  0
  189.0530  175.3390  137.7220 C   0  0  0  0  0  2  0  0  0  0  0  0
  191.6700  176.8310  139.7380 O   0  0  0  0  0  0  0  0  0  0  0  0
  190.5050  174.6250  136.8600 S   0  0  0  0  0  0  0  0  0  0  0  0
  189.4520  176.7500  138.0740 C   0  0  1  0  0  3  0  0  0  0  0  0
  191.5050  176.7820  138.4030 C   0  0  1  0  0  3  0  0  0  0  0  0
  193.1050  175.3150  137.2340 N   0  0  0  0  0  2  0  0  0  0  0  0
  193.6950  174.0110  137.4880 C   0  0  0  0  0  2  0  0  0  0  0  0
  196.1370  173.9200  137.2310 C   0  0  0  0  0  0  0  0  0  0  0  0
  196.7110  176.8740  135.4390 O   0  0  0  0  0  0  0  0  0  0  0  0
  196.5390  173.0870  138.0860 O   0  0  0  0  0  0  0  0  0  0  0  0
  194.7830  175.0270  135.1940 S   0  0  0  0  0  0  0  0  0  0  0  0
  196.9110  175.0530  136.8880 N   0  0  0  0  0  2  0  0  0  0  0  0
  194.8360  173.7590  136.5190 C   0  0  2  0  0  3  0  0  0  0  0  0
  196.2660  175.7700  135.8540 C   0  0  0  0  0  0  0  0  0  0  0  0
  1  6  1  0  0  0  0
  2  1  2  0  0  0  0
  3  5  1  0  0  0  0
  4  6  1  0  0  0  0
  4  7  2  0  0  0  0
  6  3  2  0  0  0  0
  7  8  1  0  0  0  0
  8  5  2  0  0  0  0
  9  7  1  0  0  0  0
  9 11  2  0  0  0  0
 10  9  1  0  0  0  0
 12 10  1  0  0  0  0
 13 12  1  0  0  0  0
 14 18  1  0  0  0  0
 16 19  1  0  0  0  0
 17 14  1  1  0  0  0
 17 16  1  0  0  0  0
 18 15  1  0  0  0  0
 19 13  1  1  0  0  0
 19 15  1  0  0  0  0
 22 20  1  6  0  0  0
 22 23  1  0  0  0  0
 22 25  1  0  0  0  0
 23 27  1  0  0  0  0
 25 24  1  0  0  0  0
 26 21  1  6  0  0  0
 26 24  1  0  0  0  0
 26 17  1  0  0  0  0
 27 21  1  6  0  0  0
 27 26  1  0  0  0  0
 28 32  1  6  0  0  0
 28 29  1  0  0  0  0
 28  1  1  0  0  0  0
 29 30  1  1  0  0  0
 29 31  1  0  0  0  0
 33 32  1  0  0  0  0
 33 34  1  1  0  0  0
 35 33  1  0  0  0  0
 36 45  1  6  0  0  0
 36 44  1  0  0  0  0
 37 38  1  0  0  0  0
 38 35  1  1  0  0  0
 39 41  1  1  0  0  0
 39 38  1  0  0  0  0
 42 40  1  0  0  0  0
 42 36  1  0  0  0  0
 43 40  1  1  0  0  0
 43 37  1  0  0  0  0
 43 39  1  0  0  0  0
 44 39  1  0  0  0  0
 44 41  1  1  0  0  0
 45 46  1  0  0  0  0
 47 49  2  0  0  0  0
 48 53  2  0  0  0  0
 50 53  1  0  0  0  0
 50 52  1  0  0  0  0
 51 47  1  0  0  0  0
 52 47  1  0  0  0  0
 52 46  1  1  0  0  0
 53 51  1  0  0  0  0
M  END
>  <MODEL>
3

>  <REMARK>
 VINA RESULT:      -8.0      2.770      6.739
  Name = 
  15 active torsions:
  status: ('A' for Active; 'I' for Inactive)
    1  A    between atoms: C_2  and  N_4
    2  A    between atoms: C_2  and  N_9
    3  A    between atoms: C_3  and  N_51
    4  A    between atoms: N_4  and  C_13
    5  A    between atoms: N_9  and  C_18
    6  A    between atoms: C_13  and  C_17
    7  A    between atoms: C_13  and  C_39
    8  A    between atoms: C_20  and  C_39
    9  A    between atoms: C_21  and  C_27
   10  A    between atoms: N_29  and  C_52
   11  A    between atoms: C_34  and  C_35
   12  A    between atoms: C_37  and  C_44
   13  A    between atoms: C_44  and  C_52
   14  A    between atoms: C_48  and  C_53
   15  A    between atoms: N_51  and  C_53
                            x       y       z     vdW  Elec       q    Type
                         _______ _______ _______ _____ _____    ______ ____

>  <TORSDO>
F 15

$$$$
=
 OpenBabel10232409313D

 53 60  0  0  1  0  0  0  0  0999 V2000
  190.4220  177.3960  145.5830 C   0  0  0  0  0  0  0  0  0  0  0  0
  191.5850  177.6590  145.9980 O   0  0  0  0  0  0  0  0  0  0  0  0
  189.3600  177.6750  147.8460 C   0  0  0  0  0  3  0  0  0  0  0  0
  188.0140  177.9980  145.8630 C   0  0  0  0  0  3  0  0  0  0  0  0
  188.2430  177.9280  148.6450 C   0  0  0  0  0  3  0  0  0  0  0  0
  189.2550  177.7020  146.4460 C   0  0  0  0  0  0  0  0  0  0  0  0
  186.8860  178.2470  146.6580 C   0  0  0  0  0  0  0  0  0  0  0  0
  187.0100  178.2080  148.0540 C   0  0  0  0  0  3  0  0  0  0  0  0
  185.5790  178.5150  146.0340 C   0  0  0  0  0  0  0  0  0  0  0  0
  185.5090  178.8800  144.6540 N   0  0  0  0  0  2  0  0  0  0  0  0
  184.5220  178.4430  146.7250 O   0  0  0  0  0  0  0  0  0  0  0  0
  184.2520  179.2510  144.0220 C   0  0  0  0  0  2  0  0  0  0  0  0
  184.2080  178.6630  142.6220 C   0  0  0  0  0  2  0  0  0  0  0  0
  180.1480  178.4460  141.4300 C   0  0  0  0  0  2  0  0  0  0  0  0
  181.7960  178.9110  143.2720 C   0  0  0  0  0  2  0  0  0  0  0  0
  182.5230  179.0640  140.9620 O   0  0  0  0  0  0  0  0  0  0  0  0
  181.3010  178.5900  140.4150 C   0  0  1  0  0  3  0  0  0  0  0  0
  180.4380  179.2820  142.6750 C   0  0  0  0  0  2  0  0  0  0  0  0
  182.7720  178.4140  142.1900 C   0  0  1  0  0  3  0  0  0  0  0  0
  181.3370  174.0040  137.7450 O   0  0  0  0  0  1  0  0  0  0  0  0
  180.5800  176.1710  139.9510 C   0  0  0  0  0  2  0  0  0  0  0  0
  181.8590  175.2640  137.4480 C   0  0  1  0  0  3  0  0  0  0  0  0
  180.7200  176.2960  137.3750 C   0  0  0  0  0  2  0  0  0  0  0  0
  182.8860  177.0070  139.0110 C   0  0  0  0  0  2  0  0  0  0  0  0
  182.9800  175.5960  138.4360 C   0  0  0  0  0  2  0  0  0  0  0  0
  181.4940  177.3270  139.5790 C   0  0  2  0  0  0  0  0  0  0  0  0
  180.3070  176.9930  138.6900 C   0  0  2  0  0  3  0  0  0  0  0  0
  190.2810  176.7800  144.2180 C   0  0  2  0  0  3  0  0  0  0  0  0
  191.6030  176.1770  143.7220 C   0  0  2  0  0  3  0  0  0  0  0  0
  192.1060  176.9210  142.5790 N   0  0  0  0  0  1  0  0  0  0  0  0
  191.4290  174.8510  143.3580 F   0  0  0  0  0  0  0  0  0  0  0  0
  189.7620  177.7740  143.2830 N   0  0  0  0  0  2  0  0  0  0  0  0
  188.8620  177.1120  142.3440 C   0  0  1  0  0  3  0  0  0  0  0  0
  188.2300  175.9000  143.0030 C   0  0  0  0  0  1  0  0  0  0  0  0
  187.8050  178.0300  141.9440 N   0  0  0  0  0  2  0  0  0  0  0  0
  189.9720  176.4180  137.8530 C   0  0  2  0  0  3  0  0  0  0  0  0
  186.5890  178.7730  139.6700 S   0  0  0  0  0  0  0  0  0  0  0  0
  188.1310  178.5420  140.6210 C   0  0  2  0  0  3  0  0  0  0  0  0
  188.6810  177.4290  139.7450 C   0  0  1  0  0  0  0  0  0  0  0  0
  187.1930  176.5420  137.9870 C   0  0  0  0  0  2  0  0  0  0  0  0
  190.0980  177.3720  139.9900 O   0  0  0  0  0  0  0  0  0  0  0  0
  188.4970  176.0460  136.7980 S   0  0  0  0  0  0  0  0  0  0  0  0
  187.7090  177.7970  138.6450 C   0  0  1  0  0  3  0  0  0  0  0  0
  189.7840  177.6860  138.7190 C   0  0  1  0  0  3  0  0  0  0  0  0
  191.1580  176.5430  137.0200 N   0  0  0  0  0  2  0  0  0  0  0  0
  191.5220  175.2000  136.6000 C   0  0  0  0  0  2  0  0  0  0  0  0
  193.6860  175.7370  137.6320 C   0  0  0  0  0  0  0  0  0  0  0  0
  195.8550  173.9110  135.5760 O   0  0  0  0  0  0  0  0  0  0  0  0
  193.4820  176.7600  138.3380 O   0  0  0  0  0  0  0  0  0  0  0  0
  193.4600  173.2710  136.5960 S   0  0  0  0  0  0  0  0  0  0  0  0
  194.9190  175.5360  136.9680 N   0  0  0  0  0  2  0  0  0  0  0  0
  192.6540  174.6740  137.4630 C   0  0  2  0  0  3  0  0  0  0  0  0
  194.9050  174.2810  136.3180 C   0  0  0  0  0  0  0  0  0  0  0  0
  1  2  2  0  0  0  0
  1  6  1  0  0  0  0
  3  5  1  0  0  0  0
  4  6  1  0  0  0  0
  4  7  2  0  0  0  0
  6  3  2  0  0  0  0
  7  8  1  0  0  0  0
  8  5  2  0  0  0  0
  9  7  1  0  0  0  0
  9 11  2  0  0  0  0
 10  9  1  0  0  0  0
 12 10  1  0  0  0  0
 13 12  1  0  0  0  0
 14 18  1  0  0  0  0
 16 19  1  0  0  0  0
 17 16  1  0  0  0  0
 17 14  1  1  0  0  0
 18 15  1  0  0  0  0
 19 13  1  1  0  0  0
 19 15  1  0  0  0  0
 22 20  1  1  0  0  0
 22 25  1  0  0  0  0
 23 22  1  0  0  0  0
 25 24  1  0  0  0  0
 26 24  1  6  0  0  0
 26 21  1  0  0  0  0
 26 17  1  0  0  0  0
 27 23  1  6  0  0  0
 27 26  1  0  0  0  0
 27 21  1  0  0  0  0
 28 32  1  6  0  0  0
 28  1  1  0  0  0  0
 29 30  1  6  0  0  0
 29 28  1  0  0  0  0
 31 29  1  0  0  0  0
 33 34  1  1  0  0  0
 33 32  1  0  0  0  0
 35 33  1  0  0  0  0
 36 45  1  6  0  0  0
 36 44  1  0  0  0  0
 37 38  1  0  0  0  0
 38 35  1  1  0  0  0
 39 41  1  1  0  0  0
 39 38  1  0  0  0  0
 42 36  1  0  0  0  0
 42 40  1  0  0  0  0
 43 40  1  1  0  0  0
 43 37  1  0  0  0  0
 43 39  1  0  0  0  0
 44 39  1  0  0  0  0
 44 41  1  1  0  0  0
 46 45  1  0  0  0  0
 47 49  2  0  0  0  0
 48 53  2  0  0  0  0
 50 52  1  0  0  0  0
 51 47  1  0  0  0  0
 52 46  1  6  0  0  0
 52 47  1  0  0  0  0
 53 50  1  0  0  0  0
 53 51  1  0  0  0  0
M  END
>  <MODEL>
4

>  <REMARK>
 VINA RESULT:      -7.9      2.843      7.112
  Name = 
  15 active torsions:
  status: ('A' for Active; 'I' for Inactive)
    1  A    between atoms: C_2  and  N_4
    2  A    between atoms: C_2  and  N_9
    3  A    between atoms: C_3  and  N_51
    4  A    between atoms: N_4  and  C_13
    5  A    between atoms: N_9  and  C_18
    6  A    between atoms: C_13  and  C_17
    7  A    between atoms: C_13  and  C_39
    8  A    between atoms: C_20  and  C_39
    9  A    between atoms: C_21  and  C_27
   10  A    between atoms: N_29  and  C_52
   11  A    between atoms: C_34  and  C_35
   12  A    between atoms: C_37  and  C_44
   13  A    between atoms: C_44  and  C_52
   14  A    between atoms: C_48  and  C_53
   15  A    between atoms: N_51  and  C_53
                            x       y       z     vdW  Elec       q    Type
                         _______ _______ _______ _____ _____    ______ ____

>  <TORSDO>
F 15

$$$$
=
 OpenBabel10232409313D

 53 60  0  0  1  0  0  0  0  0999 V2000
  188.2880  176.7190  143.6030 C   0  0  0  0  0  0  0  0  0  0  0  0
  188.2060  175.4900  143.3260 O   0  0  0  0  0  0  0  0  0  0  0  0
  187.1320  177.4340  145.7200 C   0  0  0  0  0  3  0  0  0  0  0  0
  186.1070  177.9380  143.5870 C   0  0  0  0  0  3  0  0  0  0  0  0
  186.0520  178.0270  146.3780 C   0  0  0  0  0  3  0  0  0  0  0  0
  187.1680  177.3800  144.3170 C   0  0  0  0  0  0  0  0  0  0  0  0
  185.0160  178.5290  144.2410 C   0  0  0  0  0  0  0  0  0  0  0  0
  184.9960  178.5670  145.6420 C   0  0  0  0  0  3  0  0  0  0  0  0
  183.8890  179.0740  143.4650 C   0  0  0  0  0  0  0  0  0  0  0  0
  182.5530  178.9200  143.9450 N   0  0  0  0  0  2  0  0  0  0  0  0
  184.1030  179.6570  142.3630 O   0  0  0  0  0  0  0  0  0  0  0  0
  181.4030  179.3510  143.1650 C   0  0  0  0  0  2  0  0  0  0  0  0
  180.9710  178.2190  142.2490 C   0  0  0  0  0  2  0  0  0  0  0  0
  181.0050  179.9410  138.3790 C   0  0  0  0  0  2  0  0  0  0  0  0
  180.0320  179.9540  140.6980 C   0  0  0  0  0  2  0  0  0  0  0  0
  182.2100  178.9500  140.3290 O   0  0  0  0  0  0  0  0  0  0  0  0
  182.1770  179.0960  138.9160 C   0  0  1  0  0  3  0  0  0  0  0  0
  180.4300  180.8110  139.4940 C   0  0  0  0  0  2  0  0  0  0  0  0
  180.9060  178.6920  140.8060 C   0  0  1  0  0  3  0  0  0  0  0  0
  182.0880  174.6710  135.9880 O   0  0  0  0  0  1  0  0  0  0  0  0
  181.1090  177.3910  137.3220 C   0  0  0  0  0  2  0  0  0  0  0  0
  183.1250  175.3450  136.6340 C   0  0  1  0  0  3  0  0  0  0  0  0
  183.2690  176.7620  136.0520 C   0  0  0  0  0  2  0  0  0  0  0  0
  183.1020  176.6200  138.8500 C   0  0  0  0  0  2  0  0  0  0  0  0
  182.9090  175.2780  138.1480 C   0  0  0  0  0  2  0  0  0  0  0  0
  182.2990  177.7550  138.1960 C   0  0  2  0  0  0  0  0  0  0  0  0
  182.4110  177.8800  136.6850 C   0  0  2  0  0  3  0  0  0  0  0  0
  189.5310  177.4570  143.1880 C   0  0  2  0  0  3  0  0  0  0  0  0
  190.2220  178.1340  144.3810 C   0  0  2  0  0  3  0  0  0  0  0  0
  190.8620  179.3700  143.9650 N   0  0  0  0  0  1  0  0  0  0  0  0
  191.1740  177.2930  144.9350 F   0  0  0  0  0  0  0  0  0  0  0  0
  189.2030  178.4210  142.1420 N   0  0  0  0  0  2  0  0  0  0  0  0
  189.6600  177.8960  140.8590 C   0  0  1  0  0  3  0  0  0  0  0  0
  190.7180  176.8330  141.0830 C   0  0  0  0  0  1  0  0  0  0  0  0
  188.5410  177.2970  140.1450 N   0  0  0  0  0  2  0  0  0  0  0  0
  189.8330  175.5450  135.7530 C   0  0  2  0  0  3  0  0  0  0  0  0
  186.8790  177.9630  138.1450 S   0  0  0  0  0  0  0  0  0  0  0  0
  188.5850  177.7630  138.7670 C   0  0  2  0  0  3  0  0  0  0  0  0
  188.9510  176.6210  137.8350 C   0  0  1  0  0  0  0  0  0  0  0  0
  187.1400  175.6750  136.4500 C   0  0  0  0  0  2  0  0  0  0  0  0
  190.3890  176.5720  137.7850 O   0  0  0  0  0  0  0  0  0  0  0  0
  188.1760  175.1380  135.0360 S   0  0  0  0  0  0  0  0  0  0  0  0
  187.7720  176.9510  136.9460 C   0  0  1  0  0  3  0  0  0  0  0  0
  189.8190  176.8420  136.5960 C   0  0  1  0  0  3  0  0  0  0  0  0
  190.8230  175.6410  134.6910 N   0  0  0  0  0  2  0  0  0  0  0  0
  191.3340  174.2980  134.4690 C   0  0  0  0  0  2  0  0  0  0  0  0
  192.9770  173.4640  136.0950 C   0  0  0  0  0  0  0  0  0  0  0  0
  193.8110  176.4330  137.7550 O   0  0  0  0  0  0  0  0  0  0  0  0
  192.8040  172.2180  136.1450 O   0  0  0  0  0  0  0  0  0  0  0  0
  193.4130  175.9390  135.1500 S   0  0  0  0  0  0  0  0  0  0  0  0
  193.3580  174.2000  137.2410 N   0  0  0  0  0  2  0  0  0  0  0  0
  192.8070  174.2360  134.8300 C   0  0  2  0  0  3  0  0  0  0  0  0
  193.5580  175.5540  136.8870 C   0  0  0  0  0  0  0  0  0  0  0  0
  1  6  1  0  0  0  0
  2  1  2  0  0  0  0
  3  5  1  0  0  0  0
  4  7  2  0  0  0  0
  4  6  1  0  0  0  0
  6  3  2  0  0  0  0
  7  8  1  0  0  0  0
  8  5  2  0  0  0  0
  9 10  1  0  0  0  0
  9  7  1  0  0  0  0
 11  9  2  0  0  0  0
 12 10  1  0  0  0  0
 13 12  1  0  0  0  0
 14 18  1  0  0  0  0
 15 19  1  0  0  0  0
 16 19  1  0  0  0  0
 17 14  1  1  0  0  0
 17 16  1  0  0  0  0
 18 15  1  0  0  0  0
 19 13  1  1  0  0  0
 22 20  1  6  0  0  0
 22 25  1  0  0  0  0
 23 22  1  0  0  0  0
 25 24  1  0  0  0  0
 26 21  1  1  0  0  0
 26 24  1  0  0  0  0
 26 17  1  0  0  0  0
 27 23  1  6  0  0  0
 27 21  1  0  0  0  0
 27 26  1  0  0  0  0
 28 32  1  6  0  0  0
 28  1  1  0  0  0  0
 28 29  1  0  0  0  0
 29 30  1  6  0  0  0
 29 31  1  0  0  0  0
 33 34  1  1  0  0  0
 33 32  1  0  0  0  0
 35 33  1  0  0  0  0
 36 45  1  6  0  0  0
 36 44  1  0  0  0  0
 37 38  1  0  0  0  0
 38 35  1  1  0  0  0
 39 41  1  1  0  0  0
 39 38  1  0  0  0  0
 42 36  1  0  0  0  0
 42 40  1  0  0  0  0
 43 40  1  1  0  0  0
 43 39  1  0  0  0  0
 43 37  1  0  0  0  0
 44 41  1  1  0  0  0
 44 39  1  0  0  0  0
 46 45  1  0  0  0  0
 47 49  2  0  0  0  0
 47 51  1  0  0  0  0
 50 53  1  0  0  0  0
 52 46  1  1  0  0  0
 52 50  1  0  0  0  0
 52 47  1  0  0  0  0
 53 51  1  0  0  0  0
 53 48  2  0  0  0  0
M  END
>  <MODEL>
5

>  <REMARK>
 VINA RESULT:      -7.9      2.870      6.771
  Name = 
  15 active torsions:
  status: ('A' for Active; 'I' for Inactive)
    1  A    between atoms: C_2  and  N_4
    2  A    between atoms: C_2  and  N_9
    3  A    between atoms: C_3  and  N_51
    4  A    between atoms: N_4  and  C_13
    5  A    between atoms: N_9  and  C_18
    6  A    between atoms: C_13  and  C_17
    7  A    between atoms: C_13  and  C_39
    8  A    between atoms: C_20  and  C_39
    9  A    between atoms: C_21  and  C_27
   10  A    between atoms: N_29  and  C_52
   11  A    between atoms: C_34  and  C_35
   12  A    between atoms: C_37  and  C_44
   13  A    between atoms: C_44  and  C_52
   14  A    between atoms: C_48  and  C_53
   15  A    between atoms: N_51  and  C_53
                            x       y       z     vdW  Elec       q    Type
                         _______ _______ _______ _____ _____    ______ ____

>  <TORSDO>
F 15

$$$$
=
 OpenBabel10232409313D

 53 60  0  0  1  0  0  0  0  0999 V2000
  186.8440  178.3010  139.1050 C   0  0  0  0  0  0  0  0  0  0  0  0
  187.8190  178.7030  139.7990 O   0  0  0  0  0  0  0  0  0  0  0  0
  184.3660  178.5430  138.7480 C   0  0  0  0  0  3  0  0  0  0  0  0
  185.2460  178.5920  141.0020 C   0  0  0  0  0  3  0  0  0  0  0  0
  183.0770  178.7410  139.2480 C   0  0  0  0  0  3  0  0  0  0  0  0
  185.4650  178.4710  139.6210 C   0  0  0  0  0  0  0  0  0  0  0  0
  183.9550  178.7970  141.5110 C   0  0  0  0  0  0  0  0  0  0  0  0
  182.8720  178.8730  140.6230 C   0  0  0  0  0  3  0  0  0  0  0  0
  183.7430  178.9650  142.9590 C   0  0  0  0  0  0  0  0  0  0  0  0
  184.8500  179.2680  143.8100 N   0  0  0  0  0  2  0  0  0  0  0  0
  182.5870  178.8170  143.4500 O   0  0  0  0  0  0  0  0  0  0  0  0
  184.7070  179.3420  145.2560 C   0  0  0  0  0  2  0  0  0  0  0  0
  185.1910  178.0400  145.8710 C   0  0  0  0  0  2  0  0  0  0  0  0
  189.1720  178.0400  147.3180 C   0  0  0  0  0  2  0  0  0  0  0  0
  186.8040  178.8300  147.6240 C   0  0  0  0  0  2  0  0  0  0  0  0
  187.2330  176.8520  146.2860 O   0  0  0  0  0  0  0  0  0  0  0  0
  188.6470  176.9660  146.3440 C   0  0  1  0  0  3  0  0  0  0  0  0
  188.0900  178.4020  148.3330 C   0  0  0  0  0  2  0  0  0  0  0  0
  186.6570  178.1410  146.2550 C   0  0  1  0  0  3  0  0  0  0  0  0
  191.2770  177.8500  141.8200 O   0  0  0  0  0  1  0  0  0  0  0  0
  190.1570  178.3120  144.7640 C   0  0  0  0  0  2  0  0  0  0  0  0
  190.6450  176.7150  142.3290 C   0  0  1  0  0  3  0  0  0  0  0  0
  191.3140  176.2910  143.6470 C   0  0  0  0  0  2  0  0  0  0  0  0
  188.5200  176.5320  143.7390 C   0  0  0  0  0  2  0  0  0  0  0  0
  189.1370  176.9660  142.4120 C   0  0  0  0  0  2  0  0  0  0  0  0
  189.2730  177.0900  144.9570 C   0  0  2  0  0  0  0  0  0  0  0  0
  190.7850  176.9290  144.9510 C   0  0  2  0  0  3  0  0  0  0  0  0
  187.1390  177.6620  137.7750 C   0  0  2  0  0  3  0  0  0  0  0  0
  185.8690  177.1230  137.1030 C   0  0  2  0  0  3  0  0  0  0  0  0
  185.8730  175.6700  137.0930 N   0  0  0  0  0  1  0  0  0  0  0  0
  185.7730  177.5840  135.7990 F   0  0  0  0  0  0  0  0  0  0  0  0
  188.1400  176.6120  137.9470 N   0  0  0  0  0  2  0  0  0  0  0  0
  189.2530  176.8690  137.0380 C   0  0  1  0  0  3  0  0  0  0  0  0
  189.3030  178.3450  136.6900 C   0  0  0  0  0  1  0  0  0  0  0  0
  190.5070  176.4970  137.6780 N   0  0  0  0  0  2  0  0  0  0  0  0
  193.9200  173.0580  136.9360 C   0  0  2  0  0  3  0  0  0  0  0  0
  190.5230  175.4560  135.2030 S   0  0  0  0  0  0  0  0  0  0  0  0
  191.4480  176.1170  136.6340 C   0  0  2  0  0  3  0  0  0  0  0  0
  192.1290  174.8060  136.9900 C   0  0  1  0  0  0  0  0  0  0  0  0
  191.4140  172.7950  135.7500 C   0  0  0  0  0  2  0  0  0  0  0  0
  193.2740  175.1400  137.7950 O   0  0  0  0  0  0  0  0  0  0  0  0
  193.0010  171.8810  135.8410 S   0  0  0  0  0  0  0  0  0  0  0  0
  191.7970  174.2480  135.6230 C   0  0  1  0  0  3  0  0  0  0  0  0
  193.5910  174.5380  136.6330 C   0  0  1  0  0  3  0  0  0  0  0  0
  195.3520  172.8230  136.8240 N   0  0  0  0  0  2  0  0  0  0  0  0
  195.9630  173.3620  138.0270 C   0  0  0  0  0  2  0  0  0  0  0  0
  198.0450  174.6510  137.8280 C   0  0  0  0  0  0  0  0  0  0  0  0
  198.8750  174.0300  134.4830 O   0  0  0  0  0  0  0  0  0  0  0  0
  198.0500  175.4440  138.8060 O   0  0  0  0  0  0  0  0  0  0  0  0
  197.9190  172.3940  136.3800 S   0  0  0  0  0  0  0  0  0  0  0  0
  198.5980  175.0200  136.5800 N   0  0  0  0  0  2  0  0  0  0  0  0
  197.4750  173.2770  137.9270 C   0  0  2  0  0  3  0  0  0  0  0  0
  198.5320  173.9230  135.6910 C   0  0  0  0  0  0  0  0  0  0  0  0
  1  6  1  0  0  0  0
  1  2  2  0  0  0  0
  3  5  2  0  0  0  0
  3  6  1  0  0  0  0
  4  7  1  0  0  0  0
  5  8  1  0  0  0  0
  6  4  2  0  0  0  0
  7  9  1  0  0  0  0
  8  7  2  0  0  0  0
  9 11  2  0  0  0  0
  9 10  1  0  0  0  0
 10 12  1  0  0  0  0
 12 13  1  0  0  0  0
 14 18  1  0  0  0  0
 15 18  1  0  0  0  0
 16 17  1  0  0  0  0
 17 14  1  1  0  0  0
 19 13  1  1  0  0  0
 19 16  1  0  0  0  0
 19 15  1  0  0  0  0
 21 27  1  0  0  0  0
 21 26  1  0  0  0  0
 22 20  1  1  0  0  0
 22 25  1  0  0  0  0
 22 23  1  0  0  0  0
 25 24  1  0  0  0  0
 26 24  1  6  0  0  0
 26 17  1  0  0  0  0
 27 23  1  6  0  0  0
 27 26  1  0  0  0  0
 28 32  1  1  0  0  0
 28  1  1  0  0  0  0
 29 31  1  6  0  0  0
 29 28  1  0  0  0  0
 30 29  1  0  0  0  0
 33 34  1  1  0  0  0
 33 35  1  0  0  0  0
 33 32  1  0  0  0  0
 36 45  1  6  0  0  0
 37 43  1  0  0  0  0
 37 38  1  0  0  0  0
 38 39  1  0  0  0  0
 38 35  1  1  0  0  0
 39 41  1  1  0  0  0
 40 42  1  0  0  0  0
 42 36  1  0  0  0  0
 43 40  1  1  0  0  0
 43 39  1  0  0  0  0
 44 36  1  0  0  0  0
 44 39  1  0  0  0  0
 44 41  1  1  0  0  0
 45 46  1  0  0  0  0
 47 52  1  0  0  0  0
 47 49  2  0  0  0  0
 48 53  2  0  0  0  0
 50 52  1  0  0  0  0
 51 47  1  0  0  0  0
 52 46  1  6  0  0  0
 53 50  1  0  0  0  0
 53 51  1  0  0  0  0
M  END
>  <MODEL>
6

>  <REMARK>
 VINA RESULT:      -7.8      1.697      2.235
  Name = 
  15 active torsions:
  status: ('A' for Active; 'I' for Inactive)
    1  A    between atoms: C_2  and  N_4
    2  A    between atoms: C_2  and  N_9
    3  A    between atoms: C_3  and  N_51
    4  A    between atoms: N_4  and  C_13
    5  A    between atoms: N_9  and  C_18
    6  A    between atoms: C_13  and  C_17
    7  A    between atoms: C_13  and  C_39
    8  A    between atoms: C_20  and  C_39
    9  A    between atoms: C_21  and  C_27
   10  A    between atoms: N_29  and  C_52
   11  A    between atoms: C_34  and  C_35
   12  A    between atoms: C_37  and  C_44
   13  A    between atoms: C_44  and  C_52
   14  A    between atoms: C_48  and  C_53
   15  A    between atoms: N_51  and  C_53
                            x       y       z     vdW  Elec       q    Type
                         _______ _______ _______ _____ _____    ______ ____

>  <TORSDO>
F 15

$$$$
=
 OpenBabel10232409313D

 53 60  0  0  1  0  0  0  0  0999 V2000
  188.7240  177.2380  145.8760 C   0  0  0  0  0  0  0  0  0  0  0  0
  188.9620  176.6730  146.9800 O   0  0  0  0  0  0  0  0  0  0  0  0
  186.5190  178.1320  146.6930 C   0  0  0  0  0  3  0  0  0  0  0  0
  186.9430  178.0270  144.3130 C   0  0  0  0  0  3  0  0  0  0  0  0
  185.2430  178.6400  146.4430 C   0  0  0  0  0  3  0  0  0  0  0  0
  187.3810  177.8150  145.6290 C   0  0  0  0  0  0  0  0  0  0  0  0
  185.6600  178.5320  144.0530 C   0  0  0  0  0  0  0  0  0  0  0  0
  184.8130  178.8350  145.1290 C   0  0  0  0  0  3  0  0  0  0  0  0
  185.1970  178.7100  142.6670 C   0  0  0  0  0  0  0  0  0  0  0  0
  184.1140  177.9200  142.1700 N   0  0  0  0  0  2  0  0  0  0  0  0
  185.7710  179.5450  141.9110 O   0  0  0  0  0  0  0  0  0  0  0  0
  183.6890  177.9890  140.7810 C   0  0  0  0  0  2  0  0  0  0  0  0
  182.2200  178.3730  140.7280 C   0  0  0  0  0  2  0  0  0  0  0  0
  180.9630  178.7270  136.6990 C   0  0  0  0  0  2  0  0  0  0  0  0
  180.6280  179.4170  139.0940 C   0  0  0  0  0  2  0  0  0  0  0  0
  182.7800  178.5370  138.4020 O   0  0  0  0  0  0  0  0  0  0  0  0
  182.3630  178.2080  137.0840 C   0  0  1  0  0  3  0  0  0  0  0  0
  180.5490  179.8620  137.6320 C   0  0  0  0  0  2  0  0  0  0  0  0
  181.7080  178.3400  139.2990 C   0  0  1  0  0  3  0  0  0  0  0  0
  183.5880  173.2080  135.7970 O   0  0  0  0  0  1  0  0  0  0  0  0
  183.6530  176.3900  135.8110 C   0  0  0  0  0  2  0  0  0  0  0  0
  182.8170  173.7470  136.8270 C   0  0  1  0  0  3  0  0  0  0  0  0
  183.6920  174.6480  137.7170 C   0  0  0  0  0  2  0  0  0  0  0  0
  181.2990  175.8030  136.8160 C   0  0  0  0  0  2  0  0  0  0  0  0
  181.5750  174.4180  136.2360 C   0  0  0  0  0  2  0  0  0  0  0  0
  182.5310  176.7210  136.7820 C   0  0  2  0  0  0  0  0  0  0  0  0
  183.8290  176.1310  137.3090 C   0  0  2  0  0  3  0  0  0  0  0  0
  189.8300  177.2950  144.8580 C   0  0  2  0  0  3  0  0  0  0  0  0
  191.0640  178.0380  145.3930 C   0  0  2  0  0  3  0  0  0  0  0  0
  191.7190  178.7730  144.3250 N   0  0  0  0  0  1  0  0  0  0  0  0
  191.9670  177.1460  145.9500 F   0  0  0  0  0  0  0  0  0  0  0  0
  189.3320  177.9020  143.6270 N   0  0  0  0  0  2  0  0  0  0  0  0
  189.7920  177.1090  142.4920 C   0  0  1  0  0  3  0  0  0  0  0  0
  190.0930  175.6920  142.9420 C   0  0  0  0  0  1  0  0  0  0  0  0
  188.7560  177.0640  141.4700 N   0  0  0  0  0  2  0  0  0  0  0  0
  191.4880  175.7290  137.6250 C   0  0  2  0  0  3  0  0  0  0  0  0
  187.9170  178.0370  139.1130 S   0  0  0  0  0  0  0  0  0  0  0  0
  189.2900  177.6740  140.2610 C   0  0  2  0  0  3  0  0  0  0  0  0
  189.9450  176.6210  139.3830 C   0  0  1  0  0  0  0  0  0  0  0  0
  188.7240  175.9350  137.3510 C   0  0  0  0  0  2  0  0  0  0  0  0
  191.3060  176.4960  139.8320 O   0  0  0  0  0  0  0  0  0  0  0  0
  190.1840  175.4970  136.3310 S   0  0  0  0  0  0  0  0  0  0  0  0
  189.1590  177.1120  138.1870 C   0  0  1  0  0  3  0  0  0  0  0  0
  191.1970  176.9250  138.5610 C   0  0  1  0  0  3  0  0  0  0  0  0
  192.7890  175.8830  136.9940 N   0  0  0  0  0  2  0  0  0  0  0  0
  193.7770  175.3910  137.9400 C   0  0  0  0  0  2  0  0  0  0  0  0
  195.8650  174.1080  138.1260 C   0  0  0  0  0  0  0  0  0  0  0  0
  197.8540  175.7600  135.7640 O   0  0  0  0  0  0  0  0  0  0  0  0
  195.7870  173.4880  139.2190 O   0  0  0  0  0  0  0  0  0  0  0  0
  195.2730  175.0380  135.6780 S   0  0  0  0  0  0  0  0  0  0  0  0
  197.1030  174.5900  137.6400 N   0  0  0  0  0  2  0  0  0  0  0  0
  194.6680  174.3590  137.2720 C   0  0  2  0  0  3  0  0  0  0  0  0
  196.9150  175.1720  136.3660 C   0  0  0  0  0  0  0  0  0  0  0  0
  1  2  2  0  0  0  0
  4  6  1  0  0  0  0
  5  3  1  0  0  0  0
  6  1  1  0  0  0  0
  6  3  2  0  0  0  0
  7  4  2  0  0  0  0
  7  8  1  0  0  0  0
  8  5  2  0  0  0  0
  9  7  1  0  0  0  0
 10  9  1  0  0  0  0
 11  9  2  0  0  0  0
 12 10  1  0  0  0  0
 13 12  1  0  0  0  0
 14 18  1  0  0  0  0
 15 19  1  0  0  0  0
 16 19  1  0  0  0  0
 17 14  1  1  0  0  0
 17 16  1  0  0  0  0
 18 15  1  0  0  0  0
 19 13  1  1  0  0  0
 22 20  1  6  0  0  0
 22 23  1  0  0  0  0
 25 24  1  0  0  0  0
 25 22  1  0  0  0  0
 26 21  1  6  0  0  0
 26 24  1  0  0  0  0
 26 17  1  0  0  0  0
 26 27  1  0  0  0  0
 27 21  1  6  0  0  0
 27 23  1  0  0  0  0
 28 32  1  6  0  0  0
 28 29  1  0  0  0  0
 28  1  1  0  0  0  0
 29 30  1  6  0  0  0
 29 31  1  0  0  0  0
 33 34  1  1  0  0  0
 33 32  1  0  0  0  0
 35 33  1  0  0  0  0
 36 45  1  6  0  0  0
 36 44  1  0  0  0  0
 37 38  1  0  0  0  0
 38 35  1  1  0  0  0
 39 41  1  1  0  0  0
 39 38  1  0  0  0  0
 42 40  1  0  0  0  0
 42 36  1  0  0  0  0
 43 40  1  1  0  0  0
 43 37  1  0  0  0  0
 43 39  1  0  0  0  0
 44 39  1  0  0  0  0
 44 41  1  1  0  0  0
 45 46  1  0  0  0  0
 47 49  2  0  0  0  0
 48 53  2  0  0  0  0
 50 53  1  0  0  0  0
 50 52  1  0  0  0  0
 51 47  1  0  0  0  0
 52 46  1  1  0  0  0
 52 47  1  0  0  0  0
 53 51  1  0  0  0  0
M  END
>  <MODEL>
7

>  <REMARK>
 VINA RESULT:      -7.8      2.950      7.224
  Name = 
  15 active torsions:
  status: ('A' for Active; 'I' for Inactive)
    1  A    between atoms: C_2  and  N_4
    2  A    between atoms: C_2  and  N_9
    3  A    between atoms: C_3  and  N_51
    4  A    between atoms: N_4  and  C_13
    5  A    between atoms: N_9  and  C_18
    6  A    between atoms: C_13  and  C_17
    7  A    between atoms: C_13  and  C_39
    8  A    between atoms: C_20  and  C_39
    9  A    between atoms: C_21  and  C_27
   10  A    between atoms: N_29  and  C_52
   11  A    between atoms: C_34  and  C_35
   12  A    between atoms: C_37  and  C_44
   13  A    between atoms: C_44  and  C_52
   14  A    between atoms: C_48  and  C_53
   15  A    between atoms: N_51  and  C_53
                            x       y       z     vdW  Elec       q    Type
                         _______ _______ _______ _____ _____    ______ ____

>  <TORSDO>
F 15

$$$$
=
 OpenBabel10232409313D

 53 60  0  0  1  0  0  0  0  0999 V2000
  190.9650  178.1370  143.3120 C   0  0  0  0  0  0  0  0  0  0  0  0
  191.9510  178.9240  143.3640 O   0  0  0  0  0  0  0  0  0  0  0  0
  188.9560  178.5100  141.8450 C   0  0  0  0  0  3  0  0  0  0  0  0
  190.8210  177.2280  140.9900 C   0  0  0  0  0  3  0  0  0  0  0  0
  188.2690  178.3090  140.6460 C   0  0  0  0  0  3  0  0  0  0  0  0
  190.2380  177.9670  142.0310 C   0  0  0  0  0  0  0  0  0  0  0  0
  190.1350  177.0160  139.7850 C   0  0  0  0  0  0  0  0  0  0  0  0
  188.8530  177.5610  139.6220 C   0  0  0  0  0  3  0  0  0  0  0  0
  190.7390  176.2030  138.7160 C   0  0  0  0  0  0  0  0  0  0  0  0
  192.1290  175.8750  138.7690 N   0  0  0  0  0  2  0  0  0  0  0  0
  190.0340  175.8160  137.7400 O   0  0  0  0  0  0  0  0  0  0  0  0
  192.7910  175.1620  137.6880 C   0  0  0  0  0  2  0  0  0  0  0  0
  193.4010  176.1700  136.7280 C   0  0  0  0  0  2  0  0  0  0  0  0
  197.2820  175.1180  135.3970 C   0  0  0  0  0  2  0  0  0  0  0  0
  195.3130  176.6670  135.1810 C   0  0  0  0  0  2  0  0  0  0  0  0
  195.6210  175.4180  137.2380 O   0  0  0  0  0  0  0  0  0  0  0  0
  196.7260  174.6620  136.7620 C   0  0  1  0  0  3  0  0  0  0  0  0
  196.8360  176.5480  135.0990 C   0  0  0  0  0  2  0  0  0  0  0  0
  194.7200  175.6550  136.1770 C   0  0  1  0  0  3  0  0  0  0  0  0
  195.9760  169.4370  136.2210 O   0  0  0  0  0  1  0  0  0  0  0  0
  196.2680  172.5100  135.4410 C   0  0  0  0  0  2  0  0  0  0  0  0
  196.4280  170.2120  137.2900 C   0  0  1  0  0  3  0  0  0  0  0  0
  197.7220  170.9440  136.8920 C   0  0  0  0  0  2  0  0  0  0  0  0
  195.7190  172.5600  138.0090 C   0  0  0  0  0  2  0  0  0  0  0  0
  195.2920  171.1120  137.7820 C   0  0  0  0  0  2  0  0  0  0  0  0
  196.4570  173.1600  136.8020 C   0  0  2  0  0  0  0  0  0  0  0  0
  197.5780  172.3210  136.2090 C   0  0  2  0  0  3  0  0  0  0  0  0
  190.5770  177.4060  144.5680 C   0  0  2  0  0  3  0  0  0  0  0  0
  190.5690  175.8840  144.3660 C   0  0  2  0  0  3  0  0  0  0  0  0
  191.8880  175.4130  143.9820 N   0  0  0  0  0  1  0  0  0  0  0  0
  189.6560  175.5260  143.3860 F   0  0  0  0  0  0  0  0  0  0  0  0
  189.2820  177.8900  145.0360 N   0  0  0  0  0  2  0  0  0  0  0  0
  188.8190  177.0270  146.1180 C   0  0  1  0  0  3  0  0  0  0  0  0
  189.3380  177.5420  147.4470 C   0  0  0  0  0  1  0  0  0  0  0  0
  187.3640  177.0210  146.1560 N   0  0  0  0  0  2  0  0  0  0  0  0
  183.9760  178.4130  142.8970 C   0  0  2  0  0  3  0  0  0  0  0  0
  186.0380  179.2610  146.8120 S   0  0  0  0  0  0  0  0  0  0  0  0
  186.8930  178.2570  145.5480 C   0  0  2  0  0  3  0  0  0  0  0  0
  185.6580  177.9940  144.7040 C   0  0  1  0  0  0  0  0  0  0  0  0
  183.4910  178.7420  145.6200 C   0  0  0  0  0  2  0  0  0  0  0  0
  186.1230  177.6160  143.3960 O   0  0  0  0  0  0  0  0  0  0  0  0
  182.6480  179.0460  144.0200 S   0  0  0  0  0  0  0  0  0  0  0  0
  184.9310  179.1290  145.3930 C   0  0  1  0  0  3  0  0  0  0  0  0
  185.3980  178.7510  143.4020 C   0  0  1  0  0  3  0  0  0  0  0  0
  183.7770  178.9320  141.5530 N   0  0  0  0  0  2  0  0  0  0  0  0
  183.3490  177.8150  140.7280 C   0  0  0  0  0  2  0  0  0  0  0  0
  184.1770  179.3570  139.0040 C   0  0  0  0  0  0  0  0  0  0  0  0
  181.5080  181.6170  138.8210 O   0  0  0  0  0  0  0  0  0  0  0  0
  185.4170  179.1510  138.9290 O   0  0  0  0  0  0  0  0  0  0  0  0
  181.5240  178.9450  139.0350 S   0  0  0  0  0  0  0  0  0  0  0  0
  183.6330  180.6480  138.8100 N   0  0  0  0  0  2  0  0  0  0  0  0
  183.2080  178.2580  139.2840 C   0  0  2  0  0  3  0  0  0  0  0  0
  182.2220  180.5790  138.8690 C   0  0  0  0  0  0  0  0  0  0  0  0
  1  2  2  0  0  0  0
  3  6  1  0  0  0  0
  4  6  2  0  0  0  0
  5  3  2  0  0  0  0
  6  1  1  0  0  0  0
  7  4  1  0  0  0  0
  8  7  2  0  0  0  0
  8  5  1  0  0  0  0
  9 10  1  0  0  0  0
  9  7  1  0  0  0  0
 11  9  2  0  0  0  0
 12 10  1  0  0  0  0
 13 12  1  0  0  0  0
 15 19  1  0  0  0  0
 17 14  1  6  0  0  0
 17 26  1  0  0  0  0
 17 16  1  0  0  0  0
 18 15  1  0  0  0  0
 18 14  1  0  0  0  0
 19 13  1  1  0  0  0
 19 16  1  0  0  0  0
 22 20  1  6  0  0  0
 22 25  1  0  0  0  0
 23 22  1  0  0  0  0
 25 24  1  0  0  0  0
 26 21  1  6  0  0  0
 26 24  1  0  0  0  0
 27 21  1  6  0  0  0
 27 26  1  0  0  0  0
 27 23  1  0  0  0  0
 28  1  1  6  0  0  0
 28 32  1  0  0  0  0
 29 31  1  6  0  0  0
 29 28  1  0  0  0  0
 30 29  1  0  0  0  0
 32 33  1  0  0  0  0
 33 35  1  0  0  0  0
 33 34  1  1  0  0  0
 36 45  1  6  0  0  0
 36 44  1  0  0  0  0
 36 42  1  0  0  0  0
 38 35  1  1  0  0  0
 38 37  1  0  0  0  0
 39 41  1  1  0  0  0
 39 43  1  0  0  0  0
 39 38  1  0  0  0  0
 42 40  1  0  0  0  0
 43 40  1  1  0  0  0
 43 37  1  0  0  0  0
 44 41  1  6  0  0  0
 44 39  1  0  0  0  0
 46 45  1  0  0  0  0
 47 52  1  0  0  0  0
 48 53  2  0  0  0  0
 49 47  2  0  0  0  0
 50 52  1  0  0  0  0
 51 53  1  0  0  0  0
 51 47  1  0  0  0  0
 52 46  1  1  0  0  0
 53 50  1  0  0  0  0
M  END
>  <MODEL>
8

>  <REMARK>
 VINA RESULT:      -7.6      3.877     11.295
  Name = 
  15 active torsions:
  status: ('A' for Active; 'I' for Inactive)
    1  A    between atoms: C_2  and  N_4
    2  A    between atoms: C_2  and  N_9
    3  A    between atoms: C_3  and  N_51
    4  A    between atoms: N_4  and  C_13
    5  A    between atoms: N_9  and  C_18
    6  A    between atoms: C_13  and  C_17
    7  A    between atoms: C_13  and  C_39
    8  A    between atoms: C_20  and  C_39
    9  A    between atoms: C_21  and  C_27
   10  A    between atoms: N_29  and  C_52
   11  A    between atoms: C_34  and  C_35
   12  A    between atoms: C_37  and  C_44
   13  A    between atoms: C_44  and  C_52
   14  A    between atoms: C_48  and  C_53
   15  A    between atoms: N_51  and  C_53
                            x       y       z     vdW  Elec       q    Type
                         _______ _______ _______ _____ _____    ______ ____

>  <TORSDO>
F 15

$$$$
=
 OpenBabel10232409313D

 53 60  0  0  1  0  0  0  0  0999 V2000
  186.5740  177.5600  144.8840 C   0  0  0  0  0  0  0  0  0  0  0  0
  186.0340  176.8540  145.7810 O   0  0  0  0  0  0  0  0  0  0  0  0
  188.9270  177.3680  145.7530 C   0  0  0  0  0  3  0  0  0  0  0  0
  188.5570  177.5100  143.3660 C   0  0  0  0  0  3  0  0  0  0  0  0
  190.3060  177.3190  145.5360 C   0  0  0  0  0  3  0  0  0  0  0  0
  188.0390  177.4680  144.6700 C   0  0  0  0  0  0  0  0  0  0  0  0
  189.9400  177.4680  143.1400 C   0  0  0  0  0  0  0  0  0  0  0  0
  190.8110  177.3750  144.2350 C   0  0  0  0  0  3  0  0  0  0  0  0
  190.4740  177.5550  141.7700 C   0  0  0  0  0  0  0  0  0  0  0  0
  189.5790  177.6660  140.6620 N   0  0  0  0  0  2  0  0  0  0  0  0
  191.7220  177.5090  141.5740 O   0  0  0  0  0  0  0  0  0  0  0  0
  190.0550  177.6530  139.2870 C   0  0  0  0  0  2  0  0  0  0  0  0
  189.1110  178.4750  138.4260 C   0  0  0  0  0  2  0  0  0  0  0  0
  187.5860  176.5850  134.9550 C   0  0  0  0  0  2  0  0  0  0  0  0
  187.1140  177.9940  136.9830 C   0  0  0  0  0  2  0  0  0  0  0  0
  189.3780  177.8800  136.1180 O   0  0  0  0  0  0  0  0  0  0  0  0
  189.0860  176.8980  135.1340 C   0  0  1  0  0  3  0  0  0  0  0  0
  186.7410  177.7220  135.5250 C   0  0  0  0  0  2  0  0  0  0  0  0
  188.5870  177.6470  137.2640 C   0  0  1  0  0  3  0  0  0  0  0  0
  192.5480  172.9050  135.6140 O   0  0  0  0  0  1  0  0  0  0  0  0
  191.3120  175.6940  134.7040 C   0  0  0  0  0  2  0  0  0  0  0  0
  191.3600  173.2000  136.2840 C   0  0  1  0  0  3  0  0  0  0  0  0
  191.4930  174.5490  137.0120 C   0  0  0  0  0  2  0  0  0  0  0  0
  189.2160  174.2710  135.3960 C   0  0  0  0  0  2  0  0  0  0  0  0
  190.1860  173.0950  135.3080 C   0  0  0  0  0  2  0  0  0  0  0  0
  189.9220  175.6330  135.3160 C   0  0  2  0  0  0  0  0  0  0  0  0
  191.1310  175.8230  136.2180 C   0  0  2  0  0  3  0  0  0  0  0  0
  185.6910  178.4680  144.0730 C   0  0  2  0  0  3  0  0  0  0  0  0
  184.6820  179.2210  144.9500 C   0  0  2  0  0  3  0  0  0  0  0  0
  185.2660  179.5390  146.2420 N   0  0  0  0  0  1  0  0  0  0  0  0
  183.5390  178.4610  145.1440 F   0  0  0  0  0  0  0  0  0  0  0  0
  185.0210  177.6950  143.0300 N   0  0  0  0  0  2  0  0  0  0  0  0
  184.6230  178.6010  141.9560 C   0  0  1  0  0  3  0  0  0  0  0  0
  185.7800  178.8000  140.9960 C   0  0  0  0  0  1  0  0  0  0  0  0
  183.5010  178.0320  141.2230 N   0  0  0  0  0  2  0  0  0  0  0  0
  182.6880  176.3810  136.6800 C   0  0  2  0  0  3  0  0  0  0  0  0
  182.1880  179.7480  139.6300 S   0  0  0  0  0  0  0  0  0  0  0  0
  183.5450  178.5480  139.8630 C   0  0  2  0  0  3  0  0  0  0  0  0
  183.0010  177.5160  138.8890 C   0  0  1  0  0  0  0  0  0  0  0  0
  180.7540  177.9290  137.9540 C   0  0  0  0  0  2  0  0  0  0  0  0
  184.1050  176.6690  138.5240 O   0  0  0  0  0  0  0  0  0  0  0  0
  181.0010  177.0680  136.3530 S   0  0  0  0  0  0  0  0  0  0  0  0
  182.0870  178.5560  138.2790 C   0  0  1  0  0  3  0  0  0  0  0  0
  183.5840  177.3490  137.4860 C   0  0  1  0  0  3  0  0  0  0  0  0
  183.3290  176.0220  135.4240 N   0  0  0  0  0  2  0  0  0  0  0  0
  183.1480  174.5900  135.2520 C   0  0  0  0  0  2  0  0  0  0  0  0
  184.7530  173.4200  136.6980 C   0  0  0  0  0  0  0  0  0  0  0  0
  183.6750  170.1100  136.3170 O   0  0  0  0  0  0  0  0  0  0  0  0
  185.7050  174.2260  136.8730 O   0  0  0  0  0  0  0  0  0  0  0  0
  182.2800  172.3800  136.6080 S   0  0  0  0  0  0  0  0  0  0  0  0
  184.9760  172.0250  136.6190 N   0  0  0  0  0  2  0  0  0  0  0  0
  183.3390  173.8790  136.5790 C   0  0  2  0  0  3  0  0  0  0  0  0
  183.7370  171.3560  136.5010 C   0  0  0  0  0  0  0  0  0  0  0  0
  1  2  2  0  0  0  0
  4  6  1  0  0  0  0
  5  3  1  0  0  0  0
  6  1  1  0  0  0  0
  6  3  2  0  0  0  0
  7  4  2  0  0  0  0
  7  8  1  0  0  0  0
  8  5  2  0  0  0  0
  9  7  1  0  0  0  0
 10  9  1  0  0  0  0
 11  9  2  0  0  0  0
 12 10  1  0  0  0  0
 13 12  1  0  0  0  0
 14 18  1  0  0  0  0
 15 19  1  0  0  0  0
 16 19  1  0  0  0  0
 17 14  1  1  0  0  0
 17 26  1  0  0  0  0
 17 16  1  0  0  0  0
 18 15  1  0  0  0  0
 19 13  1  1  0  0  0
 22 20  1  6  0  0  0
 22 23  1  0  0  0  0
 25 24  1  0  0  0  0
 25 22  1  0  0  0  0
 26 21  1  6  0  0  0
 26 24  1  0  0  0  0
 26 27  1  0  0  0  0
 27 21  1  6  0  0  0
 27 23  1  0  0  0  0
 28 32  1  6  0  0  0
 28  1  1  0  0  0  0
 28 29  1  0  0  0  0
 29 31  1  1  0  0  0
 29 30  1  0  0  0  0
 33 34  1  6  0  0  0
 33 32  1  0  0  0  0
 35 33  1  0  0  0  0
 36 45  1  6  0  0  0
 36 44  1  0  0  0  0
 37 38  1  0  0  0  0
 38 35  1  1  0  0  0
 39 41  1  1  0  0  0
 39 38  1  0  0  0  0
 42 36  1  0  0  0  0
 42 40  1  0  0  0  0
 43 40  1  1  0  0  0
 43 39  1  0  0  0  0
 43 37  1  0  0  0  0
 44 41  1  1  0  0  0
 44 39  1  0  0  0  0
 46 45  1  0  0  0  0
 47 49  2  0  0  0  0
 48 53  2  0  0  0  0
 51 47  1  0  0  0  0
 52 46  1  6  0  0  0
 52 50  1  0  0  0  0
 52 47  1  0  0  0  0
 53 50  1  0  0  0  0
 53 51  1  0  0  0  0
M  END
>  <MODEL>
9

>  <REMARK>
 VINA RESULT:      -7.4      4.046      9.424
  Name = 
  15 active torsions:
  status: ('A' for Active; 'I' for Inactive)
    1  A    between atoms: C_2  and  N_4
    2  A    between atoms: C_2  and  N_9
    3  A    between atoms: C_3  and  N_51
    4  A    between atoms: N_4  and  C_13
    5  A    between atoms: N_9  and  C_18
    6  A    between atoms: C_13  and  C_17
    7  A    between atoms: C_13  and  C_39
    8  A    between atoms: C_20  and  C_39
    9  A    between atoms: C_21  and  C_27
   10  A    between atoms: N_29  and  C_52
   11  A    between atoms: C_34  and  C_35
   12  A    between atoms: C_37  and  C_44
   13  A    between atoms: C_44  and  C_52
   14  A    between atoms: C_48  and  C_53
   15  A    between atoms: N_51  and  C_53
                            x       y       z     vdW  Elec       q    Type
                         _______ _______ _______ _____ _____    ______ ____

>  <TORSDO>
F 15

$$$$
