=
 OpenBabel10232408143D

 32 33  0  0  1  0  0  0  0  0999 V2000
  190.3640  176.9640  144.4550 C   0  0  0  0  0  2  0  0  0  0  0  0
  190.9600  176.7860  147.4440 C   0  0  0  0  0  3  0  0  0  0  0  0
  187.5370  177.9200  146.3490 C   0  0  0  0  0  3  0  0  0  0  0  0
  188.0210  177.1970  144.2640 N   0  0  0  0  0  0  0  0  0  0  0  0
  189.1580  177.1780  144.9890 C   0  0  0  0  0  0  0  0  0  0  0  0
  187.0560  177.6890  145.0700 C   0  0  0  0  0  0  0  0  0  0  0  0
  191.6410  177.3100  145.1490 C   0  0  0  0  0  2  0  0  0  0  0  0
  191.7880  176.6750  146.4500 N   0  0  0  0  0  0  0  0  0  0  0  0
  189.6350  177.4330  147.3840 C   0  0  0  0  0  2  0  0  0  0  0  0
  188.8760  177.5700  146.2910 C   0  0  0  0  0  0  0  0  0  0  0  0
  187.8720  176.9130  142.8380 C   0  0  0  0  0  2  0  0  0  0  0  0
  187.7880  178.1990  142.0170 C   0  0  2  0  0  3  0  0  0  0  0  0
  185.9270  179.3510  141.6770 C   0  0  0  0  0  1  0  0  0  0  0  0
  186.5900  178.1820  141.2970 O   0  0  0  0  0  0  0  0  0  0  0  0
  188.5430  178.7300  139.8010 O   0  0  0  0  0  1  0  0  0  0  0  0
  188.9790  178.3120  141.0610 C   0  0  2  0  0  3  0  0  0  0  0  0
  189.7040  176.9800  140.9180 C   0  0  0  0  0  2  0  0  0  0  0  0
  191.2100  177.1800  140.9750 C   0  0  0  0  0  2  0  0  0  0  0  0
  191.6740  177.6780  139.7570 O   0  0  0  0  0  0  0  0  0  0  0  0
  192.9340  177.1020  139.6010 C   0  0  0  0  0  2  0  0  0  0  0  0
  193.0100  176.3820  138.2920 C   0  0  0  0  0  0  0  0  0  0  0  0
  194.0940  176.0520  137.8430 O   0  0  0  0  0  0  0  0  0  0  0  0
  191.7620  176.0320  137.5410 C   0  0  2  0  0  3  0  0  0  0  0  0
  191.1880  174.8790  138.0740 O   0  0  0  0  0  1  0  0  0  0  0  0
  192.0710  175.8190  136.0710 C   0  0  0  0  0  1  0  0  0  0  0  0
  185.6350  177.8870  144.6540 C   0  0  0  0  0  2  0  0  0  0  0  0
  185.0060  178.9830  145.4890 C   0  0  0  0  0  2  0  0  0  0  0  0
  183.4980  178.9110  145.3810 C   0  0  0  0  0  2  0  0  0  0  0  0
  183.1060  178.9650  143.9150 C   0  0  0  0  0  2  0  0  0  0  0  0
  181.6050  178.8040  143.7550 C   0  0  0  0  0  2  0  0  0  0  0  0
  182.2760  178.4990  141.3930 C   0  0  0  0  0  1  0  0  0  0  0  0
  181.2010  179.0380  142.3100 C   0  0  0  0  0  2  0  0  0  0  0  0
  1  5  1  0  0  0  0
  1  7  1  0  0  0  0
  4  5  1  0  0  0  0
  4  6  1  0  0  0  0
  5 10  2  0  0  0  0
  6  3  2  0  0  0  0
  7  8  1  0  0  0  0
  8  2  2  0  0  0  0
  9  2  1  0  0  0  0
 10  3  1  0  0  0  0
 10  9  1  0  0  0  0
 11  4  1  0  0  0  0
 12 11  1  6  0  0  0
 14 13  1  0  0  0  0
 14 12  1  0  0  0  0
 16 15  1  6  0  0  0
 16 12  1  0  0  0  0
 17 18  1  0  0  0  0
 17 16  1  0  0  0  0
 19 18  1  0  0  0  0
 20 19  1  0  0  0  0
 21 20  1  0  0  0  0
 22 21  2  0  0  0  0
 23 25  1  6  0  0  0
 23 24  1  0  0  0  0
 23 21  1  0  0  0  0
 26  6  1  0  0  0  0
 26 27  1  0  0  0  0
 28 27  1  0  0  0  0
 29 28  1  0  0  0  0
 30 29  1  0  0  0  0
 31 32  1  0  0  0  0
 32 30  1  0  0  0  0
M  END
>  <MODEL>
1

>  <REMARK>
 VINA RESULT:      -7.1      0.000      0.000
  Name = 
  16 active torsions:
  status: ('A' for Active; 'I' for Inactive)
    1  A    between atoms: C_1  and  C_22
    2  A    between atoms: C_1  and  C_24
    3  A    between atoms: C_2  and  C_7
    4  A    between atoms: C_2  and  C_25
    5  A    between atoms: C_6  and  C_9
    6  A    between atoms: C_6  and  C_32
    7  A    between atoms: C_9  and  O_12
    8  A    between atoms: N_10  and  C_20
    9  A    between atoms: O_12  and  C_25
   10  A    between atoms: C_14  and  C_17
   11  A    between atoms: C_14  and  C_19
   12  A    between atoms: C_16  and  O_18
   13  A    between atoms: C_16  and  C_20
   14  A    between atoms: C_16  and  C_32
   15  A    between atoms: C_17  and  C_21
   16  A    between atoms: C_21  and  C_24
                            x       y       z     vdW  Elec       q    Type
                         _______ _______ _______ _____ _____    ______ ____

>  <TORSDO>
F 16

$$$$
=
 OpenBabel10232408143D

 32 33  0  0  1  0  0  0  0  0999 V2000
  190.7950  178.2640  143.0970 C   0  0  0  0  0  2  0  0  0  0  0  0
  190.6850  176.7900  145.7680 C   0  0  0  0  0  3  0  0  0  0  0  0
  187.4490  177.5830  144.0080 C   0  0  0  0  0  3  0  0  0  0  0  0
  188.6380  178.0750  142.1520 N   0  0  0  0  0  0  0  0  0  0  0  0
  189.5010  177.9410  143.1800 C   0  0  0  0  0  0  0  0  0  0  0  0
  187.3990  177.9060  142.6620 C   0  0  0  0  0  0  0  0  0  0  0  0
  191.6630  178.4850  144.2930 C   0  0  0  0  0  2  0  0  0  0  0  0
  191.7100  177.3450  145.1960 N   0  0  0  0  0  0  0  0  0  0  0  0
  189.2720  177.0980  145.4740 C   0  0  0  0  0  2  0  0  0  0  0  0
  188.7970  177.5870  144.3240 C   0  0  0  0  0  0  0  0  0  0  0  0
  188.9430  178.4920  140.7850 C   0  0  0  0  0  2  0  0  0  0  0  0
  189.2200  177.2890  139.8830 C   0  0  2  0  0  3  0  0  0  0  0  0
  190.8920  176.2170  138.9030 C   0  0  0  0  0  1  0  0  0  0  0  0
  190.5470  176.8940  140.0750 O   0  0  0  0  0  0  0  0  0  0  0  0
  189.0300  179.0320  138.2430 O   0  0  0  0  0  1  0  0  0  0  0  0
  188.9810  177.6460  138.4130 C   0  0  2  0  0  3  0  0  0  0  0  0
  187.6290  177.1340  137.9310 C   0  0  0  0  0  2  0  0  0  0  0  0
  186.8290  178.2560  137.2900 C   0  0  0  0  0  2  0  0  0  0  0  0
  186.1220  178.9590  138.2660 O   0  0  0  0  0  0  0  0  0  0  0  0
  184.9110  178.2770  138.3820 C   0  0  0  0  0  2  0  0  0  0  0  0
  183.8300  179.2200  138.8030 C   0  0  0  0  0  0  0  0  0  0  0  0
  184.1220  180.3140  139.2560 O   0  0  0  0  0  0  0  0  0  0  0  0
  182.3880  178.8460  138.6450 C   0  0  2  0  0  3  0  0  0  0  0  0
  181.6690  179.9190  138.1190 O   0  0  0  0  0  1  0  0  0  0  0  0
  181.7960  178.4390  139.9820 C   0  0  0  0  0  1  0  0  0  0  0  0
  186.1430  177.9850  141.8580 C   0  0  0  0  0  2  0  0  0  0  0  0
  185.2550  179.0840  142.4030 C   0  0  0  0  0  2  0  0  0  0  0  0
  183.9840  178.4860  142.9670 C   0  0  0  0  0  2  0  0  0  0  0  0
  183.5540  179.2940  144.1780 C   0  0  0  0  0  2  0  0  0  0  0  0
  184.7320  179.5400  145.1040 C   0  0  0  0  0  2  0  0  0  0  0  0
  185.9490  178.7500  147.1090 C   0  0  0  0  0  1  0  0  0  0  0  0
  184.7980  178.4610  146.1710 C   0  0  0  0  0  2  0  0  0  0  0  0
  1  5  1  0  0  0  0
  1  7  1  0  0  0  0
  3 10  1  0  0  0  0
  4  6  1  0  0  0  0
  4  5  1  0  0  0  0
  5 10  2  0  0  0  0
  6  3  2  0  0  0  0
  7  8  1  0  0  0  0
  8  2  2  0  0  0  0
  9  2  1  0  0  0  0
 10  9  1  0  0  0  0
 11  4  1  0  0  0  0
 12 14  1  0  0  0  0
 12 11  1  1  0  0  0
 13 14  1  0  0  0  0
 16 15  1  1  0  0  0
 16 12  1  0  0  0  0
 17 16  1  0  0  0  0
 18 17  1  0  0  0  0
 18 19  1  0  0  0  0
 19 20  1  0  0  0  0
 20 21  1  0  0  0  0
 21 22  2  0  0  0  0
 23 21  1  0  0  0  0
 23 25  1  1  0  0  0
 24 23  1  0  0  0  0
 26 27  1  0  0  0  0
 26  6  1  0  0  0  0
 27 28  1  0  0  0  0
 28 29  1  0  0  0  0
 29 30  1  0  0  0  0
 30 32  1  0  0  0  0
 32 31  1  0  0  0  0
M  END
>  <MODEL>
2

>  <REMARK>
 VINA RESULT:      -7.1      2.322      5.417
  Name = 
  16 active torsions:
  status: ('A' for Active; 'I' for Inactive)
    1  A    between atoms: C_1  and  C_22
    2  A    between atoms: C_1  and  C_24
    3  A    between atoms: C_2  and  C_7
    4  A    between atoms: C_2  and  C_25
    5  A    between atoms: C_6  and  C_9
    6  A    between atoms: C_6  and  C_32
    7  A    between atoms: C_9  and  O_12
    8  A    between atoms: N_10  and  C_20
    9  A    between atoms: O_12  and  C_25
   10  A    between atoms: C_14  and  C_17
   11  A    between atoms: C_14  and  C_19
   12  A    between atoms: C_16  and  O_18
   13  A    between atoms: C_16  and  C_20
   14  A    between atoms: C_16  and  C_32
   15  A    between atoms: C_17  and  C_21
   16  A    between atoms: C_21  and  C_24
                            x       y       z     vdW  Elec       q    Type
                         _______ _______ _______ _____ _____    ______ ____

>  <TORSDO>
F 16

$$$$
=
 OpenBabel10232408143D

 32 33  0  0  1  0  0  0  0  0999 V2000
  186.6930  178.8150  141.5060 C   0  0  0  0  0  2  0  0  0  0  0  0
  185.1240  178.9120  144.1230 C   0  0  0  0  0  3  0  0  0  0  0  0
  187.9710  176.4620  143.8140 C   0  0  0  0  0  3  0  0  0  0  0  0
  188.6390  177.5540  141.9530 N   0  0  0  0  0  0  0  0  0  0  0  0
  187.4170  178.0130  142.2910 C   0  0  0  0  0  0  0  0  0  0  0  0
  188.9510  176.5870  142.8420 C   0  0  0  0  0  0  0  0  0  0  0  0
  185.2220  179.0190  141.6770 C   0  0  0  0  0  2  0  0  0  0  0  0
  184.8510  179.5010  142.9990 N   0  0  0  0  0  0  0  0  0  0  0  0
  186.0060  177.7390  144.2820 C   0  0  0  0  0  2  0  0  0  0  0  0
  187.0060  177.3930  143.4640 C   0  0  0  0  0  0  0  0  0  0  0  0
  189.4180  177.8950  140.7640 C   0  0  0  0  0  2  0  0  0  0  0  0
  189.0100  177.0410  139.5640 C   0  0  2  0  0  3  0  0  0  0  0  0
  191.2220  176.9560  139.4800 C   0  0  0  0  0  1  0  0  0  0  0  0
  190.0750  176.1930  139.2480 O   0  0  0  0  0  0  0  0  0  0  0  0
  189.0040  179.2520  138.6280 O   0  0  0  0  0  1  0  0  0  0  0  0
  188.6610  177.9240  138.3620 C   0  0  2  0  0  3  0  0  0  0  0  0
  187.1740  177.8520  138.0360 C   0  0  0  0  0  2  0  0  0  0  0  0
  186.9570  177.2660  136.6500 C   0  0  0  0  0  2  0  0  0  0  0  0
  186.9810  175.8720  136.7100 O   0  0  0  0  0  0  0  0  0  0  0  0
  187.7570  175.4880  135.6170 C   0  0  0  0  0  2  0  0  0  0  0  0
  189.0920  175.0010  136.0830 C   0  0  0  0  0  0  0  0  0  0  0  0
  190.0850  175.6850  135.8980 O   0  0  0  0  0  0  0  0  0  0  0  0
  189.2190  173.6940  136.8030 C   0  0  2  0  0  3  0  0  0  0  0  0
  190.4980  173.5660  137.3420 O   0  0  0  0  0  1  0  0  0  0  0  0
  188.9420  172.5390  135.8590 C   0  0  0  0  0  1  0  0  0  0  0  0
  190.2240  175.8060  142.8230 C   0  0  0  0  0  2  0  0  0  0  0  0
  191.3440  176.6420  143.4070 C   0  0  0  0  0  2  0  0  0  0  0  0
  191.5350  176.2970  144.8690 C   0  0  0  0  0  2  0  0  0  0  0  0
  190.8940  177.3810  145.7180 C   0  0  0  0  0  2  0  0  0  0  0  0
  190.1660  176.7730  146.9030 C   0  0  0  0  0  2  0  0  0  0  0  0
  188.9340  178.2460  148.4650 C   0  0  0  0  0  1  0  0  0  0  0  0
  188.8570  177.5030  147.1490 C   0  0  0  0  0  2  0  0  0  0  0  0
  1  7  1  0  0  0  0
  1  5  1  0  0  0  0
  2  9  1  0  0  0  0
  4  5  1  0  0  0  0
  4  6  1  0  0  0  0
  5 10  2  0  0  0  0
  6  3  2  0  0  0  0
  7  8  1  0  0  0  0
  8  2  2  0  0  0  0
 10  3  1  0  0  0  0
 10  9  1  0  0  0  0
 11  4  1  0  0  0  0
 12 11  1  1  0  0  0
 14 13  1  0  0  0  0
 14 12  1  0  0  0  0
 16 15  1  1  0  0  0
 16 12  1  0  0  0  0
 17 16  1  0  0  0  0
 18 19  1  0  0  0  0
 18 17  1  0  0  0  0
 20 21  1  0  0  0  0
 20 19  1  0  0  0  0
 21 23  1  0  0  0  0
 22 21  2  0  0  0  0
 23 25  1  6  0  0  0
 23 24  1  0  0  0  0
 26  6  1  0  0  0  0
 26 27  1  0  0  0  0
 27 28  1  0  0  0  0
 28 29  1  0  0  0  0
 29 30  1  0  0  0  0
 30 32  1  0  0  0  0
 32 31  1  0  0  0  0
M  END
>  <MODEL>
3

>  <REMARK>
 VINA RESULT:      -7.1      2.433      5.720
  Name = 
  16 active torsions:
  status: ('A' for Active; 'I' for Inactive)
    1  A    between atoms: C_1  and  C_22
    2  A    between atoms: C_1  and  C_24
    3  A    between atoms: C_2  and  C_7
    4  A    between atoms: C_2  and  C_25
    5  A    between atoms: C_6  and  C_9
    6  A    between atoms: C_6  and  C_32
    7  A    between atoms: C_9  and  O_12
    8  A    between atoms: N_10  and  C_20
    9  A    between atoms: O_12  and  C_25
   10  A    between atoms: C_14  and  C_17
   11  A    between atoms: C_14  and  C_19
   12  A    between atoms: C_16  and  O_18
   13  A    between atoms: C_16  and  C_20
   14  A    between atoms: C_16  and  C_32
   15  A    between atoms: C_17  and  C_21
   16  A    between atoms: C_21  and  C_24
                            x       y       z     vdW  Elec       q    Type
                         _______ _______ _______ _____ _____    ______ ____

>  <TORSDO>
F 16

$$$$
=
 OpenBabel10232408143D

 32 33  0  0  1  0  0  0  0  0999 V2000
  190.5990  176.5810  144.7460 C   0  0  0  0  0  2  0  0  0  0  0  0
  191.0390  176.7710  147.7610 C   0  0  0  0  0  3  0  0  0  0  0  0
  187.7480  177.9340  146.3390 C   0  0  0  0  0  3  0  0  0  0  0  0
  188.2870  176.9150  144.3970 N   0  0  0  0  0  0  0  0  0  0  0  0
  189.3840  176.9300  145.1800 C   0  0  0  0  0  0  0  0  0  0  0  0
  187.3160  177.5620  145.0760 C   0  0  0  0  0  0  0  0  0  0  0  0
  191.8600  176.9470  145.4590 C   0  0  0  0  0  2  0  0  0  0  0  0
  191.9050  176.4840  146.8380 N   0  0  0  0  0  0  0  0  0  0  0  0
  189.7600  177.4760  147.5440 C   0  0  0  0  0  2  0  0  0  0  0  0
  189.0650  177.5070  146.4020 C   0  0  0  0  0  0  0  0  0  0  0  0
  188.1890  176.4510  143.0140 C   0  0  0  0  0  2  0  0  0  0  0  0
  188.6660  177.5200  142.0310 C   0  0  2  0  0  3  0  0  0  0  0  0
  187.0670  178.9590  141.5030 C   0  0  0  0  0  1  0  0  0  0  0  0
  187.6440  177.7510  141.1050 O   0  0  0  0  0  0  0  0  0  0  0  0
  191.0500  177.7250  141.8460 O   0  0  0  0  0  1  0  0  0  0  0  0
  189.9400  177.0680  141.3110 C   0  0  2  0  0  3  0  0  0  0  0  0
  189.8650  177.3560  139.8170 C   0  0  0  0  0  2  0  0  0  0  0  0
  190.9650  176.6170  139.0730 C   0  0  0  0  0  2  0  0  0  0  0  0
  190.9000  176.9070  137.7090 O   0  0  0  0  0  0  0  0  0  0  0  0
  189.5830  176.6160  137.3520 C   0  0  0  0  0  2  0  0  0  0  0  0
  189.1000  177.5990  136.3340 C   0  0  0  0  0  0  0  0  0  0  0  0
  189.4670  177.5020  135.1750 O   0  0  0  0  0  0  0  0  0  0  0  0
  188.1430  178.6860  136.7170 C   0  0  2  0  0  3  0  0  0  0  0  0
  188.8060  179.6780  137.4370 O   0  0  0  0  0  1  0  0  0  0  0  0
  187.0060  178.1220  137.5490 C   0  0  0  0  0  1  0  0  0  0  0  0
  185.9310  177.7800  144.5600 C   0  0  0  0  0  2  0  0  0  0  0  0
  185.3020  178.9610  145.2680 C   0  0  0  0  0  2  0  0  0  0  0  0
  183.7930  178.8550  145.2060 C   0  0  0  0  0  2  0  0  0  0  0  0
  183.3050  179.5180  143.9310 C   0  0  0  0  0  2  0  0  0  0  0  0
  182.0540  178.8320  143.4140 C   0  0  0  0  0  2  0  0  0  0  0  0
  183.4330  178.3090  141.4270 C   0  0  0  0  0  1  0  0  0  0  0  0
  182.0730  178.7740  141.8960 C   0  0  0  0  0  2  0  0  0  0  0  0
  1  5  1  0  0  0  0
  1  7  1  0  0  0  0
  3 10  1  0  0  0  0
  4  6  1  0  0  0  0
  4  5  1  0  0  0  0
  5 10  2  0  0  0  0
  6  3  2  0  0  0  0
  7  8  1  0  0  0  0
  8  2  2  0  0  0  0
  9  2  1  0  0  0  0
 10  9  1  0  0  0  0
 11  4  1  0  0  0  0
 12 11  1  1  0  0  0
 14 13  1  0  0  0  0
 14 12  1  0  0  0  0
 16 15  1  1  0  0  0
 16 12  1  0  0  0  0
 17 16  1  0  0  0  0
 18 17  1  0  0  0  0
 19 18  1  0  0  0  0
 20 19  1  0  0  0  0
 21 23  1  0  0  0  0
 21 20  1  0  0  0  0
 22 21  2  0  0  0  0
 23 24  1  0  0  0  0
 23 25  1  1  0  0  0
 26  6  1  0  0  0  0
 26 27  1  0  0  0  0
 28 27  1  0  0  0  0
 29 28  1  0  0  0  0
 30 29  1  0  0  0  0
 31 32  1  0  0  0  0
 32 30  1  0  0  0  0
M  END
>  <MODEL>
4

>  <REMARK>
 VINA RESULT:      -7.1      1.762      2.403
  Name = 
  16 active torsions:
  status: ('A' for Active; 'I' for Inactive)
    1  A    between atoms: C_1  and  C_22
    2  A    between atoms: C_1  and  C_24
    3  A    between atoms: C_2  and  C_7
    4  A    between atoms: C_2  and  C_25
    5  A    between atoms: C_6  and  C_9
    6  A    between atoms: C_6  and  C_32
    7  A    between atoms: C_9  and  O_12
    8  A    between atoms: N_10  and  C_20
    9  A    between atoms: O_12  and  C_25
   10  A    between atoms: C_14  and  C_17
   11  A    between atoms: C_14  and  C_19
   12  A    between atoms: C_16  and  O_18
   13  A    between atoms: C_16  and  C_20
   14  A    between atoms: C_16  and  C_32
   15  A    between atoms: C_17  and  C_21
   16  A    between atoms: C_21  and  C_24
                            x       y       z     vdW  Elec       q    Type
                         _______ _______ _______ _____ _____    ______ ____

>  <TORSDO>
F 16

$$$$
=
 OpenBabel10232408143D

 32 33  0  0  1  0  0  0  0  0999 V2000
  186.8660  178.7580  141.4050 C   0  0  0  0  0  2  0  0  0  0  0  0
  185.1490  178.8410  143.9280 C   0  0  0  0  0  3  0  0  0  0  0  0
  188.0750  176.4690  143.8120 C   0  0  0  0  0  3  0  0  0  0  0  0
  188.8180  177.5570  141.9780 N   0  0  0  0  0  0  0  0  0  0  0  0
  187.5670  177.9860  142.2410 C   0  0  0  0  0  0  0  0  0  0  0  0
  189.1050  176.6100  142.8960 C   0  0  0  0  0  0  0  0  0  0  0  0
  185.3830  178.9230  141.4900 C   0  0  0  0  0  2  0  0  0  0  0  0
  184.9250  179.4090  142.7820 N   0  0  0  0  0  0  0  0  0  0  0  0
  186.0530  177.6950  144.1520 C   0  0  0  0  0  2  0  0  0  0  0  0
  187.1060  177.3680  143.3960 C   0  0  0  0  0  0  0  0  0  0  0  0
  189.6540  177.9070  140.8310 C   0  0  0  0  0  2  0  0  0  0  0  0
  189.3670  177.0010  139.6340 C   0  0  2  0  0  3  0  0  0  0  0  0
  191.5470  176.8200  139.2850 C   0  0  0  0  0  1  0  0  0  0  0  0
  190.4000  176.0640  139.5360 O   0  0  0  0  0  0  0  0  0  0  0  0
  188.9980  179.1570  138.6440 O   0  0  0  0  0  1  0  0  0  0  0  0
  189.2700  177.8200  138.3430 C   0  0  2  0  0  3  0  0  0  0  0  0
  188.1760  177.2850  137.4270 C   0  0  0  0  0  2  0  0  0  0  0  0
  187.0320  178.2790  137.3210 C   0  0  0  0  0  2  0  0  0  0  0  0
  185.9630  177.8670  138.1170 O   0  0  0  0  0  0  0  0  0  0  0  0
  185.2600  176.9650  137.3190 C   0  0  0  0  0  2  0  0  0  0  0  0
  183.8700  177.4650  137.0830 C   0  0  0  0  0  0  0  0  0  0  0  0
  183.3220  177.2500  136.0160 O   0  0  0  0  0  0  0  0  0  0  0  0
  183.1310  178.2000  138.1580 C   0  0  2  0  0  3  0  0  0  0  0  0
  182.8650  177.3470  139.2280 O   0  0  0  0  0  1  0  0  0  0  0  0
  181.8310  178.7650  137.6170 C   0  0  0  0  0  1  0  0  0  0  0  0
  190.3980  175.8650  142.9590 C   0  0  0  0  0  2  0  0  0  0  0  0
  191.5100  176.8070  143.3720 C   0  0  0  0  0  2  0  0  0  0  0  0
  191.2000  177.4070  144.7270 C   0  0  0  0  0  2  0  0  0  0  0  0
  191.6820  176.4570  145.8090 C   0  0  0  0  0  2  0  0  0  0  0  0
  190.8910  176.6550  147.0890 C   0  0  0  0  0  2  0  0  0  0  0  0
  188.5070  177.0250  147.6430 C   0  0  0  0  0  1  0  0  0  0  0  0
  189.6770  177.5300  146.8280 C   0  0  0  0  0  2  0  0  0  0  0  0
  1  7  1  0  0  0  0
  1  5  1  0  0  0  0
  2  9  1  0  0  0  0
  4  5  1  0  0  0  0
  4  6  1  0  0  0  0
  5 10  2  0  0  0  0
  6 26  1  0  0  0  0
  6  3  2  0  0  0  0
  7  8  1  0  0  0  0
  8  2  2  0  0  0  0
 10  3  1  0  0  0  0
 10  9  1  0  0  0  0
 11  4  1  0  0  0  0
 12 11  1  1  0  0  0
 13 14  1  0  0  0  0
 14 12  1  0  0  0  0
 16 15  1  1  0  0  0
 16 12  1  0  0  0  0
 17 16  1  0  0  0  0
 18 17  1  0  0  0  0
 18 19  1  0  0  0  0
 20 19  1  0  0  0  0
 21 20  1  0  0  0  0
 21 23  1  0  0  0  0
 22 21  2  0  0  0  0
 23 25  1  6  0  0  0
 23 24  1  0  0  0  0
 26 27  1  0  0  0  0
 27 28  1  0  0  0  0
 28 29  1  0  0  0  0
 29 30  1  0  0  0  0
 32 30  1  0  0  0  0
 32 31  1  0  0  0  0
M  END
>  <MODEL>
5

>  <REMARK>
 VINA RESULT:      -7.0      2.692      6.824
  Name = 
  16 active torsions:
  status: ('A' for Active; 'I' for Inactive)
    1  A    between atoms: C_1  and  C_22
    2  A    between atoms: C_1  and  C_24
    3  A    between atoms: C_2  and  C_7
    4  A    between atoms: C_2  and  C_25
    5  A    between atoms: C_6  and  C_9
    6  A    between atoms: C_6  and  C_32
    7  A    between atoms: C_9  and  O_12
    8  A    between atoms: N_10  and  C_20
    9  A    between atoms: O_12  and  C_25
   10  A    between atoms: C_14  and  C_17
   11  A    between atoms: C_14  and  C_19
   12  A    between atoms: C_16  and  O_18
   13  A    between atoms: C_16  and  C_20
   14  A    between atoms: C_16  and  C_32
   15  A    between atoms: C_17  and  C_21
   16  A    between atoms: C_21  and  C_24
                            x       y       z     vdW  Elec       q    Type
                         _______ _______ _______ _____ _____    ______ ____

>  <TORSDO>
F 16

$$$$
=
 OpenBabel10232408143D

 32 33  0  0  1  0  0  0  0  0999 V2000
  190.4260  176.8930  144.4900 C   0  0  0  0  0  2  0  0  0  0  0  0
  191.1190  176.6070  147.4490 C   0  0  0  0  0  3  0  0  0  0  0  0
  187.6710  177.8030  146.5090 C   0  0  0  0  0  3  0  0  0  0  0  0
  188.0800  177.1500  144.3860 N   0  0  0  0  0  0  0  0  0  0  0  0
  189.2400  177.0970  145.0710 C   0  0  0  0  0  0  0  0  0  0  0  0
  187.1460  177.6210  145.2400 C   0  0  0  0  0  0  0  0  0  0  0  0
  191.7280  177.2060  145.1520 C   0  0  0  0  0  2  0  0  0  0  0  0
  191.9120  176.5250  146.4250 N   0  0  0  0  0  0  0  0  0  0  0  0
  189.7980  177.2660  147.4570 C   0  0  0  0  0  2  0  0  0  0  0  0
  189.0040  177.4460  146.3950 C   0  0  0  0  0  0  0  0  0  0  0  0
  187.8810  176.9170  142.9570 C   0  0  0  0  0  2  0  0  0  0  0  0
  188.7500  177.8470  142.1120 C   0  0  2  0  0  3  0  0  0  0  0  0
  186.7450  178.4650  141.4020 C   0  0  0  0  0  1  0  0  0  0  0  0
  187.9910  178.9720  141.7770 O   0  0  0  0  0  0  0  0  0  0  0  0
  190.1730  176.1570  141.1730 O   0  0  0  0  0  1  0  0  0  0  0  0
  189.2330  177.1370  140.8440 C   0  0  2  0  0  3  0  0  0  0  0  0
  189.8640  178.1200  139.8650 C   0  0  0  0  0  2  0  0  0  0  0  0
  189.2100  178.0090  138.4980 C   0  0  0  0  0  2  0  0  0  0  0  0
  188.4790  176.8240  138.4100 O   0  0  0  0  0  0  0  0  0  0  0  0
  188.6700  176.3910  137.0980 C   0  0  0  0  0  2  0  0  0  0  0  0
  188.7160  174.8970  137.0530 C   0  0  0  0  0  0  0  0  0  0  0  0
  187.6770  174.2600  137.0060 O   0  0  0  0  0  0  0  0  0  0  0  0
  190.0270  174.1740  137.0310 C   0  0  2  0  0  3  0  0  0  0  0  0
  190.8190  174.5840  138.1030 O   0  0  0  0  0  1  0  0  0  0  0  0
  190.7560  174.4350  135.7260 C   0  0  0  0  0  1  0  0  0  0  0  0
  185.7130  177.8430  144.8790 C   0  0  0  0  0  2  0  0  0  0  0  0
  185.3090  179.2560  145.2430 C   0  0  0  0  0  2  0  0  0  0  0  0
  184.3850  179.8160  144.1820 C   0  0  0  0  0  2  0  0  0  0  0  0
  183.5680  178.6810  143.5910 C   0  0  0  0  0  2  0  0  0  0  0  0
  182.1090  178.8050  143.9900 C   0  0  0  0  0  2  0  0  0  0  0  0
  182.0660  178.7230  141.5170 C   0  0  0  0  0  1  0  0  0  0  0  0
  181.2380  178.9750  142.7570 C   0  0  0  0  0  2  0  0  0  0  0  0
  1  5  1  0  0  0  0
  1  7  1  0  0  0  0
  2  9  1  0  0  0  0
  4  5  1  0  0  0  0
  4  6  1  0  0  0  0
  5 10  2  0  0  0  0
  6  3  2  0  0  0  0
  7  8  1  0  0  0  0
  8  2  2  0  0  0  0
 10  3  1  0  0  0  0
 10  9  1  0  0  0  0
 11  4  1  0  0  0  0
 12 11  1  6  0  0  0
 13 14  1  0  0  0  0
 14 12  1  0  0  0  0
 16 15  1  1  0  0  0
 16 12  1  0  0  0  0
 17 16  1  0  0  0  0
 18 17  1  0  0  0  0
 19 18  1  0  0  0  0
 20 19  1  0  0  0  0
 21 20  1  0  0  0  0
 22 21  2  0  0  0  0
 23 25  1  6  0  0  0
 23 21  1  0  0  0  0
 23 24  1  0  0  0  0
 26  6  1  0  0  0  0
 26 27  1  0  0  0  0
 28 27  1  0  0  0  0
 29 30  1  0  0  0  0
 29 28  1  0  0  0  0
 31 32  1  0  0  0  0
 32 30  1  0  0  0  0
M  END
>  <MODEL>
6

>  <REMARK>
 VINA RESULT:      -6.8      1.543      2.178
  Name = 
  16 active torsions:
  status: ('A' for Active; 'I' for Inactive)
    1  A    between atoms: C_1  and  C_22
    2  A    between atoms: C_1  and  C_24
    3  A    between atoms: C_2  and  C_7
    4  A    between atoms: C_2  and  C_25
    5  A    between atoms: C_6  and  C_9
    6  A    between atoms: C_6  and  C_32
    7  A    between atoms: C_9  and  O_12
    8  A    between atoms: N_10  and  C_20
    9  A    between atoms: O_12  and  C_25
   10  A    between atoms: C_14  and  C_17
   11  A    between atoms: C_14  and  C_19
   12  A    between atoms: C_16  and  O_18
   13  A    between atoms: C_16  and  C_20
   14  A    between atoms: C_16  and  C_32
   15  A    between atoms: C_17  and  C_21
   16  A    between atoms: C_21  and  C_24
                            x       y       z     vdW  Elec       q    Type
                         _______ _______ _______ _____ _____    ______ ____

>  <TORSDO>
F 16

$$$$
=
 OpenBabel10232408143D

 32 33  0  0  1  0  0  0  0  0999 V2000
  189.1250  177.1510  145.4040 C   0  0  0  0  0  2  0  0  0  0  0  0
  188.3120  177.2970  148.3430 C   0  0  0  0  0  3  0  0  0  0  0  0
  185.9130  178.5860  145.7390 C   0  0  0  0  0  3  0  0  0  0  0  0
  187.1620  177.5680  144.1570 N   0  0  0  0  0  0  0  0  0  0  0  0
  187.8490  177.5380  145.3170 C   0  0  0  0  0  0  0  0  0  0  0  0
  186.0180  178.2410  144.4010 C   0  0  0  0  0  0  0  0  0  0  0  0
  190.0000  177.4660  146.5740 C   0  0  0  0  0  2  0  0  0  0  0  0
  189.4690  176.9880  147.8420 N   0  0  0  0  0  0  0  0  0  0  0  0
  187.2510  178.0480  147.6440 C   0  0  0  0  0  2  0  0  0  0  0  0
  187.0780  178.1130  146.3190 C   0  0  0  0  0  0  0  0  0  0  0  0
  187.6200  177.1220  142.8430 C   0  0  0  0  0  2  0  0  0  0  0  0
  188.7990  177.9590  142.3470 C   0  0  2  0  0  3  0  0  0  0  0  0
  187.9120  178.0420  140.3190 C   0  0  0  0  0  1  0  0  0  0  0  0
  188.3270  178.8500  141.3800 O   0  0  0  0  0  0  0  0  0  0  0  0
  189.8450  175.7980  142.3460 O   0  0  0  0  0  1  0  0  0  0  0  0
  189.8900  177.0630  141.7540 C   0  0  2  0  0  3  0  0  0  0  0  0
  191.2750  177.6610  141.9680 C   0  0  0  0  0  2  0  0  0  0  0  0
  192.0740  177.6410  140.6760 C   0  0  0  0  0  2  0  0  0  0  0  0
  191.3060  177.0940  139.6460 O   0  0  0  0  0  0  0  0  0  0  0  0
  192.2400  176.5430  138.7690 C   0  0  0  0  0  2  0  0  0  0  0  0
  191.6050  175.4540  137.9630 C   0  0  0  0  0  0  0  0  0  0  0  0
  190.5020  175.0350  138.2730 O   0  0  0  0  0  0  0  0  0  0  0  0
  192.2970  174.8940  136.7590 C   0  0  2  0  0  3  0  0  0  0  0  0
  192.3160  175.8390  135.7340 O   0  0  0  0  0  1  0  0  0  0  0  0
  191.5970  173.6350  136.2830 C   0  0  0  0  0  1  0  0  0  0  0  0
  184.9670  178.5120  143.3740 C   0  0  0  0  0  2  0  0  0  0  0  0
  183.8920  179.3990  143.9660 C   0  0  0  0  0  2  0  0  0  0  0  0
  182.5660  178.6680  143.9680 C   0  0  0  0  0  2  0  0  0  0  0  0
  181.6150  179.3690  143.0140 C   0  0  0  0  0  2  0  0  0  0  0  0
  181.1450  178.4170  141.9290 C   0  0  0  0  0  2  0  0  0  0  0  0
  182.9060  177.6350  140.3760 C   0  0  0  0  0  1  0  0  0  0  0  0
  181.8670  178.7060  140.6240 C   0  0  0  0  0  2  0  0  0  0  0  0
  1  7  1  0  0  0  0
  3 10  1  0  0  0  0
  4  6  1  0  0  0  0
  4  5  1  0  0  0  0
  5  1  1  0  0  0  0
  5 10  2  0  0  0  0
  6  3  2  0  0  0  0
  7  8  1  0  0  0  0
  8  2  2  0  0  0  0
  9  2  1  0  0  0  0
 10  9  1  0  0  0  0
 11  4  1  0  0  0  0
 12 11  1  6  0  0  0
 13 14  1  0  0  0  0
 14 12  1  0  0  0  0
 16 17  1  0  0  0  0
 16 15  1  1  0  0  0
 16 12  1  0  0  0  0
 18 17  1  0  0  0  0
 19 18  1  0  0  0  0
 20 19  1  0  0  0  0
 21 22  2  0  0  0  0
 21 20  1  0  0  0  0
 23 25  1  6  0  0  0
 23 21  1  0  0  0  0
 24 23  1  0  0  0  0
 26 27  1  0  0  0  0
 26  6  1  0  0  0  0
 27 28  1  0  0  0  0
 29 28  1  0  0  0  0
 30 29  1  0  0  0  0
 31 32  1  0  0  0  0
 32 30  1  0  0  0  0
M  END
>  <MODEL>
7

>  <REMARK>
 VINA RESULT:      -6.7      1.400      2.039
  Name = 
  16 active torsions:
  status: ('A' for Active; 'I' for Inactive)
    1  A    between atoms: C_1  and  C_22
    2  A    between atoms: C_1  and  C_24
    3  A    between atoms: C_2  and  C_7
    4  A    between atoms: C_2  and  C_25
    5  A    between atoms: C_6  and  C_9
    6  A    between atoms: C_6  and  C_32
    7  A    between atoms: C_9  and  O_12
    8  A    between atoms: N_10  and  C_20
    9  A    between atoms: O_12  and  C_25
   10  A    between atoms: C_14  and  C_17
   11  A    between atoms: C_14  and  C_19
   12  A    between atoms: C_16  and  O_18
   13  A    between atoms: C_16  and  C_20
   14  A    between atoms: C_16  and  C_32
   15  A    between atoms: C_17  and  C_21
   16  A    between atoms: C_21  and  C_24
                            x       y       z     vdW  Elec       q    Type
                         _______ _______ _______ _____ _____    ______ ____

>  <TORSDO>
F 16

$$$$
=
 OpenBabel10232408143D

 32 33  0  0  1  0  0  0  0  0999 V2000
  186.7980  178.8170  141.4230 C   0  0  0  0  0  2  0  0  0  0  0  0
  185.0940  178.8900  143.9560 C   0  0  0  0  0  3  0  0  0  0  0  0
  188.0220  176.5200  143.8160 C   0  0  0  0  0  3  0  0  0  0  0  0
  188.7540  177.6150  141.9810 N   0  0  0  0  0  0  0  0  0  0  0  0
  187.5030  178.0420  142.2520 C   0  0  0  0  0  0  0  0  0  0  0  0
  189.0460  176.6660  142.8940 C   0  0  0  0  0  0  0  0  0  0  0  0
  185.3150  178.9800  141.5170 C   0  0  0  0  0  2  0  0  0  0  0  0
  184.8640  179.4620  142.8140 N   0  0  0  0  0  0  0  0  0  0  0  0
  186.0000  177.7440  144.1710 C   0  0  0  0  0  2  0  0  0  0  0  0
  187.0500  177.4200  143.4080 C   0  0  0  0  0  0  0  0  0  0  0  0
  189.5830  177.9690  140.8300 C   0  0  0  0  0  2  0  0  0  0  0  0
  189.3580  177.0080  139.6630 C   0  0  2  0  0  3  0  0  0  0  0  0
  191.5660  176.9830  139.4850 C   0  0  0  0  0  1  0  0  0  0  0  0
  190.4540  176.1440  139.5900 O   0  0  0  0  0  0  0  0  0  0  0  0
  188.9490  179.1270  138.6100 O   0  0  0  0  0  1  0  0  0  0  0  0
  189.2020  177.7780  138.3480 C   0  0  2  0  0  3  0  0  0  0  0  0
  188.0620  177.2140  137.5080 C   0  0  0  0  0  2  0  0  0  0  0  0
  188.5300  176.0090  136.7090 C   0  0  0  0  0  2  0  0  0  0  0  0
  187.4350  175.3510  136.1480 O   0  0  0  0  0  0  0  0  0  0  0  0
  186.7350  174.8410  137.2410 C   0  0  0  0  0  2  0  0  0  0  0  0
  185.3520  174.4510  136.8270 C   0  0  0  0  0  0  0  0  0  0  0  0
  184.3940  174.8350  137.4770 O   0  0  0  0  0  0  0  0  0  0  0  0
  185.1280  173.6200  135.6020 C   0  0  2  0  0  3  0  0  0  0  0  0
  184.1370  174.1930  134.8070 O   0  0  0  0  0  1  0  0  0  0  0  0
  184.7250  172.2080  135.9860 C   0  0  0  0  0  1  0  0  0  0  0  0
  190.3410  175.9210  142.9470 C   0  0  0  0  0  2  0  0  0  0  0  0
  191.4460  176.8510  143.4030 C   0  0  0  0  0  2  0  0  0  0  0  0
  191.0510  177.5240  144.7000 C   0  0  0  0  0  2  0  0  0  0  0  0
  191.5840  176.7050  145.8620 C   0  0  0  0  0  2  0  0  0  0  0  0
  190.5680  176.6470  146.9890 C   0  0  0  0  0  2  0  0  0  0  0  0
  188.3200  177.3930  147.7050 C   0  0  0  0  0  1  0  0  0  0  0  0
  189.4700  177.6710  146.7610 C   0  0  0  0  0  2  0  0  0  0  0  0
  1  7  1  0  0  0  0
  1  5  1  0  0  0  0
  2  9  1  0  0  0  0
  4  5  1  0  0  0  0
  4  6  1  0  0  0  0
  5 10  2  0  0  0  0
  6 26  1  0  0  0  0
  6  3  2  0  0  0  0
  7  8  1  0  0  0  0
  8  2  2  0  0  0  0
 10  3  1  0  0  0  0
 10  9  1  0  0  0  0
 11  4  1  0  0  0  0
 12 11  1  1  0  0  0
 13 14  1  0  0  0  0
 14 12  1  0  0  0  0
 16 15  1  1  0  0  0
 16 12  1  0  0  0  0
 17 16  1  0  0  0  0
 18 17  1  0  0  0  0
 19 18  1  0  0  0  0
 19 20  1  0  0  0  0
 21 20  1  0  0  0  0
 21 22  2  0  0  0  0
 23 25  1  1  0  0  0
 23 21  1  0  0  0  0
 24 23  1  0  0  0  0
 26 27  1  0  0  0  0
 27 28  1  0  0  0  0
 28 29  1  0  0  0  0
 29 30  1  0  0  0  0
 32 30  1  0  0  0  0
 32 31  1  0  0  0  0
M  END
>  <MODEL>
8

>  <REMARK>
 VINA RESULT:      -6.6      3.454      6.408
  Name = 
  16 active torsions:
  status: ('A' for Active; 'I' for Inactive)
    1  A    between atoms: C_1  and  C_22
    2  A    between atoms: C_1  and  C_24
    3  A    between atoms: C_2  and  C_7
    4  A    between atoms: C_2  and  C_25
    5  A    between atoms: C_6  and  C_9
    6  A    between atoms: C_6  and  C_32
    7  A    between atoms: C_9  and  O_12
    8  A    between atoms: N_10  and  C_20
    9  A    between atoms: O_12  and  C_25
   10  A    between atoms: C_14  and  C_17
   11  A    between atoms: C_14  and  C_19
   12  A    between atoms: C_16  and  O_18
   13  A    between atoms: C_16  and  C_20
   14  A    between atoms: C_16  and  C_32
   15  A    between atoms: C_17  and  C_21
   16  A    between atoms: C_21  and  C_24
                            x       y       z     vdW  Elec       q    Type
                         _______ _______ _______ _____ _____    ______ ____

>  <TORSDO>
F 16

$$$$
=
 OpenBabel10232408143D

 32 33  0  0  1  0  0  0  0  0999 V2000
  190.7030  178.2600  142.9530 C   0  0  0  0  0  2  0  0  0  0  0  0
  190.6010  176.7860  145.6250 C   0  0  0  0  0  3  0  0  0  0  0  0
  187.3580  177.6130  143.8940 C   0  0  0  0  0  3  0  0  0  0  0  0
  188.5360  178.0930  142.0280 N   0  0  0  0  0  0  0  0  0  0  0  0
  189.4060  177.9500  143.0480 C   0  0  0  0  0  0  0  0  0  0  0  0
  187.3000  177.9370  142.5480 C   0  0  0  0  0  0  0  0  0  0  0  0
  191.5840  178.4710  144.1420 C   0  0  0  0  0  2  0  0  0  0  0  0
  191.6270  177.3310  145.0450 N   0  0  0  0  0  0  0  0  0  0  0  0
  189.1880  177.1090  145.3440 C   0  0  0  0  0  2  0  0  0  0  0  0
  188.7090  177.6030  144.1980 C   0  0  0  0  0  0  0  0  0  0  0  0
  188.8330  178.5070  140.6580 C   0  0  0  0  0  2  0  0  0  0  0  0
  189.1420  177.3050  139.7660 C   0  0  2  0  0  3  0  0  0  0  0  0
  190.7730  176.1480  138.8130 C   0  0  0  0  0  1  0  0  0  0  0  0
  190.5060  177.0200  139.8720 O   0  0  0  0  0  0  0  0  0  0  0  0
  188.5810  178.9740  138.1340 O   0  0  0  0  0  1  0  0  0  0  0  0
  188.7740  177.6010  138.3080 C   0  0  2  0  0  3  0  0  0  0  0  0
  187.5050  176.8660  137.8970 C   0  0  0  0  0  2  0  0  0  0  0  0
  187.7250  176.0980  136.6040 C   0  0  0  0  0  2  0  0  0  0  0  0
  186.4990  175.7270  136.0510 O   0  0  0  0  0  0  0  0  0  0  0  0
  185.6400  175.6210  137.1440 C   0  0  0  0  0  2  0  0  0  0  0  0
  184.6530  174.5210  136.9140 C   0  0  0  0  0  0  0  0  0  0  0  0
  183.7380  174.6830  136.1240 O   0  0  0  0  0  0  0  0  0  0  0  0
  184.7940  173.2090  137.6210 C   0  0  2  0  0  3  0  0  0  0  0  0
  186.1250  172.9970  137.9770 O   0  0  0  0  0  1  0  0  0  0  0  0
  184.3120  172.0750  136.7360 C   0  0  0  0  0  1  0  0  0  0  0  0
  186.0370  178.0290  141.7550 C   0  0  0  0  0  2  0  0  0  0  0  0
  185.2060  179.1930  142.2520 C   0  0  0  0  0  2  0  0  0  0  0  0
  183.9410  178.6810  142.9070 C   0  0  0  0  0  2  0  0  0  0  0  0
  183.6760  179.4890  144.1640 C   0  0  0  0  0  2  0  0  0  0  0  0
  184.1360  178.7320  145.3970 C   0  0  0  0  0  2  0  0  0  0  0  0
  185.8630  178.5660  147.1620 C   0  0  0  0  0  1  0  0  0  0  0  0
  185.4330  179.3200  145.9230 C   0  0  0  0  0  2  0  0  0  0  0  0
  1  5  1  0  0  0  0
  1  7  1  0  0  0  0
  3 10  1  0  0  0  0
  4  6  1  0  0  0  0
  4  5  1  0  0  0  0
  5 10  2  0  0  0  0
  6  3  2  0  0  0  0
  7  8  1  0  0  0  0
  8  2  2  0  0  0  0
  9  2  1  0  0  0  0
 10  9  1  0  0  0  0
 11  4  1  0  0  0  0
 12 14  1  0  0  0  0
 12 11  1  1  0  0  0
 13 14  1  0  0  0  0
 16 15  1  1  0  0  0
 16 12  1  0  0  0  0
 17 16  1  0  0  0  0
 18 17  1  0  0  0  0
 19 18  1  0  0  0  0
 19 20  1  0  0  0  0
 21 20  1  0  0  0  0
 21 23  1  0  0  0  0
 22 21  2  0  0  0  0
 23 25  1  6  0  0  0
 23 24  1  0  0  0  0
 26 27  1  0  0  0  0
 26  6  1  0  0  0  0
 27 28  1  0  0  0  0
 28 29  1  0  0  0  0
 29 30  1  0  0  0  0
 30 32  1  0  0  0  0
 32 31  1  0  0  0  0
M  END
>  <MODEL>
9

>  <REMARK>
 VINA RESULT:      -6.6      3.419      4.822
  Name = 
  16 active torsions:
  status: ('A' for Active; 'I' for Inactive)
    1  A    between atoms: C_1  and  C_22
    2  A    between atoms: C_1  and  C_24
    3  A    between atoms: C_2  and  C_7
    4  A    between atoms: C_2  and  C_25
    5  A    between atoms: C_6  and  C_9
    6  A    between atoms: C_6  and  C_32
    7  A    between atoms: C_9  and  O_12
    8  A    between atoms: N_10  and  C_20
    9  A    between atoms: O_12  and  C_25
   10  A    between atoms: C_14  and  C_17
   11  A    between atoms: C_14  and  C_19
   12  A    between atoms: C_16  and  O_18
   13  A    between atoms: C_16  and  C_20
   14  A    between atoms: C_16  and  C_32
   15  A    between atoms: C_17  and  C_21
   16  A    between atoms: C_21  and  C_24
                            x       y       z     vdW  Elec       q    Type
                         _______ _______ _______ _____ _____    ______ ____

>  <TORSDO>
F 16

$$$$
