=
 OpenBabel10232408053D

 38 43  0  0  1  0  0  0  0  0999 V2000
  185.0710  178.5110  145.8730 C   0  0  0  0  0  3  0  0  0  0  0  0
  183.4340  179.1450  139.6650 C   0  0  1  0  0  3  0  0  0  0  0  0
  185.9920  178.4990  142.2610 C   0  0  0  0  0  0  0  0  0  0  0  0
  185.2910  178.7060  141.0590 C   0  0  0  0  0  0  0  0  0  0  0  0
  183.9530  178.9720  141.0540 C   0  0  0  0  0  0  0  0  0  0  0  0
  184.7270  179.0060  138.8240 C   0  0  0  0  0  3  0  0  0  0  0  0
  183.8600  178.8950  143.4040 C   0  0  0  0  0  0  0  0  0  0  0  0
  183.1310  178.9960  144.5900 C   0  0  0  0  0  3  0  0  0  0  0  0
  183.2420  179.0810  142.2050 N   0  0  0  0  0  0  0  0  0  0  0  0
  185.8450  178.4010  144.7160 C   0  0  0  0  0  3  0  0  0  0  0  0
  185.2480  178.5920  143.4620 C   0  0  0  0  0  0  0  0  0  0  0  0
  185.8170  178.6940  139.7490 N   0  0  0  0  0  0  0  0  0  0  0  0
  183.7450  178.8030  145.7870 N   0  0  0  0  0  0  0  0  0  0  0  0
  180.0570  177.5960  138.5580 C   0  0  0  0  0  3  0  0  0  0  0  0
  180.9230  175.3980  139.4190 C   0  0  2  0  0  3  0  0  0  0  0  0
  180.7580  174.0610  139.0620 O   0  0  0  0  0  1  0  0  0  0  0  0
  182.6590  176.8970  140.0650 O   0  0  0  0  0  0  0  0  0  0  0  0
  180.0440  176.2540  138.5530 C   0  0  0  0  0  3  0  0  0  0  0  0
  182.3850  175.7880  139.2570 C   0  0  0  0  0  2  0  0  0  0  0  0
  182.4410  178.0340  139.2690 C   0  0  1  0  0  3  0  0  0  0  0  0
  180.9550  178.4440  139.4240 C   0  0  1  0  0  3  0  0  0  0  0  0
  180.1150  180.7210  139.9940 C   0  0  0  0  0  3  0  0  0  0  0  0
  180.7090  179.8580  139.1520 N   0  0  0  0  0  0  0  0  0  0  0  0
  181.0380  180.4920  138.0410 N   0  0  0  0  0  0  0  0  0  0  0  0
  180.0510  181.9470  139.4350 N   0  0  0  0  0  0  0  0  0  0  0  0
  180.8070  182.8390  137.2270 C   0  0  0  0  0  1  0  0  0  0  0  0
  180.6310  181.7590  138.2320 C   0  0  0  0  0  0  0  0  0  0  0  0
  187.4390  178.1890  142.3070 C   0  0  0  0  0  3  0  0  0  0  0  0
  187.9370  176.9880  142.5840 C   0  0  0  0  0  3  0  0  0  0  0  0
  189.4110  176.7750  142.6210 C   0  0  1  0  0  3  0  0  0  0  0  0
  189.9590  176.9860  141.3550 O   0  0  0  0  0  1  0  0  0  0  0  0
  190.4520  178.7950  143.2740 O   0  0  0  0  0  0  0  0  0  0  0  0
  190.0500  177.6930  143.6180 C   0  0  0  0  0  0  0  0  0  0  0  0
  190.2350  177.2430  145.0350 C   0  0  0  0  0  0  0  0  0  0  0  0
  189.7420  178.1440  146.1460 C   0  0  0  0  0  2  0  0  0  0  0  0
  188.9760  176.8730  145.7880 C   0  0  0  0  0  2  0  0  0  0  0  0
  191.3800  176.4060  145.3630 N   0  0  0  0  0  2  0  0  0  0  0  0
  191.9370  176.9050  146.4940 O   0  0  0  0  0  1  0  0  0  0  0  0
  2  6  1  6  0  0  0
  2  5  1  0  0  0  0
  3 28  1  0  0  0  0
  3 11  1  0  0  0  0
  4  3  2  0  0  0  0
  5  4  1  0  0  0  0
  5  9  2  0  0  0  0
  6 12  2  0  0  0  0
  7 11  2  0  0  0  0
  7  8  1  0  0  0  0
  8 13  2  0  0  0  0
  9  7  1  0  0  0  0
 10  1  2  0  0  0  0
 11 10  1  0  0  0  0
 12  4  1  0  0  0  0
 13  1  1  0  0  0  0
 15 16  1  6  0  0  0
 18 14  2  0  0  0  0
 18 15  1  0  0  0  0
 19 15  1  0  0  0  0
 19 17  1  0  0  0  0
 20 21  1  0  0  0  0
 20  2  1  0  0  0  0
 20 17  1  1  0  0  0
 21 14  1  6  0  0  0
 23 21  1  0  0  0  0
 23 22  1  0  0  0  0
 24 27  2  0  0  0  0
 24 23  1  0  0  0  0
 25 22  2  0  0  0  0
 26 27  1  0  0  0  0
 27 25  1  0  0  0  0
 28 29  2  0  0  0  0
 29 30  1  0  0  0  0
 30 31  1  6  0  0  0
 30 33  1  0  0  0  0
 32 33  2  0  0  0  0
 33 34  1  0  0  0  0
 34 37  1  0  0  0  0
 34 36  1  0  0  0  0
 34 35  1  0  0  0  0
 36 35  1  0  0  0  0
 37 38  1  0  0  0  0
M  END
>  <MODEL>
1

>  <REMARK>
 VINA RESULT:      -8.7      0.000      0.000
  Name = 
  7 active torsions:
  status: ('A' for Active; 'I' for Inactive)
    1  A    between atoms: N_5  and  C_37
    2  A    between atoms: C_6  and  N_12
    3  A    between atoms: C_6  and  C_15
    4  A    between atoms: C_7  and  C_16
    5  A    between atoms: C_10  and  C_36
    6  A    between atoms: C_13  and  C_15
    7  A    between atoms: C_13  and  C_26
                            x       y       z     vdW  Elec       q    Type
                         _______ _______ _______ _____ _____    ______ ____

>  <TORSDO>
F 7

$$$$
=
 OpenBabel10232408053D

 38 43  0  0  1  0  0  0  0  0999 V2000
  186.4540  178.7670  141.0450 C   0  0  0  0  0  3  0  0  0  0  0  0
  191.5150  176.6770  137.6320 C   0  0  1  0  0  3  0  0  0  0  0  0
  190.0130  177.6690  140.8660 C   0  0  0  0  0  0  0  0  0  0  0  0
  190.8680  177.2460  139.8320 C   0  0  0  0  0  0  0  0  0  0  0  0
  190.4330  177.1540  138.5430 C   0  0  0  0  0  0  0  0  0  0  0  0
  192.7180  176.5640  138.6020 C   0  0  0  0  0  3  0  0  0  0  0  0
  188.2880  177.9160  139.1410 C   0  0  0  0  0  0  0  0  0  0  0  0
  186.9830  178.2580  138.7850 C   0  0  0  0  0  3  0  0  0  0  0  0
  189.1670  177.4960  138.1900 N   0  0  0  0  0  0  0  0  0  0  0  0
  187.7490  178.4380  141.4520 C   0  0  0  0  0  3  0  0  0  0  0  0
  188.6860  178.0070  140.5030 C   0  0  0  0  0  0  0  0  0  0  0  0
  192.2290  176.8890  139.9420 N   0  0  0  0  0  0  0  0  0  0  0  0
  186.1020  178.6720  139.7340 N   0  0  0  0  0  0  0  0  0  0  0  0
  192.0860  173.5050  135.4770 C   0  0  0  0  0  3  0  0  0  0  0  0
  189.6160  173.0740  135.6770 C   0  0  2  0  0  3  0  0  0  0  0  0
  188.8120  171.9380  135.7330 O   0  0  0  0  0  1  0  0  0  0  0  0
  189.8340  175.1920  136.7470 O   0  0  0  0  0  0  0  0  0  0  0  0
  191.0430  172.6610  135.4570 C   0  0  0  0  0  3  0  0  0  0  0  0
  189.4750  173.8580  136.9740 C   0  0  0  0  0  2  0  0  0  0  0  0
  191.2060  175.2900  137.0330 C   0  0  1  0  0  3  0  0  0  0  0  0
  191.9850  174.9890  135.7280 C   0  0  1  0  0  3  0  0  0  0  0  0
  194.4110  175.0850  136.2920 C   0  0  0  0  0  3  0  0  0  0  0  0
  193.3170  175.5860  135.6940 N   0  0  0  0  0  0  0  0  0  0  0  0
  193.6390  176.7050  135.0690 N   0  0  0  0  0  0  0  0  0  0  0  0
  195.4760  175.8790  136.0590 N   0  0  0  0  0  0  0  0  0  0  0  0
  195.7480  178.0050  134.7740 C   0  0  0  0  0  1  0  0  0  0  0  0
  194.9530  176.8650  135.3010 C   0  0  0  0  0  0  0  0  0  0  0  0
  190.4420  177.7640  142.2800 C   0  0  0  0  0  3  0  0  0  0  0  0
  190.3910  176.7560  143.1450 C   0  0  0  0  0  3  0  0  0  0  0  0
  190.8330  176.9500  144.5540 C   0  0  1  0  0  3  0  0  0  0  0  0
  191.6640  178.0670  144.6470 O   0  0  0  0  0  1  0  0  0  0  0  0
  188.5530  177.3970  144.9950 O   0  0  0  0  0  0  0  0  0  0  0  0
  189.6480  177.1130  145.4580 C   0  0  0  0  0  0  0  0  0  0  0  0
  189.8160  176.9700  146.9400 C   0  0  0  0  0  0  0  0  0  0  0  0
  189.3500  178.1010  147.8290 C   0  0  0  0  0  2  0  0  0  0  0  0
  188.5450  176.8070  147.7420 C   0  0  0  0  0  2  0  0  0  0  0  0
  190.9330  176.1860  147.4480 N   0  0  0  0  0  2  0  0  0  0  0  0
  191.8870  177.0580  147.8570 O   0  0  0  0  0  1  0  0  0  0  0  0
  1 10  1  0  0  0  0
  2  5  1  0  0  0  0
  2  6  1  1  0  0  0
  3 28  1  0  0  0  0
  4 12  1  0  0  0  0
  4  3  2  0  0  0  0
  5  4  1  0  0  0  0
  6 12  2  0  0  0  0
  7 11  1  0  0  0  0
  8  7  2  0  0  0  0
  8 13  1  0  0  0  0
  9  5  2  0  0  0  0
  9  7  1  0  0  0  0
 11  3  1  0  0  0  0
 11 10  2  0  0  0  0
 13  1  2  0  0  0  0
 15 16  1  1  0  0  0
 15 19  1  0  0  0  0
 17 19  1  0  0  0  0
 18 14  2  0  0  0  0
 18 15  1  0  0  0  0
 20 17  1  6  0  0  0
 20  2  1  0  0  0  0
 21 14  1  1  0  0  0
 21 20  1  0  0  0  0
 23 21  1  0  0  0  0
 23 22  1  0  0  0  0
 24 27  2  0  0  0  0
 24 23  1  0  0  0  0
 25 22  2  0  0  0  0
 26 27  1  0  0  0  0
 27 25  1  0  0  0  0
 28 29  2  0  0  0  0
 29 30  1  0  0  0  0
 30 31  1  6  0  0  0
 30 33  1  0  0  0  0
 32 33  2  0  0  0  0
 33 34  1  0  0  0  0
 34 37  1  0  0  0  0
 34 36  1  0  0  0  0
 34 35  1  0  0  0  0
 36 35  1  0  0  0  0
 37 38  1  0  0  0  0
M  END
>  <MODEL>
2

>  <REMARK>
 VINA RESULT:      -7.9      5.471      8.666
  Name = 
  7 active torsions:
  status: ('A' for Active; 'I' for Inactive)
    1  A    between atoms: N_5  and  C_37
    2  A    between atoms: C_6  and  N_12
    3  A    between atoms: C_6  and  C_15
    4  A    between atoms: C_7  and  C_16
    5  A    between atoms: C_10  and  C_36
    6  A    between atoms: C_13  and  C_15
    7  A    between atoms: C_13  and  C_26
                            x       y       z     vdW  Elec       q    Type
                         _______ _______ _______ _____ _____    ______ ____

>  <TORSDO>
F 7

$$$$
=
 OpenBabel10232408053D

 38 43  0  0  1  0  0  0  0  0999 V2000
  188.1970  178.5660  140.0730 C   0  0  0  0  0  3  0  0  0  0  0  0
  181.7620  178.2680  139.7340 C   0  0  1  0  0  3  0  0  0  0  0  0
  184.8500  178.8310  141.6930 C   0  0  0  0  0  0  0  0  0  0  0  0
  183.5220  178.6770  141.2550 C   0  0  0  0  0  0  0  0  0  0  0  0
  183.2330  178.3710  139.9580 C   0  0  0  0  0  0  0  0  0  0  0  0
  181.2070  178.4990  141.1620 C   0  0  0  0  0  3  0  0  0  0  0  0
  185.5180  178.2980  139.3960 C   0  0  0  0  0  0  0  0  0  0  0  0
  186.5250  178.1010  138.4500 C   0  0  0  0  0  3  0  0  0  0  0  0
  184.2110  178.1680  139.0380 N   0  0  0  0  0  0  0  0  0  0  0  0
  187.2270  178.7720  141.0560 C   0  0  0  0  0  3  0  0  0  0  0  0
  185.8700  178.6400  140.7300 C   0  0  0  0  0  0  0  0  0  0  0  0
  182.3480  178.7860  142.0310 N   0  0  0  0  0  0  0  0  0  0  0  0
  187.8300  178.2390  138.8050 N   0  0  0  0  0  0  0  0  0  0  0  0
  180.3630  179.8090  136.4630 C   0  0  0  0  0  3  0  0  0  0  0  0
  181.1180  182.0420  137.3380 C   0  0  2  0  0  3  0  0  0  0  0  0
  180.6610  183.3540  137.2260 O   0  0  0  0  0  1  0  0  0  0  0  0
  181.9610  180.5550  138.9960 O   0  0  0  0  0  0  0  0  0  0  0  0
  180.2650  181.1470  136.4850 C   0  0  0  0  0  3  0  0  0  0  0  0
  181.0650  181.6110  138.7960 C   0  0  0  0  0  2  0  0  0  0  0  0
  181.2340  179.3690  138.7930 C   0  0  1  0  0  3  0  0  0  0  0  0
  181.3340  179.0040  137.2900 C   0  0  1  0  0  3  0  0  0  0  0  0
  179.9820  176.9170  137.1150 C   0  0  0  0  0  3  0  0  0  0  0  0
  181.1470  177.5810  137.0240 N   0  0  0  0  0  0  0  0  0  0  0  0
  182.0970  176.7410  136.6520 N   0  0  0  0  0  0  0  0  0  0  0  0
  180.1590  175.6180  136.7970 N   0  0  0  0  0  0  0  0  0  0  0  0
  182.1700  174.3080  136.1030 C   0  0  0  0  0  1  0  0  0  0  0  0
  181.4770  175.5550  136.5190 C   0  0  0  0  0  0  0  0  0  0  0  0
  185.2030  179.1820  143.0880 C   0  0  0  0  0  3  0  0  0  0  0  0
  185.2390  178.3110  144.0910 C   0  0  0  0  0  3  0  0  0  0  0  0
  185.5920  178.7600  145.4670 C   0  0  1  0  0  3  0  0  0  0  0  0
  184.4930  178.6210  146.3140 O   0  0  0  0  0  1  0  0  0  0  0  0
  186.8990  177.8190  147.1990 O   0  0  0  0  0  0  0  0  0  0  0  0
  186.7530  177.9720  145.9950 C   0  0  0  0  0  0  0  0  0  0  0  0
  187.7620  177.4030  145.0440 C   0  0  0  0  0  0  0  0  0  0  0  0
  188.9460  178.2600  144.6540 C   0  0  0  0  0  2  0  0  0  0  0  0
  189.1240  177.0930  145.6240 C   0  0  0  0  0  2  0  0  0  0  0  0
  187.3200  176.4430  144.0430 N   0  0  0  0  0  2  0  0  0  0  0  0
  188.3970  176.1260  143.2830 O   0  0  0  0  0  1  0  0  0  0  0  0
  1 10  1  0  0  0  0
  2  5  1  0  0  0  0
  2  6  1  1  0  0  0
  3 28  1  0  0  0  0
  4  3  2  0  0  0  0
  4 12  1  0  0  0  0
  5  4  1  0  0  0  0
  6 12  2  0  0  0  0
  7 11  1  0  0  0  0
  8 13  1  0  0  0  0
  8  7  2  0  0  0  0
  9  7  1  0  0  0  0
  9  5  2  0  0  0  0
 11 10  2  0  0  0  0
 11  3  1  0  0  0  0
 13  1  2  0  0  0  0
 14 18  2  0  0  0  0
 15 16  1  1  0  0  0
 15 19  1  0  0  0  0
 18 15  1  0  0  0  0
 19 17  1  0  0  0  0
 20 17  1  6  0  0  0
 20  2  1  0  0  0  0
 21 14  1  6  0  0  0
 21 20  1  0  0  0  0
 23 22  1  0  0  0  0
 23 21  1  0  0  0  0
 24 23  1  0  0  0  0
 25 22  2  0  0  0  0
 26 27  1  0  0  0  0
 27 24  2  0  0  0  0
 27 25  1  0  0  0  0
 28 29  2  0  0  0  0
 29 30  1  0  0  0  0
 30 33  1  0  0  0  0
 30 31  1  1  0  0  0
 33 32  2  0  0  0  0
 34 36  1  0  0  0  0
 34 33  1  0  0  0  0
 35 34  1  0  0  0  0
 35 36  1  0  0  0  0
 37 34  1  0  0  0  0
 38 37  1  0  0  0  0
M  END
>  <MODEL>
3

>  <REMARK>
 VINA RESULT:      -7.7      2.777      4.887
  Name = 
  7 active torsions:
  status: ('A' for Active; 'I' for Inactive)
    1  A    between atoms: N_5  and  C_37
    2  A    between atoms: C_6  and  N_12
    3  A    between atoms: C_6  and  C_15
    4  A    between atoms: C_7  and  C_16
    5  A    between atoms: C_10  and  C_36
    6  A    between atoms: C_13  and  C_15
    7  A    between atoms: C_13  and  C_26
                            x       y       z     vdW  Elec       q    Type
                         _______ _______ _______ _____ _____    ______ ____

>  <TORSDO>
F 7

$$$$
=
 OpenBabel10232408053D

 38 43  0  0  1  0  0  0  0  0999 V2000
  182.9080  178.8000  144.7410 C   0  0  0  0  0  3  0  0  0  0  0  0
  183.7300  178.6580  138.3440 C   0  0  1  0  0  3  0  0  0  0  0  0
  185.1430  178.5990  141.7640 C   0  0  0  0  0  0  0  0  0  0  0  0
  184.9410  178.6020  140.3720 C   0  0  0  0  0  0  0  0  0  0  0  0
  183.6900  178.6800  139.8360 C   0  0  0  0  0  0  0  0  0  0  0  0
  185.2540  178.6250  138.0690 C   0  0  0  0  0  3  0  0  0  0  0  0
  182.7090  178.7970  141.9720 C   0  0  0  0  0  0  0  0  0  0  0  0
  181.5740  178.9000  142.7770 C   0  0  0  0  0  3  0  0  0  0  0  0
  182.5840  178.7910  140.6160 N   0  0  0  0  0  0  0  0  0  0  0  0
  184.0740  178.6960  143.9790 C   0  0  0  0  0  3  0  0  0  0  0  0
  183.9900  178.6930  142.5800 C   0  0  0  0  0  0  0  0  0  0  0  0
  185.9290  178.5480  139.3650 N   0  0  0  0  0  0  0  0  0  0  0  0
  181.6970  178.8980  144.1310 N   0  0  0  0  0  0  0  0  0  0  0  0
  181.0300  176.5320  136.5500 C   0  0  0  0  0  3  0  0  0  0  0  0
  182.0840  174.5150  137.6190 C   0  0  2  0  0  3  0  0  0  0  0  0
  182.2550  173.1790  137.2580 O   0  0  0  0  0  1  0  0  0  0  0  0
  183.3230  176.2960  138.6030 O   0  0  0  0  0  0  0  0  0  0  0  0
  181.2710  175.2120  136.5670 C   0  0  0  0  0  3  0  0  0  0  0  0
  183.4460  175.1750  137.7750 C   0  0  0  0  0  2  0  0  0  0  0  0
  183.0750  177.3910  137.7590 C   0  0  1  0  0  3  0  0  0  0  0  0
  181.5410  177.5120  137.5770 C   0  0  1  0  0  3  0  0  0  0  0  0
  180.5010  179.7220  138.0730 C   0  0  0  0  0  3  0  0  0  0  0  0
  181.1000  178.8610  137.2330 N   0  0  0  0  0  0  0  0  0  0  0  0
  181.2270  179.4290  136.0470 N   0  0  0  0  0  0  0  0  0  0  0  0
  180.2290  180.8810  137.4380 N   0  0  0  0  0  0  0  0  0  0  0  0
  180.6300  181.6570  135.0960 C   0  0  0  0  0  1  0  0  0  0  0  0
  180.6950  180.6550  136.1920 C   0  0  0  0  0  0  0  0  0  0  0  0
  186.4840  178.4960  142.3840 C   0  0  0  0  0  3  0  0  0  0  0  0
  186.7940  177.6440  143.3560 C   0  0  0  0  0  3  0  0  0  0  0  0
  188.1690  177.6230  143.9290 C   0  0  1  0  0  3  0  0  0  0  0  0
  188.1260  177.2250  145.2650 O   0  0  0  0  0  1  0  0  0  0  0  0
  188.7080  175.5420  142.9420 O   0  0  0  0  0  0  0  0  0  0  0  0
  189.0500  176.6980  143.1440 C   0  0  0  0  0  0  0  0  0  0  0  0
  190.3760  177.1810  142.6400 C   0  0  0  0  0  0  0  0  0  0  0  0
  191.0480  178.3250  143.3650 C   0  0  0  0  0  2  0  0  0  0  0  0
  191.5690  176.8990  143.5240 C   0  0  0  0  0  2  0  0  0  0  0  0
  190.6650  177.0780  141.2160 N   0  0  0  0  0  2  0  0  0  0  0  0
  189.6720  177.7200  140.5530 O   0  0  0  0  0  1  0  0  0  0  0  0
  2  6  1  1  0  0  0
  2  5  1  0  0  0  0
  3 28  1  0  0  0  0
  3 11  1  0  0  0  0
  4  3  2  0  0  0  0
  5  4  1  0  0  0  0
  5  9  2  0  0  0  0
  6 12  2  0  0  0  0
  7 11  2  0  0  0  0
  7  8  1  0  0  0  0
  8 13  2  0  0  0  0
  9  7  1  0  0  0  0
 10  1  2  0  0  0  0
 11 10  1  0  0  0  0
 12  4  1  0  0  0  0
 13  1  1  0  0  0  0
 14 18  2  0  0  0  0
 15 16  1  6  0  0  0
 15 19  1  0  0  0  0
 18 15  1  0  0  0  0
 19 17  1  0  0  0  0
 20  2  1  0  0  0  0
 20 17  1  1  0  0  0
 21 14  1  6  0  0  0
 21 20  1  0  0  0  0
 23 21  1  0  0  0  0
 23 22  1  0  0  0  0
 24 27  2  0  0  0  0
 24 23  1  0  0  0  0
 25 22  2  0  0  0  0
 26 27  1  0  0  0  0
 27 25  1  0  0  0  0
 28 29  2  0  0  0  0
 29 30  1  0  0  0  0
 30 31  1  1  0  0  0
 32 33  2  0  0  0  0
 33 30  1  0  0  0  0
 34 33  1  0  0  0  0
 34 35  1  0  0  0  0
 34 36  1  0  0  0  0
 35 36  1  0  0  0  0
 37 34  1  0  0  0  0
 38 37  1  0  0  0  0
M  END
>  <MODEL>
4

>  <REMARK>
 VINA RESULT:      -7.7      1.968      2.492
  Name = 
  7 active torsions:
  status: ('A' for Active; 'I' for Inactive)
    1  A    between atoms: N_5  and  C_37
    2  A    between atoms: C_6  and  N_12
    3  A    between atoms: C_6  and  C_15
    4  A    between atoms: C_7  and  C_16
    5  A    between atoms: C_10  and  C_36
    6  A    between atoms: C_13  and  C_15
    7  A    between atoms: C_13  and  C_26
                            x       y       z     vdW  Elec       q    Type
                         _______ _______ _______ _____ _____    ______ ____

>  <TORSDO>
F 7

$$$$
=
 OpenBabel10232408053D

 38 43  0  0  1  0  0  0  0  0999 V2000
  186.0590  178.0480  137.7120 C   0  0  0  0  0  3  0  0  0  0  0  0
  192.2430  176.4460  136.8110 C   0  0  1  0  0  3  0  0  0  0  0  0
  189.4600  177.3600  139.0740 C   0  0  0  0  0  0  0  0  0  0  0  0
  190.7000  177.0060  138.5110 C   0  0  0  0  0  0  0  0  0  0  0  0
  190.8430  176.8240  137.1670 C   0  0  0  0  0  0  0  0  0  0  0  0
  192.9460  176.5030  138.1900 C   0  0  0  0  0  3  0  0  0  0  0  0
  188.5820  177.3530  136.7850 C   0  0  0  0  0  0  0  0  0  0  0  0
  187.5140  177.5320  135.9060 C   0  0  0  0  0  3  0  0  0  0  0  0
  189.8090  177.0070  136.3070 N   0  0  0  0  0  0  0  0  0  0  0  0
  187.0950  177.8820  138.6330 C   0  0  0  0  0  3  0  0  0  0  0  0
  188.3750  177.5310  138.1800 C   0  0  0  0  0  0  0  0  0  0  0  0
  191.9220  176.8110  139.1890 N   0  0  0  0  0  0  0  0  0  0  0  0
  186.2860  177.8710  136.3830 N   0  0  0  0  0  0  0  0  0  0  0  0
  193.7830  173.4580  134.8790 C   0  0  0  0  0  3  0  0  0  0  0  0
  191.4750  172.4630  134.8230 C   0  0  2  0  0  3  0  0  0  0  0  0
  190.9540  171.1710  134.8410 O   0  0  0  0  0  1  0  0  0  0  0  0
  191.0680  174.5920  135.8130 O   0  0  0  0  0  0  0  0  0  0  0  0
  192.9740  172.3920  134.7820 C   0  0  0  0  0  3  0  0  0  0  0  0
  191.0030  173.2150  136.0590 C   0  0  0  0  0  2  0  0  0  0  0  0
  192.3360  175.0150  136.2450 C   0  0  1  0  0  3  0  0  0  0  0  0
  193.3130  174.8810  135.0500 C   0  0  1  0  0  3  0  0  0  0  0  0
  195.6330  175.4820  135.7350 C   0  0  0  0  0  3  0  0  0  0  0  0
  194.4650  175.7740  135.1370 N   0  0  0  0  0  0  0  0  0  0  0  0
  194.5260  176.9960  134.6400 N   0  0  0  0  0  0  0  0  0  0  0  0
  196.4840  176.5240  135.6310 N   0  0  0  0  0  0  0  0  0  0  0  0
  196.2720  178.7780  134.5720 C   0  0  0  0  0  1  0  0  0  0  0  0
  195.7590  177.4350  134.9480 C   0  0  0  0  0  0  0  0  0  0  0  0
  189.2600  177.5480  140.5290 C   0  0  0  0  0  3  0  0  0  0  0  0
  189.1990  176.5530  141.4080 C   0  0  0  0  0  3  0  0  0  0  0  0
  188.9810  176.8390  142.8540 C   0  0  1  0  0  3  0  0  0  0  0  0
  187.9390  176.0530  143.3470 O   0  0  0  0  0  1  0  0  0  0  0  0
  190.9110  175.5890  143.4080 O   0  0  0  0  0  0  0  0  0  0  0  0
  190.2340  176.5810  143.6350 C   0  0  0  0  0  0  0  0  0  0  0  0
  190.6370  177.5220  144.7300 C   0  0  0  0  0  0  0  0  0  0  0  0
  189.6060  177.9000  145.7700 C   0  0  0  0  0  2  0  0  0  0  0  0
  190.7330  176.9290  146.1180 C   0  0  0  0  0  2  0  0  0  0  0  0
  191.6520  178.5280  144.4520 N   0  0  0  0  0  2  0  0  0  0  0  0
  191.0280  179.5830  143.8710 O   0  0  0  0  0  1  0  0  0  0  0  0
  1 10  1  0  0  0  0
  2  5  1  0  0  0  0
  2  6  1  1  0  0  0
  3 28  1  0  0  0  0
  4  3  2  0  0  0  0
  4 12  1  0  0  0  0
  5  4  1  0  0  0  0
  6 12  2  0  0  0  0
  7 11  1  0  0  0  0
  8 13  1  0  0  0  0
  8  7  2  0  0  0  0
  9  7  1  0  0  0  0
  9  5  2  0  0  0  0
 11 10  2  0  0  0  0
 11  3  1  0  0  0  0
 13  1  2  0  0  0  0
 15 16  1  1  0  0  0
 15 19  1  0  0  0  0
 17 19  1  0  0  0  0
 18 15  1  0  0  0  0
 18 14  2  0  0  0  0
 20 17  1  6  0  0  0
 20  2  1  0  0  0  0
 21 14  1  1  0  0  0
 21 23  1  0  0  0  0
 21 20  1  0  0  0  0
 23 22  1  0  0  0  0
 24 27  2  0  0  0  0
 24 23  1  0  0  0  0
 25 22  2  0  0  0  0
 26 27  1  0  0  0  0
 27 25  1  0  0  0  0
 28 29  2  0  0  0  0
 29 30  1  0  0  0  0
 30 31  1  1  0  0  0
 30 33  1  0  0  0  0
 32 33  2  0  0  0  0
 33 34  1  0  0  0  0
 34 35  1  0  0  0  0
 34 36  1  0  0  0  0
 35 36  1  0  0  0  0
 37 34  1  0  0  0  0
 38 37  1  0  0  0  0
M  END
>  <MODEL>
5

>  <REMARK>
 VINA RESULT:      -7.4      6.326      9.737
  Name = 
  7 active torsions:
  status: ('A' for Active; 'I' for Inactive)
    1  A    between atoms: N_5  and  C_37
    2  A    between atoms: C_6  and  N_12
    3  A    between atoms: C_6  and  C_15
    4  A    between atoms: C_7  and  C_16
    5  A    between atoms: C_10  and  C_36
    6  A    between atoms: C_13  and  C_15
    7  A    between atoms: C_13  and  C_26
                            x       y       z     vdW  Elec       q    Type
                         _______ _______ _______ _____ _____    ______ ____

>  <TORSDO>
F 7

$$$$
=
 OpenBabel10232408053D

 38 43  0  0  1  0  0  0  0  0999 V2000
  185.0800  178.5210  145.8810 C   0  0  0  0  0  3  0  0  0  0  0  0
  183.4410  179.0710  139.6660 C   0  0  1  0  0  3  0  0  0  0  0  0
  186.0010  178.4670  142.2700 C   0  0  0  0  0  0  0  0  0  0  0  0
  185.2990  178.6570  141.0650 C   0  0  0  0  0  0  0  0  0  0  0  0
  183.9610  178.9170  141.0560 C   0  0  0  0  0  0  0  0  0  0  0  0
  184.7350  178.9260  138.8270 C   0  0  0  0  0  3  0  0  0  0  0  0
  183.8680  178.8700  143.4080 C   0  0  0  0  0  0  0  0  0  0  0  0
  183.1380  178.9830  144.5920 C   0  0  0  0  0  3  0  0  0  0  0  0
  183.2490  179.0390  142.2070 N   0  0  0  0  0  0  0  0  0  0  0  0
  185.8540  178.3990  144.7250 C   0  0  0  0  0  3  0  0  0  0  0  0
  185.2560  178.5730  143.4690 C   0  0  0  0  0  0  0  0  0  0  0  0
  185.8250  178.6310  139.7560 N   0  0  0  0  0  0  0  0  0  0  0  0
  183.7530  178.8070  145.7920 N   0  0  0  0  0  0  0  0  0  0  0  0
  180.0830  177.5000  138.5310 C   0  0  0  0  0  3  0  0  0  0  0  0
  180.9190  175.3280  139.4850 C   0  0  2  0  0  3  0  0  0  0  0  0
  180.7550  173.9810  139.1690 O   0  0  0  0  0  1  0  0  0  0  0  0
  182.6460  176.8410  140.1220 O   0  0  0  0  0  0  0  0  0  0  0  0
  180.0640  176.1580  138.5710 C   0  0  0  0  0  3  0  0  0  0  0  0
  182.3860  175.7060  139.3450 C   0  0  0  0  0  2  0  0  0  0  0  0
  182.4520  177.9520  139.2830 C   0  0  1  0  0  3  0  0  0  0  0  0
  180.9650  178.3730  139.3890 C   0  0  1  0  0  3  0  0  0  0  0  0
  180.2290  180.6980  139.9050 C   0  0  0  0  0  3  0  0  0  0  0  0
  180.7320  179.7770  139.0650 N   0  0  0  0  0  0  0  0  0  0  0  0
  180.9860  180.3460  137.9000 N   0  0  0  0  0  0  0  0  0  0  0  0
  180.1490  181.8960  139.2900 N   0  0  0  0  0  0  0  0  0  0  0  0
  180.7470  182.6550  136.9860 C   0  0  0  0  0  1  0  0  0  0  0  0
  180.6270  181.6320  138.0560 C   0  0  0  0  0  0  0  0  0  0  0  0
  187.4500  178.1640  142.3190 C   0  0  0  0  0  3  0  0  0  0  0  0
  188.3270  178.5590  141.4020 C   0  0  0  0  0  3  0  0  0  0  0  0
  189.7650  178.1930  141.5290 C   0  0  1  0  0  3  0  0  0  0  0  0
  190.0770  177.9250  142.8620 O   0  0  0  0  0  1  0  0  0  0  0  0
  189.9260  175.8700  141.1140 O   0  0  0  0  0  0  0  0  0  0  0  0
  190.0800  177.0010  140.6770 C   0  0  0  0  0  0  0  0  0  0  0  0
  190.6280  177.1960  139.2960 C   0  0  0  0  0  0  0  0  0  0  0  0
  192.1280  177.2880  139.1230 C   0  0  0  0  0  2  0  0  0  0  0  0
  191.3800  176.0250  138.7040 C   0  0  0  0  0  2  0  0  0  0  0  0
  189.8340  177.9330  138.3230 N   0  0  0  0  0  2  0  0  0  0  0  0
  189.2030  177.0220  137.5420 O   0  0  0  0  0  1  0  0  0  0  0  0
  2  6  1  6  0  0  0
  2  5  1  0  0  0  0
  3 28  1  0  0  0  0
  3 11  1  0  0  0  0
  4  3  2  0  0  0  0
  5  4  1  0  0  0  0
  5  9  2  0  0  0  0
  6 12  2  0  0  0  0
  7 11  2  0  0  0  0
  7  8  1  0  0  0  0
  8 13  2  0  0  0  0
  9  7  1  0  0  0  0
 10  1  2  0  0  0  0
 11 10  1  0  0  0  0
 12  4  1  0  0  0  0
 13  1  1  0  0  0  0
 14 18  2  0  0  0  0
 15 16  1  6  0  0  0
 18 15  1  0  0  0  0
 19 15  1  0  0  0  0
 19 17  1  0  0  0  0
 20 21  1  0  0  0  0
 20  2  1  0  0  0  0
 20 17  1  1  0  0  0
 21 14  1  6  0  0  0
 23 21  1  0  0  0  0
 23 22  1  0  0  0  0
 24 27  2  0  0  0  0
 24 23  1  0  0  0  0
 25 22  2  0  0  0  0
 26 27  1  0  0  0  0
 27 25  1  0  0  0  0
 29 30  1  0  0  0  0
 29 28  2  0  0  0  0
 30 31  1  1  0  0  0
 33 32  2  0  0  0  0
 33 30  1  0  0  0  0
 34 33  1  0  0  0  0
 35 34  1  0  0  0  0
 36 35  1  0  0  0  0
 36 34  1  0  0  0  0
 37 34  1  0  0  0  0
 38 37  1  0  0  0  0
M  END
>  <MODEL>
6

>  <REMARK>
 VINA RESULT:      -7.2      1.837      2.906
  Name = 
  7 active torsions:
  status: ('A' for Active; 'I' for Inactive)
    1  A    between atoms: N_5  and  C_37
    2  A    between atoms: C_6  and  N_12
    3  A    between atoms: C_6  and  C_15
    4  A    between atoms: C_7  and  C_16
    5  A    between atoms: C_10  and  C_36
    6  A    between atoms: C_13  and  C_15
    7  A    between atoms: C_13  and  C_26
                            x       y       z     vdW  Elec       q    Type
                         _______ _______ _______ _____ _____    ______ ____

>  <TORSDO>
F 7

$$$$
=
 OpenBabel10232408053D

 38 43  0  0  1  0  0  0  0  0999 V2000
  185.3760  172.9640  136.2820 C   0  0  0  0  0  3  0  0  0  0  0  0
  189.4210  177.7680  137.7580 C   0  0  1  0  0  3  0  0  0  0  0  0
  186.0820  176.6040  136.6640 C   0  0  0  0  0  0  0  0  0  0  0  0
  187.2070  177.3610  137.0430 C   0  0  0  0  0  0  0  0  0  0  0  0
  188.3820  176.7630  137.3890 C   0  0  0  0  0  0  0  0  0  0  0  0
  188.6770  179.1020  137.5000 C   0  0  0  0  0  3  0  0  0  0  0  0
  187.4860  174.6220  136.9960 C   0  0  0  0  0  0  0  0  0  0  0  0
  187.6340  173.2350  136.9700 C   0  0  0  0  0  3  0  0  0  0  0  0
  188.5330  175.4140  137.3550 N   0  0  0  0  0  0  0  0  0  0  0  0
  185.1770  174.3470  136.2910 C   0  0  0  0  0  3  0  0  0  0  0  0
  186.2330  175.1970  136.6490 C   0  0  0  0  0  0  0  0  0  0  0  0
  187.3090  178.7680  137.1040 N   0  0  0  0  0  0  0  0  0  0  0  0
  186.5860  172.4430  136.6180 N   0  0  0  0  0  0  0  0  0  0  0  0
  191.6280  176.8980  140.8250 C   0  0  0  0  0  3  0  0  0  0  0  0
  189.5510  177.1150  142.2260 C   0  0  2  0  0  3  0  0  0  0  0  0
  189.2750  177.5270  143.5280 O   0  0  0  0  0  1  0  0  0  0  0  0
  188.6870  177.3810  140.0220 O   0  0  0  0  0  0  0  0  0  0  0  0
  191.0370  177.1250  142.0080 C   0  0  0  0  0  3  0  0  0  0  0  0
  188.8540  178.0440  141.2430 C   0  0  0  0  0  2  0  0  0  0  0  0
  189.8190  177.6800  139.2450 C   0  0  1  0  0  3  0  0  0  0  0  0
  190.8940  176.6050  139.5400 C   0  0  1  0  0  3  0  0  0  0  0  0
  193.1050  176.9190  138.4320 C   0  0  0  0  0  3  0  0  0  0  0  0
  191.8540  176.4290  138.4540 N   0  0  0  0  0  0  0  0  0  0  0  0
  191.6310  175.7600  137.3360 N   0  0  0  0  0  0  0  0  0  0  0  0
  193.7230  176.5700  137.2850 N   0  0  0  0  0  0  0  0  0  0  0  0
  192.9830  175.2360  135.3060 C   0  0  0  0  0  1  0  0  0  0  0  0
  192.7770  175.8550  136.6410 C   0  0  0  0  0  0  0  0  0  0  0  0
  184.7840  177.2170  136.3000 C   0  0  0  0  0  3  0  0  0  0  0  0
  183.7930  177.4310  137.1590 C   0  0  0  0  0  3  0  0  0  0  0  0
  182.5150  178.0410  136.6960 C   0  0  1  0  0  3  0  0  0  0  0  0
  181.7860  177.1180  135.9460 O   0  0  0  0  0  1  0  0  0  0  0  0
  180.4830  178.4310  137.8430 O   0  0  0  0  0  0  0  0  0  0  0  0
  181.7030  178.5100  137.8660 C   0  0  0  0  0  0  0  0  0  0  0  0
  182.3870  179.1170  139.0530 C   0  0  0  0  0  0  0  0  0  0  0  0
  181.6760  179.0840  140.3880 C   0  0  0  0  0  2  0  0  0  0  0  0
  182.8570  178.1530  140.1190 C   0  0  0  0  0  2  0  0  0  0  0  0
  183.2870  180.2430  138.8450 N   0  0  0  0  0  2  0  0  0  0  0  0
  184.4820  179.9140  139.3950 O   0  0  0  0  0  1  0  0  0  0  0  0
  1 10  2  0  0  0  0
  1 13  1  0  0  0  0
  2  6  1  1  0  0  0
  2 20  1  0  0  0  0
  3  4  1  0  0  0  0
  4 12  1  0  0  0  0
  4  5  2  0  0  0  0
  5  2  1  0  0  0  0
  7  9  2  0  0  0  0
  8  7  1  0  0  0  0
  9  5  1  0  0  0  0
 10 11  1  0  0  0  0
 11  3  2  0  0  0  0
 11  7  1  0  0  0  0
 12  6  2  0  0  0  0
 13  8  2  0  0  0  0
 14 18  2  0  0  0  0
 15 16  1  1  0  0  0
 17 19  1  0  0  0  0
 18 15  1  0  0  0  0
 19 15  1  0  0  0  0
 20 21  1  0  0  0  0
 20 17  1  1  0  0  0
 21 23  1  6  0  0  0
 21 14  1  0  0  0  0
 22 23  1  0  0  0  0
 24 23  1  0  0  0  0
 25 22  2  0  0  0  0
 26 27  1  0  0  0  0
 27 25  1  0  0  0  0
 27 24  2  0  0  0  0
 28  3  1  0  0  0  0
 28 29  2  0  0  0  0
 30 31  1  1  0  0  0
 30 29  1  0  0  0  0
 30 33  1  0  0  0  0
 32 33  2  0  0  0  0
 33 34  1  0  0  0  0
 34 36  1  0  0  0  0
 34 35  1  0  0  0  0
 36 35  1  0  0  0  0
 37 34  1  0  0  0  0
 37 38  1  0  0  0  0
M  END
>  <MODEL>
7

>  <REMARK>
 VINA RESULT:      -6.4      4.406      9.741
  Name = 
  7 active torsions:
  status: ('A' for Active; 'I' for Inactive)
    1  A    between atoms: N_5  and  C_37
    2  A    between atoms: C_6  and  N_12
    3  A    between atoms: C_6  and  C_15
    4  A    between atoms: C_7  and  C_16
    5  A    between atoms: C_10  and  C_36
    6  A    between atoms: C_13  and  C_15
    7  A    between atoms: C_13  and  C_26
                            x       y       z     vdW  Elec       q    Type
                         _______ _______ _______ _____ _____    ______ ____

>  <TORSDO>
F 7

$$$$
=
 OpenBabel10232408053D

 38 43  0  0  1  0  0  0  0  0999 V2000
  191.0640  177.1230  140.8510 C   0  0  0  0  0  3  0  0  0  0  0  0
  186.1280  177.6930  136.7350 C   0  0  1  0  0  3  0  0  0  0  0  0
  189.7330  177.1410  137.3690 C   0  0  0  0  0  0  0  0  0  0  0  0
  188.4610  177.3220  136.7950 C   0  0  0  0  0  0  0  0  0  0  0  0
  187.3580  177.5390  137.5670 C   0  0  0  0  0  0  0  0  0  0  0  0
  186.7040  177.6000  135.3000 C   0  0  0  0  0  3  0  0  0  0  0  0
  188.6400  177.4610  139.5390 C   0  0  0  0  0  0  0  0  0  0  0  0
  188.7250  177.5360  140.9300 C   0  0  0  0  0  3  0  0  0  0  0  0
  187.4390  177.6240  138.9200 N   0  0  0  0  0  0  0  0  0  0  0  0
  191.0310  177.0390  139.4570 C   0  0  0  0  0  3  0  0  0  0  0  0
  189.8150  177.2080  138.7810 C   0  0  0  0  0  0  0  0  0  0  0  0
  188.1360  177.3290  135.4220 N   0  0  0  0  0  0  0  0  0  0  0  0
  189.9230  177.3660  141.5500 N   0  0  0  0  0  0  0  0  0  0  0  0
  182.9640  175.9340  138.1210 C   0  0  0  0  0  3  0  0  0  0  0  0
  184.1040  173.7510  137.6130 C   0  0  2  0  0  3  0  0  0  0  0  0
  183.6820  172.4820  137.2210 O   0  0  0  0  0  1  0  0  0  0  0  0
  185.8120  175.3300  137.0960 O   0  0  0  0  0  0  0  0  0  0  0  0
  182.9030  174.6200  137.8510 C   0  0  0  0  0  3  0  0  0  0  0  0
  184.9950  174.3440  136.5310 C   0  0  0  0  0  2  0  0  0  0  0  0
  185.1220  176.5460  136.9610 C   0  0  1  0  0  3  0  0  0  0  0  0
  184.2390  176.7330  138.2200 C   0  0  1  0  0  3  0  0  0  0  0  0
  184.6830  178.9650  139.2370 C   0  0  0  0  0  3  0  0  0  0  0  0
  183.9240  178.1290  138.5080 N   0  0  0  0  0  0  0  0  0  0  0  0
  182.8480  178.7730  138.0920 N   0  0  0  0  0  0  0  0  0  0  0  0
  184.1060  180.1820  139.3050 N   0  0  0  0  0  0  0  0  0  0  0  0
  181.9830  181.0990  138.3550 C   0  0  0  0  0  1  0  0  0  0  0  0
  182.9770  180.0170  138.5840 C   0  0  0  0  0  0  0  0  0  0  0  0
  190.9500  176.8840  136.5650 C   0  0  0  0  0  3  0  0  0  0  0  0
  191.4790  175.6790  136.3760 C   0  0  0  0  0  3  0  0  0  0  0  0
  192.7160  175.5200  135.5620 C   0  0  1  0  0  3  0  0  0  0  0  0
  192.6760  176.3680  134.4550 O   0  0  0  0  0  1  0  0  0  0  0  0
  194.2520  176.9680  136.6290 O   0  0  0  0  0  0  0  0  0  0  0  0
  193.9300  175.8130  136.3910 C   0  0  0  0  0  0  0  0  0  0  0  0
  194.7790  174.6850  136.8940 C   0  0  0  0  0  0  0  0  0  0  0  0
  194.1510  173.3150  137.0260 C   0  0  0  0  0  2  0  0  0  0  0  0
  195.1270  173.6110  135.8890 C   0  0  0  0  0  2  0  0  0  0  0  0
  195.8540  174.9800  137.8320 N   0  0  0  0  0  2  0  0  0  0  0  0
  196.9770  175.2010  137.1050 O   0  0  0  0  0  1  0  0  0  0  0  0
  1 13  1  0  0  0  0
  2  6  1  6  0  0  0
  2 20  1  0  0  0  0
  2  5  1  0  0  0  0
  3 11  1  0  0  0  0
  4  3  2  0  0  0  0
  4  5  1  0  0  0  0
  5  9  2  0  0  0  0
  6 12  2  0  0  0  0
  7  8  1  0  0  0  0
  8 13  2  0  0  0  0
  9  7  1  0  0  0  0
 10  1  2  0  0  0  0
 11 10  1  0  0  0  0
 11  7  2  0  0  0  0
 12  4  1  0  0  0  0
 15 16  1  6  0  0  0
 15 18  1  0  0  0  0
 18 14  2  0  0  0  0
 19 17  1  0  0  0  0
 19 15  1  0  0  0  0
 20 17  1  1  0  0  0
 20 21  1  0  0  0  0
 21 14  1  6  0  0  0
 21 23  1  0  0  0  0
 22 25  2  0  0  0  0
 23 22  1  0  0  0  0
 24 23  1  0  0  0  0
 24 27  2  0  0  0  0
 26 27  1  0  0  0  0
 27 25  1  0  0  0  0
 28  3  1  0  0  0  0
 29 28  2  0  0  0  0
 30 31  1  6  0  0  0
 30 29  1  0  0  0  0
 30 33  1  0  0  0  0
 33 32  2  0  0  0  0
 33 34  1  0  0  0  0
 34 35  1  0  0  0  0
 34 37  1  0  0  0  0
 36 34  1  0  0  0  0
 36 35  1  0  0  0  0
 38 37  1  0  0  0  0
M  END
>  <MODEL>
8

>  <REMARK>
 VINA RESULT:      -6.3      5.015      6.505
  Name = 
  7 active torsions:
  status: ('A' for Active; 'I' for Inactive)
    1  A    between atoms: N_5  and  C_37
    2  A    between atoms: C_6  and  N_12
    3  A    between atoms: C_6  and  C_15
    4  A    between atoms: C_7  and  C_16
    5  A    between atoms: C_10  and  C_36
    6  A    between atoms: C_13  and  C_15
    7  A    between atoms: C_13  and  C_26
                            x       y       z     vdW  Elec       q    Type
                         _______ _______ _______ _____ _____    ______ ____

>  <TORSDO>
F 7

$$$$
=
 OpenBabel10232408053D

 38 43  0  0  1  0  0  0  0  0999 V2000
  187.6990  177.5140  135.5630 C   0  0  0  0  0  3  0  0  0  0  0  0
  193.6810  175.3440  136.6220 C   0  0  1  0  0  3  0  0  0  0  0  0
  190.5980  176.9850  137.8460 C   0  0  0  0  0  0  0  0  0  0  0  0
  191.8780  176.4190  137.7070 C   0  0  0  0  0  0  0  0  0  0  0  0
  192.2950  175.8890  136.5220 C   0  0  0  0  0  0  0  0  0  0  0  0
  194.0590  175.7090  138.0790 C   0  0  0  0  0  3  0  0  0  0  0  0
  190.2600  176.4460  135.4790 C   0  0  0  0  0  0  0  0  0  0  0  0
  189.4460  176.4600  134.3460 C   0  0  0  0  0  3  0  0  0  0  0  0
  191.5100  175.9100  135.4140 N   0  0  0  0  0  0  0  0  0  0  0  0
  188.4750  177.5250  136.7240 C   0  0  0  0  0  3  0  0  0  0  0  0
  189.7700  176.9900  136.6980 C   0  0  0  0  0  0  0  0  0  0  0  0
  192.8850  176.3280  138.6920 N   0  0  0  0  0  0  0  0  0  0  0  0
  188.1940  176.9880  134.4110 N   0  0  0  0  0  0  0  0  0  0  0  0
  195.2470  171.7990  136.4950 C   0  0  0  0  0  3  0  0  0  0  0  0
  193.2190  171.0840  135.1910 C   0  0  2  0  0  3  0  0  0  0  0  0
  192.4790  169.9080  135.0780 O   0  0  0  0  0  1  0  0  0  0  0  0
  192.8650  173.4310  135.4020 O   0  0  0  0  0  0  0  0  0  0  0  0
  194.4020  170.8410  136.0830 C   0  0  0  0  0  3  0  0  0  0  0  0
  192.3330  172.1860  135.7560 C   0  0  0  0  0  2  0  0  0  0  0  0
  193.7210  173.8120  136.4490 C   0  0  1  0  0  3  0  0  0  0  0  0
  195.1330  173.2590  136.1320 C   0  0  1  0  0  3  0  0  0  0  0  0
  196.9540  174.9610  136.1790 C   0  0  0  0  0  3  0  0  0  0  0  0
  196.2100  174.0110  136.7700 N   0  0  0  0  0  0  0  0  0  0  0  0
  196.6060  173.8660  138.0230 N   0  0  0  0  0  0  0  0  0  0  0  0
  197.8560  175.4570  137.0510 N   0  0  0  0  0  0  0  0  0  0  0  0
  198.3500  174.9430  139.4460 C   0  0  0  0  0  1  0  0  0  0  0  0
  197.6050  174.7540  138.1740 C   0  0  0  0  0  0  0  0  0  0  0  0
  190.1020  177.5540  139.1210 C   0  0  0  0  0  3  0  0  0  0  0  0
  190.0740  176.8900  140.2720 C   0  0  0  0  0  3  0  0  0  0  0  0
  189.5430  177.5420  141.5030 C   0  0  1  0  0  3  0  0  0  0  0  0
  188.1570  177.3950  141.5650 O   0  0  0  0  0  1  0  0  0  0  0  0
  190.6610  175.8280  142.6890 O   0  0  0  0  0  0  0  0  0  0  0  0
  190.1780  176.9500  142.7250 C   0  0  0  0  0  0  0  0  0  0  0  0
  190.1850  177.7220  144.0090 C   0  0  0  0  0  0  0  0  0  0  0  0
  191.3460  177.5280  144.9590 C   0  0  0  0  0  2  0  0  0  0  0  0
  191.2320  178.8060  144.1320 C   0  0  0  0  0  2  0  0  0  0  0  0
  188.9130  178.0650  144.6290 N   0  0  0  0  0  2  0  0  0  0  0  0
  188.9540  177.6230  145.9100 O   0  0  0  0  0  1  0  0  0  0  0  0
  1 10  1  0  0  0  0
  2  6  1  1  0  0  0
  3 28  1  0  0  0  0
  4  3  2  0  0  0  0
  4 12  1  0  0  0  0
  5  2  1  0  0  0  0
  5  4  1  0  0  0  0
  6 12  2  0  0  0  0
  7 11  1  0  0  0  0
  8 13  1  0  0  0  0
  8  7  2  0  0  0  0
  9  7  1  0  0  0  0
  9  5  2  0  0  0  0
 11 10  2  0  0  0  0
 11  3  1  0  0  0  0
 13  1  2  0  0  0  0
 15 16  1  1  0  0  0
 15 19  1  0  0  0  0
 15 18  1  0  0  0  0
 17 19  1  0  0  0  0
 18 14  2  0  0  0  0
 20 17  1  6  0  0  0
 20  2  1  0  0  0  0
 21 20  1  0  0  0  0
 21 14  1  1  0  0  0
 21 23  1  0  0  0  0
 22 23  1  0  0  0  0
 22 25  2  0  0  0  0
 23 24  1  0  0  0  0
 24 27  2  0  0  0  0
 25 27  1  0  0  0  0
 27 26  1  0  0  0  0
 28 29  2  0  0  0  0
 29 30  1  0  0  0  0
 30 31  1  1  0  0  0
 30 33  1  0  0  0  0
 32 33  2  0  0  0  0
 33 34  1  0  0  0  0
 34 36  1  0  0  0  0
 34 37  1  0  0  0  0
 34 35  1  0  0  0  0
 36 35  1  0  0  0  0
 37 38  1  0  0  0  0
M  END
>  <MODEL>
9

>  <REMARK>
 VINA RESULT:      -6.3      6.960     11.304
  Name = 
  7 active torsions:
  status: ('A' for Active; 'I' for Inactive)
    1  A    between atoms: N_5  and  C_37
    2  A    between atoms: C_6  and  N_12
    3  A    between atoms: C_6  and  C_15
    4  A    between atoms: C_7  and  C_16
    5  A    between atoms: C_10  and  C_36
    6  A    between atoms: C_13  and  C_15
    7  A    between atoms: C_13  and  C_26
                            x       y       z     vdW  Elec       q    Type
                         _______ _______ _______ _____ _____    ______ ____

>  <TORSDO>
F 7

$$$$
