=
 OpenBabel10232408143D

 32 36  0  0  1  0  0  0  0  0999 V2000
  190.1820  176.3930  141.5560 C   0  0  0  0  0  3  0  0  0  0  0  0
  190.9400  178.0810  142.7870 C   0  0  0  0  0  0  0  0  0  0  0  0
  191.1010  179.0220  143.9400 C   0  0  0  0  0  2  0  0  0  0  0  0
  191.5580  178.1580  141.6380 O   0  0  0  0  0  0  0  0  0  0  0  0
  190.5600  178.3850  145.2280 C   0  0  0  0  0  2  0  0  0  0  0  0
  189.2650  176.5940  143.9650 C   0  0  0  0  0  2  0  0  0  0  0  0
  191.1280  177.1660  140.8850 C   0  0  0  0  0  0  0  0  0  0  0  0
  189.1860  177.7350  144.9940 C   0  0  1  0  0  3  0  0  0  0  0  0
  190.0690  177.0240  142.7790 C   0  0  0  0  0  0  0  0  0  0  0  0
  194.0930  176.8900  139.9870 C   0  0  0  0  0  1  0  0  0  0  0  0
  191.6000  176.5660  137.2990 C   0  0  0  0  0  3  0  0  0  0  0  0
  194.0330  176.4090  136.9890 O   0  0  0  0  0  1  0  0  0  0  0  0
  192.8770  176.8060  139.1240 C   0  0  0  0  0  0  0  0  0  0  0  0
  190.8270  176.7830  138.4350 C   0  0  0  0  0  0  0  0  0  0  0  0
  192.8970  176.5850  137.7680 C   0  0  0  0  0  0  0  0  0  0  0  0
  191.5970  176.9290  139.5410 N   0  0  0  0  0  0  0  0  0  0  0  0
  187.8590  176.2570  136.6700 C   0  0  0  0  0  0  0  0  0  0  0  0
  189.3280  176.8510  138.4320 C   0  0  1  0  0  3  0  0  0  0  0  0
  188.8340  178.1310  137.7370 C   0  0  0  0  0  2  0  0  0  0  0  0
  187.9220  177.6280  136.6900 C   0  0  0  0  0  0  0  0  0  0  0  0
  186.3710  177.7430  134.8550 C   0  0  0  0  0  3  0  0  0  0  0  0
  186.3080  176.3380  134.8330 C   0  0  0  0  0  3  0  0  0  0  0  0
  188.7210  175.6430  137.7000 C   0  0  0  0  0  2  0  0  0  0  0  0
  187.0590  175.5830  135.7480 C   0  0  0  0  0  3  0  0  0  0  0  0
  187.1860  178.3990  135.7900 C   0  0  0  0  0  3  0  0  0  0  0  0
  188.6070  177.2370  146.2820 C   0  0  0  0  0  0  0  0  0  0  0  0
  189.3610  176.7300  147.1550 O   0  0  0  0  0  0  0  0  0  0  0  0
  187.2040  177.3250  146.5360 N   0  0  0  0  0  2  0  0  0  0  0  0
  186.2710  177.8930  145.5750 C   0  0  0  0  0  2  0  0  0  0  0  0
  184.0340  178.9450  145.2960 C   0  0  0  0  0  1  0  0  0  0  0  0
  185.4750  179.5450  147.0850 O   0  0  0  0  0  1  0  0  0  0  0  0
  185.0680  178.4690  146.2980 C   0  0  2  0  0  3  0  0  0  0  0  0
  1  9  1  0  0  0  0
  2  3  1  0  0  0  0
  3  5  1  0  0  0  0
  4  2  1  0  0  0  0
  6  8  1  0  0  0  0
  7  1  2  0  0  0  0
  7  4  1  0  0  0  0
  8  5  1  0  0  0  0
  8 26  1  1  0  0  0
  9  2  2  0  0  0  0
  9  6  1  0  0  0  0
 11 15  1  0  0  0  0
 11 14  2  0  0  0  0
 12 15  1  0  0  0  0
 13 16  1  0  0  0  0
 13 10  1  0  0  0  0
 14 16  1  0  0  0  0
 15 13  2  0  0  0  0
 16  7  1  0  0  0  0
 17 20  1  0  0  0  0
 17 23  1  0  0  0  0
 18 14  1  6  0  0  0
 19 18  1  0  0  0  0
 20 19  1  0  0  0  0
 21 25  1  0  0  0  0
 22 21  2  0  0  0  0
 22 24  1  0  0  0  0
 23 18  1  0  0  0  0
 24 17  2  0  0  0  0
 25 20  2  0  0  0  0
 26 28  1  0  0  0  0
 26 27  2  0  0  0  0
 29 32  1  0  0  0  0
 29 28  1  0  0  0  0
 32 30  1  6  0  0  0
 32 31  1  0  0  0  0
M  END
>  <MODEL>
1

>  <REMARK>
 VINA RESULT:      -8.4      0.000      0.000
  Name = 
  5 active torsions:
  status: ('A' for Active; 'I' for Inactive)
    1  A    between atoms: C_3  and  C_25
    2  A    between atoms: C_6  and  C_19
    3  A    between atoms: C_14  and  N_18
    4  A    between atoms: C_14  and  C_30
    5  A    between atoms: C_16  and  N_31
                            x       y       z     vdW  Elec       q    Type
                         _______ _______ _______ _____ _____    ______ ____

>  <TORSDO>
F 5

$$$$
=
 OpenBabel10232408143D

 32 36  0  0  1  0  0  0  0  0999 V2000
  187.2820  177.5280  143.9020 C   0  0  0  0  0  3  0  0  0  0  0  0
  185.9700  178.5720  145.3600 C   0  0  0  0  0  0  0  0  0  0  0  0
  184.7700  179.2570  145.9360 C   0  0  0  0  0  2  0  0  0  0  0  0
  187.1200  178.4000  145.9580 O   0  0  0  0  0  0  0  0  0  0  0  0
  183.5130  178.8960  145.1320 C   0  0  0  0  0  2  0  0  0  0  0  0
  184.8580  178.0230  143.1540 C   0  0  0  0  0  2  0  0  0  0  0  0
  187.9210  177.7790  145.1150 C   0  0  0  0  0  0  0  0  0  0  0  0
  183.7690  179.0040  143.6190 C   0  0  1  0  0  3  0  0  0  0  0  0
  186.0270  178.0700  144.0870 C   0  0  0  0  0  0  0  0  0  0  0  0
  188.8990  176.4120  147.7320 C   0  0  0  0  0  1  0  0  0  0  0  0
  191.5270  177.1350  145.2590 C   0  0  0  0  0  3  0  0  0  0  0  0
  191.9010  176.0660  147.4400 O   0  0  0  0  0  1  0  0  0  0  0  0
  189.7310  176.8220  146.5620 C   0  0  0  0  0  0  0  0  0  0  0  0
  190.3680  177.6030  144.6480 C   0  0  0  0  0  0  0  0  0  0  0  0
  191.0910  176.6440  146.4720 C   0  0  0  0  0  0  0  0  0  0  0  0
  189.2800  177.4150  145.4340 N   0  0  0  0  0  0  0  0  0  0  0  0
  190.3970  177.1540  141.1840 C   0  0  0  0  0  0  0  0  0  0  0  0
  190.3320  178.2390  143.2890 C   0  0  1  0  0  3  0  0  0  0  0  0
  191.7470  178.3690  142.7020 C   0  0  0  0  0  2  0  0  0  0  0  0
  191.6460  177.6810  141.3980 C   0  0  0  0  0  0  0  0  0  0  0  0
  192.3830  176.8460  139.2660 C   0  0  0  0  0  3  0  0  0  0  0  0
  191.1030  176.3040  139.0480 C   0  0  0  0  0  3  0  0  0  0  0  0
  189.4810  177.4110  142.3140 C   0  0  0  0  0  2  0  0  0  0  0  0
  190.0970  176.4560  140.0140 C   0  0  0  0  0  3  0  0  0  0  0  0
  192.6620  177.5400  140.4530 C   0  0  0  0  0  3  0  0  0  0  0  0
  182.5030  178.7830  142.8490 C   0  0  0  0  0  0  0  0  0  0  0  0
  181.4140  178.6300  143.4630 O   0  0  0  0  0  0  0  0  0  0  0  0
  182.5130  178.7390  141.4220 N   0  0  0  0  0  2  0  0  0  0  0  0
  183.7320  178.9040  140.6440 C   0  0  0  0  0  2  0  0  0  0  0  0
  183.5770  178.3180  138.2320 C   0  0  0  0  0  1  0  0  0  0  0  0
  184.2430  180.4830  138.9450 O   0  0  0  0  0  1  0  0  0  0  0  0
  183.3970  179.4200  139.2580 C   0  0  2  0  0  3  0  0  0  0  0  0
  1  9  1  0  0  0  0
  1  7  2  0  0  0  0
  2  3  1  0  0  0  0
  2  4  1  0  0  0  0
  5  3  1  0  0  0  0
  6  8  1  0  0  0  0
  6  9  1  0  0  0  0
  7 16  1  0  0  0  0
  7  4  1  0  0  0  0
  8 26  1  6  0  0  0
  8  5  1  0  0  0  0
  9  2  2  0  0  0  0
 11 15  1  0  0  0  0
 13 10  1  0  0  0  0
 14 11  2  0  0  0  0
 14 16  1  0  0  0  0
 15 13  2  0  0  0  0
 15 12  1  0  0  0  0
 16 13  1  0  0  0  0
 17 20  1  0  0  0  0
 17 23  1  0  0  0  0
 18 14  1  1  0  0  0
 19 18  1  0  0  0  0
 20 19  1  0  0  0  0
 21 25  1  0  0  0  0
 22 21  2  0  0  0  0
 22 24  1  0  0  0  0
 23 18  1  0  0  0  0
 24 17  2  0  0  0  0
 25 20  2  0  0  0  0
 26 27  2  0  0  0  0
 28 26  1  0  0  0  0
 29 28  1  0  0  0  0
 31 32  1  0  0  0  0
 32 30  1  6  0  0  0
 32 29  1  0  0  0  0
M  END
>  <MODEL>
2

>  <REMARK>
 VINA RESULT:      -8.3      3.418      6.808
  Name = 
  5 active torsions:
  status: ('A' for Active; 'I' for Inactive)
    1  A    between atoms: C_3  and  C_25
    2  A    between atoms: C_6  and  C_19
    3  A    between atoms: C_14  and  N_18
    4  A    between atoms: C_14  and  C_30
    5  A    between atoms: C_16  and  N_31
                            x       y       z     vdW  Elec       q    Type
                         _______ _______ _______ _____ _____    ______ ____

>  <TORSDO>
F 5

$$$$
=
 OpenBabel10232408143D

 32 36  0  0  1  0  0  0  0  0999 V2000
  185.6550  177.3390  143.3510 C   0  0  0  0  0  3  0  0  0  0  0  0
  187.1360  178.3290  142.0230 C   0  0  0  0  0  0  0  0  0  0  0  0
  188.4500  178.7030  141.4110 C   0  0  0  0  0  2  0  0  0  0  0  0
  185.9720  178.8410  141.7210 O   0  0  0  0  0  0  0  0  0  0  0  0
  189.5000  177.6210  141.7010 C   0  0  0  0  0  2  0  0  0  0  0  0
  188.1150  176.5770  143.5650 C   0  0  0  0  0  2  0  0  0  0  0  0
  185.0700  178.2690  142.4940 C   0  0  0  0  0  0  0  0  0  0  0  0
  189.4700  177.1960  143.1780 C   0  0  1  0  0  3  0  0  0  0  0  0
  186.9950  177.4150  143.0340 C   0  0  0  0  0  0  0  0  0  0  0  0
  183.2730  179.1420  144.8780 C   0  0  0  0  0  1  0  0  0  0  0  0
  181.5670  178.9130  141.6250 C   0  0  0  0  0  3  0  0  0  0  0  0
  180.4920  179.5660  143.7360 O   0  0  0  0  0  1  0  0  0  0  0  0
  182.8600  178.9630  143.4550 C   0  0  0  0  0  0  0  0  0  0  0  0
  182.8780  178.5530  141.3310 C   0  0  0  0  0  0  0  0  0  0  0  0
  181.5870  179.1680  142.9810 C   0  0  0  0  0  0  0  0  0  0  0  0
  183.6630  178.5830  142.4360 N   0  0  0  0  0  0  0  0  0  0  0  0
  182.1640  178.3220  137.9190 C   0  0  0  0  0  0  0  0  0  0  0  0
  183.3590  178.1770  139.9600 C   0  0  1  0  0  3  0  0  0  0  0  0
  182.8660  176.7750  139.5660 C   0  0  0  0  0  2  0  0  0  0  0  0
  182.1670  177.0000  138.2840 C   0  0  0  0  0  0  0  0  0  0  0  0
  180.9310  176.4310  136.3010 C   0  0  0  0  0  3  0  0  0  0  0  0
  180.9260  177.7870  135.9280 C   0  0  0  0  0  3  0  0  0  0  0  0
  182.8580  179.1760  138.9050 C   0  0  0  0  0  2  0  0  0  0  0  0
  181.5470  178.7470  136.7430 C   0  0  0  0  0  3  0  0  0  0  0  0
  181.5550  176.0280  137.4920 C   0  0  0  0  0  3  0  0  0  0  0  0
  190.5850  176.2430  143.4800 C   0  0  0  0  0  0  0  0  0  0  0  0
  190.8460  175.3080  142.6770 O   0  0  0  0  0  0  0  0  0  0  0  0
  191.3570  176.3750  144.6730 N   0  0  0  0  0  2  0  0  0  0  0  0
  191.1120  177.4260  145.6500 C   0  0  0  0  0  2  0  0  0  0  0  0
  189.4960  177.4600  147.5400 C   0  0  0  0  0  1  0  0  0  0  0  0
  191.8020  177.0160  147.8860 O   0  0  0  0  0  1  0  0  0  0  0  0
  190.7530  176.8140  146.9910 C   0  0  2  0  0  3  0  0  0  0  0  0
  2  9  2  0  0  0  0
  3  5  1  0  0  0  0
  3  2  1  0  0  0  0
  4  2  1  0  0  0  0
  4  7  1  0  0  0  0
  5  8  1  0  0  0  0
  7  1  2  0  0  0  0
  8 26  1  6  0  0  0
  8  6  1  0  0  0  0
  9  1  1  0  0  0  0
  9  6  1  0  0  0  0
 11 15  1  0  0  0  0
 13 10  1  0  0  0  0
 14 11  2  0  0  0  0
 14 16  1  0  0  0  0
 15 13  2  0  0  0  0
 15 12  1  0  0  0  0
 16  7  1  0  0  0  0
 16 13  1  0  0  0  0
 17 20  1  0  0  0  0
 17 23  1  0  0  0  0
 18 14  1  1  0  0  0
 19 18  1  0  0  0  0
 20 19  1  0  0  0  0
 21 25  1  0  0  0  0
 22 21  2  0  0  0  0
 22 24  1  0  0  0  0
 23 18  1  0  0  0  0
 24 17  2  0  0  0  0
 25 20  2  0  0  0  0
 26 28  1  0  0  0  0
 27 26  2  0  0  0  0
 28 29  1  0  0  0  0
 29 32  1  0  0  0  0
 32 30  1  1  0  0  0
 32 31  1  0  0  0  0
M  END
>  <MODEL>
3

>  <REMARK>
 VINA RESULT:      -8.2      3.996      7.183
  Name = 
  5 active torsions:
  status: ('A' for Active; 'I' for Inactive)
    1  A    between atoms: C_3  and  C_25
    2  A    between atoms: C_6  and  C_19
    3  A    between atoms: C_14  and  N_18
    4  A    between atoms: C_14  and  C_30
    5  A    between atoms: C_16  and  N_31
                            x       y       z     vdW  Elec       q    Type
                         _______ _______ _______ _____ _____    ______ ____

>  <TORSDO>
F 5

$$$$
=
 OpenBabel10232408143D

 32 36  0  0  1  0  0  0  0  0999 V2000
  187.2810  178.3840  141.4470 C   0  0  0  0  0  3  0  0  0  0  0  0
  188.5310  176.8710  142.4890 C   0  0  0  0  0  0  0  0  0  0  0  0
  189.6730  175.9500  142.7840 C   0  0  0  0  0  2  0  0  0  0  0  0
  187.4300  176.9810  143.1850 O   0  0  0  0  0  0  0  0  0  0  0  0
  190.9290  176.3960  142.0220 C   0  0  0  0  0  2  0  0  0  0  0  0
  189.6090  177.8880  140.4370 C   0  0  0  0  0  2  0  0  0  0  0  0
  186.6670  177.8760  142.5900 C   0  0  0  0  0  0  0  0  0  0  0  0
  190.6050  176.7230  140.5540 C   0  0  1  0  0  3  0  0  0  0  0  0
  188.4780  177.7000  141.3990 C   0  0  0  0  0  0  0  0  0  0  0  0
  185.9470  178.5930  145.5300 C   0  0  0  0  0  1  0  0  0  0  0  0
  183.1570  178.7800  143.1370 C   0  0  0  0  0  3  0  0  0  0  0  0
  182.9880  179.2700  145.5400 O   0  0  0  0  0  1  0  0  0  0  0  0
  185.0290  178.5800  144.3530 C   0  0  0  0  0  0  0  0  0  0  0  0
  184.2340  178.3870  142.3500 C   0  0  0  0  0  0  0  0  0  0  0  0
  183.6920  178.8950  144.4030 C   0  0  0  0  0  0  0  0  0  0  0  0
  185.3690  178.2640  143.0830 N   0  0  0  0  0  0  0  0  0  0  0  0
  182.8220  179.2760  139.2820 C   0  0  0  0  0  0  0  0  0  0  0  0
  184.1470  178.1270  140.8750 C   0  0  1  0  0  3  0  0  0  0  0  0
  182.9160  177.2710  140.5360 C   0  0  0  0  0  2  0  0  0  0  0  0
  182.1970  178.0800  139.5300 C   0  0  0  0  0  0  0  0  0  0  0  0
  180.4700  178.6340  137.9500 C   0  0  0  0  0  3  0  0  0  0  0  0
  181.1100  179.8610  137.6970 C   0  0  0  0  0  3  0  0  0  0  0  0
  184.0490  179.4430  140.0870 C   0  0  0  0  0  2  0  0  0  0  0  0
  182.2980  180.1900  138.3680 C   0  0  0  0  0  3  0  0  0  0  0  0
  181.0150  177.7320  138.8760 C   0  0  0  0  0  3  0  0  0  0  0  0
  191.8550  177.0250  139.7880 C   0  0  0  0  0  0  0  0  0  0  0  0
  192.7870  177.6720  140.3370 O   0  0  0  0  0  0  0  0  0  0  0  0
  192.0070  176.5940  138.4360 N   0  0  0  0  0  2  0  0  0  0  0  0
  190.9740  175.8470  137.7330 C   0  0  0  0  0  2  0  0  0  0  0  0
  188.6970  176.6000  137.0740 C   0  0  0  0  0  1  0  0  0  0  0  0
  190.4710  176.4820  135.5010 O   0  0  0  0  0  1  0  0  0  0  0  0
  190.1840  176.7770  136.8320 C   0  0  2  0  0  3  0  0  0  0  0  0
  1  7  2  0  0  0  0
  2  3  1  0  0  0  0
  2  4  1  0  0  0  0
  5  3  1  0  0  0  0
  6  8  1  0  0  0  0
  6  9  1  0  0  0  0
  7 16  1  0  0  0  0
  7  4  1  0  0  0  0
  8 26  1  6  0  0  0
  8  5  1  0  0  0  0
  9  1  1  0  0  0  0
  9  2  2  0  0  0  0
 11 15  1  0  0  0  0
 13 15  2  0  0  0  0
 13 10  1  0  0  0  0
 14 16  1  0  0  0  0
 14 11  2  0  0  0  0
 15 12  1  0  0  0  0
 16 13  1  0  0  0  0
 17 20  1  0  0  0  0
 17 23  1  0  0  0  0
 18 14  1  1  0  0  0
 19 18  1  0  0  0  0
 20 19  1  0  0  0  0
 21 25  1  0  0  0  0
 22 21  2  0  0  0  0
 22 24  1  0  0  0  0
 23 18  1  0  0  0  0
 24 17  2  0  0  0  0
 25 20  2  0  0  0  0
 26 27  2  0  0  0  0
 28 26  1  0  0  0  0
 29 28  1  0  0  0  0
 31 32  1  0  0  0  0
 32 30  1  6  0  0  0
 32 29  1  0  0  0  0
M  END
>  <MODEL>
4

>  <REMARK>
 VINA RESULT:      -7.9      3.662      7.810
  Name = 
  5 active torsions:
  status: ('A' for Active; 'I' for Inactive)
    1  A    between atoms: C_3  and  C_25
    2  A    between atoms: C_6  and  C_19
    3  A    between atoms: C_14  and  N_18
    4  A    between atoms: C_14  and  C_30
    5  A    between atoms: C_16  and  N_31
                            x       y       z     vdW  Elec       q    Type
                         _______ _______ _______ _____ _____    ______ ____

>  <TORSDO>
F 5

$$$$
=
 OpenBabel10232408143D

 32 36  0  0  1  0  0  0  0  0999 V2000
  183.9930  178.7010  140.7430 C   0  0  0  0  0  3  0  0  0  0  0  0
  182.6590  178.7210  142.5200 C   0  0  0  0  0  0  0  0  0  0  0  0
  182.2190  178.7060  143.9510 C   0  0  0  0  0  2  0  0  0  0  0  0
  181.8760  178.7170  141.4730 O   0  0  0  0  0  0  0  0  0  0  0  0
  183.3720  179.1390  144.8680 C   0  0  0  0  0  2  0  0  0  0  0  0
  185.1300  178.7740  143.0630 C   0  0  0  0  0  2  0  0  0  0  0  0
  182.6420  178.7070  140.4000 C   0  0  0  0  0  0  0  0  0  0  0  0
  184.6810  178.4250  144.4920 C   0  0  1  0  0  3  0  0  0  0  0  0
  183.9700  178.6910  142.1230 C   0  0  0  0  0  0  0  0  0  0  0  0
  182.0280  181.2100  138.6590 C   0  0  0  0  0  1  0  0  0  0  0  0
  181.3330  177.9710  137.0560 C   0  0  0  0  0  3  0  0  0  0  0  0
  180.9800  180.1650  136.0080 O   0  0  0  0  0  1  0  0  0  0  0  0
  181.8460  179.7780  138.2780 C   0  0  0  0  0  0  0  0  0  0  0  0
  181.8110  177.6160  138.3130 C   0  0  0  0  0  0  0  0  0  0  0  0
  181.3680  179.3490  137.0630 C   0  0  0  0  0  0  0  0  0  0  0  0
  182.1220  178.7080  139.0550 N   0  0  0  0  0  0  0  0  0  0  0  0
  182.9910  174.3960  137.6500 C   0  0  0  0  0  0  0  0  0  0  0  0
  181.9590  176.1990  138.7880 C   0  0  1  0  0  3  0  0  0  0  0  0
  180.8690  175.2980  138.1840 C   0  0  0  0  0  2  0  0  0  0  0  0
  181.6360  174.2160  137.5330 C   0  0  0  0  0  0  0  0  0  0  0  0
  181.9950  172.1860  136.2920 C   0  0  0  0  0  3  0  0  0  0  0  0
  183.3840  172.3720  136.4110 C   0  0  0  0  0  3  0  0  0  0  0  0
  183.3290  175.6250  138.3950 C   0  0  0  0  0  2  0  0  0  0  0  0
  183.8920  173.4870  137.0950 C   0  0  0  0  0  3  0  0  0  0  0  0
  181.1070  173.1160  136.8560 C   0  0  0  0  0  3  0  0  0  0  0  0
  185.7640  178.7490  145.4740 C   0  0  0  0  0  0  0  0  0  0  0  0
  185.5810  179.6490  146.3360 O   0  0  0  0  0  0  0  0  0  0  0  0
  187.0110  178.0540  145.4450 N   0  0  0  0  0  2  0  0  0  0  0  0
  187.2980  177.0060  144.4760 C   0  0  0  0  0  2  0  0  0  0  0  0
  189.5540  177.9590  144.9100 C   0  0  0  0  0  1  0  0  0  0  0  0
  188.6470  177.8630  142.7190 O   0  0  0  0  0  1  0  0  0  0  0  0
  188.7030  177.1760  143.9300 C   0  0  2  0  0  3  0  0  0  0  0  0
  1  9  1  0  0  0  0
  2  3  1  0  0  0  0
  3  5  1  0  0  0  0
  4  2  1  0  0  0  0
  6  8  1  0  0  0  0
  7  1  2  0  0  0  0
  7  4  1  0  0  0  0
  8  5  1  0  0  0  0
  8 26  1  1  0  0  0
  9  2  2  0  0  0  0
  9  6  1  0  0  0  0
 11 15  1  0  0  0  0
 11 14  2  0  0  0  0
 12 15  1  0  0  0  0
 13 10  1  0  0  0  0
 13 16  1  0  0  0  0
 14 16  1  0  0  0  0
 15 13  2  0  0  0  0
 16  7  1  0  0  0  0
 17 23  1  0  0  0  0
 18 14  1  6  0  0  0
 19 18  1  0  0  0  0
 20 17  1  0  0  0  0
 20 19  1  0  0  0  0
 21 22  2  0  0  0  0
 21 25  1  0  0  0  0
 22 24  1  0  0  0  0
 23 18  1  0  0  0  0
 24 17  2  0  0  0  0
 25 20  2  0  0  0  0
 26 27  2  0  0  0  0
 28 26  1  0  0  0  0
 29 28  1  0  0  0  0
 31 32  1  0  0  0  0
 32 29  1  0  0  0  0
 32 30  1  1  0  0  0
M  END
>  <MODEL>
5

>  <REMARK>
 VINA RESULT:      -7.8      5.049      7.755
  Name = 
  5 active torsions:
  status: ('A' for Active; 'I' for Inactive)
    1  A    between atoms: C_3  and  C_25
    2  A    between atoms: C_6  and  C_19
    3  A    between atoms: C_14  and  N_18
    4  A    between atoms: C_14  and  C_30
    5  A    between atoms: C_16  and  N_31
                            x       y       z     vdW  Elec       q    Type
                         _______ _______ _______ _____ _____    ______ ____

>  <TORSDO>
F 5

$$$$
=
 OpenBabel10232408143D

 32 36  0  0  1  0  0  0  0  0999 V2000
  188.7730  176.9440  140.7920 C   0  0  0  0  0  3  0  0  0  0  0  0
  190.6030  177.6320  141.8480 C   0  0  0  0  0  0  0  0  0  0  0  0
  191.5180  178.0390  142.9610 C   0  0  0  0  0  2  0  0  0  0  0  0
  190.8840  177.6570  140.5720 O   0  0  0  0  0  0  0  0  0  0  0  0
  191.0090  177.4820  144.2990 C   0  0  0  0  0  2  0  0  0  0  0  0
  188.6880  176.9950  143.3750 C   0  0  0  0  0  2  0  0  0  0  0  0
  189.8140  177.2500  139.9180 C   0  0  0  0  0  0  0  0  0  0  0  0
  189.4990  177.7180  144.4630 C   0  0  1  0  0  3  0  0  0  0  0  0
  189.3090  177.2200  142.0330 C   0  0  0  0  0  0  0  0  0  0  0  0
  187.6120  178.4260  138.0630 C   0  0  0  0  0  1  0  0  0  0  0  0
  190.3020  176.5940  136.3440 C   0  0  0  0  0  3  0  0  0  0  0  0
  188.3910  177.6640  135.2290 O   0  0  0  0  0  1  0  0  0  0  0  0
  188.8140  177.6410  137.6520 C   0  0  0  0  0  0  0  0  0  0  0  0
  190.6570  176.5090  137.6860 C   0  0  0  0  0  0  0  0  0  0  0  0
  189.1290  177.3190  136.3540 C   0  0  0  0  0  0  0  0  0  0  0  0
  189.7570  177.1420  138.4800 N   0  0  0  0  0  0  0  0  0  0  0  0
  193.8990  175.3960  137.0170 C   0  0  0  0  0  0  0  0  0  0  0  0
  191.8800  175.8010  138.1900 C   0  0  1  0  0  3  0  0  0  0  0  0
  191.9040  174.3360  137.7210 C   0  0  0  0  0  2  0  0  0  0  0  0
  193.2060  174.2120  137.0350 C   0  0  0  0  0  0  0  0  0  0  0  0
  194.9860  173.1320  135.8310 C   0  0  0  0  0  3  0  0  0  0  0  0
  195.6960  174.3460  135.8120 C   0  0  0  0  0  3  0  0  0  0  0  0
  193.1610  176.4860  137.6870 C   0  0  0  0  0  2  0  0  0  0  0  0
  195.1500  175.4930  136.4090 C   0  0  0  0  0  3  0  0  0  0  0  0
  193.7270  173.0600  136.4460 C   0  0  0  0  0  3  0  0  0  0  0  0
  189.0400  177.2960  145.8240 C   0  0  0  0  0  0  0  0  0  0  0  0
  189.8330  176.6930  146.5950 O   0  0  0  0  0  0  0  0  0  0  0  0
  187.7080  177.5630  146.2630 N   0  0  0  0  0  2  0  0  0  0  0  0
  186.7340  178.2510  145.4280 C   0  0  0  0  0  2  0  0  0  0  0  0
  184.3120  178.7880  145.2450 C   0  0  0  0  0  1  0  0  0  0  0  0
  185.6070  179.5060  147.1010 O   0  0  0  0  0  1  0  0  0  0  0  0
  185.4430  178.4560  146.1990 C   0  0  2  0  0  3  0  0  0  0  0  0
  1  9  1  0  0  0  0
  2  9  2  0  0  0  0
  2  3  1  0  0  0  0
  3  5  1  0  0  0  0
  4  2  1  0  0  0  0
  5  8  1  0  0  0  0
  6  8  1  0  0  0  0
  7  4  1  0  0  0  0
  7  1  2  0  0  0  0
  8 26  1  1  0  0  0
  9  6  1  0  0  0  0
 11 15  1  0  0  0  0
 11 14  2  0  0  0  0
 12 15  1  0  0  0  0
 13 10  1  0  0  0  0
 13 16  1  0  0  0  0
 14 16  1  0  0  0  0
 15 13  2  0  0  0  0
 16  7  1  0  0  0  0
 17 20  1  0  0  0  0
 17 23  1  0  0  0  0
 18 14  1  6  0  0  0
 19 18  1  0  0  0  0
 20 19  1  0  0  0  0
 21 25  1  0  0  0  0
 22 21  2  0  0  0  0
 22 24  1  0  0  0  0
 23 18  1  0  0  0  0
 24 17  2  0  0  0  0
 25 20  2  0  0  0  0
 26 28  1  0  0  0  0
 26 27  2  0  0  0  0
 29 32  1  0  0  0  0
 29 28  1  0  0  0  0
 32 30  1  6  0  0  0
 32 31  1  0  0  0  0
M  END
>  <MODEL>
6

>  <REMARK>
 VINA RESULT:      -7.8      2.082      4.336
  Name = 
  5 active torsions:
  status: ('A' for Active; 'I' for Inactive)
    1  A    between atoms: C_3  and  C_25
    2  A    between atoms: C_6  and  C_19
    3  A    between atoms: C_14  and  N_18
    4  A    between atoms: C_14  and  C_30
    5  A    between atoms: C_16  and  N_31
                            x       y       z     vdW  Elec       q    Type
                         _______ _______ _______ _____ _____    ______ ____

>  <TORSDO>
F 5

$$$$
=
 OpenBabel10232408143D

 32 36  0  0  1  0  0  0  0  0999 V2000
  187.4680  177.4880  142.7380 C   0  0  0  0  0  3  0  0  0  0  0  0
  189.4850  178.4200  142.7300 C   0  0  0  0  0  0  0  0  0  0  0  0
  190.8520  178.8220  143.1890 C   0  0  0  0  0  2  0  0  0  0  0  0
  188.9070  178.7860  141.6160 O   0  0  0  0  0  0  0  0  0  0  0  0
  191.3400  177.8820  144.3000 C   0  0  0  0  0  2  0  0  0  0  0  0
  189.0040  176.9750  144.7520 C   0  0  0  0  0  2  0  0  0  0  0  0
  187.7050  178.2460  141.5920 C   0  0  0  0  0  0  0  0  0  0  0  0
  190.2460  177.6520  145.3560 C   0  0  1  0  0  3  0  0  0  0  0  0
  188.6320  177.6370  143.4630 C   0  0  0  0  0  0  0  0  0  0  0  0
  184.6570  178.8120  141.8400 C   0  0  0  0  0  1  0  0  0  0  0  0
  185.9420  178.6010  138.3970 C   0  0  0  0  0  3  0  0  0  0  0  0
  183.5990  179.0330  139.0020 O   0  0  0  0  0  1  0  0  0  0  0  0
  185.4500  178.6730  140.5830 C   0  0  0  0  0  0  0  0  0  0  0  0
  187.0710  178.3840  139.1800 C   0  0  0  0  0  0  0  0  0  0  0  0
  184.9290  178.7820  139.3160 C   0  0  0  0  0  0  0  0  0  0  0  0
  186.7770  178.4270  140.5030 N   0  0  0  0  0  0  0  0  0  0  0  0
  189.0220  177.6130  136.3870 C   0  0  0  0  0  0  0  0  0  0  0  0
  188.4430  178.1310  138.6250 C   0  0  1  0  0  3  0  0  0  0  0  0
  188.7250  176.6230  138.5160 C   0  0  0  0  0  2  0  0  0  0  0  0
  189.0920  176.4410  137.0960 C   0  0  0  0  0  0  0  0  0  0  0  0
  189.7780  175.2630  135.1150 C   0  0  0  0  0  3  0  0  0  0  0  0
  189.7050  176.4640  134.3870 C   0  0  0  0  0  3  0  0  0  0  0  0
  188.5970  178.7510  137.2280 C   0  0  0  0  0  2  0  0  0  0  0  0
  189.3230  177.6550  135.0260 C   0  0  0  0  0  3  0  0  0  0  0  0
  189.4680  175.2460  136.4840 C   0  0  0  0  0  3  0  0  0  0  0  0
  190.7750  176.8450  146.5020 C   0  0  0  0  0  0  0  0  0  0  0  0
  192.0060  176.5870  146.5720 O   0  0  0  0  0  0  0  0  0  0  0  0
  189.9000  176.3580  147.5190 N   0  0  0  0  0  2  0  0  0  0  0  0
  188.4670  176.6120  147.5040 C   0  0  0  0  0  2  0  0  0  0  0  0
  187.1190  178.6730  147.8530 C   0  0  0  0  0  1  0  0  0  0  0  0
  189.2870  178.4320  148.7910 O   0  0  0  0  0  1  0  0  0  0  0  0
  188.1270  177.7260  148.4750 C   0  0  2  0  0  3  0  0  0  0  0  0
  1  9  1  0  0  0  0
  2  3  1  0  0  0  0
  2  9  2  0  0  0  0
  3  5  1  0  0  0  0
  4  2  1  0  0  0  0
  5  8  1  0  0  0  0
  6  8  1  0  0  0  0
  7  4  1  0  0  0  0
  7  1  2  0  0  0  0
  8 26  1  1  0  0  0
  9  6  1  0  0  0  0
 11 14  2  0  0  0  0
 11 15  1  0  0  0  0
 12 15  1  0  0  0  0
 13 10  1  0  0  0  0
 14 16  1  0  0  0  0
 15 13  2  0  0  0  0
 16 13  1  0  0  0  0
 16  7  1  0  0  0  0
 17 20  1  0  0  0  0
 17 23  1  0  0  0  0
 18 14  1  6  0  0  0
 19 18  1  0  0  0  0
 20 19  1  0  0  0  0
 21 25  1  0  0  0  0
 22 24  1  0  0  0  0
 22 21  2  0  0  0  0
 23 18  1  0  0  0  0
 24 17  2  0  0  0  0
 25 20  2  0  0  0  0
 26 27  2  0  0  0  0
 26 28  1  0  0  0  0
 29 28  1  0  0  0  0
 29 32  1  0  0  0  0
 32 30  1  6  0  0  0
 32 31  1  0  0  0  0
M  END
>  <MODEL>
7

>  <REMARK>
 VINA RESULT:      -7.7      2.910      4.425
  Name = 
  5 active torsions:
  status: ('A' for Active; 'I' for Inactive)
    1  A    between atoms: C_3  and  C_25
    2  A    between atoms: C_6  and  C_19
    3  A    between atoms: C_14  and  N_18
    4  A    between atoms: C_14  and  C_30
    5  A    between atoms: C_16  and  N_31
                            x       y       z     vdW  Elec       q    Type
                         _______ _______ _______ _____ _____    ______ ____

>  <TORSDO>
F 5

$$$$
=
 OpenBabel10232408143D

 32 36  0  0  1  0  0  0  0  0999 V2000
  192.6300  176.1970  138.0930 C   0  0  0  0  0  3  0  0  0  0  0  0
  192.2540  174.2710  137.0510 C   0  0  0  0  0  0  0  0  0  0  0  0
  192.5150  172.9630  136.3700 C   0  0  0  0  0  2  0  0  0  0  0  0
  191.0860  174.8340  137.2150 O   0  0  0  0  0  0  0  0  0  0  0  0
  193.9100  172.4390  136.7400 C   0  0  0  0  0  2  0  0  0  0  0  0
  194.6830  174.7020  137.6140 C   0  0  0  0  0  2  0  0  0  0  0  0
  191.2780  175.9820  137.8340 C   0  0  0  0  0  0  0  0  0  0  0  0
  194.9690  173.5490  136.6360 C   0  0  1  0  0  3  0  0  0  0  0  0
  193.2370  175.0800  137.5570 C   0  0  0  0  0  0  0  0  0  0  0  0
  189.4670  177.5690  135.8660 C   0  0  0  0  0  1  0  0  0  0  0  0
  188.7380  178.0840  139.4360 C   0  0  0  0  0  3  0  0  0  0  0  0
  187.5310  179.1580  137.5830 O   0  0  0  0  0  1  0  0  0  0  0  0
  189.4060  177.5810  137.3570 C   0  0  0  0  0  0  0  0  0  0  0  0
  189.7990  177.1860  139.4480 C   0  0  0  0  0  0  0  0  0  0  0  0
  188.5100  178.3160  138.0960 C   0  0  0  0  0  0  0  0  0  0  0  0
  190.2060  176.8790  138.1910 N   0  0  0  0  0  0  0  0  0  0  0  0
  189.8320  177.1220  142.9400 C   0  0  0  0  0  0  0  0  0  0  0  0
  190.4170  176.6300  140.6970 C   0  0  1  0  0  3  0  0  0  0  0  0
  191.4520  177.6050  141.2830 C   0  0  0  0  0  2  0  0  0  0  0  0
  190.9900  177.8080  142.6720 C   0  0  0  0  0  0  0  0  0  0  0  0
  191.0170  178.6750  144.9150 C   0  0  0  0  0  3  0  0  0  0  0  0
  189.8290  177.9730  145.1900 C   0  0  0  0  0  3  0  0  0  0  0  0
  189.3500  176.3610  141.7700 C   0  0  0  0  0  2  0  0  0  0  0  0
  189.2260  177.1880  144.1940 C   0  0  0  0  0  3  0  0  0  0  0  0
  191.6060  178.5960  143.6440 C   0  0  0  0  0  3  0  0  0  0  0  0
  196.3420  172.9970  136.8660 C   0  0  0  0  0  0  0  0  0  0  0  0
  196.5660  172.2690  137.8700 O   0  0  0  0  0  0  0  0  0  0  0  0
  197.4090  173.2880  135.9630 N   0  0  0  0  0  2  0  0  0  0  0  0
  197.2280  174.1240  134.7850 C   0  0  0  0  0  2  0  0  0  0  0  0
  199.5180  175.0250  135.1460 C   0  0  0  0  0  1  0  0  0  0  0  0
  197.5980  176.1420  135.9830 O   0  0  0  0  0  1  0  0  0  0  0  0
  198.0640  175.3840  134.9100 C   0  0  2  0  0  3  0  0  0  0  0  0
  2  4  1  0  0  0  0
  2  9  2  0  0  0  0
  3  5  1  0  0  0  0
  3  2  1  0  0  0  0
  4  7  1  0  0  0  0
  7  1  2  0  0  0  0
  7 16  1  0  0  0  0
  8  5  1  0  0  0  0
  8 26  1  1  0  0  0
  8  6  1  0  0  0  0
  9  6  1  0  0  0  0
  9  1  1  0  0  0  0
 10 13  1  0  0  0  0
 11 14  2  0  0  0  0
 12 15  1  0  0  0  0
 13 15  2  0  0  0  0
 13 16  1  0  0  0  0
 15 11  1  0  0  0  0
 16 14  1  0  0  0  0
 17 24  1  0  0  0  0
 18 14  1  6  0  0  0
 18 19  1  0  0  0  0
 18 23  1  0  0  0  0
 19 20  1  0  0  0  0
 20 17  2  0  0  0  0
 20 25  1  0  0  0  0
 21 22  1  0  0  0  0
 23 17  1  0  0  0  0
 24 22  2  0  0  0  0
 25 21  2  0  0  0  0
 26 27  2  0  0  0  0
 28 26  1  0  0  0  0
 29 32  1  0  0  0  0
 29 28  1  0  0  0  0
 32 30  1  1  0  0  0
 32 31  1  0  0  0  0
M  END
>  <MODEL>
8

>  <REMARK>
 VINA RESULT:      -7.7      3.768      9.684
  Name = 
  5 active torsions:
  status: ('A' for Active; 'I' for Inactive)
    1  A    between atoms: C_3  and  C_25
    2  A    between atoms: C_6  and  C_19
    3  A    between atoms: C_14  and  N_18
    4  A    between atoms: C_14  and  C_30
    5  A    between atoms: C_16  and  N_31
                            x       y       z     vdW  Elec       q    Type
                         _______ _______ _______ _____ _____    ______ ____

>  <TORSDO>
F 5

$$$$
=
 OpenBabel10232408143D

 32 36  0  0  1  0  0  0  0  0999 V2000
  183.4270  177.5730  141.7070 C   0  0  0  0  0  3  0  0  0  0  0  0
  184.0090  179.1380  140.2410 C   0  0  0  0  0  0  0  0  0  0  0  0
  184.0790  179.9130  138.9620 C   0  0  0  0  0  2  0  0  0  0  0  0
  184.7010  179.3740  141.3240 O   0  0  0  0  0  0  0  0  0  0  0  0
  182.8490  179.6180  138.0920 C   0  0  0  0  0  2  0  0  0  0  0  0
  182.2430  177.5260  139.4100 C   0  0  0  0  0  2  0  0  0  0  0  0
  184.3750  178.4600  142.2160 C   0  0  0  0  0  0  0  0  0  0  0  0
  182.5640  178.1080  138.0230 C   0  0  1  0  0  3  0  0  0  0  0  0
  183.2260  178.0280  140.4200 C   0  0  0  0  0  0  0  0  0  0  0  0
  182.9400  179.2440  144.8610 C   0  0  0  0  0  1  0  0  0  0  0  0
  186.4120  178.0830  145.2400 C   0  0  0  0  0  3  0  0  0  0  0  0
  184.9530  178.7880  147.0880 O   0  0  0  0  0  1  0  0  0  0  0  0
  184.3380  178.7450  144.7070 C   0  0  0  0  0  0  0  0  0  0  0  0
  186.1920  178.0100  143.8690 C   0  0  0  0  0  0  0  0  0  0  0  0
  185.2170  178.5520  145.7450 C   0  0  0  0  0  0  0  0  0  0  0  0
  184.9380  178.4100  143.5430 N   0  0  0  0  0  0  0  0  0  0  0  0
  189.3380  176.5910  143.3300 C   0  0  0  0  0  0  0  0  0  0  0  0
  187.2190  177.5490  142.8760 C   0  0  1  0  0  3  0  0  0  0  0  0
  188.3070  178.6160  142.6700 C   0  0  0  0  0  2  0  0  0  0  0  0
  189.5620  177.8920  142.9580 C   0  0  0  0  0  0  0  0  0  0  0  0
  191.9330  177.5720  143.2040 C   0  0  0  0  0  3  0  0  0  0  0  0
  191.7030  176.2380  143.5860 C   0  0  0  0  0  3  0  0  0  0  0  0
  187.9000  176.2540  143.3460 C   0  0  0  0  0  2  0  0  0  0  0  0
  190.3930  175.7380  143.6520 C   0  0  0  0  0  3  0  0  0  0  0  0
  190.8550  178.4120  142.8870 C   0  0  0  0  0  3  0  0  0  0  0  0
  181.4490  177.8210  137.0650 C   0  0  0  0  0  0  0  0  0  0  0  0
  180.3960  178.5110  137.1030 O   0  0  0  0  0  0  0  0  0  0  0  0
  181.5600  176.7670  136.1080 N   0  0  0  0  0  2  0  0  0  0  0  0
  182.7430  175.9250  136.0070 C   0  0  0  0  0  2  0  0  0  0  0  0
  183.7450  174.4260  137.7210 C   0  0  0  0  0  1  0  0  0  0  0  0
  182.4080  173.5740  135.9540 O   0  0  0  0  0  1  0  0  0  0  0  0
  182.5480  174.6580  136.8190 C   0  0  2  0  0  3  0  0  0  0  0  0
  1  7  2  0  0  0  0
  2  9  2  0  0  0  0
  2  4  1  0  0  0  0
  3  2  1  0  0  0  0
  4  7  1  0  0  0  0
  5  3  1  0  0  0  0
  6  9  1  0  0  0  0
  7 16  1  0  0  0  0
  8 26  1  6  0  0  0
  8  5  1  0  0  0  0
  8  6  1  0  0  0  0
  9  1  1  0  0  0  0
 11 15  1  0  0  0  0
 13 10  1  0  0  0  0
 13 15  2  0  0  0  0
 14 11  2  0  0  0  0
 15 12  1  0  0  0  0
 16 14  1  0  0  0  0
 16 13  1  0  0  0  0
 17 23  1  0  0  0  0
 17 24  1  0  0  0  0
 18 23  1  0  0  0  0
 18 14  1  1  0  0  0
 19 18  1  0  0  0  0
 19 20  1  0  0  0  0
 20 17  2  0  0  0  0
 21 22  1  0  0  0  0
 22 24  2  0  0  0  0
 25 20  1  0  0  0  0
 25 21  2  0  0  0  0
 26 27  2  0  0  0  0
 28 26  1  0  0  0  0
 29 28  1  0  0  0  0
 29 32  1  0  0  0  0
 31 32  1  0  0  0  0
 32 30  1  1  0  0  0
M  END
>  <MODEL>
9

>  <REMARK>
 VINA RESULT:      -7.6      4.747      9.407
  Name = 
  5 active torsions:
  status: ('A' for Active; 'I' for Inactive)
    1  A    between atoms: C_3  and  C_25
    2  A    between atoms: C_6  and  C_19
    3  A    between atoms: C_14  and  N_18
    4  A    between atoms: C_14  and  C_30
    5  A    between atoms: C_16  and  N_31
                            x       y       z     vdW  Elec       q    Type
                         _______ _______ _______ _____ _____    ______ ____

>  <TORSDO>
F 5

$$$$
