=
 OpenBabel10232407463D

 25 28  0  0  1  0  0  0  0  0999 V2000
  188.8360  177.5750  144.4670 C   0  0  0  0  0  0  0  0  0  0  0  0
  187.8860  177.2760  142.2590 C   0  0  0  0  0  3  0  0  0  0  0  0
  189.7940  178.7370  142.5710 C   0  0  0  0  0  3  0  0  0  0  0  0
  187.8830  176.9880  143.6270 C   0  0  0  0  0  3  0  0  0  0  0  0
  188.8390  178.1500  141.7260 C   0  0  0  0  0  0  0  0  0  0  0  0
  189.7900  178.4490  143.9390 C   0  0  0  0  0  3  0  0  0  0  0  0
  187.4330  178.7360  139.8200 N   0  0  0  0  0  0  0  0  0  0  0  0
  188.8160  178.4520  140.2590 C   0  0  2  0  0  3  0  0  0  0  0  0
  189.5050  175.6990  137.8170 N   0  0  0  0  0  0  0  0  0  0  0  0
  187.4350  177.0170  138.0890 C   0  0  0  0  0  3  0  0  0  0  0  0
  186.7970  178.1130  138.8570 C   0  0  0  0  0  0  0  0  0  0  0  0
  189.4000  177.3270  139.4560 C   0  0  0  0  0  0  0  0  0  0  0  0
  185.4640  178.4960  138.5390 N   0  0  0  0  0  1  0  0  0  0  0  0
  190.5940  176.7540  139.4340 C   0  0  0  0  0  0  0  0  0  0  0  0
  188.6710  176.6760  138.4180 C   0  0  0  0  0  0  0  0  0  0  0  0
  190.6300  175.7470  138.4150 N   0  0  0  0  0  0  0  0  0  0  0  0
  192.6420  177.3730  140.9860 C   0  0  0  0  0  3  0  0  0  0  0  0
  191.7080  177.0900  140.2790 C   0  0  0  0  0  0  0  0  0  0  0  0
  188.3670  177.5110  147.2580 C   0  0  0  0  0  2  0  0  0  0  0  0
  189.3150  176.5300  147.0540 C   0  0  1  0  0  3  0  0  0  0  0  0
  188.8330  177.2810  145.8600 N   0  0  0  0  0  0  0  0  0  0  0  0
  190.6930  177.0380  147.4270 C   0  0  0  0  0  2  0  0  0  0  0  0
  191.5960  176.7340  146.4080 O   0  0  0  0  0  0  0  0  0  0  0  0
  192.2520  175.5870  146.8520 C   0  0  0  0  0  2  0  0  0  0  0  0
  192.7440  175.8040  148.2680 C   0  0  0  0  0  1  0  0  0  0  0  0
  1 21  1  0  0  0  0
  2  4  1  0  0  0  0
  3  6  2  0  0  0  0
  4  1  2  0  0  0  0
  5  2  2  0  0  0  0
  5  3  1  0  0  0  0
  6  1  1  0  0  0  0
  7  8  1  0  0  0  0
  8  5  1  1  0  0  0
  9 16  2  0  0  0  0
  9 15  1  0  0  0  0
 10 15  2  0  0  0  0
 10 11  1  0  0  0  0
 11  7  2  0  0  0  0
 12  8  1  0  0  0  0
 13 11  1  0  0  0  0
 14 12  2  0  0  0  0
 14 18  1  0  0  0  0
 15 12  1  0  0  0  0
 16 14  1  0  0  0  0
 18 17  3  0  0  0  0
 20 19  1  0  0  0  0
 20 22  1  1  0  0  0
 21 20  1  0  0  0  0
 21 19  1  0  0  0  0
 23 24  1  0  0  0  0
 23 22  1  0  0  0  0
 24 25  1  0  0  0  0
M  END
>  <MODEL>
1

>  <REMARK>
 VINA RESULT:      -6.8      0.000      0.000
  Name = 
  6 active torsions:
  status: ('A' for Active; 'I' for Inactive)
    1  A    between atoms: C_3  and  N_21
    2  A    between atoms: C_4  and  C_22
    3  A    between atoms: O_7  and  C_11
    4  A    between atoms: O_7  and  C_12
    5  A    between atoms: C_11  and  C_20
    6  A    between atoms: C_17  and  C_19
                            x       y       z     vdW  Elec       q    Type
                         _______ _______ _______ _____ _____    ______ ____

>  <TORSDO>
F 6

$$$$
=
 OpenBabel10232407463D

 25 28  0  0  1  0  0  0  0  0999 V2000
  190.0680  177.1310  142.2620 C   0  0  0  0  0  0  0  0  0  0  0  0
  188.2980  176.0230  143.4900 C   0  0  0  0  0  3  0  0  0  0  0  0
  189.3200  178.0310  144.3820 C   0  0  0  0  0  3  0  0  0  0  0  0
  189.1370  176.0930  142.3740 C   0  0  0  0  0  3  0  0  0  0  0  0
  188.3850  176.9900  144.4970 C   0  0  0  0  0  0  0  0  0  0  0  0
  190.1590  178.0990  143.2660 C   0  0  0  0  0  3  0  0  0  0  0  0
  186.1520  177.4460  145.3680 N   0  0  0  0  0  0  0  0  0  0  0  0
  187.4840  176.8890  145.6890 C   0  0  0  0  0  0  0  0  0  0  0  0
  188.1620  179.0390  148.6780 N   0  0  0  0  0  0  0  0  0  0  0  0
  186.1730  179.0410  147.2140 C   0  0  0  0  0  3  0  0  0  0  0  0
  185.5470  178.4020  146.0310 C   0  0  0  0  0  0  0  0  0  0  0  0
  188.0700  177.5840  146.8820 C   0  0  0  0  0  0  0  0  0  0  0  0
  184.2600  178.8380  145.6100 N   0  0  0  0  0  1  0  0  0  0  0  0
  189.1870  177.4150  147.5720 C   0  0  0  0  0  0  0  0  0  0  0  0
  187.3770  178.6220  147.5730 C   0  0  0  0  0  0  0  0  0  0  0  0
  189.2220  178.3310  148.6740 N   0  0  0  0  0  2  0  0  0  0  0  0
  191.0780  175.6410  147.0560 C   0  0  0  0  0  3  0  0  0  0  0  0
  190.2150  176.4490  147.2910 C   0  0  0  0  0  0  0  0  0  0  0  0
  192.1220  177.7130  140.4030 C   0  0  0  0  0  2  0  0  0  0  0  0
  191.2910  176.8450  139.7250 C   0  0  1  0  0  3  0  0  0  0  0  0
  190.9210  177.2010  141.1260 N   0  0  0  0  0  0  0  0  0  0  0  0
  190.3900  177.6060  138.7740 C   0  0  0  0  0  2  0  0  0  0  0  0
  189.1320  177.0050  138.7380 O   0  0  0  0  0  0  0  0  0  0  0  0
  188.2380  178.0690  138.6260 C   0  0  0  0  0  2  0  0  0  0  0  0
  187.6050  178.3410  139.9750 C   0  0  0  0  0  1  0  0  0  0  0  0
  1  4  2  0  0  0  0
  1  6  1  0  0  0  0
  2  5  2  0  0  0  0
  3  5  1  0  0  0  0
  4  2  1  0  0  0  0
  5  8  1  0  0  0  0
  6  3  2  0  0  0  0
  7  8  2  0  0  0  0
  7 11  1  0  0  0  0
  8 12  1  0  0  0  0
 10 15  1  0  0  0  0
 11 10  2  0  0  0  0
 12 14  2  0  0  0  0
 12 15  1  0  0  0  0
 13 11  1  0  0  0  0
 14 16  1  0  0  0  0
 15  9  2  0  0  0  0
 16  9  1  0  0  0  0
 17 18  3  0  0  0  0
 18 14  1  0  0  0  0
 19 21  1  0  0  0  0
 20 22  1  6  0  0  0
 20 19  1  0  0  0  0
 20 21  1  0  0  0  0
 21  1  1  0  0  0  0
 23 22  1  0  0  0  0
 24 23  1  0  0  0  0
 24 25  1  0  0  0  0
M  END
>  <MODEL>
2

>  <REMARK>
 VINA RESULT:      -6.6      2.675      7.268
  Name = 
  6 active torsions:
  status: ('A' for Active; 'I' for Inactive)
    1  A    between atoms: C_3  and  N_21
    2  A    between atoms: C_4  and  C_22
    3  A    between atoms: O_7  and  C_11
    4  A    between atoms: O_7  and  C_12
    5  A    between atoms: C_11  and  C_20
    6  A    between atoms: C_17  and  C_19
                            x       y       z     vdW  Elec       q    Type
                         _______ _______ _______ _____ _____    ______ ____

>  <TORSDO>
F 6

$$$$
=
 OpenBabel10232407463D

 25 28  0  0  1  0  0  0  0  0999 V2000
  189.1400  177.6400  144.4480 C   0  0  0  0  0  0  0  0  0  0  0  0
  189.8940  178.8430  142.4850 C   0  0  0  0  0  3  0  0  0  0  0  0
  188.1210  177.2020  142.2950 C   0  0  0  0  0  3  0  0  0  0  0  0
  189.9820  178.5880  143.8560 C   0  0  0  0  0  3  0  0  0  0  0  0
  188.9650  178.1520  141.7000 C   0  0  0  0  0  0  0  0  0  0  0  0
  188.2100  176.9480  143.6670 C   0  0  0  0  0  3  0  0  0  0  0  0
  187.4990  178.7050  139.8290 N   0  0  0  0  0  0  0  0  0  0  0  0
  188.8960  178.4340  140.2300 C   0  0  2  0  0  3  0  0  0  0  0  0
  189.5280  175.6520  137.8060 N   0  0  0  0  0  0  0  0  0  0  0  0
  187.4590  176.9630  138.1210 C   0  0  0  0  0  3  0  0  0  0  0  0
  186.8380  178.0660  138.8940 C   0  0  0  0  0  0  0  0  0  0  0  0
  189.4630  177.3020  139.4250 C   0  0  0  0  0  0  0  0  0  0  0  0
  185.4940  178.4380  138.6100 N   0  0  0  0  0  1  0  0  0  0  0  0
  190.6580  176.7350  139.3750 C   0  0  0  0  0  0  0  0  0  0  0  0
  188.7070  176.6330  138.4190 C   0  0  0  0  0  0  0  0  0  0  0  0
  190.6700  175.7130  138.3690 N   0  0  0  0  0  0  0  0  0  0  0  0
  192.7500  177.3840  140.8560 C   0  0  0  0  0  3  0  0  0  0  0  0
  191.7960  177.0880  140.1820 C   0  0  0  0  0  0  0  0  0  0  0  0
  189.6130  176.5320  147.0090 C   0  0  0  0  0  2  0  0  0  0  0  0
  188.9890  177.7330  147.2730 C   0  0  1  0  0  3  0  0  0  0  0  0
  189.2310  177.3810  145.8440 N   0  0  0  0  0  0  0  0  0  0  0  0
  187.5230  177.5120  147.5880 C   0  0  0  0  0  2  0  0  0  0  0  0
  186.8310  178.7170  147.4670 O   0  0  0  0  0  0  0  0  0  0  0  0
  185.6200  178.3680  146.8700 C   0  0  0  0  0  2  0  0  0  0  0  0
  185.6010  178.8630  145.4400 C   0  0  0  0  0  1  0  0  0  0  0  0
  1 21  1  0  0  0  0
  2  4  2  0  0  0  0
  3  6  1  0  0  0  0
  4  1  1  0  0  0  0
  5  3  2  0  0  0  0
  5  2  1  0  0  0  0
  6  1  2  0  0  0  0
  7  8  1  0  0  0  0
  8  5  1  1  0  0  0
  9 16  2  0  0  0  0
  9 15  1  0  0  0  0
 10 15  2  0  0  0  0
 10 11  1  0  0  0  0
 11  7  2  0  0  0  0
 12  8  1  0  0  0  0
 13 11  1  0  0  0  0
 14 12  2  0  0  0  0
 14 18  1  0  0  0  0
 15 12  1  0  0  0  0
 16 14  1  0  0  0  0
 18 17  3  0  0  0  0
 19 20  1  0  0  0  0
 20 22  1  6  0  0  0
 21 19  1  0  0  0  0
 21 20  1  0  0  0  0
 23 22  1  0  0  0  0
 24 23  1  0  0  0  0
 25 24  1  0  0  0  0
M  END
>  <MODEL>
3

>  <REMARK>
 VINA RESULT:      -6.6      1.419      2.730
  Name = 
  6 active torsions:
  status: ('A' for Active; 'I' for Inactive)
    1  A    between atoms: C_3  and  N_21
    2  A    between atoms: C_4  and  C_22
    3  A    between atoms: O_7  and  C_11
    4  A    between atoms: O_7  and  C_12
    5  A    between atoms: C_11  and  C_20
    6  A    between atoms: C_17  and  C_19
                            x       y       z     vdW  Elec       q    Type
                         _______ _______ _______ _____ _____    ______ ____

>  <TORSDO>
F 6

$$$$
=
 OpenBabel10232407463D

 25 28  0  0  1  0  0  0  0  0999 V2000
  190.7670  176.9830  142.6630 C   0  0  0  0  0  0  0  0  0  0  0  0
  188.9630  176.9980  141.0470 C   0  0  0  0  0  3  0  0  0  0  0  0
  191.1990  177.6470  140.3760 C   0  0  0  0  0  3  0  0  0  0  0  0
  189.4200  176.7720  142.3480 C   0  0  0  0  0  3  0  0  0  0  0  0
  189.8480  177.4360  140.0570 C   0  0  0  0  0  0  0  0  0  0  0  0
  191.6550  177.4210  141.6770 C   0  0  0  0  0  3  0  0  0  0  0  0
  188.0610  178.4340  138.7280 N   0  0  0  0  0  0  0  0  0  0  0  0
  189.3330  177.6820  138.6720 C   0  0  2  0  0  3  0  0  0  0  0  0
  188.0600  174.7950  136.6570 N   0  0  0  0  0  0  0  0  0  0  0  0
  186.8150  176.7790  137.4380 C   0  0  0  0  0  3  0  0  0  0  0  0
  186.9290  178.0550  138.1870 C   0  0  0  0  0  0  0  0  0  0  0  0
  189.1510  176.3990  137.9160 C   0  0  0  0  0  0  0  0  0  0  0  0
  185.7800  178.8840  138.3180 N   0  0  0  0  0  1  0  0  0  0  0  0
  189.9820  175.4330  137.5570 C   0  0  0  0  0  0  0  0  0  0  0  0
  187.9000  176.0250  137.3450 C   0  0  0  0  0  0  0  0  0  0  0  0
  189.2810  174.4500  136.7840 N   0  0  0  0  0  0  0  0  0  0  0  0
  192.5620  175.3150  138.1240 C   0  0  0  0  0  3  0  0  0  0  0  0
  191.3860  175.3680  137.8640 C   0  0  0  0  0  0  0  0  0  0  0  0
  191.8660  175.9040  145.0390 C   0  0  0  0  0  2  0  0  0  0  0  0
  191.4330  177.1600  145.4090 C   0  0  1  0  0  3  0  0  0  0  0  0
  191.2320  176.7530  143.9890 N   0  0  0  0  0  0  0  0  0  0  0  0
  190.1050  177.0710  146.1350 C   0  0  0  0  0  2  0  0  0  0  0  0
  189.2470  178.0660  145.6650 O   0  0  0  0  0  0  0  0  0  0  0  0
  187.9950  177.7130  146.1640 C   0  0  0  0  0  2  0  0  0  0  0  0
  187.0340  177.5000  145.0130 C   0  0  0  0  0  1  0  0  0  0  0  0
  1 21  1  0  0  0  0
  2  4  2  0  0  0  0
  3  6  1  0  0  0  0
  4  1  1  0  0  0  0
  5  3  2  0  0  0  0
  5  2  1  0  0  0  0
  6  1  2  0  0  0  0
  8  7  1  0  0  0  0
  8  5  1  1  0  0  0
  9 16  2  0  0  0  0
  9 15  1  0  0  0  0
 10 11  1  0  0  0  0
 11 13  1  0  0  0  0
 11  7  2  0  0  0  0
 12  8  1  0  0  0  0
 14 18  1  0  0  0  0
 14 12  2  0  0  0  0
 15 10  2  0  0  0  0
 15 12  1  0  0  0  0
 16 14  1  0  0  0  0
 18 17  3  0  0  0  0
 19 20  1  0  0  0  0
 20 22  1  1  0  0  0
 21 19  1  0  0  0  0
 21 20  1  0  0  0  0
 23 22  1  0  0  0  0
 23 24  1  0  0  0  0
 25 24  1  0  0  0  0
M  END
>  <MODEL>
4

>  <REMARK>
 VINA RESULT:      -6.6      1.741      2.839
  Name = 
  6 active torsions:
  status: ('A' for Active; 'I' for Inactive)
    1  A    between atoms: C_3  and  N_21
    2  A    between atoms: C_4  and  C_22
    3  A    between atoms: O_7  and  C_11
    4  A    between atoms: O_7  and  C_12
    5  A    between atoms: C_11  and  C_20
    6  A    between atoms: C_17  and  C_19
                            x       y       z     vdW  Elec       q    Type
                         _______ _______ _______ _____ _____    ______ ____

>  <TORSDO>
F 6

$$$$
=
 OpenBabel10232407463D

 25 28  0  0  1  0  0  0  0  0999 V2000
  188.8940  177.6210  141.3660 C   0  0  0  0  0  0  0  0  0  0  0  0
  187.6020  178.2030  143.3300 C   0  0  0  0  0  3  0  0  0  0  0  0
  188.9520  176.1910  143.3180 C   0  0  0  0  0  3  0  0  0  0  0  0
  188.0130  178.4850  142.0240 C   0  0  0  0  0  3  0  0  0  0  0  0
  188.0680  177.0560  143.9820 C   0  0  0  0  0  0  0  0  0  0  0  0
  189.3630  176.4740  142.0130 C   0  0  0  0  0  3  0  0  0  0  0  0
  186.2100  177.2220  145.5530 N   0  0  0  0  0  0  0  0  0  0  0  0
  187.6050  176.7680  145.3760 C   0  0  0  0  0  0  0  0  0  0  0  0
  189.0710  178.7070  148.2250 N   0  0  0  0  0  0  0  0  0  0  0  0
  186.7220  178.6470  147.4670 C   0  0  0  0  0  3  0  0  0  0  0  0
  185.7910  178.0550  146.4750 C   0  0  0  0  0  0  0  0  0  0  0  0
  188.4990  177.4100  146.3970 C   0  0  0  0  0  0  0  0  0  0  0  0
  184.4120  178.4020  146.5290 N   0  0  0  0  0  1  0  0  0  0  0  0
  189.7870  177.2890  146.6780 C   0  0  0  0  0  0  0  0  0  0  0  0
  188.0010  178.3130  147.3810 C   0  0  0  0  0  0  0  0  0  0  0  0
  190.1160  178.1050  147.8090 N   0  0  0  0  0  2  0  0  0  0  0  0
  191.5190  175.7530  145.4020 C   0  0  0  0  0  3  0  0  0  0  0  0
  190.7290  176.4520  145.9830 C   0  0  0  0  0  0  0  0  0  0  0  0
  189.1650  178.6070  138.7260 C   0  0  0  0  0  2  0  0  0  0  0  0
  190.2160  177.7250  138.8640 C   0  0  1  0  0  3  0  0  0  0  0  0
  189.3120  177.9100  140.0360 N   0  0  0  0  0  0  0  0  0  0  0  0
  189.8910  176.4020  138.2010 C   0  0  0  0  0  2  0  0  0  0  0  0
  190.6900  175.3970  138.7430 O   0  0  0  0  0  0  0  0  0  0  0  0
  191.5970  175.0850  137.7310 C   0  0  0  0  0  2  0  0  0  0  0  0
  191.0630  173.9270  136.9150 C   0  0  0  0  0  1  0  0  0  0  0  0
  1  6  2  0  0  0  0
  1  4  1  0  0  0  0
  2  5  1  0  0  0  0
  3  5  2  0  0  0  0
  4  2  2  0  0  0  0
  5  8  1  0  0  0  0
  6  3  1  0  0  0  0
  7 11  1  0  0  0  0
  8  7  2  0  0  0  0
  8 12  1  0  0  0  0
 11 13  1  0  0  0  0
 11 10  2  0  0  0  0
 12 14  2  0  0  0  0
 12 15  1  0  0  0  0
 14 16  1  0  0  0  0
 15 10  1  0  0  0  0
 15  9  2  0  0  0  0
 16  9  1  0  0  0  0
 17 18  3  0  0  0  0
 18 14  1  0  0  0  0
 19 20  1  0  0  0  0
 19 21  1  0  0  0  0
 20 22  1  6  0  0  0
 20 21  1  0  0  0  0
 21  1  1  0  0  0  0
 22 23  1  0  0  0  0
 24 23  1  0  0  0  0
 25 24  1  0  0  0  0
M  END
>  <MODEL>
5

>  <REMARK>
 VINA RESULT:      -6.1      2.594      7.270
  Name = 
  6 active torsions:
  status: ('A' for Active; 'I' for Inactive)
    1  A    between atoms: C_3  and  N_21
    2  A    between atoms: C_4  and  C_22
    3  A    between atoms: O_7  and  C_11
    4  A    between atoms: O_7  and  C_12
    5  A    between atoms: C_11  and  C_20
    6  A    between atoms: C_17  and  C_19
                            x       y       z     vdW  Elec       q    Type
                         _______ _______ _______ _____ _____    ______ ____

>  <TORSDO>
F 6

$$$$
=
 OpenBabel10232407463D

 25 28  0  0  1  0  0  0  0  0999 V2000
  186.8850  178.0800  143.4000 C   0  0  0  0  0  0  0  0  0  0  0  0
  186.6310  178.6870  141.0690 C   0  0  0  0  0  3  0  0  0  0  0  0
  188.6940  177.6800  141.8420 C   0  0  0  0  0  3  0  0  0  0  0  0
  186.1120  178.6180  142.3650 C   0  0  0  0  0  3  0  0  0  0  0  0
  187.9220  178.2190  140.8020 C   0  0  0  0  0  0  0  0  0  0  0  0
  188.1750  177.6120  143.1380 C   0  0  0  0  0  3  0  0  0  0  0  0
  187.3490  178.4190  138.4390 N   0  0  0  0  0  0  0  0  0  0  0  0
  188.4600  178.3140  139.4080 C   0  0  2  0  0  3  0  0  0  0  0  0
  190.1050  175.3180  137.8790 N   0  0  0  0  0  0  0  0  0  0  0  0
  188.0600  176.4840  137.1330 C   0  0  0  0  0  3  0  0  0  0  0  0
  187.1500  177.6200  137.4180 C   0  0  0  0  0  0  0  0  0  0  0  0
  189.3360  177.1420  139.0750 C   0  0  0  0  0  0  0  0  0  0  0  0
  186.0350  177.8430  136.5630 N   0  0  0  0  0  1  0  0  0  0  0  0
  190.4580  176.6720  139.5980 C   0  0  0  0  0  0  0  0  0  0  0  0
  189.0810  176.2960  137.9560 C   0  0  0  0  0  0  0  0  0  0  0  0
  190.9100  175.5400  138.8430 N   0  0  0  0  0  0  0  0  0  0  0  0
  191.7290  177.6650  141.6930 C   0  0  0  0  0  3  0  0  0  0  0  0
  191.1510  177.2120  140.7380 C   0  0  0  0  0  0  0  0  0  0  0  0
  185.5230  178.5360  145.8400 C   0  0  0  0  0  2  0  0  0  0  0  0
  186.2310  177.3740  146.0620 C   0  0  1  0  0  3  0  0  0  0  0  0
  186.3560  178.0100  144.7190 N   0  0  0  0  0  0  0  0  0  0  0  0
  187.4880  177.6620  146.8580 C   0  0  0  0  0  2  0  0  0  0  0  0
  188.5450  176.9030  146.3540 O   0  0  0  0  0  0  0  0  0  0  0  0
  189.6580  177.3290  147.0780 C   0  0  0  0  0  2  0  0  0  0  0  0
  189.2010  178.0330  148.3390 C   0  0  0  0  0  1  0  0  0  0  0  0
  1 21  1  0  0  0  0
  2  4  1  0  0  0  0
  3  6  2  0  0  0  0
  4  1  2  0  0  0  0
  5  2  2  0  0  0  0
  5  3  1  0  0  0  0
  6  1  1  0  0  0  0
  7  8  1  0  0  0  0
  8  5  1  1  0  0  0
  9 15  1  0  0  0  0
  9 16  2  0  0  0  0
 10 11  1  0  0  0  0
 10 15  2  0  0  0  0
 11  7  2  0  0  0  0
 12  8  1  0  0  0  0
 12 14  2  0  0  0  0
 13 11  1  0  0  0  0
 14 18  1  0  0  0  0
 15 12  1  0  0  0  0
 16 14  1  0  0  0  0
 18 17  3  0  0  0  0
 19 20  1  0  0  0  0
 20 22  1  1  0  0  0
 21 19  1  0  0  0  0
 21 20  1  0  0  0  0
 23 22  1  0  0  0  0
 23 24  1  0  0  0  0
 24 25  1  0  0  0  0
M  END
>  <MODEL>
6

>  <REMARK>
 VINA RESULT:      -6.0      1.645      2.183
  Name = 
  6 active torsions:
  status: ('A' for Active; 'I' for Inactive)
    1  A    between atoms: C_3  and  N_21
    2  A    between atoms: C_4  and  C_22
    3  A    between atoms: O_7  and  C_11
    4  A    between atoms: O_7  and  C_12
    5  A    between atoms: C_11  and  C_20
    6  A    between atoms: C_17  and  C_19
                            x       y       z     vdW  Elec       q    Type
                         _______ _______ _______ _____ _____    ______ ____

>  <TORSDO>
F 6

$$$$
=
 OpenBabel10232407463D

 25 28  0  0  1  0  0  0  0  0999 V2000
  183.1390  178.7890  142.8190 C   0  0  0  0  0  0  0  0  0  0  0  0
  185.1150  178.1530  141.5710 C   0  0  0  0  0  3  0  0  0  0  0  0
  185.3150  179.5990  143.5040 C   0  0  0  0  0  3  0  0  0  0  0  0
  183.7310  178.0940  141.7590 C   0  0  0  0  0  3  0  0  0  0  0  0
  185.9120  178.9040  142.4410 C   0  0  0  0  0  0  0  0  0  0  0  0
  183.9310  179.5410  143.6910 C   0  0  0  0  0  3  0  0  0  0  0  0
  187.6770  179.1800  140.7800 N   0  0  0  0  0  0  0  0  0  0  0  0
  187.3910  178.9610  142.2130 C   0  0  2  0  0  3  0  0  0  0  0  0
  189.4190  175.8380  142.6030 N   0  0  0  0  0  0  0  0  0  0  0  0
  189.0870  177.2000  140.5700 C   0  0  0  0  0  3  0  0  0  0  0  0
  188.4290  178.4130  140.0270 C   0  0  0  0  0  0  0  0  0  0  0  0
  188.0710  177.7140  142.6990 C   0  0  0  0  0  0  0  0  0  0  0  0
  188.6210  178.7500  138.6580 N   0  0  0  0  0  1  0  0  0  0  0  0
  188.1610  177.1350  143.8860 C   0  0  0  0  0  0  0  0  0  0  0  0
  188.8780  176.9070  141.8450 C   0  0  0  0  0  0  0  0  0  0  0  0
  188.9960  175.9740  143.7980 N   0  0  0  0  0  0  0  0  0  0  0  0
  187.0260  177.9810  146.1190 C   0  0  0  0  0  3  0  0  0  0  0  0
  187.5430  177.5960  145.1010 C   0  0  0  0  0  0  0  0  0  0  0  0
  180.5170  178.4070  143.8160 C   0  0  0  0  0  2  0  0  0  0  0  0
  180.3240  178.9080  142.5460 C   0  0  1  0  0  3  0  0  0  0  0  0
  181.7300  178.7290  143.0090 N   0  0  0  0  0  0  0  0  0  0  0  0
  179.9820  177.7910  141.5800 C   0  0  0  0  0  2  0  0  0  0  0  0
  180.4890  178.0930  140.3160 O   0  0  0  0  0  0  0  0  0  0  0  0
  180.2830  176.9340  139.5700 C   0  0  0  0  0  2  0  0  0  0  0  0
  181.5380  176.0880  139.5940 C   0  0  0  0  0  1  0  0  0  0  0  0
  1 21  1  0  0  0  0
  1  6  1  0  0  0  0
  2  4  1  0  0  0  0
  2  5  2  0  0  0  0
  3  6  2  0  0  0  0
  4  1  2  0  0  0  0
  5  3  1  0  0  0  0
  7  8  1  0  0  0  0
  8  5  1  6  0  0  0
  8 12  1  0  0  0  0
  9 16  2  0  0  0  0
 10 15  2  0  0  0  0
 11 10  1  0  0  0  0
 11  7  2  0  0  0  0
 12 14  2  0  0  0  0
 13 11  1  0  0  0  0
 14 18  1  0  0  0  0
 15  9  1  0  0  0  0
 15 12  1  0  0  0  0
 16 14  1  0  0  0  0
 18 17  3  0  0  0  0
 20 22  1  6  0  0  0
 20 21  1  0  0  0  0
 20 19  1  0  0  0  0
 21 19  1  0  0  0  0
 23 22  1  0  0  0  0
 24 25  1  0  0  0  0
 24 23  1  0  0  0  0
M  END
>  <MODEL>
7

>  <REMARK>
 VINA RESULT:      -6.0      4.767      7.270
  Name = 
  6 active torsions:
  status: ('A' for Active; 'I' for Inactive)
    1  A    between atoms: C_3  and  N_21
    2  A    between atoms: C_4  and  C_22
    3  A    between atoms: O_7  and  C_11
    4  A    between atoms: O_7  and  C_12
    5  A    between atoms: C_11  and  C_20
    6  A    between atoms: C_17  and  C_19
                            x       y       z     vdW  Elec       q    Type
                         _______ _______ _______ _____ _____    ______ ____

>  <TORSDO>
F 6

$$$$
=
 OpenBabel10232407463D

 25 28  0  0  1  0  0  0  0  0999 V2000
  190.3050  177.0960  141.8820 C   0  0  0  0  0  0  0  0  0  0  0  0
  190.3260  177.4730  139.4890 C   0  0  0  0  0  3  0  0  0  0  0  0
  188.2190  177.3450  140.6790 C   0  0  0  0  0  3  0  0  0  0  0  0
  191.0140  177.2650  140.6880 C   0  0  0  0  0  3  0  0  0  0  0  0
  188.9280  177.5140  139.4790 C   0  0  0  0  0  0  0  0  0  0  0  0
  188.9080  177.1360  141.8760 C   0  0  0  0  0  3  0  0  0  0  0  0
  187.0740  178.6520  138.3740 N   0  0  0  0  0  0  0  0  0  0  0  0
  188.2120  177.7280  138.1820 C   0  0  2  0  0  3  0  0  0  0  0  0
  186.2490  174.9080  136.6930 N   0  0  0  0  0  0  0  0  0  0  0  0
  185.4220  177.1000  137.4730 C   0  0  0  0  0  3  0  0  0  0  0  0
  185.8250  178.3980  138.0660 C   0  0  0  0  0  0  0  0  0  0  0  0
  187.7390  176.4310  137.5930 C   0  0  0  0  0  0  0  0  0  0  0  0
  184.8310  179.3870  138.3050 N   0  0  0  0  0  1  0  0  0  0  0  0
  188.3660  175.3340  137.1970 C   0  0  0  0  0  0  0  0  0  0  0  0
  186.3690  176.1950  137.2760 C   0  0  0  0  0  0  0  0  0  0  0  0
  187.4210  174.4050  136.6490 N   0  0  0  0  0  0  0  0  0  0  0  0
  190.9680  174.8940  137.3380 C   0  0  0  0  0  3  0  0  0  0  0  0
  189.7820  175.0950  137.2730 C   0  0  0  0  0  0  0  0  0  0  0  0
  191.6250  176.0040  144.1360 C   0  0  0  0  0  2  0  0  0  0  0  0
  191.6640  177.3650  144.3510 C   0  0  1  0  0  3  0  0  0  0  0  0
  191.0070  176.8840  143.1020 N   0  0  0  0  0  0  0  0  0  0  0  0
  190.5920  177.7780  145.3390 C   0  0  0  0  0  2  0  0  0  0  0  0
  189.5290  176.8760  145.2790 O   0  0  0  0  0  0  0  0  0  0  0  0
  188.6750  177.2730  146.3070 C   0  0  0  0  0  2  0  0  0  0  0  0
  187.2940  177.5340  145.7440 C   0  0  0  0  0  1  0  0  0  0  0  0
  1 21  1  0  0  0  0
  2  4  1  0  0  0  0
  3  6  2  0  0  0  0
  4  1  2  0  0  0  0
  5  2  2  0  0  0  0
  5  3  1  0  0  0  0
  6  1  1  0  0  0  0
  8  7  1  0  0  0  0
  8  5  1  1  0  0  0
  9 15  1  0  0  0  0
 10 11  1  0  0  0  0
 11 13  1  0  0  0  0
 11  7  2  0  0  0  0
 12  8  1  0  0  0  0
 14 18  1  0  0  0  0
 14 12  2  0  0  0  0
 15 10  2  0  0  0  0
 15 12  1  0  0  0  0
 16  9  2  0  0  0  0
 16 14  1  0  0  0  0
 18 17  3  0  0  0  0
 19 20  1  0  0  0  0
 20 22  1  1  0  0  0
 21 19  1  0  0  0  0
 21 20  1  0  0  0  0
 23 22  1  0  0  0  0
 23 24  1  0  0  0  0
 25 24  1  0  0  0  0
M  END
>  <MODEL>
8

>  <REMARK>
 VINA RESULT:      -5.8      2.025      3.364
  Name = 
  6 active torsions:
  status: ('A' for Active; 'I' for Inactive)
    1  A    between atoms: C_3  and  N_21
    2  A    between atoms: C_4  and  C_22
    3  A    between atoms: O_7  and  C_11
    4  A    between atoms: O_7  and  C_12
    5  A    between atoms: C_11  and  C_20
    6  A    between atoms: C_17  and  C_19
                            x       y       z     vdW  Elec       q    Type
                         _______ _______ _______ _____ _____    ______ ____

>  <TORSDO>
F 6

$$$$
=
 OpenBabel10232407463D

 25 28  0  0  1  0  0  0  0  0999 V2000
  188.9330  177.3240  142.6780 C   0  0  0  0  0  0  0  0  0  0  0  0
  187.7430  178.7890  141.1590 C   0  0  0  0  0  3  0  0  0  0  0  0
  186.5470  177.6480  142.9310 C   0  0  0  0  0  3  0  0  0  0  0  0
  188.9340  178.1930  141.5810 C   0  0  0  0  0  3  0  0  0  0  0  0
  186.5460  178.5200  141.8310 C   0  0  0  0  0  0  0  0  0  0  0  0
  187.7390  177.0520  143.3510 C   0  0  0  0  0  3  0  0  0  0  0  0
  184.3560  179.3720  142.4900 N   0  0  0  0  0  0  0  0  0  0  0  0
  185.2790  179.1620  141.3540 C   0  0  0  0  0  0  0  0  0  0  0  0
  182.9220  177.1860  139.2200 N   0  0  0  0  0  0  0  0  0  0  0  0
  182.5200  178.1350  141.4640 C   0  0  0  0  0  3  0  0  0  0  0  0
  183.1250  178.9270  142.5630 C   0  0  0  0  0  0  0  0  0  0  0  0
  184.6170  178.3450  140.2840 C   0  0  0  0  0  0  0  0  0  0  0  0
  182.3470  179.2090  143.7200 N   0  0  0  0  0  1  0  0  0  0  0  0
  185.0000  177.9450  139.0820 C   0  0  0  0  0  0  0  0  0  0  0  0
  183.2750  177.8790  140.4060 C   0  0  2  0  0  3  0  0  0  0  0  0
  183.9350  177.2250  138.4470 N   0  0  0  0  0  0  0  0  0  0  0  0
  187.3490  178.4130  137.9640 C   0  0  0  0  0  3  0  0  0  0  0  0
  186.2780  178.2010  138.4730 C   0  0  0  0  0  0  0  0  0  0  0  0
  190.9940  175.5290  143.4150 C   0  0  0  0  0  2  0  0  0  0  0  0
  191.5440  176.7760  143.6240 C   0  0  1  0  0  3  0  0  0  0  0  0
  190.1460  176.7170  143.1060 N   0  0  0  0  0  0  0  0  0  0  0  0
  191.5040  177.1350  145.0960 C   0  0  0  0  0  2  0  0  0  0  0  0
  191.9810  176.0640  145.8520 O   0  0  0  0  0  0  0  0  0  0  0  0
  191.4870  176.2930  147.1350 C   0  0  0  0  0  2  0  0  0  0  0  0
  190.1080  176.9140  147.0410 C   0  0  0  0  0  1  0  0  0  0  0  0
  1 21  1  0  0  0  0
  1  6  1  0  0  0  0
  2  4  1  0  0  0  0
  2  5  2  0  0  0  0
  3  6  2  0  0  0  0
  4  1  2  0  0  0  0
  5  3  1  0  0  0  0
  7 11  1  0  0  0  0
  8  5  1  0  0  0  0
  8  7  2  0  0  0  0
  9 15  1  0  0  0  0
 10 11  2  0  0  0  0
 11 13  1  0  0  0  0
 12 15  1  0  0  0  0
 12  8  1  0  0  0  0
 14 12  2  0  0  0  0
 15 10  1  6  0  0  0
 16 14  1  0  0  0  0
 16  9  2  0  0  0  0
 17 18  3  0  0  0  0
 18 14  1  0  0  0  0
 19 20  1  0  0  0  0
 20 22  1  1  0  0  0
 21 19  1  0  0  0  0
 21 20  1  0  0  0  0
 22 23  1  0  0  0  0
 23 24  1  0  0  0  0
 25 24  1  0  0  0  0
M  END
>  <MODEL>
9

>  <REMARK>
 VINA RESULT:      -5.8      2.806      4.467
  Name = 
  6 active torsions:
  status: ('A' for Active; 'I' for Inactive)
    1  A    between atoms: C_3  and  N_21
    2  A    between atoms: C_4  and  C_22
    3  A    between atoms: O_7  and  C_11
    4  A    between atoms: O_7  and  C_12
    5  A    between atoms: C_11  and  C_20
    6  A    between atoms: C_17  and  C_19
                            x       y       z     vdW  Elec       q    Type
                         _______ _______ _______ _____ _____    ______ ____

>  <TORSDO>
F 6

$$$$
