=
 OpenBabel10232408093D

 38 42  0  0  1  0  0  0  0  0999 V2000
  188.4180  177.5440  140.5660 C   0  0  2  0  0  3  0  0  0  0  0  0
  189.8560  177.2900  140.9890 C   0  0  0  0  0  2  0  0  0  0  0  0
  189.8820  176.3720  142.0700 O   0  0  0  0  0  0  0  0  0  0  0  0
  191.3040  176.5010  146.5340 C   0  0  0  0  0  0  0  0  0  0  0  0
  191.2010  176.5210  144.0680 C   0  0  0  0  0  2  0  0  0  0  0  0
  187.5680  177.4480  145.8180 C   0  0  0  0  0  3  0  0  0  0  0  0
  192.3880  175.5790  146.5760 N   0  0  0  0  0  1  0  0  0  0  0  0
  190.3830  176.5530  147.6420 N   0  0  0  0  0  0  0  0  0  0  0  0
  188.8160  177.9880  146.4550 C   0  0  0  0  0  0  0  0  0  0  0  0
  190.0910  176.7850  143.3840 C   0  0  1  0  0  3  0  0  0  0  0  0
  190.9830  177.1100  145.3920 C   0  0  0  0  0  0  0  0  0  0  0  0
  189.1590  177.5620  144.2070 C   0  0  1  0  0  3  0  0  0  0  0  0
  189.2670  177.1830  147.6020 N   0  0  0  0  0  0  0  0  0  0  0  0
  187.7690  177.2300  144.5150 C   0  0  0  0  0  3  0  0  0  0  0  0
  189.7590  177.8730  145.3200 C   0  0  0  0  0  0  0  0  0  0  0  0
  188.2130  177.3220  139.0630 C   0  0  0  0  0  2  0  0  0  0  0  0
  189.5020  177.3150  138.2350 C   0  0  2  0  0  3  0  0  0  0  0  0
  188.8730  179.5060  137.5150 O   0  0  0  0  0  1  0  0  0  0  0  0
  189.3710  178.2810  137.0710 C   0  0  0  0  0  2  0  0  0  0  0  0
  189.8540  175.9730  137.7650 N   0  0  0  0  0  2  0  0  0  0  0  0
  193.3790  175.6410  137.1920 C   0  0  0  0  0  0  0  0  0  0  0  0
  194.0590  176.8500  137.2450 O   0  0  0  0  0  1  0  0  0  0  0  0
  190.8050  175.6540  136.7410 C   0  0  0  0  0  3  0  0  0  0  0  0
  192.0920  175.6490  136.9620 C   0  0  0  0  0  0  0  0  0  0  0  0
  194.1470  174.3670  137.4270 C   0  0  2  0  0  3  0  0  0  0  0  0
  196.2980  173.5690  138.1230 N   0  0  0  0  0  0  0  0  0  0  0  0
  197.5330  174.3080  138.3040 C   0  0  0  0  0  1  0  0  0  0  0  0
  195.2130  174.4600  138.5010 C   0  0  0  0  0  2  0  0  0  0  0  0
  194.8970  173.9670  136.1880 C   0  0  0  0  0  2  0  0  0  0  0  0
  196.1610  173.3050  136.6930 C   0  0  0  0  0  2  0  0  0  0  0  0
  187.9560  178.9230  141.0080 C   0  0  0  0  0  2  0  0  0  0  0  0
  186.7550  178.8030  141.8190 N   0  0  0  0  0  2  0  0  0  0  0  0
  185.4500  179.0490  141.2910 C   0  0  0  0  0  0  0  0  0  0  0  0
  184.2940  178.8740  142.1080 N   0  0  0  0  0  2  0  0  0  0  0  0
  185.3110  179.4360  140.1000 O   0  0  0  0  0  0  0  0  0  0  0  0
  184.3820  178.3830  143.4720 C   0  0  0  0  0  3  0  0  0  0  0  0
  184.4550  179.5630  144.4230 C   0  0  0  0  0  2  0  0  0  0  0  0
  183.1510  178.8140  144.2400 C   0  0  0  0  0  2  0  0  0  0  0  0
  1 16  1  6  0  0  0
  1  2  1  0  0  0  0
  1 31  1  0  0  0  0
  2  3  1  0  0  0  0
  4  7  1  0  0  0  0
  4  8  1  0  0  0  0
  5 11  1  0  0  0  0
  6  9  1  0  0  0  0
  9 13  1  0  0  0  0
 10  3  1  6  0  0  0
 10  5  1  0  0  0  0
 10 12  1  0  0  0  0
 11  4  2  0  0  0  0
 12 14  1  1  0  0  0
 12 15  1  0  0  0  0
 13  8  2  0  0  0  0
 14  6  2  0  0  0  0
 15 11  1  0  0  0  0
 15  9  2  0  0  0  0
 17 19  1  6  0  0  0
 17 16  1  0  0  0  0
 19 18  1  0  0  0  0
 20 17  1  0  0  0  0
 21 22  1  0  0  0  0
 23 24  2  0  0  0  0
 23 20  1  0  0  0  0
 24 21  2  0  0  0  0
 25 21  1  6  0  0  0
 25 28  1  0  0  0  0
 26 27  1  0  0  0  0
 26 28  1  0  0  0  0
 29 30  1  0  0  0  0
 29 25  1  0  0  0  0
 30 26  1  0  0  0  0
 31 32  1  0  0  0  0
 33 32  1  0  0  0  0
 33 34  1  0  0  0  0
 34 36  1  0  0  0  0
 35 33  2  0  0  0  0
 36 38  1  0  0  0  0
 36 37  1  0  0  0  0
 38 37  1  0  0  0  0
M  END
>  <MODEL>
1

>  <REMARK>
 VINA RESULT:      -8.8      0.000      0.000
  Name = 
  12 active torsions:
  status: ('A' for Active; 'I' for Inactive)
    1  A    between atoms: C_2  and  N_23
    2  A    between atoms: N_3  and  C_36
    3  A    between atoms: C_4  and  C_14
    4  A    between atoms: C_4  and  O_15
    5  A    between atoms: N_8  and  CA_19
    6  A    between atoms: N_8  and  C_37
    7  A    between atoms: C_11  and  C_21
    8  A    between atoms: C_14  and  C_32
    9  A    between atoms: C_14  and  C_36
   10  A    between atoms: O_15  and  C_18
   11  A    between atoms: CA_19  and  C_26
   12  A    between atoms: CA_19  and  C_32
                            x       y       z     vdW  Elec       q    Type
                         _______ _______ _______ _____ _____    ______ ____

>  <TORSDO>
F 12

$$$$
=
 OpenBabel10232408093D

 38 42  0  0  1  0  0  0  0  0999 V2000
  188.7210  177.3680  140.4490 C   0  0  2  0  0  3  0  0  0  0  0  0
  190.1460  177.1530  140.9350 C   0  0  0  0  0  2  0  0  0  0  0  0
  190.1460  176.2560  142.0330 O   0  0  0  0  0  0  0  0  0  0  0  0
  191.3360  176.4860  146.5610 C   0  0  0  0  0  0  0  0  0  0  0  0
  191.3600  176.4540  144.0920 C   0  0  0  0  0  2  0  0  0  0  0  0
  187.6360  177.3920  145.6350 C   0  0  0  0  0  3  0  0  0  0  0  0
  192.4210  175.5720  146.6770 N   0  0  0  0  0  1  0  0  0  0  0  0
  190.3590  176.5540  147.6190 N   0  0  0  0  0  0  0  0  0  0  0  0
  188.8470  177.9540  146.3230 C   0  0  0  0  0  0  0  0  0  0  0  0
  190.2850  176.6970  143.3470 C   0  0  1  0  0  3  0  0  0  0  0  0
  191.0710  177.0690  145.3910 C   0  0  0  0  0  0  0  0  0  0  0  0
  189.3080  177.4840  144.1050 C   0  0  1  0  0  3  0  0  0  0  0  0
  189.2440  177.1760  147.5080 N   0  0  0  0  0  0  0  0  0  0  0  0
  187.9050  177.1490  144.3480 C   0  0  0  0  0  3  0  0  0  0  0  0
  189.8480  177.8220  145.2410 C   0  0  0  0  0  0  0  0  0  0  0  0
  188.5650  177.0370  138.9600 C   0  0  0  0  0  2  0  0  0  0  0  0
  189.6250  177.6650  138.0490 C   0  0  2  0  0  3  0  0  0  0  0  0
  188.9380  179.9010  137.5580 O   0  0  0  0  0  1  0  0  0  0  0  0
  188.9610  178.6000  137.0550 C   0  0  0  0  0  2  0  0  0  0  0  0
  190.4360  176.6570  137.3610 N   0  0  0  0  0  2  0  0  0  0  0  0
  188.2800  173.8940  136.6010 C   0  0  0  0  0  0  0  0  0  0  0  0
  188.7030  172.6970  137.1640 O   0  0  0  0  0  1  0  0  0  0  0  0
  190.0110  175.8230  136.2750 C   0  0  0  0  0  3  0  0  0  0  0  0
  189.1490  174.8560  136.4340 C   0  0  0  0  0  0  0  0  0  0  0  0
  186.8290  174.0450  136.2270 C   0  0  2  0  0  3  0  0  0  0  0  0
  184.9690  175.5380  136.4780 N   0  0  0  0  0  0  0  0  0  0  0  0
  184.8320  176.6900  137.3490 C   0  0  0  0  0  1  0  0  0  0  0  0
  186.3640  175.4800  136.0710 C   0  0  0  0  0  2  0  0  0  0  0  0
  185.9450  173.4800  137.3030 C   0  0  0  0  0  2  0  0  0  0  0  0
  184.7080  174.3520  137.2910 C   0  0  0  0  0  2  0  0  0  0  0  0
  188.2420  178.7740  140.7740 C   0  0  0  0  0  2  0  0  0  0  0  0
  187.0270  178.7070  141.5700 N   0  0  0  0  0  2  0  0  0  0  0  0
  185.7300  178.8900  140.9970 C   0  0  0  0  0  0  0  0  0  0  0  0
  184.5600  178.7690  141.8040 N   0  0  0  0  0  2  0  0  0  0  0  0
  185.6090  179.1720  139.7750 O   0  0  0  0  0  0  0  0  0  0  0  0
  184.6260  178.3980  143.2070 C   0  0  0  0  0  3  0  0  0  0  0  0
  184.5470  179.6510  144.0580 C   0  0  0  0  0  2  0  0  0  0  0  0
  183.3260  178.7710  143.8860 C   0  0  0  0  0  2  0  0  0  0  0  0
  1 16  1  6  0  0  0
  1 31  1  0  0  0  0
  1  2  1  0  0  0  0
  2  3  1  0  0  0  0
  4  7  1  0  0  0  0
  4  8  1  0  0  0  0
  5 11  1  0  0  0  0
  6  9  1  0  0  0  0
  9 13  1  0  0  0  0
 10  3  1  6  0  0  0
 10  5  1  0  0  0  0
 10 12  1  0  0  0  0
 11  4  2  0  0  0  0
 12 14  1  1  0  0  0
 12 15  1  0  0  0  0
 13  8  2  0  0  0  0
 14  6  2  0  0  0  0
 15 11  1  0  0  0  0
 15  9  2  0  0  0  0
 17 19  1  6  0  0  0
 17 16  1  0  0  0  0
 19 18  1  0  0  0  0
 20 17  1  0  0  0  0
 21 22  1  0  0  0  0
 23 24  2  0  0  0  0
 23 20  1  0  0  0  0
 24 21  2  0  0  0  0
 25 21  1  1  0  0  0
 25 29  1  0  0  0  0
 26 30  1  0  0  0  0
 26 27  1  0  0  0  0
 28 25  1  0  0  0  0
 28 26  1  0  0  0  0
 30 29  1  0  0  0  0
 31 32  1  0  0  0  0
 33 32  1  0  0  0  0
 33 34  1  0  0  0  0
 34 36  1  0  0  0  0
 35 33  2  0  0  0  0
 36 38  1  0  0  0  0
 36 37  1  0  0  0  0
 38 37  1  0  0  0  0
M  END
>  <MODEL>
2

>  <REMARK>
 VINA RESULT:      -8.8      2.767      4.434
  Name = 
  12 active torsions:
  status: ('A' for Active; 'I' for Inactive)
    1  A    between atoms: C_2  and  N_23
    2  A    between atoms: N_3  and  C_36
    3  A    between atoms: C_4  and  C_14
    4  A    between atoms: C_4  and  O_15
    5  A    between atoms: N_8  and  CA_19
    6  A    between atoms: N_8  and  C_37
    7  A    between atoms: C_11  and  C_21
    8  A    between atoms: C_14  and  C_32
    9  A    between atoms: C_14  and  C_36
   10  A    between atoms: O_15  and  C_18
   11  A    between atoms: CA_19  and  C_26
   12  A    between atoms: CA_19  and  C_32
                            x       y       z     vdW  Elec       q    Type
                         _______ _______ _______ _____ _____    ______ ____

>  <TORSDO>
F 12

$$$$
=
 OpenBabel10232408093D

 38 42  0  0  1  0  0  0  0  0999 V2000
  185.7720  178.8090  142.0920 C   0  0  2  0  0  3  0  0  0  0  0  0
  187.0410  177.9730  142.1330 C   0  0  0  0  0  2  0  0  0  0  0  0
  187.1500  177.3300  143.3930 O   0  0  0  0  0  0  0  0  0  0  0  0
  191.4040  176.3840  145.1180 C   0  0  0  0  0  0  0  0  0  0  0  0
  189.5160  177.0650  143.6810 C   0  0  0  0  0  2  0  0  0  0  0  0
  188.5410  177.0890  147.7020 C   0  0  0  0  0  3  0  0  0  0  0  0
  192.0220  175.6050  144.1000 N   0  0  0  0  0  1  0  0  0  0  0  0
  191.6220  176.0330  146.5000 N   0  0  0  0  0  0  0  0  0  0  0  0
  189.9090  177.5640  147.3050 C   0  0  0  0  0  0  0  0  0  0  0  0
  188.3160  177.3870  144.1540 C   0  0  1  0  0  3  0  0  0  0  0  0
  190.4320  177.2440  144.8110 C   0  0  0  0  0  0  0  0  0  0  0  0
  188.4160  177.8070  145.5550 C   0  0  1  0  0  3  0  0  0  0  0  0
  190.9440  176.5290  147.4680 N   0  0  0  0  0  0  0  0  0  0  0  0
  187.6810  177.2590  146.6940 C   0  0  0  0  0  3  0  0  0  0  0  0
  189.6780  177.8630  145.8740 C   0  0  0  0  0  0  0  0  0  0  0  0
  184.6590  178.2070  142.9580 C   0  0  0  0  0  2  0  0  0  0  0  0
  184.0040  179.1890  143.9350 C   0  0  2  0  0  3  0  0  0  0  0  0
  184.2260  178.7700  146.2770 O   0  0  0  0  0  1  0  0  0  0  0  0
  184.8670  179.3340  145.1750 C   0  0  0  0  0  2  0  0  0  0  0  0
  182.6390  178.7950  144.2890 N   0  0  0  0  0  2  0  0  0  0  0  0
  181.4830  178.4860  140.9070 C   0  0  0  0  0  0  0  0  0  0  0  0
  182.0350  179.4300  140.0520 O   0  0  0  0  0  1  0  0  0  0  0  0
  181.4690  178.9620  143.4770 C   0  0  0  0  0  3  0  0  0  0  0  0
  181.4730  178.7280  142.1930 C   0  0  0  0  0  0  0  0  0  0  0  0
  180.9400  177.2090  140.3250 C   0  0  2  0  0  3  0  0  0  0  0  0
  181.3560  175.6080  138.5880 N   0  0  0  0  0  0  0  0  0  0  0  0
  182.2700  175.6950  137.4650 C   0  0  0  0  0  1  0  0  0  0  0  0
  181.9850  176.3060  139.6980 C   0  0  0  0  0  2  0  0  0  0  0  0
  179.9820  177.5050  139.2060 C   0  0  0  0  0  2  0  0  0  0  0  0
  180.1590  176.3640  138.2260 C   0  0  0  0  0  2  0  0  0  0  0  0
  185.3190  179.0400  140.6600 C   0  0  0  0  0  2  0  0  0  0  0  0
  186.3960  178.7000  139.7430 N   0  0  0  0  0  2  0  0  0  0  0  0
  186.1510  178.1000  138.4680 C   0  0  0  0  0  0  0  0  0  0  0  0
  187.2320  177.8260  137.5790 N   0  0  0  0  0  2  0  0  0  0  0  0
  184.9780  177.7970  138.1250 O   0  0  0  0  0  0  0  0  0  0  0  0
  188.6010  178.1950  137.8930 C   0  0  0  0  0  3  0  0  0  0  0  0
  189.4040  176.9400  138.1750 C   0  0  0  0  0  2  0  0  0  0  0  0
  189.5270  177.6350  136.8350 C   0  0  0  0  0  2  0  0  0  0  0  0
  1 31  1  6  0  0  0
  1  2  1  0  0  0  0
  1 16  1  0  0  0  0
  2  3  1  0  0  0  0
  4  8  1  0  0  0  0
  5 10  1  0  0  0  0
  5 11  1  0  0  0  0
  7  4  1  0  0  0  0
  8 13  2  0  0  0  0
  9 13  1  0  0  0  0
  9  6  1  0  0  0  0
 10  3  1  6  0  0  0
 10 12  1  0  0  0  0
 11  4  2  0  0  0  0
 11 15  1  0  0  0  0
 12 15  1  0  0  0  0
 12 14  1  1  0  0  0
 14  6  2  0  0  0  0
 15  9  2  0  0  0  0
 17 16  1  6  0  0  0
 17 20  1  0  0  0  0
 17 19  1  0  0  0  0
 19 18  1  0  0  0  0
 21 24  2  0  0  0  0
 22 21  1  0  0  0  0
 23 20  1  0  0  0  0
 24 23  2  0  0  0  0
 25 21  1  6  0  0  0
 26 28  1  0  0  0  0
 27 26  1  0  0  0  0
 28 25  1  0  0  0  0
 29 25  1  0  0  0  0
 30 26  1  0  0  0  0
 30 29  1  0  0  0  0
 32 31  1  0  0  0  0
 33 32  1  0  0  0  0
 34 36  1  0  0  0  0
 34 33  1  0  0  0  0
 35 33  2  0  0  0  0
 36 37  1  0  0  0  0
 38 36  1  0  0  0  0
 38 37  1  0  0  0  0
M  END
>  <MODEL>
3

>  <REMARK>
 VINA RESULT:      -8.4      3.674      8.408
  Name = 
  12 active torsions:
  status: ('A' for Active; 'I' for Inactive)
    1  A    between atoms: C_2  and  N_23
    2  A    between atoms: N_3  and  C_36
    3  A    between atoms: C_4  and  C_14
    4  A    between atoms: C_4  and  O_15
    5  A    between atoms: N_8  and  CA_19
    6  A    between atoms: N_8  and  C_37
    7  A    between atoms: C_11  and  C_21
    8  A    between atoms: C_14  and  C_32
    9  A    between atoms: C_14  and  C_36
   10  A    between atoms: O_15  and  C_18
   11  A    between atoms: CA_19  and  C_26
   12  A    between atoms: CA_19  and  C_32
                            x       y       z     vdW  Elec       q    Type
                         _______ _______ _______ _____ _____    ______ ____

>  <TORSDO>
F 12

$$$$
=
 OpenBabel10232408093D

 38 42  0  0  1  0  0  0  0  0999 V2000
  189.4720  177.8080  139.7110 C   0  0  2  0  0  3  0  0  0  0  0  0
  188.7800  178.3580  140.9480 C   0  0  0  0  0  2  0  0  0  0  0  0
  188.5570  177.3100  141.8770 O   0  0  0  0  0  0  0  0  0  0  0  0
  185.1890  178.9400  144.7000 C   0  0  0  0  0  0  0  0  0  0  0  0
  186.4490  177.9690  142.8120 C   0  0  0  0  0  2  0  0  0  0  0  0
  188.5060  177.7170  146.3930 C   0  0  0  0  0  3  0  0  0  0  0  0
  184.4470  179.8280  143.8710 N   0  0  0  0  0  1  0  0  0  0  0  0
  185.4340  179.3010  146.0740 N   0  0  0  0  0  0  0  0  0  0  0  0
  187.0230  177.4890  146.4150 C   0  0  0  0  0  0  0  0  0  0  0  0
  187.6620  177.4400  142.9370 C   0  0  1  0  0  3  0  0  0  0  0  0
  185.8750  177.9320  144.1600 C   0  0  0  0  0  0  0  0  0  0  0  0
  187.8950  177.0220  144.3230 C   0  0  1  0  0  3  0  0  0  0  0  0
  186.2660  178.6820  146.8280 N   0  0  0  0  0  0  0  0  0  0  0  0
  189.0040  177.4190  145.1890 C   0  0  0  0  0  3  0  0  0  0  0  0
  186.7850  177.1760  144.9880 C   0  0  0  0  0  0  0  0  0  0  0  0
  188.5120  177.0090  138.8220 C   0  0  0  0  0  2  0  0  0  0  0  0
  188.0450  177.7430  137.5610 C   0  0  2  0  0  3  0  0  0  0  0  0
  188.8650  179.9790  137.3570 O   0  0  0  0  0  1  0  0  0  0  0  0
  189.1520  178.6480  137.0520 C   0  0  0  0  0  2  0  0  0  0  0  0
  186.8090  178.4990  137.7810 N   0  0  0  0  0  2  0  0  0  0  0  0
  183.4470  179.2510  138.7780 C   0  0  0  0  0  0  0  0  0  0  0  0
  183.2330  180.6030  139.0080 O   0  0  0  0  0  1  0  0  0  0  0  0
  185.8880  178.3220  138.8650 C   0  0  0  0  0  3  0  0  0  0  0  0
  184.6690  178.7870  138.8270 C   0  0  0  0  0  0  0  0  0  0  0  0
  182.2660  178.3740  138.4570 C   0  0  2  0  0  3  0  0  0  0  0  0
  181.6850  176.0900  138.0180 N   0  0  0  0  0  0  0  0  0  0  0  0
  182.5550  174.9600  137.7550 C   0  0  0  0  0  1  0  0  0  0  0  0
  182.3820  176.9490  138.9620 C   0  0  0  0  0  2  0  0  0  0  0  0
  182.1020  178.2330  136.9700 C   0  0  0  0  0  2  0  0  0  0  0  0
  181.5600  176.8350  136.7670 C   0  0  0  0  0  2  0  0  0  0  0  0
  190.7040  177.0020  140.0900 C   0  0  0  0  0  2  0  0  0  0  0  0
  191.4720  176.6880  138.8960 N   0  0  0  0  0  2  0  0  0  0  0  0
  192.8930  176.8370  138.8420 C   0  0  0  0  0  0  0  0  0  0  0  0
  193.6140  176.4720  137.6670 N   0  0  0  0  0  2  0  0  0  0  0  0
  193.5200  177.3040  139.8300 O   0  0  0  0  0  0  0  0  0  0  0  0
  192.9580  175.8820  136.5120 C   0  0  0  0  0  3  0  0  0  0  0  0
  193.8720  175.9950  135.3080 C   0  0  0  0  0  2  0  0  0  0  0  0
  193.7500  174.6780  136.0470 C   0  0  0  0  0  2  0  0  0  0  0  0
  1 16  1  1  0  0  0
  1 31  1  0  0  0  0
  1  2  1  0  0  0  0
  2  3  1  0  0  0  0
  4  8  1  0  0  0  0
  5 10  1  0  0  0  0
  5 11  1  0  0  0  0
  6  9  1  0  0  0  0
  7  4  1  0  0  0  0
  8 13  2  0  0  0  0
  9 13  1  0  0  0  0
 10  3  1  6  0  0  0
 10 12  1  0  0  0  0
 11  4  2  0  0  0  0
 11 15  1  0  0  0  0
 12 15  1  0  0  0  0
 12 14  1  1  0  0  0
 14  6  2  0  0  0  0
 15  9  2  0  0  0  0
 17 19  1  1  0  0  0
 17 20  1  0  0  0  0
 17 16  1  0  0  0  0
 19 18  1  0  0  0  0
 20 23  1  0  0  0  0
 21 24  2  0  0  0  0
 21 22  1  0  0  0  0
 24 23  2  0  0  0  0
 25 21  1  6  0  0  0
 25 28  1  0  0  0  0
 26 28  1  0  0  0  0
 27 26  1  0  0  0  0
 29 25  1  0  0  0  0
 30 29  1  0  0  0  0
 30 26  1  0  0  0  0
 32 31  1  0  0  0  0
 33 32  1  0  0  0  0
 33 35  2  0  0  0  0
 34 33  1  0  0  0  0
 36 34  1  0  0  0  0
 37 38  1  0  0  0  0
 37 36  1  0  0  0  0
 38 36  1  0  0  0  0
M  END
>  <MODEL>
4

>  <REMARK>
 VINA RESULT:      -8.4      2.892      8.318
  Name = 
  12 active torsions:
  status: ('A' for Active; 'I' for Inactive)
    1  A    between atoms: C_2  and  N_23
    2  A    between atoms: N_3  and  C_36
    3  A    between atoms: C_4  and  C_14
    4  A    between atoms: C_4  and  O_15
    5  A    between atoms: N_8  and  CA_19
    6  A    between atoms: N_8  and  C_37
    7  A    between atoms: C_11  and  C_21
    8  A    between atoms: C_14  and  C_32
    9  A    between atoms: C_14  and  C_36
   10  A    between atoms: O_15  and  C_18
   11  A    between atoms: CA_19  and  C_26
   12  A    between atoms: CA_19  and  C_32
                            x       y       z     vdW  Elec       q    Type
                         _______ _______ _______ _____ _____    ______ ____

>  <TORSDO>
F 12

$$$$
=
 OpenBabel10232408093D

 38 42  0  0  1  0  0  0  0  0999 V2000
  189.4830  177.8470  139.8900 C   0  0  2  0  0  3  0  0  0  0  0  0
  188.7800  178.3590  141.1380 C   0  0  0  0  0  2  0  0  0  0  0  0
  188.3600  177.2620  141.9330 O   0  0  0  0  0  0  0  0  0  0  0  0
  185.0810  178.9730  144.8130 C   0  0  0  0  0  0  0  0  0  0  0  0
  186.2820  177.9490  142.9140 C   0  0  0  0  0  2  0  0  0  0  0  0
  188.4500  177.7940  146.4360 C   0  0  0  0  0  3  0  0  0  0  0  0
  184.3140  179.8390  143.9840 N   0  0  0  0  0  1  0  0  0  0  0  0
  185.3690  179.3710  146.1680 N   0  0  0  0  0  0  0  0  0  0  0  0
  186.9670  177.5670  146.5100 C   0  0  0  0  0  0  0  0  0  0  0  0
  187.4990  177.4220  143.0170 C   0  0  1  0  0  3  0  0  0  0  0  0
  185.7500  177.9490  144.2800 C   0  0  0  0  0  0  0  0  0  0  0  0
  187.7740  177.0420  144.4060 C   0  0  1  0  0  3  0  0  0  0  0  0
  186.2240  178.7730  146.9130 N   0  0  0  0  0  0  0  0  0  0  0  0
  188.9100  177.4620  145.2260 C   0  0  0  0  0  3  0  0  0  0  0  0
  186.6850  177.2160  145.1000 C   0  0  0  0  0  0  0  0  0  0  0  0
  188.5570  176.9930  139.0170 C   0  0  0  0  0  2  0  0  0  0  0  0
  187.7250  177.7830  138.0010 C   0  0  2  0  0  3  0  0  0  0  0  0
  187.8010  179.7990  136.7200 O   0  0  0  0  0  1  0  0  0  0  0  0
  188.5960  178.8220  137.3200 C   0  0  0  0  0  2  0  0  0  0  0  0
  186.5460  178.4030  138.6100 N   0  0  0  0  0  2  0  0  0  0  0  0
  183.3990  176.7030  138.8810 C   0  0  0  0  0  0  0  0  0  0  0  0
  183.4370  175.4010  138.4030 O   0  0  0  0  0  1  0  0  0  0  0  0
  185.2150  178.4010  138.0760 C   0  0  0  0  0  3  0  0  0  0  0  0
  184.3060  177.5530  138.4730 C   0  0  0  0  0  0  0  0  0  0  0  0
  182.3290  177.0820  139.8710 C   0  0  2  0  0  3  0  0  0  0  0  0
  180.7400  178.8130  140.3510 N   0  0  0  0  0  0  0  0  0  0  0  0
  180.6280  180.1370  139.7700 C   0  0  0  0  0  1  0  0  0  0  0  0
  181.2090  177.9280  139.2960 C   0  0  0  0  0  2  0  0  0  0  0  0
  182.9050  177.9220  140.9750 C   0  0  0  0  0  2  0  0  0  0  0  0
  181.7940  178.8750  141.3610 C   0  0  0  0  0  2  0  0  0  0  0  0
  190.7650  177.1140  140.2510 C   0  0  0  0  0  2  0  0  0  0  0  0
  191.4510  176.6980  139.0380 N   0  0  0  0  0  2  0  0  0  0  0  0
  192.8680  176.8160  138.8850 C   0  0  0  0  0  0  0  0  0  0  0  0
  193.5070  176.3510  137.6980 N   0  0  0  0  0  2  0  0  0  0  0  0
  193.5630  177.3430  139.7940 O   0  0  0  0  0  0  0  0  0  0  0  0
  192.7710  175.6900  136.6340 C   0  0  0  0  0  3  0  0  0  0  0  0
  193.6800  174.6880  135.9470 C   0  0  0  0  0  2  0  0  0  0  0  0
  192.6490  174.2150  136.9510 C   0  0  0  0  0  2  0  0  0  0  0  0
  1 16  1  1  0  0  0
  1 31  1  0  0  0  0
  1  2  1  0  0  0  0
  2  3  1  0  0  0  0
  4  8  1  0  0  0  0
  5 10  1  0  0  0  0
  5 11  1  0  0  0  0
  6  9  1  0  0  0  0
  7  4  1  0  0  0  0
  8 13  2  0  0  0  0
  9 13  1  0  0  0  0
 10  3  1  6  0  0  0
 10 12  1  0  0  0  0
 11  4  2  0  0  0  0
 11 15  1  0  0  0  0
 12 15  1  0  0  0  0
 12 14  1  1  0  0  0
 14  6  2  0  0  0  0
 15  9  2  0  0  0  0
 17 19  1  1  0  0  0
 17 20  1  0  0  0  0
 17 16  1  0  0  0  0
 18 19  1  0  0  0  0
 22 21  1  0  0  0  0
 23 24  2  0  0  0  0
 23 20  1  0  0  0  0
 24 21  2  0  0  0  0
 25 21  1  6  0  0  0
 25 29  1  0  0  0  0
 26 30  1  0  0  0  0
 27 26  1  0  0  0  0
 28 25  1  0  0  0  0
 28 26  1  0  0  0  0
 29 30  1  0  0  0  0
 32 31  1  0  0  0  0
 33 32  1  0  0  0  0
 33 35  2  0  0  0  0
 34 33  1  0  0  0  0
 36 38  1  0  0  0  0
 36 34  1  0  0  0  0
 37 36  1  0  0  0  0
 37 38  1  0  0  0  0
M  END
>  <MODEL>
5

>  <REMARK>
 VINA RESULT:      -8.3      2.640      8.570
  Name = 
  12 active torsions:
  status: ('A' for Active; 'I' for Inactive)
    1  A    between atoms: C_2  and  N_23
    2  A    between atoms: N_3  and  C_36
    3  A    between atoms: C_4  and  C_14
    4  A    between atoms: C_4  and  O_15
    5  A    between atoms: N_8  and  CA_19
    6  A    between atoms: N_8  and  C_37
    7  A    between atoms: C_11  and  C_21
    8  A    between atoms: C_14  and  C_32
    9  A    between atoms: C_14  and  C_36
   10  A    between atoms: O_15  and  C_18
   11  A    between atoms: CA_19  and  C_26
   12  A    between atoms: CA_19  and  C_32
                            x       y       z     vdW  Elec       q    Type
                         _______ _______ _______ _____ _____    ______ ____

>  <TORSDO>
F 12

$$$$
=
 OpenBabel10232408093D

 38 42  0  0  1  0  0  0  0  0999 V2000
  188.3520  177.6170  139.4520 C   0  0  2  0  0  3  0  0  0  0  0  0
  188.0570  178.4160  140.7120 C   0  0  0  0  0  2  0  0  0  0  0  0
  188.2760  177.6050  141.8550 O   0  0  0  0  0  0  0  0  0  0  0  0
  184.9890  178.9520  144.9130 C   0  0  0  0  0  0  0  0  0  0  0  0
  186.1920  178.1200  142.9240 C   0  0  0  0  0  2  0  0  0  0  0  0
  188.4470  177.8310  146.3810 C   0  0  0  0  0  3  0  0  0  0  0  0
  184.1620  179.8340  144.1620 N   0  0  0  0  0  1  0  0  0  0  0  0
  185.2890  179.2710  146.2860 N   0  0  0  0  0  0  0  0  0  0  0  0
  186.9800  177.5280  146.4690 C   0  0  0  0  0  0  0  0  0  0  0  0
  187.4340  177.6480  142.9640 C   0  0  1  0  0  3  0  0  0  0  0  0
  185.6930  178.0020  144.2970 C   0  0  0  0  0  0  0  0  0  0  0  0
  187.7600  177.1880  144.3180 C   0  0  1  0  0  3  0  0  0  0  0  0
  186.1890  178.6650  146.9700 N   0  0  0  0  0  0  0  0  0  0  0  0
  188.8940  177.6060  145.1410 C   0  0  0  0  0  3  0  0  0  0  0  0
  186.6810  177.2610  145.0440 C   0  0  0  0  0  0  0  0  0  0  0  0
  189.8320  177.6910  139.0590 C   0  0  0  0  0  2  0  0  0  0  0  0
  190.7500  176.7420  139.8360 C   0  0  2  0  0  3  0  0  0  0  0  0
  191.7420  177.0760  141.9840 O   0  0  0  0  0  1  0  0  0  0  0  0
  191.7320  177.5440  140.6700 C   0  0  0  0  0  2  0  0  0  0  0  0
  191.4520  175.8030  138.9580 N   0  0  0  0  0  2  0  0  0  0  0  0
  190.9500  173.5060  136.2490 C   0  0  0  0  0  0  0  0  0  0  0  0
  192.0100  172.6290  136.0700 O   0  0  0  0  0  1  0  0  0  0  0  0
  191.3610  175.7470  137.5280 C   0  0  0  0  0  3  0  0  0  0  0  0
  191.1580  174.6300  136.8850 C   0  0  0  0  0  0  0  0  0  0  0  0
  189.5920  173.1190  135.7240 C   0  0  2  0  0  3  0  0  0  0  0  0
  187.4970  174.0690  135.0470 N   0  0  0  0  0  0  0  0  0  0  0  0
  187.0070  175.4220  135.2250 C   0  0  0  0  0  1  0  0  0  0  0  0
  188.9340  174.1640  134.8440 C   0  0  0  0  0  2  0  0  0  0  0  0
  188.6250  172.9210  136.8570 C   0  0  0  0  0  2  0  0  0  0  0  0
  187.2860  173.3670  136.3110 C   0  0  0  0  0  2  0  0  0  0  0  0
  187.4360  178.0390  138.3150 C   0  0  0  0  0  2  0  0  0  0  0  0
  186.1330  178.4080  138.8430 N   0  0  0  0  0  2  0  0  0  0  0  0
  184.9190  178.1390  138.1370 C   0  0  0  0  0  0  0  0  0  0  0  0
  183.6580  178.4740  138.7120 N   0  0  0  0  0  2  0  0  0  0  0  0
  184.9550  177.6130  136.9920 O   0  0  0  0  0  0  0  0  0  0  0  0
  183.5450  179.0360  140.0470 C   0  0  0  0  0  3  0  0  0  0  0  0
  182.1290  178.8410  140.5520 C   0  0  0  0  0  2  0  0  0  0  0  0
  183.2380  177.9290  141.0330 C   0  0  0  0  0  2  0  0  0  0  0  0
  1 31  1  6  0  0  0
  1  2  1  0  0  0  0
  2  3  1  0  0  0  0
  4  8  1  0  0  0  0
  5 10  1  0  0  0  0
  5 11  1  0  0  0  0
  6  9  1  0  0  0  0
  7  4  1  0  0  0  0
  8 13  2  0  0  0  0
  9 13  1  0  0  0  0
 10  3  1  6  0  0  0
 10 12  1  0  0  0  0
 11  4  2  0  0  0  0
 11 15  1  0  0  0  0
 12 15  1  0  0  0  0
 12 14  1  1  0  0  0
 14  6  2  0  0  0  0
 15  9  2  0  0  0  0
 16  1  1  0  0  0  0
 17 16  1  6  0  0  0
 17 19  1  0  0  0  0
 19 18  1  0  0  0  0
 20 17  1  0  0  0  0
 21 24  2  0  0  0  0
 22 21  1  0  0  0  0
 23 20  1  0  0  0  0
 24 23  2  0  0  0  0
 25 21  1  1  0  0  0
 25 29  1  0  0  0  0
 26 27  1  0  0  0  0
 26 30  1  0  0  0  0
 28 26  1  0  0  0  0
 28 25  1  0  0  0  0
 30 29  1  0  0  0  0
 31 32  1  0  0  0  0
 33 34  1  0  0  0  0
 33 32  1  0  0  0  0
 34 36  1  0  0  0  0
 35 33  2  0  0  0  0
 36 37  1  0  0  0  0
 36 38  1  0  0  0  0
 37 38  1  0  0  0  0
M  END
>  <MODEL>
6

>  <REMARK>
 VINA RESULT:      -8.1      3.058      4.840
  Name = 
  12 active torsions:
  status: ('A' for Active; 'I' for Inactive)
    1  A    between atoms: C_2  and  N_23
    2  A    between atoms: N_3  and  C_36
    3  A    between atoms: C_4  and  C_14
    4  A    between atoms: C_4  and  O_15
    5  A    between atoms: N_8  and  CA_19
    6  A    between atoms: N_8  and  C_37
    7  A    between atoms: C_11  and  C_21
    8  A    between atoms: C_14  and  C_32
    9  A    between atoms: C_14  and  C_36
   10  A    between atoms: O_15  and  C_18
   11  A    between atoms: CA_19  and  C_26
   12  A    between atoms: CA_19  and  C_32
                            x       y       z     vdW  Elec       q    Type
                         _______ _______ _______ _____ _____    ______ ____

>  <TORSDO>
F 12

$$$$
=
 OpenBabel10232408093D

 38 42  0  0  1  0  0  0  0  0999 V2000
  186.8420  177.5310  142.8560 C   0  0  2  0  0  3  0  0  0  0  0  0
  187.1210  178.6140  141.8270 C   0  0  0  0  0  2  0  0  0  0  0  0
  188.4120  178.4230  141.2690 O   0  0  0  0  0  0  0  0  0  0  0  0
  187.6600  177.2300  136.7990 C   0  0  0  0  0  0  0  0  0  0  0  0
  187.6480  178.3550  138.9960 C   0  0  0  0  0  2  0  0  0  0  0  0
  190.9710  175.9470  138.4610 C   0  0  0  0  0  3  0  0  0  0  0  0
  186.2420  177.2630  136.6690 N   0  0  0  0  0  1  0  0  0  0  0  0
  188.4010  176.1850  136.1380 N   0  0  0  0  0  0  0  0  0  0  0  0
  190.4760  176.7380  137.2850 C   0  0  0  0  0  0  0  0  0  0  0  0
  188.6010  178.1880  139.9090 C   0  0  1  0  0  3  0  0  0  0  0  0
  188.2670  177.9740  137.7240 C   0  0  0  0  0  0  0  0  0  0  0  0
  189.8430  177.7400  139.2720 C   0  0  1  0  0  3  0  0  0  0  0  0
  189.6380  175.9430  136.3710 N   0  0  0  0  0  0  0  0  0  0  0  0
  190.6230  176.5480  139.6030 C   0  0  0  0  0  3  0  0  0  0  0  0
  189.6730  177.7690  137.9810 C   0  0  0  0  0  0  0  0  0  0  0  0
  186.1840  178.0950  144.1200 C   0  0  0  0  0  2  0  0  0  0  0  0
  184.8170  178.7490  143.8940 C   0  0  2  0  0  3  0  0  0  0  0  0
  184.8970  179.1350  146.2520 O   0  0  0  0  0  1  0  0  0  0  0  0
  184.0460  178.7950  145.2010 C   0  0  0  0  0  2  0  0  0  0  0  0
  184.0420  178.0730  142.8510 N   0  0  0  0  0  2  0  0  0  0  0  0
  183.6390  178.9840  139.4050 C   0  0  0  0  0  0  0  0  0  0  0  0
  184.4850  180.0100  139.0070 O   0  0  0  0  0  1  0  0  0  0  0  0
  183.1150  178.6900  141.9480 C   0  0  0  0  0  3  0  0  0  0  0  0
  183.3740  178.8410  140.6780 C   0  0  0  0  0  0  0  0  0  0  0  0
  183.0780  178.0590  138.3580 C   0  0  2  0  0  3  0  0  0  0  0  0
  181.1290  176.7590  137.8470 N   0  0  0  0  0  0  0  0  0  0  0  0
  180.0040  176.4240  138.7000 C   0  0  0  0  0  1  0  0  0  0  0  0
  181.5670  178.0920  138.2310 C   0  0  0  0  0  2  0  0  0  0  0  0
  183.3950  176.6290  138.6930 C   0  0  0  0  0  2  0  0  0  0  0  0
  182.2110  175.8360  138.1830 C   0  0  0  0  0  2  0  0  0  0  0  0
  188.1020  176.7420  143.1710 C   0  0  0  0  0  2  0  0  0  0  0  0
  188.3970  176.8340  144.5920 N   0  0  0  0  0  2  0  0  0  0  0  0
  189.5200  177.5640  145.0930 C   0  0  0  0  0  0  0  0  0  0  0  0
  189.7460  177.6690  146.4970 N   0  0  0  0  0  2  0  0  0  0  0  0
  190.3270  178.1120  144.2960 O   0  0  0  0  0  0  0  0  0  0  0  0
  188.8280  177.1030  147.4700 C   0  0  0  0  0  3  0  0  0  0  0  0
  188.7220  178.0390  148.6590 C   0  0  0  0  0  2  0  0  0  0  0  0
  187.6260  178.0120  147.6130 C   0  0  0  0  0  2  0  0  0  0  0  0
  1  2  1  6  0  0  0
  1 31  1  0  0  0  0
  1 16  1  0  0  0  0
  3  2  1  0  0  0  0
  4 11  1  0  0  0  0
  5 10  1  0  0  0  0
  6 14  2  0  0  0  0
  7  4  1  0  0  0  0
  8 13  1  0  0  0  0
  8  4  2  0  0  0  0
  9 15  1  0  0  0  0
  9  6  1  0  0  0  0
 10  3  1  6  0  0  0
 11 15  2  0  0  0  0
 11  5  1  0  0  0  0
 12 14  1  1  0  0  0
 12 10  1  0  0  0  0
 13  9  2  0  0  0  0
 15 12  1  0  0  0  0
 17 16  1  1  0  0  0
 17 19  1  0  0  0  0
 19 18  1  0  0  0  0
 20 17  1  0  0  0  0
 21 24  2  0  0  0  0
 22 21  1  0  0  0  0
 23 20  1  0  0  0  0
 24 23  2  0  0  0  0
 25 29  1  0  0  0  0
 25 21  1  1  0  0  0
 26 30  1  0  0  0  0
 26 28  1  0  0  0  0
 26 27  1  0  0  0  0
 28 25  1  0  0  0  0
 30 29  1  0  0  0  0
 31 32  1  0  0  0  0
 32 33  1  0  0  0  0
 33 34  1  0  0  0  0
 34 36  1  0  0  0  0
 35 33  2  0  0  0  0
 36 38  1  0  0  0  0
 36 37  1  0  0  0  0
 38 37  1  0  0  0  0
M  END
>  <MODEL>
7

>  <REMARK>
 VINA RESULT:      -8.1      3.041      9.141
  Name = 
  12 active torsions:
  status: ('A' for Active; 'I' for Inactive)
    1  A    between atoms: C_2  and  N_23
    2  A    between atoms: N_3  and  C_36
    3  A    between atoms: C_4  and  C_14
    4  A    between atoms: C_4  and  O_15
    5  A    between atoms: N_8  and  CA_19
    6  A    between atoms: N_8  and  C_37
    7  A    between atoms: C_11  and  C_21
    8  A    between atoms: C_14  and  C_32
    9  A    between atoms: C_14  and  C_36
   10  A    between atoms: O_15  and  C_18
   11  A    between atoms: CA_19  and  C_26
   12  A    between atoms: CA_19  and  C_32
                            x       y       z     vdW  Elec       q    Type
                         _______ _______ _______ _____ _____    ______ ____

>  <TORSDO>
F 12

$$$$
=
 OpenBabel10232408093D

 38 42  0  0  1  0  0  0  0  0999 V2000
  185.1090  179.0590  141.4580 C   0  0  2  0  0  3  0  0  0  0  0  0
  186.4470  178.4520  141.0680 C   0  0  0  0  0  2  0  0  0  0  0  0
  186.6930  178.6800  139.6900 O   0  0  0  0  0  0  0  0  0  0  0  0
  189.1160  175.5780  137.1440 C   0  0  0  0  0  0  0  0  0  0  0  0
  187.5460  177.3260  137.9030 C   0  0  0  0  0  2  0  0  0  0  0  0
  190.8080  176.9180  140.4170 C   0  0  0  0  0  3  0  0  0  0  0  0
  188.1120  174.8450  136.4510 N   0  0  0  0  0  1  0  0  0  0  0  0
  190.2660  174.8790  137.6600 N   0  0  0  0  0  0  0  0  0  0  0  0
  191.0380  176.8010  138.9380 C   0  0  0  0  0  0  0  0  0  0  0  0
  187.7280  178.0420  139.0090 C   0  0  1  0  0  3  0  0  0  0  0  0
  188.8780  176.8260  137.5490 C   0  0  0  0  0  0  0  0  0  0  0  0
  189.1470  178.0590  139.3770 C   0  0  1  0  0  3  0  0  0  0  0  0
  191.1020  175.4040  138.4770 N   0  0  0  0  0  0  0  0  0  0  0  0
  189.7290  177.6680  140.6610 C   0  0  0  0  0  3  0  0  0  0  0  0
  189.8210  177.4730  138.4300 C   0  0  0  0  0  0  0  0  0  0  0  0
  185.0860  179.5070  142.9240 C   0  0  0  0  0  2  0  0  0  0  0  0
  184.6120  178.4370  143.9130 C   0  0  2  0  0  3  0  0  0  0  0  0
  182.2940  178.6990  144.4330 O   0  0  0  0  0  1  0  0  0  0  0  0
  183.5810  179.0290  144.8570 C   0  0  0  0  0  2  0  0  0  0  0  0
  185.7210  177.8360  144.6570 N   0  0  0  0  0  2  0  0  0  0  0  0
  188.4950  177.2630  146.8580 C   0  0  0  0  0  0  0  0  0  0  0  0
  188.2250  176.3270  147.8470 O   0  0  0  0  0  1  0  0  0  0  0  0
  186.5000  178.4710  145.6800 C   0  0  0  0  0  3  0  0  0  0  0  0
  187.4950  177.8700  146.2730 C   0  0  0  0  0  0  0  0  0  0  0  0
  189.9280  177.5250  146.4790 C   0  0  2  0  0  3  0  0  0  0  0  0
  191.6100  176.8540  144.9070 N   0  0  0  0  0  0  0  0  0  0  0  0
  191.6030  175.7370  143.9810 C   0  0  0  0  0  1  0  0  0  0  0  0
  190.2390  177.3270  145.0080 C   0  0  0  0  0  2  0  0  0  0  0  0
  190.8440  176.5670  147.1870 C   0  0  0  0  0  2  0  0  0  0  0  0
  191.9800  176.3220  146.2170 C   0  0  0  0  0  2  0  0  0  0  0  0
  183.9660  178.1120  141.1310 C   0  0  0  0  0  2  0  0  0  0  0  0
  183.1260  178.6920  140.0950 N   0  0  0  0  0  2  0  0  0  0  0  0
  181.7350  178.9520  140.2980 C   0  0  0  0  0  0  0  0  0  0  0  0
  180.9580  179.5670  139.2720 N   0  0  0  0  0  2  0  0  0  0  0  0
  181.1810  178.6290  141.3820 O   0  0  0  0  0  0  0  0  0  0  0  0
  181.5470  180.0080  138.0190 C   0  0  0  0  0  3  0  0  0  0  0  0
  180.4520  180.1630  136.9810 C   0  0  0  0  0  2  0  0  0  0  0  0
  181.0190  181.3850  137.6750 C   0  0  0  0  0  2  0  0  0  0  0  0
  1  2  1  1  0  0  0
  1 16  1  0  0  0  0
  3  2  1  0  0  0  0
  4 11  2  0  0  0  0
  4  8  1  0  0  0  0
  5 10  1  0  0  0  0
  6 14  2  0  0  0  0
  7  4  1  0  0  0  0
  8 13  2  0  0  0  0
  9  6  1  0  0  0  0
 10 12  1  0  0  0  0
 10  3  1  6  0  0  0
 11  5  1  0  0  0  0
 11 15  1  0  0  0  0
 12 14  1  1  0  0  0
 13  9  1  0  0  0  0
 15  9  2  0  0  0  0
 15 12  1  0  0  0  0
 17 16  1  6  0  0  0
 17 20  1  0  0  0  0
 17 19  1  0  0  0  0
 18 19  1  0  0  0  0
 20 23  1  0  0  0  0
 21 22  1  0  0  0  0
 23 24  2  0  0  0  0
 24 21  2  0  0  0  0
 25 21  1  6  0  0  0
 25 29  1  0  0  0  0
 26 28  1  0  0  0  0
 26 30  1  0  0  0  0
 27 26  1  0  0  0  0
 28 25  1  0  0  0  0
 30 29  1  0  0  0  0
 31  1  1  0  0  0  0
 32 33  1  0  0  0  0
 32 31  1  0  0  0  0
 33 35  2  0  0  0  0
 34 33  1  0  0  0  0
 36 34  1  0  0  0  0
 37 38  1  0  0  0  0
 37 36  1  0  0  0  0
 38 36  1  0  0  0  0
M  END
>  <MODEL>
8

>  <REMARK>
 VINA RESULT:      -8.1      3.152      8.059
  Name = 
  12 active torsions:
  status: ('A' for Active; 'I' for Inactive)
    1  A    between atoms: C_2  and  N_23
    2  A    between atoms: N_3  and  C_36
    3  A    between atoms: C_4  and  C_14
    4  A    between atoms: C_4  and  O_15
    5  A    between atoms: N_8  and  CA_19
    6  A    between atoms: N_8  and  C_37
    7  A    between atoms: C_11  and  C_21
    8  A    between atoms: C_14  and  C_32
    9  A    between atoms: C_14  and  C_36
   10  A    between atoms: O_15  and  C_18
   11  A    between atoms: CA_19  and  C_26
   12  A    between atoms: CA_19  and  C_32
                            x       y       z     vdW  Elec       q    Type
                         _______ _______ _______ _____ _____    ______ ____

>  <TORSDO>
F 12

$$$$
=
 OpenBabel10232408093D

 38 42  0  0  1  0  0  0  0  0999 V2000
  188.6230  177.8480  140.2830 C   0  0  2  0  0  3  0  0  0  0  0  0
  189.0130  178.4900  141.6050 C   0  0  0  0  0  2  0  0  0  0  0  0
  189.8970  177.6330  142.3100 O   0  0  0  0  0  0  0  0  0  0  0  0
  191.0570  176.5400  146.7180 C   0  0  0  0  0  0  0  0  0  0  0  0
  191.0800  177.3030  144.3700 C   0  0  0  0  0  2  0  0  0  0  0  0
  187.2720  177.2530  145.9890 C   0  0  0  0  0  3  0  0  0  0  0  0
  192.2470  175.7710  146.5790 N   0  0  0  0  0  1  0  0  0  0  0  0
  190.0810  176.1510  147.7050 N   0  0  0  0  0  0  0  0  0  0  0  0
  188.4050  177.7030  146.8650 C   0  0  0  0  0  0  0  0  0  0  0  0
  189.9820  177.6430  143.7010 C   0  0  1  0  0  3  0  0  0  0  0  0
  190.7200  177.4310  145.7850 C   0  0  0  0  0  0  0  0  0  0  0  0
  188.9160  178.0260  144.6320 C   0  0  1  0  0  3  0  0  0  0  0  0
  188.8970  176.6390  147.7560 N   0  0  0  0  0  0  0  0  0  0  0  0
  187.5660  177.4680  144.7030 C   0  0  0  0  0  3  0  0  0  0  0  0
  189.4130  178.0430  145.8360 C   0  0  0  0  0  0  0  0  0  0  0  0
  189.7400  177.9590  139.2390 C   0  0  0  0  0  2  0  0  0  0  0  0
  189.4600  177.2290  137.9210 C   0  0  2  0  0  3  0  0  0  0  0  0
  190.8950  175.4030  138.4850 O   0  0  0  0  0  1  0  0  0  0  0  0
  190.6650  176.3930  137.5300 C   0  0  0  0  0  2  0  0  0  0  0  0
  189.0870  178.1490  136.8430 N   0  0  0  0  0  2  0  0  0  0  0  0
  185.8730  176.5840  136.5460 C   0  0  0  0  0  0  0  0  0  0  0  0
  185.9420  175.1990  136.4730 O   0  0  0  0  0  1  0  0  0  0  0  0
  187.9890  177.9920  135.9360 C   0  0  0  0  0  3  0  0  0  0  0  0
  186.9320  177.2870  136.2350 C   0  0  0  0  0  0  0  0  0  0  0  0
  184.5890  177.2220  137.0030 C   0  0  2  0  0  3  0  0  0  0  0  0
  182.4250  176.6750  137.8810 N   0  0  0  0  0  0  0  0  0  0  0  0
  181.7790  175.3800  137.9770 C   0  0  0  0  0  1  0  0  0  0  0  0
  183.8480  176.4510  138.0790 C   0  0  0  0  0  2  0  0  0  0  0  0
  183.6100  177.3120  135.8660 C   0  0  0  0  0  2  0  0  0  0  0  0
  182.2490  177.1410  136.5070 C   0  0  0  0  0  2  0  0  0  0  0  0
  187.3060  178.4110  139.7730 C   0  0  0  0  0  2  0  0  0  0  0  0
  186.3530  178.5000  140.8680 N   0  0  0  0  0  2  0  0  0  0  0  0
  185.0920  179.1590  140.7300 C   0  0  0  0  0  0  0  0  0  0  0  0
  184.1660  179.1830  141.8140 N   0  0  0  0  0  2  0  0  0  0  0  0
  184.7930  179.7360  139.6500 O   0  0  0  0  0  0  0  0  0  0  0  0
  184.4280  178.4960  143.0660 C   0  0  0  0  0  3  0  0  0  0  0  0
  184.6150  179.5210  144.1680 C   0  0  0  0  0  2  0  0  0  0  0  0
  183.3020  178.7780  144.0380 C   0  0  0  0  0  2  0  0  0  0  0  0
  1 16  1  6  0  0  0
  1  2  1  0  0  0  0
  2  3  1  0  0  0  0
  4  8  1  0  0  0  0
  5 11  1  0  0  0  0
  6  9  1  0  0  0  0
  7  4  1  0  0  0  0
  8 13  2  0  0  0  0
  9 13  1  0  0  0  0
 10  3  1  6  0  0  0
 10  5  1  0  0  0  0
 10 12  1  0  0  0  0
 11 15  1  0  0  0  0
 11  4  2  0  0  0  0
 12 14  1  1  0  0  0
 12 15  1  0  0  0  0
 14  6  2  0  0  0  0
 15  9  2  0  0  0  0
 17 19  1  6  0  0  0
 17 16  1  0  0  0  0
 19 18  1  0  0  0  0
 20 17  1  0  0  0  0
 22 21  1  0  0  0  0
 23 24  2  0  0  0  0
 23 20  1  0  0  0  0
 24 21  2  0  0  0  0
 25 21  1  6  0  0  0
 25 28  1  0  0  0  0
 26 27  1  0  0  0  0
 26 28  1  0  0  0  0
 29 30  1  0  0  0  0
 29 25  1  0  0  0  0
 30 26  1  0  0  0  0
 31  1  1  0  0  0  0
 31 32  1  0  0  0  0
 33 32  1  0  0  0  0
 33 34  1  0  0  0  0
 34 36  1  0  0  0  0
 35 33  2  0  0  0  0
 36 38  1  0  0  0  0
 36 37  1  0  0  0  0
 38 37  1  0  0  0  0
M  END
>  <MODEL>
9

>  <REMARK>
 VINA RESULT:      -8.0      2.830      5.741
  Name = 
  12 active torsions:
  status: ('A' for Active; 'I' for Inactive)
    1  A    between atoms: C_2  and  N_23
    2  A    between atoms: N_3  and  C_36
    3  A    between atoms: C_4  and  C_14
    4  A    between atoms: C_4  and  O_15
    5  A    between atoms: N_8  and  CA_19
    6  A    between atoms: N_8  and  C_37
    7  A    between atoms: C_11  and  C_21
    8  A    between atoms: C_14  and  C_32
    9  A    between atoms: C_14  and  C_36
   10  A    between atoms: O_15  and  C_18
   11  A    between atoms: CA_19  and  C_26
   12  A    between atoms: CA_19  and  C_32
                            x       y       z     vdW  Elec       q    Type
                         _______ _______ _______ _____ _____    ______ ____

>  <TORSDO>
F 12

$$$$
