=
 OpenBabel10232408353D

 41 46  0  0  1  0  0  0  0  0999 V2000
  188.4770  177.8160  140.4960 C   0  0  0  0  0  0  0  0  0  0  0  0
  186.2290  178.6820  140.3770 N   0  0  0  0  0  0  0  0  0  0  0  0
  190.3240  177.7200  138.8590 N   0  0  0  0  0  0  0  0  0  0  0  0
  184.9590  178.9630  140.7780 C   0  0  0  0  0  0  0  0  0  0  0  0
  191.2340  177.6450  140.0190 C   0  0  0  0  0  2  0  0  0  0  0  0
  189.2390  177.1380  141.4200 C   0  0  0  0  0  0  0  0  0  0  0  0
  187.2120  177.4340  142.3550 C   0  0  0  0  0  0  0  0  0  0  0  0
  189.0330  178.3430  139.2050 C   0  0  0  0  0  2  0  0  0  0  0  0
  184.4060  178.6350  142.0250 C   0  0  0  0  0  3  0  0  0  0  0  0
  188.4630  176.8720  142.5410 C   0  0  0  0  0  0  0  0  0  0  0  0
  187.2220  178.0320  141.0250 C   0  0  0  0  0  0  0  0  0  0  0  0
  190.6750  176.8000  141.1790 C   0  0  0  0  0  2  0  0  0  0  0  0
  186.1940  177.4150  143.2870 C   0  0  0  0  0  3  0  0  0  0  0  0
  184.9340  177.9650  143.1240 C   0  0  0  0  0  3  0  0  0  0  0  0
  184.5990  180.3940  138.9090 O   0  0  0  0  0  0  0  0  0  0  0  0
  184.1000  179.6810  139.8210 C   0  0  0  0  0  0  0  0  0  0  0  0
  182.7490  179.5770  139.9150 F   0  0  0  0  0  0  0  0  0  0  0  0
  190.0850  176.3860  138.3100 C   0  0  0  0  0  2  0  0  0  0  0  0
  188.8540  176.4050  137.4220 C   0  0  0  0  0  2  0  0  0  0  0  0
  188.5540  175.1100  136.9970 O   0  0  0  0  0  0  0  0  0  0  0  0
  187.2240  175.1560  136.5760 C   0  0  1  0  0  3  0  0  0  0  0  0
  186.5330  173.8310  136.9410 C   0  0  0  0  0  2  0  0  0  0  0  0
  184.5220  172.9890  137.8830 O   0  0  0  0  0  0  0  0  0  0  0  0
  185.0990  176.4050  136.7060 C   0  0  0  0  0  2  0  0  0  0  0  0
  184.3810  175.2160  137.1720 N   0  0  0  0  0  0  0  0  0  0  0  0
  186.5370  176.3690  137.1920 C   0  0  0  0  0  2  0  0  0  0  0  0
  185.0890  173.9720  137.3450 C   0  0  0  0  0  0  0  0  0  0  0  0
  183.0780  176.0920  139.0590 C   0  0  0  0  0  2  0  0  0  0  0  0
  182.6890  176.8630  137.8200 C   0  0  0  0  0  2  0  0  0  0  0  0
  183.0290  175.3810  137.7120 C   0  0  0  0  0  3  0  0  0  0  0  0
  188.9020  176.2440  143.7520 N   0  0  0  0  0  2  0  0  0  0  0  0
  188.0410  177.8920  146.9440 N   0  0  0  0  0  0  0  0  0  0  0  0
  190.3810  177.6010  146.8600 N   0  0  0  0  0  0  0  0  0  0  0  0
  187.9210  177.3280  145.7120 C   0  0  0  0  0  3  0  0  0  0  0  0
  189.2710  178.0310  147.5180 C   0  0  0  0  0  0  0  0  0  0  0  0
  190.2910  177.0340  145.6310 C   0  0  0  0  0  3  0  0  0  0  0  0
  189.3920  178.5500  148.6610 O   0  0  0  0  0  0  0  0  0  0  0  0
  189.0490  176.8970  145.0180 C   0  0  0  0  0  0  0  0  0  0  0  0
  186.8350  178.3370  147.6360 C   0  0  0  0  0  2  0  0  0  0  0  0
  185.8970  179.0670  146.6910 C   0  0  0  0  0  2  0  0  0  0  0  0
  184.5580  178.3720  146.6190 C   0  0  0  0  0  1  0  0  0  0  0  0
  1 11  2  0  0  0  0
  1  6  1  0  0  0  0
  2  4  2  0  0  0  0
  2 11  1  0  0  0  0
  3  8  1  0  0  0  0
  3  5  1  0  0  0  0
  4  9  1  0  0  0  0
  5 12  1  0  0  0  0
  6 10  2  0  0  0  0
  7 10  1  0  0  0  0
  7 13  2  0  0  0  0
  8  1  1  0  0  0  0
  9 14  2  0  0  0  0
 10 31  1  0  0  0  0
 11  7  1  0  0  0  0
 12  6  1  0  0  0  0
 14 13  1  0  0  0  0
 15 16  2  0  0  0  0
 16 17  1  0  0  0  0
 16  4  1  0  0  0  0
 18  3  1  0  0  0  0
 19 18  1  0  0  0  0
 20 19  1  0  0  0  0
 21 22  1  0  0  0  0
 21 20  1  1  0  0  0
 21 26  1  0  0  0  0
 22 27  1  0  0  0  0
 24 25  1  0  0  0  0
 24 26  1  0  0  0  0
 25 27  1  0  0  0  0
 25 30  1  0  0  0  0
 27 23  2  0  0  0  0
 29 28  1  0  0  0  0
 30 29  1  0  0  0  0
 30 28  1  0  0  0  0
 31 38  1  0  0  0  0
 32 35  1  0  0  0  0
 32 39  1  0  0  0  0
 33 35  1  0  0  0  0
 34 32  1  0  0  0  0
 35 37  2  0  0  0  0
 36 33  2  0  0  0  0
 38 36  1  0  0  0  0
 38 34  2  0  0  0  0
 40 39  1  0  0  0  0
 41 40  1  0  0  0  0
M  END
>  <MODEL>
1

>  <REMARK>
 VINA RESULT:      -8.1      0.000      0.000
  Name = 
  10 active torsions:
  status: ('A' for Active; 'I' for Inactive)
    1  A    between atoms: C_1  and  O_13
    2  A    between atoms: N_2  and  C_32
    3  A    between atoms: C_3  and  N_15
    4  A    between atoms: C_3  and  C_37
    5  A    between atoms: C_10  and  C_32
    6  A    between atoms: O_13  and  C_37
    7  A    between atoms: N_17  and  C_29
    8  A    between atoms: N_17  and  C_40
    9  A    between atoms: C_18  and  C_22
   10  A    between atoms: N_23  and  C_39
                            x       y       z     vdW  Elec       q    Type
                         _______ _______ _______ _____ _____    ______ ____

>  <TORSDO>
F 10

$$$$
=
 OpenBabel10232408353D

 41 46  0  0  1  0  0  0  0  0999 V2000
  186.5390  178.2340  139.4340 C   0  0  0  0  0  0  0  0  0  0  0  0
  184.2940  178.2880  140.3180 N   0  0  0  0  0  0  0  0  0  0  0  0
  187.4540  177.6350  137.2210 N   0  0  0  0  0  0  0  0  0  0  0  0
  183.3000  178.4350  141.2350 C   0  0  0  0  0  0  0  0  0  0  0  0
  188.6120  178.4840  137.5630 C   0  0  0  0  0  2  0  0  0  0  0  0
  187.8090  178.4450  139.9210 C   0  0  0  0  0  0  0  0  0  0  0  0
  186.4030  178.7390  141.6550 C   0  0  0  0  0  0  0  0  0  0  0  0
  186.2460  178.0070  137.9800 C   0  0  0  0  0  2  0  0  0  0  0  0
  183.4760  178.7890  142.5800 C   0  0  0  0  0  3  0  0  0  0  0  0
  187.7350  178.7190  141.2810 C   0  0  0  0  0  0  0  0  0  0  0  0
  185.6340  178.4120  140.4600 C   0  0  0  0  0  0  0  0  0  0  0  0
  189.0200  178.3890  139.0460 C   0  0  0  0  0  2  0  0  0  0  0  0
  185.9460  179.0320  142.9250 C   0  0  0  0  0  3  0  0  0  0  0  0
  184.6220  179.0540  143.3250 C   0  0  0  0  0  3  0  0  0  0  0  0
  181.6270  177.1990  140.0750 O   0  0  0  0  0  0  0  0  0  0  0  0
  181.9220  178.2120  140.7660 C   0  0  0  0  0  0  0  0  0  0  0  0
  180.9480  179.1050  141.0790 F   0  0  0  0  0  0  0  0  0  0  0  0
  187.7630  176.2260  137.4660 C   0  0  0  0  0  2  0  0  0  0  0  0
  188.9980  175.8230  136.6790 C   0  0  0  0  0  2  0  0  0  0  0  0
  189.8050  174.9910  137.4560 O   0  0  0  0  0  0  0  0  0  0  0  0
  191.1050  175.1960  136.9910 C   0  0  1  0  0  3  0  0  0  0  0  0
  191.8000  176.2440  137.8760 C   0  0  0  0  0  2  0  0  0  0  0  0
  193.8560  176.6580  138.9900 O   0  0  0  0  0  0  0  0  0  0  0  0
  193.2520  174.1130  136.4320 C   0  0  0  0  0  2  0  0  0  0  0  0
  193.9820  174.9950  137.3450 N   0  0  0  0  0  0  0  0  0  0  0  0
  191.8490  173.8660  136.9560 C   0  0  0  0  0  2  0  0  0  0  0  0
  193.2700  175.9980  138.0960 C   0  0  0  0  0  0  0  0  0  0  0  0
  195.4130  173.5380  138.7070 C   0  0  0  0  0  2  0  0  0  0  0  0
  195.6810  173.2340  137.2510 C   0  0  0  0  0  2  0  0  0  0  0  0
  195.3690  174.6640  137.6800 C   0  0  0  0  0  3  0  0  0  0  0  0
  188.8280  179.0600  142.1420 N   0  0  0  0  0  2  0  0  0  0  0  0
  190.3900  177.0380  144.8110 N   0  0  0  0  0  0  0  0  0  0  0  0
  191.2880  176.3610  142.7360 N   0  0  0  0  0  0  0  0  0  0  0  0
  189.6240  177.9690  144.1810 C   0  0  0  0  0  3  0  0  0  0  0  0
  191.2240  176.2350  144.0890 C   0  0  0  0  0  0  0  0  0  0  0  0
  190.5350  177.2800  142.0830 C   0  0  0  0  0  3  0  0  0  0  0  0
  191.9350  175.3660  144.6640 O   0  0  0  0  0  0  0  0  0  0  0  0
  189.6900  178.1230  142.7980 C   0  0  0  0  0  0  0  0  0  0  0  0
  190.2970  176.9130  146.2620 C   0  0  0  0  0  2  0  0  0  0  0  0
  188.9130  177.2940  146.7580 C   0  0  0  0  0  2  0  0  0  0  0  0
  188.9970  178.0190  148.0810 C   0  0  0  0  0  1  0  0  0  0  0  0
  1  6  2  0  0  0  0
  1 11  1  0  0  0  0
  2 11  2  0  0  0  0
  2  4  1  0  0  0  0
  3 18  1  0  0  0  0
  3  5  1  0  0  0  0
  3  8  1  0  0  0  0
  4  9  2  0  0  0  0
  5 12  1  0  0  0  0
  6 10  1  0  0  0  0
  7 13  1  0  0  0  0
  8  1  1  0  0  0  0
  9 14  1  0  0  0  0
 10  7  2  0  0  0  0
 10 31  1  0  0  0  0
 11  7  1  0  0  0  0
 12  6  1  0  0  0  0
 13 14  2  0  0  0  0
 15 16  2  0  0  0  0
 16 17  1  0  0  0  0
 16  4  1  0  0  0  0
 19 20  1  0  0  0  0
 19 18  1  0  0  0  0
 21 20  1  1  0  0  0
 21 22  1  0  0  0  0
 22 27  1  0  0  0  0
 24 26  1  0  0  0  0
 24 25  1  0  0  0  0
 25 30  1  0  0  0  0
 25 27  1  0  0  0  0
 26 21  1  0  0  0  0
 27 23  2  0  0  0  0
 29 30  1  0  0  0  0
 29 28  1  0  0  0  0
 30 28  1  0  0  0  0
 31 38  1  0  0  0  0
 32 39  1  0  0  0  0
 33 35  1  0  0  0  0
 34 32  1  0  0  0  0
 35 37  2  0  0  0  0
 35 32  1  0  0  0  0
 36 33  2  0  0  0  0
 36 38  1  0  0  0  0
 38 34  2  0  0  0  0
 39 40  1  0  0  0  0
 40 41  1  0  0  0  0
M  END
>  <MODEL>
2

>  <REMARK>
 VINA RESULT:      -7.7      2.933      5.418
  Name = 
  10 active torsions:
  status: ('A' for Active; 'I' for Inactive)
    1  A    between atoms: C_1  and  O_13
    2  A    between atoms: N_2  and  C_32
    3  A    between atoms: C_3  and  N_15
    4  A    between atoms: C_3  and  C_37
    5  A    between atoms: C_10  and  C_32
    6  A    between atoms: O_13  and  C_37
    7  A    between atoms: N_17  and  C_29
    8  A    between atoms: N_17  and  C_40
    9  A    between atoms: C_18  and  C_22
   10  A    between atoms: N_23  and  C_39
                            x       y       z     vdW  Elec       q    Type
                         _______ _______ _______ _____ _____    ______ ____

>  <TORSDO>
F 10

$$$$
=
 OpenBabel10232408353D

 41 46  0  0  1  0  0  0  0  0999 V2000
  185.4150  178.4960  141.8340 C   0  0  0  0  0  0  0  0  0  0  0  0
  186.0940  178.1850  144.1280 N   0  0  0  0  0  0  0  0  0  0  0  0
  183.2040  178.7170  140.7570 N   0  0  0  0  0  0  0  0  0  0  0  0
  186.9300  177.9840  145.1820 C   0  0  0  0  0  0  0  0  0  0  0  0
  183.9000  179.4250  139.6660 C   0  0  0  0  0  2  0  0  0  0  0  0
  186.0370  178.5580  140.6080 C   0  0  0  0  0  0  0  0  0  0  0  0
  187.6580  178.2030  142.1300 C   0  0  0  0  0  0  0  0  0  0  0  0
  183.9520  178.7750  142.0260 C   0  0  0  0  0  2  0  0  0  0  0  0
  188.3240  177.8580  145.1060 C   0  0  0  0  0  3  0  0  0  0  0  0
  187.3990  178.3460  140.7780 C   0  0  0  0  0  0  0  0  0  0  0  0
  186.3690  178.2870  142.8080 C   0  0  0  0  0  0  0  0  0  0  0  0
  185.2880  178.8370  139.3450 C   0  0  0  0  0  2  0  0  0  0  0  0
  188.9130  178.0290  142.6770 C   0  0  0  0  0  3  0  0  0  0  0  0
  189.1980  177.8790  144.0230 C   0  0  0  0  0  3  0  0  0  0  0  0
  185.0890  178.1600  146.6840 O   0  0  0  0  0  0  0  0  0  0  0  0
  186.3120  177.9000  146.5170 C   0  0  0  0  0  0  0  0  0  0  0  0
  187.0630  177.5380  147.5890 F   0  0  0  0  0  0  0  0  0  0  0  0
  182.9760  177.3180  140.3940 C   0  0  0  0  0  2  0  0  0  0  0  0
  181.8270  177.2200  139.4070 C   0  0  0  0  0  2  0  0  0  0  0  0
  182.3130  176.8730  138.1450 O   0  0  0  0  0  0  0  0  0  0  0  0
  182.7260  175.5450  138.2600 C   0  0  1  0  0  3  0  0  0  0  0  0
  181.6150  174.6220  137.7320 C   0  0  0  0  0  2  0  0  0  0  0  0
  181.2890  172.7150  136.3540 O   0  0  0  0  0  0  0  0  0  0  0  0
  184.4840  173.9120  137.6760 C   0  0  0  0  0  2  0  0  0  0  0  0
  183.5050  173.0220  137.0460 N   0  0  0  0  0  0  0  0  0  0  0  0
  184.0480  175.3580  137.5230 C   0  0  0  0  0  2  0  0  0  0  0  0
  182.1120  173.3920  137.0190 C   0  0  0  0  0  0  0  0  0  0  0  0
  184.4790  172.4320  134.8710 C   0  0  0  0  0  2  0  0  0  0  0  0
  185.4840  172.0890  135.9460 C   0  0  0  0  0  2  0  0  0  0  0  0
  183.9950  171.9150  136.2210 C   0  0  0  0  0  3  0  0  0  0  0  0
  188.4040  178.3980  139.7570 N   0  0  0  0  0  2  0  0  0  0  0  0
  188.6760  175.6110  137.3470 N   0  0  0  0  0  0  0  0  0  0  0  0
  190.7130  175.7820  138.5270 N   0  0  0  0  0  0  0  0  0  0  0  0
  188.1660  176.6460  138.0680 C   0  0  0  0  0  3  0  0  0  0  0  0
  189.9490  175.1770  137.5780 C   0  0  0  0  0  0  0  0  0  0  0  0
  190.2300  176.8170  139.2590 C   0  0  0  0  0  3  0  0  0  0  0  0
  190.4310  174.2200  136.9120 O   0  0  0  0  0  0  0  0  0  0  0  0
  188.9290  177.2660  139.0540 C   0  0  0  0  0  0  0  0  0  0  0  0
  187.8420  174.9840  136.3270 C   0  0  0  0  0  2  0  0  0  0  0  0
  187.8330  175.8000  135.0460 C   0  0  0  0  0  2  0  0  0  0  0  0
  186.5050  176.4940  134.8600 C   0  0  0  0  0  1  0  0  0  0  0  0
  1  8  1  0  0  0  0
  1 11  1  0  0  0  0
  2  4  1  0  0  0  0
  3  8  1  0  0  0  0
  4 16  1  0  0  0  0
  5  3  1  0  0  0  0
  6 10  1  0  0  0  0
  6  1  2  0  0  0  0
  7 13  1  0  0  0  0
  7 11  1  0  0  0  0
  9  4  2  0  0  0  0
 10  7  2  0  0  0  0
 11  2  2  0  0  0  0
 12  5  1  0  0  0  0
 12  6  1  0  0  0  0
 13 14  2  0  0  0  0
 14  9  1  0  0  0  0
 16 15  2  0  0  0  0
 16 17  1  0  0  0  0
 18  3  1  0  0  0  0
 19 18  1  0  0  0  0
 20 19  1  0  0  0  0
 21 20  1  6  0  0  0
 22 21  1  0  0  0  0
 23 27  2  0  0  0  0
 25 24  1  0  0  0  0
 26 24  1  0  0  0  0
 26 21  1  0  0  0  0
 27 25  1  0  0  0  0
 27 22  1  0  0  0  0
 28 29  1  0  0  0  0
 28 30  1  0  0  0  0
 29 30  1  0  0  0  0
 30 25  1  0  0  0  0
 31 10  1  0  0  0  0
 32 35  1  0  0  0  0
 32 34  1  0  0  0  0
 33 36  2  0  0  0  0
 34 38  2  0  0  0  0
 35 33  1  0  0  0  0
 37 35  2  0  0  0  0
 38 36  1  0  0  0  0
 38 31  1  0  0  0  0
 39 32  1  0  0  0  0
 40 39  1  0  0  0  0
 41 40  1  0  0  0  0
M  END
>  <MODEL>
3

>  <REMARK>
 VINA RESULT:      -7.7      2.515      6.744
  Name = 
  10 active torsions:
  status: ('A' for Active; 'I' for Inactive)
    1  A    between atoms: C_1  and  O_13
    2  A    between atoms: N_2  and  C_32
    3  A    between atoms: C_3  and  N_15
    4  A    between atoms: C_3  and  C_37
    5  A    between atoms: C_10  and  C_32
    6  A    between atoms: O_13  and  C_37
    7  A    between atoms: N_17  and  C_29
    8  A    between atoms: N_17  and  C_40
    9  A    between atoms: C_18  and  C_22
   10  A    between atoms: N_23  and  C_39
                            x       y       z     vdW  Elec       q    Type
                         _______ _______ _______ _____ _____    ______ ____

>  <TORSDO>
F 10

$$$$
=
 OpenBabel10232408353D

 41 46  0  0  1  0  0  0  0  0999 V2000
  188.2910  177.4340  141.4680 C   0  0  0  0  0  0  0  0  0  0  0  0
  186.7670  177.8040  143.3010 N   0  0  0  0  0  0  0  0  0  0  0  0
  190.5610  176.4690  141.3450 N   0  0  0  0  0  0  0  0  0  0  0  0
  185.6480  178.2280  143.9490 C   0  0  0  0  0  0  0  0  0  0  0  0
  190.2640  176.1650  139.9320 C   0  0  0  0  0  2  0  0  0  0  0  0
  188.3170  177.7080  140.1190 C   0  0  0  0  0  0  0  0  0  0  0  0
  186.3760  178.5370  140.9040 C   0  0  0  0  0  0  0  0  0  0  0  0
  189.3370  176.6040  142.1560 C   0  0  0  0  0  2  0  0  0  0  0  0
  184.5590  178.8820  143.3540 C   0  0  0  0  0  3  0  0  0  0  0  0
  187.1680  178.4090  139.7760 C   0  0  0  0  0  0  0  0  0  0  0  0
  187.1130  177.9160  141.9990 C   0  0  0  0  0  0  0  0  0  0  0  0
  189.4360  177.2610  139.2340 C   0  0  0  0  0  2  0  0  0  0  0  0
  185.1310  179.1340  140.9280 C   0  0  0  0  0  3  0  0  0  0  0  0
  184.3220  179.2780  142.0420 C   0  0  0  0  0  3  0  0  0  0  0  0
  184.8970  178.7090  146.1580 O   0  0  0  0  0  0  0  0  0  0  0  0
  185.5760  177.9670  145.3970 C   0  0  0  0  0  0  0  0  0  0  0  0
  186.2480  176.9130  145.9280 F   0  0  0  0  0  0  0  0  0  0  0  0
  191.3470  177.6980  141.4490 C   0  0  0  0  0  2  0  0  0  0  0  0
  191.3950  178.1610  142.8950 C   0  0  0  0  0  2  0  0  0  0  0  0
  192.0300  177.1990  143.6810 O   0  0  0  0  0  0  0  0  0  0  0  0
  191.1170  176.8820  144.6890 C   0  0  1  0  0  3  0  0  0  0  0  0
  191.8850  176.4810  145.9590 C   0  0  0  0  0  2  0  0  0  0  0  0
  191.8980  176.8400  148.3070 O   0  0  0  0  0  0  0  0  0  0  0  0
  189.1870  177.6860  146.0000 C   0  0  0  0  0  2  0  0  0  0  0  0
  189.8910  177.4440  147.2620 N   0  0  0  0  0  0  0  0  0  0  0  0
  190.1780  178.0620  144.9140 C   0  0  0  0  0  2  0  0  0  0  0  0
  191.2300  176.9110  147.2450 C   0  0  0  0  0  0  0  0  0  0  0  0
  188.0560  178.7820  148.1940 C   0  0  0  0  0  2  0  0  0  0  0  0
  187.9590  177.3870  148.7660 C   0  0  0  0  0  2  0  0  0  0  0  0
  189.3290  178.0000  148.4960 C   0  0  0  0  0  3  0  0  0  0  0  0
  186.7830  178.8220  138.4590 N   0  0  0  0  0  2  0  0  0  0  0  0
  184.7970  176.4120  136.4860 N   0  0  0  0  0  0  0  0  0  0  0  0
  186.6540  177.0860  135.1950 N   0  0  0  0  0  0  0  0  0  0  0  0
  185.2180  177.2000  137.5120 C   0  0  0  0  0  3  0  0  0  0  0  0
  185.5160  176.3530  135.3280 C   0  0  0  0  0  0  0  0  0  0  0  0
  187.0950  177.8810  136.2010 C   0  0  0  0  0  3  0  0  0  0  0  0
  185.1320  175.6270  134.3700 O   0  0  0  0  0  0  0  0  0  0  0  0
  186.3890  177.9450  137.3980 C   0  0  0  0  0  0  0  0  0  0  0  0
  183.5680  175.6420  136.6470 C   0  0  0  0  0  2  0  0  0  0  0  0
  183.7230  174.5770  137.7190 C   0  0  0  0  0  2  0  0  0  0  0  0
  184.7690  173.5620  137.3220 C   0  0  0  0  0  1  0  0  0  0  0  0
  1 11  1  0  0  0  0
  1  8  1  0  0  0  0
  2  4  1  0  0  0  0
  3 18  1  0  0  0  0
  3  8  1  0  0  0  0
  4 16  1  0  0  0  0
  5  3  1  0  0  0  0
  6  1  2  0  0  0  0
  7 13  1  0  0  0  0
  7 11  1  0  0  0  0
  9  4  2  0  0  0  0
 10  6  1  0  0  0  0
 10  7  2  0  0  0  0
 11  2  2  0  0  0  0
 12  5  1  0  0  0  0
 12  6  1  0  0  0  0
 13 14  2  0  0  0  0
 14  9  1  0  0  0  0
 16 17  1  0  0  0  0
 16 15  2  0  0  0  0
 18 19  1  0  0  0  0
 19 20  1  0  0  0  0
 21 20  1  6  0  0  0
 21 26  1  0  0  0  0
 21 22  1  0  0  0  0
 22 27  1  0  0  0  0
 24 25  1  0  0  0  0
 25 30  1  0  0  0  0
 26 24  1  0  0  0  0
 27 25  1  0  0  0  0
 27 23  2  0  0  0  0
 28 30  1  0  0  0  0
 28 29  1  0  0  0  0
 30 29  1  0  0  0  0
 31 10  1  0  0  0  0
 32 39  1  0  0  0  0
 32 34  1  0  0  0  0
 33 35  1  0  0  0  0
 33 36  2  0  0  0  0
 35 32  1  0  0  0  0
 36 38  1  0  0  0  0
 37 35  2  0  0  0  0
 38 34  2  0  0  0  0
 38 31  1  0  0  0  0
 39 40  1  0  0  0  0
 41 40  1  0  0  0  0
M  END
>  <MODEL>
4

>  <REMARK>
 VINA RESULT:      -7.7      2.361      8.432
  Name = 
  10 active torsions:
  status: ('A' for Active; 'I' for Inactive)
    1  A    between atoms: C_1  and  O_13
    2  A    between atoms: N_2  and  C_32
    3  A    between atoms: C_3  and  N_15
    4  A    between atoms: C_3  and  C_37
    5  A    between atoms: C_10  and  C_32
    6  A    between atoms: O_13  and  C_37
    7  A    between atoms: N_17  and  C_29
    8  A    between atoms: N_17  and  C_40
    9  A    between atoms: C_18  and  C_22
   10  A    between atoms: N_23  and  C_39
                            x       y       z     vdW  Elec       q    Type
                         _______ _______ _______ _____ _____    ______ ____

>  <TORSDO>
F 10

$$$$
=
 OpenBabel10232408353D

 41 46  0  0  1  0  0  0  0  0999 V2000
  185.6090  176.0510  136.9500 C   0  0  0  0  0  0  0  0  0  0  0  0
  184.5190  173.9310  136.5770 N   0  0  0  0  0  0  0  0  0  0  0  0
  187.9320  176.8210  136.6210 N   0  0  0  0  0  0  0  0  0  0  0  0
  183.5240  173.0040  136.5790 C   0  0  0  0  0  0  0  0  0  0  0  0
  187.3760  178.1850  136.5260 C   0  0  0  0  0  2  0  0  0  0  0  0
  185.2590  177.2760  137.4710 C   0  0  0  0  0  0  0  0  0  0  0  0
  183.4320  175.9690  137.6280 C   0  0  0  0  0  0  0  0  0  0  0  0
  186.9330  175.7890  136.2920 C   0  0  0  0  0  2  0  0  0  0  0  0
  182.2160  173.2120  137.0410 C   0  0  0  0  0  3  0  0  0  0  0  0
  183.9440  177.2210  137.9170 C   0  0  0  0  0  0  0  0  0  0  0  0
  184.5180  175.2110  137.0150 C   0  0  0  0  0  0  0  0  0  0  0  0
  186.2030  178.4350  137.4920 C   0  0  0  0  0  2  0  0  0  0  0  0
  182.1350  175.5710  137.8810 C   0  0  0  0  0  3  0  0  0  0  0  0
  181.6000  174.3240  137.6060 C   0  0  0  0  0  3  0  0  0  0  0  0
  184.5320  171.5480  134.9860 O   0  0  0  0  0  0  0  0  0  0  0  0
  183.8510  171.6730  136.0390 C   0  0  0  0  0  0  0  0  0  0  0  0
  183.4170  170.5580  136.6820 F   0  0  0  0  0  0  0  0  0  0  0  0
  188.4560  176.5760  137.9640 C   0  0  0  0  0  2  0  0  0  0  0  0
  189.6610  177.4630  138.2200 C   0  0  0  0  0  2  0  0  0  0  0  0
  189.4180  178.2900  139.3170 O   0  0  0  0  0  0  0  0  0  0  0  0
  189.1870  177.4270  140.3890 C   0  0  1  0  0  3  0  0  0  0  0  0
  190.5350  176.9310  140.9400 C   0  0  0  0  0  2  0  0  0  0  0  0
  191.6800  176.5760  142.9900 O   0  0  0  0  0  0  0  0  0  0  0  0
  188.0930  177.1720  142.5880 C   0  0  0  0  0  2  0  0  0  0  0  0
  189.3610  176.8040  143.2220 N   0  0  0  0  0  0  0  0  0  0  0  0
  188.3440  178.1370  141.4420 C   0  0  0  0  0  2  0  0  0  0  0  0
  190.5660  176.7420  142.4340 C   0  0  0  0  0  0  0  0  0  0  0  0
  189.5700  178.1860  145.2410 C   0  0  0  0  0  2  0  0  0  0  0  0
  188.2260  177.4970  145.2780 C   0  0  0  0  0  2  0  0  0  0  0  0
  189.4290  176.7730  144.6860 C   0  0  0  0  0  3  0  0  0  0  0  0
  183.1840  178.3060  138.4620 N   0  0  0  0  0  2  0  0  0  0  0  0
  183.4460  178.4360  142.1450 N   0  0  0  0  0  0  0  0  0  0  0  0
  181.2600  179.0740  141.5280 N   0  0  0  0  0  0  0  0  0  0  0  0
  183.7640  178.2410  140.8370 C   0  0  0  0  0  3  0  0  0  0  0  0
  182.1930  178.8500  142.4920 C   0  0  0  0  0  0  0  0  0  0  0  0
  181.5500  178.8880  140.2160 C   0  0  0  0  0  3  0  0  0  0  0  0
  181.8900  179.0370  143.7020 O   0  0  0  0  0  0  0  0  0  0  0  0
  182.8150  178.4500  139.8390 C   0  0  0  0  0  0  0  0  0  0  0  0
  184.4670  178.2000  143.1610 C   0  0  0  0  0  2  0  0  0  0  0  0
  184.9000  179.4990  143.8170 C   0  0  0  0  0  2  0  0  0  0  0  0
  185.0780  179.3170  145.3060 C   0  0  0  0  0  1  0  0  0  0  0  0
  1 11  2  0  0  0  0
  1  6  1  0  0  0  0
  2  4  2  0  0  0  0
  2 11  1  0  0  0  0
  3 18  1  0  0  0  0
  4  9  1  0  0  0  0
  5  3  1  0  0  0  0
  5 12  1  0  0  0  0
  6 12  1  0  0  0  0
  6 10  2  0  0  0  0
  7 13  2  0  0  0  0
  7 10  1  0  0  0  0
  8  3  1  0  0  0  0
  8  1  1  0  0  0  0
  9 14  2  0  0  0  0
 10 31  1  0  0  0  0
 11  7  1  0  0  0  0
 14 13  1  0  0  0  0
 15 16  2  0  0  0  0
 16  4  1  0  0  0  0
 16 17  1  0  0  0  0
 18 19  1  0  0  0  0
 19 20  1  0  0  0  0
 21 20  1  6  0  0  0
 21 22  1  0  0  0  0
 21 26  1  0  0  0  0
 22 27  1  0  0  0  0
 24 25  1  0  0  0  0
 25 30  1  0  0  0  0
 26 24  1  0  0  0  0
 27 23  2  0  0  0  0
 27 25  1  0  0  0  0
 28 29  1  0  0  0  0
 30 28  1  0  0  0  0
 30 29  1  0  0  0  0
 31 38  1  0  0  0  0
 32 35  1  0  0  0  0
 32 39  1  0  0  0  0
 33 35  1  0  0  0  0
 34 32  1  0  0  0  0
 35 37  2  0  0  0  0
 36 33  2  0  0  0  0
 38 36  1  0  0  0  0
 38 34  2  0  0  0  0
 39 40  1  0  0  0  0
 40 41  1  0  0  0  0
M  END
>  <MODEL>
5

>  <REMARK>
 VINA RESULT:      -7.7      2.818      7.085
  Name = 
  10 active torsions:
  status: ('A' for Active; 'I' for Inactive)
    1  A    between atoms: C_1  and  O_13
    2  A    between atoms: N_2  and  C_32
    3  A    between atoms: C_3  and  N_15
    4  A    between atoms: C_3  and  C_37
    5  A    between atoms: C_10  and  C_32
    6  A    between atoms: O_13  and  C_37
    7  A    between atoms: N_17  and  C_29
    8  A    between atoms: N_17  and  C_40
    9  A    between atoms: C_18  and  C_22
   10  A    between atoms: N_23  and  C_39
                            x       y       z     vdW  Elec       q    Type
                         _______ _______ _______ _____ _____    ______ ____

>  <TORSDO>
F 10

$$$$
=
 OpenBabel10232408353D

 41 46  0  0  1  0  0  0  0  0999 V2000
  188.2180  177.4450  141.5360 C   0  0  0  0  0  0  0  0  0  0  0  0
  186.7100  177.8300  143.3800 N   0  0  0  0  0  0  0  0  0  0  0  0
  190.4840  176.4730  141.4000 N   0  0  0  0  0  0  0  0  0  0  0  0
  185.5980  178.2610  144.0340 C   0  0  0  0  0  0  0  0  0  0  0  0
  190.1740  176.1620  139.9910 C   0  0  0  0  0  2  0  0  0  0  0  0
  188.2320  177.7100  140.1850 C   0  0  0  0  0  0  0  0  0  0  0  0
  186.3000  178.5490  140.9810 C   0  0  0  0  0  0  0  0  0  0  0  0
  189.2670  176.6170  142.2200 C   0  0  0  0  0  2  0  0  0  0  0  0
  184.5050  178.9140  143.4450 C   0  0  0  0  0  3  0  0  0  0  0  0
  187.0820  178.4120  139.8480 C   0  0  0  0  0  0  0  0  0  0  0  0
  187.0450  177.9330  142.0730 C   0  0  0  0  0  0  0  0  0  0  0  0
  189.3420  177.2550  139.2930 C   0  0  0  0  0  2  0  0  0  0  0  0
  185.0570  179.1490  141.0120 C   0  0  0  0  0  3  0  0  0  0  0  0
  184.2580  179.3020  142.1310 C   0  0  0  0  0  3  0  0  0  0  0  0
  184.9260  178.7980  146.2550 O   0  0  0  0  0  0  0  0  0  0  0  0
  185.5370  178.0090  145.4840 C   0  0  0  0  0  0  0  0  0  0  0  0
  186.1450  176.9130  146.0060 F   0  0  0  0  0  0  0  0  0  0  0  0
  191.2740  177.7010  141.4900 C   0  0  0  0  0  2  0  0  0  0  0  0
  191.3550  178.1600  142.9350 C   0  0  0  0  0  2  0  0  0  0  0  0
  191.9920  177.1880  143.7070 O   0  0  0  0  0  0  0  0  0  0  0  0
  191.0910  176.8760  144.7260 C   0  0  1  0  0  3  0  0  0  0  0  0
  191.8730  176.5120  145.9990 C   0  0  0  0  0  2  0  0  0  0  0  0
  191.8950  176.9160  148.3400 O   0  0  0  0  0  0  0  0  0  0  0  0
  189.1550  177.6720  146.0350 C   0  0  0  0  0  2  0  0  0  0  0  0
  189.8710  177.4660  147.2970 N   0  0  0  0  0  0  0  0  0  0  0  0
  190.1340  178.0430  144.9350 C   0  0  0  0  0  2  0  0  0  0  0  0
  191.2190  176.9550  147.2810 C   0  0  0  0  0  0  0  0  0  0  0  0
  188.0120  178.7790  148.2170 C   0  0  0  0  0  2  0  0  0  0  0  0
  187.9570  177.3960  148.8220 C   0  0  0  0  0  2  0  0  0  0  0  0
  189.3080  178.0360  148.5230 C   0  0  0  0  0  3  0  0  0  0  0  0
  186.6870  178.8180  138.5310 N   0  0  0  0  0  2  0  0  0  0  0  0
  186.3910  176.5860  135.6020 N   0  0  0  0  0  0  0  0  0  0  0  0
  184.2990  176.6750  136.6890 N   0  0  0  0  0  0  0  0  0  0  0  0
  186.9080  177.4520  136.5150 C   0  0  0  0  0  3  0  0  0  0  0  0
  185.0850  176.1990  135.6870 C   0  0  0  0  0  0  0  0  0  0  0  0
  184.7880  177.5380  137.6140 C   0  0  0  0  0  3  0  0  0  0  0  0
  184.5980  175.3940  134.8470 O   0  0  0  0  0  0  0  0  0  0  0  0
  186.1120  177.9610  137.5380 C   0  0  0  0  0  0  0  0  0  0  0  0
  187.2560  176.0810  134.5410 C   0  0  0  0  0  2  0  0  0  0  0  0
  188.5980  175.6330  135.0940 C   0  0  0  0  0  2  0  0  0  0  0  0
  188.5580  174.1750  135.4880 C   0  0  0  0  0  1  0  0  0  0  0  0
  1 11  1  0  0  0  0
  1  8  1  0  0  0  0
  2  4  1  0  0  0  0
  3 18  1  0  0  0  0
  3  8  1  0  0  0  0
  4 16  1  0  0  0  0
  5  3  1  0  0  0  0
  6  1  2  0  0  0  0
  7 13  1  0  0  0  0
  7 11  1  0  0  0  0
  9  4  2  0  0  0  0
 10  6  1  0  0  0  0
 10  7  2  0  0  0  0
 11  2  2  0  0  0  0
 12  5  1  0  0  0  0
 12  6  1  0  0  0  0
 13 14  2  0  0  0  0
 14  9  1  0  0  0  0
 16 17  1  0  0  0  0
 16 15  2  0  0  0  0
 18 19  1  0  0  0  0
 19 20  1  0  0  0  0
 21 20  1  6  0  0  0
 21 26  1  0  0  0  0
 21 22  1  0  0  0  0
 22 27  1  0  0  0  0
 24 25  1  0  0  0  0
 25 30  1  0  0  0  0
 26 24  1  0  0  0  0
 27 25  1  0  0  0  0
 27 23  2  0  0  0  0
 28 30  1  0  0  0  0
 28 29  1  0  0  0  0
 30 29  1  0  0  0  0
 31 10  1  0  0  0  0
 32 35  1  0  0  0  0
 32 34  1  0  0  0  0
 33 36  2  0  0  0  0
 34 38  2  0  0  0  0
 35 33  1  0  0  0  0
 37 35  2  0  0  0  0
 38 36  1  0  0  0  0
 38 31  1  0  0  0  0
 39 40  1  0  0  0  0
 39 32  1  0  0  0  0
 40 41  1  0  0  0  0
M  END
>  <MODEL>
6

>  <REMARK>
 VINA RESULT:      -7.5      2.427      8.631
  Name = 
  10 active torsions:
  status: ('A' for Active; 'I' for Inactive)
    1  A    between atoms: C_1  and  O_13
    2  A    between atoms: N_2  and  C_32
    3  A    between atoms: C_3  and  N_15
    4  A    between atoms: C_3  and  C_37
    5  A    between atoms: C_10  and  C_32
    6  A    between atoms: O_13  and  C_37
    7  A    between atoms: N_17  and  C_29
    8  A    between atoms: N_17  and  C_40
    9  A    between atoms: C_18  and  C_22
   10  A    between atoms: N_23  and  C_39
                            x       y       z     vdW  Elec       q    Type
                         _______ _______ _______ _____ _____    ______ ____

>  <TORSDO>
F 10

$$$$
=
 OpenBabel10232408353D

 41 46  0  0  1  0  0  0  0  0999 V2000
  184.2610  178.3300  138.5930 C   0  0  0  0  0  0  0  0  0  0  0  0
  186.5360  178.3910  137.7930 N   0  0  0  0  0  0  0  0  0  0  0  0
  183.1710  179.2330  140.6160 N   0  0  0  0  0  0  0  0  0  0  0  0
  187.6000  178.1300  136.9860 C   0  0  0  0  0  0  0  0  0  0  0  0
  181.9120  179.2090  139.8470 C   0  0  0  0  0  2  0  0  0  0  0  0
  183.0750  177.7570  138.1900 C   0  0  0  0  0  0  0  0  0  0  0  0
  184.6300  177.1350  136.6840 C   0  0  0  0  0  0  0  0  0  0  0  0
  184.3580  179.2900  139.7430 C   0  0  0  0  0  2  0  0  0  0  0  0
  187.5650  177.3620  135.8130 C   0  0  0  0  0  3  0  0  0  0  0  0
  183.3020  177.0010  137.0470 C   0  0  0  0  0  0  0  0  0  0  0  0
  185.2500  177.9850  137.6950 C   0  0  0  0  0  0  0  0  0  0  0  0
  181.7890  177.9870  138.9170 C   0  0  0  0  0  2  0  0  0  0  0  0
  185.2030  176.5640  135.5650 C   0  0  0  0  0  3  0  0  0  0  0  0
  186.5280  176.6800  135.1830 C   0  0  0  0  0  3  0  0  0  0  0  0
  188.9860  179.9240  137.7160 O   0  0  0  0  0  0  0  0  0  0  0  0
  188.8940  178.7130  137.3790 C   0  0  0  0  0  0  0  0  0  0  0  0
  190.0110  177.9400  137.3820 F   0  0  0  0  0  0  0  0  0  0  0  0
  183.2640  178.0560  141.4800 C   0  0  0  0  0  2  0  0  0  0  0  0
  184.0710  178.3880  142.7230 C   0  0  0  0  0  2  0  0  0  0  0  0
  185.2840  177.6980  142.7000 O   0  0  0  0  0  0  0  0  0  0  0  0
  186.0510  178.2620  143.7210 C   0  0  1  0  0  3  0  0  0  0  0  0
  185.1170  178.7920  144.8210 C   0  0  0  0  0  2  0  0  0  0  0  0
  184.8700  178.8270  147.1830 O   0  0  0  0  0  0  0  0  0  0  0  0
  187.8790  177.8720  145.3340 C   0  0  0  0  0  2  0  0  0  0  0  0
  187.0210  178.2510  146.4590 N   0  0  0  0  0  0  0  0  0  0  0  0
  187.0470  177.2300  144.2380 C   0  0  0  0  0  2  0  0  0  0  0  0
  185.6560  178.6450  146.2200 C   0  0  0  0  0  0  0  0  0  0  0  0
  188.2620  176.6520  147.8490 C   0  0  0  0  0  2  0  0  0  0  0  0
  189.0070  177.9660  147.8640 C   0  0  0  0  0  2  0  0  0  0  0  0
  187.4830  177.9630  147.8200 C   0  0  0  0  0  3  0  0  0  0  0  0
  182.3150  176.3010  136.2790 N   0  0  0  0  0  2  0  0  0  0  0  0
  182.0010  172.6440  136.7050 N   0  0  0  0  0  0  0  0  0  0  0  0
  180.0940  173.6730  137.6380 N   0  0  0  0  0  0  0  0  0  0  0  0
  182.4850  173.8620  136.3390 C   0  0  0  0  0  3  0  0  0  0  0  0
  180.8040  172.5490  137.3530 C   0  0  0  0  0  0  0  0  0  0  0  0
  180.5520  174.9000  137.2860 C   0  0  0  0  0  3  0  0  0  0  0  0
  180.3500  171.4240  137.6990 O   0  0  0  0  0  0  0  0  0  0  0  0
  181.7620  175.0220  136.6090 C   0  0  0  0  0  0  0  0  0  0  0  0
  182.7860  171.4530  136.3970 C   0  0  0  0  0  2  0  0  0  0  0  0
  184.2550  171.6650  136.7190 C   0  0  0  0  0  2  0  0  0  0  0  0
  185.1040  171.5160  135.4780 C   0  0  0  0  0  1  0  0  0  0  0  0
  1  8  1  0  0  0  0
  3 18  1  0  0  0  0
  4 16  1  0  0  0  0
  4  2  2  0  0  0  0
  5  3  1  0  0  0  0
  6  1  1  0  0  0  0
  6 12  1  0  0  0  0
  7 10  1  0  0  0  0
  7 11  1  0  0  0  0
  8  3  1  0  0  0  0
  9  4  1  0  0  0  0
 10  6  2  0  0  0  0
 11  2  1  0  0  0  0
 11  1  2  0  0  0  0
 12  5  1  0  0  0  0
 13  7  2  0  0  0  0
 14 13  1  0  0  0  0
 14  9  2  0  0  0  0
 16 17  1  0  0  0  0
 16 15  2  0  0  0  0
 18 19  1  0  0  0  0
 20 19  1  0  0  0  0
 21 20  1  6  0  0  0
 21 26  1  0  0  0  0
 21 22  1  0  0  0  0
 22 27  1  0  0  0  0
 24 25  1  0  0  0  0
 25 30  1  0  0  0  0
 26 24  1  0  0  0  0
 27 25  1  0  0  0  0
 27 23  2  0  0  0  0
 28 29  1  0  0  0  0
 30 28  1  0  0  0  0
 30 29  1  0  0  0  0
 31 38  1  0  0  0  0
 31 10  1  0  0  0  0
 32 35  1  0  0  0  0
 34 38  2  0  0  0  0
 34 32  1  0  0  0  0
 35 33  1  0  0  0  0
 35 37  2  0  0  0  0
 36 33  2  0  0  0  0
 38 36  1  0  0  0  0
 39 32  1  0  0  0  0
 39 40  1  0  0  0  0
 41 40  1  0  0  0  0
M  END
>  <MODEL>
7

>  <REMARK>
 VINA RESULT:      -7.5      2.911      9.604
  Name = 
  10 active torsions:
  status: ('A' for Active; 'I' for Inactive)
    1  A    between atoms: C_1  and  O_13
    2  A    between atoms: N_2  and  C_32
    3  A    between atoms: C_3  and  N_15
    4  A    between atoms: C_3  and  C_37
    5  A    between atoms: C_10  and  C_32
    6  A    between atoms: O_13  and  C_37
    7  A    between atoms: N_17  and  C_29
    8  A    between atoms: N_17  and  C_40
    9  A    between atoms: C_18  and  C_22
   10  A    between atoms: N_23  and  C_39
                            x       y       z     vdW  Elec       q    Type
                         _______ _______ _______ _____ _____    ______ ____

>  <TORSDO>
F 10

$$$$
=
 OpenBabel10232408353D

 41 46  0  0  1  0  0  0  0  0999 V2000
  188.2690  176.1540  137.6430 C   0  0  0  0  0  0  0  0  0  0  0  0
  187.8330  174.0580  136.5300 N   0  0  0  0  0  0  0  0  0  0  0  0
  190.2710  177.0720  138.7610 N   0  0  0  0  0  0  0  0  0  0  0  0
  187.1240  173.0940  135.8840 C   0  0  0  0  0  0  0  0  0  0  0  0
  189.7050  178.4080  138.4890 C   0  0  0  0  0  2  0  0  0  0  0  0
  187.5460  177.2760  137.9800 C   0  0  0  0  0  0  0  0  0  0  0  0
  186.1120  175.8740  136.9550 C   0  0  0  0  0  0  0  0  0  0  0  0
  189.7550  176.0500  137.8320 C   0  0  0  0  0  2  0  0  0  0  0  0
  185.7660  173.1720  135.5390 C   0  0  0  0  0  3  0  0  0  0  0  0
  186.2240  177.0960  137.5940 C   0  0  0  0  0  0  0  0  0  0  0  0
  187.4360  175.2620  137.0020 C   0  0  0  0  0  0  0  0  0  0  0  0
  188.1730  178.4630  138.6370 C   0  0  0  0  0  2  0  0  0  0  0  0
  184.9520  175.3830  136.3910 C   0  0  0  0  0  3  0  0  0  0  0  0
  184.8130  174.1640  135.7510 C   0  0  0  0  0  3  0  0  0  0  0  0
  188.9750  171.9290  134.9410 O   0  0  0  0  0  0  0  0  0  0  0  0
  187.8510  171.8690  135.5090 C   0  0  0  0  0  0  0  0  0  0  0  0
  187.3100  170.6520  135.7780 F   0  0  0  0  0  0  0  0  0  0  0  0
  189.9820  176.6660  140.1360 C   0  0  0  0  0  2  0  0  0  0  0  0
  191.1180  177.0890  141.0500 C   0  0  0  0  0  2  0  0  0  0  0  0
  190.6430  177.9750  142.0180 O   0  0  0  0  0  0  0  0  0  0  0  0
  190.2290  177.1730  143.0840 C   0  0  1  0  0  3  0  0  0  0  0  0
  191.4100  176.9600  144.0460 C   0  0  0  0  0  2  0  0  0  0  0  0
  191.9390  176.9700  146.3610 O   0  0  0  0  0  0  0  0  0  0  0  0
  188.5830  176.9140  144.9050 C   0  0  0  0  0  2  0  0  0  0  0  0
  189.6460  176.8180  145.9080 N   0  0  0  0  0  0  0  0  0  0  0  0
  189.0230  177.8120  143.7620 C   0  0  0  0  0  2  0  0  0  0  0  0
  191.0260  176.9000  145.5010 C   0  0  0  0  0  0  0  0  0  0  0  0
  189.1580  178.3780  147.7400 C   0  0  0  0  0  2  0  0  0  0  0  0
  187.9130  177.5680  147.4670 C   0  0  0  0  0  2  0  0  0  0  0  0
  189.2840  176.9170  147.3240 C   0  0  0  0  0  3  0  0  0  0  0  0
  185.1660  178.0560  137.7060 N   0  0  0  0  0  2  0  0  0  0  0  0
  183.8620  178.7660  141.0890 N   0  0  0  0  0  0  0  0  0  0  0  0
  182.0580  178.1170  139.7130 N   0  0  0  0  0  0  0  0  0  0  0  0
  184.7230  178.5970  140.0490 C   0  0  0  0  0  3  0  0  0  0  0  0
  182.5290  178.5250  140.9220 C   0  0  0  0  0  0  0  0  0  0  0  0
  182.8940  177.9420  138.6590 C   0  0  0  0  0  3  0  0  0  0  0  0
  181.7240  178.6820  141.8790 O   0  0  0  0  0  0  0  0  0  0  0  0
  184.2590  178.1650  138.8090 C   0  0  0  0  0  0  0  0  0  0  0  0
  184.3890  179.2130  142.3740 C   0  0  0  0  0  2  0  0  0  0  0  0
  184.9150  178.0450  143.1890 C   0  0  0  0  0  2  0  0  0  0  0  0
  185.4990  178.5210  144.4980 C   0  0  0  0  0  1  0  0  0  0  0  0
  1  8  1  0  0  0  0
  1  6  1  0  0  0  0
  2 11  1  0  0  0  0
  3 18  1  0  0  0  0
  4  2  2  0  0  0  0
  5 12  1  0  0  0  0
  5  3  1  0  0  0  0
  6 12  1  0  0  0  0
  7 11  1  0  0  0  0
  7 10  1  0  0  0  0
  8  3  1  0  0  0  0
  9 14  2  0  0  0  0
  9  4  1  0  0  0  0
 10 31  1  0  0  0  0
 10  6  2  0  0  0  0
 11  1  2  0  0  0  0
 13  7  2  0  0  0  0
 14 13  1  0  0  0  0
 15 16  2  0  0  0  0
 16 17  1  0  0  0  0
 16  4  1  0  0  0  0
 18 19  1  0  0  0  0
 19 20  1  0  0  0  0
 21 20  1  6  0  0  0
 21 26  1  0  0  0  0
 21 22  1  0  0  0  0
 22 27  1  0  0  0  0
 24 25  1  0  0  0  0
 25 30  1  0  0  0  0
 26 24  1  0  0  0  0
 27 25  1  0  0  0  0
 27 23  2  0  0  0  0
 29 28  1  0  0  0  0
 30 29  1  0  0  0  0
 30 28  1  0  0  0  0
 31 38  1  0  0  0  0
 32 39  1  0  0  0  0
 33 35  1  0  0  0  0
 34 32  1  0  0  0  0
 35 32  1  0  0  0  0
 35 37  2  0  0  0  0
 36 38  1  0  0  0  0
 36 33  2  0  0  0  0
 38 34  2  0  0  0  0
 39 40  1  0  0  0  0
 40 41  1  0  0  0  0
M  END
>  <MODEL>
8

>  <REMARK>
 VINA RESULT:      -7.5      2.732      7.816
  Name = 
  10 active torsions:
  status: ('A' for Active; 'I' for Inactive)
    1  A    between atoms: C_1  and  O_13
    2  A    between atoms: N_2  and  C_32
    3  A    between atoms: C_3  and  N_15
    4  A    between atoms: C_3  and  C_37
    5  A    between atoms: C_10  and  C_32
    6  A    between atoms: O_13  and  C_37
    7  A    between atoms: N_17  and  C_29
    8  A    between atoms: N_17  and  C_40
    9  A    between atoms: C_18  and  C_22
   10  A    between atoms: N_23  and  C_39
                            x       y       z     vdW  Elec       q    Type
                         _______ _______ _______ _____ _____    ______ ____

>  <TORSDO>
F 10

$$$$
=
 OpenBabel10232408353D

 41 46  0  0  1  0  0  0  0  0999 V2000
  186.6790  178.1810  139.3600 C   0  0  0  0  0  0  0  0  0  0  0  0
  189.0040  177.6270  139.6920 N   0  0  0  0  0  0  0  0  0  0  0  0
  185.0030  179.2980  140.7880 N   0  0  0  0  0  0  0  0  0  0  0  0
  190.2290  177.1010  139.4210 C   0  0  0  0  0  0  0  0  0  0  0  0
  184.2960  179.6450  139.5400 C   0  0  0  0  0  2  0  0  0  0  0  0
  185.7320  177.9710  138.3840 C   0  0  0  0  0  0  0  0  0  0  0  0
  187.6220  176.9800  137.6650 C   0  0  0  0  0  0  0  0  0  0  0  0
  186.4380  179.0460  140.5630 C   0  0  0  0  0  2  0  0  0  0  0  0
  190.5790  176.4050  138.2550 C   0  0  0  0  0  3  0  0  0  0  0  0
  186.2910  177.2110  137.3640 C   0  0  0  0  0  0  0  0  0  0  0  0
  187.8640  177.5980  138.9640 C   0  0  0  0  0  0  0  0  0  0  0  0
  184.3490  178.5300  138.4790 C   0  0  0  0  0  2  0  0  0  0  0  0
  188.5070  176.3020  136.8510 C   0  0  0  0  0  3  0  0  0  0  0  0
  189.8390  176.0540  137.1300 C   0  0  0  0  0  3  0  0  0  0  0  0
  192.4970  177.2880  140.1240 O   0  0  0  0  0  0  0  0  0  0  0  0
  191.2760  177.2910  140.4400 C   0  0  0  0  0  0  0  0  0  0  0  0
  190.9300  177.4740  141.7400 F   0  0  0  0  0  0  0  0  0  0  0  0
  184.3970  178.1210  141.4080 C   0  0  0  0  0  2  0  0  0  0  0  0
  184.0530  178.4170  142.8570 C   0  0  0  0  0  2  0  0  0  0  0  0
  185.1390  179.0250  143.4890 O   0  0  0  0  0  0  0  0  0  0  0  0
  185.6100  178.0830  144.4050 C   0  0  1  0  0  3  0  0  0  0  0  0
  186.9850  177.5720  143.9430 C   0  0  0  0  0  2  0  0  0  0  0  0
  189.1570  177.0890  144.7740 O   0  0  0  0  0  0  0  0  0  0  0  0
  186.1460  177.6540  146.7760 C   0  0  0  0  0  2  0  0  0  0  0  0
  187.5170  177.2620  146.4370 N   0  0  0  0  0  0  0  0  0  0  0  0
  185.6470  178.7020  145.7970 C   0  0  0  0  0  2  0  0  0  0  0  0
  187.9480  177.2770  145.0620 C   0  0  0  0  0  0  0  0  0  0  0  0
  188.9940  178.5000  147.9580 C   0  0  0  0  0  2  0  0  0  0  0  0
  187.9590  177.7800  148.7900 C   0  0  0  0  0  2  0  0  0  0  0  0
  188.4950  177.1270  147.5200 C   0  0  0  0  0  3  0  0  0  0  0  0
  185.6560  176.8340  136.1360 N   0  0  0  0  0  2  0  0  0  0  0  0
  183.7970  173.6520  136.4100 N   0  0  0  0  0  0  0  0  0  0  0  0
  182.3630  175.2800  135.4800 N   0  0  0  0  0  0  0  0  0  0  0  0
  184.8040  174.5650  136.4650 C   0  0  0  0  0  3  0  0  0  0  0  0
  182.5760  174.0090  135.9160 C   0  0  0  0  0  0  0  0  0  0  0  0
  183.3490  176.2100  135.5250 C   0  0  0  0  0  3  0  0  0  0  0  0
  181.6350  173.1710  135.8630 O   0  0  0  0  0  0  0  0  0  0  0  0
  184.6070  175.8660  136.0090 C   0  0  0  0  0  0  0  0  0  0  0  0
  184.0460  172.2980  136.8920 C   0  0  0  0  0  2  0  0  0  0  0  0
  185.1000  171.6000  136.0500 C   0  0  0  0  0  2  0  0  0  0  0  0
  184.5480  170.3330  135.4390 C   0  0  0  0  0  1  0  0  0  0  0  0
  1  8  1  0  0  0  0
  3 18  1  0  0  0  0
  4  2  1  0  0  0  0
  4 16  1  0  0  0  0
  5  3  1  0  0  0  0
  6 12  1  0  0  0  0
  6  1  2  0  0  0  0
  7 11  1  0  0  0  0
  8  3  1  0  0  0  0
  9  4  2  0  0  0  0
 10  7  2  0  0  0  0
 10  6  1  0  0  0  0
 11  1  1  0  0  0  0
 11  2  2  0  0  0  0
 12  5  1  0  0  0  0
 13 14  2  0  0  0  0
 13  7  1  0  0  0  0
 14  9  1  0  0  0  0
 15 16  2  0  0  0  0
 16 17  1  0  0  0  0
 18 19  1  0  0  0  0
 19 20  1  0  0  0  0
 21 20  1  6  0  0  0
 21 26  1  0  0  0  0
 22 21  1  0  0  0  0
 22 27  1  0  0  0  0
 23 27  2  0  0  0  0
 25 24  1  0  0  0  0
 25 30  1  0  0  0  0
 26 24  1  0  0  0  0
 27 25  1  0  0  0  0
 28 29  1  0  0  0  0
 30 28  1  0  0  0  0
 30 29  1  0  0  0  0
 31 10  1  0  0  0  0
 32 34  1  0  0  0  0
 32 39  1  0  0  0  0
 33 36  2  0  0  0  0
 33 35  1  0  0  0  0
 35 32  1  0  0  0  0
 36 38  1  0  0  0  0
 37 35  2  0  0  0  0
 38 31  1  0  0  0  0
 38 34  2  0  0  0  0
 40 39  1  0  0  0  0
 41 40  1  0  0  0  0
M  END
>  <MODEL>
9

>  <REMARK>
 VINA RESULT:      -7.4      2.485      9.293
  Name = 
  10 active torsions:
  status: ('A' for Active; 'I' for Inactive)
    1  A    between atoms: C_1  and  O_13
    2  A    between atoms: N_2  and  C_32
    3  A    between atoms: C_3  and  N_15
    4  A    between atoms: C_3  and  C_37
    5  A    between atoms: C_10  and  C_32
    6  A    between atoms: O_13  and  C_37
    7  A    between atoms: N_17  and  C_29
    8  A    between atoms: N_17  and  C_40
    9  A    between atoms: C_18  and  C_22
   10  A    between atoms: N_23  and  C_39
                            x       y       z     vdW  Elec       q    Type
                         _______ _______ _______ _____ _____    ______ ____

>  <TORSDO>
F 10

$$$$
