=
 OpenBabel10232408253D

 45 50  0  0  1  0  0  0  0  0999 V2000
  187.8540  177.8710  141.0000 C   0  0  2  0  0  3  0  0  0  0  0  0
  185.5650  177.9450  142.0470 C   0  0  2  0  0  3  0  0  0  0  0  0
  187.4140  177.4130  143.5990 C   0  0  1  0  0  3  0  0  0  0  0  0
  186.5570  178.5540  143.0240 C   0  0  1  0  0  3  0  0  0  0  0  0
  188.8210  177.3960  143.1240 N   0  0  0  0  0  0  0  0  0  0  0  0
  186.7300  178.7530  141.5170 C   0  0  1  0  0  3  0  0  0  0  0  0
  189.0070  178.0580  141.8800 N   0  0  0  0  0  2  0  0  0  0  0  0
  187.3170  177.3730  145.1230 C   0  0  0  0  0  3  0  0  0  0  0  0
  186.2800  178.5820  147.1150 C   0  0  0  0  0  2  0  0  0  0  0  0
  187.1930  177.6740  147.7930 N   0  0  0  0  0  2  0  0  0  0  0  0
  188.6390  177.7950  145.7620 C   0  0  0  0  0  2  0  0  0  0  0  0
  186.1160  178.1750  145.6530 C   0  0  0  0  0  2  0  0  0  0  0  0
  188.5390  177.9410  147.2890 C   0  0  0  0  0  2  0  0  0  0  0  0
  189.1840  176.1000  142.9420 O   0  0  0  0  0  0  0  0  0  0  0  0
  190.5650  176.1340  142.7340 C   0  0  0  0  0  2  0  0  0  0  0  0
  191.2200  176.3970  143.9360 O   0  0  0  0  0  0  0  0  0  0  0  0
  191.9520  175.2410  144.2220 C   0  0  0  0  0  1  0  0  0  0  0  0
  188.2090  178.2830  139.5860 C   0  0  0  0  0  2  0  0  0  0  0  0
  189.6420  177.8930  139.2600 C   0  0  0  0  0  2  0  0  0  0  0  0
  189.2870  176.1960  137.4300 C   0  0  0  0  0  2  0  0  0  0  0  0
  190.0930  174.9800  137.0300 C   0  0  0  0  0  2  0  0  0  0  0  0
  191.0530  174.7010  138.1070 N   0  0  2  0  0  0  0  0  0  0  0  0
  191.0420  175.8050  139.0000 N   0  0  1  0  0  0  0  0  0  0  0  0
  192.3790  174.6310  137.4980 C   0  0  0  0  0  2  0  0  0  0  0  0
  192.1200  176.7070  138.5820 C   0  0  0  0  0  2  0  0  0  0  0  0
  193.1610  175.8420  137.9440 C   0  0  0  0  0  2  0  0  0  0  0  0
  189.7150  176.4170  138.8510 C   0  0  1  0  0  3  0  0  0  0  0  0
  184.3130  178.8030  141.9770 C   0  0  0  0  0  2  0  0  0  0  0  0
  183.6690  178.7400  140.6260 C   0  0  0  0  0  0  0  0  0  0  0  0
  183.1900  177.5980  140.2140 C   0  0  0  0  0  0  0  0  0  0  0  0
  182.7270  176.4530  139.8100 C   0  0  0  0  0  3  0  0  0  0  0  0
  184.6940  180.1020  138.9660 O   0  0  0  0  0  1  0  0  0  0  0  0
  183.6560  179.8460  139.7690 O   0  0  0  0  0  0  0  0  0  0  0  0
  181.9910  176.3490  138.5240 C   0  0  0  0  0  2  0  0  0  0  0  0
  182.5370  175.2330  137.7570 N   0  0  0  0  0  2  0  0  0  0  0  0
  183.3410  175.8100  136.6780 C   0  0  2  0  0  3  0  0  0  0  0  0
  182.5250  175.8870  135.4210 C   0  0  0  0  0  3  0  0  0  0  0  0
  182.3810  176.9550  134.8470 O   0  0  0  0  0  0  0  0  0  0  0  0
  184.6550  175.0360  136.4600 C   0  0  0  0  0  2  0  0  0  0  0  0
  186.7490  178.2450  136.2200 C   0  0  0  0  0  2  0  0  0  0  0  0
  187.2500  177.0260  134.3970 C   0  0  0  0  0  2  0  0  0  0  0  0
  186.7790  178.2820  134.8180 O   0  0  0  0  0  0  0  0  0  0  0  0
  186.1780  175.9650  134.6530 C   0  0  0  0  0  2  0  0  0  0  0  0
  185.8590  175.9240  136.1490 C   0  0  0  0  0  3  0  0  0  0  0  0
  185.6150  177.3350  136.6930 C   0  0  0  0  0  2  0  0  0  0  0  0
  1 18  1  6  0  0  0
  1  6  1  0  0  0  0
  1  7  1  0  0  0  0
  2 28  1  1  0  0  0
  2  4  1  0  0  0  0
  3  8  1  1  0  0  0
  4  3  1  0  0  0  0
  5  3  1  0  0  0  0
  6  2  1  0  0  0  0
  6  4  1  0  0  0  0
  7  5  1  0  0  0  0
  8 12  1  0  0  0  0
  8 11  1  0  0  0  0
  9 10  1  0  0  0  0
 11 13  1  0  0  0  0
 12  9  1  0  0  0  0
 13 10  1  0  0  0  0
 14  5  1  0  0  0  0
 15 14  1  0  0  0  0
 15 16  1  0  0  0  0
 16 17  1  0  0  0  0
 19 18  1  0  0  0  0
 20 27  1  0  0  0  0
 21 20  1  0  0  0  0
 21 22  1  0  0  0  0
 22 23  1  0  0  0  0
 24 26  1  0  0  0  0
 24 22  1  0  0  0  0
 25 23  1  0  0  0  0
 26 25  1  0  0  0  0
 27 23  1  0  0  0  0
 27 19  1  0  0  0  0
 29 28  1  0  0  0  0
 30 29  2  0  0  0  0
 31 30  2  0  0  0  0
 32 33  1  0  0  0  0
 33 29  1  0  0  0  0
 34 31  1  0  0  0  0
 35 34  1  0  0  0  0
 36 35  1  0  0  0  0
 37 36  1  0  0  0  0
 38 37  2  0  0  0  0
 39 36  1  0  0  0  0
 40 45  1  0  0  0  0
 41 43  1  0  0  0  0
 41 42  1  0  0  0  0
 42 40  1  0  0  0  0
 43 44  1  0  0  0  0
 44 39  1  0  0  0  0
 44 45  1  0  0  0  0
M  END
>  <MODEL>
1

>  <REMARK>
 VINA RESULT:      -7.4      0.000      0.000
  Name = 
  16 active torsions:
  status: ('A' for Active; 'I' for Inactive)
    1  A    between atoms: C_1  and  O_23
    2  A    between atoms: C_1  and  C_28
    3  A    between atoms: C_4  and  CA_5
    4  A    between atoms: CA_5  and  C_21
    5  A    between atoms: CA_5  and  N_45
    6  A    between atoms: C_6  and  C_25
    7  A    between atoms: O_7  and  C_10
    8  A    between atoms: O_7  and  N_34
    9  A    between atoms: C_10  and  O_14
   10  A    between atoms: C_12  and  C_22
   11  A    between atoms: C_17  and  C_28
   12  A    between atoms: C_18  and  C_22
   13  A    between atoms: C_18  and  C_41
   14  A    between atoms: C_21  and  C_29
   15  A    between atoms: C_35  and  C_37
   16  A    between atoms: C_37  and  N_45
                            x       y       z     vdW  Elec       q    Type
                         _______ _______ _______ _____ _____    ______ ____

>  <TORSDO>
F 16

$$$$
=
 OpenBabel10232408253D

 45 50  0  0  1  0  0  0  0  0999 V2000
  185.2450  178.5180  144.5840 C   0  0  2  0  0  3  0  0  0  0  0  0
  186.6460  178.7330  142.5020 C   0  0  2  0  0  3  0  0  0  0  0  0
  187.8010  177.7380  144.4470 C   0  0  1  0  0  3  0  0  0  0  0  0
  186.9930  177.4180  143.1780 C   0  0  1  0  0  3  0  0  0  0  0  0
  187.0730  177.4980  145.7200 N   0  0  0  0  0  0  0  0  0  0  0  0
  185.5600  177.9520  143.2100 C   0  0  1  0  0  3  0  0  0  0  0  0
  185.6590  177.5280  145.5790 N   0  0  0  0  0  2  0  0  0  0  0  0
  189.1610  177.0420  144.4180 C   0  0  0  0  0  3  0  0  0  0  0  0
  191.6210  177.4330  143.8740 C   0  0  0  0  0  2  0  0  0  0  0  0
  191.6070  175.9880  144.0400 N   0  0  0  0  0  2  0  0  0  0  0  0
  189.2330  176.0390  143.2680 C   0  0  0  0  0  2  0  0  0  0  0  0
  190.3290  178.0430  144.4120 C   0  0  0  0  0  2  0  0  0  0  0  0
  190.6390  175.4430  143.0900 C   0  0  0  0  0  2  0  0  0  0  0  0
  187.4070  178.4900  146.5850 O   0  0  0  0  0  0  0  0  0  0  0  0
  186.9990  178.0330  147.8400 C   0  0  0  0  0  2  0  0  0  0  0  0
  188.0500  177.3650  148.4660 O   0  0  0  0  0  0  0  0  0  0  0  0
  189.1680  178.1870  148.2960 C   0  0  0  0  0  1  0  0  0  0  0  0
  183.7560  178.7730  144.6960 C   0  0  0  0  0  2  0  0  0  0  0  0
  183.2380  179.4680  143.4470 C   0  0  0  0  0  2  0  0  0  0  0  0
  180.7880  179.6650  142.8850 C   0  0  0  0  0  2  0  0  0  0  0  0
  179.9820  179.0980  141.7380 C   0  0  0  0  0  2  0  0  0  0  0  0
  180.8040  178.0830  141.0660 N   0  0  2  0  0  0  0  0  0  0  0  0
  182.1250  178.1810  141.5780 N   0  0  1  0  0  0  0  0  0  0  0  0
  180.8460  178.4280  139.6470 C   0  0  0  0  0  2  0  0  0  0  0  0
  182.8730  179.0580  140.6710 C   0  0  0  0  0  2  0  0  0  0  0  0
  182.2440  178.8950  139.3230 C   0  0  0  0  0  2  0  0  0  0  0  0
  181.9850  178.7590  142.9210 C   0  0  1  0  0  3  0  0  0  0  0  0
  186.4920  178.5240  141.0050 C   0  0  0  0  0  2  0  0  0  0  0  0
  187.8180  178.4190  140.3170 C   0  0  0  0  0  0  0  0  0  0  0  0
  187.8410  178.1550  139.0400 C   0  0  0  0  0  0  0  0  0  0  0  0
  187.8510  177.8810  137.7690 C   0  0  0  0  0  3  0  0  0  0  0  0
  190.1210  177.8870  140.5870 O   0  0  0  0  0  1  0  0  0  0  0  0
  189.0200  178.5040  141.0290 O   0  0  0  0  0  0  0  0  0  0  0  0
  189.1300  177.8610  137.0130 C   0  0  0  0  0  2  0  0  0  0  0  0
  189.1540  176.6790  136.1580 N   0  0  0  0  0  2  0  0  0  0  0  0
  188.9240  175.5200  137.0240 C   0  0  2  0  0  3  0  0  0  0  0  0
  190.2350  174.8950  137.3970 C   0  0  0  0  0  3  0  0  0  0  0  0
  190.8140  175.2410  138.4150 O   0  0  0  0  0  0  0  0  0  0  0  0
  187.9660  174.5000  136.3810 C   0  0  0  0  0  2  0  0  0  0  0  0
  184.8130  172.8020  137.7650 C   0  0  0  0  0  2  0  0  0  0  0  0
  184.1670  174.8240  137.0210 C   0  0  0  0  0  2  0  0  0  0  0  0
  183.9200  173.4460  136.8950 O   0  0  0  0  0  0  0  0  0  0  0  0
  185.5150  175.1640  136.3840 C   0  0  0  0  0  2  0  0  0  0  0  0
  186.6180  174.3730  137.0910 C   0  0  0  0  0  3  0  0  0  0  0  0
  186.2360  172.8960  137.2130 C   0  0  0  0  0  2  0  0  0  0  0  0
  1 18  1  6  0  0  0
  1  7  1  0  0  0  0
  2 28  1  6  0  0  0
  2  4  1  0  0  0  0
  2  6  1  0  0  0  0
  3  8  1  1  0  0  0
  3  5  1  0  0  0  0
  4  6  1  0  0  0  0
  4  3  1  0  0  0  0
  5 14  1  0  0  0  0
  6  1  1  0  0  0  0
  7  5  1  0  0  0  0
  9 10  1  0  0  0  0
  9 12  1  0  0  0  0
 11  8  1  0  0  0  0
 12  8  1  0  0  0  0
 13 11  1  0  0  0  0
 13 10  1  0  0  0  0
 14 15  1  0  0  0  0
 15 16  1  0  0  0  0
 17 16  1  0  0  0  0
 19 18  1  0  0  0  0
 20 27  1  0  0  0  0
 21 20  1  0  0  0  0
 22 23  1  0  0  0  0
 22 21  1  0  0  0  0
 23 27  1  0  0  0  0
 24 22  1  0  0  0  0
 25 23  1  0  0  0  0
 26 24  1  0  0  0  0
 26 25  1  0  0  0  0
 27 19  1  0  0  0  0
 29 28  1  0  0  0  0
 29 33  1  0  0  0  0
 30 29  2  0  0  0  0
 31 30  2  0  0  0  0
 32 33  1  0  0  0  0
 34 31  1  0  0  0  0
 35 34  1  0  0  0  0
 35 36  1  0  0  0  0
 36 37  1  0  0  0  0
 37 38  2  0  0  0  0
 39 36  1  0  0  0  0
 39 44  1  0  0  0  0
 42 41  1  0  0  0  0
 42 40  1  0  0  0  0
 43 41  1  0  0  0  0
 43 44  1  0  0  0  0
 44 45  1  0  0  0  0
 45 40  1  0  0  0  0
M  END
>  <MODEL>
2

>  <REMARK>
 VINA RESULT:      -7.1      2.633      6.562
  Name = 
  16 active torsions:
  status: ('A' for Active; 'I' for Inactive)
    1  A    between atoms: C_1  and  O_23
    2  A    between atoms: C_1  and  C_28
    3  A    between atoms: C_4  and  CA_5
    4  A    between atoms: CA_5  and  C_21
    5  A    between atoms: CA_5  and  N_45
    6  A    between atoms: C_6  and  C_25
    7  A    between atoms: O_7  and  C_10
    8  A    between atoms: O_7  and  N_34
    9  A    between atoms: C_10  and  O_14
   10  A    between atoms: C_12  and  C_22
   11  A    between atoms: C_17  and  C_28
   12  A    between atoms: C_18  and  C_22
   13  A    between atoms: C_18  and  C_41
   14  A    between atoms: C_21  and  C_29
   15  A    between atoms: C_35  and  C_37
   16  A    between atoms: C_37  and  N_45
                            x       y       z     vdW  Elec       q    Type
                         _______ _______ _______ _____ _____    ______ ____

>  <TORSDO>
F 16

$$$$
=
 OpenBabel10232408253D

 45 50  0  0  1  0  0  0  0  0999 V2000
  186.9790  177.9850  141.8910 C   0  0  2  0  0  3  0  0  0  0  0  0
  185.0510  178.1370  143.5060 C   0  0  2  0  0  3  0  0  0  0  0  0
  187.1940  177.4000  144.4930 C   0  0  1  0  0  3  0  0  0  0  0  0
  186.3050  178.6240  144.2110 C   0  0  1  0  0  3  0  0  0  0  0  0
  188.4250  177.3250  143.6650 N   0  0  0  0  0  0  0  0  0  0  0  0
  186.0960  178.9020  142.7220 C   0  0  1  0  0  3  0  0  0  0  0  0
  188.3310  178.0480  142.4440 N   0  0  0  0  0  2  0  0  0  0  0  0
  187.4930  177.2750  145.9860 C   0  0  0  0  0  3  0  0  0  0  0  0
  187.2380  178.5010  148.2080 C   0  0  0  0  0  2  0  0  0  0  0  0
  188.1240  177.4140  148.5980 N   0  0  0  0  0  2  0  0  0  0  0  0
  188.9890  177.4330  146.2550 C   0  0  0  0  0  2  0  0  0  0  0  0
  186.6300  178.2240  146.8360 C   0  0  0  0  0  2  0  0  0  0  0  0
  189.3170  177.4920  147.7560 C   0  0  0  0  0  2  0  0  0  0  0  0
  188.6300  176.0220  143.3400 O   0  0  0  0  0  0  0  0  0  0  0  0
  189.8650  176.0000  142.6870 C   0  0  0  0  0  2  0  0  0  0  0  0
  190.8960  175.9680  143.6230 O   0  0  0  0  0  0  0  0  0  0  0  0
  191.7460  177.0240  143.2770 C   0  0  0  0  0  1  0  0  0  0  0  0
  186.9850  178.4580  140.4520 C   0  0  0  0  0  2  0  0  0  0  0  0
  188.3980  178.4450  139.8920 C   0  0  0  0  0  2  0  0  0  0  0  0
  188.7020  178.6080  137.3940 C   0  0  0  0  0  2  0  0  0  0  0  0
  189.4120  177.6990  136.4170 C   0  0  0  0  0  2  0  0  0  0  0  0
  189.6990  176.4330  137.1050 N   0  0  2  0  0  0  0  0  0  0  0  0
  189.4310  176.6150  138.4870 N   0  0  1  0  0  0  0  0  0  0  0  0
  191.1290  176.1730  136.9560 C   0  0  0  0  0  2  0  0  0  0  0  0
  190.6980  176.9860  139.1250 C   0  0  0  0  0  2  0  0  0  0  0  0
  191.7770  176.3490  138.3070 C   0  0  0  0  0  2  0  0  0  0  0  0
  188.4370  177.6950  138.5550 C   0  0  1  0  0  3  0  0  0  0  0  0
  183.8920  179.0730  143.8020 C   0  0  0  0  0  2  0  0  0  0  0  0
  182.7450  178.8550  142.8630 C   0  0  0  0  0  0  0  0  0  0  0  0
  183.0040  178.5840  141.6130 C   0  0  0  0  0  0  0  0  0  0  0  0
  183.2740  178.3250  140.3680 C   0  0  0  0  0  3  0  0  0  0  0  0
  180.7060  180.0790  142.8560 O   0  0  0  0  0  1  0  0  0  0  0  0
  181.4190  179.0290  143.2740 O   0  0  0  0  0  0  0  0  0  0  0  0
  182.1840  178.0040  139.4120 C   0  0  0  0  0  2  0  0  0  0  0  0
  182.4290  178.7150  138.1610 N   0  0  0  0  0  2  0  0  0  0  0  0
  182.2860  177.7370  137.0790 C   0  0  2  0  0  3  0  0  0  0  0  0
  180.9370  177.8780  136.4400 C   0  0  0  0  0  3  0  0  0  0  0  0
  180.6670  178.8750  135.7880 O   0  0  0  0  0  0  0  0  0  0  0  0
  182.5420  176.2980  137.5650 C   0  0  0  0  0  2  0  0  0  0  0  0
  185.4580  173.8320  137.1680 C   0  0  0  0  0  2  0  0  0  0  0  0
  186.1730  175.7950  136.3340 C   0  0  0  0  0  2  0  0  0  0  0  0
  186.4680  174.7980  137.2800 O   0  0  0  0  0  0  0  0  0  0  0  0
  184.9430  176.5820  136.7860 C   0  0  0  0  0  2  0  0  0  0  0  0
  183.7550  175.6270  136.9200 C   0  0  0  0  0  3  0  0  0  0  0  0
  184.1450  174.3840  137.7250 C   0  0  0  0  0  2  0  0  0  0  0  0
  1 18  1  6  0  0  0
  1  7  1  0  0  0  0
  1  6  1  0  0  0  0
  2 28  1  1  0  0  0
  2  4  1  0  0  0  0
  3  8  1  1  0  0  0
  4  3  1  0  0  0  0
  5  3  1  0  0  0  0
  6  2  1  0  0  0  0
  6  4  1  0  0  0  0
  7  5  1  0  0  0  0
  8 11  1  0  0  0  0
  8 12  1  0  0  0  0
  9 10  1  0  0  0  0
 11 13  1  0  0  0  0
 12  9  1  0  0  0  0
 13 10  1  0  0  0  0
 14  5  1  0  0  0  0
 15 14  1  0  0  0  0
 15 16  1  0  0  0  0
 17 16  1  0  0  0  0
 19 18  1  0  0  0  0
 20 27  1  0  0  0  0
 21 22  1  0  0  0  0
 21 20  1  0  0  0  0
 22 23  1  0  0  0  0
 23 27  1  0  0  0  0
 23 25  1  0  0  0  0
 24 22  1  0  0  0  0
 24 26  1  0  0  0  0
 26 25  1  0  0  0  0
 27 19  1  0  0  0  0
 29 33  1  0  0  0  0
 29 28  1  0  0  0  0
 30 29  2  0  0  0  0
 31 30  2  0  0  0  0
 32 33  1  0  0  0  0
 34 31  1  0  0  0  0
 35 34  1  0  0  0  0
 36 39  1  0  0  0  0
 36 35  1  0  0  0  0
 37 36  1  0  0  0  0
 38 37  2  0  0  0  0
 40 42  1  0  0  0  0
 40 45  1  0  0  0  0
 41 43  1  0  0  0  0
 41 42  1  0  0  0  0
 43 44  1  0  0  0  0
 44 39  1  0  0  0  0
 44 45  1  0  0  0  0
M  END
>  <MODEL>
3

>  <REMARK>
 VINA RESULT:      -7.0      1.854      2.320
  Name = 
  16 active torsions:
  status: ('A' for Active; 'I' for Inactive)
    1  A    between atoms: C_1  and  O_23
    2  A    between atoms: C_1  and  C_28
    3  A    between atoms: C_4  and  CA_5
    4  A    between atoms: CA_5  and  C_21
    5  A    between atoms: CA_5  and  N_45
    6  A    between atoms: C_6  and  C_25
    7  A    between atoms: O_7  and  C_10
    8  A    between atoms: O_7  and  N_34
    9  A    between atoms: C_10  and  O_14
   10  A    between atoms: C_12  and  C_22
   11  A    between atoms: C_17  and  C_28
   12  A    between atoms: C_18  and  C_22
   13  A    between atoms: C_18  and  C_41
   14  A    between atoms: C_21  and  C_29
   15  A    between atoms: C_35  and  C_37
   16  A    between atoms: C_37  and  N_45
                            x       y       z     vdW  Elec       q    Type
                         _______ _______ _______ _____ _____    ______ ____

>  <TORSDO>
F 16

$$$$
=
 OpenBabel10232408253D

 45 50  0  0  1  0  0  0  0  0999 V2000
  187.7910  177.8720  141.1300 C   0  0  2  0  0  3  0  0  0  0  0  0
  185.5200  177.9080  142.2200 C   0  0  2  0  0  3  0  0  0  0  0  0
  187.4070  177.4190  143.7390 C   0  0  1  0  0  3  0  0  0  0  0  0
  186.5180  178.5410  143.1750 C   0  0  1  0  0  3  0  0  0  0  0  0
  188.8060  177.4270  143.2390 N   0  0  0  0  0  0  0  0  0  0  0  0
  186.6590  178.7350  141.6630 C   0  0  1  0  0  3  0  0  0  0  0  0
  188.9560  178.0860  141.9880 N   0  0  0  0  0  2  0  0  0  0  0  0
  187.3400  177.3860  145.2650 C   0  0  0  0  0  3  0  0  0  0  0  0
  186.4110  178.6510  147.2760 C   0  0  0  0  0  2  0  0  0  0  0  0
  187.2860  177.6950  147.9370 N   0  0  0  0  0  2  0  0  0  0  0  0
  188.6960  177.7350  145.8770 C   0  0  0  0  0  2  0  0  0  0  0  0
  186.1950  178.2530  145.8180 C   0  0  0  0  0  2  0  0  0  0  0  0
  188.6340  177.8880  147.4050 C   0  0  0  0  0  2  0  0  0  0  0  0
  189.1900  176.1370  143.0560 O   0  0  0  0  0  0  0  0  0  0  0  0
  190.5380  176.2060  142.6970 C   0  0  0  0  0  2  0  0  0  0  0  0
  191.2930  175.3710  143.5190 O   0  0  0  0  0  0  0  0  0  0  0  0
  191.6670  176.1620  144.6100 C   0  0  0  0  0  1  0  0  0  0  0  0
  188.1120  178.2840  139.7080 C   0  0  0  0  0  2  0  0  0  0  0  0
  186.9990  177.8550  138.7650 C   0  0  0  0  0  2  0  0  0  0  0  0
  188.8610  178.4820  137.1840 C   0  0  0  0  0  2  0  0  0  0  0  0
  189.2580  177.9150  135.8390 C   0  0  0  0  0  2  0  0  0  0  0  0
  188.1630  177.0550  135.3710 N   0  0  2  0  0  0  0  0  0  0  0  0
  187.2550  176.8770  136.4480 N   0  0  1  0  0  0  0  0  0  0  0  0
  188.7400  175.7520  135.0520 C   0  0  0  0  0  2  0  0  0  0  0  0
  187.6340  175.6350  137.1290 C   0  0  0  0  0  2  0  0  0  0  0  0
  188.2590  174.7640  136.0850 C   0  0  0  0  0  2  0  0  0  0  0  0
  187.4270  178.0570  137.3060 C   0  0  1  0  0  3  0  0  0  0  0  0
  184.2510  178.7410  142.1680 C   0  0  0  0  0  2  0  0  0  0  0  0
  183.6640  178.7790  140.7900 C   0  0  0  0  0  0  0  0  0  0  0  0
  183.1920  177.6740  140.2810 C   0  0  0  0  0  0  0  0  0  0  0  0
  182.7360  176.5650  139.7800 C   0  0  0  0  0  3  0  0  0  0  0  0
  184.5280  180.0420  138.9690 O   0  0  0  0  0  1  0  0  0  0  0  0
  183.6980  179.9410  140.0120 O   0  0  0  0  0  0  0  0  0  0  0  0
  182.0540  176.5590  138.4600 C   0  0  0  0  0  2  0  0  0  0  0  0
  182.9400  177.1610  137.4690 N   0  0  0  0  0  2  0  0  0  0  0  0
  183.1890  176.1440  136.4450 C   0  0  2  0  0  3  0  0  0  0  0  0
  182.9590  176.7270  135.0820 C   0  0  0  0  0  3  0  0  0  0  0  0
  182.4400  177.8270  134.9630 O   0  0  0  0  0  0  0  0  0  0  0  0
  182.3460  174.8760  136.6740 C   0  0  0  0  0  2  0  0  0  0  0  0
  185.3700  172.7040  137.6110 C   0  0  0  0  0  2  0  0  0  0  0  0
  184.4220  171.7270  135.8210 C   0  0  0  0  0  2  0  0  0  0  0  0
  185.6280  172.2620  136.3060 O   0  0  0  0  0  0  0  0  0  0  0  0
  183.4250  172.8590  135.5700 C   0  0  0  0  0  2  0  0  0  0  0  0
  183.1710  173.6060  136.8810 C   0  0  0  0  0  3  0  0  0  0  0  0
  184.4920  173.9550  137.5730 C   0  0  0  0  0  2  0  0  0  0  0  0
  1 18  1  6  0  0  0
  1  6  1  0  0  0  0
  1  7  1  0  0  0  0
  2 28  1  1  0  0  0
  2  4  1  0  0  0  0
  3  8  1  1  0  0  0
  4  3  1  0  0  0  0
  5  3  1  0  0  0  0
  6  2  1  0  0  0  0
  6  4  1  0  0  0  0
  7  5  1  0  0  0  0
  8 12  1  0  0  0  0
  8 11  1  0  0  0  0
  9 10  1  0  0  0  0
 11 13  1  0  0  0  0
 12  9  1  0  0  0  0
 13 10  1  0  0  0  0
 14  5  1  0  0  0  0
 15 14  1  0  0  0  0
 15 16  1  0  0  0  0
 16 17  1  0  0  0  0
 19 18  1  0  0  0  0
 20 27  1  0  0  0  0
 21 20  1  0  0  0  0
 22 21  1  0  0  0  0
 22 23  1  0  0  0  0
 23 25  1  0  0  0  0
 23 27  1  0  0  0  0
 24 22  1  0  0  0  0
 24 26  1  0  0  0  0
 26 25  1  0  0  0  0
 27 19  1  0  0  0  0
 29 28  1  0  0  0  0
 30 29  2  0  0  0  0
 31 30  2  0  0  0  0
 32 33  1  0  0  0  0
 33 29  1  0  0  0  0
 34 31  1  0  0  0  0
 35 34  1  0  0  0  0
 36 39  1  0  0  0  0
 36 35  1  0  0  0  0
 37 36  1  0  0  0  0
 38 37  2  0  0  0  0
 39 44  1  0  0  0  0
 41 42  1  0  0  0  0
 42 40  1  0  0  0  0
 43 41  1  0  0  0  0
 43 44  1  0  0  0  0
 44 45  1  0  0  0  0
 45 40  1  0  0  0  0
M  END
>  <MODEL>
4

>  <REMARK>
 VINA RESULT:      -6.9      1.926      2.671
  Name = 
  16 active torsions:
  status: ('A' for Active; 'I' for Inactive)
    1  A    between atoms: C_1  and  O_23
    2  A    between atoms: C_1  and  C_28
    3  A    between atoms: C_4  and  CA_5
    4  A    between atoms: CA_5  and  C_21
    5  A    between atoms: CA_5  and  N_45
    6  A    between atoms: C_6  and  C_25
    7  A    between atoms: O_7  and  C_10
    8  A    between atoms: O_7  and  N_34
    9  A    between atoms: C_10  and  O_14
   10  A    between atoms: C_12  and  C_22
   11  A    between atoms: C_17  and  C_28
   12  A    between atoms: C_18  and  C_22
   13  A    between atoms: C_18  and  C_41
   14  A    between atoms: C_21  and  C_29
   15  A    between atoms: C_35  and  C_37
   16  A    between atoms: C_37  and  N_45
                            x       y       z     vdW  Elec       q    Type
                         _______ _______ _______ _____ _____    ______ ____

>  <TORSDO>
F 16

$$$$
=
 OpenBabel10232408253D

 45 50  0  0  1  0  0  0  0  0999 V2000
  186.5050  176.8800  137.1310 C   0  0  2  0  0  3  0  0  0  0  0  0
  188.1780  177.3750  138.9480 C   0  0  2  0  0  3  0  0  0  0  0  0
  189.0010  175.9160  137.1300 C   0  0  1  0  0  3  0  0  0  0  0  0
  188.9060  177.3730  137.6150 C   0  0  1  0  0  3  0  0  0  0  0  0
  188.1360  175.5950  135.9650 N   0  0  0  0  0  0  0  0  0  0  0  0
  187.4720  177.8970  137.7150 C   0  0  1  0  0  3  0  0  0  0  0  0
  187.0240  176.4690  135.8270 N   0  0  0  0  0  2  0  0  0  0  0  0
  190.4560  175.5120  136.8990 C   0  0  0  0  0  3  0  0  0  0  0  0
  192.8310  175.9490  137.7200 C   0  0  0  0  0  2  0  0  0  0  0  0
  193.0970  175.1620  136.5250 N   0  0  0  0  0  2  0  0  0  0  0  0
  190.9780  176.0880  135.5840 C   0  0  0  0  0  2  0  0  0  0  0  0
  191.3550  175.8560  138.1000 C   0  0  0  0  0  2  0  0  0  0  0  0
  192.4860  175.8570  135.3930 C   0  0  0  0  0  2  0  0  0  0  0  0
  187.6380  174.3450  136.1490 O   0  0  0  0  0  0  0  0  0  0  0  0
  187.3960  173.8570  134.8630 C   0  0  0  0  0  2  0  0  0  0  0  0
  187.0600  172.5050  134.9230 O   0  0  0  0  0  0  0  0  0  0  0  0
  185.7110  172.4730  135.2900 C   0  0  0  0  0  1  0  0  0  0  0  0
  185.1400  177.5190  136.9680 C   0  0  0  0  0  2  0  0  0  0  0  0
  184.4180  177.5830  138.3040 C   0  0  0  0  0  2  0  0  0  0  0  0
  182.0630  178.1850  137.6340 C   0  0  0  0  0  2  0  0  0  0  0  0
  181.0090  179.0100  138.3370 C   0  0  0  0  0  2  0  0  0  0  0  0
  181.6610  179.7320  139.4380 N   0  0  2  0  0  0  0  0  0  0  0  0
  182.9710  179.2080  139.5910 N   0  0  1  0  0  0  0  0  0  0  0  0
  180.9130  179.4320  140.6570 C   0  0  0  0  0  2  0  0  0  0  0  0
  182.9000  178.1650  140.6190 C   0  0  0  0  0  2  0  0  0  0  0  0
  181.7780  178.5570  141.5290 C   0  0  0  0  0  2  0  0  0  0  0  0
  183.3330  178.6660  138.2740 C   0  0  1  0  0  3  0  0  0  0  0  0
  188.6260  178.5620  139.7840 C   0  0  0  0  0  2  0  0  0  0  0  0
  188.3930  178.3340  141.2460 C   0  0  0  0  0  0  0  0  0  0  0  0
  187.1770  178.4380  141.7090 C   0  0  0  0  0  0  0  0  0  0  0  0
  185.9650  178.5560  142.1610 C   0  0  0  0  0  3  0  0  0  0  0  0
  190.5830  177.5290  141.7080 O   0  0  0  0  0  1  0  0  0  0  0  0
  189.4540  178.1070  142.1300 O   0  0  0  0  0  0  0  0  0  0  0  0
  185.6550  178.2460  143.5800 C   0  0  0  0  0  2  0  0  0  0  0  0
  186.7950  177.5510  144.1710 N   0  0  0  0  0  2  0  0  0  0  0  0
  186.6040  177.5760  145.6230 C   0  0  2  0  0  3  0  0  0  0  0  0
  185.3900  178.3880  145.9630 C   0  0  0  0  0  3  0  0  0  0  0  0
  185.2250  178.8010  147.1010 O   0  0  0  0  0  0  0  0  0  0  0  0
  187.8570  178.0850  146.3610 C   0  0  0  0  0  2  0  0  0  0  0  0
  191.0600  176.1700  147.2600 C   0  0  0  0  0  2  0  0  0  0  0  0
  191.4160  177.0790  145.2340 C   0  0  0  0  0  2  0  0  0  0  0  0
  191.9250  177.0090  146.5420 O   0  0  0  0  0  0  0  0  0  0  0  0
  190.1230  177.8960  145.2310 C   0  0  0  0  0  2  0  0  0  0  0  0
  189.1010  177.2230  146.1490 C   0  0  0  0  0  3  0  0  0  0  0  0
  189.7290  176.8800  147.5030 C   0  0  0  0  0  2  0  0  0  0  0  0
  1 18  1  6  0  0  0
  1  6  1  0  0  0  0
  2 28  1  1  0  0  0
  3  8  1  6  0  0  0
  3  4  1  0  0  0  0
  4  6  1  0  0  0  0
  4  2  1  0  0  0  0
  5 14  1  0  0  0  0
  5  3  1  0  0  0  0
  6  2  1  0  0  0  0
  7  5  1  0  0  0  0
  7  1  1  0  0  0  0
  8 12  1  0  0  0  0
  9 12  1  0  0  0  0
 10  9  1  0  0  0  0
 11  8  1  0  0  0  0
 13 11  1  0  0  0  0
 13 10  1  0  0  0  0
 15 16  1  0  0  0  0
 15 14  1  0  0  0  0
 16 17  1  0  0  0  0
 18 19  1  0  0  0  0
 20 27  1  0  0  0  0
 20 21  1  0  0  0  0
 21 22  1  0  0  0  0
 22 23  1  0  0  0  0
 22 24  1  0  0  0  0
 23 25  1  0  0  0  0
 24 26  1  0  0  0  0
 25 26  1  0  0  0  0
 27 19  1  0  0  0  0
 27 23  1  0  0  0  0
 28 29  1  0  0  0  0
 29 30  2  0  0  0  0
 29 33  1  0  0  0  0
 30 31  2  0  0  0  0
 31 34  1  0  0  0  0
 32 33  1  0  0  0  0
 34 35  1  0  0  0  0
 35 36  1  0  0  0  0
 36 37  1  0  0  0  0
 36 39  1  0  0  0  0
 37 38  2  0  0  0  0
 40 45  1  0  0  0  0
 41 42  1  0  0  0  0
 42 40  1  0  0  0  0
 43 41  1  0  0  0  0
 43 44  1  0  0  0  0
 44 39  1  0  0  0  0
 44 45  1  0  0  0  0
M  END
>  <MODEL>
5

>  <REMARK>
 VINA RESULT:      -6.9      2.578      9.191
  Name = 
  16 active torsions:
  status: ('A' for Active; 'I' for Inactive)
    1  A    between atoms: C_1  and  O_23
    2  A    between atoms: C_1  and  C_28
    3  A    between atoms: C_4  and  CA_5
    4  A    between atoms: CA_5  and  C_21
    5  A    between atoms: CA_5  and  N_45
    6  A    between atoms: C_6  and  C_25
    7  A    between atoms: O_7  and  C_10
    8  A    between atoms: O_7  and  N_34
    9  A    between atoms: C_10  and  O_14
   10  A    between atoms: C_12  and  C_22
   11  A    between atoms: C_17  and  C_28
   12  A    between atoms: C_18  and  C_22
   13  A    between atoms: C_18  and  C_41
   14  A    between atoms: C_21  and  C_29
   15  A    between atoms: C_35  and  C_37
   16  A    between atoms: C_37  and  N_45
                            x       y       z     vdW  Elec       q    Type
                         _______ _______ _______ _____ _____    ______ ____

>  <TORSDO>
F 16

$$$$
=
 OpenBabel10232408253D

 45 50  0  0  1  0  0  0  0  0999 V2000
  185.7640  176.7690  137.3070 C   0  0  2  0  0  3  0  0  0  0  0  0
  187.9060  177.2670  138.5350 C   0  0  2  0  0  3  0  0  0  0  0  0
  188.1010  175.6150  136.7080 C   0  0  1  0  0  3  0  0  0  0  0  0
  188.2270  177.1070  137.0590 C   0  0  1  0  0  3  0  0  0  0  0  0
  186.9270  175.2740  135.8640 N   0  0  0  0  0  0  0  0  0  0  0  0
  186.9100  177.7480  137.5010 C   0  0  1  0  0  3  0  0  0  0  0  0
  185.8700  176.2210  135.9560 N   0  0  0  0  0  2  0  0  0  0  0  0
  189.4080  175.0800  136.1230 C   0  0  0  0  0  3  0  0  0  0  0  0
  191.4930  173.7390  136.7240 C   0  0  0  0  0  2  0  0  0  0  0  0
  191.8660  174.2500  135.4130 N   0  0  0  0  0  2  0  0  0  0  0  0
  190.4030  176.2160  135.8890 C   0  0  0  0  0  2  0  0  0  0  0  0
  189.9970  173.9340  136.9630 C   0  0  0  0  0  2  0  0  0  0  0  0
  191.7920  175.7090  135.4680 C   0  0  0  0  0  2  0  0  0  0  0  0
  186.4340  174.0850  136.2960 O   0  0  0  0  0  0  0  0  0  0  0  0
  185.8340  173.5100  135.1730 C   0  0  0  0  0  2  0  0  0  0  0  0
  184.9930  172.4700  135.5650 O   0  0  0  0  0  0  0  0  0  0  0  0
  184.9840  172.5040  136.9630 C   0  0  0  0  0  1  0  0  0  0  0  0
  184.4450  177.4990  137.4680 C   0  0  0  0  0  2  0  0  0  0  0  0
  184.4310  178.2960  138.7620 C   0  0  0  0  0  2  0  0  0  0  0  0
  183.2510  178.3840  140.9890 C   0  0  0  0  0  2  0  0  0  0  0  0
  181.8380  178.7820  141.3510 C   0  0  0  0  0  2  0  0  0  0  0  0
  181.0560  178.8520  140.1090 N   0  0  2  0  0  0  0  0  0  0  0  0
  181.9600  178.7650  139.0180 N   0  0  1  0  0  0  0  0  0  0  0  0
  180.4270  180.1690  140.0660 C   0  0  0  0  0  2  0  0  0  0  0  0
  182.2870  180.1380  138.6200 C   0  0  0  0  0  2  0  0  0  0  0  0
  181.0930  180.9670  138.9730 C   0  0  0  0  0  2  0  0  0  0  0  0
  183.1300  178.0410  139.5330 C   0  0  1  0  0  3  0  0  0  0  0  0
  188.6360  178.4750  139.0980 C   0  0  0  0  0  2  0  0  0  0  0  0
  188.8780  178.3440  140.5700 C   0  0  0  0  0  0  0  0  0  0  0  0
  189.9670  177.7500  140.9740 C   0  0  0  0  0  0  0  0  0  0  0  0
  191.0490  177.1450  141.3650 C   0  0  0  0  0  3  0  0  0  0  0  0
  186.6940  179.1060  141.1240 O   0  0  0  0  0  1  0  0  0  0  0  0
  187.9260  178.7590  141.5080 O   0  0  0  0  0  0  0  0  0  0  0  0
  191.3930  177.0720  142.8080 C   0  0  0  0  0  2  0  0  0  0  0  0
  190.2130  176.6430  143.5530 N   0  0  0  0  0  2  0  0  0  0  0  0
  190.2880  177.2740  144.8720 C   0  0  2  0  0  3  0  0  0  0  0  0
  191.5900  176.9260  145.5300 C   0  0  0  0  0  3  0  0  0  0  0  0
  191.6790  176.9100  146.7480 O   0  0  0  0  0  0  0  0  0  0  0  0
  189.0830  176.9060  145.7580 C   0  0  0  0  0  2  0  0  0  0  0  0
  185.9930  178.8790  146.8950 C   0  0  0  0  0  2  0  0  0  0  0  0
  185.6650  178.3890  144.7240 C   0  0  0  0  0  2  0  0  0  0  0  0
  185.1020  178.2590  146.0060 O   0  0  0  0  0  0  0  0  0  0  0  0
  186.8930  177.4840  144.6110 C   0  0  0  0  0  2  0  0  0  0  0  0
  187.9180  177.8910  145.6710 C   0  0  0  0  0  3  0  0  0  0  0  0
  187.2550  178.0300  147.0440 C   0  0  0  0  0  2  0  0  0  0  0  0
  1 18  1  6  0  0  0
  1  6  1  0  0  0  0
  2 28  1  6  0  0  0
  3  8  1  6  0  0  0
  3  4  1  0  0  0  0
  4  6  1  0  0  0  0
  4  2  1  0  0  0  0
  5  7  1  0  0  0  0
  5 14  1  0  0  0  0
  5  3  1  0  0  0  0
  6  2  1  0  0  0  0
  7  1  1  0  0  0  0
  8 12  1  0  0  0  0
  9 12  1  0  0  0  0
 10 13  1  0  0  0  0
 10  9  1  0  0  0  0
 11  8  1  0  0  0  0
 13 11  1  0  0  0  0
 15 16  1  0  0  0  0
 15 14  1  0  0  0  0
 16 17  1  0  0  0  0
 18 19  1  0  0  0  0
 19 27  1  0  0  0  0
 20 21  1  0  0  0  0
 22 21  1  0  0  0  0
 23 27  1  0  0  0  0
 23 22  1  0  0  0  0
 24 22  1  0  0  0  0
 25 26  1  0  0  0  0
 25 23  1  0  0  0  0
 26 24  1  0  0  0  0
 27 20  1  0  0  0  0
 28 29  1  0  0  0  0
 29 30  2  0  0  0  0
 29 33  1  0  0  0  0
 30 31  2  0  0  0  0
 31 34  1  0  0  0  0
 32 33  1  0  0  0  0
 34 35  1  0  0  0  0
 35 36  1  0  0  0  0
 36 37  1  0  0  0  0
 36 39  1  0  0  0  0
 37 38  2  0  0  0  0
 40 45  1  0  0  0  0
 41 42  1  0  0  0  0
 42 40  1  0  0  0  0
 43 41  1  0  0  0  0
 43 44  1  0  0  0  0
 44 39  1  0  0  0  0
 44 45  1  0  0  0  0
M  END
>  <MODEL>
6

>  <REMARK>
 VINA RESULT:      -6.6      2.556      9.509
  Name = 
  16 active torsions:
  status: ('A' for Active; 'I' for Inactive)
    1  A    between atoms: C_1  and  O_23
    2  A    between atoms: C_1  and  C_28
    3  A    between atoms: C_4  and  CA_5
    4  A    between atoms: CA_5  and  C_21
    5  A    between atoms: CA_5  and  N_45
    6  A    between atoms: C_6  and  C_25
    7  A    between atoms: O_7  and  C_10
    8  A    between atoms: O_7  and  N_34
    9  A    between atoms: C_10  and  O_14
   10  A    between atoms: C_12  and  C_22
   11  A    between atoms: C_17  and  C_28
   12  A    between atoms: C_18  and  C_22
   13  A    between atoms: C_18  and  C_41
   14  A    between atoms: C_21  and  C_29
   15  A    between atoms: C_35  and  C_37
   16  A    between atoms: C_37  and  N_45
                            x       y       z     vdW  Elec       q    Type
                         _______ _______ _______ _____ _____    ______ ____

>  <TORSDO>
F 16

$$$$
=
 OpenBabel10232408253D

 45 50  0  0  1  0  0  0  0  0999 V2000
  188.5030  175.7150  135.9390 C   0  0  2  0  0  3  0  0  0  0  0  0
  189.4440  176.9660  137.9120 C   0  0  2  0  0  3  0  0  0  0  0  0
  191.0940  175.6730  136.6030 C   0  0  1  0  0  3  0  0  0  0  0  0
  190.4410  177.0560  136.7690 C   0  0  1  0  0  3  0  0  0  0  0  0
  190.6840  174.9380  135.3790 N   0  0  0  0  0  0  0  0  0  0  0  0
  188.9370  177.0640  136.4890 C   0  0  1  0  0  3  0  0  0  0  0  0
  189.4260  175.3550  134.8630 N   0  0  0  0  0  2  0  0  0  0  0  0
  192.6130  175.7680  136.7380 C   0  0  0  0  0  3  0  0  0  0  0  0
  194.7870  175.3240  135.4790 C   0  0  0  0  0  2  0  0  0  0  0  0
  195.2970  175.5990  136.8140 N   0  0  0  0  0  2  0  0  0  0  0  0
  193.1410  174.7030  137.6970 C   0  0  0  0  0  2  0  0  0  0  0  0
  193.3230  175.7460  135.3730 C   0  0  0  0  0  2  0  0  0  0  0  0
  194.6770  174.6440  137.7300 C   0  0  0  0  0  2  0  0  0  0  0  0
  190.5640  173.6240  135.7020 O   0  0  0  0  0  0  0  0  0  0  0  0
  190.2330  172.9840  134.5060 C   0  0  0  0  0  2  0  0  0  0  0  0
  190.1640  171.6060  134.7080 O   0  0  0  0  0  0  0  0  0  0  0  0
  188.8630  171.3600  135.1560 C   0  0  0  0  0  1  0  0  0  0  0  0
  187.0920  175.8220  135.3970 C   0  0  0  0  0  2  0  0  0  0  0  0
  186.3830  177.0290  135.9890 C   0  0  0  0  0  2  0  0  0  0  0  0
  184.8300  175.3520  137.0530 C   0  0  0  0  0  2  0  0  0  0  0  0
  183.6090  175.5410  137.9260 C   0  0  0  0  0  2  0  0  0  0  0  0
  183.2160  176.9540  137.8540 N   0  0  2  0  0  0  0  0  0  0  0  0
  184.2570  177.6650  137.1990 N   0  0  1  0  0  0  0  0  0  0  0  0
  183.1280  177.4510  139.2250 C   0  0  0  0  0  2  0  0  0  0  0  0
  185.1360  178.1980  138.2440 C   0  0  0  0  0  2  0  0  0  0  0  0
  184.2700  178.4110  139.4460 C   0  0  0  0  0  2  0  0  0  0  0  0
  184.9360  176.6750  136.3520 C   0  0  1  0  0  3  0  0  0  0  0  0
  189.2870  178.3250  138.5720 C   0  0  0  0  0  2  0  0  0  0  0  0
  188.9900  178.2030  140.0360 C   0  0  0  0  0  0  0  0  0  0  0  0
  189.7040  177.3790  140.7520 C   0  0  0  0  0  0  0  0  0  0  0  0
  190.4140  176.5470  141.4530 C   0  0  0  0  0  3  0  0  0  0  0  0
  187.0820  178.2440  141.4550 O   0  0  0  0  0  1  0  0  0  0  0  0
  187.9140  178.8780  140.6230 O   0  0  0  0  0  0  0  0  0  0  0  0
  190.2330  176.4540  142.9240 C   0  0  0  0  0  2  0  0  0  0  0  0
  190.6950  177.6960  143.5360 N   0  0  0  0  0  2  0  0  0  0  0  0
  190.4630  177.5740  144.9770 C   0  0  2  0  0  3  0  0  0  0  0  0
  191.6030  176.8380  145.6160 C   0  0  0  0  0  3  0  0  0  0  0  0
  191.7830  176.9110  146.8220 O   0  0  0  0  0  0  0  0  0  0  0  0
  189.1080  176.9120  145.2900 C   0  0  0  0  0  2  0  0  0  0  0  0
  186.4090  178.7290  147.3280 C   0  0  0  0  0  2  0  0  0  0  0  0
  185.5920  178.5200  145.2430 C   0  0  0  0  0  2  0  0  0  0  0  0
  185.3250  178.2290  146.5920 O   0  0  0  0  0  0  0  0  0  0  0  0
  186.7350  177.6350  144.7450 C   0  0  0  0  0  2  0  0  0  0  0  0
  187.9830  177.9030  145.5900 C   0  0  0  0  0  3  0  0  0  0  0  0
  187.6470  177.8660  147.0830 C   0  0  0  0  0  2  0  0  0  0  0  0
  1 18  1  6  0  0  0
  1  6  1  0  0  0  0
  2 28  1  1  0  0  0
  3  8  1  6  0  0  0
  3  4  1  0  0  0  0
  4  2  1  0  0  0  0
  5 14  1  0  0  0  0
  5  3  1  0  0  0  0
  6  4  1  0  0  0  0
  6  2  1  0  0  0  0
  7  5  1  0  0  0  0
  7  1  1  0  0  0  0
  8 11  1  0  0  0  0
  9 10  1  0  0  0  0
 10 13  1  0  0  0  0
 11 13  1  0  0  0  0
 12  9  1  0  0  0  0
 12  8  1  0  0  0  0
 15 16  1  0  0  0  0
 15 14  1  0  0  0  0
 16 17  1  0  0  0  0
 18 19  1  0  0  0  0
 19 27  1  0  0  0  0
 20 21  1  0  0  0  0
 22 21  1  0  0  0  0
 22 24  1  0  0  0  0
 23 22  1  0  0  0  0
 23 25  1  0  0  0  0
 24 26  1  0  0  0  0
 25 26  1  0  0  0  0
 27 20  1  0  0  0  0
 27 23  1  0  0  0  0
 28 29  1  0  0  0  0
 29 33  1  0  0  0  0
 29 30  2  0  0  0  0
 30 31  2  0  0  0  0
 31 34  1  0  0  0  0
 33 32  1  0  0  0  0
 34 35  1  0  0  0  0
 35 36  1  0  0  0  0
 36 39  1  0  0  0  0
 36 37  1  0  0  0  0
 37 38  2  0  0  0  0
 39 44  1  0  0  0  0
 41 42  1  0  0  0  0
 42 40  1  0  0  0  0
 43 41  1  0  0  0  0
 43 44  1  0  0  0  0
 44 45  1  0  0  0  0
 45 40  1  0  0  0  0
M  END
>  <MODEL>
7

>  <REMARK>
 VINA RESULT:      -6.5      2.621      9.245
  Name = 
  16 active torsions:
  status: ('A' for Active; 'I' for Inactive)
    1  A    between atoms: C_1  and  O_23
    2  A    between atoms: C_1  and  C_28
    3  A    between atoms: C_4  and  CA_5
    4  A    between atoms: CA_5  and  C_21
    5  A    between atoms: CA_5  and  N_45
    6  A    between atoms: C_6  and  C_25
    7  A    between atoms: O_7  and  C_10
    8  A    between atoms: O_7  and  N_34
    9  A    between atoms: C_10  and  O_14
   10  A    between atoms: C_12  and  C_22
   11  A    between atoms: C_17  and  C_28
   12  A    between atoms: C_18  and  C_22
   13  A    between atoms: C_18  and  C_41
   14  A    between atoms: C_21  and  C_29
   15  A    between atoms: C_35  and  C_37
   16  A    between atoms: C_37  and  N_45
                            x       y       z     vdW  Elec       q    Type
                         _______ _______ _______ _____ _____    ______ ____

>  <TORSDO>
F 16

$$$$
=
 OpenBabel10232408253D

 45 50  0  0  1  0  0  0  0  0999 V2000
  188.6910  177.0830  137.0200 C   0  0  2  0  0  3  0  0  0  0  0  0
  190.4440  176.4770  138.7240 C   0  0  2  0  0  3  0  0  0  0  0  0
  190.6380  175.3090  136.5550 C   0  0  1  0  0  3  0  0  0  0  0  0
  191.1050  176.5350  137.3570 C   0  0  1  0  0  3  0  0  0  0  0  0
  189.7050  175.6170  135.4400 N   0  0  0  0  0  0  0  0  0  0  0  0
  189.9760  177.5030  137.7140 C   0  0  1  0  0  3  0  0  0  0  0  0
  189.0040  176.8420  135.6120 N   0  0  0  0  0  2  0  0  0  0  0  0
  191.8310  174.4710  136.0950 C   0  0  0  0  0  3  0  0  0  0  0  0
  192.4690  172.1450  135.2660 C   0  0  0  0  0  2  0  0  0  0  0  0
  193.7850  172.7240  135.4920 N   0  0  0  0  0  2  0  0  0  0  0  0
  192.7370  174.1230  137.2750 C   0  0  0  0  0  2  0  0  0  0  0  0
  191.3990  173.2350  135.2870 C   0  0  0  0  0  2  0  0  0  0  0  0
  193.8520  173.1360  136.8930 C   0  0  0  0  0  2  0  0  0  0  0  0
  188.7740  174.6300  135.3920 O   0  0  0  0  0  0  0  0  0  0  0  0
  187.6840  175.1900  134.7210 C   0  0  0  0  0  2  0  0  0  0  0  0
  186.5890  174.3320  134.7930 O   0  0  0  0  0  0  0  0  0  0  0  0
  185.9830  174.6050  136.0240 C   0  0  0  0  0  1  0  0  0  0  0  0
  187.6670  178.1940  137.1400 C   0  0  0  0  0  2  0  0  0  0  0  0
  186.8610  178.0400  138.4200 C   0  0  0  0  0  2  0  0  0  0  0  0
  184.4520  177.5580  137.8530 C   0  0  0  0  0  2  0  0  0  0  0  0
  183.1650  178.0980  138.4370 C   0  0  0  0  0  2  0  0  0  0  0  0
  183.5000  179.2630  139.2660 N   0  0  2  0  0  0  0  0  0  0  0  0
  184.9110  179.3050  139.4140 N   0  0  1  0  0  0  0  0  0  0  0  0
  182.9180  179.0370  140.5870 C   0  0  0  0  0  2  0  0  0  0  0  0
  185.2340  178.6090  140.6640 C   0  0  0  0  0  2  0  0  0  0  0  0
  184.0460  178.7890  141.5570 C   0  0  0  0  0  2  0  0  0  0  0  0
  185.4500  178.6110  138.2360 C   0  0  1  0  0  3  0  0  0  0  0  0
  191.3150  177.1780  139.7530 C   0  0  0  0  0  2  0  0  0  0  0  0
  190.5580  177.4860  141.0070 C   0  0  0  0  0  0  0  0  0  0  0  0
  191.2200  177.5960  142.1270 C   0  0  0  0  0  0  0  0  0  0  0  0
  191.8880  177.6910  143.2370 C   0  0  0  0  0  3  0  0  0  0  0  0
  188.5170  178.1630  142.0260 O   0  0  0  0  0  1  0  0  0  0  0  0
  189.1610  177.5660  141.0180 O   0  0  0  0  0  0  0  0  0  0  0  0
  191.2070  178.0910  144.4950 C   0  0  0  0  0  2  0  0  0  0  0  0
  190.6400  176.9020  145.1240 N   0  0  0  0  0  2  0  0  0  0  0  0
  190.1830  177.3010  146.4570 C   0  0  2  0  0  3  0  0  0  0  0  0
  191.1040  176.7400  147.4990 C   0  0  0  0  0  3  0  0  0  0  0  0
  192.2690  176.4960  147.2240 O   0  0  0  0  0  0  0  0  0  0  0  0
  188.7190  176.8980  146.7110 C   0  0  0  0  0  2  0  0  0  0  0  0
  185.6060  179.1450  146.6870 C   0  0  0  0  0  2  0  0  0  0  0  0
  185.7950  178.3050  144.6090 C   0  0  0  0  0  2  0  0  0  0  0  0
  184.9210  178.4150  145.7040 O   0  0  0  0  0  0  0  0  0  0  0  0
  186.9370  177.3510  144.9590 C   0  0  0  0  0  2  0  0  0  0  0  0
  187.6930  177.8950  146.1730 C   0  0  0  0  0  3  0  0  0  0  0  0
  186.7200  178.2890  147.2880 C   0  0  0  0  0  2  0  0  0  0  0  0
  1 18  1  6  0  0  0
  1  6  1  0  0  0  0
  2 28  1  1  0  0  0
  3  8  1  6  0  0  0
  3  4  1  0  0  0  0
  4  6  1  0  0  0  0
  4  2  1  0  0  0  0
  5  7  1  0  0  0  0
  5  3  1  0  0  0  0
  6  2  1  0  0  0  0
  7  1  1  0  0  0  0
  8 11  1  0  0  0  0
  9 12  1  0  0  0  0
  9 10  1  0  0  0  0
 10 13  1  0  0  0  0
 12  8  1  0  0  0  0
 13 11  1  0  0  0  0
 14  5  1  0  0  0  0
 15 16  1  0  0  0  0
 15 14  1  0  0  0  0
 16 17  1  0  0  0  0
 18 19  1  0  0  0  0
 20 27  1  0  0  0  0
 20 21  1  0  0  0  0
 21 22  1  0  0  0  0
 22 23  1  0  0  0  0
 22 24  1  0  0  0  0
 23 25  1  0  0  0  0
 24 26  1  0  0  0  0
 25 26  1  0  0  0  0
 27 19  1  0  0  0  0
 27 23  1  0  0  0  0
 28 29  1  0  0  0  0
 29 33  1  0  0  0  0
 29 30  2  0  0  0  0
 30 31  2  0  0  0  0
 31 34  1  0  0  0  0
 33 32  1  0  0  0  0
 34 35  1  0  0  0  0
 35 36  1  0  0  0  0
 36 39  1  0  0  0  0
 36 37  1  0  0  0  0
 38 37  2  0  0  0  0
 40 45  1  0  0  0  0
 41 43  1  0  0  0  0
 41 42  1  0  0  0  0
 42 40  1  0  0  0  0
 43 44  1  0  0  0  0
 44 39  1  0  0  0  0
 44 45  1  0  0  0  0
M  END
>  <MODEL>
8

>  <REMARK>
 VINA RESULT:      -6.4      2.559      9.602
  Name = 
  16 active torsions:
  status: ('A' for Active; 'I' for Inactive)
    1  A    between atoms: C_1  and  O_23
    2  A    between atoms: C_1  and  C_28
    3  A    between atoms: C_4  and  CA_5
    4  A    between atoms: CA_5  and  C_21
    5  A    between atoms: CA_5  and  N_45
    6  A    between atoms: C_6  and  C_25
    7  A    between atoms: O_7  and  C_10
    8  A    between atoms: O_7  and  N_34
    9  A    between atoms: C_10  and  O_14
   10  A    between atoms: C_12  and  C_22
   11  A    between atoms: C_17  and  C_28
   12  A    between atoms: C_18  and  C_22
   13  A    between atoms: C_18  and  C_41
   14  A    between atoms: C_21  and  C_29
   15  A    between atoms: C_35  and  C_37
   16  A    between atoms: C_37  and  N_45
                            x       y       z     vdW  Elec       q    Type
                         _______ _______ _______ _____ _____    ______ ____

>  <TORSDO>
F 16

$$$$
=
 OpenBabel10232408253D

 45 50  0  0  1  0  0  0  0  0999 V2000
  185.8220  178.4740  143.0610 C   0  0  2  0  0  3  0  0  0  0  0  0
  187.9070  178.6360  141.6570 C   0  0  2  0  0  3  0  0  0  0  0  0
  188.2240  177.6470  143.9000 C   0  0  1  0  0  3  0  0  0  0  0  0
  187.9460  177.3240  142.4220 C   0  0  1  0  0  3  0  0  0  0  0  0
  187.0660  177.4370  144.8070 N   0  0  0  0  0  0  0  0  0  0  0  0
  186.6170  177.8840  141.9090 C   0  0  1  0  0  3  0  0  0  0  0  0
  185.8090  177.4910  144.1440 N   0  0  0  0  0  2  0  0  0  0  0  0
  189.4790  176.9270  144.3890 C   0  0  0  0  0  3  0  0  0  0  0  0
  191.9540  177.2890  144.8860 C   0  0  0  0  0  2  0  0  0  0  0  0
  191.8690  175.8400  144.9770 N   0  0  0  0  0  2  0  0  0  0  0  0
  190.0000  175.9610  143.3250 C   0  0  0  0  0  2  0  0  0  0  0  0
  190.5570  177.9050  144.8870 C   0  0  0  0  0  2  0  0  0  0  0  0
  191.3580  175.3450  143.6990 C   0  0  0  0  0  2  0  0  0  0  0  0
  187.0720  178.4360  145.7280 O   0  0  0  0  0  0  0  0  0  0  0  0
  187.2620  177.7980  146.9560 C   0  0  0  0  0  2  0  0  0  0  0  0
  188.3600  178.3500  147.6130 O   0  0  0  0  0  0  0  0  0  0  0  0
  188.1810  178.0380  148.9640 C   0  0  0  0  0  1  0  0  0  0  0  0
  184.4050  178.7570  142.6020 C   0  0  0  0  0  2  0  0  0  0  0  0
  184.1700  178.1870  141.2130 C   0  0  0  0  0  2  0  0  0  0  0  0
  181.8350  178.7870  141.9510 C   0  0  0  0  0  2  0  0  0  0  0  0
  180.6100  179.1800  141.1550 C   0  0  0  0  0  2  0  0  0  0  0  0
  180.8720  178.8740  139.7430 N   0  0  2  0  0  0  0  0  0  0  0  0
  182.2500  178.5580  139.6110 N   0  0  1  0  0  0  0  0  0  0  0  0
  180.6180  180.0940  138.9800 C   0  0  0  0  0  2  0  0  0  0  0  0
  182.9410  179.7950  139.2350 C   0  0  0  0  0  2  0  0  0  0  0  0
  181.9420  180.6150  138.4800 C   0  0  0  0  0  2  0  0  0  0  0  0
  182.6680  178.0660  140.9320 C   0  0  1  0  0  3  0  0  0  0  0  0
  188.3220  178.4090  140.2130 C   0  0  0  0  0  2  0  0  0  0  0  0
  189.6790  177.7820  140.1160 C   0  0  0  0  0  0  0  0  0  0  0  0
  189.9000  176.9150  139.1660 C   0  0  0  0  0  0  0  0  0  0  0  0
  190.1050  176.0450  138.2230 C   0  0  0  0  0  3  0  0  0  0  0  0
  191.9340  177.6440  140.8610 O   0  0  0  0  0  1  0  0  0  0  0  0
  190.6720  178.0340  141.0690 O   0  0  0  0  0  0  0  0  0  0  0  0
  191.4550  175.4620  138.0150 C   0  0  0  0  0  2  0  0  0  0  0  0
  191.7270  175.3990  136.5820 N   0  0  0  0  0  2  0  0  0  0  0  0
  192.8170  174.4400  136.3960 C   0  0  2  0  0  3  0  0  0  0  0  0
  192.2760  173.1550  135.8450 C   0  0  0  0  0  3  0  0  0  0  0  0
  191.0750  172.9330  135.8680 O   0  0  0  0  0  0  0  0  0  0  0  0
  193.6150  174.2140  137.6940 C   0  0  0  0  0  2  0  0  0  0  0  0
  197.3550  174.3720  138.5470 C   0  0  0  0  0  2  0  0  0  0  0  0
  197.1710  175.0040  136.3960 C   0  0  0  0  0  2  0  0  0  0  0  0
  197.6540  175.4100  137.6520 O   0  0  0  0  0  0  0  0  0  0  0  0
  195.6420  175.0330  136.4020 C   0  0  0  0  0  2  0  0  0  0  0  0
  195.1240  174.0870  137.4870 C   0  0  0  0  0  3  0  0  0  0  0  0
  195.8510  174.3310  138.8130 C   0  0  0  0  0  2  0  0  0  0  0  0
  1 18  1  6  0  0  0
  1  7  1  0  0  0  0
  2 28  1  6  0  0  0
  2  6  1  0  0  0  0
  2  4  1  0  0  0  0
  3  8  1  1  0  0  0
  3  5  1  0  0  0  0
  4  3  1  0  0  0  0
  5 14  1  0  0  0  0
  6  4  1  0  0  0  0
  6  1  1  0  0  0  0
  7  5  1  0  0  0  0
  8 12  1  0  0  0  0
  9 12  1  0  0  0  0
  9 10  1  0  0  0  0
 11 13  1  0  0  0  0
 11  8  1  0  0  0  0
 13 10  1  0  0  0  0
 14 15  1  0  0  0  0
 15 16  1  0  0  0  0
 16 17  1  0  0  0  0
 19 18  1  0  0  0  0
 21 20  1  0  0  0  0
 22 21  1  0  0  0  0
 23 22  1  0  0  0  0
 23 27  1  0  0  0  0
 24 22  1  0  0  0  0
 25 23  1  0  0  0  0
 26 24  1  0  0  0  0
 26 25  1  0  0  0  0
 27 19  1  0  0  0  0
 27 20  1  0  0  0  0
 29 28  1  0  0  0  0
 29 33  1  0  0  0  0
 30 29  2  0  0  0  0
 31 30  2  0  0  0  0
 32 33  1  0  0  0  0
 34 31  1  0  0  0  0
 35 34  1  0  0  0  0
 36 35  1  0  0  0  0
 36 39  1  0  0  0  0
 37 38  2  0  0  0  0
 37 36  1  0  0  0  0
 40 45  1  0  0  0  0
 41 43  1  0  0  0  0
 41 42  1  0  0  0  0
 42 40  1  0  0  0  0
 43 44  1  0  0  0  0
 44 39  1  0  0  0  0
 44 45  1  0  0  0  0
M  END
>  <MODEL>
9

>  <REMARK>
 VINA RESULT:      -6.3      3.497      7.805
  Name = 
  16 active torsions:
  status: ('A' for Active; 'I' for Inactive)
    1  A    between atoms: C_1  and  O_23
    2  A    between atoms: C_1  and  C_28
    3  A    between atoms: C_4  and  CA_5
    4  A    between atoms: CA_5  and  C_21
    5  A    between atoms: CA_5  and  N_45
    6  A    between atoms: C_6  and  C_25
    7  A    between atoms: O_7  and  C_10
    8  A    between atoms: O_7  and  N_34
    9  A    between atoms: C_10  and  O_14
   10  A    between atoms: C_12  and  C_22
   11  A    between atoms: C_17  and  C_28
   12  A    between atoms: C_18  and  C_22
   13  A    between atoms: C_18  and  C_41
   14  A    between atoms: C_21  and  C_29
   15  A    between atoms: C_35  and  C_37
   16  A    between atoms: C_37  and  N_45
                            x       y       z     vdW  Elec       q    Type
                         _______ _______ _______ _____ _____    ______ ____

>  <TORSDO>
F 16

$$$$
