=
 OpenBabel10232408093D

 38 42  0  0  1  0  0  0  0  0999 V2000
  186.5130  177.2040  145.7390 C   0  0  0  0  0  1  0  0  0  0  0  0
  184.8060  178.1840  141.6710 N   0  0  1  0  0  0  0  0  0  0  0  0
  186.4960  178.0770  144.4940 C   0  0  2  0  0  3  0  0  0  0  0  0
  185.0500  178.2770  144.0910 C   0  0  0  0  0  2  0  0  0  0  0  0
  185.9470  179.1010  141.8060 C   0  0  1  0  0  3  0  0  0  0  0  0
  187.2320  177.4090  143.3350 C   0  0  1  0  0  3  0  0  0  0  0  0
  184.8720  179.1110  142.8210 C   0  0  1  0  0  3  0  0  0  0  0  0
  187.2510  178.3380  142.1170 C   0  0  1  0  0  3  0  0  0  0  0  0
  183.9170  178.7670  140.6760 C   0  0  2  0  0  3  0  0  0  0  0  0
  183.3650  177.2790  138.9750 C   0  0  1  0  0  0  0  0  0  0  0  0
  182.8560  177.7690  140.2930 C   0  0  0  0  0  2  0  0  0  0  0  0
  184.5420  177.8890  138.5310 O   0  0  0  0  0  0  0  0  0  0  0  0
  182.8640  176.0370  138.3380 C   0  0  1  0  0  3  0  0  0  0  0  0
  184.6970  178.9980  139.3840 C   0  0  0  0  0  2  0  0  0  0  0  0
  182.3700  177.3120  137.9840 O   0  0  0  0  0  0  0  0  0  0  0  0
  183.8030  175.5350  137.2490 C   0  0  0  0  0  2  0  0  0  0  0  0
  184.7330  173.2520  137.6500 C   0  0  0  0  0  1  0  0  0  0  0  0
  183.6060  174.0480  137.0150 C   0  0  0  0  0  2  0  0  0  0  0  0
  188.6380  177.0170  143.6950 C   0  0  0  0  0  0  0  0  0  0  0  0
  189.4420  176.2900  142.8010 C   0  0  0  0  0  3  0  0  0  0  0  0
  190.4340  176.9870  145.3310 C   0  0  0  0  0  0  0  0  0  0  0  0
  189.1370  177.3580  144.9560 C   0  0  0  0  0  3  0  0  0  0  0  0
  190.7370  175.9190  143.1680 C   0  0  0  0  0  3  0  0  0  0  0  0
  191.2320  176.2640  144.4280 C   0  0  0  0  0  3  0  0  0  0  0  0
  191.6870  176.4680  147.3990 C   0  0  0  0  0  1  0  0  0  0  0  0
  190.9000  177.3410  146.6000 O   0  0  0  0  0  0  0  0  0  0  0  0
  187.6740  177.6390  140.9810 O   0  0  0  0  0  0  0  0  0  0  0  0
  188.3400  178.5900  140.2050 C   0  0  0  0  0  2  0  0  0  0  0  0
  187.7990  177.0190  138.5010 O   0  0  0  0  0  1  0  0  0  0  0  0
  188.7460  177.9690  138.8810 C   0  0  2  0  0  3  0  0  0  0  0  0
  190.1110  177.3100  139.0000 C   0  0  0  0  0  2  0  0  0  0  0  0
  190.5830  176.7760  137.6530 C   0  0  0  0  0  2  0  0  0  0  0  0
  190.3570  174.4180  137.8450 O   0  0  0  0  0  0  0  0  0  0  0  0
  191.1430  175.4010  137.7960 C   0  0  0  0  0  0  0  0  0  0  0  0
  192.5280  175.2350  137.9300 O   0  0  0  0  0  0  0  0  0  0  0  0
  193.7800  176.8670  139.2300 O   0  0  0  0  0  1  0  0  0  0  0  0
  193.4490  176.2840  138.0100 C   0  0  0  0  0  0  0  0  0  0  0  0
  193.9950  176.7070  136.9570 O   0  0  0  0  0  0  0  0  0  0  0  0
  2  9  1  6  0  0  0
  2  5  1  0  0  0  0
  2  7  1  0  0  0  0
  3  1  1  1  0  0  0
  4  3  1  0  0  0  0
  5  8  1  0  0  0  0
  5  7  1  0  0  0  0
  6 19  1  0  0  0  0
  6  3  1  0  0  0  0
  7  4  1  0  0  0  0
  8  6  1  0  0  0  0
 10 11  1  0  0  0  0
 11  9  1  0  0  0  0
 12 10  1  0  0  0  0
 12 14  1  0  0  0  0
 13 10  1  0  0  0  0
 14  9  1  0  0  0  0
 15 13  1  0  0  0  0
 15 10  1  0  0  0  0
 16 13  1  0  0  0  0
 18 16  1  0  0  0  0
 18 17  1  0  0  0  0
 19 22  1  0  0  0  0
 20 23  1  0  0  0  0
 20 19  2  0  0  0  0
 21 26  1  0  0  0  0
 22 21  2  0  0  0  0
 23 24  2  0  0  0  0
 24 21  1  0  0  0  0
 26 25  1  0  0  0  0
 27  8  1  0  0  0  0
 28 27  1  0  0  0  0
 29 30  1  0  0  0  0
 30 31  1  0  0  0  0
 30 28  1  0  0  0  0
 32 34  1  0  0  0  0
 32 31  1  0  0  0  0
 34 33  2  0  0  0  0
 34 35  1  0  0  0  0
 35 37  1  0  0  0  0
 37 36  1  0  0  0  0
 38 37  2  0  0  0  0
M  END
>  <MODEL>
1

>  <REMARK>
 VINA RESULT:      -8.0      0.000      0.000
  Name = 
  13 active torsions:
  status: ('A' for Active; 'I' for Inactive)
    1  A    between atoms: C_1  and  C_18
    2  A    between atoms: C_1  and  C_30
    3  A    between atoms: C_4  and  N_7
    4  A    between atoms: O_5  and  C_22
    5  A    between atoms: O_5  and  C_33
    6  A    between atoms: C_8  and  O_23
    7  A    between atoms: C_8  and  C_32
    8  A    between atoms: C_11  and  C_15
    9  A    between atoms: C_16  and  O_37
   10  A    between atoms: O_23  and  C_34
   11  A    between atoms: C_27  and  C_31
   12  A    between atoms: C_27  and  C_32
   13  A    between atoms: C_31  and  C_33
                            x       y       z     vdW  Elec       q    Type
                         _______ _______ _______ _____ _____    ______ ____

>  <TORSDO>
F 13

$$$$
=
 OpenBabel10232408093D

 38 42  0  0  1  0  0  0  0  0999 V2000
  186.7090  177.2200  145.8510 C   0  0  0  0  0  1  0  0  0  0  0  0
  184.8910  178.1430  141.8180 N   0  0  1  0  0  0  0  0  0  0  0  0
  186.6660  178.0680  144.5890 C   0  0  2  0  0  3  0  0  0  0  0  0
  185.2110  178.2810  144.2270 C   0  0  0  0  0  2  0  0  0  0  0  0
  186.0480  179.0460  141.8990 C   0  0  1  0  0  3  0  0  0  0  0  0
  187.3560  177.3650  143.4220 C   0  0  1  0  0  3  0  0  0  0  0  0
  185.0060  179.0920  142.9460 C   0  0  1  0  0  3  0  0  0  0  0  0
  187.3500  178.2680  142.1850 C   0  0  1  0  0  3  0  0  0  0  0  0
  183.9790  178.7200  140.8390 C   0  0  2  0  0  3  0  0  0  0  0  0
  183.3840  177.2180  139.1650 C   0  0  1  0  0  0  0  0  0  0  0  0
  182.9070  177.7210  140.4900 C   0  0  0  0  0  2  0  0  0  0  0  0
  184.5510  177.8210  138.6880 O   0  0  0  0  0  0  0  0  0  0  0  0
  182.8640  175.9710  138.5520 C   0  0  1  0  0  3  0  0  0  0  0  0
  184.7290  178.9370  139.5270 C   0  0  0  0  0  2  0  0  0  0  0  0
  182.3650  177.2440  138.1980 O   0  0  0  0  0  0  0  0  0  0  0  0
  183.7760  175.4570  137.4450 C   0  0  0  0  0  2  0  0  0  0  0  0
  184.7730  173.1780  137.6630 C   0  0  0  0  0  1  0  0  0  0  0  0
  183.5580  173.9720  137.2180 C   0  0  0  0  0  2  0  0  0  0  0  0
  188.7660  176.9590  143.7460 C   0  0  0  0  0  0  0  0  0  0  0  0
  189.5040  176.1360  142.8790 C   0  0  0  0  0  3  0  0  0  0  0  0
  190.6390  177.0040  145.2930 C   0  0  0  0  0  0  0  0  0  0  0  0
  189.3360  177.3850  144.9500 C   0  0  0  0  0  3  0  0  0  0  0  0
  190.8050  175.7550  143.2130 C   0  0  0  0  0  3  0  0  0  0  0  0
  191.3710  176.1860  144.4160 C   0  0  0  0  0  3  0  0  0  0  0  0
  191.6120  176.5520  147.5210 C   0  0  0  0  0  1  0  0  0  0  0  0
  191.1780  177.4450  146.5050 O   0  0  0  0  0  0  0  0  0  0  0  0
  187.7270  177.5400  141.0510 O   0  0  0  0  0  0  0  0  0  0  0  0
  188.4130  178.4570  140.2510 C   0  0  0  0  0  2  0  0  0  0  0  0
  190.6220  177.6940  139.8100 O   0  0  0  0  0  1  0  0  0  0  0  0
  189.3270  177.7110  139.2960 C   0  0  2  0  0  3  0  0  0  0  0  0
  189.3270  178.3790  137.9300 C   0  0  0  0  0  2  0  0  0  0  0  0
  188.2550  177.7820  137.0270 C   0  0  0  0  0  2  0  0  0  0  0  0
  187.4310  175.5900  137.4360 O   0  0  0  0  0  0  0  0  0  0  0  0
  188.3700  176.2960  136.9790 C   0  0  0  0  0  0  0  0  0  0  0  0
  189.5440  175.7140  136.4830 O   0  0  0  0  0  0  0  0  0  0  0  0
  190.0130  173.5220  137.4300 O   0  0  0  0  0  0  0  0  0  0  0  0
  190.3700  174.8490  137.2090 C   0  0  0  0  0  0  0  0  0  0  0  0
  191.4610  175.2800  137.6660 O   0  0  0  0  0  1  0  0  0  0  0  0
  2  9  1  6  0  0  0
  2  5  1  0  0  0  0
  2  7  1  0  0  0  0
  3  1  1  1  0  0  0
  4  3  1  0  0  0  0
  5  8  1  0  0  0  0
  5  7  1  0  0  0  0
  6 19  1  0  0  0  0
  6  3  1  0  0  0  0
  7  4  1  0  0  0  0
  8  6  1  0  0  0  0
 10 11  1  0  0  0  0
 11  9  1  0  0  0  0
 12 10  1  0  0  0  0
 12 14  1  0  0  0  0
 13 10  1  0  0  0  0
 14  9  1  0  0  0  0
 15 13  1  0  0  0  0
 15 10  1  0  0  0  0
 16 13  1  0  0  0  0
 18 16  1  0  0  0  0
 18 17  1  0  0  0  0
 19 22  1  0  0  0  0
 20 23  1  0  0  0  0
 20 19  2  0  0  0  0
 21 26  1  0  0  0  0
 22 21  2  0  0  0  0
 23 24  2  0  0  0  0
 24 21  1  0  0  0  0
 26 25  1  0  0  0  0
 27  8  1  0  0  0  0
 28 27  1  0  0  0  0
 30 29  1  0  0  0  0
 30 28  1  0  0  0  0
 31 30  1  0  0  0  0
 32 31  1  0  0  0  0
 34 32  1  0  0  0  0
 34 33  2  0  0  0  0
 35 34  1  0  0  0  0
 35 37  1  0  0  0  0
 37 36  2  0  0  0  0
 37 38  1  0  0  0  0
M  END
>  <MODEL>
2

>  <REMARK>
 VINA RESULT:      -7.9      1.085      1.636
  Name = 
  13 active torsions:
  status: ('A' for Active; 'I' for Inactive)
    1  A    between atoms: C_1  and  C_18
    2  A    between atoms: C_1  and  C_30
    3  A    between atoms: C_4  and  N_7
    4  A    between atoms: O_5  and  C_22
    5  A    between atoms: O_5  and  C_33
    6  A    between atoms: C_8  and  O_23
    7  A    between atoms: C_8  and  C_32
    8  A    between atoms: C_11  and  C_15
    9  A    between atoms: C_16  and  O_37
   10  A    between atoms: O_23  and  C_34
   11  A    between atoms: C_27  and  C_31
   12  A    between atoms: C_27  and  C_32
   13  A    between atoms: C_31  and  C_33
                            x       y       z     vdW  Elec       q    Type
                         _______ _______ _______ _____ _____    ______ ____

>  <TORSDO>
F 13

$$$$
=
 OpenBabel10232408093D

 38 42  0  0  1  0  0  0  0  0999 V2000
  190.9200  175.9770  137.1500 C   0  0  0  0  0  1  0  0  0  0  0  0
  191.0910  176.7890  141.5920 N   0  0  1  0  0  0  0  0  0  0  0  0
  190.8030  176.9460  138.3170 C   0  0  2  0  0  3  0  0  0  0  0  0
  191.9020  176.6110  139.3040 C   0  0  0  0  0  2  0  0  0  0  0  0
  190.6060  178.0530  141.0210 C   0  0  1  0  0  3  0  0  0  0  0  0
  189.4580  176.8050  139.0260 C   0  0  1  0  0  3  0  0  0  0  0  0
  191.8900  177.4850  140.5600 C   0  0  1  0  0  3  0  0  0  0  0  0
  189.3470  177.8340  140.1560 C   0  0  1  0  0  3  0  0  0  0  0  0
  191.6630  177.1120  142.8920 C   0  0  2  0  0  3  0  0  0  0  0  0
  190.0600  177.2510  144.5730 C   0  0  1  0  0  0  0  0  0  0  0  0
  191.0090  176.2730  143.9590 C   0  0  0  0  0  2  0  0  0  0  0  0
  190.1120  178.5410  144.0390 O   0  0  0  0  0  0  0  0  0  0  0  0
  188.9350  176.8310  145.4450 C   0  0  1  0  0  3  0  0  0  0  0  0
  191.2850  178.5440  143.2610 C   0  0  0  0  0  2  0  0  0  0  0  0
  190.1670  177.2750  145.9740 O   0  0  0  0  0  0  0  0  0  0  0  0
  187.8910  177.9300  145.5970 C   0  0  0  0  0  2  0  0  0  0  0  0
  187.7460  178.1620  148.0790 C   0  0  0  0  0  1  0  0  0  0  0  0
  187.0330  177.6870  146.8260 C   0  0  0  0  0  2  0  0  0  0  0  0
  188.2940  176.9540  138.0880 C   0  0  0  0  0  0  0  0  0  0  0  0
  187.9200  178.2120  137.5850 C   0  0  0  0  0  3  0  0  0  0  0  0
  186.4480  175.9290  136.8840 C   0  0  0  0  0  0  0  0  0  0  0  0
  187.5530  175.8200  137.7380 C   0  0  0  0  0  3  0  0  0  0  0  0
  186.8210  178.3270  136.7320 C   0  0  0  0  0  3  0  0  0  0  0  0
  186.0860  177.1900  136.3830 C   0  0  0  0  0  3  0  0  0  0  0  0
  184.3350  174.7950  136.2790 C   0  0  0  0  0  1  0  0  0  0  0  0
  185.7290  174.7760  136.5570 O   0  0  0  0  0  0  0  0  0  0  0  0
  188.2530  177.5380  140.9750 O   0  0  0  0  0  0  0  0  0  0  0  0
  187.7090  178.7800  141.3070 C   0  0  0  0  0  2  0  0  0  0  0  0
  185.5800  179.3630  140.4210 O   0  0  0  0  0  1  0  0  0  0  0  0
  186.2030  178.6540  141.4450 C   0  0  2  0  0  3  0  0  0  0  0  0
  185.7460  179.1920  142.7920 C   0  0  0  0  0  2  0  0  0  0  0  0
  184.7350  178.2570  143.4430 C   0  0  0  0  0  2  0  0  0  0  0  0
  184.1020  179.0040  145.6080 O   0  0  0  0  0  0  0  0  0  0  0  0
  183.8430  179.0060  144.3750 C   0  0  0  0  0  0  0  0  0  0  0  0
  182.7050  179.6470  143.8700 O   0  0  0  0  0  0  0  0  0  0  0  0
  181.9120  178.6720  141.7860 O   0  0  0  0  0  0  0  0  0  0  0  0
  181.7070  179.0180  143.1180 C   0  0  0  0  0  0  0  0  0  0  0  0
  180.6010  178.7560  143.6600 O   0  0  0  0  0  1  0  0  0  0  0  0
  2  9  1  1  0  0  0
  3  1  1  6  0  0  0
  3  6  1  0  0  0  0
  3  4  1  0  0  0  0
  4  7  1  0  0  0  0
  5  2  1  0  0  0  0
  6  8  1  0  0  0  0
  7  5  1  0  0  0  0
  7  2  1  0  0  0  0
  8 27  1  0  0  0  0
  8  5  1  0  0  0  0
  9 14  1  0  0  0  0
  9 11  1  0  0  0  0
 10 13  1  0  0  0  0
 10 15  1  0  0  0  0
 11 10  1  0  0  0  0
 12 10  1  0  0  0  0
 13 16  1  0  0  0  0
 13 15  1  0  0  0  0
 14 12  1  0  0  0  0
 16 18  1  0  0  0  0
 18 17  1  0  0  0  0
 19  6  1  0  0  0  0
 20 19  2  0  0  0  0
 21 22  2  0  0  0  0
 22 19  1  0  0  0  0
 23 20  1  0  0  0  0
 24 23  2  0  0  0  0
 24 21  1  0  0  0  0
 25 26  1  0  0  0  0
 26 21  1  0  0  0  0
 27 28  1  0  0  0  0
 28 30  1  0  0  0  0
 29 30  1  0  0  0  0
 30 31  1  0  0  0  0
 31 32  1  0  0  0  0
 32 34  1  0  0  0  0
 34 33  2  0  0  0  0
 35 34  1  0  0  0  0
 36 37  2  0  0  0  0
 37 38  1  0  0  0  0
 37 35  1  0  0  0  0
M  END
>  <MODEL>
3

>  <REMARK>
 VINA RESULT:      -7.7      2.852      8.947
  Name = 
  13 active torsions:
  status: ('A' for Active; 'I' for Inactive)
    1  A    between atoms: C_1  and  C_18
    2  A    between atoms: C_1  and  C_30
    3  A    between atoms: C_4  and  N_7
    4  A    between atoms: O_5  and  C_22
    5  A    between atoms: O_5  and  C_33
    6  A    between atoms: C_8  and  O_23
    7  A    between atoms: C_8  and  C_32
    8  A    between atoms: C_11  and  C_15
    9  A    between atoms: C_16  and  O_37
   10  A    between atoms: O_23  and  C_34
   11  A    between atoms: C_27  and  C_31
   12  A    between atoms: C_27  and  C_32
   13  A    between atoms: C_31  and  C_33
                            x       y       z     vdW  Elec       q    Type
                         _______ _______ _______ _____ _____    ______ ____

>  <TORSDO>
F 13

$$$$
=
 OpenBabel10232408093D

 38 42  0  0  1  0  0  0  0  0999 V2000
  191.9570  178.9040  144.1690 C   0  0  0  0  0  1  0  0  0  0  0  0
  189.9550  177.8700  140.2510 N   0  0  1  0  0  0  0  0  0  0  0  0
  191.3970  177.8640  143.2100 C   0  0  2  0  0  3  0  0  0  0  0  0
  191.7830  178.2770  141.8050 C   0  0  0  0  0  2  0  0  0  0  0  0
  190.0050  176.5890  140.9710 C   0  0  1  0  0  3  0  0  0  0  0  0
  189.8740  177.7940  143.2910 C   0  0  1  0  0  3  0  0  0  0  0  0
  191.2540  177.3400  140.7190 C   0  0  1  0  0  3  0  0  0  0  0  0
  189.3460  176.6980  142.3610 C   0  0  1  0  0  3  0  0  0  0  0  0
  189.8230  177.5480  138.8370 C   0  0  2  0  0  3  0  0  0  0  0  0
  187.6780  177.9280  138.0200 C   0  0  1  0  0  0  0  0  0  0  0  0
  189.0040  178.6070  138.1470 C   0  0  0  0  0  2  0  0  0  0  0  0
  187.6370  176.6150  138.4990 O   0  0  0  0  0  0  0  0  0  0  0  0
  186.4280  178.6680  137.7180 C   0  0  1  0  0  3  0  0  0  0  0  0
  188.9910  176.2770  138.6900 C   0  0  0  0  0  2  0  0  0  0  0  0
  187.1710  178.0100  136.7130 O   0  0  0  0  0  0  0  0  0  0  0  0
  185.1870  177.8510  138.0500 C   0  0  0  0  0  2  0  0  0  0  0  0
  182.7130  178.1110  138.2740 C   0  0  0  0  0  1  0  0  0  0  0  0
  184.0650  178.7530  138.5320 C   0  0  0  0  0  2  0  0  0  0  0  0
  189.3810  177.5530  144.6900 C   0  0  0  0  0  0  0  0  0  0  0  0
  188.1110  177.9900  145.1000 C   0  0  0  0  0  3  0  0  0  0  0  0
  189.8010  176.6900  146.9230 C   0  0  0  0  0  0  0  0  0  0  0  0
  190.2210  176.9090  145.6050 C   0  0  0  0  0  3  0  0  0  0  0  0
  187.6850  177.7730  146.4130 C   0  0  0  0  0  3  0  0  0  0  0  0
  188.5270  177.1260  147.3210 C   0  0  0  0  0  3  0  0  0  0  0  0
  192.0310  175.7950  147.5060 C   0  0  0  0  0  1  0  0  0  0  0  0
  190.6670  176.0460  147.8120 O   0  0  0  0  0  0  0  0  0  0  0  0
  187.9580  176.8070  142.2220 O   0  0  0  0  0  0  0  0  0  0  0  0
  187.7370  178.1450  141.8870 C   0  0  0  0  0  2  0  0  0  0  0  0
  186.0370  179.6850  141.2570 O   0  0  0  0  0  1  0  0  0  0  0  0
  186.2500  178.3830  141.7040 C   0  0  2  0  0  3  0  0  0  0  0  0
  185.5120  178.1650  143.0160 C   0  0  0  0  0  2  0  0  0  0  0  0
  184.6650  179.3790  143.3780 C   0  0  0  0  0  2  0  0  0  0  0  0
  184.0870  179.0580  145.6600 O   0  0  0  0  0  0  0  0  0  0  0  0
  183.6970  179.0450  144.4620 C   0  0  0  0  0  0  0  0  0  0  0  0
  182.3910  178.6680  144.1240 O   0  0  0  0  0  0  0  0  0  0  0  0
  181.9360  178.5160  141.7390 O   0  0  0  0  0  0  0  0  0  0  0  0
  181.7100  179.1010  142.9810 C   0  0  0  0  0  0  0  0  0  0  0  0
  180.8710  180.0340  143.0800 O   0  0  0  0  0  1  0  0  0  0  0  0
  2  9  1  6  0  0  0
  2  7  1  0  0  0  0
  2  5  1  0  0  0  0
  3  6  1  0  0  0  0
  3  1  1  1  0  0  0
  4  3  1  0  0  0  0
  5  8  1  0  0  0  0
  6 19  1  0  0  0  0
  7  5  1  0  0  0  0
  7  4  1  0  0  0  0
  8  6  1  0  0  0  0
 10 11  1  0  0  0  0
 10 12  1  0  0  0  0
 11  9  1  0  0  0  0
 12 14  1  0  0  0  0
 13 10  1  0  0  0  0
 13 16  1  0  0  0  0
 14  9  1  0  0  0  0
 15 13  1  0  0  0  0
 15 10  1  0  0  0  0
 16 18  1  0  0  0  0
 17 18  1  0  0  0  0
 19 20  2  0  0  0  0
 19 22  1  0  0  0  0
 20 23  1  0  0  0  0
 21 24  1  0  0  0  0
 21 26  1  0  0  0  0
 22 21  2  0  0  0  0
 23 24  2  0  0  0  0
 25 26  1  0  0  0  0
 27  8  1  0  0  0  0
 28 27  1  0  0  0  0
 29 30  1  0  0  0  0
 30 28  1  0  0  0  0
 30 31  1  0  0  0  0
 31 32  1  0  0  0  0
 32 34  1  0  0  0  0
 34 33  2  0  0  0  0
 35 34  1  0  0  0  0
 36 37  2  0  0  0  0
 37 38  1  0  0  0  0
 37 35  1  0  0  0  0
M  END
>  <MODEL>
4

>  <REMARK>
 VINA RESULT:      -7.6      2.763      6.511
  Name = 
  13 active torsions:
  status: ('A' for Active; 'I' for Inactive)
    1  A    between atoms: C_1  and  C_18
    2  A    between atoms: C_1  and  C_30
    3  A    between atoms: C_4  and  N_7
    4  A    between atoms: O_5  and  C_22
    5  A    between atoms: O_5  and  C_33
    6  A    between atoms: C_8  and  O_23
    7  A    between atoms: C_8  and  C_32
    8  A    between atoms: C_11  and  C_15
    9  A    between atoms: C_16  and  O_37
   10  A    between atoms: O_23  and  C_34
   11  A    between atoms: C_27  and  C_31
   12  A    between atoms: C_27  and  C_32
   13  A    between atoms: C_31  and  C_33
                            x       y       z     vdW  Elec       q    Type
                         _______ _______ _______ _____ _____    ______ ____

>  <TORSDO>
F 13

$$$$
=
 OpenBabel10232408093D

 38 42  0  0  1  0  0  0  0  0999 V2000
  182.3180  178.4220  144.0960 C   0  0  0  0  0  1  0  0  0  0  0  0
  183.9610  177.9700  139.9110 N   0  0  1  0  0  0  0  0  0  0  0  0
  183.1600  178.9560  142.9470 C   0  0  2  0  0  3  0  0  0  0  0  0
  182.4170  178.6660  141.6590 C   0  0  0  0  0  2  0  0  0  0  0  0
  184.6410  179.1650  140.4300 C   0  0  1  0  0  3  0  0  0  0  0  0
  184.5210  178.2670  142.8860 C   0  0  1  0  0  3  0  0  0  0  0  0
  183.1640  179.1140  140.4020 C   0  0  1  0  0  3  0  0  0  0  0  0
  185.3660  178.8670  141.7590 C   0  0  1  0  0  3  0  0  0  0  0  0
  184.0180  178.0550  138.4580 C   0  0  2  0  0  3  0  0  0  0  0  0
  184.0960  175.9680  137.4330 C   0  0  1  0  0  0  0  0  0  0  0  0
  183.1140  177.0160  137.8490 C   0  0  0  0  0  2  0  0  0  0  0  0
  185.4360  176.2830  137.6760 O   0  0  0  0  0  0  0  0  0  0  0  0
  183.6880  174.5830  137.0910 C   0  0  1  0  0  3  0  0  0  0  0  0
  185.4150  177.6550  137.9890 C   0  0  0  0  0  2  0  0  0  0  0  0
  183.9000  175.5680  136.1000 O   0  0  0  0  0  0  0  0  0  0  0  0
  184.8680  173.6200  137.1110 C   0  0  0  0  0  2  0  0  0  0  0  0
  183.6400  171.4620  136.8360 C   0  0  0  0  0  1  0  0  0  0  0  0
  184.6100  172.4380  136.1930 C   0  0  0  0  0  2  0  0  0  0  0  0
  185.2710  178.3550  144.1850 C   0  0  0  0  0  0  0  0  0  0  0  0
  184.8580  179.2260  145.2060 C   0  0  0  0  0  3  0  0  0  0  0  0
  187.1540  177.6510  145.5510 C   0  0  0  0  0  0  0  0  0  0  0  0
  186.4190  177.5750  144.3610 C   0  0  0  0  0  3  0  0  0  0  0  0
  185.5850  179.3060  146.3960 C   0  0  0  0  0  3  0  0  0  0  0  0
  186.7290  178.5220  146.5680 C   0  0  0  0  0  3  0  0  0  0  0  0
  189.0930  176.8680  146.8700 C   0  0  0  0  0  1  0  0  0  0  0  0
  188.2970  176.8600  145.6930 O   0  0  0  0  0  0  0  0  0  0  0  0
  186.4910  178.0710  141.5190 O   0  0  0  0  0  0  0  0  0  0  0  0
  187.5450  178.9760  141.3740 C   0  0  0  0  0  2  0  0  0  0  0  0
  188.1810  177.3700  139.7380 O   0  0  0  0  0  1  0  0  0  0  0  0
  188.6890  178.3070  140.6360 C   0  0  2  0  0  3  0  0  0  0  0  0
  189.6250  177.6190  141.6180 C   0  0  0  0  0  2  0  0  0  0  0  0
  189.6610  178.3580  142.9500 C   0  0  0  0  0  2  0  0  0  0  0  0
  191.4890  179.5000  143.9510 O   0  0  0  0  0  0  0  0  0  0  0  0
  191.0510  178.4130  143.4880 C   0  0  0  0  0  0  0  0  0  0  0  0
  191.8620  177.2730  143.4130 O   0  0  0  0  0  0  0  0  0  0  0  0
  191.9580  176.1350  145.5610 O   0  0  0  0  0  1  0  0  0  0  0  0
  191.6930  176.1260  144.1950 C   0  0  0  0  0  0  0  0  0  0  0  0
  191.2880  175.0650  143.6520 O   0  0  0  0  0  0  0  0  0  0  0  0
  2  9  1  6  0  0  0
  2  7  1  0  0  0  0
  2  5  1  0  0  0  0
  3  1  1  1  0  0  0
  4  3  1  0  0  0  0
  5  8  1  0  0  0  0
  6  3  1  0  0  0  0
  6 19  1  0  0  0  0
  7  5  1  0  0  0  0
  7  4  1  0  0  0  0
  8  6  1  0  0  0  0
 10 12  1  0  0  0  0
 10 11  1  0  0  0  0
 11  9  1  0  0  0  0
 12 14  1  0  0  0  0
 13 16  1  0  0  0  0
 13 10  1  0  0  0  0
 14  9  1  0  0  0  0
 15 13  1  0  0  0  0
 15 10  1  0  0  0  0
 18 17  1  0  0  0  0
 18 16  1  0  0  0  0
 19 22  2  0  0  0  0
 19 20  1  0  0  0  0
 20 23  2  0  0  0  0
 21 26  1  0  0  0  0
 21 24  2  0  0  0  0
 22 21  1  0  0  0  0
 23 24  1  0  0  0  0
 26 25  1  0  0  0  0
 27  8  1  0  0  0  0
 28 27  1  0  0  0  0
 29 30  1  0  0  0  0
 30 28  1  0  0  0  0
 30 31  1  0  0  0  0
 31 32  1  0  0  0  0
 32 34  1  0  0  0  0
 34 33  2  0  0  0  0
 35 34  1  0  0  0  0
 35 37  1  0  0  0  0
 37 36  1  0  0  0  0
 38 37  2  0  0  0  0
M  END
>  <MODEL>
5

>  <REMARK>
 VINA RESULT:      -7.4      2.527      4.038
  Name = 
  13 active torsions:
  status: ('A' for Active; 'I' for Inactive)
    1  A    between atoms: C_1  and  C_18
    2  A    between atoms: C_1  and  C_30
    3  A    between atoms: C_4  and  N_7
    4  A    between atoms: O_5  and  C_22
    5  A    between atoms: O_5  and  C_33
    6  A    between atoms: C_8  and  O_23
    7  A    between atoms: C_8  and  C_32
    8  A    between atoms: C_11  and  C_15
    9  A    between atoms: C_16  and  O_37
   10  A    between atoms: O_23  and  C_34
   11  A    between atoms: C_27  and  C_31
   12  A    between atoms: C_27  and  C_32
   13  A    between atoms: C_31  and  C_33
                            x       y       z     vdW  Elec       q    Type
                         _______ _______ _______ _____ _____    ______ ____

>  <TORSDO>
F 13

$$$$
=
 OpenBabel10232408093D

 38 42  0  0  1  0  0  0  0  0999 V2000
  190.8560  175.9980  136.9390 C   0  0  0  0  0  1  0  0  0  0  0  0
  190.9800  176.6710  141.4060 N   0  0  1  0  0  0  0  0  0  0  0  0
  190.7570  176.9350  138.1330 C   0  0  2  0  0  3  0  0  0  0  0  0
  191.8240  176.5280  139.1270 C   0  0  0  0  0  2  0  0  0  0  0  0
  190.5560  177.9700  140.8650 C   0  0  1  0  0  3  0  0  0  0  0  0
  189.3950  176.8290  138.8140 C   0  0  1  0  0  3  0  0  0  0  0  0
  191.8240  177.3640  140.4090 C   0  0  1  0  0  3  0  0  0  0  0  0
  189.3050  177.8270  139.9720 C   0  0  1  0  0  3  0  0  0  0  0  0
  191.5400  176.9320  142.7250 C   0  0  2  0  0  3  0  0  0  0  0  0
  189.9100  177.1620  144.3690 C   0  0  1  0  0  0  0  0  0  0  0  0
  190.8010  176.1260  143.7610 C   0  0  0  0  0  2  0  0  0  0  0  0
  190.0680  178.4530  143.8570 O   0  0  0  0  0  0  0  0  0  0  0  0
  188.7360  176.8120  145.2050 C   0  0  1  0  0  3  0  0  0  0  0  0
  191.2590  178.3820  143.1090 C   0  0  0  0  0  2  0  0  0  0  0  0
  189.9830  177.1570  145.7720 O   0  0  0  0  0  0  0  0  0  0  0  0
  187.7710  177.9820  145.3510 C   0  0  0  0  0  2  0  0  0  0  0  0
  185.6580  178.7260  146.4540 C   0  0  0  0  0  1  0  0  0  0  0  0
  186.8200  177.7500  146.5120 C   0  0  0  0  0  2  0  0  0  0  0  0
  188.2550  177.0530  137.8620 C   0  0  0  0  0  0  0  0  0  0  0  0
  188.0200  178.3150  137.2920 C   0  0  0  0  0  3  0  0  0  0  0  0
  186.3110  176.1700  136.7010 C   0  0  0  0  0  0  0  0  0  0  0  0
  187.3970  175.9880  137.5660 C   0  0  0  0  0  3  0  0  0  0  0  0
  186.9400  178.5020  136.4260 C   0  0  0  0  0  3  0  0  0  0  0  0
  186.0880  177.4350  136.1320 C   0  0  0  0  0  3  0  0  0  0  0  0
  184.8420  174.9010  135.1690 C   0  0  0  0  0  1  0  0  0  0  0  0
  185.4720  175.0850  136.4290 O   0  0  0  0  0  0  0  0  0  0  0  0
  188.1860  177.5520  140.7640 O   0  0  0  0  0  0  0  0  0  0  0  0
  187.8760  178.7660  141.3800 C   0  0  0  0  0  2  0  0  0  0  0  0
  185.9000  177.9370  142.4130 O   0  0  0  0  0  1  0  0  0  0  0  0
  186.3710  178.8960  141.5180 C   0  0  2  0  0  3  0  0  0  0  0  0
  185.6960  178.7090  140.1670 C   0  0  0  0  0  2  0  0  0  0  0  0
  184.1860  178.5780  140.3220 C   0  0  0  0  0  2  0  0  0  0  0  0
  184.0760  180.5360  138.9790 O   0  0  0  0  0  0  0  0  0  0  0  0
  183.4760  179.5110  139.3990 C   0  0  0  0  0  0  0  0  0  0  0  0
  182.1390  179.2600  139.0640 O   0  0  0  0  0  0  0  0  0  0  0  0
  180.5020  180.0110  140.7010 O   0  0  0  0  0  1  0  0  0  0  0  0
  181.0630  180.0760  139.4290 C   0  0  0  0  0  0  0  0  0  0  0  0
  180.5960  180.8910  138.5900 O   0  0  0  0  0  0  0  0  0  0  0  0
  2  9  1  1  0  0  0
  3  1  1  6  0  0  0
  3  6  1  0  0  0  0
  3  4  1  0  0  0  0
  4  7  1  0  0  0  0
  5  2  1  0  0  0  0
  6  8  1  0  0  0  0
  7  5  1  0  0  0  0
  7  2  1  0  0  0  0
  8 27  1  0  0  0  0
  8  5  1  0  0  0  0
  9 14  1  0  0  0  0
  9 11  1  0  0  0  0
 10 13  1  0  0  0  0
 10 15  1  0  0  0  0
 11 10  1  0  0  0  0
 12 10  1  0  0  0  0
 13 16  1  0  0  0  0
 13 15  1  0  0  0  0
 14 12  1  0  0  0  0
 16 18  1  0  0  0  0
 17 18  1  0  0  0  0
 19  6  1  0  0  0  0
 20 19  2  0  0  0  0
 21 22  2  0  0  0  0
 22 19  1  0  0  0  0
 23 20  1  0  0  0  0
 24 23  2  0  0  0  0
 24 21  1  0  0  0  0
 25 26  1  0  0  0  0
 26 21  1  0  0  0  0
 27 28  1  0  0  0  0
 28 30  1  0  0  0  0
 30 29  1  0  0  0  0
 31 32  1  0  0  0  0
 31 30  1  0  0  0  0
 33 34  2  0  0  0  0
 34 32  1  0  0  0  0
 35 34  1  0  0  0  0
 35 37  1  0  0  0  0
 37 36  1  0  0  0  0
 38 37  2  0  0  0  0
M  END
>  <MODEL>
6

>  <REMARK>
 VINA RESULT:      -7.3      2.757      8.738
  Name = 
  13 active torsions:
  status: ('A' for Active; 'I' for Inactive)
    1  A    between atoms: C_1  and  C_18
    2  A    between atoms: C_1  and  C_30
    3  A    between atoms: C_4  and  N_7
    4  A    between atoms: O_5  and  C_22
    5  A    between atoms: O_5  and  C_33
    6  A    between atoms: C_8  and  O_23
    7  A    between atoms: C_8  and  C_32
    8  A    between atoms: C_11  and  C_15
    9  A    between atoms: C_16  and  O_37
   10  A    between atoms: O_23  and  C_34
   11  A    between atoms: C_27  and  C_31
   12  A    between atoms: C_27  and  C_32
   13  A    between atoms: C_31  and  C_33
                            x       y       z     vdW  Elec       q    Type
                         _______ _______ _______ _____ _____    ______ ____

>  <TORSDO>
F 13

$$$$
=
 OpenBabel10232408093D

 38 42  0  0  1  0  0  0  0  0999 V2000
  183.0740  179.6680  144.3140 C   0  0  0  0  0  1  0  0  0  0  0  0
  186.7300  178.5280  146.7130 N   0  0  1  0  0  0  0  0  0  0  0  0
  184.0610  178.6130  144.7880 C   0  0  2  0  0  3  0  0  0  0  0  0
  184.3690  178.8920  146.2450 C   0  0  0  0  0  2  0  0  0  0  0  0
  186.3960  177.3010  145.9750 C   0  0  1  0  0  3  0  0  0  0  0  0
  185.3660  178.6740  143.9980 C   0  0  1  0  0  3  0  0  0  0  0  0
  185.3870  177.9270  146.8560 C   0  0  1  0  0  3  0  0  0  0  0  0
  186.3140  177.5620  144.4570 C   0  0  1  0  0  3  0  0  0  0  0  0
  187.5280  178.1190  147.8610 C   0  0  2  0  0  3  0  0  0  0  0  0
  189.7140  177.5660  147.2900 C   0  0  1  0  0  0  0  0  0  0  0  0
  188.9030  178.7270  147.7690 C   0  0  0  0  0  2  0  0  0  0  0  0
  189.0060  176.3700  147.1400 O   0  0  0  0  0  0  0  0  0  0  0  0
  191.0720  177.7250  146.7130 C   0  0  1  0  0  3  0  0  0  0  0  0
  187.7780  176.6150  147.7840 C   0  0  0  0  0  2  0  0  0  0  0  0
  190.8700  177.3790  148.0670 O   0  0  0  0  0  0  0  0  0  0  0  0
  191.5080  176.4920  145.9320 C   0  0  0  0  0  2  0  0  0  0  0  0
  191.6780  178.3510  144.2720 C   0  0  0  0  0  1  0  0  0  0  0  0
  191.8860  176.8650  144.5090 C   0  0  0  0  0  2  0  0  0  0  0  0
  185.1470  178.5740  142.5150 C   0  0  0  0  0  0  0  0  0  0  0  0
  186.0360  179.1710  141.6060 C   0  0  0  0  0  3  0  0  0  0  0  0
  183.7720  177.8090  140.6630 C   0  0  0  0  0  0  0  0  0  0  0  0
  184.0180  177.9000  142.0380 C   0  0  0  0  0  3  0  0  0  0  0  0
  185.7980  179.0820  140.2320 C   0  0  0  0  0  3  0  0  0  0  0  0
  184.6700  178.4040  139.7620 C   0  0  0  0  0  3  0  0  0  0  0  0
  182.4170  176.8030  138.8550 C   0  0  0  0  0  1  0  0  0  0  0  0
  182.6330  177.1300  140.2210 O   0  0  0  0  0  0  0  0  0  0  0  0
  187.5970  177.7760  143.9420 O   0  0  0  0  0  0  0  0  0  0  0  0
  188.2140  176.5240  143.9890 C   0  0  0  0  0  2  0  0  0  0  0  0
  189.8510  175.3580  142.7160 O   0  0  0  0  0  1  0  0  0  0  0  0
  188.7100  176.1500  142.6050 C   0  0  2  0  0  3  0  0  0  0  0  0
  189.0310  177.4000  141.8010 C   0  0  0  0  0  2  0  0  0  0  0  0
  190.4310  177.3240  141.2040 C   0  0  0  0  0  2  0  0  0  0  0  0
  190.4900  175.8200  139.3650 O   0  0  0  0  0  0  0  0  0  0  0  0
  190.3690  177.0150  139.7460 C   0  0  0  0  0  0  0  0  0  0  0  0
  190.2380  178.0630  138.8270 O   0  0  0  0  0  0  0  0  0  0  0  0
  188.8660  179.6560  137.6010 O   0  0  0  0  0  0  0  0  0  0  0  0
  189.0490  178.4000  138.1710 C   0  0  0  0  0  0  0  0  0  0  0  0
  188.1260  177.5460  138.0910 O   0  0  0  0  0  1  0  0  0  0  0  0
  2  7  1  0  0  0  0
  2  9  1  1  0  0  0
  3  1  1  6  0  0  0
  3  4  1  0  0  0  0
  4  7  1  0  0  0  0
  5  2  1  0  0  0  0
  5  7  1  0  0  0  0
  6  8  1  0  0  0  0
  6  3  1  0  0  0  0
  8  5  1  0  0  0  0
 10 11  1  0  0  0  0
 10 15  1  0  0  0  0
 11  9  1  0  0  0  0
 12 10  1  0  0  0  0
 12 14  1  0  0  0  0
 13 10  1  0  0  0  0
 13 15  1  0  0  0  0
 14  9  1  0  0  0  0
 16 13  1  0  0  0  0
 17 18  1  0  0  0  0
 18 16  1  0  0  0  0
 19  6  1  0  0  0  0
 20 19  2  0  0  0  0
 21 22  2  0  0  0  0
 22 19  1  0  0  0  0
 23 20  1  0  0  0  0
 24 23  2  0  0  0  0
 24 21  1  0  0  0  0
 25 26  1  0  0  0  0
 26 21  1  0  0  0  0
 27 28  1  0  0  0  0
 27  8  1  0  0  0  0
 30 29  1  0  0  0  0
 30 28  1  0  0  0  0
 31 30  1  0  0  0  0
 32 31  1  0  0  0  0
 33 34  2  0  0  0  0
 34 32  1  0  0  0  0
 35 34  1  0  0  0  0
 36 37  2  0  0  0  0
 37 35  1  0  0  0  0
 38 37  1  0  0  0  0
M  END
>  <MODEL>
7

>  <REMARK>
 VINA RESULT:      -7.3      2.209      7.244
  Name = 
  13 active torsions:
  status: ('A' for Active; 'I' for Inactive)
    1  A    between atoms: C_1  and  C_18
    2  A    between atoms: C_1  and  C_30
    3  A    between atoms: C_4  and  N_7
    4  A    between atoms: O_5  and  C_22
    5  A    between atoms: O_5  and  C_33
    6  A    between atoms: C_8  and  O_23
    7  A    between atoms: C_8  and  C_32
    8  A    between atoms: C_11  and  C_15
    9  A    between atoms: C_16  and  O_37
   10  A    between atoms: O_23  and  C_34
   11  A    between atoms: C_27  and  C_31
   12  A    between atoms: C_27  and  C_32
   13  A    between atoms: C_31  and  C_33
                            x       y       z     vdW  Elec       q    Type
                         _______ _______ _______ _____ _____    ______ ____

>  <TORSDO>
F 13

$$$$
=
 OpenBabel10232408093D

 38 42  0  0  1  0  0  0  0  0999 V2000
  191.8610  179.0470  144.4040 C   0  0  0  0  0  1  0  0  0  0  0  0
  190.1520  177.8670  140.3900 N   0  0  1  0  0  0  0  0  0  0  0  0
  191.3960  177.9700  143.4350 C   0  0  2  0  0  3  0  0  0  0  0  0
  191.8620  178.3650  142.0490 C   0  0  0  0  0  2  0  0  0  0  0  0
  190.1940  176.6040  141.1410 C   0  0  1  0  0  3  0  0  0  0  0  0
  189.8740  177.8540  143.4190 C   0  0  1  0  0  3  0  0  0  0  0  0
  191.4330  177.3880  140.9520 C   0  0  1  0  0  3  0  0  0  0  0  0
  189.4410  176.7220  142.4820 C   0  0  1  0  0  3  0  0  0  0  0  0
  190.1230  177.5120  138.9780 C   0  0  2  0  0  3  0  0  0  0  0  0
  188.0170  177.7740  138.0240 C   0  0  1  0  0  0  0  0  0  0  0  0
  189.3000  178.5180  138.2160 C   0  0  0  0  0  2  0  0  0  0  0  0
  188.0070  176.4700  138.5280 O   0  0  0  0  0  0  0  0  0  0  0  0
  186.7550  178.4470  137.6290 C   0  0  1  0  0  3  0  0  0  0  0  0
  189.3600  176.2010  138.8090 C   0  0  0  0  0  2  0  0  0  0  0  0
  187.5890  177.8050  136.6860 O   0  0  0  0  0  0  0  0  0  0  0  0
  185.5350  177.5790  137.9040 C   0  0  0  0  0  2  0  0  0  0  0  0
  183.2780  177.4870  138.9710 C   0  0  0  0  0  1  0  0  0  0  0  0
  184.4690  178.3700  138.6410 C   0  0  0  0  0  2  0  0  0  0  0  0
  189.2990  177.6270  144.7880 C   0  0  0  0  0  0  0  0  0  0  0  0
  190.0800  177.0970  145.8280 C   0  0  0  0  0  3  0  0  0  0  0  0
  187.3770  177.6990  146.2750 C   0  0  0  0  0  0  0  0  0  0  0  0
  187.9500  177.9210  145.0160 C   0  0  0  0  0  3  0  0  0  0  0  0
  189.5160  176.8760  147.0860 C   0  0  0  0  0  3  0  0  0  0  0  0
  188.1690  177.1740  147.3090 C   0  0  0  0  0  3  0  0  0  0  0  0
  185.5910  179.2030  147.0890 C   0  0  0  0  0  1  0  0  0  0  0  0
  186.0260  178.0020  146.4670 O   0  0  0  0  0  0  0  0  0  0  0  0
  188.0630  176.7840  142.2500 O   0  0  0  0  0  0  0  0  0  0  0  0
  187.8360  178.0870  141.8010 C   0  0  0  0  0  2  0  0  0  0  0  0
  186.1440  179.5450  140.9810 O   0  0  0  0  0  1  0  0  0  0  0  0
  186.3680  178.2540  141.4540 C   0  0  2  0  0  3  0  0  0  0  0  0
  185.5010  177.9990  142.6780 C   0  0  0  0  0  2  0  0  0  0  0  0
  184.7940  179.2730  143.1240 C   0  0  0  0  0  2  0  0  0  0  0  0
  183.0470  178.8090  144.6650 O   0  0  0  0  0  0  0  0  0  0  0  0
  183.3680  178.9970  143.4620 C   0  0  0  0  0  0  0  0  0  0  0  0
  182.4260  178.8950  142.4310 O   0  0  0  0  0  0  0  0  0  0  0  0
  180.4970  180.2880  142.9400 O   0  0  0  0  0  1  0  0  0  0  0  0
  181.0460  179.0560  142.5970 C   0  0  0  0  0  0  0  0  0  0  0  0
  180.2850  178.0670  142.4280 O   0  0  0  0  0  0  0  0  0  0  0  0
  2  9  1  6  0  0  0
  2  7  1  0  0  0  0
  2  5  1  0  0  0  0
  3  1  1  1  0  0  0
  4  3  1  0  0  0  0
  5  8  1  0  0  0  0
  6  3  1  0  0  0  0
  6 19  1  0  0  0  0
  7  5  1  0  0  0  0
  7  4  1  0  0  0  0
  8  6  1  0  0  0  0
 10 11  1  0  0  0  0
 10 12  1  0  0  0  0
 11  9  1  0  0  0  0
 12 14  1  0  0  0  0
 13 16  1  0  0  0  0
 13 10  1  0  0  0  0
 14  9  1  0  0  0  0
 15 13  1  0  0  0  0
 15 10  1  0  0  0  0
 16 18  1  0  0  0  0
 18 17  1  0  0  0  0
 19 22  2  0  0  0  0
 19 20  1  0  0  0  0
 20 23  2  0  0  0  0
 21 26  1  0  0  0  0
 21 24  2  0  0  0  0
 22 21  1  0  0  0  0
 23 24  1  0  0  0  0
 26 25  1  0  0  0  0
 27  8  1  0  0  0  0
 28 27  1  0  0  0  0
 29 30  1  0  0  0  0
 30 28  1  0  0  0  0
 30 31  1  0  0  0  0
 31 32  1  0  0  0  0
 32 34  1  0  0  0  0
 34 33  2  0  0  0  0
 35 37  1  0  0  0  0
 35 34  1  0  0  0  0
 37 36  1  0  0  0  0
 38 37  2  0  0  0  0
M  END
>  <MODEL>
8

>  <REMARK>
 VINA RESULT:      -7.2      2.802      6.727
  Name = 
  13 active torsions:
  status: ('A' for Active; 'I' for Inactive)
    1  A    between atoms: C_1  and  C_18
    2  A    between atoms: C_1  and  C_30
    3  A    between atoms: C_4  and  N_7
    4  A    between atoms: O_5  and  C_22
    5  A    between atoms: O_5  and  C_33
    6  A    between atoms: C_8  and  O_23
    7  A    between atoms: C_8  and  C_32
    8  A    between atoms: C_11  and  C_15
    9  A    between atoms: C_16  and  O_37
   10  A    between atoms: O_23  and  C_34
   11  A    between atoms: C_27  and  C_31
   12  A    between atoms: C_27  and  C_32
   13  A    between atoms: C_31  and  C_33
                            x       y       z     vdW  Elec       q    Type
                         _______ _______ _______ _____ _____    ______ ____

>  <TORSDO>
F 13

$$$$
=
 OpenBabel10232408093D

 38 42  0  0  1  0  0  0  0  0999 V2000
  182.7830  178.6060  144.3110 C   0  0  0  0  0  1  0  0  0  0  0  0
  184.3150  178.0150  140.1020 N   0  0  1  0  0  0  0  0  0  0  0  0
  183.6680  179.0520  143.1580 C   0  0  2  0  0  3  0  0  0  0  0  0
  182.8820  178.8650  141.8760 C   0  0  0  0  0  2  0  0  0  0  0  0
  185.1350  179.1170  140.6240 C   0  0  1  0  0  3  0  0  0  0  0  0
  184.9390  178.2110  143.0730 C   0  0  1  0  0  3  0  0  0  0  0  0
  183.6620  179.2380  140.6140 C   0  0  1  0  0  3  0  0  0  0  0  0
  185.8360  178.7230  141.9410 C   0  0  1  0  0  3  0  0  0  0  0  0
  184.3660  178.1100  138.6490 C   0  0  2  0  0  3  0  0  0  0  0  0
  184.6460  176.0430  137.6180 C   0  0  1  0  0  0  0  0  0  0  0  0
  183.5670  176.9890  138.0360 C   0  0  0  0  0  2  0  0  0  0  0  0
  185.9500  176.4850  137.8650 O   0  0  0  0  0  0  0  0  0  0  0  0
  184.3750  174.6260  137.2720 C   0  0  1  0  0  3  0  0  0  0  0  0
  185.7960  177.8480  138.1820 C   0  0  0  0  0  2  0  0  0  0  0  0
  184.4920  175.6290  136.2850 O   0  0  0  0  0  0  0  0  0  0  0  0
  185.6420  173.7810  137.2920 C   0  0  0  0  0  2  0  0  0  0  0  0
  187.0570  172.2970  135.8660 C   0  0  0  0  0  1  0  0  0  0  0  0
  185.6490  172.7990  136.1340 C   0  0  0  0  0  2  0  0  0  0  0  0
  185.7080  178.1970  144.3630 C   0  0  0  0  0  0  0  0  0  0  0  0
  185.1690  178.7440  145.5380 C   0  0  0  0  0  3  0  0  0  0  0  0
  187.7510  177.6490  145.5600 C   0  0  0  0  0  0  0  0  0  0  0  0
  186.9990  177.6560  144.3800 C   0  0  0  0  0  3  0  0  0  0  0  0
  185.9130  178.7380  146.7200 C   0  0  0  0  0  3  0  0  0  0  0  0
  187.2000  178.1940  146.7310 C   0  0  0  0  0  3  0  0  0  0  0  0
  189.8090  176.9180  146.7200 C   0  0  0  0  0  1  0  0  0  0  0  0
  189.0380  177.1030  145.5410 O   0  0  0  0  0  0  0  0  0  0  0  0
  186.8580  177.8040  141.6790 O   0  0  0  0  0  0  0  0  0  0  0  0
  187.8480  178.5470  141.0320 C   0  0  0  0  0  2  0  0  0  0  0  0
  189.9800  177.9460  141.9010 O   0  0  0  0  0  1  0  0  0  0  0  0
  189.0900  177.6920  140.8590 C   0  0  2  0  0  3  0  0  0  0  0  0
  189.7610  177.9950  139.5280 C   0  0  0  0  0  2  0  0  0  0  0  0
  189.4920  176.8910  138.5140 C   0  0  0  0  0  2  0  0  0  0  0  0
  190.8850  174.9670  138.4710 O   0  0  0  0  0  0  0  0  0  0  0  0
  190.7530  176.1800  138.1570 C   0  0  0  0  0  0  0  0  0  0  0  0
  191.7880  176.8890  137.5340 O   0  0  0  0  0  0  0  0  0  0  0  0
  194.0780  176.5570  136.7800 O   0  0  0  0  0  0  0  0  0  0  0  0
  193.1490  176.7100  137.8050 C   0  0  0  0  0  0  0  0  0  0  0  0
  193.5410  176.6910  139.0010 O   0  0  0  0  0  1  0  0  0  0  0  0
  2  9  1  6  0  0  0
  2  7  1  0  0  0  0
  2  5  1  0  0  0  0
  3  1  1  1  0  0  0
  4  3  1  0  0  0  0
  5  8  1  0  0  0  0
  6  3  1  0  0  0  0
  6 19  1  0  0  0  0
  7  5  1  0  0  0  0
  7  4  1  0  0  0  0
  8  6  1  0  0  0  0
 10 12  1  0  0  0  0
 10 11  1  0  0  0  0
 11  9  1  0  0  0  0
 12 14  1  0  0  0  0
 13 16  1  0  0  0  0
 13 10  1  0  0  0  0
 14  9  1  0  0  0  0
 15 13  1  0  0  0  0
 15 10  1  0  0  0  0
 17 18  1  0  0  0  0
 18 16  1  0  0  0  0
 19 22  2  0  0  0  0
 19 20  1  0  0  0  0
 20 23  2  0  0  0  0
 21 24  2  0  0  0  0
 22 21  1  0  0  0  0
 23 24  1  0  0  0  0
 26 21  1  0  0  0  0
 26 25  1  0  0  0  0
 27  8  1  0  0  0  0
 28 27  1  0  0  0  0
 30 28  1  0  0  0  0
 30 29  1  0  0  0  0
 31 30  1  0  0  0  0
 32 31  1  0  0  0  0
 34 33  2  0  0  0  0
 34 32  1  0  0  0  0
 35 37  1  0  0  0  0
 35 34  1  0  0  0  0
 36 37  2  0  0  0  0
 37 38  1  0  0  0  0
M  END
>  <MODEL>
9

>  <REMARK>
 VINA RESULT:      -7.1      1.546      2.789
  Name = 
  13 active torsions:
  status: ('A' for Active; 'I' for Inactive)
    1  A    between atoms: C_1  and  C_18
    2  A    between atoms: C_1  and  C_30
    3  A    between atoms: C_4  and  N_7
    4  A    between atoms: O_5  and  C_22
    5  A    between atoms: O_5  and  C_33
    6  A    between atoms: C_8  and  O_23
    7  A    between atoms: C_8  and  C_32
    8  A    between atoms: C_11  and  C_15
    9  A    between atoms: C_16  and  O_37
   10  A    between atoms: O_23  and  C_34
   11  A    between atoms: C_27  and  C_31
   12  A    between atoms: C_27  and  C_32
   13  A    between atoms: C_31  and  C_33
                            x       y       z     vdW  Elec       q    Type
                         _______ _______ _______ _____ _____    ______ ____

>  <TORSDO>
F 13

$$$$
