=
 OpenBabel10222421453D

 31 35  0  0  1  0  0  0  0  0999 V2000
  187.5090  178.3250  140.3200 C   0  0  0  0  0  0  0  0  0  0  0  0
  190.1640  177.5430  139.8090 C   0  0  0  0  0  0  0  0  0  0  0  0
  189.3170  178.0040  138.7920 C   0  0  0  0  0  0  0  0  0  0  0  0
  186.1680  178.7230  140.5850 N   0  0  0  0  0  1  0  0  0  0  0  0
  188.0400  178.3830  139.0380 C   0  0  0  0  0  0  0  0  0  0  0  0
  189.6080  177.4890  141.1170 C   0  0  0  0  0  0  0  0  0  0  0  0
  188.4360  178.6760  136.9860 C   0  0  0  0  0  3  0  0  0  0  0  0
  189.5990  178.1870  137.4930 N   0  0  0  0  0  0  0  0  0  0  0  0
  187.4520  178.8110  137.9130 N   0  0  0  0  0  0  0  0  0  0  0  0
  188.3090  177.8760  141.3290 N   0  0  0  0  0  2  0  0  0  0  0  0
  192.0820  174.3110  137.1560 C   0  0  0  0  0  0  0  0  0  0  0  0
  191.5590  177.1480  139.5170 C   0  0  0  0  0  0  0  0  0  0  0  0
  194.1120  175.2990  138.0100 N   0  0  0  0  0  0  0  0  0  0  0  0
  191.9930  176.1530  138.6730 C   0  0  0  0  0  0  0  0  0  0  0  0
  191.4180  173.2940  136.3020 C   0  0  0  0  0  1  0  0  0  0  0  0
  193.3550  176.1720  138.7200 C   0  0  0  0  0  0  0  0  0  0  0  0
  193.4910  174.3680  137.2250 C   0  0  0  0  0  3  0  0  0  0  0  0
  192.7150  177.7310  140.0400 C   0  0  0  0  0  3  0  0  0  0  0  0
  193.8230  177.1230  139.5470 N   0  0  0  0  0  0  0  0  0  0  0  0
  191.3090  175.2190  137.8990 C   0  0  0  0  0  2  0  0  0  0  0  0
  190.5480  176.8830  142.5200 S   0  0  0  0  0  0  0  0  0  0  0  0
  189.9940  178.2520  143.5920 C   0  0  0  0  0  2  0  0  0  0  0  0
  190.5080  176.8670  145.4860 O   0  0  0  0  0  1  0  0  0  0  0  0
  189.5710  177.7660  144.9730 C   0  0  2  0  0  3  0  0  0  0  0  0
  188.1900  177.1240  144.9260 C   0  0  0  0  0  2  0  0  0  0  0  0
  186.6080  178.0710  146.3600 C   0  0  0  0  0  2  0  0  0  0  0  0
  187.1560  178.1430  145.0050 N   0  0  0  0  0  0  0  0  0  0  0  0
  185.5750  179.0930  146.5240 N   0  0  0  0  0  2  0  0  0  0  0  0
  184.5110  178.8380  145.5560 C   0  0  0  0  0  2  0  0  0  0  0  0
  185.0910  178.7830  144.1460 C   0  0  0  0  0  2  0  0  0  0  0  0
  186.1380  177.7640  144.1070 N   0  0  0  0  0  2  0  0  0  0  0  0
  1  4  1  0  0  0  0
  1 10  1  0  0  0  0
  2  6  2  0  0  0  0
  3  5  1  0  0  0  0
  3  2  1  0  0  0  0
  5  1  2  0  0  0  0
  6 10  1  0  0  0  0
  6 21  1  0  0  0  0
  7  8  1  0  0  0  0
  7  9  2  0  0  0  0
  8  3  2  0  0  0  0
  9  5  1  0  0  0  0
 11 17  2  0  0  0  0
 11 20  1  0  0  0  0
 12  2  1  0  0  0  0
 12 18  1  0  0  0  0
 13 16  2  0  0  0  0
 14 16  1  0  0  0  0
 14 12  2  0  0  0  0
 15 11  1  0  0  0  0
 16 19  1  0  0  0  0
 17 13  1  0  0  0  0
 19 18  2  0  0  0  0
 20 14  1  0  0  0  0
 21 22  1  0  0  0  0
 22 24  1  0  0  0  0
 24 23  1  6  0  0  0
 25 24  1  0  0  0  0
 25 27  1  0  0  0  0
 26 28  1  0  0  0  0
 27 26  1  0  0  0  0
 29 28  1  0  0  0  0
 30 29  1  0  0  0  0
 31 30  1  0  0  0  0
 31 27  1  0  0  0  0
M  END
>  <MODEL>
1

>  <REMARK>
 VINA RESULT:      -8.1      0.000      0.000
  Name = 
  6 active torsions:
  status: ('A' for Active; 'I' for Inactive)
    1  A    between atoms: C_3  and  N_9
    2  A    between atoms: C_3  and  C_19
    3  A    between atoms: C_4  and  C_5
    4  A    between atoms: C_8  and  C_19
    5  A    between atoms: C_8  and  S_31
    6  A    between atoms: C_21  and  S_31
                            x       y       z     vdW  Elec       q    Type
                         _______ _______ _______ _____ _____    ______ ____

>  <TORSDO>
F 6

$$$$
=
 OpenBabel10222421453D

 31 35  0  0  1  0  0  0  0  0999 V2000
  186.8460  178.0790  142.5570 C   0  0  0  0  0  0  0  0  0  0  0  0
  187.8190  178.0750  139.9150 C   0  0  0  0  0  0  0  0  0  0  0  0
  186.5150  178.4830  140.2260 C   0  0  0  0  0  0  0  0  0  0  0  0
  186.3610  178.0830  143.8950 N   0  0  0  0  0  1  0  0  0  0  0  0
  186.0470  178.4870  141.4970 C   0  0  0  0  0  0  0  0  0  0  0  0
  188.6270  177.6600  141.0100 C   0  0  0  0  0  0  0  0  0  0  0  0
  184.5280  179.2200  140.2280 C   0  0  0  0  0  3  0  0  0  0  0  0
  185.5690  178.9520  139.3970 N   0  0  0  0  0  0  0  0  0  0  0  0
  184.7880  178.9460  141.5330 N   0  0  0  0  0  0  0  0  0  0  0  0
  188.1190  177.6730  142.2840 N   0  0  0  0  0  2  0  0  0  0  0  0
  187.5850  175.1070  136.4090 C   0  0  0  0  0  0  0  0  0  0  0  0
  188.3110  178.0930  138.5210 C   0  0  0  0  0  0  0  0  0  0  0  0
  188.8040  176.8630  135.2870 N   0  0  0  0  0  0  0  0  0  0  0  0
  188.1480  177.1220  137.5600 C   0  0  0  0  0  0  0  0  0  0  0  0
  186.9550  173.7630  136.3680 C   0  0  0  0  0  1  0  0  0  0  0  0
  188.7600  177.5870  136.4340 C   0  0  0  0  0  0  0  0  0  0  0  0
  188.2200  175.6270  135.2600 C   0  0  0  0  0  3  0  0  0  0  0  0
  189.0280  179.1190  137.9050 C   0  0  0  0  0  3  0  0  0  0  0  0
  189.3070  178.8010  136.6150 N   0  0  0  0  0  0  0  0  0  0  0  0
  187.5490  175.8660  137.5910 C   0  0  0  0  0  2  0  0  0  0  0  0
  190.3050  177.0700  140.7750 S   0  0  0  0  0  0  0  0  0  0  0  0
  190.2980  176.1620  142.3580 C   0  0  0  0  0  2  0  0  0  0  0  0
  191.9470  175.2550  143.8500 O   0  0  0  0  0  1  0  0  0  0  0  0
  191.5630  176.4130  143.1720 C   0  0  2  0  0  3  0  0  0  0  0  0
  191.3610  177.5610  144.1510 C   0  0  0  0  0  2  0  0  0  0  0  0
  189.5450  178.0340  145.5430 C   0  0  0  0  0  2  0  0  0  0  0  0
  190.6510  177.0990  145.3330 N   0  0  0  0  0  0  0  0  0  0  0  0
  188.7640  177.6150  146.7040 N   0  0  0  0  0  2  0  0  0  0  0  0
  189.6350  177.6230  147.8770 C   0  0  0  0  0  2  0  0  0  0  0  0
  190.8600  176.7500  147.6230 C   0  0  0  0  0  2  0  0  0  0  0  0
  191.5370  177.2310  146.4210 N   0  0  0  0  0  2  0  0  0  0  0  0
  1  4  1  0  0  0  0
  2  3  1  0  0  0  0
  2  6  2  0  0  0  0
  3  5  1  0  0  0  0
  5  9  1  0  0  0  0
  5  1  2  0  0  0  0
  6 10  1  0  0  0  0
  7  9  2  0  0  0  0
  8  3  2  0  0  0  0
  8  7  1  0  0  0  0
 10  1  1  0  0  0  0
 11 20  1  0  0  0  0
 12  2  1  0  0  0  0
 13 16  2  0  0  0  0
 14 20  1  0  0  0  0
 14 12  2  0  0  0  0
 15 11  1  0  0  0  0
 16 19  1  0  0  0  0
 16 14  1  0  0  0  0
 17 13  1  0  0  0  0
 17 11  2  0  0  0  0
 18 12  1  0  0  0  0
 19 18  2  0  0  0  0
 21  6  1  0  0  0  0
 21 22  1  0  0  0  0
 22 24  1  0  0  0  0
 24 23  1  1  0  0  0
 24 25  1  0  0  0  0
 25 27  1  0  0  0  0
 26 28  1  0  0  0  0
 27 26  1  0  0  0  0
 27 31  1  0  0  0  0
 28 29  1  0  0  0  0
 30 29  1  0  0  0  0
 31 30  1  0  0  0  0
M  END
>  <MODEL>
2

>  <REMARK>
 VINA RESULT:      -7.9      3.061      4.164
  Name = 
  6 active torsions:
  status: ('A' for Active; 'I' for Inactive)
    1  A    between atoms: C_3  and  N_9
    2  A    between atoms: C_3  and  C_19
    3  A    between atoms: C_4  and  C_5
    4  A    between atoms: C_8  and  C_19
    5  A    between atoms: C_8  and  S_31
    6  A    between atoms: C_21  and  S_31
                            x       y       z     vdW  Elec       q    Type
                         _______ _______ _______ _____ _____    ______ ____

>  <TORSDO>
F 6

$$$$
=
 OpenBabel10222421453D

 31 35  0  0  1  0  0  0  0  0999 V2000
  192.9070  175.9820  137.8780 C   0  0  0  0  0  0  0  0  0  0  0  0
  190.2640  176.8940  137.5490 C   0  0  0  0  0  0  0  0  0  0  0  0
  191.0430  176.4670  136.4650 C   0  0  0  0  0  0  0  0  0  0  0  0
  194.2410  175.5190  138.0500 N   0  0  0  0  0  1  0  0  0  0  0  0
  192.3140  176.0270  136.6230 C   0  0  0  0  0  0  0  0  0  0  0  0
  190.8830  176.8430  138.8290 C   0  0  0  0  0  0  0  0  0  0  0  0
  191.8100  175.8810  134.5780 C   0  0  0  0  0  3  0  0  0  0  0  0
  190.6930  176.3790  135.1730 N   0  0  0  0  0  0  0  0  0  0  0  0
  192.8300  175.6510  135.4450 N   0  0  0  0  0  0  0  0  0  0  0  0
  192.1730  176.3950  138.9510 N   0  0  0  0  0  2  0  0  0  0  0  0
  186.2100  174.7560  137.1480 C   0  0  0  0  0  0  0  0  0  0  0  0
  188.8730  177.3580  137.3520 C   0  0  0  0  0  0  0  0  0  0  0  0
  185.4170  177.0290  136.9610 N   0  0  0  0  0  0  0  0  0  0  0  0
  187.7350  176.5900  137.2660 C   0  0  0  0  0  0  0  0  0  0  0  0
  185.9200  173.3010  137.1720 C   0  0  0  0  0  1  0  0  0  0  0  0
  186.6970  177.4570  137.0990 C   0  0  0  0  0  0  0  0  0  0  0  0
  185.1600  175.6860  136.9860 C   0  0  0  0  0  3  0  0  0  0  0  0
  188.4480  178.6810  137.2320 C   0  0  0  0  0  3  0  0  0  0  0  0
  187.1010  178.7380  137.0730 N   0  0  0  0  0  0  0  0  0  0  0  0
  187.5320  175.2130  137.2870 C   0  0  0  0  0  2  0  0  0  0  0  0
  190.0350  177.3910  140.3120 S   0  0  0  0  0  0  0  0  0  0  0  0
  191.5870  177.4890  141.2670 C   0  0  0  0  0  2  0  0  0  0  0  0
  190.4090  175.8750  142.5990 O   0  0  0  0  0  1  0  0  0  0  0  0
  191.4880  176.7610  142.6020 C   0  0  2  0  0  3  0  0  0  0  0  0
  191.3610  177.7490  143.7530 C   0  0  0  0  0  2  0  0  0  0  0  0
  189.6310  177.9500  145.3100 C   0  0  0  0  0  2  0  0  0  0  0  0
  190.7570  177.1060  144.9090 N   0  0  0  0  0  0  0  0  0  0  0  0
  188.9530  177.3480  146.4560 N   0  0  0  0  0  2  0  0  0  0  0  0
  189.9040  177.2500  147.5600 C   0  0  0  0  0  2  0  0  0  0  0  0
  191.1420  176.4780  147.1150 C   0  0  0  0  0  2  0  0  0  0  0  0
  191.7120  177.1410  145.9440 N   0  0  0  0  0  2  0  0  0  0  0  0
  1  4  1  0  0  0  0
  1 10  1  0  0  0  0
  2  6  2  0  0  0  0
  3  5  1  0  0  0  0
  3  2  1  0  0  0  0
  5  1  2  0  0  0  0
  6 10  1  0  0  0  0
  6 21  1  0  0  0  0
  7  8  1  0  0  0  0
  7  9  2  0  0  0  0
  8  3  2  0  0  0  0
  9  5  1  0  0  0  0
 11 15  1  0  0  0  0
 11 20  1  0  0  0  0
 12  2  1  0  0  0  0
 13 17  1  0  0  0  0
 13 16  2  0  0  0  0
 14 20  1  0  0  0  0
 14 12  2  0  0  0  0
 16 14  1  0  0  0  0
 17 11  2  0  0  0  0
 18 12  1  0  0  0  0
 19 16  1  0  0  0  0
 19 18  2  0  0  0  0
 21 22  1  0  0  0  0
 22 24  1  0  0  0  0
 24 23  1  6  0  0  0
 24 25  1  0  0  0  0
 25 27  1  0  0  0  0
 26 28  1  0  0  0  0
 27 26  1  0  0  0  0
 27 31  1  0  0  0  0
 28 29  1  0  0  0  0
 30 29  1  0  0  0  0
 31 30  1  0  0  0  0
M  END
>  <MODEL>
3

>  <REMARK>
 VINA RESULT:      -7.5      2.734      5.318
  Name = 
  6 active torsions:
  status: ('A' for Active; 'I' for Inactive)
    1  A    between atoms: C_3  and  N_9
    2  A    between atoms: C_3  and  C_19
    3  A    between atoms: C_4  and  C_5
    4  A    between atoms: C_8  and  C_19
    5  A    between atoms: C_8  and  S_31
    6  A    between atoms: C_21  and  S_31
                            x       y       z     vdW  Elec       q    Type
                         _______ _______ _______ _____ _____    ______ ____

>  <TORSDO>
F 6

$$$$
=
 OpenBabel10222421453D

 31 35  0  0  1  0  0  0  0  0999 V2000
  186.0430  178.8570  141.1240 C   0  0  0  0  0  0  0  0  0  0  0  0
  188.2360  177.6770  142.4370 C   0  0  0  0  0  0  0  0  0  0  0  0
  187.0060  177.8780  143.0790 C   0  0  0  0  0  0  0  0  0  0  0  0
  184.9360  179.4500  140.4550 N   0  0  0  0  0  1  0  0  0  0  0  0
  185.9500  178.4430  142.4470 C   0  0  0  0  0  0  0  0  0  0  0  0
  188.3170  178.1040  141.0820 C   0  0  0  0  0  0  0  0  0  0  0  0
  185.3560  177.9320  144.4070 C   0  0  0  0  0  3  0  0  0  0  0  0
  186.6540  177.5360  144.3270 N   0  0  0  0  0  2  0  0  0  0  0  0
  184.8880  178.4960  143.2620 N   0  0  0  0  0  0  0  0  0  0  0  0
  187.2290  178.6770  140.4750 N   0  0  0  0  0  0  0  0  0  0  0  0
  189.6330  177.6150  146.8190 C   0  0  0  0  0  0  0  0  0  0  0  0
  189.3700  177.0440  143.1440 C   0  0  0  0  0  0  0  0  0  0  0  0
  191.3630  176.2110  145.8900 N   0  0  0  0  0  0  0  0  0  0  0  0
  189.6590  177.0990  144.4880 C   0  0  0  0  0  0  0  0  0  0  0  0
  189.0280  178.2840  147.9980 C   0  0  0  0  0  1  0  0  0  0  0  0
  190.7880  176.3570  144.6700 C   0  0  0  0  0  0  0  0  0  0  0  0
  190.7970  176.8300  146.9700 C   0  0  0  0  0  3  0  0  0  0  0  0
  190.3650  176.2480  142.5750 C   0  0  0  0  0  3  0  0  0  0  0  0
  191.2420  175.8280  143.5220 N   0  0  0  0  0  0  0  0  0  0  0  0
  189.0480  177.7600  145.5490 C   0  0  0  0  0  2  0  0  0  0  0  0
  189.8320  177.9550  140.1340 S   0  0  0  0  0  0  0  0  0  0  0  0
  188.9700  177.1990  138.7140 C   0  0  0  0  0  2  0  0  0  0  0  0
  189.0360  179.3930  137.7380 O   0  0  0  0  0  1  0  0  0  0  0  0
  189.1150  178.0300  137.4440 C   0  0  2  0  0  3  0  0  0  0  0  0
  188.0570  177.6450  136.4180 C   0  0  0  0  0  2  0  0  0  0  0  0
  186.6630  175.7800  136.2270 C   0  0  0  0  0  2  0  0  0  0  0  0
  186.9580  176.9450  137.0630 N   0  0  0  0  0  0  0  0  0  0  0  0
  185.5810  175.0070  136.8310 N   0  0  0  0  0  2  0  0  0  0  0  0
  184.3950  175.8550  136.9160 C   0  0  0  0  0  2  0  0  0  0  0  0
  184.7230  177.1360  137.6780 C   0  0  0  0  0  2  0  0  0  0  0  0
  185.8410  177.8030  137.0140 N   0  0  0  0  0  2  0  0  0  0  0  0
  1  5  1  0  0  0  0
  2  3  1  0  0  0  0
  2 12  1  0  0  0  0
  3  8  1  0  0  0  0
  4  1  1  0  0  0  0
  5  3  2  0  0  0  0
  5  9  1  0  0  0  0
  6  2  2  0  0  0  0
  8  7  1  0  0  0  0
  9  7  2  0  0  0  0
 10  6  1  0  0  0  0
 10  1  2  0  0  0  0
 11 17  2  0  0  0  0
 11 15  1  0  0  0  0
 12 14  2  0  0  0  0
 13 17  1  0  0  0  0
 14 16  1  0  0  0  0
 14 20  1  0  0  0  0
 16 13  2  0  0  0  0
 18 12  1  0  0  0  0
 18 19  2  0  0  0  0
 19 16  1  0  0  0  0
 20 11  1  0  0  0  0
 21  6  1  0  0  0  0
 22 21  1  0  0  0  0
 24 23  1  1  0  0  0
 24 22  1  0  0  0  0
 25 27  1  0  0  0  0
 25 24  1  0  0  0  0
 26 28  1  0  0  0  0
 26 27  1  0  0  0  0
 28 29  1  0  0  0  0
 29 30  1  0  0  0  0
 31 27  1  0  0  0  0
 31 30  1  0  0  0  0
M  END
>  <MODEL>
4

>  <REMARK>
 VINA RESULT:      -7.5      3.260      7.127
  Name = 
  6 active torsions:
  status: ('A' for Active; 'I' for Inactive)
    1  A    between atoms: C_3  and  N_9
    2  A    between atoms: C_3  and  C_19
    3  A    between atoms: C_4  and  C_5
    4  A    between atoms: C_8  and  C_19
    5  A    between atoms: C_8  and  S_31
    6  A    between atoms: C_21  and  S_31
                            x       y       z     vdW  Elec       q    Type
                         _______ _______ _______ _____ _____    ______ ____

>  <TORSDO>
F 6

$$$$
=
 OpenBabel10222421453D

 31 35  0  0  1  0  0  0  0  0999 V2000
  185.9720  178.8570  141.3170 C   0  0  0  0  0  0  0  0  0  0  0  0
  188.1770  177.7020  142.6320 C   0  0  0  0  0  0  0  0  0  0  0  0
  186.9590  177.9310  143.2860 C   0  0  0  0  0  0  0  0  0  0  0  0
  184.8580  179.4380  140.6470 N   0  0  0  0  0  1  0  0  0  0  0  0
  185.8970  178.4850  142.6530 C   0  0  0  0  0  0  0  0  0  0  0  0
  188.2400  178.0870  141.2630 C   0  0  0  0  0  0  0  0  0  0  0  0
  185.3300  178.0380  144.6370 C   0  0  0  0  0  3  0  0  0  0  0  0
  186.6240  177.6300  144.5490 N   0  0  0  0  0  2  0  0  0  0  0  0
  184.8480  178.5700  143.4830 N   0  0  0  0  0  0  0  0  0  0  0  0
  187.1460  178.6500  140.6560 N   0  0  0  0  0  0  0  0  0  0  0  0
  189.5880  177.6840  147.0090 C   0  0  0  0  0  0  0  0  0  0  0  0
  189.3180  177.0830  143.3400 C   0  0  0  0  0  0  0  0  0  0  0  0
  191.3260  176.2860  146.0860 N   0  0  0  0  0  0  0  0  0  0  0  0
  189.6100  177.1500  144.6830 C   0  0  0  0  0  0  0  0  0  0  0  0
  188.9810  178.3580  148.1850 C   0  0  0  0  0  1  0  0  0  0  0  0
  190.7450  176.4180  144.8670 C   0  0  0  0  0  0  0  0  0  0  0  0
  190.7580  176.9090  147.1630 C   0  0  0  0  0  3  0  0  0  0  0  0
  190.3170  176.2900  142.7740 C   0  0  0  0  0  3  0  0  0  0  0  0
  191.2000  175.8830  143.7210 N   0  0  0  0  0  0  0  0  0  0  0  0
  188.9980  177.8150  145.7410 C   0  0  0  0  0  2  0  0  0  0  0  0
  189.7390  177.8990  140.2960 S   0  0  0  0  0  0  0  0  0  0  0  0
  188.8310  177.2380  138.8580 C   0  0  0  0  0  2  0  0  0  0  0  0
  189.1630  177.2400  136.4800 O   0  0  0  0  0  1  0  0  0  0  0  0
  189.7580  176.9020  137.6960 C   0  0  2  0  0  3  0  0  0  0  0  0
  190.1380  175.4280  137.7110 C   0  0  0  0  0  2  0  0  0  0  0  0
  192.2010  176.5250  137.7390 C   0  0  0  0  0  2  0  0  0  0  0  0
  191.5350  175.2680  138.0840 N   0  0  0  0  0  0  0  0  0  0  0  0
  193.6110  176.4500  138.1150 N   0  0  0  0  0  2  0  0  0  0  0  0
  194.2310  175.3520  137.3760 C   0  0  0  0  0  2  0  0  0  0  0  0
  193.4660  174.0560  137.6270 C   0  0  0  0  0  2  0  0  0  0  0  0
  192.0670  174.2580  137.2590 N   0  0  0  0  0  2  0  0  0  0  0  0
  1  5  1  0  0  0  0
  2  3  1  0  0  0  0
  2 12  1  0  0  0  0
  3  8  1  0  0  0  0
  4  1  1  0  0  0  0
  5  3  2  0  0  0  0
  5  9  1  0  0  0  0
  6  2  2  0  0  0  0
  8  7  1  0  0  0  0
  9  7  2  0  0  0  0
 10  6  1  0  0  0  0
 10  1  2  0  0  0  0
 11 17  2  0  0  0  0
 11 15  1  0  0  0  0
 12 14  2  0  0  0  0
 13 17  1  0  0  0  0
 14 16  1  0  0  0  0
 14 20  1  0  0  0  0
 16 13  2  0  0  0  0
 18 12  1  0  0  0  0
 18 19  2  0  0  0  0
 19 16  1  0  0  0  0
 20 11  1  0  0  0  0
 21  6  1  0  0  0  0
 22 21  1  0  0  0  0
 24 23  1  6  0  0  0
 24 25  1  0  0  0  0
 24 22  1  0  0  0  0
 25 27  1  0  0  0  0
 26 27  1  0  0  0  0
 26 28  1  0  0  0  0
 29 30  1  0  0  0  0
 29 28  1  0  0  0  0
 31 30  1  0  0  0  0
 31 27  1  0  0  0  0
M  END
>  <MODEL>
5

>  <REMARK>
 VINA RESULT:      -7.4      2.586      7.793
  Name = 
  6 active torsions:
  status: ('A' for Active; 'I' for Inactive)
    1  A    between atoms: C_3  and  N_9
    2  A    between atoms: C_3  and  C_19
    3  A    between atoms: C_4  and  C_5
    4  A    between atoms: C_8  and  C_19
    5  A    between atoms: C_8  and  S_31
    6  A    between atoms: C_21  and  S_31
                            x       y       z     vdW  Elec       q    Type
                         _______ _______ _______ _____ _____    ______ ____

>  <TORSDO>
F 6

$$$$
=
 OpenBabel10222421453D

 31 35  0  0  1  0  0  0  0  0999 V2000
  187.1690  178.6520  140.9250 C   0  0  0  0  0  0  0  0  0  0  0  0
  184.4750  178.3760  140.1540 C   0  0  0  0  0  0  0  0  0  0  0  0
  185.5250  178.2900  139.2300 C   0  0  0  0  0  0  0  0  0  0  0  0
  188.5290  178.7880  141.3210 N   0  0  0  0  0  1  0  0  0  0  0  0
  186.8210  178.4210  139.6010 C   0  0  0  0  0  0  0  0  0  0  0  0
  184.8450  178.6120  141.5080 C   0  0  0  0  0  0  0  0  0  0  0  0
  186.7590  178.0380  137.5250 C   0  0  0  0  0  3  0  0  0  0  0  0
  185.4560  178.0390  137.9140 N   0  0  0  0  0  0  0  0  0  0  0  0
  187.6300  178.2700  138.5430 N   0  0  0  0  0  0  0  0  0  0  0  0
  186.1670  178.7440  141.8470 N   0  0  0  0  0  2  0  0  0  0  0  0
  181.3650  181.2010  138.2830 C   0  0  0  0  0  0  0  0  0  0  0  0
  183.0690  178.2160  139.7270 C   0  0  0  0  0  0  0  0  0  0  0  0
  180.0030  179.2110  138.3780 N   0  0  0  0  0  0  0  0  0  0  0  0
  182.2510  179.1630  139.1550 C   0  0  0  0  0  0  0  0  0  0  0  0
  181.5070  182.6350  137.9250 C   0  0  0  0  0  1  0  0  0  0  0  0
  181.0550  178.5510  138.9250 C   0  0  0  0  0  0  0  0  0  0  0  0
  180.1440  180.5310  138.0510 C   0  0  0  0  0  3  0  0  0  0  0  0
  182.3020  177.0530  139.8090 C   0  0  0  0  0  3  0  0  0  0  0  0
  181.0550  177.2650  139.3150 N   0  0  0  0  0  0  0  0  0  0  0  0
  182.4470  180.5070  138.8530 C   0  0  0  0  0  2  0  0  0  0  0  0
  183.6180  178.7880  142.8050 S   0  0  0  0  0  0  0  0  0  0  0  0
  184.8530  179.3860  144.0090 C   0  0  0  0  0  2  0  0  0  0  0  0
  183.6040  178.7880  145.9710 O   0  0  0  0  0  1  0  0  0  0  0  0
  184.8190  178.5940  145.3100 C   0  0  2  0  0  3  0  0  0  0  0  0
  185.9830  178.9790  146.2130 C   0  0  0  0  0  2  0  0  0  0  0  0
  187.5740  178.0280  147.6360 C   0  0  0  0  0  2  0  0  0  0  0  0
  186.9140  177.8700  146.3390 N   0  0  0  0  0  0  0  0  0  0  0  0
  188.5100  176.9260  147.8460 N   0  0  0  0  0  2  0  0  0  0  0  0
  189.5130  176.9590  146.7840 C   0  0  0  0  0  2  0  0  0  0  0  0
  188.8300  176.9230  145.4200 C   0  0  0  0  0  2  0  0  0  0  0  0
  187.8900  178.0380  145.3360 N   0  0  0  0  0  2  0  0  0  0  0  0
  1  4  1  0  0  0  0
  1 10  1  0  0  0  0
  2  6  2  0  0  0  0
  3  5  1  0  0  0  0
  3  2  1  0  0  0  0
  5  1  2  0  0  0  0
  6 10  1  0  0  0  0
  6 21  1  0  0  0  0
  7  8  1  0  0  0  0
  7  9  2  0  0  0  0
  8  3  2  0  0  0  0
  9  5  1  0  0  0  0
 11 20  1  0  0  0  0
 12 18  1  0  0  0  0
 12  2  1  0  0  0  0
 13 16  2  0  0  0  0
 14 12  2  0  0  0  0
 15 11  1  0  0  0  0
 16 14  1  0  0  0  0
 16 19  1  0  0  0  0
 17 11  2  0  0  0  0
 17 13  1  0  0  0  0
 19 18  2  0  0  0  0
 20 14  1  0  0  0  0
 21 22  1  0  0  0  0
 22 24  1  0  0  0  0
 24 23  1  1  0  0  0
 24 25  1  0  0  0  0
 25 27  1  0  0  0  0
 26 28  1  0  0  0  0
 27 26  1  0  0  0  0
 29 28  1  0  0  0  0
 30 29  1  0  0  0  0
 31 30  1  0  0  0  0
 31 27  1  0  0  0  0
M  END
>  <MODEL>
6

>  <REMARK>
 VINA RESULT:      -7.2      4.263      7.709
  Name = 
  6 active torsions:
  status: ('A' for Active; 'I' for Inactive)
    1  A    between atoms: C_3  and  N_9
    2  A    between atoms: C_3  and  C_19
    3  A    between atoms: C_4  and  C_5
    4  A    between atoms: C_8  and  C_19
    5  A    between atoms: C_8  and  S_31
    6  A    between atoms: C_21  and  S_31
                            x       y       z     vdW  Elec       q    Type
                         _______ _______ _______ _____ _____    ______ ____

>  <TORSDO>
F 6

$$$$
=
 OpenBabel10222421453D

 31 35  0  0  1  0  0  0  0  0999 V2000
  183.3730  179.0380  143.9030 C   0  0  0  0  0  0  0  0  0  0  0  0
  182.7670  178.5560  141.1970 C   0  0  0  0  0  0  0  0  0  0  0  0
  181.7780  178.5650  142.1890 C   0  0  0  0  0  0  0  0  0  0  0  0
  183.6840  179.2860  145.2700 N   0  0  0  0  0  1  0  0  0  0  0  0
  182.0690  178.7990  143.4910 C   0  0  2  0  0  3  0  0  0  0  0  0
  184.0990  178.8040  141.6320 C   0  0  0  0  0  0  0  0  0  0  0  0
  179.9820  178.5350  143.3130 C   0  0  0  0  0  3  0  0  0  0  0  0
  180.4540  178.4000  142.0460 N   0  0  0  0  0  0  0  0  0  0  0  0
  180.9520  178.7830  144.2320 N   0  0  0  0  0  0  0  0  0  0  0  0
  184.3580  179.0320  142.9600 N   0  0  0  0  0  0  0  0  0  0  0  0
  181.2250  181.2220  137.7800 C   0  0  0  0  0  0  0  0  0  0  0  0
  182.4230  178.3120  139.7790 C   0  0  0  0  0  0  0  0  0  0  0  0
  181.3610  179.1450  136.5560 N   0  0  0  0  0  0  0  0  0  0  0  0
  181.9810  179.2270  138.8520 C   0  0  0  0  0  0  0  0  0  0  0  0
  180.9020  182.6700  137.8030 C   0  0  0  0  0  1  0  0  0  0  0  0
  181.8100  178.5420  137.6860 C   0  0  0  0  0  0  0  0  0  0  0  0
  181.0680  180.4800  136.5880 C   0  0  0  0  0  3  0  0  0  0  0  0
  182.4980  177.0930  139.1040 C   0  0  0  0  0  3  0  0  0  0  0  0
  182.1150  177.2390  137.8100 N   0  0  0  0  0  0  0  0  0  0  0  0
  181.6880  180.5840  138.9440 C   0  0  0  0  0  2  0  0  0  0  0  0
  185.4850  178.7860  140.4920 S   0  0  0  0  0  0  0  0  0  0  0  0
  186.7010  178.6020  141.8400 C   0  0  0  0  0  2  0  0  0  0  0  0
  188.1680  178.7800  139.9460 O   0  0  0  0  0  1  0  0  0  0  0  0
  188.1360  178.7270  141.3410 C   0  0  2  0  0  3  0  0  0  0  0  0
  188.9920  177.5750  141.8490 C   0  0  0  0  0  2  0  0  0  0  0  0
  191.1140  177.4610  142.8220 C   0  0  0  0  0  2  0  0  0  0  0  0
  189.7620  177.9900  143.0110 N   0  0  0  0  0  0  0  0  0  0  0  0
  191.9580  177.8660  143.9430 N   0  0  0  0  0  2  0  0  0  0  0  0
  191.3910  177.3190  145.1730 C   0  0  0  0  0  2  0  0  0  0  0  0
  189.9380  177.7610  145.3190 C   0  0  0  0  0  2  0  0  0  0  0  0
  189.1990  177.3440  144.1290 N   0  0  0  0  0  2  0  0  0  0  0  0
  1  4  1  0  0  0  0
  2  6  2  0  0  0  0
  2  3  1  0  0  0  0
  5  3  1  6  0  0  0
  5  1  1  0  0  0  0
  5  9  1  0  0  0  0
  6 10  1  0  0  0  0
  7  9  2  0  0  0  0
  8  3  2  0  0  0  0
  8  7  1  0  0  0  0
 10  1  2  0  0  0  0
 11 15  1  0  0  0  0
 11 20  1  0  0  0  0
 12  2  1  0  0  0  0
 13 17  1  0  0  0  0
 13 16  2  0  0  0  0
 14 20  1  0  0  0  0
 14 12  2  0  0  0  0
 16 19  1  0  0  0  0
 16 14  1  0  0  0  0
 17 11  2  0  0  0  0
 18 12  1  0  0  0  0
 19 18  2  0  0  0  0
 21  6  1  0  0  0  0
 21 22  1  0  0  0  0
 24 23  1  6  0  0  0
 24 22  1  0  0  0  0
 24 25  1  0  0  0  0
 25 27  1  0  0  0  0
 26 27  1  0  0  0  0
 26 28  1  0  0  0  0
 27 31  1  0  0  0  0
 28 29  1  0  0  0  0
 29 30  1  0  0  0  0
 31 30  1  0  0  0  0
M  END
>  <MODEL>
7

>  <REMARK>
 VINA RESULT:      -7.2      4.675      8.658
  Name = 
  6 active torsions:
  status: ('A' for Active; 'I' for Inactive)
    1  A    between atoms: C_3  and  N_9
    2  A    between atoms: C_3  and  C_19
    3  A    between atoms: C_4  and  C_5
    4  A    between atoms: C_8  and  C_19
    5  A    between atoms: C_8  and  S_31
    6  A    between atoms: C_21  and  S_31
                            x       y       z     vdW  Elec       q    Type
                         _______ _______ _______ _____ _____    ______ ____

>  <TORSDO>
F 6

$$$$
=
 OpenBabel10222421453D

 31 35  0  0  1  0  0  0  0  0999 V2000
  187.7450  178.2820  141.1850 C   0  0  0  0  0  0  0  0  0  0  0  0
  190.0540  177.3510  139.8700 C   0  0  0  0  0  0  0  0  0  0  0  0
  189.7670  177.0080  141.1980 C   0  0  0  0  0  0  0  0  0  0  0  0
  186.5750  178.7520  141.8440 N   0  0  0  0  0  1  0  0  0  0  0  0
  188.6550  177.4540  141.8310 C   0  0  0  0  0  0  0  0  0  0  0  0
  189.1140  178.1990  139.2200 C   0  0  0  0  0  0  0  0  0  0  0  0
  189.7170  176.2020  143.1570 C   0  0  0  0  0  3  0  0  0  0  0  0
  190.4580  176.2030  142.0180 N   0  0  0  0  0  2  0  0  0  0  0  0
  188.5950  176.9640  143.0770 N   0  0  0  0  0  0  0  0  0  0  0  0
  188.0010  178.6350  139.8930 N   0  0  0  0  0  0  0  0  0  0  0  0
  190.8270  174.0750  136.7360 C   0  0  0  0  0  0  0  0  0  0  0  0
  191.2670  176.8400  139.1970 C   0  0  0  0  0  0  0  0  0  0  0  0
  193.1040  174.8280  137.0090 N   0  0  0  0  0  0  0  0  0  0  0  0
  191.3470  175.8470  138.2480 C   0  0  0  0  0  0  0  0  0  0  0  0
  189.8540  173.1650  136.0810 C   0  0  0  0  0  1  0  0  0  0  0  0
  192.6650  175.7360  137.9170 C   0  0  0  0  0  0  0  0  0  0  0  0
  192.2000  173.9960  136.4110 C   0  0  0  0  0  3  0  0  0  0  0  0
  192.5750  177.2880  139.3890 C   0  0  0  0  0  3  0  0  0  0  0  0
  193.4370  176.6000  138.5970 N   0  0  0  0  0  0  0  0  0  0  0  0
  190.3850  175.0180  137.6790 C   0  0  0  0  0  2  0  0  0  0  0  0
  189.3570  178.7620  137.5340 S   0  0  0  0  0  0  0  0  0  0  0  0
  187.6620  178.2940  137.0430 C   0  0  0  0  0  2  0  0  0  0  0  0
  188.3900  176.9220  135.2120 O   0  0  0  0  0  1  0  0  0  0  0  0
  187.6140  176.9260  136.3720 C   0  0  2  0  0  3  0  0  0  0  0  0
  186.1800  176.5260  136.0540 C   0  0  0  0  0  2  0  0  0  0  0  0
  186.4840  174.3230  136.7700 C   0  0  0  0  0  2  0  0  0  0  0  0
  185.7060  175.5390  137.0110 N   0  0  0  0  0  0  0  0  0  0  0  0
  186.0810  173.2890  137.7210 N   0  0  0  0  0  2  0  0  0  0  0  0
  184.6620  173.0040  137.5230 C   0  0  0  0  0  2  0  0  0  0  0  0
  183.8500  174.2890  137.6450 C   0  0  0  0  0  2  0  0  0  0  0  0
  184.3630  175.2630  136.6840 N   0  0  0  0  0  2  0  0  0  0  0  0
  1  5  1  0  0  0  0
  1  4  1  0  0  0  0
  2  3  1  0  0  0  0
  3  5  2  0  0  0  0
  3  8  1  0  0  0  0
  5  9  1  0  0  0  0
  6  2  2  0  0  0  0
  6 10  1  0  0  0  0
  8  7  1  0  0  0  0
  9  7  2  0  0  0  0
 10  1  2  0  0  0  0
 11 20  1  0  0  0  0
 12 18  1  0  0  0  0
 12  2  1  0  0  0  0
 13 16  2  0  0  0  0
 14 12  2  0  0  0  0
 15 11  1  0  0  0  0
 16 14  1  0  0  0  0
 16 19  1  0  0  0  0
 17 11  2  0  0  0  0
 17 13  1  0  0  0  0
 19 18  2  0  0  0  0
 20 14  1  0  0  0  0
 21  6  1  0  0  0  0
 22 21  1  0  0  0  0
 24 23  1  6  0  0  0
 24 22  1  0  0  0  0
 25 24  1  0  0  0  0
 25 27  1  0  0  0  0
 26 27  1  0  0  0  0
 26 28  1  0  0  0  0
 29 30  1  0  0  0  0
 29 28  1  0  0  0  0
 31 27  1  0  0  0  0
 31 30  1  0  0  0  0
M  END
>  <MODEL>
8

>  <REMARK>
 VINA RESULT:      -7.2      3.420      5.706
  Name = 
  6 active torsions:
  status: ('A' for Active; 'I' for Inactive)
    1  A    between atoms: C_3  and  N_9
    2  A    between atoms: C_3  and  C_19
    3  A    between atoms: C_4  and  C_5
    4  A    between atoms: C_8  and  C_19
    5  A    between atoms: C_8  and  S_31
    6  A    between atoms: C_21  and  S_31
                            x       y       z     vdW  Elec       q    Type
                         _______ _______ _______ _____ _____    ______ ____

>  <TORSDO>
F 6

$$$$
=
 OpenBabel10222421453D

 31 35  0  0  1  0  0  0  0  0999 V2000
  188.8990  177.6590  140.5290 C   0  0  0  0  0  0  0  0  0  0  0  0
  187.6560  177.8030  143.0510 C   0  0  0  0  0  0  0  0  0  0  0  0
  188.7960  177.0190  142.8290 C   0  0  0  0  0  0  0  0  0  0  0  0
  189.5260  177.5920  139.2530 N   0  0  0  0  0  1  0  0  0  0  0  0
  189.3960  176.9510  141.6160 C   0  0  0  0  0  0  0  0  0  0  0  0
  187.1570  178.5230  141.9300 C   0  0  0  0  0  0  0  0  0  0  0  0
  190.5010  175.7690  142.9710 C   0  0  0  0  0  3  0  0  0  0  0  0
  189.4830  176.2810  143.7130 N   0  0  0  0  0  2  0  0  0  0  0  0
  190.4780  176.1630  141.6710 N   0  0  0  0  0  0  0  0  0  0  0  0
  187.7870  178.4270  140.7150 N   0  0  0  0  0  0  0  0  0  0  0  0
  189.2690  177.5910  147.3540 C   0  0  0  0  0  0  0  0  0  0  0  0
  187.0270  177.8720  144.3880 C   0  0  0  0  0  0  0  0  0  0  0  0
  186.9320  177.8910  147.8810 N   0  0  0  0  0  0  0  0  0  0  0  0
  187.6490  177.8100  145.6130 C   0  0  0  0  0  0  0  0  0  0  0  0
  190.6680  177.4110  147.8150 C   0  0  0  0  0  1  0  0  0  0  0  0
  186.6660  177.9280  146.5510 C   0  0  0  0  0  0  0  0  0  0  0  0
  188.2240  177.7260  148.2950 C   0  0  0  0  0  3  0  0  0  0  0  0
  185.6670  178.0310  144.6600 C   0  0  0  0  0  3  0  0  0  0  0  0
  185.4480  178.0620  145.9990 N   0  0  0  0  0  0  0  0  0  0  0  0
  188.9800  177.6290  145.9790 C   0  0  0  0  0  2  0  0  0  0  0  0
  185.6820  179.5380  142.0380 S   0  0  0  0  0  0  0  0  0  0  0  0
  184.7600  178.4740  140.8780 C   0  0  0  0  0  2  0  0  0  0  0  0
  183.9250  180.0450  139.2650 O   0  0  0  0  0  1  0  0  0  0  0  0
  184.8240  178.9930  139.4460 C   0  0  2  0  0  3  0  0  0  0  0  0
  184.5430  177.8760  138.4490 C   0  0  0  0  0  2  0  0  0  0  0  0
  185.7020  176.6550  136.8300 C   0  0  0  0  0  2  0  0  0  0  0  0
  185.3990  178.0130  137.2820 N   0  0  0  0  0  0  0  0  0  0  0  0
  186.5400  176.7130  135.6340 N   0  0  0  0  0  2  0  0  0  0  0  0
  187.7840  177.4020  135.9720 C   0  0  0  0  0  2  0  0  0  0  0  0
  187.4760  178.7730  136.5640 C   0  0  0  0  0  2  0  0  0  0  0  0
  186.6020  178.6000  137.7220 N   0  0  0  0  0  2  0  0  0  0  0  0
  1 10  2  0  0  0  0
  1  5  1  0  0  0  0
  2 12  1  0  0  0  0
  3  2  1  0  0  0  0
  3  8  1  0  0  0  0
  4  1  1  0  0  0  0
  5  9  1  0  0  0  0
  5  3  2  0  0  0  0
  6 21  1  0  0  0  0
  6  2  2  0  0  0  0
  7  8  1  0  0  0  0
  9  7  2  0  0  0  0
 10  6  1  0  0  0  0
 11 15  1  0  0  0  0
 11 17  2  0  0  0  0
 12 18  1  0  0  0  0
 12 14  2  0  0  0  0
 13 17  1  0  0  0  0
 14 20  1  0  0  0  0
 14 16  1  0  0  0  0
 16 13  2  0  0  0  0
 18 19  2  0  0  0  0
 19 16  1  0  0  0  0
 20 11  1  0  0  0  0
 22 21  1  0  0  0  0
 24 23  1  1  0  0  0
 24 22  1  0  0  0  0
 25 24  1  0  0  0  0
 26 27  1  0  0  0  0
 27 31  1  0  0  0  0
 27 25  1  0  0  0  0
 28 29  1  0  0  0  0
 28 26  1  0  0  0  0
 29 30  1  0  0  0  0
 30 31  1  0  0  0  0
M  END
>  <MODEL>
9

>  <REMARK>
 VINA RESULT:      -7.1      3.552      8.082
  Name = 
  6 active torsions:
  status: ('A' for Active; 'I' for Inactive)
    1  A    between atoms: C_3  and  N_9
    2  A    between atoms: C_3  and  C_19
    3  A    between atoms: C_4  and  C_5
    4  A    between atoms: C_8  and  C_19
    5  A    between atoms: C_8  and  S_31
    6  A    between atoms: C_21  and  S_31
                            x       y       z     vdW  Elec       q    Type
                         _______ _______ _______ _____ _____    ______ ____

>  <TORSDO>
F 6

$$$$
