=
 OpenBabel10232411583D

 41 45  0  0  1  0  0  0  0  0999 V2000
  183.6250  178.3650  142.4100 C   0  0  0  0  0  3  0  0  0  0  0  0
  185.6870  179.2440  141.9210 C   0  0  0  0  0  3  0  0  0  0  0  0
  185.3130  178.5970  140.8300 C   0  0  0  0  0  0  0  0  0  0  0  0
  184.6260  179.0790  142.9000 C   0  0  0  0  0  0  0  0  0  0  0  0
  183.9650  177.9560  141.0140 C   0  0  2  0  0  3  0  0  0  0  0  0
  181.7190  177.2620  136.7560 N   0  0  0  0  0  0  0  0  0  0  0  0
  182.7630  176.2910  137.1150 C   0  0  0  0  0  2  0  0  0  0  0  0
  182.0470  179.4080  140.3640 C   0  0  0  0  0  3  0  0  0  0  0  0
  182.9450  178.4640  140.0290 C   0  0  0  0  0  0  0  0  0  0  0  0
  181.0140  179.9190  139.3840 C   0  0  0  0  0  2  0  0  0  0  0  0
  181.9530  178.3870  137.6560 C   0  0  2  0  0  3  0  0  0  0  0  0
  182.0170  177.7240  135.4090 C   0  0  0  0  0  1  0  0  0  0  0  0
  183.2790  176.6740  138.4180 N   0  0  0  0  0  2  0  0  0  0  0  0
  182.8410  177.8450  138.6980 C   0  0  2  0  0  3  0  0  0  0  0  0
  180.6640  178.8660  138.3210 C   0  0  0  0  0  2  0  0  0  0  0  0
  184.6210  179.6920  144.2560 C   0  0  0  0  0  2  0  0  0  0  0  0
  183.9500  178.7530  145.2450 C   0  0  0  0  0  2  0  0  0  0  0  0
  185.2870  179.5080  147.0650 O   0  0  0  0  0  1  0  0  0  0  0  0
  184.9210  178.3690  146.3480 C   0  0  2  0  0  3  0  0  0  0  0  0
  186.1400  177.7480  145.7600 C   0  0  0  0  0  3  0  0  0  0  0  0
  187.3270  177.9230  146.3240 C   0  0  0  0  0  3  0  0  0  0  0  0
  189.6660  177.0740  146.5200 C   0  0  0  0  0  0  0  0  0  0  0  0
  189.7310  177.4420  147.7260 O   0  0  0  0  0  0  0  0  0  0  0  0
  188.4820  177.3120  145.7570 N   0  0  0  0  0  2  0  0  0  0  0  0
  190.7500  176.4330  145.9120 O   0  0  0  0  0  0  0  0  0  0  0  0
  191.7510  177.1440  145.1900 C   0  0  0  0  0  2  0  0  0  0  0  0
  190.6600  175.8790  143.4850 O   0  0  0  0  0  0  0  0  0  0  0  0
  191.3040  178.0380  143.0200 O   0  0  0  0  0  0  0  0  0  0  0  0
  190.0950  176.2130  142.2560 C   0  0  0  0  0  2  0  0  0  0  0  0
  191.6370  176.8620  143.7030 C   0  0  0  0  0  3  0  0  0  0  0  0
  190.5760  177.5950  141.9210 C   0  0  0  0  0  2  0  0  0  0  0  0
  186.1600  178.5460  139.5950 C   0  0  0  0  0  2  0  0  0  0  0  0
  187.5800  178.0920  139.8970 C   0  0  0  0  0  2  0  0  0  0  0  0
  189.0490  180.0080  137.2950 O   0  0  0  0  0  1  0  0  0  0  0  0
  189.0550  178.6230  137.1350 C   0  0  2  0  0  3  0  0  0  0  0  0
  187.6680  178.0710  137.4190 C   0  0  2  0  0  3  0  0  0  0  0  0
  189.5670  177.9670  138.4040 C   0  0  0  0  0  2  0  0  0  0  0  0
  188.1830  177.4070  138.6830 C   0  0  1  0  0  3  0  0  0  0  0  0
  186.4680  175.6670  137.3070 O   0  0  0  0  0  1  0  0  0  0  0  0
  185.6460  177.4730  135.6740 O   0  0  0  0  0  1  0  0  0  0  0  0
  187.1610  176.7760  136.1640 P   0  0  0  0  0  0  0  0  0  0  0  0
  1  4  2  0  0  0  0
  2  4  1  0  0  0  0
  3  5  1  0  0  0  0
  3  2  2  0  0  0  0
  4 16  1  0  0  0  0
  5  9  1  6  0  0  0
  5  1  1  0  0  0  0
  6  7  1  0  0  0  0
  6 11  1  0  0  0  0
  7 13  1  0  0  0  0
  9  8  2  0  0  0  0
 10  8  1  0  0  0  0
 11 15  1  1  0  0  0
 11 14  1  0  0  0  0
 12  6  1  0  0  0  0
 14 13  1  1  0  0  0
 14  9  1  0  0  0  0
 15 10  1  0  0  0  0
 16 17  1  0  0  0  0
 17 19  1  0  0  0  0
 19 18  1  6  0  0  0
 20 21  2  0  0  0  0
 20 19  1  0  0  0  0
 22 23  2  0  0  0  0
 24 21  1  0  0  0  0
 24 22  1  0  0  0  0
 25 22  1  0  0  0  0
 26 25  1  0  0  0  0
 27 30  1  0  0  0  0
 28 30  1  0  0  0  0
 29 27  1  0  0  0  0
 30 26  1  0  0  0  0
 31 29  1  0  0  0  0
 31 28  1  0  0  0  0
 32 33  1  0  0  0  0
 32  3  1  0  0  0  0
 35 34  1  1  0  0  0
 35 36  1  0  0  0  0
 35 37  1  0  0  0  0
 36 41  1  6  0  0  0
 36 38  1  0  0  0  0
 37 38  1  0  0  0  0
 38 33  1  1  0  0  0
 40 41  1  0  0  0  0
 41 39  1  0  0  0  0
M  END
>  <MODEL>
1

>  <REMARK>
 VINA RESULT:      -7.7      0.000      0.000
  Name = 
  13 active torsions:
  status: ('A' for Active; 'I' for Inactive)
    1  A    between atoms: C_1  and  C_20
    2  A    between atoms: C_1  and  C_33
    3  A    between atoms: C_5  and  C_15
    4  A    between atoms: C_5  and  C_36
    5  A    between atoms: C_10  and  C_15
    6  A    between atoms: C_12  and  O_28
    7  A    between atoms: C_12  and  C_34
    8  A    between atoms: C_13  and  C_22
    9  A    between atoms: C_14  and  O_28
   10  A    between atoms: C_24  and  P_25
   11  A    between atoms: C_33  and  C_41
   12  A    between atoms: N_35  and  C_40
   13  A    between atoms: C_37  and  C_41
                            x       y       z     vdW  Elec       q    Type
                         _______ _______ _______ _____ _____    ______ ____

>  <TORSDO>
F 13

$$$$
=
 OpenBabel10232411583D

 41 45  0  0  1  0  0  0  0  0999 V2000
  185.5490  179.2430  145.1980 C   0  0  0  0  0  3  0  0  0  0  0  0
  185.1970  177.8940  143.3760 C   0  0  0  0  0  3  0  0  0  0  0  0
  186.5100  177.9560  143.5190 C   0  0  0  0  0  0  0  0  0  0  0  0
  184.6150  178.7120  144.4260 C   0  0  0  0  0  0  0  0  0  0  0  0
  186.8890  178.8260  144.6850 C   0  0  2  0  0  3  0  0  0  0  0  0
  191.2380  177.2050  146.1400 N   0  0  0  0  0  0  0  0  0  0  0  0
  191.1940  177.8960  144.8430 C   0  0  0  0  0  2  0  0  0  0  0  0
  187.1490  177.8070  146.9440 C   0  0  0  0  0  3  0  0  0  0  0  0
  187.6690  178.0770  145.7340 C   0  0  0  0  0  0  0  0  0  0  0  0
  187.9270  177.0620  148.0060 C   0  0  0  0  0  2  0  0  0  0  0  0
  189.8420  176.8810  146.4200 C   0  0  2  0  0  3  0  0  0  0  0  0
  191.9320  175.9440  145.9230 C   0  0  0  0  0  1  0  0  0  0  0  0
  189.8180  178.3070  144.6210 N   0  0  0  0  0  2  0  0  0  0  0  0
  189.0760  177.7230  145.4850 C   0  0  2  0  0  3  0  0  0  0  0  0
  189.4430  177.2560  147.8470 C   0  0  0  0  0  2  0  0  0  0  0  0
  183.1540  178.8790  144.6590 C   0  0  0  0  0  2  0  0  0  0  0  0
  182.4170  178.8870  143.3310 C   0  0  0  0  0  2  0  0  0  0  0  0
  180.2650  178.1190  144.0040 O   0  0  0  0  0  1  0  0  0  0  0  0
  180.9540  179.2410  143.5440 C   0  0  2  0  0  3  0  0  0  0  0  0
  180.3480  179.6940  142.2610 C   0  0  0  0  0  3  0  0  0  0  0  0
  180.6460  179.0860  141.1210 C   0  0  0  0  0  3  0  0  0  0  0  0
  180.8110  180.1340  138.8620 C   0  0  0  0  0  0  0  0  0  0  0  0
  182.0470  180.3430  139.0150 O   0  0  0  0  0  0  0  0  0  0  0  0
  180.0490  179.5230  139.9040 N   0  0  0  0  0  2  0  0  0  0  0  0
  180.1690  180.5030  137.6760 O   0  0  0  0  0  0  0  0  0  0  0  0
  180.8400  181.1940  136.6270 C   0  0  0  0  0  2  0  0  0  0  0  0
  181.1450  183.3470  137.6090 O   0  0  0  0  0  0  0  0  0  0  0  0
  180.7090  183.2130  135.3550 O   0  0  0  0  0  0  0  0  0  0  0  0
  181.3390  184.6230  137.0840 C   0  0  0  0  0  2  0  0  0  0  0  0
  180.4400  182.6580  136.6120 C   0  0  0  0  0  3  0  0  0  0  0  0
  180.9830  184.5490  135.6280 C   0  0  0  0  0  2  0  0  0  0  0  0
  187.4530  177.2290  142.6090 C   0  0  0  0  0  2  0  0  0  0  0  0
  188.0570  178.1510  141.5600 C   0  0  0  0  0  2  0  0  0  0  0  0
  191.5780  177.9690  141.1510 O   0  0  0  0  0  1  0  0  0  0  0  0
  190.8010  177.2690  140.2280 C   0  0  2  0  0  3  0  0  0  0  0  0
  189.6980  178.1710  139.7020 C   0  0  2  0  0  3  0  0  0  0  0  0
  189.7640  176.4410  140.9630 C   0  0  0  0  0  2  0  0  0  0  0  0
  188.6590  177.3370  140.4280 C   0  0  1  0  0  3  0  0  0  0  0  0
  187.9420  177.2100  137.9070 O   0  0  0  0  0  1  0  0  0  0  0  0
  188.8410  179.5860  137.5210 O   0  0  0  0  0  1  0  0  0  0  0  0
  189.4850  178.0050  137.8490 P   0  0  0  0  0  0  0  0  0  0  0  0
  2  3  2  0  0  0  0
  2  4  1  0  0  0  0
  3  5  1  0  0  0  0
  4 16  1  0  0  0  0
  4  1  2  0  0  0  0
  5  1  1  0  0  0  0
  5  9  1  1  0  0  0
  6 11  1  0  0  0  0
  7  6  1  0  0  0  0
  8 10  1  0  0  0  0
  9  8  2  0  0  0  0
 11 15  1  1  0  0  0
 12  6  1  0  0  0  0
 13  7  1  0  0  0  0
 14 13  1  1  0  0  0
 14  9  1  0  0  0  0
 14 11  1  0  0  0  0
 15 10  1  0  0  0  0
 17 19  1  0  0  0  0
 17 16  1  0  0  0  0
 19 18  1  6  0  0  0
 20 19  1  0  0  0  0
 21 20  2  0  0  0  0
 22 23  2  0  0  0  0
 22 24  1  0  0  0  0
 24 21  1  0  0  0  0
 25 22  1  0  0  0  0
 26 25  1  0  0  0  0
 28 31  1  0  0  0  0
 28 30  1  0  0  0  0
 29 27  1  0  0  0  0
 30 26  1  0  0  0  0
 30 27  1  0  0  0  0
 31 29  1  0  0  0  0
 32  3  1  0  0  0  0
 33 32  1  0  0  0  0
 35 37  1  0  0  0  0
 35 34  1  1  0  0  0
 36 41  1  6  0  0  0
 36 35  1  0  0  0  0
 36 38  1  0  0  0  0
 38 37  1  0  0  0  0
 38 33  1  1  0  0  0
 40 41  1  0  0  0  0
 41 39  1  0  0  0  0
M  END
>  <MODEL>
2

>  <REMARK>
 VINA RESULT:      -7.6      3.234      9.055
  Name = 
  13 active torsions:
  status: ('A' for Active; 'I' for Inactive)
    1  A    between atoms: C_1  and  C_20
    2  A    between atoms: C_1  and  C_33
    3  A    between atoms: C_5  and  C_15
    4  A    between atoms: C_5  and  C_36
    5  A    between atoms: C_10  and  C_15
    6  A    between atoms: C_12  and  O_28
    7  A    between atoms: C_12  and  C_34
    8  A    between atoms: C_13  and  C_22
    9  A    between atoms: C_14  and  O_28
   10  A    between atoms: C_24  and  P_25
   11  A    between atoms: C_33  and  C_41
   12  A    between atoms: N_35  and  C_40
   13  A    between atoms: C_37  and  C_41
                            x       y       z     vdW  Elec       q    Type
                         _______ _______ _______ _____ _____    ______ ____

>  <TORSDO>
F 13

$$$$
=
 OpenBabel10232411583D

 41 45  0  0  1  0  0  0  0  0999 V2000
  185.1120  179.4920  142.1060 C   0  0  0  0  0  3  0  0  0  0  0  0
  183.4340  178.0050  141.6190 C   0  0  0  0  0  3  0  0  0  0  0  0
  184.1470  178.1050  140.5110 C   0  0  0  0  0  0  0  0  0  0  0  0
  184.0450  178.8860  142.6000 C   0  0  0  0  0  0  0  0  0  0  0  0
  185.2900  179.0660  140.6850 C   0  0  2  0  0  3  0  0  0  0  0  0
  188.7580  177.8310  137.5050 N   0  0  0  0  0  0  0  0  0  0  0  0
  187.5590  178.4760  136.9530 C   0  0  0  0  0  2  0  0  0  0  0  0
  187.4570  178.1410  141.4980 C   0  0  0  0  0  3  0  0  0  0  0  0
  186.6310  178.4130  140.4720 C   0  0  0  0  0  0  0  0  0  0  0  0
  188.8080  177.4920  141.2930 C   0  0  0  0  0  2  0  0  0  0  0  0
  188.3530  177.4100  138.8430 C   0  0  2  0  0  3  0  0  0  0  0  0
  188.9840  176.6220  136.7290 C   0  0  0  0  0  1  0  0  0  0  0  0
  186.6760  178.7730  138.0680 N   0  0  0  0  0  2  0  0  0  0  0  0
  187.1130  178.1610  139.1040 C   0  0  2  0  0  3  0  0  0  0  0  0
  189.3850  177.7980  139.9020 C   0  0  0  0  0  2  0  0  0  0  0  0
  183.5820  179.0400  144.0070 C   0  0  0  0  0  2  0  0  0  0  0  0
  184.7590  179.3860  144.9030 C   0  0  0  0  0  2  0  0  0  0  0  0
  184.7230  178.5260  147.1240 O   0  0  0  0  0  1  0  0  0  0  0  0
  185.0880  178.2140  145.8140 C   0  0  2  0  0  3  0  0  0  0  0  0
  186.5480  177.9290  145.7680 C   0  0  0  0  0  3  0  0  0  0  0  0
  187.1920  177.5220  146.8540 C   0  0  0  0  0  3  0  0  0  0  0  0
  189.4850  177.6210  147.8340 C   0  0  0  0  0  0  0  0  0  0  0  0
  189.0620  178.2640  148.8360 O   0  0  0  0  0  0  0  0  0  0  0  0
  188.5870  177.2400  146.7910 N   0  0  0  0  0  2  0  0  0  0  0  0
  190.8370  177.2770  147.7280 O   0  0  0  0  0  0  0  0  0  0  0  0
  191.2760  176.1120  147.0380 C   0  0  0  0  0  2  0  0  0  0  0  0
  191.5460  175.6140  144.7200 O   0  0  0  0  0  0  0  0  0  0  0  0
  191.6380  177.8100  145.3960 O   0  0  0  0  0  0  0  0  0  0  0  0
  191.5430  176.3920  143.5640 C   0  0  0  0  0  2  0  0  0  0  0  0
  191.9570  176.4890  145.7350 C   0  0  0  0  0  3  0  0  0  0  0  0
  191.6780  177.8200  144.0060 C   0  0  0  0  0  2  0  0  0  0  0  0
  183.8170  177.3330  139.2700 C   0  0  0  0  0  2  0  0  0  0  0  0
  182.4180  176.7380  139.3240 C   0  0  0  0  0  2  0  0  0  0  0  0
  182.1730  177.4530  135.8560 O   0  0  0  0  0  1  0  0  0  0  0  0
  181.3010  178.1370  136.7010 C   0  0  2  0  0  3  0  0  0  0  0  0
  182.0760  178.7180  137.8720 C   0  0  2  0  0  3  0  0  0  0  0  0
  180.6310  177.1540  137.6430 C   0  0  0  0  0  2  0  0  0  0  0  0
  181.3990  177.7410  138.8150 C   0  0  1  0  0  3  0  0  0  0  0  0
  180.9310  180.1350  139.8490 O   0  0  0  0  0  1  0  0  0  0  0  0
  183.0760  181.0890  138.8040 O   0  0  0  0  0  1  0  0  0  0  0  0
  181.5450  180.4710  138.2600 P   0  0  0  0  0  0  0  0  0  0  0  0
  1  4  2  0  0  0  0
  2  4  1  0  0  0  0
  3  5  1  0  0  0  0
  3  2  2  0  0  0  0
  4 16  1  0  0  0  0
  5  9  1  1  0  0  0
  5  1  1  0  0  0  0
  6 11  1  0  0  0  0
  7  6  1  0  0  0  0
  7 13  1  0  0  0  0
  9  8  2  0  0  0  0
 10  8  1  0  0  0  0
 11 14  1  0  0  0  0
 11 15  1  1  0  0  0
 12  6  1  0  0  0  0
 14 13  1  1  0  0  0
 14  9  1  0  0  0  0
 15 10  1  0  0  0  0
 16 17  1  0  0  0  0
 17 19  1  0  0  0  0
 19 18  1  1  0  0  0
 20 19  1  0  0  0  0
 20 21  2  0  0  0  0
 22 23  2  0  0  0  0
 24 21  1  0  0  0  0
 24 22  1  0  0  0  0
 25 22  1  0  0  0  0
 26 25  1  0  0  0  0
 27 30  1  0  0  0  0
 28 30  1  0  0  0  0
 29 31  1  0  0  0  0
 29 27  1  0  0  0  0
 30 26  1  0  0  0  0
 31 28  1  0  0  0  0
 32 33  1  0  0  0  0
 32  3  1  0  0  0  0
 35 34  1  6  0  0  0
 35 37  1  0  0  0  0
 35 36  1  0  0  0  0
 36 41  1  1  0  0  0
 36 38  1  0  0  0  0
 37 38  1  0  0  0  0
 38 33  1  6  0  0  0
 41 40  1  0  0  0  0
 41 39  1  0  0  0  0
M  END
>  <MODEL>
3

>  <REMARK>
 VINA RESULT:      -7.6      2.397      4.706
  Name = 
  13 active torsions:
  status: ('A' for Active; 'I' for Inactive)
    1  A    between atoms: C_1  and  C_20
    2  A    between atoms: C_1  and  C_33
    3  A    between atoms: C_5  and  C_15
    4  A    between atoms: C_5  and  C_36
    5  A    between atoms: C_10  and  C_15
    6  A    between atoms: C_12  and  O_28
    7  A    between atoms: C_12  and  C_34
    8  A    between atoms: C_13  and  C_22
    9  A    between atoms: C_14  and  O_28
   10  A    between atoms: C_24  and  P_25
   11  A    between atoms: C_33  and  C_41
   12  A    between atoms: N_35  and  C_40
   13  A    between atoms: C_37  and  C_41
                            x       y       z     vdW  Elec       q    Type
                         _______ _______ _______ _____ _____    ______ ____

>  <TORSDO>
F 13

$$$$
=
 OpenBabel10232411583D

 41 45  0  0  1  0  0  0  0  0999 V2000
  185.7170  179.4190  145.4410 C   0  0  0  0  0  3  0  0  0  0  0  0
  185.2210  177.8480  143.8440 C   0  0  0  0  0  3  0  0  0  0  0  0
  186.5350  177.8030  143.9860 C   0  0  0  0  0  0  0  0  0  0  0  0
  184.7290  178.8700  144.7530 C   0  0  0  0  0  0  0  0  0  0  0  0
  187.0060  178.8010  145.0070 C   0  0  2  0  0  3  0  0  0  0  0  0
  191.2390  177.2330  146.8200 N   0  0  0  0  0  0  0  0  0  0  0  0
  191.2700  177.7820  145.4570 C   0  0  0  0  0  2  0  0  0  0  0  0
  187.1390  178.0230  147.3710 C   0  0  0  0  0  3  0  0  0  0  0  0
  187.7180  178.1490  146.1640 C   0  0  0  0  0  0  0  0  0  0  0  0
  187.8490  177.3770  148.5400 C   0  0  0  0  0  2  0  0  0  0  0  0
  189.8230  176.9780  147.0710 C   0  0  2  0  0  3  0  0  0  0  0  0
  191.9020  175.9390  146.7710 C   0  0  0  0  0  1  0  0  0  0  0  0
  189.9180  178.2030  145.1310 N   0  0  0  0  0  2  0  0  0  0  0  0
  189.1230  177.7340  146.0180 C   0  0  2  0  0  3  0  0  0  0  0  0
  189.3760  177.5140  148.4300 C   0  0  0  0  0  2  0  0  0  0  0  0
  183.2940  179.2120  144.9480 C   0  0  0  0  0  2  0  0  0  0  0  0
  182.4290  178.3420  144.0510 C   0  0  0  0  0  2  0  0  0  0  0  0
  180.2650  179.0480  143.3490 O   0  0  0  0  0  1  0  0  0  0  0  0
  181.6270  179.2090  143.0930 C   0  0  2  0  0  3  0  0  0  0  0  0
  181.9120  178.8100  141.6870 C   0  0  0  0  0  3  0  0  0  0  0  0
  183.1270  178.4200  141.3290 C   0  0  0  0  0  3  0  0  0  0  0  0
  184.4500  178.5900  139.2180 C   0  0  0  0  0  0  0  0  0  0  0  0
  185.1820  179.4920  139.7150 O   0  0  0  0  0  0  0  0  0  0  0  0
  183.3820  178.0290  139.9820 N   0  0  0  0  0  2  0  0  0  0  0  0
  184.6690  178.1320  137.9160 O   0  0  0  0  0  0  0  0  0  0  0  0
  185.9720  177.8550  137.4120 C   0  0  0  0  0  2  0  0  0  0  0  0
  187.1560  175.8100  137.0800 O   0  0  0  0  0  0  0  0  0  0  0  0
  184.8560  175.7720  137.0560 O   0  0  0  0  0  0  0  0  0  0  0  0
  186.7740  174.4700  137.0750 C   0  0  0  0  0  2  0  0  0  0  0  0
  185.9970  176.5090  136.7120 C   0  0  0  0  0  3  0  0  0  0  0  0
  185.2760  174.4480  136.9850 C   0  0  0  0  0  2  0  0  0  0  0  0
  187.3960  176.8580  143.2040 C   0  0  0  0  0  2  0  0  0  0  0  0
  188.2050  177.5750  142.1350 C   0  0  0  0  0  2  0  0  0  0  0  0
  191.7290  177.9900  142.2180 O   0  0  0  0  0  1  0  0  0  0  0  0
  191.2420  176.9000  141.4970 C   0  0  2  0  0  3  0  0  0  0  0  0
  190.1210  177.3570  140.5770 C   0  0  2  0  0  3  0  0  0  0  0  0
  190.2310  176.1450  142.3400 C   0  0  0  0  0  2  0  0  0  0  0  0
  189.1120  176.5940  141.4140 C   0  0  1  0  0  3  0  0  0  0  0  0
  189.7460  178.0010  137.9940 O   0  0  0  0  0  1  0  0  0  0  0  0
  191.9620  176.8560  138.6140 O   0  0  0  0  0  1  0  0  0  0  0  0
  190.2630  176.5950  138.8730 P   0  0  0  0  0  0  0  0  0  0  0  0
  2  3  2  0  0  0  0
  2  4  1  0  0  0  0
  3  5  1  0  0  0  0
  4 16  1  0  0  0  0
  4  1  2  0  0  0  0
  5  1  1  0  0  0  0
  5  9  1  1  0  0  0
  6 11  1  0  0  0  0
  7  6  1  0  0  0  0
  8 10  1  0  0  0  0
  9  8  2  0  0  0  0
 11 15  1  1  0  0  0
 12  6  1  0  0  0  0
 13  7  1  0  0  0  0
 14 13  1  1  0  0  0
 14  9  1  0  0  0  0
 14 11  1  0  0  0  0
 15 10  1  0  0  0  0
 17 16  1  0  0  0  0
 19 18  1  1  0  0  0
 19 17  1  0  0  0  0
 20 19  1  0  0  0  0
 21 20  2  0  0  0  0
 22 23  2  0  0  0  0
 22 24  1  0  0  0  0
 24 21  1  0  0  0  0
 25 22  1  0  0  0  0
 26 25  1  0  0  0  0
 29 27  1  0  0  0  0
 30 28  1  0  0  0  0
 30 27  1  0  0  0  0
 30 26  1  0  0  0  0
 31 28  1  0  0  0  0
 31 29  1  0  0  0  0
 32  3  1  0  0  0  0
 33 32  1  0  0  0  0
 35 34  1  1  0  0  0
 35 37  1  0  0  0  0
 36 41  1  6  0  0  0
 36 38  1  0  0  0  0
 36 35  1  0  0  0  0
 38 33  1  1  0  0  0
 38 37  1  0  0  0  0
 39 41  1  0  0  0  0
 40 41  1  0  0  0  0
M  END
>  <MODEL>
4

>  <REMARK>
 VINA RESULT:      -7.6      2.588      7.852
  Name = 
  13 active torsions:
  status: ('A' for Active; 'I' for Inactive)
    1  A    between atoms: C_1  and  C_20
    2  A    between atoms: C_1  and  C_33
    3  A    between atoms: C_5  and  C_15
    4  A    between atoms: C_5  and  C_36
    5  A    between atoms: C_10  and  C_15
    6  A    between atoms: C_12  and  O_28
    7  A    between atoms: C_12  and  C_34
    8  A    between atoms: C_13  and  C_22
    9  A    between atoms: C_14  and  O_28
   10  A    between atoms: C_24  and  P_25
   11  A    between atoms: C_33  and  C_41
   12  A    between atoms: N_35  and  C_40
   13  A    between atoms: C_37  and  C_41
                            x       y       z     vdW  Elec       q    Type
                         _______ _______ _______ _____ _____    ______ ____

>  <TORSDO>
F 13

$$$$
=
 OpenBabel10232411583D

 41 45  0  0  1  0  0  0  0  0999 V2000
  190.1480  176.8170  140.5540 C   0  0  0  0  0  3  0  0  0  0  0  0
  192.3630  177.2410  140.1330 C   0  0  0  0  0  3  0  0  0  0  0  0
  191.8910  176.7020  139.0220 C   0  0  0  0  0  0  0  0  0  0  0  0
  191.2630  177.2950  141.0810 C   0  0  0  0  0  0  0  0  0  0  0  0
  190.4330  176.3600  139.1610 C   0  0  2  0  0  3  0  0  0  0  0  0
  186.9450  176.0190  135.7870 N   0  0  0  0  0  0  0  0  0  0  0  0
  187.3880  174.7610  136.4050 C   0  0  0  0  0  2  0  0  0  0  0  0
  189.4510  178.4240  138.1680 C   0  0  0  0  0  3  0  0  0  0  0  0
  189.5730  177.0850  138.1580 C   0  0  0  0  0  0  0  0  0  0  0  0
  188.5840  179.1600  137.1710 C   0  0  0  0  0  2  0  0  0  0  0  0
  187.9960  176.9740  136.1270 C   0  0  2  0  0  3  0  0  0  0  0  0
  186.9970  175.8240  134.3470 C   0  0  0  0  0  1  0  0  0  0  0  0
  188.4070  175.0970  137.3850 N   0  0  0  0  0  2  0  0  0  0  0  0
  188.7510  176.3170  137.2080 C   0  0  2  0  0  3  0  0  0  0  0  0
  187.4260  178.2860  136.6640 C   0  0  0  0  0  2  0  0  0  0  0  0
  191.3490  177.8800  142.4480 C   0  0  0  0  0  2  0  0  0  0  0  0
  191.7130  176.7980  143.4500 C   0  0  0  0  0  2  0  0  0  0  0  0
  191.8120  176.2930  145.7760 O   0  0  0  0  0  1  0  0  0  0  0  0
  191.5600  177.3220  144.8690 C   0  0  2  0  0  3  0  0  0  0  0  0
  190.1760  177.8300  145.0770 C   0  0  0  0  0  3  0  0  0  0  0  0
  189.2880  177.1130  145.7510 C   0  0  0  0  0  3  0  0  0  0  0  0
  187.4430  177.8570  147.2590 C   0  0  0  0  0  0  0  0  0  0  0  0
  188.1300  177.5840  148.2840 O   0  0  0  0  0  0  0  0  0  0  0  0
  187.9710  177.6180  145.9540 N   0  0  0  0  0  2  0  0  0  0  0  0
  186.1570  178.3920  147.3860 O   0  0  0  0  0  0  0  0  0  0  0  0
  185.6130  179.3060  146.4400 C   0  0  0  0  0  2  0  0  0  0  0  0
  183.4040  178.9480  145.6140 O   0  0  0  0  0  0  0  0  0  0  0  0
  185.1610  178.8830  144.1320 O   0  0  0  0  0  0  0  0  0  0  0  0
  182.8520  178.9060  144.3350 C   0  0  0  0  0  2  0  0  0  0  0  0
  184.7430  178.5760  145.4330 C   0  0  0  0  0  3  0  0  0  0  0  0
  183.9990  178.7890  143.3740 C   0  0  0  0  0  2  0  0  0  0  0  0
  192.7430  176.4840  137.8090 C   0  0  0  0  0  2  0  0  0  0  0  0
  192.5190  175.1110  137.1930 C   0  0  0  0  0  2  0  0  0  0  0  0
  195.2300  172.8310  137.4100 O   0  0  0  0  0  1  0  0  0  0  0  0
  195.0780  173.5140  136.2030 C   0  0  2  0  0  3  0  0  0  0  0  0
  194.8890  174.9970  136.4770 C   0  0  2  0  0  3  0  0  0  0  0  0
  193.6350  173.4220  135.7460 C   0  0  0  0  0  2  0  0  0  0  0  0
  193.4480  174.9070  136.0100 C   0  0  1  0  0  3  0  0  0  0  0  0
  195.2540  177.5820  135.8360 O   0  0  0  0  0  1  0  0  0  0  0  0
  197.3560  176.1560  136.2280 O   0  0  0  0  0  1  0  0  0  0  0  0
  195.8890  176.0570  135.3010 P   0  0  0  0  0  0  0  0  0  0  0  0
  1  4  2  0  0  0  0
  2  4  1  0  0  0  0
  3  5  1  0  0  0  0
  3  2  2  0  0  0  0
  4 16  1  0  0  0  0
  5  9  1  6  0  0  0
  5  1  1  0  0  0  0
  6 11  1  0  0  0  0
  6  7  1  0  0  0  0
  7 13  1  0  0  0  0
  9  8  2  0  0  0  0
 10  8  1  0  0  0  0
 11 15  1  1  0  0  0
 11 14  1  0  0  0  0
 12  6  1  0  0  0  0
 14 13  1  1  0  0  0
 14  9  1  0  0  0  0
 15 10  1  0  0  0  0
 16 17  1  0  0  0  0
 17 19  1  0  0  0  0
 19 20  1  0  0  0  0
 19 18  1  1  0  0  0
 20 21  2  0  0  0  0
 21 24  1  0  0  0  0
 22 25  1  0  0  0  0
 22 23  2  0  0  0  0
 24 22  1  0  0  0  0
 26 25  1  0  0  0  0
 28 30  1  0  0  0  0
 29 27  1  0  0  0  0
 30 27  1  0  0  0  0
 30 26  1  0  0  0  0
 31 28  1  0  0  0  0
 31 29  1  0  0  0  0
 32  3  1  0  0  0  0
 33 32  1  0  0  0  0
 35 36  1  0  0  0  0
 35 34  1  1  0  0  0
 36 41  1  6  0  0  0
 37 38  1  0  0  0  0
 37 35  1  0  0  0  0
 38 36  1  0  0  0  0
 38 33  1  1  0  0  0
 41 39  1  0  0  0  0
 41 40  1  0  0  0  0
M  END
>  <MODEL>
5

>  <REMARK>
 VINA RESULT:      -7.5      3.882      6.895
  Name = 
  13 active torsions:
  status: ('A' for Active; 'I' for Inactive)
    1  A    between atoms: C_1  and  C_20
    2  A    between atoms: C_1  and  C_33
    3  A    between atoms: C_5  and  C_15
    4  A    between atoms: C_5  and  C_36
    5  A    between atoms: C_10  and  C_15
    6  A    between atoms: C_12  and  O_28
    7  A    between atoms: C_12  and  C_34
    8  A    between atoms: C_13  and  C_22
    9  A    between atoms: C_14  and  O_28
   10  A    between atoms: C_24  and  P_25
   11  A    between atoms: C_33  and  C_41
   12  A    between atoms: N_35  and  C_40
   13  A    between atoms: C_37  and  C_41
                            x       y       z     vdW  Elec       q    Type
                         _______ _______ _______ _____ _____    ______ ____

>  <TORSDO>
F 13

$$$$
=
 OpenBabel10232411583D

 41 45  0  0  1  0  0  0  0  0999 V2000
  185.2250  179.5310  142.0970 C   0  0  0  0  0  3  0  0  0  0  0  0
  183.5400  178.0520  141.6080 C   0  0  0  0  0  3  0  0  0  0  0  0
  184.3300  178.0500  140.5470 C   0  0  0  0  0  0  0  0  0  0  0  0
  184.1100  178.9900  142.5610 C   0  0  0  0  0  0  0  0  0  0  0  0
  185.4860  178.9940  140.7280 C   0  0  2  0  0  3  0  0  0  0  0  0
  189.2680  177.7110  137.9510 N   0  0  0  0  0  0  0  0  0  0  0  0
  188.1690  178.4180  137.2790 C   0  0  0  0  0  2  0  0  0  0  0  0
  187.5030  177.9610  141.7660 C   0  0  0  0  0  3  0  0  0  0  0  0
  186.8180  178.2940  140.6570 C   0  0  0  0  0  0  0  0  0  0  0  0
  188.8440  177.2650  141.7040 C   0  0  0  0  0  2  0  0  0  0  0  0
  188.6890  177.2690  139.2160 C   0  0  2  0  0  3  0  0  0  0  0  0
  189.5430  176.5160  137.1690 C   0  0  0  0  0  1  0  0  0  0  0  0
  187.1680  178.7190  138.2890 N   0  0  0  0  0  2  0  0  0  0  0  0
  187.4540  178.0610  139.3500 C   0  0  2  0  0  3  0  0  0  0  0  0
  189.5970  177.5860  140.4040 C   0  0  0  0  0  2  0  0  0  0  0  0
  183.5590  179.2610  143.9170 C   0  0  0  0  0  2  0  0  0  0  0  0
  184.6900  179.5690  144.8830 C   0  0  0  0  0  2  0  0  0  0  0  0
  184.5890  178.4870  147.0020 O   0  0  0  0  0  1  0  0  0  0  0  0
  185.0410  178.3310  145.6920 C   0  0  2  0  0  3  0  0  0  0  0  0
  186.5170  178.1340  145.7050 C   0  0  0  0  0  3  0  0  0  0  0  0
  187.1110  177.5430  146.7320 C   0  0  0  0  0  3  0  0  0  0  0  0
  189.3330  177.6300  147.8660 C   0  0  0  0  0  0  0  0  0  0  0  0
  188.8130  178.1040  148.9160 O   0  0  0  0  0  0  0  0  0  0  0  0
  188.5230  177.3490  146.7240 N   0  0  0  0  0  2  0  0  0  0  0  0
  190.7070  177.3790  147.8040 O   0  0  0  0  0  0  0  0  0  0  0  0
  191.2420  176.1950  147.2220 C   0  0  0  0  0  2  0  0  0  0  0  0
  191.6250  175.5440  144.9580 O   0  0  0  0  0  0  0  0  0  0  0  0
  191.5660  177.7860  145.4680 O   0  0  0  0  0  0  0  0  0  0  0  0
  191.6200  176.2340  143.7470 C   0  0  0  0  0  2  0  0  0  0  0  0
  191.9470  176.5150  145.9170 C   0  0  0  0  0  3  0  0  0  0  0  0
  191.6570  177.6960  144.0830 C   0  0  0  0  0  2  0  0  0  0  0  0
  184.0600  177.1950  139.3470 C   0  0  0  0  0  2  0  0  0  0  0  0
  183.8200  178.0260  138.0960 C   0  0  0  0  0  2  0  0  0  0  0  0
  181.1950  175.8910  137.0250 O   0  0  0  0  0  1  0  0  0  0  0  0
  182.3590  175.8900  136.2570 C   0  0  2  0  0  3  0  0  0  0  0  0
  183.5690  175.7430  137.1640 C   0  0  2  0  0  3  0  0  0  0  0  0
  182.7690  177.3190  135.9540 C   0  0  0  0  0  2  0  0  0  0  0  0
  183.9840  177.1690  136.8540 C   0  0  1  0  0  3  0  0  0  0  0  0
  186.2300  175.3970  137.0030 O   0  0  0  0  0  1  0  0  0  0  0  0
  184.8250  173.3900  137.7780 O   0  0  0  0  0  1  0  0  0  0  0  0
  184.8200  174.5350  136.4700 P   0  0  0  0  0  0  0  0  0  0  0  0
  1  4  2  0  0  0  0
  2  4  1  0  0  0  0
  3  5  1  0  0  0  0
  3  2  2  0  0  0  0
  4 16  1  0  0  0  0
  5  9  1  1  0  0  0
  5  1  1  0  0  0  0
  6 11  1  0  0  0  0
  7  6  1  0  0  0  0
  7 13  1  0  0  0  0
  9  8  2  0  0  0  0
 10  8  1  0  0  0  0
 11 14  1  0  0  0  0
 11 15  1  1  0  0  0
 12  6  1  0  0  0  0
 14 13  1  1  0  0  0
 14  9  1  0  0  0  0
 15 10  1  0  0  0  0
 16 17  1  0  0  0  0
 17 19  1  0  0  0  0
 19 20  1  0  0  0  0
 19 18  1  1  0  0  0
 20 21  2  0  0  0  0
 22 23  2  0  0  0  0
 24 21  1  0  0  0  0
 24 22  1  0  0  0  0
 25 22  1  0  0  0  0
 26 25  1  0  0  0  0
 27 30  1  0  0  0  0
 28 30  1  0  0  0  0
 29 31  1  0  0  0  0
 29 27  1  0  0  0  0
 30 26  1  0  0  0  0
 31 28  1  0  0  0  0
 32  3  1  0  0  0  0
 33 32  1  0  0  0  0
 35 34  1  1  0  0  0
 35 36  1  0  0  0  0
 36 41  1  6  0  0  0
 37 35  1  0  0  0  0
 37 38  1  0  0  0  0
 38 36  1  0  0  0  0
 38 33  1  1  0  0  0
 41 39  1  0  0  0  0
 41 40  1  0  0  0  0
M  END
>  <MODEL>
6

>  <REMARK>
 VINA RESULT:      -7.5      2.062      4.411
  Name = 
  13 active torsions:
  status: ('A' for Active; 'I' for Inactive)
    1  A    between atoms: C_1  and  C_20
    2  A    between atoms: C_1  and  C_33
    3  A    between atoms: C_5  and  C_15
    4  A    between atoms: C_5  and  C_36
    5  A    between atoms: C_10  and  C_15
    6  A    between atoms: C_12  and  O_28
    7  A    between atoms: C_12  and  C_34
    8  A    between atoms: C_13  and  C_22
    9  A    between atoms: C_14  and  O_28
   10  A    between atoms: C_24  and  P_25
   11  A    between atoms: C_33  and  C_41
   12  A    between atoms: N_35  and  C_40
   13  A    between atoms: C_37  and  C_41
                            x       y       z     vdW  Elec       q    Type
                         _______ _______ _______ _____ _____    ______ ____

>  <TORSDO>
F 13

$$$$
=
 OpenBabel10232411583D

 41 45  0  0  1  0  0  0  0  0999 V2000
  188.6160  176.6940  142.8050 C   0  0  0  0  0  3  0  0  0  0  0  0
  187.2160  178.3790  142.1250 C   0  0  0  0  0  3  0  0  0  0  0  0
  186.6730  177.8950  143.2290 C   0  0  0  0  0  0  0  0  0  0  0  0
  188.4220  177.6100  141.8700 C   0  0  0  0  0  0  0  0  0  0  0  0
  187.4910  176.7630  143.7850 C   0  0  2  0  0  3  0  0  0  0  0  0
  191.3440  177.0670  146.7390 N   0  0  0  0  0  0  0  0  0  0  0  0
  191.6070  176.6450  145.3560 C   0  0  0  0  0  2  0  0  0  0  0  0
  187.2220  177.6480  146.1000 C   0  0  0  0  0  3  0  0  0  0  0  0
  187.9930  177.0440  145.1770 C   0  0  0  0  0  0  0  0  0  0  0  0
  187.7210  177.9410  147.4970 C   0  0  0  0  0  2  0  0  0  0  0  0
  189.9030  176.8960  146.8970 C   0  0  2  0  0  3  0  0  0  0  0  0
  191.9860  176.0930  147.6080 C   0  0  0  0  0  1  0  0  0  0  0  0
  190.3340  176.6430  144.6560 N   0  0  0  0  0  2  0  0  0  0  0  0
  189.3970  176.7610  145.5200 C   0  0  2  0  0  3  0  0  0  0  0  0
  189.2460  178.1190  147.5360 C   0  0  0  0  0  2  0  0  0  0  0  0
  189.3660  177.8590  140.7470 C   0  0  0  0  0  2  0  0  0  0  0  0
  188.6120  178.4250  139.5550 C   0  0  0  0  0  2  0  0  0  0  0  0
  188.0050  177.2630  137.5660 O   0  0  0  0  0  1  0  0  0  0  0  0
  189.0960  177.7730  138.2700 C   0  0  2  0  0  3  0  0  0  0  0  0
  190.0370  176.6630  138.5850 C   0  0  0  0  0  3  0  0  0  0  0  0
  191.0850  176.4250  137.8080 C   0  0  0  0  0  3  0  0  0  0  0  0
  193.3500  175.3810  137.7140 C   0  0  0  0  0  0  0  0  0  0  0  0
  193.7910  176.3290  137.0040 O   0  0  0  0  0  0  0  0  0  0  0  0
  191.9840  175.3670  138.1300 N   0  0  0  0  0  2  0  0  0  0  0  0
  194.1900  174.3310  138.0980 O   0  0  0  0  0  0  0  0  0  0  0  0
  195.4570  174.5500  138.7090 C   0  0  0  0  0  2  0  0  0  0  0  0
  196.0580  173.5450  136.6300 O   0  0  0  0  0  0  0  0  0  0  0  0
  197.2120  175.4070  137.3320 O   0  0  0  0  0  0  0  0  0  0  0  0
  196.8560  173.9530  135.5620 C   0  0  0  0  0  2  0  0  0  0  0  0
  196.5790  174.2260  137.7390 C   0  0  0  0  0  3  0  0  0  0  0  0
  197.6610  175.1220  136.0470 C   0  0  0  0  0  2  0  0  0  0  0  0
  185.4050  178.4440  143.8090 C   0  0  0  0  0  2  0  0  0  0  0  0
  184.5770  179.1850  142.7700 C   0  0  0  0  0  2  0  0  0  0  0  0
  183.1270  179.4250  139.5390 O   0  0  0  0  0  1  0  0  0  0  0  0
  182.4950  178.5800  140.4500 C   0  0  2  0  0  3  0  0  0  0  0  0
  182.3100  179.3030  141.7740 C   0  0  2  0  0  3  0  0  0  0  0  0
  183.5230  177.6720  141.0980 C   0  0  0  0  0  2  0  0  0  0  0  0
  183.3310  178.3890  142.4250 C   0  0  1  0  0  3  0  0  0  0  0  0
  181.1610  178.5540  144.0860 O   0  0  0  0  0  1  0  0  0  0  0  0
  180.2190  180.6430  142.9240 O   0  0  0  0  0  1  0  0  0  0  0  0
  180.6110  179.0030  142.5010 P   0  0  0  0  0  0  0  0  0  0  0  0
  1  5  1  0  0  0  0
  2  3  2  0  0  0  0
  3  5  1  0  0  0  0
  3 32  1  0  0  0  0
  4  2  1  0  0  0  0
  4  1  2  0  0  0  0
  5  9  1  1  0  0  0
  6 11  1  0  0  0  0
  6 12  1  0  0  0  0
  7  6  1  0  0  0  0
  8 10  1  0  0  0  0
  9 14  1  0  0  0  0
  9  8  2  0  0  0  0
 10 15  1  0  0  0  0
 11 15  1  6  0  0  0
 13  7  1  0  0  0  0
 14 13  1  6  0  0  0
 14 11  1  0  0  0  0
 16  4  1  0  0  0  0
 17 16  1  0  0  0  0
 19 18  1  1  0  0  0
 19 20  1  0  0  0  0
 19 17  1  0  0  0  0
 21 24  1  0  0  0  0
 21 20  2  0  0  0  0
 22 25  1  0  0  0  0
 22 24  1  0  0  0  0
 23 22  2  0  0  0  0
 25 26  1  0  0  0  0
 27 30  1  0  0  0  0
 28 30  1  0  0  0  0
 29 31  1  0  0  0  0
 29 27  1  0  0  0  0
 30 26  1  0  0  0  0
 31 28  1  0  0  0  0
 33 32  1  0  0  0  0
 35 34  1  6  0  0  0
 35 37  1  0  0  0  0
 35 36  1  0  0  0  0
 36 38  1  0  0  0  0
 36 41  1  1  0  0  0
 37 38  1  0  0  0  0
 38 33  1  6  0  0  0
 41 40  1  0  0  0  0
 41 39  1  0  0  0  0
M  END
>  <MODEL>
7

>  <REMARK>
 VINA RESULT:      -7.5      4.557      8.833
  Name = 
  13 active torsions:
  status: ('A' for Active; 'I' for Inactive)
    1  A    between atoms: C_1  and  C_20
    2  A    between atoms: C_1  and  C_33
    3  A    between atoms: C_5  and  C_15
    4  A    between atoms: C_5  and  C_36
    5  A    between atoms: C_10  and  C_15
    6  A    between atoms: C_12  and  O_28
    7  A    between atoms: C_12  and  C_34
    8  A    between atoms: C_13  and  C_22
    9  A    between atoms: C_14  and  O_28
   10  A    between atoms: C_24  and  P_25
   11  A    between atoms: C_33  and  C_41
   12  A    between atoms: N_35  and  C_40
   13  A    between atoms: C_37  and  C_41
                            x       y       z     vdW  Elec       q    Type
                         _______ _______ _______ _____ _____    ______ ____

>  <TORSDO>
F 13

$$$$
=
 OpenBabel10232411583D

 41 45  0  0  1  0  0  0  0  0999 V2000
  190.0910  176.1320  142.6720 C   0  0  0  0  0  3  0  0  0  0  0  0
  192.0990  177.1460  142.2190 C   0  0  0  0  0  3  0  0  0  0  0  0
  191.4780  177.0590  141.0550 C   0  0  0  0  0  0  0  0  0  0  0  0
  191.2210  176.5520  143.2150 C   0  0  0  0  0  0  0  0  0  0  0  0
  190.1360  176.3970  141.2020 C   0  0  2  0  0  3  0  0  0  0  0  0
  187.0490  177.6320  137.6520 N   0  0  0  0  0  0  0  0  0  0  0  0
  188.0370  176.5920  137.3320 C   0  0  0  0  0  2  0  0  0  0  0  0
  188.2870  178.0060  141.6590 C   0  0  0  0  0  3  0  0  0  0  0  0
  189.0020  177.2910  140.7720 C   0  0  0  0  0  0  0  0  0  0  0  0
  187.1430  178.8990  141.2360 C   0  0  0  0  0  2  0  0  0  0  0  0
  187.5670  178.2560  138.8660 C   0  0  2  0  0  3  0  0  0  0  0  0
  187.1260  178.6290  136.5950 C   0  0  0  0  0  1  0  0  0  0  0  0
  188.8320  176.3700  138.5280 N   0  0  0  0  0  2  0  0  0  0  0  0
  188.5790  177.3090  139.3610 C   0  0  2  0  0  3  0  0  0  0  0  0
  186.4870  178.4130  139.9350 C   0  0  0  0  0  2  0  0  0  0  0  0
  191.5160  176.4860  144.6720 C   0  0  0  0  0  2  0  0  0  0  0  0
  191.0150  177.7460  145.3580 C   0  0  0  0  0  2  0  0  0  0  0  0
  190.4550  176.1610  147.0450 O   0  0  0  0  0  1  0  0  0  0  0  0
  190.0760  177.3860  146.4980 C   0  0  2  0  0  3  0  0  0  0  0  0
  188.6790  177.2850  145.9940 C   0  0  0  0  0  3  0  0  0  0  0  0
  187.8610  178.3280  146.0560 C   0  0  0  0  0  3  0  0  0  0  0  0
  185.4290  178.8720  146.1900 C   0  0  0  0  0  0  0  0  0  0  0  0
  185.6050  179.5380  147.2490 O   0  0  0  0  0  0  0  0  0  0  0  0
  186.5310  178.2200  145.5570 N   0  0  0  0  0  2  0  0  0  0  0  0
  184.1550  178.7580  145.6240 O   0  0  0  0  0  0  0  0  0  0  0  0
  183.7500  179.5210  144.4930 C   0  0  0  0  0  2  0  0  0  0  0  0
  181.7860  179.1080  143.2020 O   0  0  0  0  0  0  0  0  0  0  0  0
  183.8360  178.6110  142.2850 O   0  0  0  0  0  0  0  0  0  0  0  0
  181.5660  178.8080  141.8590 C   0  0  0  0  0  2  0  0  0  0  0  0
  183.0790  178.6320  143.4630 C   0  0  0  0  0  3  0  0  0  0  0  0
  182.8940  178.4130  141.2820 C   0  0  0  0  0  2  0  0  0  0  0  0
  192.0800  177.5740  139.7830 C   0  0  0  0  0  2  0  0  0  0  0  0
  192.0840  176.5200  138.6870 C   0  0  0  0  0  2  0  0  0  0  0  0
  192.6480  174.6600  135.7160 O   0  0  0  0  0  1  0  0  0  0  0  0
  193.7750  175.1590  136.3690 C   0  0  2  0  0  3  0  0  0  0  0  0
  193.6940  174.8300  137.8500 C   0  0  2  0  0  3  0  0  0  0  0  0
  193.5670  176.6270  136.6910 C   0  0  0  0  0  2  0  0  0  0  0  0
  193.4960  176.3000  138.1730 C   0  0  1  0  0  3  0  0  0  0  0  0
  196.3260  175.0350  137.3450 O   0  0  0  0  0  1  0  0  0  0  0  0
  195.5560  175.4280  139.7650 O   0  0  0  0  0  1  0  0  0  0  0  0
  195.3350  174.2320  138.5230 P   0  0  0  0  0  0  0  0  0  0  0  0
  1  4  2  0  0  0  0
  2  4  1  0  0  0  0
  3  5  1  0  0  0  0
  3  2  2  0  0  0  0
  4 16  1  0  0  0  0
  5  9  1  1  0  0  0
  5  1  1  0  0  0  0
  6 11  1  0  0  0  0
  7  6  1  0  0  0  0
  7 13  1  0  0  0  0
  9  8  2  0  0  0  0
 10  8  1  0  0  0  0
 11 14  1  0  0  0  0
 11 15  1  1  0  0  0
 12  6  1  0  0  0  0
 14 13  1  1  0  0  0
 14  9  1  0  0  0  0
 15 10  1  0  0  0  0
 16 17  1  0  0  0  0
 17 19  1  0  0  0  0
 19 18  1  6  0  0  0
 20 21  2  0  0  0  0
 20 19  1  0  0  0  0
 22 23  2  0  0  0  0
 24 21  1  0  0  0  0
 24 22  1  0  0  0  0
 25 22  1  0  0  0  0
 26 25  1  0  0  0  0
 27 30  1  0  0  0  0
 28 30  1  0  0  0  0
 29 27  1  0  0  0  0
 30 26  1  0  0  0  0
 31 29  1  0  0  0  0
 31 28  1  0  0  0  0
 32  3  1  0  0  0  0
 33 32  1  0  0  0  0
 35 34  1  6  0  0  0
 35 37  1  0  0  0  0
 35 36  1  0  0  0  0
 36 38  1  0  0  0  0
 36 41  1  1  0  0  0
 37 38  1  0  0  0  0
 38 33  1  6  0  0  0
 39 41  1  0  0  0  0
 41 40  1  0  0  0  0
M  END
>  <MODEL>
8

>  <REMARK>
 VINA RESULT:      -7.4      3.407      6.643
  Name = 
  13 active torsions:
  status: ('A' for Active; 'I' for Inactive)
    1  A    between atoms: C_1  and  C_20
    2  A    between atoms: C_1  and  C_33
    3  A    between atoms: C_5  and  C_15
    4  A    between atoms: C_5  and  C_36
    5  A    between atoms: C_10  and  C_15
    6  A    between atoms: C_12  and  O_28
    7  A    between atoms: C_12  and  C_34
    8  A    between atoms: C_13  and  C_22
    9  A    between atoms: C_14  and  O_28
   10  A    between atoms: C_24  and  P_25
   11  A    between atoms: C_33  and  C_41
   12  A    between atoms: N_35  and  C_40
   13  A    between atoms: C_37  and  C_41
                            x       y       z     vdW  Elec       q    Type
                         _______ _______ _______ _____ _____    ______ ____

>  <TORSDO>
F 13

$$$$
=
 OpenBabel10232411583D

 41 45  0  0  1  0  0  0  0  0999 V2000
  188.7140  176.7740  142.2650 C   0  0  0  0  0  3  0  0  0  0  0  0
  187.5150  178.5790  141.5100 C   0  0  0  0  0  3  0  0  0  0  0  0
  186.8250  178.1010  142.5320 C   0  0  0  0  0  0  0  0  0  0  0  0
  188.6850  177.7310  141.3520 C   0  0  0  0  0  0  0  0  0  0  0  0
  187.4990  176.8950  143.1250 C   0  0  2  0  0  3  0  0  0  0  0  0
  191.0750  177.1740  146.4120 N   0  0  0  0  0  0  0  0  0  0  0  0
  191.4740  176.8740  145.0290 C   0  0  0  0  0  2  0  0  0  0  0  0
  186.9920  177.5840  145.4660 C   0  0  0  0  0  3  0  0  0  0  0  0
  187.8690  177.0950  144.5720 C   0  0  0  0  0  0  0  0  0  0  0  0
  187.3570  177.7950  146.9190 C   0  0  0  0  0  2  0  0  0  0  0  0
  189.6380  176.9150  146.4330 C   0  0  2  0  0  3  0  0  0  0  0  0
  191.7010  176.1710  147.2600 C   0  0  0  0  0  1  0  0  0  0  0  0
  190.2640  176.8580  144.2250 N   0  0  0  0  0  2  0  0  0  0  0  0
  189.2540  176.8600  145.0120 C   0  0  2  0  0  3  0  0  0  0  0  0
  188.8610  178.0490  147.1000 C   0  0  0  0  0  2  0  0  0  0  0  0
  189.7570  177.9470  140.3430 C   0  0  0  0  0  2  0  0  0  0  0  0
  189.1480  178.4160  139.0330 C   0  0  0  0  0  2  0  0  0  0  0  0
  187.9160  176.6040  138.0990 O   0  0  0  0  0  1  0  0  0  0  0  0
  189.1340  177.2800  138.0230 C   0  0  2  0  0  3  0  0  0  0  0  0
  190.2410  176.3280  138.3130 C   0  0  0  0  0  3  0  0  0  0  0  0
  190.9180  175.7590  137.3250 C   0  0  0  0  0  3  0  0  0  0  0  0
  193.3270  175.3110  137.8010 C   0  0  0  0  0  0  0  0  0  0  0  0
  193.6130  176.5340  137.6660 O   0  0  0  0  0  0  0  0  0  0  0  0
  191.9850  174.8600  137.6180 N   0  0  0  0  0  2  0  0  0  0  0  0
  194.3190  174.3800  138.1270 O   0  0  0  0  0  0  0  0  0  0  0  0
  195.6680  174.5180  137.6920 C   0  0  0  0  0  2  0  0  0  0  0  0
  197.8730  174.8990  138.5200 O   0  0  0  0  0  0  0  0  0  0  0  0
  196.1060  175.0250  139.9860 O   0  0  0  0  0  0  0  0  0  0  0  0
  198.3750  175.4150  139.7130 C   0  0  0  0  0  2  0  0  0  0  0  0
  196.6230  174.3670  138.8630 C   0  0  0  0  0  3  0  0  0  0  0  0
  197.2360  175.4260  140.6910 C   0  0  0  0  0  2  0  0  0  0  0  0
  185.5440  178.7230  142.9990 C   0  0  0  0  0  2  0  0  0  0  0  0
  184.3260  178.0350  142.4020 C   0  0  0  0  0  2  0  0  0  0  0  0
  181.2650  177.1140  140.8590 O   0  0  0  0  0  1  0  0  0  0  0  0
  181.8970  178.2560  140.3680 C   0  0  2  0  0  3  0  0  0  0  0  0
  183.3660  177.9570  140.1170 C   0  0  2  0  0  3  0  0  0  0  0  0
  182.2860  179.1580  141.5230 C   0  0  0  0  0  2  0  0  0  0  0  0
  183.7550  178.8670  141.2670 C   0  0  1  0  0  3  0  0  0  0  0  0
  183.5370  180.3210  138.8480 O   0  0  0  0  0  1  0  0  0  0  0  0
  185.6420  178.8460  138.8830 O   0  0  0  0  0  1  0  0  0  0  0  0
  183.9570  178.6740  138.4910 P   0  0  0  0  0  0  0  0  0  0  0  0
  1  5  1  0  0  0  0
  2  3  2  0  0  0  0
  3 32  1  0  0  0  0
  3  5  1  0  0  0  0
  4  2  1  0  0  0  0
  4  1  2  0  0  0  0
  5  9  1  1  0  0  0
  6 11  1  0  0  0  0
  6 12  1  0  0  0  0
  7  6  1  0  0  0  0
  8 10  1  0  0  0  0
  9 14  1  0  0  0  0
  9  8  2  0  0  0  0
 10 15  1  0  0  0  0
 11 15  1  1  0  0  0
 13  7  1  0  0  0  0
 14 13  1  6  0  0  0
 14 11  1  0  0  0  0
 16  4  1  0  0  0  0
 17 16  1  0  0  0  0
 19 18  1  1  0  0  0
 19 20  1  0  0  0  0
 19 17  1  0  0  0  0
 21 24  1  0  0  0  0
 21 20  2  0  0  0  0
 22 25  1  0  0  0  0
 23 22  2  0  0  0  0
 24 22  1  0  0  0  0
 26 25  1  0  0  0  0
 26 30  1  0  0  0  0
 27 30  1  0  0  0  0
 27 29  1  0  0  0  0
 28 31  1  0  0  0  0
 29 31  1  0  0  0  0
 30 28  1  0  0  0  0
 33 32  1  0  0  0  0
 35 34  1  1  0  0  0
 35 37  1  0  0  0  0
 36 41  1  6  0  0  0
 36 35  1  0  0  0  0
 36 38  1  0  0  0  0
 38 37  1  0  0  0  0
 38 33  1  1  0  0  0
 41 39  1  0  0  0  0
 41 40  1  0  0  0  0
M  END
>  <MODEL>
9

>  <REMARK>
 VINA RESULT:      -7.4      4.048      8.344
  Name = 
  13 active torsions:
  status: ('A' for Active; 'I' for Inactive)
    1  A    between atoms: C_1  and  C_20
    2  A    between atoms: C_1  and  C_33
    3  A    between atoms: C_5  and  C_15
    4  A    between atoms: C_5  and  C_36
    5  A    between atoms: C_10  and  C_15
    6  A    between atoms: C_12  and  O_28
    7  A    between atoms: C_12  and  C_34
    8  A    between atoms: C_13  and  C_22
    9  A    between atoms: C_14  and  O_28
   10  A    between atoms: C_24  and  P_25
   11  A    between atoms: C_33  and  C_41
   12  A    between atoms: N_35  and  C_40
   13  A    between atoms: C_37  and  C_41
                            x       y       z     vdW  Elec       q    Type
                         _______ _______ _______ _____ _____    ______ ____

>  <TORSDO>
F 13

$$$$
