=
 OpenBabel10232410303D

 43 45  0  0  1  0  0  0  0  0999 V2000
  186.5060  174.3750  137.4890 O   0  0  0  0  0  0  0  0  0  0  0  0
  187.2960  176.6450  137.3000 C   0  0  0  0  0  2  0  0  0  0  0  0
  183.5590  172.1870  136.6570 C   0  0  0  0  0  2  0  0  0  0  0  0
  185.3960  173.9480  136.7010 C   0  0  2  0  0  0  0  0  0  0  0  0
  183.9790  175.5570  138.0700 C   0  0  0  0  0  2  0  0  0  0  0  0
  183.6790  177.0460  138.0470 C   0  0  0  0  0  2  0  0  0  0  0  0
  183.0210  174.5480  136.0220 C   0  0  0  0  0  0  0  0  0  0  0  0
  186.7920  178.0710  135.3240 C   0  0  0  0  0  1  0  0  0  0  0  0
  187.3720  175.2260  136.7620 C   0  0  1  0  0  3  0  0  0  0  0  0
  186.2120  177.4200  136.5650 C   0  0  2  0  0  3  0  0  0  0  0  0
  185.8070  173.5380  135.2730 C   0  0  0  0  0  1  0  0  0  0  0  0
  185.6140  178.4420  137.4190 N   0  0  0  0  0  2  0  0  0  0  0  0
  184.2980  175.0340  136.6660 C   0  0  2  0  0  3  0  0  0  0  0  0
  184.9040  177.8150  138.5330 C   0  0  1  0  0  3  0  0  0  0  0  0
  184.7940  172.7220  137.3910 C   0  0  0  0  0  2  0  0  0  0  0  0
  182.6290  173.2510  136.1130 C   0  0  0  0  0  0  0  0  0  0  0  0
  181.3180  172.3480  134.3480 O   0  0  0  0  0  0  0  0  0  0  0  0
  181.3470  172.7740  135.5330 C   0  0  0  0  0  0  0  0  0  0  0  0
  180.0920  172.7490  136.3040 C   0  0  0  0  0  3  0  0  0  0  0  0
  180.0430  172.9270  137.6180 C   0  0  0  0  0  2  0  0  0  0  0  0
  181.4790  176.4060  134.9260 C   0  0  0  0  0  3  0  0  0  0  0  0
  182.1770  175.5590  135.4230 C   0  0  0  0  0  0  0  0  0  0  0  0
  188.8020  174.7350  136.9140 C   0  0  0  0  0  2  0  0  0  0  0  0
  189.7380  175.8980  137.1860 C   0  0  0  0  0  2  0  0  0  0  0  0
  190.9620  175.8840  139.2250 O   0  0  0  0  0  0  0  0  0  0  0  0
  190.8690  175.4480  138.0460 C   0  0  0  0  0  0  0  0  0  0  0  0
  193.0690  174.6060  137.8200 O   0  0  0  0  0  0  0  0  0  0  0  0
  191.4480  173.4540  136.7490 F   0  0  0  0  0  0  0  0  0  0  0  0
  191.8490  174.4840  137.5340 C   0  0  0  0  0  0  0  0  0  0  0  0
  184.4900  178.8900  139.5250 C   0  0  0  0  0  2  0  0  0  0  0  0
  182.5430  178.6630  141.0640 C   0  0  0  0  0  1  0  0  0  0  0  0
  183.9930  178.2750  140.8240 C   0  0  2  0  0  3  0  0  0  0  0  0
  184.8510  178.7810  141.9670 C   0  0  0  0  0  2  0  0  0  0  0  0
  185.2370  177.7070  142.7930 O   0  0  0  0  0  0  0  0  0  0  0  0
  186.5680  177.8960  143.2380 C   0  0  1  0  0  3  0  0  0  0  0  0
  188.1540  176.6400  144.4750 O   0  0  0  0  0  0  0  0  0  0  0  0
  186.8760  177.2160  144.5660 C   0  0  1  0  0  3  0  0  0  0  0  0
  187.6130  177.3890  142.2750 C   0  0  2  0  0  3  0  0  0  0  0  0
  186.8530  178.2390  145.6830 C   0  0  0  0  0  1  0  0  0  0  0  0
  188.3090  176.3190  143.1180 C   0  0  1  0  0  3  0  0  0  0  0  0
  189.7720  176.0780  142.7790 C   0  0  0  0  0  1  0  0  0  0  0  0
  188.5170  178.5600  141.9060 C   0  0  0  0  0  2  0  0  0  0  0  0
  188.1880  179.0320  140.6350 O   0  0  0  0  0  1  0  0  0  0  0  0
  3 15  1  0  0  0  0
  4 11  1  6  0  0  0
  4 15  1  0  0  0  0
  4  1  1  0  0  0  0
  6  5  1  0  0  0  0
  6 14  1  0  0  0  0
  7 16  2  0  0  0  0
  7 13  1  0  0  0  0
  9 23  1  1  0  0  0
  9  2  1  0  0  0  0
  9  1  1  0  0  0  0
 10  8  1  6  0  0  0
 10  2  1  0  0  0  0
 10 12  1  0  0  0  0
 12 14  1  0  0  0  0
 13  4  1  0  0  0  0
 13  5  1  1  0  0  0
 14 30  1  1  0  0  0
 16  3  1  0  0  0  0
 17 18  2  0  0  0  0
 18 16  1  0  0  0  0
 18 19  1  0  0  0  0
 19 20  2  0  0  0  0
 21 22  3  0  0  0  0
 22  7  1  0  0  0  0
 23 24  1  0  0  0  0
 24 26  1  0  0  0  0
 26 25  2  0  0  0  0
 28 29  1  0  0  0  0
 29 27  2  0  0  0  0
 29 26  1  0  0  0  0
 30 32  1  0  0  0  0
 32 31  1  1  0  0  0
 32 33  1  0  0  0  0
 33 34  1  0  0  0  0
 35 34  1  6  0  0  0
 35 37  1  0  0  0  0
 36 37  1  0  0  0  0
 37 39  1  1  0  0  0
 38 42  1  1  0  0  0
 38 40  1  0  0  0  0
 38 35  1  0  0  0  0
 40 41  1  6  0  0  0
 40 36  1  0  0  0  0
 43 42  1  0  0  0  0
M  END
>  <MODEL>
1

>  <REMARK>
 VINA RESULT:      -6.1      0.000      0.000
  Name = 
  13 active torsions:
  status: ('A' for Active; 'I' for Inactive)
    1  A    between atoms: C_2  and  C_23
    2  A    between atoms: C_2  and  O_28
    3  A    between atoms: C_3  and  C_42
    4  A    between atoms: C_5  and  O_28
    5  A    between atoms: C_6  and  C_18
    6  A    between atoms: C_13  and  C_21
    7  A    between atoms: C_19  and  C_34
    8  A    between atoms: C_23  and  C_32
    9  A    between atoms: C_25  and  C_26
   10  A    between atoms: C_25  and  C_33
   11  A    between atoms: C_32  and  C_39
   12  A    between atoms: C_33  and  C_34
   13  A    between atoms: C_41  and  C_42
                            x       y       z     vdW  Elec       q    Type
                         _______ _______ _______ _____ _____    ______ ____

>  <TORSDO>
F 13

$$$$
=
 OpenBabel10232410303D

 43 45  0  0  1  0  0  0  0  0999 V2000
  189.4630  173.8560  136.5340 O   0  0  0  0  0  0  0  0  0  0  0  0
  190.5780  175.9670  136.1960 C   0  0  0  0  0  2  0  0  0  0  0  0
  186.0860  172.2170  136.2800 C   0  0  0  0  0  2  0  0  0  0  0  0
  188.1700  173.6440  135.9720 C   0  0  2  0  0  0  0  0  0  0  0  0
  187.3280  175.4250  137.5830 C   0  0  0  0  0  2  0  0  0  0  0  0
  187.2860  176.9430  137.6150 C   0  0  0  0  0  2  0  0  0  0  0  0
  185.8470  174.6530  135.7550 C   0  0  0  0  0  0  0  0  0  0  0  0
  189.9620  177.5170  134.3490 C   0  0  0  0  0  1  0  0  0  0  0  0
  190.3100  174.5730  135.6560 C   0  0  1  0  0  3  0  0  0  0  0  0
  189.5230  176.9350  135.6780 C   0  0  2  0  0  3  0  0  0  0  0  0
  188.2310  173.2160  134.4930 C   0  0  0  0  0  1  0  0  0  0  0  0
  189.2780  178.0160  136.6290 N   0  0  0  0  0  2  0  0  0  0  0  0
  187.2850  174.8990  136.1440 C   0  0  2  0  0  3  0  0  0  0  0  0
  188.6930  177.4810  137.8580 C   0  0  1  0  0  3  0  0  0  0  0  0
  187.5090  172.5160  136.7650 C   0  0  0  0  0  2  0  0  0  0  0  0
  185.2650  173.4370  135.9200 C   0  0  0  0  0  0  0  0  0  0  0  0
  183.3840  173.5440  134.4700 O   0  0  0  0  0  0  0  0  0  0  0  0
  183.8340  173.1990  135.5950 C   0  0  0  0  0  0  0  0  0  0  0  0
  182.9090  172.5410  136.5330 C   0  0  0  0  0  3  0  0  0  0  0  0
  181.5930  172.5210  136.3620 C   0  0  0  0  0  2  0  0  0  0  0  0
  184.4630  176.7720  134.9620 C   0  0  0  0  0  3  0  0  0  0  0  0
  185.0890  175.8080  135.3250 C   0  0  0  0  0  0  0  0  0  0  0  0
  191.6380  173.8460  135.5340 C   0  0  0  0  0  2  0  0  0  0  0  0
  192.3360  173.7810  136.8810 C   0  0  0  0  0  2  0  0  0  0  0  0
  194.6190  173.2500  136.4810 O   0  0  0  0  0  0  0  0  0  0  0  0
  193.7710  174.1490  136.7270 C   0  0  0  0  0  0  0  0  0  0  0  0
  195.1670  175.9750  136.1590 O   0  0  0  0  0  0  0  0  0  0  0  0
  193.5300  176.4020  137.6560 F   0  0  0  0  0  0  0  0  0  0  0  0
  194.1910  175.5510  136.8320 C   0  0  0  0  0  0  0  0  0  0  0  0
  188.6600  178.5800  138.9090 C   0  0  0  0  0  2  0  0  0  0  0  0
  190.2140  176.8880  139.8730 C   0  0  0  0  0  1  0  0  0  0  0  0
  189.4890  178.1990  140.1250 C   0  0  2  0  0  3  0  0  0  0  0  0
  188.5680  178.0490  141.3210 C   0  0  0  0  0  2  0  0  0  0  0  0
  189.2040  178.5260  142.4830 O   0  0  0  0  0  0  0  0  0  0  0  0
  189.0890  177.5710  143.5220 C   0  0  1  0  0  3  0  0  0  0  0  0
  190.3910  176.9050  145.3890 O   0  0  0  0  0  0  0  0  0  0  0  0
  190.4230  177.0020  143.9880 C   0  0  1  0  0  3  0  0  0  0  0  0
  188.4200  178.0970  144.7670 C   0  0  2  0  0  3  0  0  0  0  0  0
  190.6350  175.6300  143.3830 C   0  0  0  0  0  1  0  0  0  0  0  0
  189.5340  177.9370  145.8020 C   0  0  1  0  0  3  0  0  0  0  0  0
  189.0640  177.7160  147.2320 C   0  0  0  0  0  1  0  0  0  0  0  0
  187.1980  177.2300  145.0460 C   0  0  0  0  0  2  0  0  0  0  0  0
  186.1540  177.5900  144.1950 O   0  0  0  0  0  1  0  0  0  0  0  0
  3 15  1  0  0  0  0
  4 11  1  6  0  0  0
  4 13  1  0  0  0  0
  4  1  1  0  0  0  0
  4 15  1  0  0  0  0
  5  6  1  0  0  0  0
  6 14  1  0  0  0  0
  7 16  2  0  0  0  0
  7 13  1  0  0  0  0
  9 23  1  1  0  0  0
  9  2  1  0  0  0  0
  9  1  1  0  0  0  0
 10  8  1  6  0  0  0
 10  2  1  0  0  0  0
 10 12  1  0  0  0  0
 12 14  1  0  0  0  0
 13  5  1  1  0  0  0
 14 30  1  1  0  0  0
 16  3  1  0  0  0  0
 17 18  2  0  0  0  0
 18 16  1  0  0  0  0
 18 19  1  0  0  0  0
 20 19  2  0  0  0  0
 21 22  3  0  0  0  0
 22  7  1  0  0  0  0
 23 24  1  0  0  0  0
 25 26  2  0  0  0  0
 26 29  1  0  0  0  0
 26 24  1  0  0  0  0
 27 29  2  0  0  0  0
 29 28  1  0  0  0  0
 30 32  1  0  0  0  0
 32 31  1  6  0  0  0
 32 33  1  0  0  0  0
 33 34  1  0  0  0  0
 35 34  1  6  0  0  0
 35 37  1  0  0  0  0
 35 38  1  0  0  0  0
 36 40  1  0  0  0  0
 37 39  1  6  0  0  0
 37 36  1  0  0  0  0
 38 42  1  1  0  0  0
 38 40  1  0  0  0  0
 40 41  1  1  0  0  0
 43 42  1  0  0  0  0
M  END
>  <MODEL>
2

>  <REMARK>
 VINA RESULT:      -5.6      2.442      3.628
  Name = 
  13 active torsions:
  status: ('A' for Active; 'I' for Inactive)
    1  A    between atoms: C_2  and  C_23
    2  A    between atoms: C_2  and  O_28
    3  A    between atoms: C_3  and  C_42
    4  A    between atoms: C_5  and  O_28
    5  A    between atoms: C_6  and  C_18
    6  A    between atoms: C_13  and  C_21
    7  A    between atoms: C_19  and  C_34
    8  A    between atoms: C_23  and  C_32
    9  A    between atoms: C_25  and  C_26
   10  A    between atoms: C_25  and  C_33
   11  A    between atoms: C_32  and  C_39
   12  A    between atoms: C_33  and  C_34
   13  A    between atoms: C_41  and  C_42
                            x       y       z     vdW  Elec       q    Type
                         _______ _______ _______ _____ _____    ______ ____

>  <TORSDO>
F 13

$$$$
=
 OpenBabel10232410303D

 43 45  0  0  1  0  0  0  0  0999 V2000
  184.5040  175.1970  137.2950 O   0  0  0  0  0  0  0  0  0  0  0  0
  186.0720  176.1630  135.7390 C   0  0  0  0  0  2  0  0  0  0  0  0
  181.7740  176.1300  139.7120 C   0  0  0  0  0  2  0  0  0  0  0  0
  183.4070  175.9770  137.7650 C   0  0  2  0  0  0  0  0  0  0  0  0
  185.1250  177.4370  138.9410 C   0  0  0  0  0  2  0  0  0  0  0  0
  186.0370  178.5890  138.5520 C   0  0  0  0  0  2  0  0  0  0  0  0
  182.7830  178.2240  138.7790 C   0  0  0  0  0  0  0  0  0  0  0  0
  185.5150  178.1480  134.3470 C   0  0  0  0  0  1  0  0  0  0  0  0
  184.7600  175.4180  135.9210 C   0  0  1  0  0  3  0  0  0  0  0  0
  185.8230  177.6640  135.7500 C   0  0  2  0  0  3  0  0  0  0  0  0
  182.2180  175.9780  136.7840 C   0  0  0  0  0  1  0  0  0  0  0  0
  186.9730  178.3920  136.2770 N   0  0  0  0  0  2  0  0  0  0  0  0
  183.8560  177.4200  138.0830 C   0  0  2  0  0  3  0  0  0  0  0  0
  187.1760  178.0590  137.6870 C   0  0  1  0  0  3  0  0  0  0  0  0
  182.9350  175.3530  139.0800 C   0  0  0  0  0  2  0  0  0  0  0  0
  181.8890  177.6370  139.6160 C   0  0  0  0  0  0  0  0  0  0  0  0
  179.9820  179.0540  139.7090 O   0  0  0  0  0  0  0  0  0  0  0  0
  180.8650  178.4260  140.3510 C   0  0  0  0  0  0  0  0  0  0  0  0
  180.8180  178.4830  141.8220 C   0  0  0  0  0  3  0  0  0  0  0  0
  181.8320  178.9070  142.5650 C   0  0  0  0  0  2  0  0  0  0  0  0
  182.8890  180.8550  138.4660 C   0  0  0  0  0  3  0  0  0  0  0  0
  182.8430  179.6590  138.6120 C   0  0  0  0  0  0  0  0  0  0  0  0
  184.8670  174.0820  135.2080 C   0  0  0  0  0  2  0  0  0  0  0  0
  185.0990  172.9620  136.2060 C   0  0  0  0  0  2  0  0  0  0  0  0
  185.0200  170.9480  134.9450 O   0  0  0  0  0  0  0  0  0  0  0  0
  184.4210  171.7200  135.7400 C   0  0  0  0  0  0  0  0  0  0  0  0
  182.1060  171.3400  135.4250 O   0  0  0  0  0  0  0  0  0  0  0  0
  182.8720  171.1170  137.5380 F   0  0  0  0  0  0  0  0  0  0  0  0
  183.0770  171.3840  136.2250 C   0  0  0  0  0  0  0  0  0  0  0  0
  188.5020  178.6450  138.1480 C   0  0  0  0  0  2  0  0  0  0  0  0
  188.8640  176.1830  138.2730 C   0  0  0  0  0  1  0  0  0  0  0  0
  189.5050  177.5470  138.4640 C   0  0  2  0  0  3  0  0  0  0  0  0
  189.9610  177.6970  139.9020 C   0  0  0  0  0  2  0  0  0  0  0  0
  188.8530  177.9360  140.7380 O   0  0  0  0  0  0  0  0  0  0  0  0
  189.2200  177.7410  142.0920 C   0  0  1  0  0  3  0  0  0  0  0  0
  189.2830  175.9170  143.6050 O   0  0  0  0  0  0  0  0  0  0  0  0
  188.4080  176.6680  142.8040 C   0  0  1  0  0  3  0  0  0  0  0  0
  190.6630  177.3470  142.2850 C   0  0  2  0  0  3  0  0  0  0  0  0
  187.3480  177.3160  143.6700 C   0  0  0  0  0  1  0  0  0  0  0  0
  190.5180  175.9730  142.9400 C   0  0  1  0  0  3  0  0  0  0  0  0
  191.6550  175.5730  143.8680 C   0  0  0  0  0  1  0  0  0  0  0  0
  191.3180  178.3880  143.1870 C   0  0  0  0  0  2  0  0  0  0  0  0
  190.3390  179.1750  143.7930 O   0  0  0  0  0  1  0  0  0  0  0  0
  1  4  1  0  0  0  0
  2 10  1  0  0  0  0
  2  9  1  0  0  0  0
  4 11  1  6  0  0  0
  4 13  1  0  0  0  0
  4 15  1  0  0  0  0
  6  5  1  0  0  0  0
  7 16  2  0  0  0  0
  9 23  1  6  0  0  0
  9  1  1  0  0  0  0
 10  8  1  6  0  0  0
 10 12  1  0  0  0  0
 12 14  1  0  0  0  0
 13  7  1  0  0  0  0
 13  5  1  1  0  0  0
 14 30  1  1  0  0  0
 14  6  1  0  0  0  0
 15  3  1  0  0  0  0
 16  3  1  0  0  0  0
 16 18  1  0  0  0  0
 17 18  2  0  0  0  0
 18 19  1  0  0  0  0
 19 20  2  0  0  0  0
 21 22  3  0  0  0  0
 22  7  1  0  0  0  0
 23 24  1  0  0  0  0
 25 26  2  0  0  0  0
 26 24  1  0  0  0  0
 26 29  1  0  0  0  0
 27 29  2  0  0  0  0
 29 28  1  0  0  0  0
 30 32  1  0  0  0  0
 32 31  1  1  0  0  0
 32 33  1  0  0  0  0
 33 34  1  0  0  0  0
 35 34  1  6  0  0  0
 35 38  1  0  0  0  0
 35 37  1  0  0  0  0
 37 36  1  0  0  0  0
 37 39  1  1  0  0  0
 38 40  1  0  0  0  0
 38 42  1  1  0  0  0
 40 36  1  0  0  0  0
 40 41  1  1  0  0  0
 42 43  1  0  0  0  0
M  END
>  <MODEL>
3

>  <REMARK>
 VINA RESULT:      -5.1      2.518      5.307
  Name = 
  13 active torsions:
  status: ('A' for Active; 'I' for Inactive)
    1  A    between atoms: C_2  and  C_23
    2  A    between atoms: C_2  and  O_28
    3  A    between atoms: C_3  and  C_42
    4  A    between atoms: C_5  and  O_28
    5  A    between atoms: C_6  and  C_18
    6  A    between atoms: C_13  and  C_21
    7  A    between atoms: C_19  and  C_34
    8  A    between atoms: C_23  and  C_32
    9  A    between atoms: C_25  and  C_26
   10  A    between atoms: C_25  and  C_33
   11  A    between atoms: C_32  and  C_39
   12  A    between atoms: C_33  and  C_34
   13  A    between atoms: C_41  and  C_42
                            x       y       z     vdW  Elec       q    Type
                         _______ _______ _______ _____ _____    ______ ____

>  <TORSDO>
F 13

$$$$
=
 OpenBabel10232410303D

 43 45  0  0  1  0  0  0  0  0999 V2000
  187.2590  173.7900  136.7390 O   0  0  0  0  0  0  0  0  0  0  0  0
  188.5090  175.8170  136.3630 C   0  0  0  0  0  2  0  0  0  0  0  0
  183.8100  172.3290  136.3790 C   0  0  0  0  0  2  0  0  0  0  0  0
  185.9860  173.6220  136.1190 C   0  0  2  0  0  0  0  0  0  0  0  0
  185.1660  175.5250  137.5940 C   0  0  0  0  0  2  0  0  0  0  0  0
  185.2100  177.0430  137.5520 C   0  0  0  0  0  2  0  0  0  0  0  0
  183.7390  174.7450  135.7270 C   0  0  0  0  0  0  0  0  0  0  0  0
  188.0800  177.3040  134.4140 C   0  0  0  0  0  1  0  0  0  0  0  0
  188.1900  174.4140  135.8750 C   0  0  1  0  0  3  0  0  0  0  0  0
  187.5400  176.8140  135.7430 C   0  0  2  0  0  3  0  0  0  0  0  0
  186.0990  173.1170  134.6660 C   0  0  0  0  0  1  0  0  0  0  0  0
  187.3080  177.9530  136.6270 N   0  0  0  0  0  2  0  0  0  0  0  0
  185.1670  174.9310  136.1820 C   0  0  2  0  0  3  0  0  0  0  0  0
  186.6310  177.5140  137.8460 C   0  0  1  0  0  3  0  0  0  0  0  0
  185.2210  172.5730  136.9270 C   0  0  0  0  0  2  0  0  0  0  0  0
  183.0800  173.5730  135.9180 C   0  0  0  0  0  0  0  0  0  0  0  0
  181.3710  173.0630  134.3470 O   0  0  0  0  0  0  0  0  0  0  0  0
  181.6570  173.3980  135.5270 C   0  0  0  0  0  0  0  0  0  0  0  0
  180.5480  173.5730  136.4800 C   0  0  0  0  0  3  0  0  0  0  0  0
  180.5140  174.5430  137.3850 C   0  0  0  0  0  2  0  0  0  0  0  0
  182.5120  176.8920  134.7690 C   0  0  0  0  0  3  0  0  0  0  0  0
  183.0730  175.9170  135.2030 C   0  0  0  0  0  0  0  0  0  0  0  0
  189.4780  173.6100  135.8610 C   0  0  0  0  0  2  0  0  0  0  0  0
  190.3910  174.0460  136.9930 C   0  0  0  0  0  2  0  0  0  0  0  0
  192.1180  173.3450  135.5170 O   0  0  0  0  0  0  0  0  0  0  0  0
  191.8110  174.0080  136.5430 C   0  0  0  0  0  0  0  0  0  0  0  0
  193.5980  174.1700  138.0870 O   0  0  0  0  0  0  0  0  0  0  0  0
  192.9790  176.0930  137.0740 F   0  0  0  0  0  0  0  0  0  0  0  0
  192.8390  174.7590  137.2720 C   0  0  0  0  0  0  0  0  0  0  0  0
  186.6070  178.6650  138.8410 C   0  0  0  0  0  2  0  0  0  0  0  0
  186.0170  179.1680  141.2080 C   0  0  0  0  0  1  0  0  0  0  0  0
  186.6490  178.1520  140.2720 C   0  0  2  0  0  3  0  0  0  0  0  0
  188.0950  177.9240  140.6690 C   0  0  0  0  0  2  0  0  0  0  0  0
  188.4910  178.8840  141.6200 O   0  0  0  0  0  0  0  0  0  0  0  0
  188.9980  178.2380  142.7740 C   0  0  1  0  0  3  0  0  0  0  0  0
  189.0310  176.0240  143.6230 O   0  0  0  0  0  0  0  0  0  0  0  0
  188.1580  177.0550  143.2390 C   0  0  1  0  0  3  0  0  0  0  0  0
  190.3970  177.6970  142.6090 C   0  0  2  0  0  3  0  0  0  0  0  0
  187.2990  177.4660  144.4170 C   0  0  0  0  0  1  0  0  0  0  0  0
  190.1710  176.2000  142.8240 C   0  0  1  0  0  3  0  0  0  0  0  0
  191.3600  175.4410  143.3950 C   0  0  0  0  0  1  0  0  0  0  0  0
  191.2780  178.3420  143.6740 C   0  0  0  0  0  2  0  0  0  0  0  0
  190.7930  179.6100  143.9890 O   0  0  0  0  0  1  0  0  0  0  0  0
  3 15  1  0  0  0  0
  4 11  1  6  0  0  0
  4 13  1  0  0  0  0
  4  1  1  0  0  0  0
  4 15  1  0  0  0  0
  6  5  1  0  0  0  0
  6 14  1  0  0  0  0
  7 16  2  0  0  0  0
  7 13  1  0  0  0  0
  9 23  1  1  0  0  0
  9  2  1  0  0  0  0
  9  1  1  0  0  0  0
 10  8  1  6  0  0  0
 10  2  1  0  0  0  0
 10 12  1  0  0  0  0
 12 14  1  0  0  0  0
 13  5  1  1  0  0  0
 14 30  1  1  0  0  0
 16  3  1  0  0  0  0
 17 18  2  0  0  0  0
 18 16  1  0  0  0  0
 18 19  1  0  0  0  0
 19 20  2  0  0  0  0
 21 22  3  0  0  0  0
 22  7  1  0  0  0  0
 23 24  1  0  0  0  0
 25 26  2  0  0  0  0
 26 24  1  0  0  0  0
 26 29  1  0  0  0  0
 28 29  1  0  0  0  0
 29 27  2  0  0  0  0
 30 32  1  0  0  0  0
 32 33  1  0  0  0  0
 32 31  1  1  0  0  0
 33 34  1  0  0  0  0
 35 34  1  6  0  0  0
 35 37  1  0  0  0  0
 37 36  1  0  0  0  0
 37 39  1  1  0  0  0
 38 35  1  0  0  0  0
 38 40  1  0  0  0  0
 38 42  1  1  0  0  0
 40 41  1  1  0  0  0
 40 36  1  0  0  0  0
 42 43  1  0  0  0  0
M  END
>  <MODEL>
4

>  <REMARK>
 VINA RESULT:      -4.8      1.576      2.094
  Name = 
  13 active torsions:
  status: ('A' for Active; 'I' for Inactive)
    1  A    between atoms: C_2  and  C_23
    2  A    between atoms: C_2  and  O_28
    3  A    between atoms: C_3  and  C_42
    4  A    between atoms: C_5  and  O_28
    5  A    between atoms: C_6  and  C_18
    6  A    between atoms: C_13  and  C_21
    7  A    between atoms: C_19  and  C_34
    8  A    between atoms: C_23  and  C_32
    9  A    between atoms: C_25  and  C_26
   10  A    between atoms: C_25  and  C_33
   11  A    between atoms: C_32  and  C_39
   12  A    between atoms: C_33  and  C_34
   13  A    between atoms: C_41  and  C_42
                            x       y       z     vdW  Elec       q    Type
                         _______ _______ _______ _____ _____    ______ ____

>  <TORSDO>
F 13

$$$$
=
 OpenBabel10232410303D

 43 45  0  0  1  0  0  0  0  0999 V2000
  185.8120  175.5910  137.4040 O   0  0  0  0  0  0  0  0  0  0  0  0
  187.8300  176.9110  137.4210 C   0  0  0  0  0  2  0  0  0  0  0  0
  182.0810  175.8800  137.8030 C   0  0  0  0  0  2  0  0  0  0  0  0
  184.5470  176.2390  137.2860 C   0  0  2  0  0  0  0  0  0  0  0  0
  185.0010  177.2410  139.5800 C   0  0  0  0  0  2  0  0  0  0  0  0
  185.7820  178.4250  140.1250 C   0  0  0  0  0  2  0  0  0  0  0  0
  183.1190  178.1190  138.2300 C   0  0  0  0  0  0  0  0  0  0  0  0
  187.9110  179.2300  136.5240 C   0  0  0  0  0  1  0  0  0  0  0  0
  186.7920  176.1900  136.5770 C   0  0  1  0  0  3  0  0  0  0  0  0
  187.4010  178.3530  137.6500 C   0  0  2  0  0  3  0  0  0  0  0  0
  184.1820  176.5620  135.8240 C   0  0  0  0  0  1  0  0  0  0  0  0
  187.8950  178.8600  138.9270 N   0  0  0  0  0  2  0  0  0  0  0  0
  184.5010  177.5140  138.1580 C   0  0  2  0  0  3  0  0  0  0  0  0
  187.2760  178.1280  140.0320 C   0  0  1  0  0  3  0  0  0  0  0  0
  183.4910  175.2790  137.8370 C   0  0  0  0  0  2  0  0  0  0  0  0
  182.0030  177.3460  138.1740 C   0  0  0  0  0  0  0  0  0  0  0  0
  179.9950  178.2390  137.2680 O   0  0  0  0  0  0  0  0  0  0  0  0
  180.6400  177.9240  138.3030 C   0  0  0  0  0  0  0  0  0  0  0  0
  179.9850  178.1200  139.6080 C   0  0  0  0  0  3  0  0  0  0  0  0
  180.6070  177.9440  140.7670 C   0  0  0  0  0  2  0  0  0  0  0  0
  182.9890  180.7230  138.7130 C   0  0  0  0  0  3  0  0  0  0  0  0
  183.0510  179.5380  138.4970 C   0  0  0  0  0  0  0  0  0  0  0  0
  187.4970  175.1130  135.7710 C   0  0  0  0  0  2  0  0  0  0  0  0
  188.4430  174.3200  136.6550 C   0  0  0  0  0  2  0  0  0  0  0  0
  189.9860  173.7540  134.9370 O   0  0  0  0  0  0  0  0  0  0  0  0
  189.8060  174.3060  136.0550 C   0  0  0  0  0  0  0  0  0  0  0  0
  191.6880  174.2850  137.4910 O   0  0  0  0  0  0  0  0  0  0  0  0
  191.1480  176.2840  136.5880 F   0  0  0  0  0  0  0  0  0  0  0  0
  190.9260  174.9560  136.7460 C   0  0  0  0  0  0  0  0  0  0  0  0
  187.9690  178.5120  141.3300 C   0  0  0  0  0  2  0  0  0  0  0  0
  189.5890  176.8970  140.3410 C   0  0  0  0  0  1  0  0  0  0  0  0
  189.1410  177.5870  141.6190 C   0  0  2  0  0  3  0  0  0  0  0  0
  188.7080  176.5470  142.6330 C   0  0  0  0  0  2  0  0  0  0  0  0
  187.5350  176.9700  143.2890 O   0  0  0  0  0  0  0  0  0  0  0  0
  187.8720  177.7340  144.4330 C   0  0  1  0  0  3  0  0  0  0  0  0
  187.4440  177.6100  146.7620 O   0  0  0  0  0  0  0  0  0  0  0  0
  186.8030  177.7250  145.5180 C   0  0  1  0  0  3  0  0  0  0  0  0
  189.1410  177.2880  145.1160 C   0  0  2  0  0  3  0  0  0  0  0  0
  186.0090  179.0140  145.4660 C   0  0  0  0  0  1  0  0  0  0  0  0
  188.6180  176.8890  146.4970 C   0  0  1  0  0  3  0  0  0  0  0  0
  189.6170  177.0380  147.6350 C   0  0  0  0  0  1  0  0  0  0  0  0
  190.1010  178.4720  145.1430 C   0  0  0  0  0  2  0  0  0  0  0  0
  191.3560  178.0780  144.6820 O   0  0  0  0  0  1  0  0  0  0  0  0
  2 10  1  0  0  0  0
  3 15  1  0  0  0  0
  3 16  1  0  0  0  0
  4 11  1  6  0  0  0
  4  1  1  0  0  0  0
  4 15  1  0  0  0  0
  4 13  1  0  0  0  0
  5  6  1  0  0  0  0
  7 22  1  0  0  0  0
  9 23  1  1  0  0  0
  9  1  1  0  0  0  0
  9  2  1  0  0  0  0
 10  8  1  6  0  0  0
 10 12  1  0  0  0  0
 12 14  1  0  0  0  0
 13  7  1  0  0  0  0
 13  5  1  1  0  0  0
 14  6  1  0  0  0  0
 14 30  1  1  0  0  0
 16  7  2  0  0  0  0
 16 18  1  0  0  0  0
 17 18  2  0  0  0  0
 18 19  1  0  0  0  0
 19 20  2  0  0  0  0
 22 21  3  0  0  0  0
 23 24  1  0  0  0  0
 25 26  2  0  0  0  0
 26 24  1  0  0  0  0
 26 29  1  0  0  0  0
 28 29  1  0  0  0  0
 29 27  2  0  0  0  0
 30 32  1  0  0  0  0
 32 31  1  6  0  0  0
 32 33  1  0  0  0  0
 33 34  1  0  0  0  0
 35 34  1  6  0  0  0
 35 38  1  0  0  0  0
 35 37  1  0  0  0  0
 37 39  1  1  0  0  0
 37 36  1  0  0  0  0
 38 42  1  1  0  0  0
 38 40  1  0  0  0  0
 40 36  1  0  0  0  0
 40 41  1  1  0  0  0
 43 42  1  0  0  0  0
M  END
>  <MODEL>
5

>  <REMARK>
 VINA RESULT:      -4.6      2.300      3.807
  Name = 
  13 active torsions:
  status: ('A' for Active; 'I' for Inactive)
    1  A    between atoms: C_2  and  C_23
    2  A    between atoms: C_2  and  O_28
    3  A    between atoms: C_3  and  C_42
    4  A    between atoms: C_5  and  O_28
    5  A    between atoms: C_6  and  C_18
    6  A    between atoms: C_13  and  C_21
    7  A    between atoms: C_19  and  C_34
    8  A    between atoms: C_23  and  C_32
    9  A    between atoms: C_25  and  C_26
   10  A    between atoms: C_25  and  C_33
   11  A    between atoms: C_32  and  C_39
   12  A    between atoms: C_33  and  C_34
   13  A    between atoms: C_41  and  C_42
                            x       y       z     vdW  Elec       q    Type
                         _______ _______ _______ _____ _____    ______ ____

>  <TORSDO>
F 13

$$$$
=
 OpenBabel10232410303D

 43 45  0  0  1  0  0  0  0  0999 V2000
  189.4720  174.8390  136.7120 O   0  0  0  0  0  0  0  0  0  0  0  0
  189.3460  177.2200  136.3540 C   0  0  0  0  0  2  0  0  0  0  0  0
  187.5230  171.6610  136.1970 C   0  0  0  0  0  2  0  0  0  0  0  0
  188.5680  173.9750  136.0250 C   0  0  2  0  0  0  0  0  0  0  0  0
  186.7160  175.0410  137.4050 C   0  0  0  0  0  2  0  0  0  0  0  0
  185.8790  176.3070  137.3270 C   0  0  0  0  0  2  0  0  0  0  0  0
  186.1130  173.6030  135.4810 C   0  0  0  0  0  0  0  0  0  0  0  0
  188.2580  178.2100  134.3480 C   0  0  0  0  0  1  0  0  0  0  0  0
  189.9240  175.8950  135.8850 C   0  0  1  0  0  3  0  0  0  0  0  0
  188.0200  177.4840  135.6560 C   0  0  2  0  0  3  0  0  0  0  0  0
  189.0380  173.6450  134.5950 C   0  0  0  0  0  1  0  0  0  0  0  0
  187.1220  178.2710  136.4970 N   0  0  0  0  0  2  0  0  0  0  0  0
  187.1430  174.5720  136.0100 C   0  0  2  0  0  3  0  0  0  0  0  0
  186.7490  177.5080  137.6880 C   0  0  1  0  0  3  0  0  0  0  0  0
  188.5000  172.6680  136.8160 C   0  0  0  0  0  2  0  0  0  0  0  0
  186.2390  172.2630  135.6640 C   0  0  0  0  0  0  0  0  0  0  0  0
  185.5030  170.4270  134.3460 O   0  0  0  0  0  0  0  0  0  0  0  0
  185.2030  171.3040  135.1990 C   0  0  0  0  0  0  0  0  0  0  0  0
  183.8250  171.3150  135.7200 C   0  0  0  0  0  3  0  0  0  0  0  0
  183.4820  170.7600  136.8760 C   0  0  0  0  0  2  0  0  0  0  0  0
  183.9410  174.6670  134.3930 C   0  0  0  0  0  3  0  0  0  0  0  0
  184.9270  174.1830  134.8910 C   0  0  0  0  0  0  0  0  0  0  0  0
  191.4380  175.9810  135.9630 C   0  0  0  0  0  2  0  0  0  0  0  0
  191.9570  175.1860  137.1470 C   0  0  0  0  0  2  0  0  0  0  0  0
  193.7260  176.6770  137.6980 O   0  0  0  0  0  0  0  0  0  0  0  0
  193.3940  175.5030  137.3810 C   0  0  0  0  0  0  0  0  0  0  0  0
  194.9370  173.9640  138.3050 O   0  0  0  0  0  0  0  0  0  0  0  0
  194.7930  173.9970  136.0500 F   0  0  0  0  0  0  0  0  0  0  0  0
  194.4110  174.4520  137.2700 C   0  0  0  0  0  0  0  0  0  0  0  0
  186.0070  178.4220  138.6500 C   0  0  0  0  0  2  0  0  0  0  0  0
  185.4520  178.8640  141.0380 C   0  0  0  0  0  1  0  0  0  0  0  0
  186.3740  178.1130  140.0920 C   0  0  2  0  0  3  0  0  0  0  0  0
  187.8090  178.5380  140.3360 C   0  0  0  0  0  2  0  0  0  0  0  0
  188.6900  177.5120  139.9440 O   0  0  0  0  0  0  0  0  0  0  0  0
  189.5330  177.1610  141.0270 C   0  0  1  0  0  3  0  0  0  0  0  0
  191.1720  178.2550  142.3470 O   0  0  0  0  0  0  0  0  0  0  0  0
  190.8740  177.8850  141.0250 C   0  0  1  0  0  3  0  0  0  0  0  0
  188.9330  177.4320  142.3840 C   0  0  2  0  0  3  0  0  0  0  0  0
  191.9530  176.9640  140.4940 C   0  0  0  0  0  1  0  0  0  0  0  0
  189.9230  178.4460  142.9570 C   0  0  1  0  0  3  0  0  0  0  0  0
  190.0510  178.4400  144.4730 C   0  0  0  0  0  1  0  0  0  0  0  0
  188.8930  176.1150  143.1510 C   0  0  0  0  0  2  0  0  0  0  0  0
  187.5710  175.7170  143.3460 O   0  0  0  0  0  1  0  0  0  0  0  0
  3 15  1  0  0  0  0
  4 11  1  6  0  0  0
  4  1  1  0  0  0  0
  4 15  1  0  0  0  0
  6  5  1  0  0  0  0
  6 14  1  0  0  0  0
  7 16  2  0  0  0  0
  7 13  1  0  0  0  0
  9 23  1  1  0  0  0
  9  2  1  0  0  0  0
  9  1  1  0  0  0  0
 10  8  1  6  0  0  0
 10  2  1  0  0  0  0
 10 12  1  0  0  0  0
 12 14  1  0  0  0  0
 13  4  1  0  0  0  0
 13  5  1  1  0  0  0
 14 30  1  1  0  0  0
 16  3  1  0  0  0  0
 17 18  2  0  0  0  0
 18 16  1  0  0  0  0
 18 19  1  0  0  0  0
 19 20  2  0  0  0  0
 21 22  3  0  0  0  0
 22  7  1  0  0  0  0
 23 24  1  0  0  0  0
 24 26  1  0  0  0  0
 26 25  2  0  0  0  0
 28 29  1  0  0  0  0
 29 26  1  0  0  0  0
 29 27  2  0  0  0  0
 30 32  1  0  0  0  0
 32 33  1  0  0  0  0
 32 31  1  1  0  0  0
 34 33  1  0  0  0  0
 35 34  1  6  0  0  0
 35 38  1  0  0  0  0
 36 40  1  0  0  0  0
 37 39  1  1  0  0  0
 37 35  1  0  0  0  0
 37 36  1  0  0  0  0
 38 40  1  0  0  0  0
 38 42  1  1  0  0  0
 40 41  1  1  0  0  0
 42 43  1  0  0  0  0
M  END
>  <MODEL>
6

>  <REMARK>
 VINA RESULT:      -4.4      2.267      3.376
  Name = 
  13 active torsions:
  status: ('A' for Active; 'I' for Inactive)
    1  A    between atoms: C_2  and  C_23
    2  A    between atoms: C_2  and  O_28
    3  A    between atoms: C_3  and  C_42
    4  A    between atoms: C_5  and  O_28
    5  A    between atoms: C_6  and  C_18
    6  A    between atoms: C_13  and  C_21
    7  A    between atoms: C_19  and  C_34
    8  A    between atoms: C_23  and  C_32
    9  A    between atoms: C_25  and  C_26
   10  A    between atoms: C_25  and  C_33
   11  A    between atoms: C_32  and  C_39
   12  A    between atoms: C_33  and  C_34
   13  A    between atoms: C_41  and  C_42
                            x       y       z     vdW  Elec       q    Type
                         _______ _______ _______ _____ _____    ______ ____

>  <TORSDO>
F 13

$$$$
=
 OpenBabel10232410303D

 43 45  0  0  1  0  0  0  0  0999 V2000
  186.1190  175.8470  137.3170 O   0  0  0  0  0  0  0  0  0  0  0  0
  188.1690  177.0580  137.6990 C   0  0  0  0  0  2  0  0  0  0  0  0
  182.3810  176.2770  137.3250 C   0  0  0  0  0  2  0  0  0  0  0  0
  184.9020  176.5650  137.1280 C   0  0  2  0  0  0  0  0  0  0  0  0
  185.1220  177.3070  139.5510 C   0  0  0  0  0  2  0  0  0  0  0  0
  185.8780  178.3900  140.3030 C   0  0  0  0  0  2  0  0  0  0  0  0
  183.4440  178.4070  138.1000 C   0  0  0  0  0  0  0  0  0  0  0  0
  188.4400  179.4500  137.0670 C   0  0  0  0  0  1  0  0  0  0  0  0
  187.2100  176.4780  136.6730 C   0  0  1  0  0  3  0  0  0  0  0  0
  187.7700  178.4890  138.0300 C   0  0  2  0  0  3  0  0  0  0  0  0
  184.7210  177.0510  135.6770 C   0  0  0  0  0  1  0  0  0  0  0  0
  188.1300  178.8400  139.4010 N   0  0  0  0  0  2  0  0  0  0  0  0
  184.8020  177.7460  138.1190 C   0  0  2  0  0  3  0  0  0  0  0  0
  187.3600  178.0320  140.3460 C   0  0  1  0  0  3  0  0  0  0  0  0
  183.7540  175.6070  137.4530 C   0  0  0  0  0  2  0  0  0  0  0  0
  182.3140  177.7000  137.8380 C   0  0  0  0  0  0  0  0  0  0  0  0
  180.3790  178.4790  138.9770 O   0  0  0  0  0  0  0  0  0  0  0  0
  180.9680  178.3270  137.8740 C   0  0  0  0  0  0  0  0  0  0  0  0
  180.2900  178.8150  136.6600 C   0  0  0  0  0  3  0  0  0  0  0  0
  180.9410  179.2980  135.6100 C   0  0  0  0  0  2  0  0  0  0  0  0
  183.3660  180.9500  138.8470 C   0  0  0  0  0  3  0  0  0  0  0  0
  183.3970  179.7940  138.5060 C   0  0  0  0  0  0  0  0  0  0  0  0
  187.9630  175.4540  135.8420 C   0  0  0  0  0  2  0  0  0  0  0  0
  189.3750  175.2740  136.3700 C   0  0  0  0  0  2  0  0  0  0  0  0
  190.6680  173.5320  137.3430 O   0  0  0  0  0  0  0  0  0  0  0  0
  189.5800  173.8630  136.8000 C   0  0  0  0  0  0  0  0  0  0  0  0
  188.5730  172.0380  135.6780 O   0  0  0  0  0  0  0  0  0  0  0  0
  187.4530  172.8480  137.4650 F   0  0  0  0  0  0  0  0  0  0  0  0
  188.5130  172.8720  136.6190 C   0  0  0  0  0  0  0  0  0  0  0  0
  187.9110  178.2480  141.7460 C   0  0  0  0  0  2  0  0  0  0  0  0
  189.8280  176.6620  141.6060 C   0  0  0  0  0  1  0  0  0  0  0  0
  189.4260  178.1190  141.7650 C   0  0  2  0  0  3  0  0  0  0  0  0
  189.9490  178.6500  143.0850 C   0  0  0  0  0  2  0  0  0  0  0  0
  190.9620  177.8050  143.5780 O   0  0  0  0  0  0  0  0  0  0  0  0
  190.4840  177.0810  144.6970 C   0  0  1  0  0  3  0  0  0  0  0  0
  191.0340  176.9230  146.9980 O   0  0  0  0  0  0  0  0  0  0  0  0
  191.5640  176.7290  145.7120 C   0  0  1  0  0  3  0  0  0  0  0  0
  189.4150  177.7990  145.4810 C   0  0  2  0  0  3  0  0  0  0  0  0
  191.9790  175.2820  145.5400 C   0  0  0  0  0  1  0  0  0  0  0  0
  190.0870  177.9470  146.8460 C   0  0  1  0  0  3  0  0  0  0  0  0
  189.1370  177.9910  148.0350 C   0  0  0  0  0  1  0  0  0  0  0  0
  188.1740  176.9140  145.5030 C   0  0  0  0  0  2  0  0  0  0  0  0
  187.0710  177.6290  145.0370 O   0  0  0  0  0  1  0  0  0  0  0  0
  2 10  1  0  0  0  0
  3 15  1  0  0  0  0
  3 16  1  0  0  0  0
  4 11  1  6  0  0  0
  4  1  1  0  0  0  0
  4 15  1  0  0  0  0
  4 13  1  0  0  0  0
  5  6  1  0  0  0  0
  6 14  1  0  0  0  0
  7 13  1  0  0  0  0
  7 22  1  0  0  0  0
  9 23  1  1  0  0  0
  9  1  1  0  0  0  0
  9  2  1  0  0  0  0
 10  8  1  6  0  0  0
 10 12  1  0  0  0  0
 12 14  1  0  0  0  0
 13  5  1  1  0  0  0
 14 30  1  1  0  0  0
 16 18  1  0  0  0  0
 16  7  2  0  0  0  0
 18 17  2  0  0  0  0
 19 18  1  0  0  0  0
 20 19  2  0  0  0  0
 22 21  3  0  0  0  0
 23 24  1  0  0  0  0
 24 26  1  0  0  0  0
 26 25  2  0  0  0  0
 27 29  2  0  0  0  0
 29 26  1  0  0  0  0
 29 28  1  0  0  0  0
 30 32  1  0  0  0  0
 32 31  1  1  0  0  0
 32 33  1  0  0  0  0
 33 34  1  0  0  0  0
 35 34  1  6  0  0  0
 35 38  1  0  0  0  0
 35 37  1  0  0  0  0
 37 39  1  1  0  0  0
 37 36  1  0  0  0  0
 38 42  1  1  0  0  0
 38 40  1  0  0  0  0
 40 36  1  0  0  0  0
 40 41  1  1  0  0  0
 43 42  1  0  0  0  0
M  END
>  <MODEL>
7

>  <REMARK>
 VINA RESULT:      -4.3      2.609      4.436
  Name = 
  13 active torsions:
  status: ('A' for Active; 'I' for Inactive)
    1  A    between atoms: C_2  and  C_23
    2  A    between atoms: C_2  and  O_28
    3  A    between atoms: C_3  and  C_42
    4  A    between atoms: C_5  and  O_28
    5  A    between atoms: C_6  and  C_18
    6  A    between atoms: C_13  and  C_21
    7  A    between atoms: C_19  and  C_34
    8  A    between atoms: C_23  and  C_32
    9  A    between atoms: C_25  and  C_26
   10  A    between atoms: C_25  and  C_33
   11  A    between atoms: C_32  and  C_39
   12  A    between atoms: C_33  and  C_34
   13  A    between atoms: C_41  and  C_42
                            x       y       z     vdW  Elec       q    Type
                         _______ _______ _______ _____ _____    ______ ____

>  <TORSDO>
F 13

$$$$
=
 OpenBabel10232410303D

 43 45  0  0  1  0  0  0  0  0999 V2000
  187.7960  176.2090  136.3460 O   0  0  0  0  0  0  0  0  0  0  0  0
  189.4410  177.8220  137.0560 C   0  0  0  0  0  2  0  0  0  0  0  0
  184.0850  175.5830  136.3120 C   0  0  0  0  0  2  0  0  0  0  0  0
  186.4230  176.5880  136.2740 C   0  0  2  0  0  0  0  0  0  0  0  0
  186.4930  176.8120  138.8070 C   0  0  0  0  0  2  0  0  0  0  0  0
  186.9400  177.8690  139.8030 C   0  0  0  0  0  2  0  0  0  0  0  0
  184.5390  177.7000  137.5710 C   0  0  0  0  0  0  0  0  0  0  0  0
  189.0260  180.2740  136.9710 C   0  0  0  0  0  1  0  0  0  0  0  0
  188.6530  177.2400  135.8950 C   0  0  1  0  0  3  0  0  0  0  0  0
  188.6720  178.9790  137.6770 C   0  0  2  0  0  3  0  0  0  0  0  0
  186.0770  177.3120  134.9580 C   0  0  0  0  0  1  0  0  0  0  0  0
  188.9570  179.1060  139.1030 N   0  0  0  0  0  2  0  0  0  0  0  0
  186.0270  177.4490  137.4940 C   0  0  2  0  0  3  0  0  0  0  0  0
  188.4640  177.9310  139.8210 C   0  0  1  0  0  3  0  0  0  0  0  0
  185.5920  175.3050  136.3410 C   0  0  0  0  0  2  0  0  0  0  0  0
  183.6420  176.7850  137.1200 C   0  0  0  0  0  0  0  0  0  0  0  0
  181.5370  177.5110  136.2880 O   0  0  0  0  0  0  0  0  0  0  0  0
  182.1760  176.9950  137.2430 C   0  0  0  0  0  0  0  0  0  0  0  0
  181.4180  176.5930  138.4410 C   0  0  0  0  0  3  0  0  0  0  0  0
  181.9090  175.7890  139.3750 C   0  0  0  0  0  2  0  0  0  0  0  0
  183.7710  179.8910  138.8520 C   0  0  0  0  0  3  0  0  0  0  0  0
  184.1230  178.8970  138.2670 C   0  0  0  0  0  0  0  0  0  0  0  0
  189.6380  176.6710  134.8890 C   0  0  0  0  0  2  0  0  0  0  0  0
  189.6110  175.1530  134.9170 C   0  0  0  0  0  2  0  0  0  0  0  0
  191.9080  174.6390  135.2590 O   0  0  0  0  0  0  0  0  0  0  0  0
  190.7430  174.6420  135.7400 C   0  0  0  0  0  0  0  0  0  0  0  0
  191.1180  174.7000  138.0770 O   0  0  0  0  0  0  0  0  0  0  0  0
  189.6330  173.1630  137.3450 F   0  0  0  0  0  0  0  0  0  0  0  0
  190.5090  174.1710  137.1100 C   0  0  0  0  0  0  0  0  0  0  0  0
  188.9710  177.9770  141.2540 C   0  0  0  0  0  2  0  0  0  0  0  0
  187.1170  178.2910  142.8890 C   0  0  0  0  0  1  0  0  0  0  0  0
  188.0090  177.2730  142.1980 C   0  0  2  0  0  3  0  0  0  0  0  0
  188.8090  176.5100  143.2350 C   0  0  0  0  0  2  0  0  0  0  0  0
  188.1910  176.6170  144.4960 O   0  0  0  0  0  0  0  0  0  0  0  0
  189.0720  177.2430  145.4120 C   0  0  1  0  0  3  0  0  0  0  0  0
  189.7810  176.8580  147.6420 O   0  0  0  0  0  0  0  0  0  0  0  0
  188.6390  177.1190  146.8670 C   0  0  1  0  0  3  0  0  0  0  0  0
  190.4830  176.7110  145.3660 C   0  0  2  0  0  3  0  0  0  0  0  0
  187.9940  178.4120  147.3230 C   0  0  0  0  0  1  0  0  0  0  0  0
  190.6470  176.1630  146.7840 C   0  0  1  0  0  3  0  0  0  0  0  0
  192.0700  176.1720  147.3210 C   0  0  0  0  0  1  0  0  0  0  0  0
  191.4140  177.8770  145.0500 C   0  0  0  0  0  2  0  0  0  0  0  0
  190.6920  178.9180  144.4680 O   0  0  0  0  0  1  0  0  0  0  0  0
  2 10  1  0  0  0  0
  3 15  1  0  0  0  0
  3 16  1  0  0  0  0
  4 11  1  6  0  0  0
  4 15  1  0  0  0  0
  4  1  1  0  0  0  0
  4 13  1  0  0  0  0
  5  6  1  0  0  0  0
  6 14  1  0  0  0  0
  7 22  1  0  0  0  0
  9 23  1  6  0  0  0
  9  1  1  0  0  0  0
  9  2  1  0  0  0  0
 10  8  1  6  0  0  0
 10 12  1  0  0  0  0
 12 14  1  0  0  0  0
 13  7  1  0  0  0  0
 13  5  1  1  0  0  0
 14 30  1  1  0  0  0
 16 18  1  0  0  0  0
 16  7  2  0  0  0  0
 17 18  2  0  0  0  0
 18 19  1  0  0  0  0
 19 20  2  0  0  0  0
 22 21  3  0  0  0  0
 23 24  1  0  0  0  0
 24 26  1  0  0  0  0
 25 26  2  0  0  0  0
 26 29  1  0  0  0  0
 29 28  1  0  0  0  0
 29 27  2  0  0  0  0
 30 32  1  0  0  0  0
 32 31  1  1  0  0  0
 32 33  1  0  0  0  0
 33 34  1  0  0  0  0
 35 34  1  6  0  0  0
 35 37  1  0  0  0  0
 37 39  1  1  0  0  0
 37 36  1  0  0  0  0
 38 42  1  1  0  0  0
 38 35  1  0  0  0  0
 38 40  1  0  0  0  0
 40 41  1  1  0  0  0
 40 36  1  0  0  0  0
 43 42  1  0  0  0  0
M  END
>  <MODEL>
8

>  <REMARK>
 VINA RESULT:      -4.2      2.425      3.760
  Name = 
  13 active torsions:
  status: ('A' for Active; 'I' for Inactive)
    1  A    between atoms: C_2  and  C_23
    2  A    between atoms: C_2  and  O_28
    3  A    between atoms: C_3  and  C_42
    4  A    between atoms: C_5  and  O_28
    5  A    between atoms: C_6  and  C_18
    6  A    between atoms: C_13  and  C_21
    7  A    between atoms: C_19  and  C_34
    8  A    between atoms: C_23  and  C_32
    9  A    between atoms: C_25  and  C_26
   10  A    between atoms: C_25  and  C_33
   11  A    between atoms: C_32  and  C_39
   12  A    between atoms: C_33  and  C_34
   13  A    between atoms: C_41  and  C_42
                            x       y       z     vdW  Elec       q    Type
                         _______ _______ _______ _____ _____    ______ ____

>  <TORSDO>
F 13

$$$$
=
 OpenBabel10232410303D

 43 45  0  0  1  0  0  0  0  0999 V2000
  187.1070  177.4590  140.0900 O   0  0  0  0  0  0  0  0  0  0  0  0
  187.4810  177.8050  137.7330 C   0  0  0  0  0  2  0  0  0  0  0  0
  188.9270  177.2630  143.3780 C   0  0  0  0  0  2  0  0  0  0  0  0
  188.1290  177.8040  141.0230 C   0  0  2  0  0  0  0  0  0  0  0  0
  189.5090  175.9280  140.0000 C   0  0  0  0  0  2  0  0  0  0  0  0
  190.4000  175.7610  138.7810 C   0  0  0  0  0  2  0  0  0  0  0  0
  190.6040  177.5310  141.5380 C   0  0  0  0  0  0  0  0  0  0  0  0
  189.2060  179.3790  136.8750 C   0  0  0  0  0  1  0  0  0  0  0  0
  187.0040  178.4070  139.0440 C   0  0  1  0  0  3  0  0  0  0  0  0
  188.9740  178.0490  137.5630 C   0  0  2  0  0  3  0  0  0  0  0  0
  188.1180  179.3030  141.3840 C   0  0  0  0  0  1  0  0  0  0  0  0
  189.6040  176.9820  136.7910 N   0  0  0  0  0  2  0  0  0  0  0  0
  189.5180  177.3760  140.4990 C   0  0  2  0  0  3  0  0  0  0  0  0
  189.5340  175.7190  137.5260 C   0  0  1  0  0  3  0  0  0  0  0  0
  187.8650  177.0070  142.3020 C   0  0  0  0  0  2  0  0  0  0  0  0
  190.3460  177.3700  142.8620 C   0  0  0  0  0  0  0  0  0  0  0  0
  192.0060  178.5590  144.0800 O   0  0  0  0  0  0  0  0  0  0  0  0
  191.4170  177.4620  143.8880 C   0  0  0  0  0  0  0  0  0  0  0  0
  191.8090  176.3160  144.7270 C   0  0  0  0  0  3  0  0  0  0  0  0
  191.7650  176.3380  146.0530 C   0  0  0  0  0  2  0  0  0  0  0  0
  193.0670  177.8790  140.6210 C   0  0  0  0  0  3  0  0  0  0  0  0
  191.9480  177.7230  141.0410 C   0  0  0  0  0  0  0  0  0  0  0  0
  185.5510  178.8170  138.8800 C   0  0  0  0  0  2  0  0  0  0  0  0
  184.8600  178.8820  140.2300 C   0  0  0  0  0  2  0  0  0  0  0  0
  182.5890  178.6450  140.8960 O   0  0  0  0  0  0  0  0  0  0  0  0
  183.3980  179.0950  140.0400 C   0  0  0  0  0  0  0  0  0  0  0  0
  183.0230  181.1010  138.8400 O   0  0  0  0  0  0  0  0  0  0  0  0
  182.3150  179.1990  137.8460 F   0  0  0  0  0  0  0  0  0  0  0  0
  182.9040  179.8480  138.8820 C   0  0  0  0  0  0  0  0  0  0  0  0
  189.9860  174.5900  136.6140 C   0  0  0  0  0  2  0  0  0  0  0  0
  188.8120  173.0980  135.0010 C   0  0  0  0  0  1  0  0  0  0  0  0
  188.8910  173.5480  136.4500 C   0  0  2  0  0  3  0  0  0  0  0  0
  187.5660  174.1570  136.8670 C   0  0  0  0  0  2  0  0  0  0  0  0
  186.8390  174.5560  135.7290 O   0  0  0  0  0  0  0  0  0  0  0  0
  185.4530  174.3750  135.9550 C   0  0  1  0  0  3  0  0  0  0  0  0
  184.0750  173.8380  137.8080 O   0  0  0  0  0  0  0  0  0  0  0  0
  185.1320  173.3420  137.0270 C   0  0  1  0  0  3  0  0  0  0  0  0
  184.7320  175.6310  136.3780 C   0  0  2  0  0  3  0  0  0  0  0  0
  184.7210  172.0370  136.3760 C   0  0  0  0  0  1  0  0  0  0  0  0
  184.2160  175.2330  137.7610 C   0  0  1  0  0  3  0  0  0  0  0  0
  182.9330  175.9250  138.1980 C   0  0  0  0  0  1  0  0  0  0  0  0
  183.6240  175.9000  135.3660 C   0  0  0  0  0  2  0  0  0  0  0  0
  183.6660  177.2320  134.9570 O   0  0  0  0  0  1  0  0  0  0  0  0
  1  4  1  0  0  0  0
  2  9  1  0  0  0  0
  4 11  1  1  0  0  0
  4 15  1  0  0  0  0
  6  5  1  0  0  0  0
  7 16  2  0  0  0  0
  9 23  1  6  0  0  0
  9  1  1  0  0  0  0
 10  8  1  6  0  0  0
 10  2  1  0  0  0  0
 12 14  1  0  0  0  0
 12 10  1  0  0  0  0
 13  5  1  1  0  0  0
 13  4  1  0  0  0  0
 13  7  1  0  0  0  0
 14 30  1  6  0  0  0
 14  6  1  0  0  0  0
 15  3  1  0  0  0  0
 16  3  1  0  0  0  0
 16 18  1  0  0  0  0
 18 17  2  0  0  0  0
 18 19  1  0  0  0  0
 19 20  2  0  0  0  0
 21 22  3  0  0  0  0
 22  7  1  0  0  0  0
 23 24  1  0  0  0  0
 26 24  1  0  0  0  0
 26 25  2  0  0  0  0
 27 29  2  0  0  0  0
 28 29  1  0  0  0  0
 29 26  1  0  0  0  0
 32 31  1  6  0  0  0
 32 30  1  0  0  0  0
 32 33  1  0  0  0  0
 34 33  1  0  0  0  0
 35 34  1  1  0  0  0
 35 38  1  0  0  0  0
 35 37  1  0  0  0  0
 37 39  1  6  0  0  0
 37 36  1  0  0  0  0
 38 42  1  6  0  0  0
 38 40  1  0  0  0  0
 40 36  1  0  0  0  0
 40 41  1  6  0  0  0
 43 42  1  0  0  0  0
M  END
>  <MODEL>
9

>  <REMARK>
 VINA RESULT:      -4.1      2.981      8.988
  Name = 
  13 active torsions:
  status: ('A' for Active; 'I' for Inactive)
    1  A    between atoms: C_2  and  C_23
    2  A    between atoms: C_2  and  O_28
    3  A    between atoms: C_3  and  C_42
    4  A    between atoms: C_5  and  O_28
    5  A    between atoms: C_6  and  C_18
    6  A    between atoms: C_13  and  C_21
    7  A    between atoms: C_19  and  C_34
    8  A    between atoms: C_23  and  C_32
    9  A    between atoms: C_25  and  C_26
   10  A    between atoms: C_25  and  C_33
   11  A    between atoms: C_32  and  C_39
   12  A    between atoms: C_33  and  C_34
   13  A    between atoms: C_41  and  C_42
                            x       y       z     vdW  Elec       q    Type
                         _______ _______ _______ _____ _____    ______ ____

>  <TORSDO>
F 13

$$$$
