=
 OpenBabel10232409473D

 45 50  0  0  1  0  0  0  0  0999 V2000
  191.0330  176.1500  134.4670 C   0  0  0  0  0  3  0  0  0  0  0  0
  191.3970  176.0070  136.8340 C   0  0  0  0  0  0  0  0  0  0  0  0
  190.0680  175.7560  137.0320 C   0  0  0  0  0  0  0  0  0  0  0  0
  189.1540  175.7110  135.9710 C   0  0  0  0  0  0  0  0  0  0  0  0
  189.5560  178.4470  142.0170 C   0  0  1  0  0  3  0  0  0  0  0  0
  191.2330  175.9240  140.3750 C   0  0  0  0  0  2  0  0  0  0  0  0
  191.9290  176.2080  135.5480 C   0  0  0  0  0  0  0  0  0  0  0  0
  190.5260  177.2770  141.9820 C   0  0  0  0  0  2  0  0  0  0  0  0
  187.6750  175.5110  136.1630 C   0  0  2  0  0  3  0  0  0  0  0  0
  187.6800  177.7770  137.4960 C   0  0  1  0  0  3  0  0  0  0  0  0
  192.0300  176.0710  138.0170 N   0  0  0  0  0  0  0  0  0  0  0  0
  189.8110  175.6490  138.3450 N   0  0  0  0  0  2  0  0  0  0  0  0
  191.2050  177.2650  140.7620 O   0  0  0  0  0  0  0  0  0  0  0  0
  187.3250  177.7680  138.9830 C   0  0  2  0  0  3  0  0  0  0  0  0
  188.2810  178.0950  141.2660 C   0  0  0  0  0  2  0  0  0  0  0  0
  189.6590  175.9090  134.6750 C   0  0  0  0  0  3  0  0  0  0  0  0
  185.7410  176.8110  136.5510 O   0  0  0  0  0  0  0  0  0  0  0  0
  186.1220  178.4380  139.2280 O   0  0  0  0  0  1  0  0  0  0  0  0
  188.4550  178.3880  139.7860 C   0  0  0  0  0  2  0  0  0  0  0  0
  191.0320  175.8390  138.9030 C   0  0  0  0  0  0  0  0  0  0  0  0
  186.9480  176.7150  136.7180 C   0  0  0  0  0  0  0  0  0  0  0  0
  188.8130  179.8740  137.1000 O   0  0  0  0  0  1  0  0  0  0  0  0
  187.6480  179.1540  136.8330 C   0  0  0  0  0  2  0  0  0  0  0  0
  193.2820  176.4680  135.2920 O   0  0  0  0  0  0  0  0  0  0  0  0
  194.0750  175.7200  134.3840 C   0  0  0  0  0  1  0  0  0  0  0  0
  189.2240  178.7870  143.4650 C   0  0  0  0  0  2  0  0  0  0  0  0
  189.3020  177.5880  144.2940 N   0  0  0  0  0  0  0  0  0  0  0  0
  190.1550  177.8600  145.4430 C   0  0  0  0  0  1  0  0  0  0  0  0
  187.9550  177.1380  144.6940 C   0  0  0  0  0  2  0  0  0  0  0  0
  185.6460  178.2460  144.5960 C   0  0  0  0  0  2  0  0  0  0  0  0
  186.7310  178.0700  146.7760 C   0  0  0  0  0  2  0  0  0  0  0  0
  184.6200  178.5300  145.6820 C   0  0  0  0  0  2  0  0  0  0  0  0
  185.3850  178.7320  146.9790 C   0  0  0  0  0  2  0  0  0  0  0  0
  186.9940  178.1900  145.2900 C   0  0  0  0  0  3  0  0  0  0  0  0
  187.3680  174.2380  136.9480 C   0  0  0  0  0  2  0  0  0  0  0  0
  185.7170  169.4500  134.3520 C   0  0  0  0  0  2  0  0  0  0  0  0
  186.9020  168.7080  134.5720 O   0  0  0  0  0  0  0  0  0  0  0  0
  187.3040  170.9940  134.9100 C   0  0  2  0  0  3  0  0  0  0  0  0
  185.5210  173.1880  135.4460 C   0  0  0  0  0  2  0  0  0  0  0  0
  189.1690  169.4680  134.3550 C   0  0  0  0  0  1  0  0  0  0  0  0
  186.9320  173.1380  136.0350 C   0  0  0  0  0  0  0  0  0  0  0  0
  185.8660  170.7430  135.1020 C   0  0  1  0  0  3  0  0  0  0  0  0
  187.8570  169.6120  135.1020 C   0  0  2  0  0  3  0  0  0  0  0  0
  187.7410  172.0700  135.8530 C   0  0  0  0  0  3  0  0  0  0  0  0
  185.1340  171.9650  134.5760 C   0  0  0  0  0  2  0  0  0  0  0  0
  1 16  2  0  0  0  0
  1  7  1  0  0  0  0
  2  3  1  0  0  0  0
  2 11  1  0  0  0  0
  3 12  1  0  0  0  0
  4  9  1  0  0  0  0
  4  3  2  0  0  0  0
  5 26  1  1  0  0  0
  6 13  1  0  0  0  0
  7  2  2  0  0  0  0
  8  5  1  0  0  0  0
  9 21  1  0  0  0  0
  9 35  1  1  0  0  0
 10 23  1  6  0  0  0
 10 14  1  0  0  0  0
 11 20  2  0  0  0  0
 12 20  1  0  0  0  0
 13  8  1  0  0  0  0
 14 18  1  6  0  0  0
 14 19  1  0  0  0  0
 15  5  1  0  0  0  0
 16  4  1  0  0  0  0
 17 21  2  0  0  0  0
 19 15  1  0  0  0  0
 20  6  1  0  0  0  0
 21 10  1  0  0  0  0
 23 22  1  0  0  0  0
 24  7  1  0  0  0  0
 25 24  1  0  0  0  0
 26 27  1  0  0  0  0
 27 29  1  0  0  0  0
 27 28  1  0  0  0  0
 29 34  1  0  0  0  0
 30 34  1  0  0  0  0
 30 32  1  0  0  0  0
 31 33  1  0  0  0  0
 32 33  1  0  0  0  0
 34 31  1  0  0  0  0
 36 37  1  0  0  0  0
 37 43  1  0  0  0  0
 38 43  1  0  0  0  0
 38 42  1  0  0  0  0
 38 44  1  1  0  0  0
 39 41  1  0  0  0  0
 41 35  1  0  0  0  0
 42 36  1  6  0  0  0
 43 40  1  6  0  0  0
 44 41  2  0  0  0  0
 45 42  1  0  0  0  0
 45 39  1  0  0  0  0
M  END
>  <MODEL>
1

>  <REMARK>
 VINA RESULT:      -6.5      0.000      0.000
  Name = 
  8 active torsions:
  status: ('A' for Active; 'I' for Inactive)
    1  A    between atoms: C_7  and  C_11
    2  A    between atoms: C_7  and  N_18
    3  A    between atoms: C_13  and  O_34
    4  A    between atoms: N_18  and  C_22
    5  A    between atoms: C_21  and  C_44
    6  A    between atoms: C_22  and  C_26
    7  A    between atoms: C_23  and  C_44
    8  A    between atoms: C_24  and  C_42
                            x       y       z     vdW  Elec       q    Type
                         _______ _______ _______ _____ _____    ______ ____

>  <TORSDO>
F 8

$$$$
=
 OpenBabel10232409473D

 45 50  0  0  1  0  0  0  0  0999 V2000
  192.5900  175.4870  134.9810 C   0  0  0  0  0  3  0  0  0  0  0  0
  192.1390  175.9660  137.2880 C   0  0  0  0  0  0  0  0  0  0  0  0
  190.9240  175.3480  137.1880 C   0  0  0  0  0  0  0  0  0  0  0  0
  190.4710  174.7900  135.9850 C   0  0  0  0  0  0  0  0  0  0  0  0
  188.0980  178.7080  140.8050 C   0  0  1  0  0  3  0  0  0  0  0  0
  190.7890  176.5760  140.5100 C   0  0  0  0  0  2  0  0  0  0  0  0
  193.0170  176.0550  136.1940 C   0  0  0  0  0  0  0  0  0  0  0  0
  189.2700  177.9320  141.3840 C   0  0  0  0  0  2  0  0  0  0  0  0
  189.1090  174.1690  135.8240 C   0  0  2  0  0  3  0  0  0  0  0  0
  188.1140  176.5420  136.3640 C   0  0  1  0  0  3  0  0  0  0  0  0
  192.2900  176.4760  138.5210 N   0  0  0  0  0  0  0  0  0  0  0  0
  190.2630  175.4400  138.3530 N   0  0  0  0  0  2  0  0  0  0  0  0
  190.3100  177.8850  140.4540 O   0  0  0  0  0  0  0  0  0  0  0  0
  187.2810  176.7290  137.6330 C   0  0  2  0  0  3  0  0  0  0  0  0
  187.2830  177.8150  139.8810 C   0  0  0  0  0  2  0  0  0  0  0  0
  191.3280  174.8650  134.8750 C   0  0  0  0  0  3  0  0  0  0  0  0
  186.9100  174.8280  135.2690 O   0  0  0  0  0  0  0  0  0  0  0  0
  185.9440  177.0110  137.3320 O   0  0  0  0  0  1  0  0  0  0  0  0
  187.8820  177.8330  138.4840 C   0  0  0  0  0  2  0  0  0  0  0  0
  191.1340  176.1250  139.1350 C   0  0  0  0  0  0  0  0  0  0  0  0
  187.9710  175.1630  135.7750 C   0  0  0  0  0  0  0  0  0  0  0  0
  189.2120  177.9510  134.7380 O   0  0  0  0  0  1  0  0  0  0  0  0
  187.9840  177.6640  135.3350 C   0  0  0  0  0  2  0  0  0  0  0  0
  194.2710  176.6780  136.2440 O   0  0  0  0  0  0  0  0  0  0  0  0
  195.3240  176.4150  135.3290 C   0  0  0  0  0  1  0  0  0  0  0  0
  187.2170  179.2170  141.9380 C   0  0  0  0  0  2  0  0  0  0  0  0
  186.0390  178.3670  142.0820 N   0  0  0  0  0  0  0  0  0  0  0  0
  186.0110  177.8200  143.4310 C   0  0  0  0  0  1  0  0  0  0  0  0
  184.8090  179.1140  141.7560 C   0  0  0  0  0  2  0  0  0  0  0  0
  182.8630  178.7330  143.3790 C   0  0  0  0  0  2  0  0  0  0  0  0
  182.3780  178.6690  140.9860 C   0  0  0  0  0  2  0  0  0  0  0  0
  181.3570  178.8080  143.1780 C   0  0  0  0  0  2  0  0  0  0  0  0
  181.0790  178.4420  141.7300 C   0  0  0  0  0  2  0  0  0  0  0  0
  183.4560  178.4170  142.0190 C   0  0  0  0  0  3  0  0  0  0  0  0
  188.8640  173.0590  136.8420 C   0  0  0  0  0  2  0  0  0  0  0  0
  184.6230  170.1950  134.3510 C   0  0  0  0  0  2  0  0  0  0  0  0
  183.5550  170.9560  134.8850 O   0  0  0  0  0  0  0  0  0  0  0  0
  185.5150  171.3450  136.1110 C   0  0  2  0  0  3  0  0  0  0  0  0
  188.2880  170.9300  135.4610 C   0  0  0  0  0  2  0  0  0  0  0  0
  183.3030  171.7530  137.1350 C   0  0  0  0  0  1  0  0  0  0  0  0
  187.8360  172.0940  136.3460 C   0  0  0  0  0  0  0  0  0  0  0  0
  185.8950  170.8780  134.7660 C   0  0  1  0  0  3  0  0  0  0  0  0
  184.1150  171.8220  135.8570 C   0  0  2  0  0  3  0  0  0  0  0  0
  186.5280  172.3390  136.5840 C   0  0  0  0  0  3  0  0  0  0  0  0
  187.1420  170.0300  134.9330 C   0  0  0  0  0  2  0  0  0  0  0  0
  1  7  1  0  0  0  0
  2 11  1  0  0  0  0
  3  2  1  0  0  0  0
  3 12  1  0  0  0  0
  4  3  2  0  0  0  0
  5  8  1  0  0  0  0
  5 26  1  1  0  0  0
  7 24  1  0  0  0  0
  7  2  2  0  0  0  0
  9  4  1  0  0  0  0
  9 35  1  1  0  0  0
 10 23  1  6  0  0  0
 10 14  1  0  0  0  0
 11 20  2  0  0  0  0
 12 20  1  0  0  0  0
 13  6  1  0  0  0  0
 13  8  1  0  0  0  0
 14 18  1  6  0  0  0
 14 19  1  0  0  0  0
 15  5  1  0  0  0  0
 16  1  2  0  0  0  0
 16  4  1  0  0  0  0
 17 21  2  0  0  0  0
 19 15  1  0  0  0  0
 20  6  1  0  0  0  0
 21  9  1  0  0  0  0
 21 10  1  0  0  0  0
 22 23  1  0  0  0  0
 25 24  1  0  0  0  0
 26 27  1  0  0  0  0
 27 28  1  0  0  0  0
 29 34  1  0  0  0  0
 29 27  1  0  0  0  0
 31 33  1  0  0  0  0
 31 34  1  0  0  0  0
 32 30  1  0  0  0  0
 33 32  1  0  0  0  0
 34 30  1  0  0  0  0
 36 37  1  0  0  0  0
 37 43  1  0  0  0  0
 38 44  1  6  0  0  0
 39 41  1  0  0  0  0
 41 44  2  0  0  0  0
 41 35  1  0  0  0  0
 42 36  1  1  0  0  0
 42 45  1  0  0  0  0
 42 38  1  0  0  0  0
 43 38  1  0  0  0  0
 43 40  1  1  0  0  0
 45 39  1  0  0  0  0
M  END
>  <MODEL>
2

>  <REMARK>
 VINA RESULT:      -5.8      2.123      3.004
  Name = 
  8 active torsions:
  status: ('A' for Active; 'I' for Inactive)
    1  A    between atoms: C_7  and  C_11
    2  A    between atoms: C_7  and  N_18
    3  A    between atoms: C_13  and  O_34
    4  A    between atoms: N_18  and  C_22
    5  A    between atoms: C_21  and  C_44
    6  A    between atoms: C_22  and  C_26
    7  A    between atoms: C_23  and  C_44
    8  A    between atoms: C_24  and  C_42
                            x       y       z     vdW  Elec       q    Type
                         _______ _______ _______ _____ _____    ______ ____

>  <TORSDO>
F 8

$$$$
=
 OpenBabel10232409473D

 45 50  0  0  1  0  0  0  0  0999 V2000
  190.5340  176.2330  134.3460 C   0  0  0  0  0  3  0  0  0  0  0  0
  191.2940  176.0990  136.6180 C   0  0  0  0  0  0  0  0  0  0  0  0
  190.0280  175.7970  137.0330 C   0  0  0  0  0  0  0  0  0  0  0  0
  188.9510  175.7190  136.1400 C   0  0  0  0  0  0  0  0  0  0  0  0
  190.2560  178.4570  142.0560 C   0  0  1  0  0  3  0  0  0  0  0  0
  191.7280  176.0030  140.1360 C   0  0  0  0  0  2  0  0  0  0  0  0
  191.5960  176.3230  135.2630 C   0  0  0  0  0  0  0  0  0  0  0  0
  191.2500  177.3250  141.8500 C   0  0  0  0  0  2  0  0  0  0  0  0
  187.5340  175.4620  136.5750 C   0  0  2  0  0  3  0  0  0  0  0  0
  187.6770  177.7250  137.9060 C   0  0  1  0  0  3  0  0  0  0  0  0
  192.1130  176.1850  137.6790 N   0  0  0  0  0  0  0  0  0  0  0  0
  189.9980  175.6780  138.3700 N   0  0  0  0  0  2  0  0  0  0  0  0
  191.7150  177.3410  140.5340 O   0  0  0  0  0  0  0  0  0  0  0  0
  187.5760  177.6990  139.4320 C   0  0  2  0  0  3  0  0  0  0  0  0
  188.8870  178.0580  141.5260 C   0  0  0  0  0  2  0  0  0  0  0  0
  189.2240  175.9390  134.7790 C   0  0  0  0  0  3  0  0  0  0  0  0
  185.6450  176.6870  137.2910 O   0  0  0  0  0  0  0  0  0  0  0  0
  186.4070  178.3220  139.8790 O   0  0  0  0  0  1  0  0  0  0  0  0
  188.8010  178.3600  140.0400 C   0  0  0  0  0  2  0  0  0  0  0  0
  191.2870  175.9130  138.7180 C   0  0  0  0  0  0  0  0  0  0  0  0
  186.8660  176.6370  137.2530 C   0  0  0  0  0  0  0  0  0  0  0  0
  187.6500  179.0480  135.8850 O   0  0  0  0  0  1  0  0  0  0  0  0
  187.4830  179.1000  137.2700 C   0  0  0  0  0  2  0  0  0  0  0  0
  192.8760  176.6360  134.7870 O   0  0  0  0  0  0  0  0  0  0  0  0
  193.8430  175.6650  134.4140 C   0  0  0  0  0  1  0  0  0  0  0  0
  190.1590  178.7810  143.5420 C   0  0  0  0  0  2  0  0  0  0  0  0
  189.3340  177.7870  144.2210 N   0  0  0  0  0  0  0  0  0  0  0  0
  190.2010  176.8500  144.9220 C   0  0  0  0  0  1  0  0  0  0  0  0
  188.3670  178.4360  145.1270 C   0  0  0  0  0  2  0  0  0  0  0  0
  186.0550  178.4740  146.2290 C   0  0  0  0  0  2  0  0  0  0  0  0
  186.1550  178.1910  143.8060 C   0  0  0  0  0  2  0  0  0  0  0  0
  184.6670  178.6990  145.6490 C   0  0  0  0  0  2  0  0  0  0  0  0
  184.6970  178.2030  144.2130 C   0  0  0  0  0  2  0  0  0  0  0  0
  186.9070  177.9360  145.0960 C   0  0  0  0  0  3  0  0  0  0  0  0
  187.4100  174.1770  137.3890 C   0  0  0  0  0  2  0  0  0  0  0  0
  183.4730  171.4130  134.3470 C   0  0  0  0  0  2  0  0  0  0  0  0
  182.3770  172.2460  134.6720 O   0  0  0  0  0  0  0  0  0  0  0  0
  184.1340  172.5950  136.1850 C   0  0  2  0  0  3  0  0  0  0  0  0
  186.9480  172.0200  136.0100 C   0  0  0  0  0  2  0  0  0  0  0  0
  181.8110  173.1530  136.8210 C   0  0  0  0  0  1  0  0  0  0  0  0
  186.4240  173.2420  136.7670 C   0  0  0  0  0  0  0  0  0  0  0  0
  184.6980  172.0520  134.9380 C   0  0  1  0  0  3  0  0  0  0  0  0
  182.8200  173.1270  135.6910 C   0  0  2  0  0  3  0  0  0  0  0  0
  185.1100  173.5600  136.7810 C   0  0  0  0  0  3  0  0  0  0  0  0
  185.8540  171.1530  135.3360 C   0  0  0  0  0  2  0  0  0  0  0  0
  1 16  2  0  0  0  0
  1  7  1  0  0  0  0
  2  3  1  0  0  0  0
  2 11  1  0  0  0  0
  3 12  1  0  0  0  0
  4  9  1  0  0  0  0
  4  3  2  0  0  0  0
  5 26  1  1  0  0  0
  6 13  1  0  0  0  0
  7  2  2  0  0  0  0
  8  5  1  0  0  0  0
  9 21  1  0  0  0  0
  9 35  1  1  0  0  0
 10 23  1  6  0  0  0
 10 14  1  0  0  0  0
 11 20  2  0  0  0  0
 12 20  1  0  0  0  0
 13  8  1  0  0  0  0
 14 18  1  6  0  0  0
 14 19  1  0  0  0  0
 15  5  1  0  0  0  0
 16  4  1  0  0  0  0
 19 15  1  0  0  0  0
 20  6  1  0  0  0  0
 21 17  2  0  0  0  0
 21 10  1  0  0  0  0
 22 23  1  0  0  0  0
 24  7  1  0  0  0  0
 25 24  1  0  0  0  0
 26 27  1  0  0  0  0
 27 28  1  0  0  0  0
 27 29  1  0  0  0  0
 31 33  1  0  0  0  0
 31 34  1  0  0  0  0
 32 30  1  0  0  0  0
 33 32  1  0  0  0  0
 34 29  1  0  0  0  0
 34 30  1  0  0  0  0
 36 37  1  0  0  0  0
 37 43  1  0  0  0  0
 38 44  1  6  0  0  0
 39 41  1  0  0  0  0
 41 44  2  0  0  0  0
 41 35  1  0  0  0  0
 42 36  1  1  0  0  0
 42 45  1  0  0  0  0
 42 38  1  0  0  0  0
 43 38  1  0  0  0  0
 43 40  1  1  0  0  0
 45 39  1  0  0  0  0
M  END
>  <MODEL>
3

>  <REMARK>
 VINA RESULT:      -5.5      1.359      2.222
  Name = 
  8 active torsions:
  status: ('A' for Active; 'I' for Inactive)
    1  A    between atoms: C_7  and  C_11
    2  A    between atoms: C_7  and  N_18
    3  A    between atoms: C_13  and  O_34
    4  A    between atoms: N_18  and  C_22
    5  A    between atoms: C_21  and  C_44
    6  A    between atoms: C_22  and  C_26
    7  A    between atoms: C_23  and  C_44
    8  A    between atoms: C_24  and  C_42
                            x       y       z     vdW  Elec       q    Type
                         _______ _______ _______ _____ _____    ______ ____

>  <TORSDO>
F 8

$$$$
=
 OpenBabel10232409473D

 45 50  0  0  1  0  0  0  0  0999 V2000
  191.1840  176.0030  134.3480 C   0  0  0  0  0  3  0  0  0  0  0  0
  191.2110  176.1810  136.7410 C   0  0  0  0  0  0  0  0  0  0  0  0
  189.9260  175.7200  136.7980 C   0  0  0  0  0  0  0  0  0  0  0  0
  189.1980  175.4000  135.6440 C   0  0  0  0  0  0  0  0  0  0  0  0
  188.2500  178.7930  141.2820 C   0  0  1  0  0  3  0  0  0  0  0  0
  190.5380  176.4490  140.2120 C   0  0  0  0  0  2  0  0  0  0  0  0
  191.8890  176.3360  135.5190 C   0  0  0  0  0  0  0  0  0  0  0  0
  189.3910  177.8180  141.5240 C   0  0  0  0  0  2  0  0  0  0  0  0
  187.7590  174.9610  135.6690 C   0  0  2  0  0  3  0  0  0  0  0  0
  187.2010  177.3210  136.6840 C   0  0  1  0  0  3  0  0  0  0  0  0
  191.6420  176.4830  137.9760 N   0  0  0  0  0  0  0  0  0  0  0  0
  189.4960  175.7100  138.0700 N   0  0  0  0  0  2  0  0  0  0  0  0
  190.2360  177.7970  140.4140 O   0  0  0  0  0  0  0  0  0  0  0  0
  186.6340  177.4070  138.1020 C   0  0  2  0  0  3  0  0  0  0  0  0
  187.1740  178.1420  140.4260 C   0  0  0  0  0  2  0  0  0  0  0  0
  189.8520  175.5450  134.4080 C   0  0  0  0  0  3  0  0  0  0  0  0
  185.6050  175.9300  135.6330 O   0  0  0  0  0  0  0  0  0  0  0  0
  185.3160  177.8750  138.1000 O   0  0  0  0  0  1  0  0  0  0  0  0
  187.5170  178.3010  138.9550 C   0  0  0  0  0  2  0  0  0  0  0  0
  190.5740  176.1720  138.7500 C   0  0  0  0  0  0  0  0  0  0  0  0
  186.7730  176.0690  135.9640 C   0  0  0  0  0  0  0  0  0  0  0  0
  187.5780  178.4270  134.5690 O   0  0  0  0  0  1  0  0  0  0  0  0
  187.0450  178.5910  135.8490 C   0  0  0  0  0  2  0  0  0  0  0  0
  193.2040  176.8040  135.4060 O   0  0  0  0  0  0  0  0  0  0  0  0
  194.3540  176.0040  135.6370 C   0  0  0  0  0  1  0  0  0  0  0  0
  187.6560  179.2220  142.6180 C   0  0  0  0  0  2  0  0  0  0  0  0
  186.6260  178.2770  143.0370 N   0  0  0  0  0  0  0  0  0  0  0  0
  187.1790  177.3910  144.0520 C   0  0  0  0  0  1  0  0  0  0  0  0
  185.4230  178.9870  143.5120 C   0  0  0  0  0  2  0  0  0  0  0  0
  182.8970  178.9640  143.9390 C   0  0  0  0  0  2  0  0  0  0  0  0
  183.6690  178.5510  141.6590 C   0  0  0  0  0  2  0  0  0  0  0  0
  181.7150  179.0830  142.9880 C   0  0  0  0  0  2  0  0  0  0  0  0
  182.1560  178.5090  141.6530 C   0  0  0  0  0  2  0  0  0  0  0  0
  184.0460  178.4090  143.1190 C   0  0  0  0  0  3  0  0  0  0  0  0
  187.5490  173.7450  136.5670 C   0  0  0  0  0  2  0  0  0  0  0  0
  186.8980  168.5180  134.4120 C   0  0  0  0  0  2  0  0  0  0  0  0
  188.1760  168.0200  134.7610 O   0  0  0  0  0  0  0  0  0  0  0  0
  188.1630  170.3620  134.8770 C   0  0  2  0  0  3  0  0  0  0  0  0
  186.0040  172.2510  135.1010 C   0  0  0  0  0  2  0  0  0  0  0  0
  190.2900  169.1400  134.5690 C   0  0  0  0  0  1  0  0  0  0  0  0
  187.3630  172.5040  135.7550 C   0  0  0  0  0  0  0  0  0  0  0  0
  186.7790  169.8830  135.0290 C   0  0  1  0  0  3  0  0  0  0  0  0
  188.9290  169.1220  135.2370 C   0  0  2  0  0  3  0  0  0  0  0  0
  188.3510  171.5820  135.7220 C   0  0  0  0  0  3  0  0  0  0  0  0
  185.8850  170.9020  134.3460 C   0  0  0  0  0  2  0  0  0  0  0  0
  1 16  2  0  0  0  0
  1  7  1  0  0  0  0
  2  3  1  0  0  0  0
  2 11  1  0  0  0  0
  3 12  1  0  0  0  0
  4  9  1  0  0  0  0
  4  3  2  0  0  0  0
  5  8  1  0  0  0  0
  5 26  1  1  0  0  0
  6 13  1  0  0  0  0
  7  2  2  0  0  0  0
  9 21  1  0  0  0  0
  9 35  1  1  0  0  0
 10 23  1  6  0  0  0
 10 14  1  0  0  0  0
 11 20  2  0  0  0  0
 12 20  1  0  0  0  0
 13  8  1  0  0  0  0
 14 18  1  6  0  0  0
 14 19  1  0  0  0  0
 15  5  1  0  0  0  0
 16  4  1  0  0  0  0
 17 21  2  0  0  0  0
 19 15  1  0  0  0  0
 20  6  1  0  0  0  0
 21 10  1  0  0  0  0
 22 23  1  0  0  0  0
 24  7  1  0  0  0  0
 24 25  1  0  0  0  0
 26 27  1  0  0  0  0
 27 29  1  0  0  0  0
 27 28  1  0  0  0  0
 31 34  1  0  0  0  0
 32 30  1  0  0  0  0
 33 31  1  0  0  0  0
 33 32  1  0  0  0  0
 34 29  1  0  0  0  0
 34 30  1  0  0  0  0
 36 37  1  0  0  0  0
 36 42  1  0  0  0  0
 37 43  1  0  0  0  0
 38 42  1  0  0  0  0
 38 43  1  0  0  0  0
 38 44  1  1  0  0  0
 39 41  1  0  0  0  0
 41 35  1  0  0  0  0
 42 45  1  6  0  0  0
 43 40  1  6  0  0  0
 44 41  2  0  0  0  0
 45 39  1  0  0  0  0
M  END
>  <MODEL>
4

>  <REMARK>
 VINA RESULT:      -5.4      1.602      2.081
  Name = 
  8 active torsions:
  status: ('A' for Active; 'I' for Inactive)
    1  A    between atoms: C_7  and  C_11
    2  A    between atoms: C_7  and  N_18
    3  A    between atoms: C_13  and  O_34
    4  A    between atoms: N_18  and  C_22
    5  A    between atoms: C_21  and  C_44
    6  A    between atoms: C_22  and  C_26
    7  A    between atoms: C_23  and  C_44
    8  A    between atoms: C_24  and  C_42
                            x       y       z     vdW  Elec       q    Type
                         _______ _______ _______ _____ _____    ______ ____

>  <TORSDO>
F 8

$$$$
=
 OpenBabel10232409473D

 45 50  0  0  1  0  0  0  0  0999 V2000
  191.2050  175.7170  134.3470 C   0  0  0  0  0  3  0  0  0  0  0  0
  191.5240  175.7530  136.7240 C   0  0  0  0  0  0  0  0  0  0  0  0
  190.1950  175.4950  136.9150 C   0  0  0  0  0  0  0  0  0  0  0  0
  189.3030  175.3570  135.8430 C   0  0  0  0  0  0  0  0  0  0  0  0
  189.5410  178.5330  141.6800 C   0  0  1  0  0  3  0  0  0  0  0  0
  191.2900  175.9250  140.2580 C   0  0  0  0  0  2  0  0  0  0  0  0
  192.0790  175.8690  135.4380 C   0  0  0  0  0  0  0  0  0  0  0  0
  190.5290  177.3790  141.7480 C   0  0  0  0  0  2  0  0  0  0  0  0
  187.8240  175.1470  136.0210 C   0  0  2  0  0  3  0  0  0  0  0  0
  187.7680  177.5040  137.1840 C   0  0  1  0  0  3  0  0  0  0  0  0
  192.1310  175.9140  137.9110 N   0  0  0  0  0  0  0  0  0  0  0  0
  189.9130  175.4800  138.2270 N   0  0  0  0  0  2  0  0  0  0  0  0
  191.2330  177.2900  140.5460 O   0  0  0  0  0  0  0  0  0  0  0  0
  187.3820  177.5970  138.6610 C   0  0  2  0  0  3  0  0  0  0  0  0
  188.2870  178.1060  140.9320 C   0  0  0  0  0  2  0  0  0  0  0  0
  189.8310  175.4690  134.5450 C   0  0  0  0  0  3  0  0  0  0  0  0
  185.8630  176.4400  136.2760 O   0  0  0  0  0  0  0  0  0  0  0  0
  186.1650  178.2630  138.8330 O   0  0  0  0  0  1  0  0  0  0  0  0
  188.4860  178.2930  139.4380 C   0  0  0  0  0  2  0  0  0  0  0  0
  191.1190  175.7300  138.7930 C   0  0  0  0  0  0  0  0  0  0  0  0
  187.0680  176.3760  136.4720 C   0  0  0  0  0  0  0  0  0  0  0  0
  188.9930  179.4130  136.3510 O   0  0  0  0  0  1  0  0  0  0  0  0
  187.7280  178.8280  136.4220 C   0  0  0  0  0  2  0  0  0  0  0  0
  193.4320  176.1330  135.1890 O   0  0  0  0  0  0  0  0  0  0  0  0
  194.4550  175.1500  135.2410 C   0  0  0  0  0  1  0  0  0  0  0  0
  189.1750  178.9720  143.0920 C   0  0  0  0  0  2  0  0  0  0  0  0
  190.1720  178.4900  144.0430 N   0  0  0  0  0  0  0  0  0  0  0  0
  191.2160  179.4950  144.1850 C   0  0  0  0  0  1  0  0  0  0  0  0
  189.5450  178.1510  145.3350 C   0  0  0  0  0  2  0  0  0  0  0  0
  191.4420  176.4470  145.5830 C   0  0  0  0  0  2  0  0  0  0  0  0
  190.2490  177.1220  147.6040 C   0  0  0  0  0  2  0  0  0  0  0  0
  192.2370  175.9960  146.7990 C   0  0  0  0  0  2  0  0  0  0  0  0
  191.3260  176.1370  148.0060 C   0  0  0  0  0  2  0  0  0  0  0  0
  190.1060  176.9370  146.1070 C   0  0  0  0  0  3  0  0  0  0  0  0
  187.5210  173.9300  136.8900 C   0  0  0  0  0  2  0  0  0  0  0  0
  186.0840  168.9120  134.6210 C   0  0  0  0  0  2  0  0  0  0  0  0
  187.2150  168.1840  135.0640 O   0  0  0  0  0  0  0  0  0  0  0  0
  187.6290  170.4880  135.2100 C   0  0  2  0  0  3  0  0  0  0  0  0
  185.8480  172.7470  135.2870 C   0  0  0  0  0  2  0  0  0  0  0  0
  189.5090  168.8910  135.0550 C   0  0  0  0  0  1  0  0  0  0  0  0
  187.1740  172.7440  136.0500 C   0  0  0  0  0  0  0  0  0  0  0  0
  186.1720  170.2760  135.2450 C   0  0  1  0  0  3  0  0  0  0  0  0
  188.1200  169.1280  135.6130 C   0  0  2  0  0  3  0  0  0  0  0  0
  187.9720  171.6530  136.0830 C   0  0  0  0  0  3  0  0  0  0  0  0
  185.5410  171.4430  134.5070 C   0  0  0  0  0  2  0  0  0  0  0  0
  1 16  2  0  0  0  0
  1  7  1  0  0  0  0
  2  3  1  0  0  0  0
  2 11  1  0  0  0  0
  3 12  1  0  0  0  0
  4  9  1  0  0  0  0
  4  3  2  0  0  0  0
  5  8  1  0  0  0  0
  5 26  1  1  0  0  0
  6 13  1  0  0  0  0
  7  2  2  0  0  0  0
  9 21  1  0  0  0  0
  9 35  1  1  0  0  0
 10 23  1  6  0  0  0
 10 14  1  0  0  0  0
 11 20  2  0  0  0  0
 12 20  1  0  0  0  0
 13  8  1  0  0  0  0
 14 18  1  6  0  0  0
 14 19  1  0  0  0  0
 15  5  1  0  0  0  0
 16  4  1  0  0  0  0
 17 21  2  0  0  0  0
 19 15  1  0  0  0  0
 20  6  1  0  0  0  0
 21 10  1  0  0  0  0
 22 23  1  0  0  0  0
 24 25  1  0  0  0  0
 24  7  1  0  0  0  0
 26 27  1  0  0  0  0
 27 28  1  0  0  0  0
 27 29  1  0  0  0  0
 29 34  1  0  0  0  0
 30 34  1  0  0  0  0
 30 32  1  0  0  0  0
 31 33  1  0  0  0  0
 32 33  1  0  0  0  0
 34 31  1  0  0  0  0
 36 37  1  0  0  0  0
 36 42  1  0  0  0  0
 37 43  1  0  0  0  0
 38 42  1  0  0  0  0
 38 43  1  0  0  0  0
 38 44  1  1  0  0  0
 39 41  1  0  0  0  0
 41 44  2  0  0  0  0
 41 35  1  0  0  0  0
 42 45  1  6  0  0  0
 43 40  1  6  0  0  0
 45 39  1  0  0  0  0
M  END
>  <MODEL>
5

>  <REMARK>
 VINA RESULT:      -5.1      1.436      2.074
  Name = 
  8 active torsions:
  status: ('A' for Active; 'I' for Inactive)
    1  A    between atoms: C_7  and  C_11
    2  A    between atoms: C_7  and  N_18
    3  A    between atoms: C_13  and  O_34
    4  A    between atoms: N_18  and  C_22
    5  A    between atoms: C_21  and  C_44
    6  A    between atoms: C_22  and  C_26
    7  A    between atoms: C_23  and  C_44
    8  A    between atoms: C_24  and  C_42
                            x       y       z     vdW  Elec       q    Type
                         _______ _______ _______ _____ _____    ______ ____

>  <TORSDO>
F 8

$$$$
=
 OpenBabel10232409473D

 45 50  0  0  1  0  0  0  0  0999 V2000
  183.5560  178.4530  140.3200 C   0  0  0  0  0  3  0  0  0  0  0  0
  185.4830  178.3960  138.8910 C   0  0  0  0  0  0  0  0  0  0  0  0
  184.7080  177.9680  137.8490 C   0  0  0  0  0  0  0  0  0  0  0  0
  183.3320  177.7410  137.9900 C   0  0  0  0  0  0  0  0  0  0  0  0
  188.5970  174.6400  135.3680 C   0  0  1  0  0  3  0  0  0  0  0  0
  187.9330  177.8660  136.3830 C   0  0  0  0  0  2  0  0  0  0  0  0
  184.9380  178.6580  140.1600 C   0  0  0  0  0  0  0  0  0  0  0  0
  188.9420  176.1180  135.4680 C   0  0  0  0  0  2  0  0  0  0  0  0
  182.4670  177.2000  136.8840 C   0  0  2  0  0  3  0  0  0  0  0  0
  183.9420  175.0260  136.9790 C   0  0  1  0  0  3  0  0  0  0  0  0
  186.7680  178.4580  138.5070 N   0  0  0  0  0  0  0  0  0  0  0  0
  185.4720  177.7470  136.7680 N   0  0  0  0  0  2  0  0  0  0  0  0
  188.4930  176.6240  136.6880 O   0  0  0  0  0  0  0  0  0  0  0  0
  184.7900  174.6480  135.7640 C   0  0  2  0  0  3  0  0  0  0  0  0
  187.1440  174.4670  134.9510 C   0  0  0  0  0  2  0  0  0  0  0  0
  182.7620  177.9950  139.2490 C   0  0  0  0  0  3  0  0  0  0  0  0
  181.7810  175.1090  136.0250 O   0  0  0  0  0  0  0  0  0  0  0  0
  184.3350  173.4680  135.1670 O   0  0  0  0  0  1  0  0  0  0  0  0
  186.2460  174.5120  136.1760 C   0  0  0  0  0  2  0  0  0  0  0  0
  186.7130  178.0650  137.2110 C   0  0  0  0  0  0  0  0  0  0  0  0
  182.6650  175.7290  136.5980 C   0  0  0  0  0  0  0  0  0  0  0  0
  183.6400  172.6620  137.3790 O   0  0  0  0  0  1  0  0  0  0  0  0
  183.7450  173.9070  138.0010 C   0  0  0  0  0  2  0  0  0  0  0  0
  185.6880  179.0970  141.2590 O   0  0  0  0  0  0  0  0  0  0  0  0
  185.3010  178.9050  142.6110 C   0  0  0  0  0  1  0  0  0  0  0  0
  189.5100  173.9740  134.3460 C   0  0  0  0  0  2  0  0  0  0  0  0
  190.5480  173.2050  135.0240 N   0  0  0  0  0  0  0  0  0  0  0  0
  190.4380  171.8070  134.6300 C   0  0  0  0  0  1  0  0  0  0  0  0
  191.8850  173.7610  134.7390 C   0  0  0  0  0  2  0  0  0  0  0  0
  192.6260  176.0190  135.6990 C   0  0  0  0  0  2  0  0  0  0  0  0
  192.0950  174.2320  137.2760 C   0  0  0  0  0  2  0  0  0  0  0  0
  192.4840  176.6150  137.0910 C   0  0  0  0  0  2  0  0  0  0  0  0
  192.4800  175.4580  138.0750 C   0  0  0  0  0  2  0  0  0  0  0  0
  192.6070  174.5120  135.8790 C   0  0  0  0  0  3  0  0  0  0  0  0
  182.5560  178.0520  135.6210 C   0  0  0  0  0  2  0  0  0  0  0  0
  179.9820  183.0980  136.1690 C   0  0  0  0  0  2  0  0  0  0  0  0
  180.2510  183.2890  137.5460 O   0  0  0  0  0  0  0  0  0  0  0  0
  180.5660  181.0390  136.9650 C   0  0  2  0  0  3  0  0  0  0  0  0
  181.0110  179.7680  134.4220 C   0  0  0  0  0  2  0  0  0  0  0  0
  180.0950  181.6670  139.3090 C   0  0  0  0  0  1  0  0  0  0  0  0
  181.6470  179.2350  135.7070 C   0  0  0  0  0  0  0  0  0  0  0  0
  180.7160  181.8570  135.7490 C   0  0  1  0  0  3  0  0  0  0  0  0
  180.7970  182.0730  138.0280 C   0  0  2  0  0  3  0  0  0  0  0  0
  181.5070  179.8780  136.8890 C   0  0  0  0  0  3  0  0  0  0  0  0
  180.1480  181.0430  134.6010 C   0  0  0  0  0  2  0  0  0  0  0  0
  2  7  2  0  0  0  0
  3  4  2  0  0  0  0
  3  2  1  0  0  0  0
  4 16  1  0  0  0  0
  5 26  1  6  0  0  0
  5  8  1  0  0  0  0
  6 13  1  0  0  0  0
  6 20  1  0  0  0  0
  7  1  1  0  0  0  0
  7 24  1  0  0  0  0
  8 13  1  0  0  0  0
  9 35  1  6  0  0  0
  9  4  1  0  0  0  0
 10 23  1  6  0  0  0
 11  2  1  0  0  0  0
 12 20  1  0  0  0  0
 12  3  1  0  0  0  0
 14 18  1  1  0  0  0
 14 19  1  0  0  0  0
 14 10  1  0  0  0  0
 15  5  1  0  0  0  0
 15 19  1  0  0  0  0
 16  1  2  0  0  0  0
 17 21  2  0  0  0  0
 20 11  2  0  0  0  0
 21  9  1  0  0  0  0
 21 10  1  0  0  0  0
 22 23  1  0  0  0  0
 24 25  1  0  0  0  0
 26 27  1  0  0  0  0
 28 27  1  0  0  0  0
 29 27  1  0  0  0  0
 29 34  1  0  0  0  0
 30 34  1  0  0  0  0
 30 32  1  0  0  0  0
 31 33  1  0  0  0  0
 32 33  1  0  0  0  0
 34 31  1  0  0  0  0
 35 41  1  0  0  0  0
 36 37  1  0  0  0  0
 37 43  1  0  0  0  0
 38 44  1  6  0  0  0
 38 43  1  0  0  0  0
 39 45  1  0  0  0  0
 39 41  1  0  0  0  0
 41 44  2  0  0  0  0
 42 45  1  6  0  0  0
 42 36  1  0  0  0  0
 42 38  1  0  0  0  0
 43 40  1  1  0  0  0
M  END
>  <MODEL>
6

>  <REMARK>
 VINA RESULT:      -4.9      4.432      9.484
  Name = 
  8 active torsions:
  status: ('A' for Active; 'I' for Inactive)
    1  A    between atoms: C_7  and  C_11
    2  A    between atoms: C_7  and  N_18
    3  A    between atoms: C_13  and  O_34
    4  A    between atoms: N_18  and  C_22
    5  A    between atoms: C_21  and  C_44
    6  A    between atoms: C_22  and  C_26
    7  A    between atoms: C_23  and  C_44
    8  A    between atoms: C_24  and  C_42
                            x       y       z     vdW  Elec       q    Type
                         _______ _______ _______ _____ _____    ______ ____

>  <TORSDO>
F 8

$$$$
=
 OpenBabel10232409473D

 45 50  0  0  1  0  0  0  0  0999 V2000
  183.5960  178.3010  142.9710 C   0  0  0  0  0  3  0  0  0  0  0  0
  185.6850  178.3690  141.7930 C   0  0  0  0  0  0  0  0  0  0  0  0
  185.0470  178.8170  140.6700 C   0  0  0  0  0  0  0  0  0  0  0  0
  183.6600  179.0090  140.6300 C   0  0  0  0  0  0  0  0  0  0  0  0
  188.3590  176.1990  136.8580 C   0  0  1  0  0  3  0  0  0  0  0  0
  188.3610  178.4500  139.4670 C   0  0  0  0  0  2  0  0  0  0  0  0
  184.9880  178.0990  142.9830 C   0  0  0  0  0  0  0  0  0  0  0  0
  189.0460  177.2090  137.7640 C   0  0  0  0  0  2  0  0  0  0  0  0
  182.9200  179.4300  139.3890 C   0  0  2  0  0  3  0  0  0  0  0  0
  183.7370  177.1790  138.3030 C   0  0  1  0  0  3  0  0  0  0  0  0
  186.9930  178.2010  141.5370 N   0  0  0  0  0  0  0  0  0  0  0  0
  185.9260  178.9520  139.6640 N   0  0  0  0  0  2  0  0  0  0  0  0
  188.5110  177.1260  139.0510 O   0  0  0  0  0  0  0  0  0  0  0  0
  184.6820  177.2320  137.1020 C   0  0  2  0  0  3  0  0  0  0  0  0
  187.0220  176.7460  136.3800 C   0  0  0  0  0  2  0  0  0  0  0  0
  182.9370  178.7460  141.8060 C   0  0  0  0  0  3  0  0  0  0  0  0
  181.9020  178.4350  137.5030 O   0  0  0  0  0  0  0  0  0  0  0  0
  184.0650  176.7500  135.9430 O   0  0  0  0  0  1  0  0  0  0  0  0
  185.9430  176.4410  137.4050 C   0  0  0  0  0  2  0  0  0  0  0  0
  187.0950  178.5760  140.2390 C   0  0  0  0  0  0  0  0  0  0  0  0
  182.7850  178.3460  138.3440 C   0  0  0  0  0  0  0  0  0  0  0  0
  182.3680  175.8070  139.7450 O   0  0  0  0  0  1  0  0  0  0  0  0
  183.0610  175.8280  138.5340 C   0  0  0  0  0  2  0  0  0  0  0  0
  185.5940  177.6380  144.1590 O   0  0  0  0  0  0  0  0  0  0  0  0
  186.1560  178.4880  145.1480 C   0  0  0  0  0  1  0  0  0  0  0  0
  189.2520  175.9030  135.6600 C   0  0  0  0  0  2  0  0  0  0  0  0
  189.7670  174.5390  135.7400 N   0  0  0  0  0  0  0  0  0  0  0  0
  191.2210  174.5750  135.6690 C   0  0  0  0  0  1  0  0  0  0  0  0
  189.2840  173.8670  136.9620 C   0  0  0  0  0  2  0  0  0  0  0  0
  186.9660  173.0660  137.7020 C   0  0  0  0  0  2  0  0  0  0  0  0
  187.6430  172.6150  135.4000 C   0  0  0  0  0  2  0  0  0  0  0  0
  185.7420  172.6500  136.9000 C   0  0  0  0  0  2  0  0  0  0  0  0
  186.2430  172.0720  135.5880 C   0  0  0  0  0  2  0  0  0  0  0  0
  188.1650  172.8150  136.8080 C   0  0  0  0  0  3  0  0  0  0  0  0
  183.4710  180.7280  138.8080 C   0  0  0  0  0  2  0  0  0  0  0  0
  180.0720  184.3580  136.0400 C   0  0  0  0  0  2  0  0  0  0  0  0
  180.6300  185.5540  136.5530 O   0  0  0  0  0  0  0  0  0  0  0  0
  181.2760  183.7280  137.8750 C   0  0  2  0  0  3  0  0  0  0  0  0
  181.3370  180.9030  137.3300 C   0  0  0  0  0  2  0  0  0  0  0  0
  181.2820  186.0130  138.8170 C   0  0  0  0  0  1  0  0  0  0  0  0
  182.3760  181.5680  138.2350 C   0  0  0  0  0  0  0  0  0  0  0  0
  180.9320  183.2290  136.5320 C   0  0  1  0  0  3  0  0  0  0  0  0
  181.5340  185.1760  137.5780 C   0  0  2  0  0  3  0  0  0  0  0  0
  182.3990  182.9060  138.4250 C   0  0  0  0  0  3  0  0  0  0  0  0
  180.2880  181.8680  136.7230 C   0  0  0  0  0  2  0  0  0  0  0  0
  1  7  1  0  0  0  0
  2  7  2  0  0  0  0
  3  2  1  0  0  0  0
  4  3  2  0  0  0  0
  4 16  1  0  0  0  0
  5 26  1  6  0  0  0
  5  8  1  0  0  0  0
  6 20  1  0  0  0  0
  7 24  1  0  0  0  0
  8 13  1  0  0  0  0
  9 35  1  6  0  0  0
  9  4  1  0  0  0  0
 10 21  1  0  0  0  0
 10 23  1  6  0  0  0
 11  2  1  0  0  0  0
 12 20  1  0  0  0  0
 12  3  1  0  0  0  0
 13  6  1  0  0  0  0
 14 18  1  6  0  0  0
 14 19  1  0  0  0  0
 14 10  1  0  0  0  0
 15  5  1  0  0  0  0
 15 19  1  0  0  0  0
 16  1  2  0  0  0  0
 17 21  2  0  0  0  0
 20 11  2  0  0  0  0
 21  9  1  0  0  0  0
 23 22  1  0  0  0  0
 24 25  1  0  0  0  0
 26 27  1  0  0  0  0
 27 29  1  0  0  0  0
 28 27  1  0  0  0  0
 31 33  1  0  0  0  0
 31 34  1  0  0  0  0
 32 30  1  0  0  0  0
 33 32  1  0  0  0  0
 34 29  1  0  0  0  0
 34 30  1  0  0  0  0
 36 37  1  0  0  0  0
 37 43  1  0  0  0  0
 38 44  1  6  0  0  0
 39 41  1  0  0  0  0
 41 44  2  0  0  0  0
 41 35  1  0  0  0  0
 42 36  1  1  0  0  0
 42 45  1  0  0  0  0
 42 38  1  0  0  0  0
 43 38  1  0  0  0  0
 43 40  1  1  0  0  0
 45 39  1  0  0  0  0
M  END
>  <MODEL>
7

>  <REMARK>
 VINA RESULT:      -4.9      4.619      9.872
  Name = 
  8 active torsions:
  status: ('A' for Active; 'I' for Inactive)
    1  A    between atoms: C_7  and  C_11
    2  A    between atoms: C_7  and  N_18
    3  A    between atoms: C_13  and  O_34
    4  A    between atoms: N_18  and  C_22
    5  A    between atoms: C_21  and  C_44
    6  A    between atoms: C_22  and  C_26
    7  A    between atoms: C_23  and  C_44
    8  A    between atoms: C_24  and  C_42
                            x       y       z     vdW  Elec       q    Type
                         _______ _______ _______ _____ _____    ______ ____

>  <TORSDO>
F 8

$$$$
=
 OpenBabel10232409473D

 45 50  0  0  1  0  0  0  0  0999 V2000
  182.3420  181.3500  138.4260 C   0  0  0  0  0  3  0  0  0  0  0  0
  181.1290  179.3000  138.7100 C   0  0  0  0  0  0  0  0  0  0  0  0
  182.2670  178.6750  139.1350 C   0  0  0  0  0  0  0  0  0  0  0  0
  183.4980  179.3410  139.2070 C   0  0  0  0  0  0  0  0  0  0  0  0
  181.1540  173.5520  136.9260 C   0  0  1  0  0  3  0  0  0  0  0  0
  179.9830  175.9660  139.0900 C   0  0  0  0  0  2  0  0  0  0  0  0
  181.1210  180.6570  138.3450 C   0  0  0  0  0  0  0  0  0  0  0  0
  180.1680  174.0660  137.9640 C   0  0  0  0  0  2  0  0  0  0  0  0
  184.7830  178.6620  139.6000 C   0  0  2  0  0  3  0  0  0  0  0  0
  184.4840  177.1620  137.4610 C   0  0  1  0  0  3  0  0  0  0  0  0
  180.1160  178.4180  138.6620 N   0  0  0  0  0  0  0  0  0  0  0  0
  182.0190  177.3780  139.3750 N   0  0  0  0  0  2  0  0  0  0  0  0
  179.9820  175.4390  137.7970 O   0  0  0  0  0  0  0  0  0  0  0  0
  184.2710  175.6570  137.6310 C   0  0  2  0  0  3  0  0  0  0  0  0
  182.5800  173.8390  137.3710 C   0  0  0  0  0  2  0  0  0  0  0  0
  183.5200  180.6990  138.8480 C   0  0  0  0  0  3  0  0  0  0  0  0
  186.5450  177.4650  138.5780 O   0  0  0  0  0  0  0  0  0  0  0  0
  185.3540  174.9260  137.1330 O   0  0  0  0  0  1  0  0  0  0  0  0
  182.9830  175.2400  136.9430 C   0  0  0  0  0  2  0  0  0  0  0  0
  180.6990  177.2700  139.0830 C   0  0  0  0  0  0  0  0  0  0  0  0
  185.3570  177.7490  138.5400 C   0  0  0  0  0  0  0  0  0  0  0  0
  183.7600  177.6610  135.2110 O   0  0  0  0  0  1  0  0  0  0  0  0
  184.8730  177.6040  136.0510 C   0  0  0  0  0  2  0  0  0  0  0  0
  179.9820  181.3440  137.9030 O   0  0  0  0  0  0  0  0  0  0  0  0
  180.0230  182.5190  137.1090 C   0  0  0  0  0  1  0  0  0  0  0  0
  180.9620  172.0520  136.7440 C   0  0  0  0  0  2  0  0  0  0  0  0
  180.4690  171.7670  135.4000 N   0  0  0  0  0  0  0  0  0  0  0  0
  180.7090  172.9260  134.5510 C   0  0  0  0  0  1  0  0  0  0  0  0
  181.0900  170.5420  134.8610 C   0  0  0  0  0  2  0  0  0  0  0  0
  182.6940  168.6000  135.3280 C   0  0  0  0  0  2  0  0  0  0  0  0
  183.6610  170.8150  134.9800 C   0  0  0  0  0  2  0  0  0  0  0  0
  184.1910  168.4540  135.1000 C   0  0  0  0  0  2  0  0  0  0  0  0
  184.7980  169.8420  135.2130 C   0  0  0  0  0  2  0  0  0  0  0  0
  182.4300  170.0860  135.4770 C   0  0  0  0  0  3  0  0  0  0  0  0
  184.6740  177.9750  140.9580 C   0  0  0  0  0  2  0  0  0  0  0  0
  189.4120  177.7040  144.0990 C   0  0  0  0  0  2  0  0  0  0  0  0
  188.8240  177.1600  145.2650 O   0  0  0  0  0  0  0  0  0  0  0  0
  187.1670  178.0530  143.8670 C   0  0  2  0  0  3  0  0  0  0  0  0
  187.1750  178.6840  141.0590 C   0  0  0  0  0  2  0  0  0  0  0  0
  186.7430  177.7840  146.2870 C   0  0  0  0  0  1  0  0  0  0  0  0
  185.9140  178.1820  141.7650 C   0  0  0  0  0  0  0  0  0  0  0  0
  188.3440  177.7290  143.0420 C   0  0  1  0  0  3  0  0  0  0  0  0
  187.4200  177.1900  145.0680 C   0  0  2  0  0  3  0  0  0  0  0  0
  185.9290  177.8060  143.0640 C   0  0  0  0  0  3  0  0  0  0  0  0
  188.4290  178.7930  141.9630 C   0  0  0  0  0  2  0  0  0  0  0  0
  1 16  1  0  0  0  0
  2  3  2  0  0  0  0
  3  4  1  0  0  0  0
  3 12  1  0  0  0  0
  4  9  1  0  0  0  0
  5 26  1  1  0  0  0
  5 15  1  0  0  0  0
  5  8  1  0  0  0  0
  7  1  2  0  0  0  0
  7  2  1  0  0  0  0
  9 35  1  1  0  0  0
 10 23  1  6  0  0  0
 10 14  1  0  0  0  0
 10 21  1  0  0  0  0
 11  2  1  0  0  0  0
 11 20  2  0  0  0  0
 13  8  1  0  0  0  0
 13  6  1  0  0  0  0
 14 18  1  6  0  0  0
 16  4  2  0  0  0  0
 19 15  1  0  0  0  0
 19 14  1  0  0  0  0
 20  6  1  0  0  0  0
 20 12  1  0  0  0  0
 21 17  2  0  0  0  0
 21  9  1  0  0  0  0
 22 23  1  0  0  0  0
 24  7  1  0  0  0  0
 25 24  1  0  0  0  0
 27 26  1  0  0  0  0
 28 27  1  0  0  0  0
 29 27  1  0  0  0  0
 29 34  1  0  0  0  0
 30 34  1  0  0  0  0
 31 33  1  0  0  0  0
 31 34  1  0  0  0  0
 32 33  1  0  0  0  0
 32 30  1  0  0  0  0
 35 41  1  0  0  0  0
 36 37  1  0  0  0  0
 38 44  1  6  0  0  0
 38 43  1  0  0  0  0
 39 41  1  0  0  0  0
 39 45  1  0  0  0  0
 41 44  2  0  0  0  0
 42 45  1  6  0  0  0
 42 38  1  0  0  0  0
 42 36  1  0  0  0  0
 43 37  1  0  0  0  0
 43 40  1  1  0  0  0
M  END
>  <MODEL>
8

>  <REMARK>
 VINA RESULT:      -4.9      4.697     10.809
  Name = 
  8 active torsions:
  status: ('A' for Active; 'I' for Inactive)
    1  A    between atoms: C_7  and  C_11
    2  A    between atoms: C_7  and  N_18
    3  A    between atoms: C_13  and  O_34
    4  A    between atoms: N_18  and  C_22
    5  A    between atoms: C_21  and  C_44
    6  A    between atoms: C_22  and  C_26
    7  A    between atoms: C_23  and  C_44
    8  A    between atoms: C_24  and  C_42
                            x       y       z     vdW  Elec       q    Type
                         _______ _______ _______ _____ _____    ______ ____

>  <TORSDO>
F 8

$$$$
=
 OpenBabel10232409473D

 45 50  0  0  1  0  0  0  0  0999 V2000
  183.8630  178.5540  143.1280 C   0  0  0  0  0  3  0  0  0  0  0  0
  185.7880  178.3980  141.7050 C   0  0  0  0  0  0  0  0  0  0  0  0
  185.0400  178.7980  140.6340 C   0  0  0  0  0  0  0  0  0  0  0  0
  183.6710  179.0740  140.7460 C   0  0  0  0  0  0  0  0  0  0  0  0
  187.7010  175.6880  136.6850 C   0  0  1  0  0  3  0  0  0  0  0  0
  188.1520  178.1290  139.0750 C   0  0  0  0  0  2  0  0  0  0  0  0
  185.2320  178.2660  142.9900 C   0  0  0  0  0  0  0  0  0  0  0  0
  188.5500  176.7180  137.4130 C   0  0  0  0  0  2  0  0  0  0  0  0
  182.8050  179.4450  139.5720 C   0  0  2  0  0  3  0  0  0  0  0  0
  183.3570  177.0700  138.5890 C   0  0  1  0  0  3  0  0  0  0  0  0
  187.0430  178.1270  141.3090 N   0  0  0  0  0  0  0  0  0  0  0  0
  185.7920  178.7990  139.5220 N   0  0  0  0  0  2  0  0  0  0  0  0
  188.1770  176.7700  138.7570 O   0  0  0  0  0  0  0  0  0  0  0  0
  184.1450  176.9690  137.2830 C   0  0  2  0  0  3  0  0  0  0  0  0
  186.3460  176.2810  136.3270 C   0  0  0  0  0  2  0  0  0  0  0  0
  183.0880  178.9500  142.0180 C   0  0  0  0  0  3  0  0  0  0  0  0
  181.5060  178.3760  137.9140 O   0  0  0  0  0  0  0  0  0  0  0  0
  183.3630  176.4400  136.2510 O   0  0  0  0  0  1  0  0  0  0  0  0
  185.3890  176.1250  137.4970 C   0  0  0  0  0  2  0  0  0  0  0  0
  187.0010  178.3940  139.9810 C   0  0  0  0  0  0  0  0  0  0  0  0
  182.4820  178.2940  138.6460 C   0  0  0  0  0  0  0  0  0  0  0  0
  181.7620  176.0210  140.0700 O   0  0  0  0  0  1  0  0  0  0  0  0
  182.6430  175.7870  139.0130 C   0  0  0  0  0  2  0  0  0  0  0  0
  185.9550  177.8590  144.1190 O   0  0  0  0  0  0  0  0  0  0  0  0
  185.7610  178.3920  145.4200 C   0  0  0  0  0  1  0  0  0  0  0  0
  188.4200  175.2430  135.4170 C   0  0  0  0  0  2  0  0  0  0  0  0
  189.4500  174.2610  135.7400 N   0  0  0  0  0  0  0  0  0  0  0  0
  189.2640  173.0850  134.9020 C   0  0  0  0  0  1  0  0  0  0  0  0
  190.7970  174.8450  135.5910 C   0  0  0  0  0  2  0  0  0  0  0  0
  192.6330  173.7800  137.0270 C   0  0  0  0  0  2  0  0  0  0  0  0
  192.4920  176.2180  136.9870 C   0  0  0  0  0  2  0  0  0  0  0  0
  193.9090  174.3580  137.6200 C   0  0  0  0  0  2  0  0  0  0  0  0
  193.6550  175.8340  137.8760 C   0  0  0  0  0  2  0  0  0  0  0  0
  191.6780  174.9470  136.8550 C   0  0  0  0  0  3  0  0  0  0  0  0
  183.3490  180.6570  138.8210 C   0  0  0  0  0  2  0  0  0  0  0  0
  179.9830  183.8500  135.5240 C   0  0  0  0  0  2  0  0  0  0  0  0
  180.3820  185.1110  136.0280 O   0  0  0  0  0  0  0  0  0  0  0  0
  181.0300  183.4100  137.5060 C   0  0  2  0  0  3  0  0  0  0  0  0
  181.3790  180.5790  137.1230 C   0  0  0  0  0  2  0  0  0  0  0  0
  180.7480  185.7270  138.3190 C   0  0  0  0  0  1  0  0  0  0  0  0
  182.2560  181.3720  138.0940 C   0  0  0  0  0  0  0  0  0  0  0  0
  180.8740  182.8230  136.1640 C   0  0  1  0  0  3  0  0  0  0  0  0
  181.1990  184.8600  137.1590 C   0  0  2  0  0  3  0  0  0  0  0  0
  182.1500  182.7150  138.2130 C   0  0  0  0  0  3  0  0  0  0  0  0
  180.3260  181.4210  136.3590 C   0  0  0  0  0  2  0  0  0  0  0  0
  2  7  2  0  0  0  0
  3  4  2  0  0  0  0
  3  2  1  0  0  0  0
  4 16  1  0  0  0  0
  5 26  1  6  0  0  0
  5  8  1  0  0  0  0
  6 20  1  0  0  0  0
  7  1  1  0  0  0  0
  7 24  1  0  0  0  0
  8 13  1  0  0  0  0
  9 35  1  6  0  0  0
  9  4  1  0  0  0  0
 10 21  1  0  0  0  0
 10 23  1  6  0  0  0
 11  2  1  0  0  0  0
 12 20  1  0  0  0  0
 12  3  1  0  0  0  0
 13  6  1  0  0  0  0
 14 18  1  6  0  0  0
 14 19  1  0  0  0  0
 14 10  1  0  0  0  0
 15  5  1  0  0  0  0
 15 19  1  0  0  0  0
 16  1  2  0  0  0  0
 17 21  2  0  0  0  0
 20 11  2  0  0  0  0
 21  9  1  0  0  0  0
 23 22  1  0  0  0  0
 24 25  1  0  0  0  0
 26 27  1  0  0  0  0
 28 27  1  0  0  0  0
 29 27  1  0  0  0  0
 29 34  1  0  0  0  0
 30 32  1  0  0  0  0
 31 33  1  0  0  0  0
 32 33  1  0  0  0  0
 34 31  1  0  0  0  0
 34 30  1  0  0  0  0
 36 37  1  0  0  0  0
 37 43  1  0  0  0  0
 38 44  1  6  0  0  0
 39 41  1  0  0  0  0
 41 44  2  0  0  0  0
 41 35  1  0  0  0  0
 42 36  1  6  0  0  0
 42 45  1  0  0  0  0
 42 38  1  0  0  0  0
 43 38  1  0  0  0  0
 43 40  1  1  0  0  0
 45 39  1  0  0  0  0
M  END
>  <MODEL>
9

>  <REMARK>
 VINA RESULT:      -4.9      4.702      9.989
  Name = 
  8 active torsions:
  status: ('A' for Active; 'I' for Inactive)
    1  A    between atoms: C_7  and  C_11
    2  A    between atoms: C_7  and  N_18
    3  A    between atoms: C_13  and  O_34
    4  A    between atoms: N_18  and  C_22
    5  A    between atoms: C_21  and  C_44
    6  A    between atoms: C_22  and  C_26
    7  A    between atoms: C_23  and  C_44
    8  A    between atoms: C_24  and  C_42
                            x       y       z     vdW  Elec       q    Type
                         _______ _______ _______ _____ _____    ______ ____

>  <TORSDO>
F 8

$$$$
