=
 OpenBabel10232411303D

 54 61  0  0  1  0  0  0  0  0999 V2000
  189.0970  178.4270  138.9930 C   0  0  0  0  0  2  0  0  0  0  0  0
  189.1450  177.1500  141.7460 C   0  0  0  0  0  0  0  0  0  0  0  0
  190.0770  177.3990  139.4440 C   0  0  0  0  0  0  0  0  0  0  0  0
  187.7190  177.8500  139.1500 C   0  0  1  0  0  3  0  0  0  0  0  0
  188.8450  176.8950  144.1320 N   0  0  0  0  0  0  0  0  0  0  0  0
  189.5960  176.7230  143.0110 C   0  0  0  0  0  3  0  0  0  0  0  0
  185.3990  178.4560  144.5350 S   0  0  0  0  0  0  0  0  0  0  0  0
  186.7900  177.7110  145.1210 C   0  0  0  0  0  0  0  0  0  0  0  0
  190.0430  176.9000  140.6480 N   0  0  0  0  0  0  0  0  0  0  0  0
  187.1180  177.9300  142.8260 C   0  0  0  0  0  0  0  0  0  0  0  0
  187.6320  177.4900  144.0520 C   0  0  0  0  0  0  0  0  0  0  0  0
  185.8490  178.5100  142.9030 C   0  0  0  0  0  3  0  0  0  0  0  0
  187.8490  177.7470  141.6460 C   0  0  0  0  0  0  0  0  0  0  0  0
  187.2420  178.1510  140.4470 O   0  0  0  0  0  0  0  0  0  0  0  0
  191.1120  176.9250  138.4990 C   0  0  0  0  0  0  0  0  0  0  0  0
  190.7760  176.5740  137.1830 C   0  0  0  0  0  3  0  0  0  0  0  0
  192.4490  176.8030  138.9130 C   0  0  0  0  0  3  0  0  0  0  0  0
  191.7520  176.1040  136.3010 C   0  0  0  0  0  3  0  0  0  0  0  0
  193.4280  176.3390  138.0310 C   0  0  0  0  0  3  0  0  0  0  0  0
  193.0860  175.9920  136.7190 C   0  0  0  0  0  0  0  0  0  0  0  0
  194.9150  176.5620  135.1430 C   0  0  0  0  0  2  0  0  0  0  0  0
  196.2980  176.0080  134.8880 C   0  0  0  0  0  2  0  0  0  0  0  0
  195.7550  173.5370  135.6480 C   0  0  0  0  0  2  0  0  0  0  0  0
  195.1700  174.5990  136.5620 C   0  0  1  0  0  3  0  0  0  0  0  0
  196.4880  174.8490  135.8540 C   0  0  2  0  0  0  0  0  0  0  0  0
  194.1480  175.4420  135.8160 C   0  0  1  0  0  3  0  0  0  0  0  0
  197.5420  174.9010  136.7840 O   0  0  0  0  0  0  0  0  0  0  0  0
  199.6970  175.2200  136.0210 O   0  0  0  0  0  0  0  0  0  0  0  0
  199.0780  174.7370  134.8500 C   0  0  0  0  0  2  0  0  0  0  0  0
  198.6620  174.2820  136.2010 C   0  0  2  0  0  0  0  0  0  0  0  0
  200.0290  173.2370  137.9070 O   0  0  0  0  0  1  0  0  0  0  0  0
  199.1870  172.9810  136.8200 C   0  0  1  0  0  3  0  0  0  0  0  0
  198.0810  172.1420  137.2490 N   0  0  0  0  0  2  0  0  0  0  0  0
  198.5490  170.7680  137.2220 C   0  0  0  0  0  1  0  0  0  0  0  0
  187.0350  177.3130  146.4690 N   0  0  0  0  0  2  0  0  0  0  0  0
  187.0720  178.2740  147.5570 C   0  0  0  0  0  2  0  0  0  0  0  0
  187.9790  177.7580  148.6540 C   0  0  0  0  0  2  0  0  0  0  0  0
  189.4060  178.1770  148.3660 C   0  0  0  0  0  1  0  0  0  0  0  0
  186.7900  178.4490  138.1070 C   0  0  0  0  0  2  0  0  0  0  0  0
  183.0300  178.4360  138.8450 N   0  0  0  0  0  2  0  0  0  0  0  0
  185.4200  178.0110  138.3350 N   0  0  0  0  0  2  0  0  0  0  0  0
  184.6280  180.1120  138.9850 O   0  0  0  0  0  0  0  0  0  0  0  0
  184.3730  178.9040  138.7360 C   0  0  0  0  0  0  0  0  0  0  0  0
  182.6680  177.0350  138.6720 C   0  0  0  0  0  2  0  0  0  0  0  0
  182.4860  174.3580  137.7020 O   0  0  0  0  0  0  0  0  0  0  0  0
  183.6990  176.3440  137.9100 N   0  0  0  0  0  2  0  0  0  0  0  0
  183.5460  174.9990  137.4550 C   0  0  0  0  0  0  0  0  0  0  0  0
  186.4900  172.5990  136.8700 C   0  0  0  0  0  2  0  0  0  0  0  0
  185.6420  175.3510  136.3030 N   0  0  0  0  0  2  0  0  0  0  0  0
  187.3270  173.6150  136.1580 C   0  0  0  0  0  0  0  0  0  0  0  0
  186.6360  174.7290  135.4300 C   0  0  0  0  0  2  0  0  0  0  0  0
  184.6710  174.3400  136.7250 C   0  0  1  0  0  3  0  0  0  0  0  0
  185.3500  173.2920  137.6180 C   0  0  0  0  0  2  0  0  0  0  0  0
  188.5420  173.5080  136.1230 O   0  0  0  0  0  0  0  0  0  0  0  0
  1  4  1  0  0  0  0
  1  3  1  0  0  0  0
  2  6  1  0  0  0  0
  3  9  2  0  0  0  0
  4 39  1  6  0  0  0
  4 14  1  0  0  0  0
  6  5  2  0  0  0  0
  7  8  1  0  0  0  0
  8 35  1  0  0  0  0
  9  2  1  0  0  0  0
 10 12  2  0  0  0  0
 10 11  1  0  0  0  0
 11  5  1  0  0  0  0
 11  8  2  0  0  0  0
 12  7  1  0  0  0  0
 13  2  2  0  0  0  0
 13 10  1  0  0  0  0
 14 13  1  0  0  0  0
 15 17  1  0  0  0  0
 15  3  1  0  0  0  0
 16 15  2  0  0  0  0
 18 20  2  0  0  0  0
 18 16  1  0  0  0  0
 19 17  2  0  0  0  0
 20 19  1  0  0  0  0
 21 26  1  0  0  0  0
 22 21  1  0  0  0  0
 22 25  1  0  0  0  0
 23 25  1  0  0  0  0
 24 23  1  6  0  0  0
 25 24  1  0  0  0  0
 25 27  1  1  0  0  0
 26 24  1  0  0  0  0
 26 20  1  1  0  0  0
 28 30  1  0  0  0  0
 29 28  1  0  0  0  0
 29 30  1  0  0  0  0
 30 27  1  1  0  0  0
 30 32  1  0  0  0  0
 32 33  1  0  0  0  0
 32 31  1  1  0  0  0
 34 33  1  0  0  0  0
 35 36  1  0  0  0  0
 36 37  1  0  0  0  0
 38 37  1  0  0  0  0
 39 41  1  0  0  0  0
 41 43  1  0  0  0  0
 43 40  1  0  0  0  0
 43 42  2  0  0  0  0
 44 40  1  0  0  0  0
 46 44  1  0  0  0  0
 47 45  2  0  0  0  0
 47 46  1  0  0  0  0
 48 53  1  0  0  0  0
 49 52  1  0  0  0  0
 50 48  1  0  0  0  0
 51 50  1  0  0  0  0
 51 49  1  0  0  0  0
 52 47  1  1  0  0  0
 52 53  1  0  0  0  0
 54 50  2  0  0  0  0
M  END
>  <MODEL>
1

>  <REMARK>
 VINA RESULT:      -8.3      0.000      0.000
  Name = 
  14 active torsions:
  status: ('A' for Active; 'I' for Inactive)
    1  A    between atoms: N_5  and  C_6
    2  A    between atoms: C_6  and  N_25
    3  A    between atoms: O_7  and  C_43
    4  A    between atoms: O_7  and  C_48
    5  A    between atoms: N_10  and  C_23
    6  A    between atoms: C_12  and  C_13
    7  A    between atoms: C_15  and  N_20
    8  A    between atoms: C_15  and  C_31
    9  A    between atoms: C_16  and  C_50
   10  A    between atoms: N_20  and  C_30
   11  A    between atoms: C_23  and  C_43
   12  A    between atoms: N_24  and  C_50
   13  A    between atoms: C_28  and  C_39
   14  A    between atoms: C_52  and  C_54
                            x       y       z     vdW  Elec       q    Type
                         _______ _______ _______ _____ _____    ______ ____

>  <TORSDO>
F 14

$$$$
=
 OpenBabel10232411303D

 54 61  0  0  1  0  0  0  0  0999 V2000
  189.6580  178.0770  138.9740 C   0  0  0  0  0  2  0  0  0  0  0  0
  189.0680  176.7820  141.6550 C   0  0  0  0  0  0  0  0  0  0  0  0
  190.3120  176.8430  139.4920 C   0  0  0  0  0  0  0  0  0  0  0  0
  188.1750  177.8350  138.9420 C   0  0  1  0  0  3  0  0  0  0  0  0
  188.4220  176.5680  143.9750 N   0  0  0  0  0  0  0  0  0  0  0  0
  189.2470  176.2430  142.9440 C   0  0  0  0  0  3  0  0  0  0  0  0
  185.4030  178.8820  144.0370 S   0  0  0  0  0  0  0  0  0  0  0  0
  186.5010  177.8250  144.7500 C   0  0  0  0  0  0  0  0  0  0  0  0
  190.0150  176.3470  140.6600 N   0  0  0  0  0  0  0  0  0  0  0  0
  187.1550  177.9960  142.5220 C   0  0  0  0  0  0  0  0  0  0  0  0
  187.3980  177.4310  143.7790 C   0  0  0  0  0  0  0  0  0  0  0  0
  186.0530  178.8550  142.4740 C   0  0  0  0  0  3  0  0  0  0  0  0
  187.9660  177.6660  141.4290 C   0  0  0  0  0  0  0  0  0  0  0  0
  187.6220  178.2190  140.1860 O   0  0  0  0  0  0  0  0  0  0  0  0
  191.3210  176.1560  138.6560 C   0  0  0  0  0  0  0  0  0  0  0  0
  190.9700  175.0440  137.8750 C   0  0  0  0  0  3  0  0  0  0  0  0
  192.6540  176.5980  138.6450 C   0  0  0  0  0  3  0  0  0  0  0  0
  191.9300  174.3830  137.1050 C   0  0  0  0  0  3  0  0  0  0  0  0
  193.6150  175.9420  137.8720 C   0  0  0  0  0  3  0  0  0  0  0  0
  193.2580  174.8350  137.0940 C   0  0  0  0  0  0  0  0  0  0  0  0
  195.6420  174.8600  136.4090 C   0  0  0  0  0  2  0  0  0  0  0  0
  196.7110  173.8010  136.2740 C   0  0  0  0  0  2  0  0  0  0  0  0
  195.0650  171.8080  135.7270 C   0  0  0  0  0  2  0  0  0  0  0  0
  194.5780  172.7130  136.8450 C   0  0  1  0  0  3  0  0  0  0  0  0
  196.0640  172.4770  136.6520 C   0  0  2  0  0  0  0  0  0  0  0  0
  194.3240  174.1190  136.3220 C   0  0  1  0  0  3  0  0  0  0  0  0
  196.5890  171.7450  137.7320 O   0  0  0  0  0  0  0  0  0  0  0  0
  198.5110  170.5150  137.3840 O   0  0  0  0  0  0  0  0  0  0  0  0
  198.0340  170.6270  136.0630 C   0  0  0  0  0  2  0  0  0  0  0  0
  197.1120  170.5430  137.2230 C   0  0  2  0  0  0  0  0  0  0  0  0
  197.3480  168.4650  138.4470 O   0  0  0  0  0  1  0  0  0  0  0  0
  196.4720  169.2190  137.6610 C   0  0  1  0  0  3  0  0  0  0  0  0
  195.2480  169.4710  138.4020 N   0  0  0  0  0  2  0  0  0  0  0  0
  194.1580  168.8830  137.6410 C   0  0  0  0  0  1  0  0  0  0  0  0
  186.4790  177.3600  146.0990 N   0  0  0  0  0  2  0  0  0  0  0  0
  187.1740  178.0620  147.1620 C   0  0  0  0  0  2  0  0  0  0  0  0
  188.1640  177.1240  147.8210 C   0  0  0  0  0  2  0  0  0  0  0  0
  189.5630  177.4480  147.3370 C   0  0  0  0  0  1  0  0  0  0  0  0
  187.5460  178.6500  137.8240 C   0  0  0  0  0  2  0  0  0  0  0  0
  183.8350  177.7380  137.5590 N   0  0  0  0  0  2  0  0  0  0  0  0
  186.2900  178.0460  137.4010 N   0  0  0  0  0  2  0  0  0  0  0  0
  185.0190  178.9600  139.1370 O   0  0  0  0  0  0  0  0  0  0  0  0
  185.0490  178.2740  138.0800 C   0  0  0  0  0  0  0  0  0  0  0  0
  183.7970  176.8560  136.4000 C   0  0  0  0  0  2  0  0  0  0  0  0
  185.6160  175.4880  134.6790 O   0  0  0  0  0  0  0  0  0  0  0  0
  184.4650  175.5990  136.7090 N   0  0  0  0  0  2  0  0  0  0  0  0
  185.3640  174.9630  135.8000 C   0  0  0  0  0  0  0  0  0  0  0  0
  188.0800  172.4720  136.8890 C   0  0  0  0  0  2  0  0  0  0  0  0
  185.7970  172.7040  135.0590 N   0  0  0  0  0  2  0  0  0  0  0  0
  187.6510  171.4080  135.9290 C   0  0  0  0  0  0  0  0  0  0  0  0
  186.2170  171.3710  135.4930 C   0  0  0  0  0  2  0  0  0  0  0  0
  185.9690  173.6470  136.1660 C   0  0  1  0  0  3  0  0  0  0  0  0
  187.4590  173.8120  136.4940 C   0  0  0  0  0  2  0  0  0  0  0  0
  188.4370  170.5530  135.5530 O   0  0  0  0  0  0  0  0  0  0  0  0
  1  3  1  0  0  0  0
  2  6  1  0  0  0  0
  3  9  2  0  0  0  0
  4 39  1  6  0  0  0
  4  1  1  0  0  0  0
  4 14  1  0  0  0  0
  6  5  2  0  0  0  0
  7  8  1  0  0  0  0
  8 35  1  0  0  0  0
  9  2  1  0  0  0  0
 10 11  1  0  0  0  0
 11  5  1  0  0  0  0
 11  8  2  0  0  0  0
 12 10  2  0  0  0  0
 12  7  1  0  0  0  0
 13  2  2  0  0  0  0
 13 10  1  0  0  0  0
 14 13  1  0  0  0  0
 15  3  1  0  0  0  0
 16 15  2  0  0  0  0
 17 15  1  0  0  0  0
 18 16  1  0  0  0  0
 19 17  2  0  0  0  0
 20 18  2  0  0  0  0
 20 19  1  0  0  0  0
 22 21  1  0  0  0  0
 22 25  1  0  0  0  0
 23 25  1  0  0  0  0
 24 23  1  6  0  0  0
 25 24  1  0  0  0  0
 25 27  1  1  0  0  0
 26 21  1  0  0  0  0
 26 24  1  0  0  0  0
 26 20  1  1  0  0  0
 29 30  1  0  0  0  0
 29 28  1  0  0  0  0
 30 28  1  0  0  0  0
 30 32  1  0  0  0  0
 30 27  1  1  0  0  0
 32 33  1  0  0  0  0
 32 31  1  1  0  0  0
 34 33  1  0  0  0  0
 35 36  1  0  0  0  0
 36 37  1  0  0  0  0
 38 37  1  0  0  0  0
 40 43  1  0  0  0  0
 41 39  1  0  0  0  0
 41 43  1  0  0  0  0
 43 42  2  0  0  0  0
 44 46  1  0  0  0  0
 44 40  1  0  0  0  0
 45 47  2  0  0  0  0
 47 46  1  0  0  0  0
 49 51  1  0  0  0  0
 49 52  1  0  0  0  0
 50 48  1  0  0  0  0
 51 50  1  0  0  0  0
 52 47  1  6  0  0  0
 52 53  1  0  0  0  0
 53 48  1  0  0  0  0
 54 50  2  0  0  0  0
M  END
>  <MODEL>
2

>  <REMARK>
 VINA RESULT:      -8.2      1.871      2.351
  Name = 
  14 active torsions:
  status: ('A' for Active; 'I' for Inactive)
    1  A    between atoms: N_5  and  C_6
    2  A    between atoms: C_6  and  N_25
    3  A    between atoms: O_7  and  C_43
    4  A    between atoms: O_7  and  C_48
    5  A    between atoms: N_10  and  C_23
    6  A    between atoms: C_12  and  C_13
    7  A    between atoms: C_15  and  N_20
    8  A    between atoms: C_15  and  C_31
    9  A    between atoms: C_16  and  C_50
   10  A    between atoms: N_20  and  C_30
   11  A    between atoms: C_23  and  C_43
   12  A    between atoms: N_24  and  C_50
   13  A    between atoms: C_28  and  C_39
   14  A    between atoms: C_52  and  C_54
                            x       y       z     vdW  Elec       q    Type
                         _______ _______ _______ _____ _____    ______ ____

>  <TORSDO>
F 14

$$$$
=
 OpenBabel10232411303D

 54 61  0  0  1  0  0  0  0  0999 V2000
  188.4430  178.5410  139.3100 C   0  0  0  0  0  2  0  0  0  0  0  0
  188.6070  177.3640  142.1040 C   0  0  0  0  0  0  0  0  0  0  0  0
  189.4710  177.5660  139.7710 C   0  0  0  0  0  0  0  0  0  0  0  0
  187.0910  177.9210  139.5230 C   0  0  1  0  0  3  0  0  0  0  0  0
  188.3750  177.1830  144.5040 N   0  0  0  0  0  0  0  0  0  0  0  0
  189.1040  176.9990  143.3700 C   0  0  0  0  0  3  0  0  0  0  0  0
  184.8850  178.6330  144.9430 S   0  0  0  0  0  0  0  0  0  0  0  0
  186.3170  177.9590  145.5180 C   0  0  0  0  0  0  0  0  0  0  0  0
  189.4860  177.1090  140.9910 N   0  0  0  0  0  0  0  0  0  0  0  0
  186.5800  178.1080  143.2090 C   0  0  0  0  0  0  0  0  0  0  0  0
  187.1400  177.7310  144.4350 C   0  0  0  0  0  0  0  0  0  0  0  0
  185.2930  178.6450  143.2990 C   0  0  0  0  0  3  0  0  0  0  0  0
  187.2880  177.9110  142.0160 C   0  0  0  0  0  0  0  0  0  0  0  0
  186.6360  178.2500  140.8210 O   0  0  0  0  0  0  0  0  0  0  0  0
  190.5000  177.0970  138.8160 C   0  0  0  0  0  0  0  0  0  0  0  0
  190.1610  176.7930  137.4880 C   0  0  0  0  0  3  0  0  0  0  0  0
  191.8310  176.9320  139.2310 C   0  0  0  0  0  3  0  0  0  0  0  0
  191.1290  176.3270  136.5960 C   0  0  0  0  0  3  0  0  0  0  0  0
  192.8030  176.4720  138.3380 C   0  0  0  0  0  3  0  0  0  0  0  0
  192.4590  176.1720  137.0160 C   0  0  0  0  0  0  0  0  0  0  0  0
  194.3390  176.7430  135.5020 C   0  0  0  0  0  2  0  0  0  0  0  0
  195.7010  176.1440  135.2380 C   0  0  0  0  0  2  0  0  0  0  0  0
  195.0370  173.6610  135.8530 C   0  0  0  0  0  2  0  0  0  0  0  0
  194.4820  174.6980  136.8150 C   0  0  1  0  0  3  0  0  0  0  0  0
  195.8230  174.9270  136.1420 C   0  0  2  0  0  0  0  0  0  0  0  0
  193.5110  175.6250  136.1010 C   0  0  1  0  0  3  0  0  0  0  0  0
  196.8610  174.8810  137.0890 O   0  0  0  0  0  0  0  0  0  0  0  0
  199.1210  175.0530  136.6490 O   0  0  0  0  0  0  0  0  0  0  0  0
  198.6100  174.9510  135.3400 C   0  0  0  0  0  2  0  0  0  0  0  0
  197.9680  174.2590  136.4860 C   0  0  2  0  0  0  0  0  0  0  0  0
  199.5510  172.6140  137.2980 O   0  0  0  0  0  1  0  0  0  0  0  0
  198.2520  172.7870  136.8110 C   0  0  1  0  0  3  0  0  0  0  0  0
  197.2970  172.2930  137.7880 N   0  0  0  0  0  2  0  0  0  0  0  0
  196.8940  170.9650  137.3590 C   0  0  0  0  0  1  0  0  0  0  0  0
  186.6100  177.6170  146.8720 N   0  0  0  0  0  2  0  0  0  0  0  0
  187.2930  178.5380  147.7630 C   0  0  0  0  0  2  0  0  0  0  0  0
  188.2850  177.7730  148.6140 C   0  0  0  0  0  2  0  0  0  0  0  0
  189.5900  177.6280  147.8570 C   0  0  0  0  0  1  0  0  0  0  0  0
  186.1150  178.4500  138.4850 C   0  0  0  0  0  2  0  0  0  0  0  0
  182.4930  179.2120  139.4720 N   0  0  0  0  0  2  0  0  0  0  0  0
  184.7450  178.3110  138.9590 N   0  0  0  0  0  2  0  0  0  0  0  0
  184.2610  180.5960  138.8880 O   0  0  0  0  0  0  0  0  0  0  0  0
  183.8530  179.4230  139.1010 C   0  0  0  0  0  0  0  0  0  0  0  0
  181.9690  177.9010  139.8310 C   0  0  0  0  0  2  0  0  0  0  0  0
  179.9900  175.8510  139.6760 O   0  0  0  0  0  0  0  0  0  0  0  0
  181.6190  177.1580  138.6280 N   0  0  0  0  0  2  0  0  0  0  0  0
  180.6190  176.1390  138.6190 C   0  0  0  0  0  0  0  0  0  0  0  0
  179.9820  173.0970  136.3580 C   0  0  0  0  0  2  0  0  0  0  0  0
  181.4180  175.6560  136.3900 N   0  0  0  0  0  2  0  0  0  0  0  0
  180.8590  173.5910  135.2520 C   0  0  0  0  0  0  0  0  0  0  0  0
  181.0570  175.0690  135.0990 C   0  0  0  0  0  2  0  0  0  0  0  0
  180.3550  175.3820  137.3580 C   0  0  1  0  0  3  0  0  0  0  0  0
  180.2720  173.8760  137.6420 C   0  0  0  0  0  2  0  0  0  0  0  0
  181.3570  172.8110  134.4550 O   0  0  0  0  0  0  0  0  0  0  0  0
  1  4  1  0  0  0  0
  1  3  1  0  0  0  0
  2  6  1  0  0  0  0
  3  9  2  0  0  0  0
  4 39  1  6  0  0  0
  4 14  1  0  0  0  0
  6  5  2  0  0  0  0
  7  8  1  0  0  0  0
  8 35  1  0  0  0  0
  9  2  1  0  0  0  0
 10 12  2  0  0  0  0
 10 11  1  0  0  0  0
 11  5  1  0  0  0  0
 11  8  2  0  0  0  0
 12  7  1  0  0  0  0
 13  2  2  0  0  0  0
 13 10  1  0  0  0  0
 14 13  1  0  0  0  0
 15 17  1  0  0  0  0
 15  3  1  0  0  0  0
 16 15  2  0  0  0  0
 18 20  2  0  0  0  0
 18 16  1  0  0  0  0
 19 17  2  0  0  0  0
 20 19  1  0  0  0  0
 21 26  1  0  0  0  0
 22 21  1  0  0  0  0
 22 25  1  0  0  0  0
 23 25  1  0  0  0  0
 24 23  1  6  0  0  0
 25 24  1  0  0  0  0
 25 27  1  1  0  0  0
 26 24  1  0  0  0  0
 26 20  1  1  0  0  0
 29 30  1  0  0  0  0
 29 28  1  0  0  0  0
 30 28  1  0  0  0  0
 30 32  1  0  0  0  0
 30 27  1  1  0  0  0
 32 31  1  1  0  0  0
 32 33  1  0  0  0  0
 34 33  1  0  0  0  0
 35 36  1  0  0  0  0
 36 37  1  0  0  0  0
 38 37  1  0  0  0  0
 39 41  1  0  0  0  0
 40 44  1  0  0  0  0
 41 43  1  0  0  0  0
 42 43  2  0  0  0  0
 43 40  1  0  0  0  0
 46 44  1  0  0  0  0
 47 46  1  0  0  0  0
 47 45  2  0  0  0  0
 48 53  1  0  0  0  0
 49 52  1  0  0  0  0
 50 48  1  0  0  0  0
 51 50  1  0  0  0  0
 51 49  1  0  0  0  0
 52 53  1  0  0  0  0
 52 47  1  1  0  0  0
 54 50  2  0  0  0  0
M  END
>  <MODEL>
3

>  <REMARK>
 VINA RESULT:      -8.2      2.091      2.332
  Name = 
  14 active torsions:
  status: ('A' for Active; 'I' for Inactive)
    1  A    between atoms: N_5  and  C_6
    2  A    between atoms: C_6  and  N_25
    3  A    between atoms: O_7  and  C_43
    4  A    between atoms: O_7  and  C_48
    5  A    between atoms: N_10  and  C_23
    6  A    between atoms: C_12  and  C_13
    7  A    between atoms: C_15  and  N_20
    8  A    between atoms: C_15  and  C_31
    9  A    between atoms: C_16  and  C_50
   10  A    between atoms: N_20  and  C_30
   11  A    between atoms: C_23  and  C_43
   12  A    between atoms: N_24  and  C_50
   13  A    between atoms: C_28  and  C_39
   14  A    between atoms: C_52  and  C_54
                            x       y       z     vdW  Elec       q    Type
                         _______ _______ _______ _____ _____    ______ ____

>  <TORSDO>
F 14

$$$$
=
 OpenBabel10232411303D

 54 61  0  0  1  0  0  0  0  0999 V2000
  188.9330  178.4360  139.3460 C   0  0  0  0  0  2  0  0  0  0  0  0
  189.1980  177.1240  142.0710 C   0  0  0  0  0  0  0  0  0  0  0  0
  189.9590  177.4180  139.7120 C   0  0  0  0  0  0  0  0  0  0  0  0
  187.5780  177.8340  139.5930 C   0  0  1  0  0  3  0  0  0  0  0  0
  189.0730  176.8340  144.4680 N   0  0  0  0  0  0  0  0  0  0  0  0
  189.7450  176.6890  143.2940 C   0  0  0  0  0  3  0  0  0  0  0  0
  185.6420  178.3340  145.1380 S   0  0  0  0  0  0  0  0  0  0  0  0
  187.0820  177.6040  145.6130 C   0  0  0  0  0  0  0  0  0  0  0  0
  190.0190  176.9040  140.9080 N   0  0  0  0  0  0  0  0  0  0  0  0
  187.2420  177.8580  143.3040 C   0  0  0  0  0  0  0  0  0  0  0  0
  187.8490  177.4110  144.4830 C   0  0  0  0  0  0  0  0  0  0  0  0
  185.9730  178.4160  143.4800 C   0  0  0  0  0  3  0  0  0  0  0  0
  187.8890  177.7020  142.0720 C   0  0  0  0  0  0  0  0  0  0  0  0
  187.1910  178.1110  140.9250 O   0  0  0  0  0  0  0  0  0  0  0  0
  190.9300  176.9730  138.6890 C   0  0  0  0  0  0  0  0  0  0  0  0
  190.5000  176.5820  137.4120 C   0  0  0  0  0  3  0  0  0  0  0  0
  192.3020  176.9200  138.9880 C   0  0  0  0  0  3  0  0  0  0  0  0
  191.4180  176.1400  136.4560 C   0  0  0  0  0  3  0  0  0  0  0  0
  193.2220  176.4840  138.0320 C   0  0  0  0  0  3  0  0  0  0  0  0
  192.7870  176.0970  136.7600 C   0  0  0  0  0  0  0  0  0  0  0  0
  194.5760  176.7160  135.1580 C   0  0  0  0  0  2  0  0  0  0  0  0
  195.9260  176.1340  134.8080 C   0  0  0  0  0  2  0  0  0  0  0  0
  195.3180  173.6340  135.4070 C   0  0  0  0  0  2  0  0  0  0  0  0
  194.8080  174.6460  136.4190 C   0  0  1  0  0  3  0  0  0  0  0  0
  196.1080  174.9010  135.6780 C   0  0  2  0  0  0  0  0  0  0  0  0
  193.7920  175.5780  135.7780 C   0  0  1  0  0  3  0  0  0  0  0  0
  197.1970  174.8470  136.5670 O   0  0  0  0  0  0  0  0  0  0  0  0
  199.4880  174.8720  136.2840 O   0  0  0  0  0  0  0  0  0  0  0  0
  199.0630  175.1320  134.9660 C   0  0  0  0  0  2  0  0  0  0  0  0
  198.2810  174.2660  135.8840 C   0  0  2  0  0  0  0  0  0  0  0  0
  199.5520  172.3270  135.1820 O   0  0  0  0  0  1  0  0  0  0  0  0
  198.4030  172.7370  135.8640 C   0  0  1  0  0  3  0  0  0  0  0  0
  198.4280  172.2140  137.2190 N   0  0  0  0  0  2  0  0  0  0  0  0
  197.3600  171.2350  137.3200 C   0  0  0  0  0  1  0  0  0  0  0  0
  187.4300  177.1930  146.9340 N   0  0  0  0  0  2  0  0  0  0  0  0
  187.6180  178.1500  148.0100 C   0  0  0  0  0  2  0  0  0  0  0  0
  189.0990  178.3640  148.2400 C   0  0  0  0  0  2  0  0  0  0  0  0
  189.8720  177.1910  147.6720 C   0  0  0  0  0  1  0  0  0  0  0  0
  186.5680  178.4320  138.6280 C   0  0  0  0  0  2  0  0  0  0  0  0
  185.6600  176.8450  135.2620 N   0  0  0  0  0  2  0  0  0  0  0  0
  186.6600  177.7810  137.3280 N   0  0  0  0  0  2  0  0  0  0  0  0
  184.3530  177.5240  137.0540 O   0  0  0  0  0  0  0  0  0  0  0  0
  185.5090  177.3860  136.5720 C   0  0  0  0  0  0  0  0  0  0  0  0
  186.9620  176.5620  134.6720 C   0  0  0  0  0  2  0  0  0  0  0  0
  187.7980  174.5360  136.4990 O   0  0  0  0  0  0  0  0  0  0  0  0
  187.0710  175.1420  134.3630 N   0  0  0  0  0  2  0  0  0  0  0  0
  187.5000  174.1780  135.3240 C   0  0  0  0  0  0  0  0  0  0  0  0
  186.6540  170.4350  135.1200 C   0  0  0  0  0  2  0  0  0  0  0  0
  188.9540  172.2470  135.3240 N   0  0  0  0  0  2  0  0  0  0  0  0
  188.0770  169.9890  135.2310 C   0  0  0  0  0  0  0  0  0  0  0  0
  189.1580  170.9140  134.7570 C   0  0  0  0  0  2  0  0  0  0  0  0
  187.6390  172.7480  134.9160 C   0  0  1  0  0  3  0  0  0  0  0  0
  186.5290  171.8970  135.5490 C   0  0  0  0  0  2  0  0  0  0  0  0
  188.3520  168.8750  135.6470 O   0  0  0  0  0  0  0  0  0  0  0  0
  1  4  1  0  0  0  0
  1  3  1  0  0  0  0
  2 13  2  0  0  0  0
  2  6  1  0  0  0  0
  3  9  2  0  0  0  0
  4 39  1  6  0  0  0
  4 14  1  0  0  0  0
  5 11  1  0  0  0  0
  6  5  2  0  0  0  0
  7  8  1  0  0  0  0
  8 35  1  0  0  0  0
  9  2  1  0  0  0  0
 10 12  2  0  0  0  0
 10 11  1  0  0  0  0
 11  8  2  0  0  0  0
 12  7  1  0  0  0  0
 13 10  1  0  0  0  0
 14 13  1  0  0  0  0
 15 17  1  0  0  0  0
 15  3  1  0  0  0  0
 16 15  2  0  0  0  0
 18 20  2  0  0  0  0
 18 16  1  0  0  0  0
 19 17  2  0  0  0  0
 20 19  1  0  0  0  0
 21 26  1  0  0  0  0
 22 21  1  0  0  0  0
 22 25  1  0  0  0  0
 23 25  1  0  0  0  0
 24 23  1  6  0  0  0
 25 24  1  0  0  0  0
 25 27  1  1  0  0  0
 26 24  1  0  0  0  0
 26 20  1  1  0  0  0
 29 30  1  0  0  0  0
 29 28  1  0  0  0  0
 30 28  1  0  0  0  0
 30 27  1  1  0  0  0
 32 31  1  1  0  0  0
 32 30  1  0  0  0  0
 32 33  1  0  0  0  0
 33 34  1  0  0  0  0
 35 36  1  0  0  0  0
 36 37  1  0  0  0  0
 38 37  1  0  0  0  0
 40 43  1  0  0  0  0
 41 39  1  0  0  0  0
 43 42  2  0  0  0  0
 43 41  1  0  0  0  0
 44 40  1  0  0  0  0
 46 44  1  0  0  0  0
 46 47  1  0  0  0  0
 47 45  2  0  0  0  0
 48 50  1  0  0  0  0
 48 53  1  0  0  0  0
 50 54  2  0  0  0  0
 51 50  1  0  0  0  0
 51 49  1  0  0  0  0
 52 47  1  1  0  0  0
 52 49  1  0  0  0  0
 52 53  1  0  0  0  0
M  END
>  <MODEL>
4

>  <REMARK>
 VINA RESULT:      -8.1      1.580      2.299
  Name = 
  14 active torsions:
  status: ('A' for Active; 'I' for Inactive)
    1  A    between atoms: N_5  and  C_6
    2  A    between atoms: C_6  and  N_25
    3  A    between atoms: O_7  and  C_43
    4  A    between atoms: O_7  and  C_48
    5  A    between atoms: N_10  and  C_23
    6  A    between atoms: C_12  and  C_13
    7  A    between atoms: C_15  and  N_20
    8  A    between atoms: C_15  and  C_31
    9  A    between atoms: C_16  and  C_50
   10  A    between atoms: N_20  and  C_30
   11  A    between atoms: C_23  and  C_43
   12  A    between atoms: N_24  and  C_50
   13  A    between atoms: C_28  and  C_39
   14  A    between atoms: C_52  and  C_54
                            x       y       z     vdW  Elec       q    Type
                         _______ _______ _______ _____ _____    ______ ____

>  <TORSDO>
F 14

$$$$
=
 OpenBabel10232411303D

 54 61  0  0  1  0  0  0  0  0999 V2000
  189.7580  177.8380  138.8940 C   0  0  0  0  0  2  0  0  0  0  0  0
  189.4370  176.7460  141.7080 C   0  0  0  0  0  0  0  0  0  0  0  0
  190.5820  176.7480  139.4900 C   0  0  0  0  0  0  0  0  0  0  0  0
  188.3180  177.4140  138.9570 C   0  0  1  0  0  3  0  0  0  0  0  0
  188.9100  176.6790  144.0670 N   0  0  0  0  0  0  0  0  0  0  0  0
  189.7310  176.3600  143.0300 C   0  0  0  0  0  3  0  0  0  0  0  0
  185.6280  178.6040  144.0650 S   0  0  0  0  0  0  0  0  0  0  0  0
  186.8770  177.7620  144.8170 C   0  0  0  0  0  0  0  0  0  0  0  0
  190.3930  176.3350  140.7110 N   0  0  0  0  0  0  0  0  0  0  0  0
  187.4200  177.7950  142.5530 C   0  0  0  0  0  0  0  0  0  0  0  0
  187.7790  177.3880  143.8430 C   0  0  0  0  0  0  0  0  0  0  0  0
  186.2180  178.5050  142.4810 C   0  0  0  0  0  3  0  0  0  0  0  0
  188.2250  177.4630  141.4560 C   0  0  0  0  0  0  0  0  0  0  0  0
  187.7670  177.8470  140.1860 O   0  0  0  0  0  0  0  0  0  0  0  0
  191.6370  176.1120  138.6710 C   0  0  0  0  0  0  0  0  0  0  0  0
  191.3280  175.0630  137.7920 C   0  0  0  0  0  3  0  0  0  0  0  0
  192.9710  176.5390  138.7750 C   0  0  0  0  0  3  0  0  0  0  0  0
  192.3310  174.4480  137.0380 C   0  0  0  0  0  3  0  0  0  0  0  0
  193.9740  175.9300  138.0190 C   0  0  0  0  0  3  0  0  0  0  0  0
  193.6600  174.8850  137.1430 C   0  0  0  0  0  0  0  0  0  0  0  0
  196.0940  174.8900  136.6660 C   0  0  0  0  0  2  0  0  0  0  0  0
  197.1400  173.8110  136.5070 C   0  0  0  0  0  2  0  0  0  0  0  0
  195.4910  171.9530  135.6100 C   0  0  0  0  0  2  0  0  0  0  0  0
  194.9340  172.7520  136.7750 C   0  0  1  0  0  3  0  0  0  0  0  0
  196.4240  172.4810  136.6830 C   0  0  2  0  0  0  0  0  0  0  0  0
  194.7680  174.2140  136.3890 C   0  0  1  0  0  3  0  0  0  0  0  0
  196.8300  171.6180  137.7170 O   0  0  0  0  0  0  0  0  0  0  0  0
  198.6230  170.1790  137.5070 O   0  0  0  0  0  0  0  0  0  0  0  0
  198.4080  170.5220  136.1570 C   0  0  0  0  0  2  0  0  0  0  0  0
  197.2890  170.4260  137.1280 C   0  0  2  0  0  0  0  0  0  0  0  0
  197.1330  168.1260  137.8730 O   0  0  0  0  0  1  0  0  0  0  0  0
  196.4280  169.1640  137.2570 C   0  0  1  0  0  3  0  0  0  0  0  0
  195.2220  169.4500  138.0150 N   0  0  0  0  0  2  0  0  0  0  0  0
  195.2310  168.5810  139.1790 C   0  0  0  0  0  1  0  0  0  0  0  0
  186.9640  177.4300  146.2020 N   0  0  0  0  0  2  0  0  0  0  0  0
  186.7110  178.4110  147.2410 C   0  0  0  0  0  2  0  0  0  0  0  0
  187.8540  178.3980  148.2360 C   0  0  0  0  0  2  0  0  0  0  0  0
  188.8470  177.3220  147.8460 C   0  0  0  0  0  1  0  0  0  0  0  0
  187.5500  178.0350  137.8020 C   0  0  0  0  0  2  0  0  0  0  0  0
  185.0120  176.1860  135.6060 N   0  0  0  0  0  2  0  0  0  0  0  0
  186.4960  177.1360  137.3510 N   0  0  0  0  0  2  0  0  0  0  0  0
  186.3600  178.0300  135.1960 O   0  0  0  0  0  0  0  0  0  0  0  0
  185.9710  177.1580  136.0180 C   0  0  0  0  0  0  0  0  0  0  0  0
  184.4380  175.2090  136.5220 C   0  0  0  0  0  2  0  0  0  0  0  0
  182.0190  174.5910  137.9020 O   0  0  0  0  0  0  0  0  0  0  0  0
  183.9630  175.8750  137.7270 N   0  0  0  0  0  2  0  0  0  0  0  0
  182.7380  175.5180  138.3690 C   0  0  0  0  0  0  0  0  0  0  0  0
  180.3130  177.3250  140.7400 C   0  0  0  0  0  2  0  0  0  0  0  0
  183.0310  177.5440  139.6530 N   0  0  0  0  0  2  0  0  0  0  0  0
  181.2540  178.4510  141.0310 C   0  0  0  0  0  0  0  0  0  0  0  0
  182.7290  178.1980  140.9270 C   0  0  0  0  0  2  0  0  0  0  0  0
  182.2900  176.2840  139.5710 C   0  0  1  0  0  3  0  0  0  0  0  0
  180.7820  176.5580  139.5030 C   0  0  0  0  0  2  0  0  0  0  0  0
  180.8340  179.5360  141.4000 O   0  0  0  0  0  0  0  0  0  0  0  0
  1  4  1  0  0  0  0
  1  3  1  0  0  0  0
  2  6  1  0  0  0  0
  3  9  2  0  0  0  0
  4 39  1  6  0  0  0
  4 14  1  0  0  0  0
  6  5  2  0  0  0  0
  7  8  1  0  0  0  0
  8 35  1  0  0  0  0
  9  2  1  0  0  0  0
 10 11  1  0  0  0  0
 11  5  1  0  0  0  0
 11  8  2  0  0  0  0
 12 10  2  0  0  0  0
 12  7  1  0  0  0  0
 13  2  2  0  0  0  0
 13 10  1  0  0  0  0
 14 13  1  0  0  0  0
 15 17  1  0  0  0  0
 15  3  1  0  0  0  0
 16 15  2  0  0  0  0
 18 20  2  0  0  0  0
 18 16  1  0  0  0  0
 19 17  2  0  0  0  0
 20 19  1  0  0  0  0
 22 21  1  0  0  0  0
 22 25  1  0  0  0  0
 23 25  1  0  0  0  0
 24 23  1  6  0  0  0
 25 24  1  0  0  0  0
 25 27  1  1  0  0  0
 26 21  1  0  0  0  0
 26 24  1  0  0  0  0
 26 20  1  1  0  0  0
 29 30  1  0  0  0  0
 29 28  1  0  0  0  0
 30 32  1  0  0  0  0
 30 28  1  0  0  0  0
 30 27  1  1  0  0  0
 32 31  1  1  0  0  0
 32 33  1  0  0  0  0
 33 34  1  0  0  0  0
 35 36  1  0  0  0  0
 36 37  1  0  0  0  0
 38 37  1  0  0  0  0
 40 43  1  0  0  0  0
 40 44  1  0  0  0  0
 41 39  1  0  0  0  0
 42 43  2  0  0  0  0
 43 41  1  0  0  0  0
 44 46  1  0  0  0  0
 45 47  2  0  0  0  0
 46 47  1  0  0  0  0
 48 50  1  0  0  0  0
 49 51  1  0  0  0  0
 50 54  2  0  0  0  0
 51 50  1  0  0  0  0
 52 47  1  6  0  0  0
 52 49  1  0  0  0  0
 53 52  1  0  0  0  0
 53 48  1  0  0  0  0
M  END
>  <MODEL>
5

>  <REMARK>
 VINA RESULT:      -8.1      2.026      3.612
  Name = 
  14 active torsions:
  status: ('A' for Active; 'I' for Inactive)
    1  A    between atoms: N_5  and  C_6
    2  A    between atoms: C_6  and  N_25
    3  A    between atoms: O_7  and  C_43
    4  A    between atoms: O_7  and  C_48
    5  A    between atoms: N_10  and  C_23
    6  A    between atoms: C_12  and  C_13
    7  A    between atoms: C_15  and  N_20
    8  A    between atoms: C_15  and  C_31
    9  A    between atoms: C_16  and  C_50
   10  A    between atoms: N_20  and  C_30
   11  A    between atoms: C_23  and  C_43
   12  A    between atoms: N_24  and  C_50
   13  A    between atoms: C_28  and  C_39
   14  A    between atoms: C_52  and  C_54
                            x       y       z     vdW  Elec       q    Type
                         _______ _______ _______ _____ _____    ______ ____

>  <TORSDO>
F 14

$$$$
=
 OpenBabel10232411303D

 54 61  0  0  1  0  0  0  0  0999 V2000
  190.1560  177.9400  139.1790 C   0  0  0  0  0  2  0  0  0  0  0  0
  190.2280  175.4340  137.4680 C   0  0  0  0  0  0  0  0  0  0  0  0
  188.9580  177.2240  138.6570 C   0  0  0  0  0  0  0  0  0  0  0  0
  190.9560  176.9660  139.9960 C   0  0  1  0  0  3  0  0  0  0  0  0
  191.0290  173.7980  135.8780 N   0  0  0  0  0  0  0  0  0  0  0  0
  190.0160  174.5440  136.3980 C   0  0  0  0  0  3  0  0  0  0  0  0
  194.6940  173.6370  136.8830 S   0  0  0  0  0  0  0  0  0  0  0  0
  193.3730  173.1920  135.9400 C   0  0  0  0  0  0  0  0  0  0  0  0
  189.0650  176.1560  137.9180 N   0  0  0  0  0  0  0  0  0  0  0  0
  192.5580  174.7590  137.4570 C   0  0  0  0  0  0  0  0  0  0  0  0
  192.2780  173.9010  136.3870 C   0  0  0  0  0  0  0  0  0  0  0  0
  193.8900  174.7440  137.8810 C   0  0  0  0  0  3  0  0  0  0  0  0
  191.5380  175.5230  138.0370 C   0  0  0  0  0  0  0  0  0  0  0  0
  191.8790  176.3080  139.1490 O   0  0  0  0  0  0  0  0  0  0  0  0
  187.6100  177.7330  138.9920 C   0  0  0  0  0  0  0  0  0  0  0  0
  186.5670  177.6750  138.0550 C   0  0  0  0  0  3  0  0  0  0  0  0
  187.3590  178.3010  140.2520 C   0  0  0  0  0  3  0  0  0  0  0  0
  185.3020  178.1790  138.3670 C   0  0  0  0  0  3  0  0  0  0  0  0
  186.0930  178.8000  140.5680 C   0  0  0  0  0  3  0  0  0  0  0  0
  185.0570  178.7380  139.6300 C   0  0  0  0  0  0  0  0  0  0  0  0
  183.1490  180.0870  138.7980 C   0  0  0  0  0  2  0  0  0  0  0  0
  181.6490  180.0060  138.9610 C   0  0  0  0  0  2  0  0  0  0  0  0
  181.6890  178.8670  141.3450 C   0  0  0  0  0  2  0  0  0  0  0  0
  182.7010  178.2850  140.3730 C   0  0  1  0  0  3  0  0  0  0  0  0
  181.3730  178.8120  139.8610 C   0  0  2  0  0  0  0  0  0  0  0  0
  183.7280  179.3350  139.9780 C   0  0  1  0  0  3  0  0  0  0  0  0
  180.5820  177.7570  139.3730 O   0  0  0  0  0  0  0  0  0  0  0  0
  180.9330  175.5410  138.8300 O   0  0  0  0  0  0  0  0  0  0  0  0
  182.1230  175.8270  139.5300 C   0  0  0  0  0  2  0  0  0  0  0  0
  181.4310  176.8530  138.7100 C   0  0  2  0  0  0  0  0  0  0  0  0
  182.3210  176.0170  136.6170 O   0  0  0  0  0  1  0  0  0  0  0  0
  181.8510  177.1620  137.2670 C   0  0  1  0  0  3  0  0  0  0  0  0
  180.7340  177.7200  136.5240 N   0  0  0  0  0  2  0  0  0  0  0  0
  180.7460  177.1060  135.2080 C   0  0  0  0  0  1  0  0  0  0  0  0
  193.3610  172.2100  134.9050 N   0  0  0  0  0  2  0  0  0  0  0  0
  193.2100  170.7950  135.1940 C   0  0  0  0  0  2  0  0  0  0  0  0
  194.5220  170.0840  134.9330 C   0  0  0  0  0  2  0  0  0  0  0  0
  195.2740  169.9210  136.2380 C   0  0  0  0  0  1  0  0  0  0  0  0
  191.7020  177.7070  141.0940 C   0  0  0  0  0  2  0  0  0  0  0  0
  190.8060  177.7450  144.8180 N   0  0  0  0  0  2  0  0  0  0  0  0
  191.1830  177.3340  142.4020 N   0  0  0  0  0  2  0  0  0  0  0  0
  192.1780  179.1150  143.5430 O   0  0  0  0  0  0  0  0  0  0  0  0
  191.4250  178.1050  143.5850 C   0  0  0  0  0  0  0  0  0  0  0  0
  190.0040  176.5390  144.9740 C   0  0  0  0  0  2  0  0  0  0  0  0
  188.2110  177.6660  146.8860 O   0  0  0  0  0  0  0  0  0  0  0  0
  188.5990  176.8410  144.7350 N   0  0  0  0  0  2  0  0  0  0  0  0
  187.7520  177.4030  145.7380 C   0  0  0  0  0  0  0  0  0  0  0  0
  184.6390  178.1840  143.6260 C   0  0  0  0  0  2  0  0  0  0  0  0
  185.8010  178.7280  146.2650 N   0  0  0  0  0  2  0  0  0  0  0  0
  184.0140  179.0630  144.6630 C   0  0  0  0  0  0  0  0  0  0  0  0
  184.3500  178.8230  146.1040 C   0  0  0  0  0  2  0  0  0  0  0  0
  186.3080  177.6340  145.4350 C   0  0  1  0  0  3  0  0  0  0  0  0
  186.1170  177.9650  143.9480 C   0  0  0  0  0  2  0  0  0  0  0  0
  183.2050  179.9210  144.3480 O   0  0  0  0  0  0  0  0  0  0  0  0
  1  4  1  0  0  0  0
  2  9  1  0  0  0  0
  2 13  2  0  0  0  0
  3 15  1  0  0  0  0
  3  1  1  0  0  0  0
  4 39  1  1  0  0  0
  5 11  1  0  0  0  0
  5  6  2  0  0  0  0
  6  2  1  0  0  0  0
  7 12  1  0  0  0  0
  8 11  2  0  0  0  0
  8  7  1  0  0  0  0
  9  3  2  0  0  0  0
 10 12  2  0  0  0  0
 10 13  1  0  0  0  0
 11 10  1  0  0  0  0
 13 14  1  0  0  0  0
 14  4  1  0  0  0  0
 15 17  1  0  0  0  0
 16 18  1  0  0  0  0
 16 15  2  0  0  0  0
 17 19  2  0  0  0  0
 18 20  2  0  0  0  0
 20 19  1  0  0  0  0
 21 22  1  0  0  0  0
 21 26  1  0  0  0  0
 22 25  1  0  0  0  0
 24 23  1  1  0  0  0
 25 27  1  6  0  0  0
 25 24  1  0  0  0  0
 25 23  1  0  0  0  0
 26 20  1  6  0  0  0
 26 24  1  0  0  0  0
 28 29  1  0  0  0  0
 30 28  1  0  0  0  0
 30 27  1  1  0  0  0
 30 29  1  0  0  0  0
 32 31  1  6  0  0  0
 32 30  1  0  0  0  0
 33 32  1  0  0  0  0
 34 33  1  0  0  0  0
 35 36  1  0  0  0  0
 35  8  1  0  0  0  0
 37 36  1  0  0  0  0
 37 38  1  0  0  0  0
 39 41  1  0  0  0  0
 40 44  1  0  0  0  0
 41 43  1  0  0  0  0
 42 43  2  0  0  0  0
 43 40  1  0  0  0  0
 46 44  1  0  0  0  0
 46 47  1  0  0  0  0
 47 45  2  0  0  0  0
 48 53  1  0  0  0  0
 48 50  1  0  0  0  0
 50 51  1  0  0  0  0
 51 49  1  0  0  0  0
 52 47  1  6  0  0  0
 52 49  1  0  0  0  0
 53 52  1  0  0  0  0
 54 50  2  0  0  0  0
M  END
>  <MODEL>
6

>  <REMARK>
 VINA RESULT:      -7.9      3.914     11.693
  Name = 
  14 active torsions:
  status: ('A' for Active; 'I' for Inactive)
    1  A    between atoms: N_5  and  C_6
    2  A    between atoms: C_6  and  N_25
    3  A    between atoms: O_7  and  C_43
    4  A    between atoms: O_7  and  C_48
    5  A    between atoms: N_10  and  C_23
    6  A    between atoms: C_12  and  C_13
    7  A    between atoms: C_15  and  N_20
    8  A    between atoms: C_15  and  C_31
    9  A    between atoms: C_16  and  C_50
   10  A    between atoms: N_20  and  C_30
   11  A    between atoms: C_23  and  C_43
   12  A    between atoms: N_24  and  C_50
   13  A    between atoms: C_28  and  C_39
   14  A    between atoms: C_52  and  C_54
                            x       y       z     vdW  Elec       q    Type
                         _______ _______ _______ _____ _____    ______ ____

>  <TORSDO>
F 14

$$$$
=
 OpenBabel10232411303D

 54 61  0  0  1  0  0  0  0  0999 V2000
  189.0620  176.9120  137.4210 C   0  0  0  0  0  2  0  0  0  0  0  0
  190.1730  174.2270  136.5430 C   0  0  0  0  0  0  0  0  0  0  0  0
  188.2470  175.7690  136.9210 C   0  0  0  0  0  0  0  0  0  0  0  0
  189.8440  176.4350  138.6120 C   0  0  1  0  0  3  0  0  0  0  0  0
  191.7230  172.5950  135.6590 N   0  0  0  0  0  0  0  0  0  0  0  0
  190.4620  173.0970  135.7530 C   0  0  0  0  0  3  0  0  0  0  0  0
  194.9410  173.7790  137.3050 S   0  0  0  0  0  0  0  0  0  0  0  0
  194.0500  172.7560  136.3090 C   0  0  0  0  0  0  0  0  0  0  0  0
  188.7940  174.6450  136.5520 N   0  0  0  0  0  0  0  0  0  0  0  0
  192.5220  174.3020  137.1420 C   0  0  0  0  0  0  0  0  0  0  0  0
  192.7390  173.1830  136.3310 C   0  0  0  0  0  0  0  0  0  0  0  0
  193.6660  174.7860  137.7820 C   0  0  0  0  0  3  0  0  0  0  0  0
  191.2340  174.8330  137.2870 C   0  0  0  0  0  0  0  0  0  0  0  0
  191.0820  175.9140  138.1690 O   0  0  0  0  0  0  0  0  0  0  0  0
  186.7760  175.9090  136.8500 C   0  0  0  0  0  0  0  0  0  0  0  0
  185.9350  174.8580  137.2440 C   0  0  0  0  0  3  0  0  0  0  0  0
  186.1990  177.0960  136.3690 C   0  0  0  0  0  3  0  0  0  0  0  0
  184.5460  174.9850  137.1520 C   0  0  0  0  0  3  0  0  0  0  0  0
  184.8110  177.2280  136.2820 C   0  0  0  0  0  3  0  0  0  0  0  0
  183.9780  176.1760  136.6770 C   0  0  0  0  0  0  0  0  0  0  0  0
  181.7550  175.4940  137.5420 C   0  0  0  0  0  2  0  0  0  0  0  0
  180.4510  176.2180  137.7860 C   0  0  0  0  0  2  0  0  0  0  0  0
  180.7760  178.0280  135.8890 C   0  0  0  0  0  2  0  0  0  0  0  0
  182.0310  177.7630  136.7020 C   0  0  1  0  0  3  0  0  0  0  0  0
  180.6660  177.6610  137.3570 C   0  0  2  0  0  0  0  0  0  0  0  0
  182.4950  176.3270  136.5160 C   0  0  1  0  0  3  0  0  0  0  0  0
  180.4990  178.6870  138.3040 O   0  0  0  0  0  0  0  0  0  0  0  0
  181.9710  180.0880  139.3970 O   0  0  0  0  0  0  0  0  0  0  0  0
  182.8470  179.4390  138.5040 C   0  0  0  0  0  2  0  0  0  0  0  0
  181.6680  178.7490  139.0830 C   0  0  2  0  0  0  0  0  0  0  0  0
  182.8800  176.9920  140.2280 O   0  0  0  0  0  1  0  0  0  0  0  0
  181.7770  177.8460  140.3180 C   0  0  1  0  0  3  0  0  0  0  0  0
  181.8810  178.6500  141.5240 N   0  0  0  0  0  2  0  0  0  0  0  0
  180.6760  178.4170  142.2990 C   0  0  0  0  0  1  0  0  0  0  0  0
  194.5400  171.6090  135.6150 N   0  0  0  0  0  2  0  0  0  0  0  0
  195.3170  170.5830  136.2850 C   0  0  0  0  0  2  0  0  0  0  0  0
  194.3890  169.6760  137.0660 C   0  0  0  0  0  2  0  0  0  0  0  0
  194.9850  169.3990  138.4310 C   0  0  0  0  0  1  0  0  0  0  0  0
  190.0850  177.5940  139.5650 C   0  0  0  0  0  2  0  0  0  0  0  0
  191.7240  176.8710  142.9520 N   0  0  0  0  0  2  0  0  0  0  0  0
  190.3310  177.1010  140.9140 N   0  0  0  0  0  2  0  0  0  0  0  0
  192.5490  177.8300  141.0070 O   0  0  0  0  0  0  0  0  0  0  0  0
  191.5770  177.2870  141.5960 C   0  0  0  0  0  0  0  0  0  0  0  0
  190.6830  176.1480  143.6710 C   0  0  0  0  0  2  0  0  0  0  0  0
  187.8680  175.8330  143.3290 O   0  0  0  0  0  0  0  0  0  0  0  0
  189.6680  177.0780  144.1470 N   0  0  0  0  0  2  0  0  0  0  0  0
  188.2710  176.8630  143.9400 C   0  0  0  0  0  0  0  0  0  0  0  0
  185.9590  178.7230  146.3810 C   0  0  0  0  0  2  0  0  0  0  0  0
  186.0830  177.8250  143.5900 N   0  0  0  0  0  2  0  0  0  0  0  0
  184.8590  178.9010  145.3840 C   0  0  0  0  0  0  0  0  0  0  0  0
  185.2120  178.9510  143.9270 C   0  0  0  0  0  2  0  0  0  0  0  0
  187.2940  177.8890  144.4100 C   0  0  1  0  0  3  0  0  0  0  0  0
  186.9450  177.6640  145.8880 C   0  0  0  0  0  2  0  0  0  0  0  0
  183.7050  179.0590  145.7490 O   0  0  0  0  0  0  0  0  0  0  0  0
  1  4  1  0  0  0  0
  2  9  1  0  0  0  0
  2 13  2  0  0  0  0
  3  1  1  0  0  0  0
  4 39  1  1  0  0  0
  5  6  2  0  0  0  0
  5 11  1  0  0  0  0
  6  2  1  0  0  0  0
  7 12  1  0  0  0  0
  8 11  2  0  0  0  0
  8  7  1  0  0  0  0
  9  3  2  0  0  0  0
 10 13  1  0  0  0  0
 10 12  2  0  0  0  0
 11 10  1  0  0  0  0
 13 14  1  0  0  0  0
 14  4  1  0  0  0  0
 15  3  1  0  0  0  0
 15 16  1  0  0  0  0
 17 15  2  0  0  0  0
 18 16  2  0  0  0  0
 19 17  1  0  0  0  0
 19 20  2  0  0  0  0
 20 18  1  0  0  0  0
 21 22  1  0  0  0  0
 23 25  1  0  0  0  0
 24 23  1  6  0  0  0
 24 25  1  0  0  0  0
 25 22  1  0  0  0  0
 25 27  1  1  0  0  0
 26 20  1  1  0  0  0
 26 24  1  0  0  0  0
 26 21  1  0  0  0  0
 29 30  1  0  0  0  0
 29 28  1  0  0  0  0
 30 27  1  6  0  0  0
 30 28  1  0  0  0  0
 30 32  1  0  0  0  0
 32 31  1  6  0  0  0
 32 33  1  0  0  0  0
 33 34  1  0  0  0  0
 35 36  1  0  0  0  0
 35  8  1  0  0  0  0
 36 37  1  0  0  0  0
 37 38  1  0  0  0  0
 39 41  1  0  0  0  0
 40 44  1  0  0  0  0
 41 43  1  0  0  0  0
 42 43  2  0  0  0  0
 43 40  1  0  0  0  0
 44 46  1  0  0  0  0
 45 47  2  0  0  0  0
 47 46  1  0  0  0  0
 49 51  1  0  0  0  0
 49 52  1  0  0  0  0
 50 54  2  0  0  0  0
 50 48  1  0  0  0  0
 51 50  1  0  0  0  0
 52 47  1  6  0  0  0
 52 53  1  0  0  0  0
 53 48  1  0  0  0  0
M  END
>  <MODEL>
7

>  <REMARK>
 VINA RESULT:      -7.9      3.742     11.653
  Name = 
  14 active torsions:
  status: ('A' for Active; 'I' for Inactive)
    1  A    between atoms: N_5  and  C_6
    2  A    between atoms: C_6  and  N_25
    3  A    between atoms: O_7  and  C_43
    4  A    between atoms: O_7  and  C_48
    5  A    between atoms: N_10  and  C_23
    6  A    between atoms: C_12  and  C_13
    7  A    between atoms: C_15  and  N_20
    8  A    between atoms: C_15  and  C_31
    9  A    between atoms: C_16  and  C_50
   10  A    between atoms: N_20  and  C_30
   11  A    between atoms: C_23  and  C_43
   12  A    between atoms: N_24  and  C_50
   13  A    between atoms: C_28  and  C_39
   14  A    between atoms: C_52  and  C_54
                            x       y       z     vdW  Elec       q    Type
                         _______ _______ _______ _____ _____    ______ ____

>  <TORSDO>
F 14

$$$$
=
 OpenBabel10232411303D

 54 61  0  0  1  0  0  0  0  0999 V2000
  189.6070  178.4160  138.4530 C   0  0  0  0  0  2  0  0  0  0  0  0
  189.0350  177.1380  141.1460 C   0  0  0  0  0  0  0  0  0  0  0  0
  190.3430  177.2530  139.0230 C   0  0  0  0  0  0  0  0  0  0  0  0
  188.1510  178.0500  138.3800 C   0  0  1  0  0  3  0  0  0  0  0  0
  188.3300  176.9230  143.4490 N   0  0  0  0  0  0  0  0  0  0  0  0
  189.2150  176.6450  142.4530 C   0  0  0  0  0  3  0  0  0  0  0  0
  185.1300  178.9780  143.3550 S   0  0  0  0  0  0  0  0  0  0  0  0
  186.2870  178.0320  144.1300 C   0  0  0  0  0  0  0  0  0  0  0  0
  190.0480  176.7610  140.1930 N   0  0  0  0  0  0  0  0  0  0  0  0
  187.0000  178.2070  141.9200 C   0  0  0  0  0  0  0  0  0  0  0  0
  187.2460  177.6930  143.1980 C   0  0  0  0  0  0  0  0  0  0  0  0
  185.8330  178.9690  141.8150 C   0  0  0  0  0  3  0  0  0  0  0  0
  187.8720  177.9220  140.8620 C   0  0  0  0  0  0  0  0  0  0  0  0
  187.5260  178.4150  139.5950 O   0  0  0  0  0  0  0  0  0  0  0  0
  191.4330  176.6340  138.2370 C   0  0  0  0  0  0  0  0  0  0  0  0
  191.1960  176.1420  136.9450 C   0  0  0  0  0  3  0  0  0  0  0  0
  192.7220  176.5140  138.7830 C   0  0  0  0  0  3  0  0  0  0  0  0
  192.2220  175.5360  136.2150 C   0  0  0  0  0  3  0  0  0  0  0  0
  193.7500  175.9140  138.0530 C   0  0  0  0  0  3  0  0  0  0  0  0
  193.5080  175.4270  136.7640 C   0  0  0  0  0  0  0  0  0  0  0  0
  195.6460  175.7360  135.5450 C   0  0  0  0  0  2  0  0  0  0  0  0
  196.9550  174.9820  135.5040 C   0  0  0  0  0  2  0  0  0  0  0  0
  195.9300  172.6100  136.0570 C   0  0  0  0  0  2  0  0  0  0  0  0
  195.3590  173.7350  136.9030 C   0  0  1  0  0  3  0  0  0  0  0  0
  196.8030  173.7920  136.4380 C   0  0  2  0  0  0  0  0  0  0  0  0
  194.6170  174.7360  136.0310 C   0  0  1  0  0  3  0  0  0  0  0  0
  197.6750  173.6680  137.5340 O   0  0  0  0  0  0  0  0  0  0  0  0
  199.8740  173.2380  138.0910 O   0  0  0  0  0  0  0  0  0  0  0  0
  200.0430  174.2850  137.1620 C   0  0  0  0  0  2  0  0  0  0  0  0
  198.9390  173.3000  137.0390 C   0  0  2  0  0  0  0  0  0  0  0  0
  199.8470  172.3300  135.0130 O   0  0  0  0  0  1  0  0  0  0  0  0
  199.0420  172.0720  136.1260 C   0  0  1  0  0  3  0  0  0  0  0  0
  199.5770  170.9390  136.8620 N   0  0  0  0  0  2  0  0  0  0  0  0
  198.4450  170.1650  137.3400 C   0  0  0  0  0  1  0  0  0  0  0  0
  186.2570  177.5980  145.4880 N   0  0  0  0  0  2  0  0  0  0  0  0
  186.3010  178.5380  146.5940 C   0  0  0  0  0  2  0  0  0  0  0  0
  187.2790  178.0420  147.6390 C   0  0  0  0  0  2  0  0  0  0  0  0
  188.5870  177.6720  146.9690 C   0  0  0  0  0  1  0  0  0  0  0  0
  187.4950  178.7850  137.2220 C   0  0  0  0  0  2  0  0  0  0  0  0
  184.8720  176.0670  136.5780 N   0  0  0  0  0  2  0  0  0  0  0  0
  186.2820  178.0950  136.8050 N   0  0  0  0  0  2  0  0  0  0  0  0
  187.0760  175.9520  137.2960 O   0  0  0  0  0  0  0  0  0  0  0  0
  186.1200  176.6750  136.9060 C   0  0  0  0  0  0  0  0  0  0  0  0
  183.7520  176.8180  136.0260 C   0  0  0  0  0  2  0  0  0  0  0  0
  181.3520  175.8290  137.2110 O   0  0  0  0  0  0  0  0  0  0  0  0
  183.0120  177.4690  137.0990 N   0  0  0  0  0  2  0  0  0  0  0  0
  181.8130  176.9210  137.6470 C   0  0  0  0  0  0  0  0  0  0  0  0
  180.7480  179.9310  139.7850 C   0  0  0  0  0  2  0  0  0  0  0  0
  181.3450  177.0670  140.0130 N   0  0  0  0  0  2  0  0  0  0  0  0
  180.7370  179.1630  141.0680 C   0  0  0  0  0  0  0  0  0  0  0  0
  180.4800  177.6860  141.0180 C   0  0  0  0  0  2  0  0  0  0  0  0
  181.0800  177.6750  138.7080 C   0  0  1  0  0  3  0  0  0  0  0  0
  181.5080  179.1490  138.7140 C   0  0  0  0  0  2  0  0  0  0  0  0
  180.8780  179.7330  142.1390 O   0  0  0  0  0  0  0  0  0  0  0  0
  1  3  1  0  0  0  0
  2  6  1  0  0  0  0
  3  9  2  0  0  0  0
  4 39  1  6  0  0  0
  4  1  1  0  0  0  0
  4 14  1  0  0  0  0
  6  5  2  0  0  0  0
  7  8  1  0  0  0  0
  8 35  1  0  0  0  0
  9  2  1  0  0  0  0
 10 11  1  0  0  0  0
 11  5  1  0  0  0  0
 11  8  2  0  0  0  0
 12 10  2  0  0  0  0
 12  7  1  0  0  0  0
 13  2  2  0  0  0  0
 13 10  1  0  0  0  0
 14 13  1  0  0  0  0
 15 17  1  0  0  0  0
 15  3  1  0  0  0  0
 16 15  2  0  0  0  0
 18 20  2  0  0  0  0
 18 16  1  0  0  0  0
 19 17  2  0  0  0  0
 20 19  1  0  0  0  0
 21 26  1  0  0  0  0
 22 21  1  0  0  0  0
 22 25  1  0  0  0  0
 23 25  1  0  0  0  0
 24 23  1  6  0  0  0
 25 24  1  0  0  0  0
 25 27  1  1  0  0  0
 26 20  1  1  0  0  0
 26 24  1  0  0  0  0
 29 28  1  0  0  0  0
 30 29  1  0  0  0  0
 30 27  1  1  0  0  0
 30 28  1  0  0  0  0
 32 31  1  6  0  0  0
 32 33  1  0  0  0  0
 32 30  1  0  0  0  0
 33 34  1  0  0  0  0
 35 36  1  0  0  0  0
 36 37  1  0  0  0  0
 38 37  1  0  0  0  0
 40 43  1  0  0  0  0
 41 43  1  0  0  0  0
 41 39  1  0  0  0  0
 43 42  2  0  0  0  0
 44 40  1  0  0  0  0
 44 46  1  0  0  0  0
 45 47  2  0  0  0  0
 46 47  1  0  0  0  0
 48 50  1  0  0  0  0
 49 51  1  0  0  0  0
 50 54  2  0  0  0  0
 51 50  1  0  0  0  0
 52 47  1  6  0  0  0
 52 53  1  0  0  0  0
 52 49  1  0  0  0  0
 53 48  1  0  0  0  0
M  END
>  <MODEL>
8

>  <REMARK>
 VINA RESULT:      -7.8      1.692      3.490
  Name = 
  14 active torsions:
  status: ('A' for Active; 'I' for Inactive)
    1  A    between atoms: N_5  and  C_6
    2  A    between atoms: C_6  and  N_25
    3  A    between atoms: O_7  and  C_43
    4  A    between atoms: O_7  and  C_48
    5  A    between atoms: N_10  and  C_23
    6  A    between atoms: C_12  and  C_13
    7  A    between atoms: C_15  and  N_20
    8  A    between atoms: C_15  and  C_31
    9  A    between atoms: C_16  and  C_50
   10  A    between atoms: N_20  and  C_30
   11  A    between atoms: C_23  and  C_43
   12  A    between atoms: N_24  and  C_50
   13  A    between atoms: C_28  and  C_39
   14  A    between atoms: C_52  and  C_54
                            x       y       z     vdW  Elec       q    Type
                         _______ _______ _______ _____ _____    ______ ____

>  <TORSDO>
F 14

$$$$
=
 OpenBabel10232411303D

 54 61  0  0  1  0  0  0  0  0999 V2000
  188.9720  178.4070  138.7750 C   0  0  0  0  0  2  0  0  0  0  0  0
  188.7350  177.1740  141.5380 C   0  0  0  0  0  0  0  0  0  0  0  0
  189.8330  177.3100  139.3010 C   0  0  0  0  0  0  0  0  0  0  0  0
  187.5440  177.9460  138.8460 C   0  0  1  0  0  3  0  0  0  0  0  0
  188.2590  176.9820  143.9010 N   0  0  0  0  0  0  0  0  0  0  0  0
  189.0660  176.7320  142.8340 C   0  0  0  0  0  3  0  0  0  0  0  0
  184.9350  178.8240  144.0580 S   0  0  0  0  0  0  0  0  0  0  0  0
  186.2180  177.9780  144.7430 C   0  0  0  0  0  0  0  0  0  0  0  0
  189.6800  176.8350  140.5040 N   0  0  0  0  0  0  0  0  0  0  0  0
  186.7130  178.1330  142.4730 C   0  0  0  0  0  0  0  0  0  0  0  0
  187.1080  177.6720  143.7340 C   0  0  0  0  0  0  0  0  0  0  0  0
  185.4940  178.8150  142.4600 C   0  0  0  0  0  3  0  0  0  0  0  0
  187.5020  177.8730  141.3460 C   0  0  0  0  0  0  0  0  0  0  0  0
  187.0100  178.3060  140.1050 O   0  0  0  0  0  0  0  0  0  0  0  0
  190.8850  176.7390  138.4310 C   0  0  0  0  0  0  0  0  0  0  0  0
  190.5780  176.2730  137.1440 C   0  0  0  0  0  3  0  0  0  0  0  0
  192.2090  176.6390  138.8910 C   0  0  0  0  0  3  0  0  0  0  0  0
  191.5700  175.7120  136.3350 C   0  0  0  0  0  3  0  0  0  0  0  0
  193.2030  176.0840  138.0820 C   0  0  0  0  0  3  0  0  0  0  0  0
  192.8910  175.6230  136.7990 C   0  0  0  0  0  0  0  0  0  0  0  0
  194.3360  175.8500  134.7960 C   0  0  0  0  0  2  0  0  0  0  0  0
  195.7850  175.5390  134.5000 C   0  0  0  0  0  2  0  0  0  0  0  0
  196.0030  173.5510  136.2270 C   0  0  0  0  0  2  0  0  0  0  0  0
  195.2460  174.7520  136.7690 C   0  0  1  0  0  3  0  0  0  0  0  0
  196.3730  174.9510  135.7730 C   0  0  2  0  0  0  0  0  0  0  0  0
  193.9670  174.9790  135.9790 C   0  0  1  0  0  3  0  0  0  0  0  0
  197.4600  175.6000  136.3860 O   0  0  0  0  0  0  0  0  0  0  0  0
  199.5810  175.4190  135.4930 O   0  0  0  0  0  0  0  0  0  0  0  0
  198.9520  174.3120  134.8880 C   0  0  0  0  0  2  0  0  0  0  0  0
  198.5880  174.7700  136.2530 C   0  0  2  0  0  0  0  0  0  0  0  0
  199.0680  174.9730  138.6190 O   0  0  0  0  0  1  0  0  0  0  0  0
  199.1790  174.1250  137.5130 C   0  0  1  0  0  3  0  0  0  0  0  0
  198.5110  172.8660  137.7970 N   0  0  0  0  0  2  0  0  0  0  0  0
  199.2900  171.8160  137.1640 C   0  0  0  0  0  1  0  0  0  0  0  0
  186.3410  177.5820  146.1090 N   0  0  0  0  0  2  0  0  0  0  0  0
  187.0560  178.3920  147.0790 C   0  0  0  0  0  2  0  0  0  0  0  0
  187.9450  177.5010  147.9220 C   0  0  0  0  0  2  0  0  0  0  0  0
  189.3880  177.6890  147.5030 C   0  0  0  0  0  1  0  0  0  0  0  0
  186.7370  178.6030  137.7380 C   0  0  0  0  0  2  0  0  0  0  0  0
  183.8020  176.4810  136.4890 N   0  0  0  0  0  2  0  0  0  0  0  0
  185.9440  177.6080  137.0290 N   0  0  0  0  0  2  0  0  0  0  0  0
  183.9700  178.0310  138.2080 O   0  0  0  0  0  0  0  0  0  0  0  0
  184.5500  177.3990  137.2850 C   0  0  0  0  0  0  0  0  0  0  0  0
  184.4160  175.6400  135.4710 C   0  0  0  0  0  2  0  0  0  0  0  0
  182.1070  174.2730  134.5000 O   0  0  0  0  0  0  0  0  0  0  0  0
  184.0990  174.2410  135.7220 N   0  0  0  0  0  2  0  0  0  0  0  0
  182.9220  173.6160  135.2080 C   0  0  0  0  0  0  0  0  0  0  0  0
  183.6590  169.9660  136.1550 C   0  0  0  0  0  2  0  0  0  0  0  0
  181.8640  171.5700  134.4770 N   0  0  0  0  0  2  0  0  0  0  0  0
  182.6190  169.3980  135.2440 C   0  0  0  0  0  0  0  0  0  0  0  0
  181.4260  170.2410  134.9030 C   0  0  0  0  0  2  0  0  0  0  0  0
  182.6370  172.1920  135.5540 C   0  0  1  0  0  3  0  0  0  0  0  0
  183.9450  171.4210  135.7810 C   0  0  0  0  0  2  0  0  0  0  0  0
  182.7090  168.2530  134.8300 O   0  0  0  0  0  0  0  0  0  0  0  0
  1  4  1  0  0  0  0
  1  3  1  0  0  0  0
  2  6  1  0  0  0  0
  3  9  2  0  0  0  0
  4 39  1  6  0  0  0
  4 14  1  0  0  0  0
  6  5  2  0  0  0  0
  7  8  1  0  0  0  0
  8 35  1  0  0  0  0
  9  2  1  0  0  0  0
 10 11  1  0  0  0  0
 11  5  1  0  0  0  0
 11  8  2  0  0  0  0
 12 10  2  0  0  0  0
 12  7  1  0  0  0  0
 13  2  2  0  0  0  0
 13 10  1  0  0  0  0
 14 13  1  0  0  0  0
 15 17  1  0  0  0  0
 15  3  1  0  0  0  0
 16 15  2  0  0  0  0
 18 20  2  0  0  0  0
 18 16  1  0  0  0  0
 19 17  2  0  0  0  0
 20 19  1  0  0  0  0
 21 26  1  0  0  0  0
 22 21  1  0  0  0  0
 22 25  1  0  0  0  0
 24 23  1  6  0  0  0
 25 23  1  0  0  0  0
 25 27  1  1  0  0  0
 25 24  1  0  0  0  0
 26 24  1  0  0  0  0
 26 20  1  1  0  0  0
 28 30  1  0  0  0  0
 29 28  1  0  0  0  0
 29 30  1  0  0  0  0
 30 27  1  1  0  0  0
 30 32  1  0  0  0  0
 32 33  1  0  0  0  0
 32 31  1  1  0  0  0
 34 33  1  0  0  0  0
 35 36  1  0  0  0  0
 36 37  1  0  0  0  0
 38 37  1  0  0  0  0
 40 43  1  0  0  0  0
 41 43  1  0  0  0  0
 41 39  1  0  0  0  0
 43 42  2  0  0  0  0
 44 46  1  0  0  0  0
 44 40  1  0  0  0  0
 45 47  2  0  0  0  0
 47 46  1  0  0  0  0
 49 51  1  0  0  0  0
 49 52  1  0  0  0  0
 50 48  1  0  0  0  0
 51 50  1  0  0  0  0
 52 47  1  6  0  0  0
 52 53  1  0  0  0  0
 53 48  1  0  0  0  0
 54 50  2  0  0  0  0
M  END
>  <MODEL>
9

>  <REMARK>
 VINA RESULT:      -7.8      2.055      2.367
  Name = 
  14 active torsions:
  status: ('A' for Active; 'I' for Inactive)
    1  A    between atoms: N_5  and  C_6
    2  A    between atoms: C_6  and  N_25
    3  A    between atoms: O_7  and  C_43
    4  A    between atoms: O_7  and  C_48
    5  A    between atoms: N_10  and  C_23
    6  A    between atoms: C_12  and  C_13
    7  A    between atoms: C_15  and  N_20
    8  A    between atoms: C_15  and  C_31
    9  A    between atoms: C_16  and  C_50
   10  A    between atoms: N_20  and  C_30
   11  A    between atoms: C_23  and  C_43
   12  A    between atoms: N_24  and  C_50
   13  A    between atoms: C_28  and  C_39
   14  A    between atoms: C_52  and  C_54
                            x       y       z     vdW  Elec       q    Type
                         _______ _______ _______ _____ _____    ______ ____

>  <TORSDO>
F 14

$$$$
