=
 OpenBabel10232412353D

 37 38  0  0  1  0  0  0  0  0999 V2000
  186.2350  178.9100  139.6760 O   0  0  0  0  0  0  0  0  0  0  0  0
  186.0770  178.3810  138.4450 O   0  0  0  0  0  0  0  0  0  0  0  0
  188.1460  178.0620  139.4010 C   0  0  0  0  0  0  0  0  0  0  0  0
  187.3480  177.8190  138.1690 C   0  0  2  0  0  3  0  0  0  0  0  0
  187.4600  178.7120  140.2540 N   0  0  0  0  0  0  0  0  0  0  0  0
  187.9580  178.5060  136.9830 C   0  0  0  0  0  0  0  0  0  0  0  0
  188.3610  177.7610  135.8320 N   0  0  0  0  0  2  0  0  0  0  0  0
  188.1150  179.7560  136.9930 O   0  0  0  0  0  0  0  0  0  0  0  0
  188.1540  176.3250  135.7140 C   0  0  0  0  0  2  0  0  0  0  0  0
  189.5220  174.6260  134.7540 O   0  0  0  0  0  0  0  0  0  0  0  0
  190.6170  176.1020  136.2100 N   0  0  0  0  0  2  0  0  0  0  0  0
  191.9220  175.5190  136.1200 C   0  0  0  0  0  0  0  0  0  0  0  0
  192.1480  174.5580  135.3340 O   0  0  0  0  0  0  0  0  0  0  0  0
  189.4590  175.6360  135.5080 C   0  0  0  0  0  0  0  0  0  0  0  0
  193.0250  176.0490  136.9690 C   0  0  0  0  0  2  0  0  0  0  0  0
  193.8140  174.9080  137.5920 C   0  0  0  0  0  2  0  0  0  0  0  0
  195.6700  174.5670  139.2490 C   0  0  0  0  0  0  0  0  0  0  0  0
  196.5190  175.0550  140.0400 O   0  0  0  0  0  1  0  0  0  0  0  0
  195.5820  173.1870  139.1000 O   0  0  0  0  0  0  0  0  0  0  0  0
  194.8040  175.4330  138.5190 N   0  0  0  0  0  2  0  0  0  0  0  0
  189.5580  177.6410  139.6390 C   0  0  0  0  0  2  0  0  0  0  0  0
  191.3580  177.5450  141.3370 C   0  0  0  0  0  2  0  0  0  0  0  0
  189.8600  177.6200  141.1250 C   0  0  2  0  0  3  0  0  0  0  0  0
  190.5110  176.2960  141.4670 C   0  0  2  0  0  3  0  0  0  0  0  0
  190.2990  175.9960  142.9380 C   0  0  0  0  0  2  0  0  0  0  0  0
  191.5960  176.2090  143.6910 C   0  0  0  0  0  2  0  0  0  0  0  0
  191.3360  176.9140  145.0130 C   0  0  0  0  0  2  0  0  0  0  0  0
  190.0420  178.1810  144.8270 S   0  0  0  0  0  0  0  0  0  0  0  0
  188.7980  177.1950  145.7200 C   0  0  1  0  0  3  0  0  0  0  0  0
  189.2320  176.9940  147.1660 C   0  0  0  0  0  2  0  0  0  0  0  0
  188.2260  178.1920  148.8920 C   0  0  0  0  0  1  0  0  0  0  0  0
  188.0740  177.0240  148.0450 N   0  0  0  0  0  2  0  0  0  0  0  0
  187.4010  177.8120  145.5980 C   0  0  0  0  0  2  0  0  0  0  0  0
  186.6830  177.4370  144.3060 C   0  0  0  0  0  2  0  0  0  0  0  0
  185.3790  178.2100  144.1800 C   0  0  0  0  0  2  0  0  0  0  0  0
  185.2060  179.1550  145.3590 C   0  0  0  0  0  2  0  0  0  0  0  0
  184.3700  178.5760  146.3180 O   0  0  0  0  0  1  0  0  0  0  0  0
  1  5  1  0  0  0  0
  2  1  1  0  0  0  0
  3 21  1  0  0  0  0
  3  5  2  0  0  0  0
  4  6  1  6  0  0  0
  4  2  1  0  0  0  0
  4  3  1  0  0  0  0
  6  8  2  0  0  0  0
  7  6  1  0  0  0  0
  9  7  1  0  0  0  0
 10 14  2  0  0  0  0
 12 11  1  0  0  0  0
 12 15  1  0  0  0  0
 13 12  2  0  0  0  0
 14  9  1  0  0  0  0
 14 11  1  0  0  0  0
 15 16  1  0  0  0  0
 16 20  1  0  0  0  0
 17 18  1  0  0  0  0
 19 17  2  0  0  0  0
 20 17  1  0  0  0  0
 22 24  1  0  0  0  0
 23 21  1  6  0  0  0
 23 22  1  0  0  0  0
 23 24  1  0  0  0  0
 24 25  1  1  0  0  0
 25 26  1  0  0  0  0
 26 27  1  0  0  0  0
 28 27  1  0  0  0  0
 28 29  1  0  0  0  0
 29 33  1  1  0  0  0
 29 30  1  0  0  0  0
 30 32  1  0  0  0  0
 32 31  1  0  0  0  0
 34 33  1  0  0  0  0
 35 34  1  0  0  0  0
 35 36  1  0  0  0  0
 36 37  1  0  0  0  0
M  END
>  <MODEL>
1

>  <REMARK>
 VINA RESULT:      -7.1      0.000      0.000
  Name = 
  19 active torsions:
  status: ('A' for Active; 'I' for Inactive)
    1  A    between atoms: C_2  and  C_29
    2  A    between atoms: C_2  and  C_37
    3  A    between atoms: C_3  and  C_6
    4  A    between atoms: C_3  and  C_29
    5  A    between atoms: C_4  and  C_16
    6  A    between atoms: C_4  and  S_21
    7  A    between atoms: C_7  and  C_27
    8  A    between atoms: C_7  and  C_32
    9  A    between atoms: C_10  and  N_22
   10  A    between atoms: C_10  and  C_35
   11  A    between atoms: C_15  and  C_25
   12  A    between atoms: C_15  and  C_26
   13  A    between atoms: C_16  and  C_20
   14  A    between atoms: C_17  and  C_34
   15  A    between atoms: C_18  and  N_24
   16  A    between atoms: C_18  and  C_37
   17  A    between atoms: C_20  and  C_33
   18  A    between atoms: S_21  and  C_37
   19  A    between atoms: N_30  and  C_32
                            x       y       z     vdW  Elec       q    Type
                         _______ _______ _______ _____ _____    ______ ____

>  <TORSDO>
F 19

$$$$
=
 OpenBabel10232412353D

 37 38  0  0  1  0  0  0  0  0999 V2000
  192.0000  176.7760  146.7610 O   0  0  0  0  0  0  0  0  0  0  0  0
  190.9560  176.2660  147.4450 O   0  0  0  0  0  0  0  0  0  0  0  0
  190.4080  177.6510  145.6910 C   0  0  0  0  0  0  0  0  0  0  0  0
  189.8340  176.8460  146.8030 C   0  0  2  0  0  3  0  0  0  0  0  0
  191.6800  177.5920  145.7080 N   0  0  0  0  0  0  0  0  0  0  0  0
  189.0880  177.7150  147.7730 C   0  0  0  0  0  0  0  0  0  0  0  0
  187.6710  177.8720  147.6750 N   0  0  0  0  0  2  0  0  0  0  0  0
  189.7120  178.3110  148.6900 O   0  0  0  0  0  0  0  0  0  0  0  0
  186.8690  177.1670  146.6870 C   0  0  0  0  0  2  0  0  0  0  0  0
  184.9230  178.4300  147.2340 O   0  0  0  0  0  0  0  0  0  0  0  0
  185.3650  178.1970  144.9430 N   0  0  0  0  0  2  0  0  0  0  0  0
  184.2390  178.9380  144.4600 C   0  0  0  0  0  0  0  0  0  0  0  0
  183.4550  179.5180  145.2600 O   0  0  0  0  0  0  0  0  0  0  0  0
  185.6740  177.9800  146.3250 C   0  0  0  0  0  0  0  0  0  0  0  0
  183.9860  179.0190  142.9940 C   0  0  0  0  0  2  0  0  0  0  0  0
  185.2290  178.6200  142.2160 C   0  0  0  0  0  2  0  0  0  0  0  0
  184.6320  179.1680  139.8380 C   0  0  0  0  0  0  0  0  0  0  0  0
  184.7680  179.9100  138.8300 O   0  0  0  0  0  0  0  0  0  0  0  0
  183.7740  178.0760  139.7760 O   0  0  0  0  0  1  0  0  0  0  0  0
  185.3630  179.4510  141.0290 N   0  0  0  0  0  2  0  0  0  0  0  0
  189.6430  178.4490  144.6870 C   0  0  0  0  0  2  0  0  0  0  0  0
  188.9910  178.2070  142.3110 C   0  0  0  0  0  2  0  0  0  0  0  0
  190.1490  178.1610  143.2870 C   0  0  2  0  0  3  0  0  0  0  0  0
  189.5160  176.8740  142.8000 C   0  0  2  0  0  3  0  0  0  0  0  0
  190.3880  176.2620  141.7210 C   0  0  0  0  0  2  0  0  0  0  0  0
  190.9890  177.3630  140.8700 C   0  0  0  0  0  2  0  0  0  0  0  0
  190.7740  177.0730  139.3930 C   0  0  0  0  0  2  0  0  0  0  0  0
  189.0020  176.8710  139.0250 S   0  0  0  0  0  0  0  0  0  0  0  0
  189.2260  177.2020  137.2480 C   0  0  1  0  0  3  0  0  0  0  0  0
  189.1090  178.6950  136.9760 C   0  0  0  0  0  2  0  0  0  0  0  0
  187.0420  178.2430  136.0010 C   0  0  0  0  0  1  0  0  0  0  0  0
  187.7100  179.0940  136.9670 N   0  0  0  0  0  2  0  0  0  0  0  0
  190.5370  176.6020  136.7270 C   0  0  0  0  0  2  0  0  0  0  0  0
  190.4460  176.0990  135.2900 C   0  0  0  0  0  2  0  0  0  0  0  0
  191.8250  176.0650  134.6520 C   0  0  0  0  0  2  0  0  0  0  0  0
  192.2860  174.6280  134.4590 C   0  0  0  0  0  2  0  0  0  0  0  0
  191.1920  173.7610  134.5300 O   0  0  0  0  0  1  0  0  0  0  0  0
  1  2  1  0  0  0  0
  3  5  2  0  0  0  0
  3  4  1  0  0  0  0
  4  2  1  0  0  0  0
  4  6  1  1  0  0  0
  5  1  1  0  0  0  0
  6  8  2  0  0  0  0
  7  6  1  0  0  0  0
  9  7  1  0  0  0  0
 11 14  1  0  0  0  0
 12 11  1  0  0  0  0
 12 13  2  0  0  0  0
 14  9  1  0  0  0  0
 14 10  2  0  0  0  0
 15 12  1  0  0  0  0
 16 15  1  0  0  0  0
 17 20  1  0  0  0  0
 18 17  2  0  0  0  0
 19 17  1  0  0  0  0
 20 16  1  0  0  0  0
 21  3  1  0  0  0  0
 22 24  1  0  0  0  0
 22 23  1  0  0  0  0
 23 21  1  1  0  0  0
 24 25  1  6  0  0  0
 24 23  1  0  0  0  0
 26 25  1  0  0  0  0
 27 26  1  0  0  0  0
 28 27  1  0  0  0  0
 29 33  1  1  0  0  0
 29 28  1  0  0  0  0
 30 29  1  0  0  0  0
 31 32  1  0  0  0  0
 32 30  1  0  0  0  0
 34 33  1  0  0  0  0
 35 34  1  0  0  0  0
 36 37  1  0  0  0  0
 36 35  1  0  0  0  0
M  END
>  <MODEL>
2

>  <REMARK>
 VINA RESULT:      -6.6      3.116     10.142
  Name = 
  19 active torsions:
  status: ('A' for Active; 'I' for Inactive)
    1  A    between atoms: C_2  and  C_29
    2  A    between atoms: C_2  and  C_37
    3  A    between atoms: C_3  and  C_6
    4  A    between atoms: C_3  and  C_29
    5  A    between atoms: C_4  and  C_16
    6  A    between atoms: C_4  and  S_21
    7  A    between atoms: C_7  and  C_27
    8  A    between atoms: C_7  and  C_32
    9  A    between atoms: C_10  and  N_22
   10  A    between atoms: C_10  and  C_35
   11  A    between atoms: C_15  and  C_25
   12  A    between atoms: C_15  and  C_26
   13  A    between atoms: C_16  and  C_20
   14  A    between atoms: C_17  and  C_34
   15  A    between atoms: C_18  and  N_24
   16  A    between atoms: C_18  and  C_37
   17  A    between atoms: C_20  and  C_33
   18  A    between atoms: S_21  and  C_37
   19  A    between atoms: N_30  and  C_32
                            x       y       z     vdW  Elec       q    Type
                         _______ _______ _______ _____ _____    ______ ____

>  <TORSDO>
F 19

$$$$
=
 OpenBabel10232412353D

 37 38  0  0  1  0  0  0  0  0999 V2000
  191.5780  177.3490  146.3530 O   0  0  0  0  0  0  0  0  0  0  0  0
  191.6680  177.6610  145.0440 O   0  0  0  0  0  0  0  0  0  0  0  0
  189.5560  177.1370  145.7910 C   0  0  0  0  0  0  0  0  0  0  0  0
  190.3390  177.5020  144.5800 C   0  0  2  0  0  3  0  0  0  0  0  0
  190.3210  177.0490  146.8060 N   0  0  0  0  0  0  0  0  0  0  0  0
  190.2890  176.4100  143.5520 C   0  0  0  0  0  0  0  0  0  0  0  0
  189.2860  176.4080  142.5340 N   0  0  0  0  0  2  0  0  0  0  0  0
  191.1410  175.4830  143.5780 O   0  0  0  0  0  0  0  0  0  0  0  0
  188.3070  177.4760  142.3940 C   0  0  0  0  0  2  0  0  0  0  0  0
  187.7890  179.1700  140.8000 O   0  0  0  0  0  0  0  0  0  0  0  0
  189.2760  177.5120  140.0650 N   0  0  0  0  0  2  0  0  0  0  0  0
  189.4750  178.0150  138.7390 C   0  0  0  0  0  0  0  0  0  0  0  0
  188.9530  179.1040  138.3750 O   0  0  0  0  0  0  0  0  0  0  0  0
  188.4420  178.1210  141.0580 C   0  0  0  0  0  0  0  0  0  0  0  0
  190.3040  177.2380  137.7750 C   0  0  0  0  0  2  0  0  0  0  0  0
  190.1520  175.7460  138.0230 C   0  0  0  0  0  2  0  0  0  0  0  0
  188.2650  174.9590  136.5630 C   0  0  0  0  0  0  0  0  0  0  0  0
  187.8740  174.3880  135.5120 O   0  0  0  0  0  0  0  0  0  0  0  0
  187.3290  175.4550  137.4650 O   0  0  0  0  0  1  0  0  0  0  0  0
  189.6610  175.0880  136.8220 N   0  0  0  0  0  2  0  0  0  0  0  0
  188.0870  176.8820  145.8530 C   0  0  0  0  0  2  0  0  0  0  0  0
  186.2740  178.2300  146.8670 C   0  0  0  0  0  2  0  0  0  0  0  0
  187.3190  178.1880  145.7710 C   0  0  2  0  0  3  0  0  0  0  0  0
  185.8720  177.8770  145.4510 C   0  0  2  0  0  3  0  0  0  0  0  0
  185.2290  179.0890  144.8040 C   0  0  0  0  0  2  0  0  0  0  0  0
  183.7570  178.8150  144.5650 C   0  0  0  0  0  2  0  0  0  0  0  0
  183.3810  179.1440  143.1300 C   0  0  0  0  0  2  0  0  0  0  0  0
  184.4460  178.2450  141.9580 S   0  0  0  0  0  0  0  0  0  0  0  0
  183.3430  178.5670  140.5450 C   0  0  1  0  0  3  0  0  0  0  0  0
  184.1600  178.9780  139.3280 C   0  0  0  0  0  2  0  0  0  0  0  0
  182.5900  180.5860  138.7110 C   0  0  0  0  0  1  0  0  0  0  0  0
  183.9850  180.3980  139.0630 N   0  0  0  0  0  2  0  0  0  0  0  0
  182.4230  177.3730  140.2690 C   0  0  0  0  0  2  0  0  0  0  0  0
  182.3820  176.9640  138.8000 C   0  0  0  0  0  2  0  0  0  0  0  0
  183.0480  175.6110  138.6070 C   0  0  0  0  0  2  0  0  0  0  0  0
  182.2270  174.7450  137.6650 C   0  0  0  0  0  2  0  0  0  0  0  0
  183.0570  173.8260  137.0140 O   0  0  0  0  0  1  0  0  0  0  0  0
  1  5  1  0  0  0  0
  2  1  1  0  0  0  0
  3 21  1  0  0  0  0
  3  5  2  0  0  0  0
  4  6  1  6  0  0  0
  4  2  1  0  0  0  0
  4  3  1  0  0  0  0
  6  8  2  0  0  0  0
  7  6  1  0  0  0  0
  9  7  1  0  0  0  0
 10 14  2  0  0  0  0
 11 14  1  0  0  0  0
 12 11  1  0  0  0  0
 13 12  2  0  0  0  0
 14  9  1  0  0  0  0
 15 16  1  0  0  0  0
 15 12  1  0  0  0  0
 17 20  1  0  0  0  0
 17 19  1  0  0  0  0
 18 17  2  0  0  0  0
 20 16  1  0  0  0  0
 23 21  1  1  0  0  0
 23 22  1  0  0  0  0
 24 25  1  6  0  0  0
 24 23  1  0  0  0  0
 24 22  1  0  0  0  0
 26 25  1  0  0  0  0
 27 26  1  0  0  0  0
 28 27  1  0  0  0  0
 29 30  1  6  0  0  0
 29 28  1  0  0  0  0
 31 32  1  0  0  0  0
 32 30  1  0  0  0  0
 33 29  1  0  0  0  0
 34 33  1  0  0  0  0
 35 34  1  0  0  0  0
 36 35  1  0  0  0  0
 37 36  1  0  0  0  0
M  END
>  <MODEL>
3

>  <REMARK>
 VINA RESULT:      -6.6      3.662      7.548
  Name = 
  19 active torsions:
  status: ('A' for Active; 'I' for Inactive)
    1  A    between atoms: C_2  and  C_29
    2  A    between atoms: C_2  and  C_37
    3  A    between atoms: C_3  and  C_6
    4  A    between atoms: C_3  and  C_29
    5  A    between atoms: C_4  and  C_16
    6  A    between atoms: C_4  and  S_21
    7  A    between atoms: C_7  and  C_27
    8  A    between atoms: C_7  and  C_32
    9  A    between atoms: C_10  and  N_22
   10  A    between atoms: C_10  and  C_35
   11  A    between atoms: C_15  and  C_25
   12  A    between atoms: C_15  and  C_26
   13  A    between atoms: C_16  and  C_20
   14  A    between atoms: C_17  and  C_34
   15  A    between atoms: C_18  and  N_24
   16  A    between atoms: C_18  and  C_37
   17  A    between atoms: C_20  and  C_33
   18  A    between atoms: S_21  and  C_37
   19  A    between atoms: N_30  and  C_32
                            x       y       z     vdW  Elec       q    Type
                         _______ _______ _______ _____ _____    ______ ____

>  <TORSDO>
F 19

$$$$
=
 OpenBabel10232412353D

 37 38  0  0  1  0  0  0  0  0999 V2000
  191.6950  177.6120  145.2490 O   0  0  0  0  0  0  0  0  0  0  0  0
  191.5880  177.8720  143.9300 O   0  0  0  0  0  0  0  0  0  0  0  0
  189.6300  177.2770  144.9810 C   0  0  0  0  0  0  0  0  0  0  0  0
  190.2190  177.6280  143.6610 C   0  0  2  0  0  3  0  0  0  0  0  0
  190.5290  177.2690  145.8820 N   0  0  0  0  0  0  0  0  0  0  0  0
  190.0870  176.4920  142.6890 C   0  0  0  0  0  0  0  0  0  0  0  0
  189.4820  176.6880  141.4110 N   0  0  0  0  0  2  0  0  0  0  0  0
  190.5190  175.3490  142.9970 O   0  0  0  0  0  0  0  0  0  0  0  0
  189.0170  177.9890  140.9530 C   0  0  0  0  0  2  0  0  0  0  0  0
  188.6690  179.0910  138.8680 O   0  0  0  0  0  0  0  0  0  0  0  0
  189.6270  176.9550  138.7340 N   0  0  0  0  0  2  0  0  0  0  0  0
  189.7410  176.8920  137.3080 C   0  0  0  0  0  0  0  0  0  0  0  0
  189.4290  177.8810  136.5900 O   0  0  0  0  0  0  0  0  0  0  0  0
  189.1010  178.0670  139.4670 C   0  0  0  0  0  0  0  0  0  0  0  0
  190.2290  175.6400  136.6640 C   0  0  0  0  0  2  0  0  0  0  0  0
  191.3980  175.0600  137.4430 C   0  0  0  0  0  2  0  0  0  0  0  0
  193.7080  176.0010  137.1420 C   0  0  0  0  0  0  0  0  0  0  0  0
  194.7580  176.0930  136.4560 O   0  0  0  0  0  0  0  0  0  0  0  0
  193.6100  176.6880  138.3470 O   0  0  0  0  0  1  0  0  0  0  0  0
  192.6260  175.1970  136.6760 N   0  0  0  0  0  2  0  0  0  0  0  0
  188.1990  176.9530  145.2560 C   0  0  0  0  0  2  0  0  0  0  0  0
  186.7810  178.1090  146.9240 C   0  0  0  0  0  2  0  0  0  0  0  0
  187.4170  178.2180  145.5530 C   0  0  2  0  0  3  0  0  0  0  0  0
  185.9510  177.8610  145.6820 C   0  0  2  0  0  3  0  0  0  0  0  0
  185.1080  179.0890  145.3980 C   0  0  0  0  0  2  0  0  0  0  0  0
  183.7980  178.6690  144.7620 C   0  0  0  0  0  2  0  0  0  0  0  0
  183.6700  179.2550  143.3660 C   0  0  0  0  0  2  0  0  0  0  0  0
  185.1430  178.8730  142.3660 S   0  0  0  0  0  0  0  0  0  0  0  0
  184.1600  178.3520  140.9240 C   0  0  1  0  0  3  0  0  0  0  0  0
  182.6780  178.3630  141.2710 C   0  0  0  0  0  2  0  0  0  0  0  0
  180.6530  178.6800  140.1630 C   0  0  0  0  0  1  0  0  0  0  0  0
  181.9620  179.2650  140.3820 N   0  0  0  0  0  2  0  0  0  0  0  0
  184.4890  179.1960  139.6870 C   0  0  0  0  0  2  0  0  0  0  0  0
  185.1470  178.3980  138.5660 C   0  0  0  0  0  2  0  0  0  0  0  0
  184.1300  177.4900  137.8940 C   0  0  0  0  0  2  0  0  0  0  0  0
  184.7060  176.9020  136.6150 C   0  0  0  0  0  2  0  0  0  0  0  0
  183.8210  177.1060  135.5530 O   0  0  0  0  0  1  0  0  0  0  0  0
  1  5  1  0  0  0  0
  2  1  1  0  0  0  0
  3 21  1  0  0  0  0
  3  5  2  0  0  0  0
  4  6  1  6  0  0  0
  4  2  1  0  0  0  0
  4  3  1  0  0  0  0
  6  8  2  0  0  0  0
  7  6  1  0  0  0  0
  9  7  1  0  0  0  0
 10 14  2  0  0  0  0
 11 14  1  0  0  0  0
 12 11  1  0  0  0  0
 13 12  2  0  0  0  0
 14  9  1  0  0  0  0
 15 12  1  0  0  0  0
 15 16  1  0  0  0  0
 17 19  1  0  0  0  0
 18 17  2  0  0  0  0
 20 17  1  0  0  0  0
 20 16  1  0  0  0  0
 23 21  1  1  0  0  0
 23 24  1  0  0  0  0
 23 22  1  0  0  0  0
 24 25  1  6  0  0  0
 24 22  1  0  0  0  0
 26 25  1  0  0  0  0
 27 26  1  0  0  0  0
 28 27  1  0  0  0  0
 29 33  1  6  0  0  0
 29 30  1  0  0  0  0
 29 28  1  0  0  0  0
 31 32  1  0  0  0  0
 32 30  1  0  0  0  0
 34 33  1  0  0  0  0
 35 34  1  0  0  0  0
 36 35  1  0  0  0  0
 37 36  1  0  0  0  0
M  END
>  <MODEL>
4

>  <REMARK>
 VINA RESULT:      -6.5      3.377      6.601
  Name = 
  19 active torsions:
  status: ('A' for Active; 'I' for Inactive)
    1  A    between atoms: C_2  and  C_29
    2  A    between atoms: C_2  and  C_37
    3  A    between atoms: C_3  and  C_6
    4  A    between atoms: C_3  and  C_29
    5  A    between atoms: C_4  and  C_16
    6  A    between atoms: C_4  and  S_21
    7  A    between atoms: C_7  and  C_27
    8  A    between atoms: C_7  and  C_32
    9  A    between atoms: C_10  and  N_22
   10  A    between atoms: C_10  and  C_35
   11  A    between atoms: C_15  and  C_25
   12  A    between atoms: C_15  and  C_26
   13  A    between atoms: C_16  and  C_20
   14  A    between atoms: C_17  and  C_34
   15  A    between atoms: C_18  and  N_24
   16  A    between atoms: C_18  and  C_37
   17  A    between atoms: C_20  and  C_33
   18  A    between atoms: S_21  and  C_37
   19  A    between atoms: N_30  and  C_32
                            x       y       z     vdW  Elec       q    Type
                         _______ _______ _______ _____ _____    ______ ____

>  <TORSDO>
F 19

$$$$
=
 OpenBabel10232412353D

 37 38  0  0  1  0  0  0  0  0999 V2000
  186.7750  178.6720  140.6320 O   0  0  0  0  0  0  0  0  0  0  0  0
  185.7520  178.7950  139.7610 O   0  0  0  0  0  0  0  0  0  0  0  0
  185.2400  179.2510  141.9570 C   0  0  0  0  0  0  0  0  0  0  0  0
  184.6600  179.1490  140.5910 C   0  0  2  0  0  3  0  0  0  0  0  0
  186.4780  178.9540  141.9390 N   0  0  0  0  0  0  0  0  0  0  0  0
  183.6080  178.0810  140.5270 C   0  0  0  0  0  0  0  0  0  0  0  0
  182.8360  177.8830  139.3410 N   0  0  0  0  0  2  0  0  0  0  0  0
  183.4000  177.3430  141.5260 O   0  0  0  0  0  0  0  0  0  0  0  0
  183.0580  178.6470  138.1230 C   0  0  0  0  0  2  0  0  0  0  0  0
  182.8770  177.4480  136.0710 O   0  0  0  0  0  0  0  0  0  0  0  0
  184.9290  177.2370  137.1880 N   0  0  0  0  0  2  0  0  0  0  0  0
  185.5620  176.3600  136.2490 C   0  0  0  0  0  0  0  0  0  0  0  0
  184.9840  176.0360  135.1750 O   0  0  0  0  0  0  0  0  0  0  0  0
  183.6030  177.7620  137.0550 C   0  0  0  0  0  0  0  0  0  0  0  0
  186.9170  175.8180  136.5470 C   0  0  0  0  0  2  0  0  0  0  0  0
  187.9920  176.7140  135.9520 C   0  0  0  0  0  2  0  0  0  0  0  0
  188.4540  178.6980  137.4220 C   0  0  0  0  0  0  0  0  0  0  0  0
  189.1220  179.2280  138.3470 O   0  0  0  0  0  1  0  0  0  0  0  0
  187.4420  179.4220  136.8020 O   0  0  0  0  0  0  0  0  0  0  0  0
  188.7450  177.3630  137.0140 N   0  0  0  0  0  2  0  0  0  0  0  0
  184.5100  179.6240  143.2050 C   0  0  0  0  0  2  0  0  0  0  0  0
  183.7660  178.8150  145.4230 C   0  0  0  0  0  2  0  0  0  0  0  0
  184.7310  178.5780  144.2800 C   0  0  2  0  0  3  0  0  0  0  0  0
  185.2040  179.2740  145.5400 C   0  0  2  0  0  3  0  0  0  0  0  0
  185.9670  178.2870  146.4020 C   0  0  0  0  0  2  0  0  0  0  0  0
  186.6980  177.2980  145.5160 C   0  0  0  0  0  2  0  0  0  0  0  0
  188.1870  177.3090  145.8190 C   0  0  0  0  0  2  0  0  0  0  0  0
  189.0980  178.2520  144.5550 S   0  0  0  0  0  0  0  0  0  0  0  0
  190.7250  177.7960  145.2360 C   0  0  1  0  0  3  0  0  0  0  0  0
  190.5540  176.8050  146.3790 C   0  0  0  0  0  2  0  0  0  0  0  0
  192.2660  175.5500  147.3400 C   0  0  0  0  0  1  0  0  0  0  0  0
  191.6910  176.8810  147.2820 N   0  0  0  0  0  2  0  0  0  0  0  0
  191.6670  177.2840  144.1400 C   0  0  0  0  0  2  0  0  0  0  0  0
  191.7140  178.1850  142.9100 C   0  0  0  0  0  2  0  0  0  0  0  0
  191.6850  177.3500  141.6400 C   0  0  0  0  0  2  0  0  0  0  0  0
  190.4940  176.4040  141.6540 C   0  0  0  0  0  2  0  0  0  0  0  0
  189.3710  177.0400  141.1150 O   0  0  0  0  0  1  0  0  0  0  0  0
  1  5  1  0  0  0  0
  2  4  1  0  0  0  0
  2  1  1  0  0  0  0
  3 21  1  0  0  0  0
  4  6  1  1  0  0  0
  4  3  1  0  0  0  0
  5  3  2  0  0  0  0
  6  8  2  0  0  0  0
  7  6  1  0  0  0  0
  9  7  1  0  0  0  0
 10 14  2  0  0  0  0
 12 15  1  0  0  0  0
 12 11  1  0  0  0  0
 13 12  2  0  0  0  0
 14 11  1  0  0  0  0
 14  9  1  0  0  0  0
 16 15  1  0  0  0  0
 16 20  1  0  0  0  0
 17 18  1  0  0  0  0
 19 17  2  0  0  0  0
 20 17  1  0  0  0  0
 22 24  1  0  0  0  0
 23 21  1  6  0  0  0
 23 22  1  0  0  0  0
 23 24  1  0  0  0  0
 24 25  1  1  0  0  0
 26 27  1  0  0  0  0
 26 25  1  0  0  0  0
 28 29  1  0  0  0  0
 28 27  1  0  0  0  0
 29 33  1  6  0  0  0
 29 30  1  0  0  0  0
 30 32  1  0  0  0  0
 32 31  1  0  0  0  0
 34 33  1  0  0  0  0
 35 36  1  0  0  0  0
 35 34  1  0  0  0  0
 37 36  1  0  0  0  0
M  END
>  <MODEL>
5

>  <REMARK>
 VINA RESULT:      -6.4      3.337      5.998
  Name = 
  19 active torsions:
  status: ('A' for Active; 'I' for Inactive)
    1  A    between atoms: C_2  and  C_29
    2  A    between atoms: C_2  and  C_37
    3  A    between atoms: C_3  and  C_6
    4  A    between atoms: C_3  and  C_29
    5  A    between atoms: C_4  and  C_16
    6  A    between atoms: C_4  and  S_21
    7  A    between atoms: C_7  and  C_27
    8  A    between atoms: C_7  and  C_32
    9  A    between atoms: C_10  and  N_22
   10  A    between atoms: C_10  and  C_35
   11  A    between atoms: C_15  and  C_25
   12  A    between atoms: C_15  and  C_26
   13  A    between atoms: C_16  and  C_20
   14  A    between atoms: C_17  and  C_34
   15  A    between atoms: C_18  and  N_24
   16  A    between atoms: C_18  and  C_37
   17  A    between atoms: C_20  and  C_33
   18  A    between atoms: S_21  and  C_37
   19  A    between atoms: N_30  and  C_32
                            x       y       z     vdW  Elec       q    Type
                         _______ _______ _______ _____ _____    ______ ____

>  <TORSDO>
F 19

$$$$
=
 OpenBabel10232412353D

 37 38  0  0  1  0  0  0  0  0999 V2000
  191.6440  176.0120  143.0740 O   0  0  0  0  0  0  0  0  0  0  0  0
  191.0090  176.0860  144.2620 O   0  0  0  0  0  0  0  0  0  0  0  0
  189.9690  177.1650  142.5150 C   0  0  0  0  0  0  0  0  0  0  0  0
  189.8780  176.8890  143.9750 C   0  0  2  0  0  3  0  0  0  0  0  0
  191.0230  176.6420  142.0290 N   0  0  0  0  0  0  0  0  0  0  0  0
  189.9420  178.1580  144.7720 C   0  0  0  0  0  0  0  0  0  0  0  0
  189.0490  178.3830  145.8640 N   0  0  0  0  0  2  0  0  0  0  0  0
  190.7950  179.0390  144.4830 O   0  0  0  0  0  0  0  0  0  0  0  0
  188.0800  177.3900  146.3040 C   0  0  0  0  0  2  0  0  0  0  0  0
  186.0830  178.2160  147.3090 O   0  0  0  0  0  0  0  0  0  0  0  0
  186.0830  178.1530  144.9650 N   0  0  0  0  0  2  0  0  0  0  0  0
  184.7610  178.6660  144.7650 C   0  0  0  0  0  0  0  0  0  0  0  0
  184.0620  179.0500  145.7430 O   0  0  0  0  0  0  0  0  0  0  0  0
  186.7030  177.9560  146.2410 C   0  0  0  0  0  0  0  0  0  0  0  0
  184.2020  178.7430  143.3860 C   0  0  0  0  0  2  0  0  0  0  0  0
  185.2690  178.4000  142.3590 C   0  0  0  0  0  2  0  0  0  0  0  0
  184.5600  179.1620  140.0730 C   0  0  0  0  0  0  0  0  0  0  0  0
  184.5770  180.0390  139.1700 O   0  0  0  0  0  0  0  0  0  0  0  0
  183.8550  177.9810  139.8720 O   0  0  0  0  0  1  0  0  0  0  0  0
  185.2690  179.3860  141.2900 N   0  0  0  0  0  2  0  0  0  0  0  0
  189.0000  177.9540  141.7000 C   0  0  0  0  0  2  0  0  0  0  0  0
  189.6880  178.1470  139.3300 C   0  0  0  0  0  2  0  0  0  0  0  0
  188.8580  177.3510  140.3160 C   0  0  2  0  0  3  0  0  0  0  0  0
  188.1930  178.3690  139.4120 C   0  0  2  0  0  3  0  0  0  0  0  0
  187.5240  177.6520  138.2550 C   0  0  0  0  0  2  0  0  0  0  0  0
  188.1050  178.1490  136.9460 C   0  0  0  0  0  2  0  0  0  0  0  0
  187.2460  177.6990  135.7760 C   0  0  0  0  0  2  0  0  0  0  0  0
  188.2830  177.1340  134.3910 S   0  0  0  0  0  0  0  0  0  0  0  0
  188.7870  175.6090  135.2500 C   0  0  1  0  0  3  0  0  0  0  0  0
  188.1140  174.4030  134.6110 C   0  0  0  0  0  2  0  0  0  0  0  0
  187.4120  174.1810  136.8210 C   0  0  0  0  0  1  0  0  0  0  0  0
  187.0170  173.9390  135.4460 N   0  0  0  0  0  2  0  0  0  0  0  0
  190.3130  175.4780  135.3110 C   0  0  0  0  0  2  0  0  0  0  0  0
  190.8670  175.4920  136.7310 C   0  0  0  0  0  2  0  0  0  0  0  0
  192.2460  176.1320  136.7560 C   0  0  0  0  0  2  0  0  0  0  0  0
  192.9810  175.7620  138.0350 C   0  0  0  0  0  2  0  0  0  0  0  0
  193.4160  176.9190  138.6890 O   0  0  0  0  0  1  0  0  0  0  0  0
  1  2  1  0  0  0  0
  3  4  1  0  0  0  0
  4  2  1  0  0  0  0
  4  6  1  1  0  0  0
  5  3  2  0  0  0  0
  5  1  1  0  0  0  0
  6  7  1  0  0  0  0
  7  9  1  0  0  0  0
  8  6  2  0  0  0  0
 11 14  1  0  0  0  0
 12 11  1  0  0  0  0
 12 13  2  0  0  0  0
 14  9  1  0  0  0  0
 14 10  2  0  0  0  0
 15 12  1  0  0  0  0
 16 15  1  0  0  0  0
 17 20  1  0  0  0  0
 18 17  2  0  0  0  0
 19 17  1  0  0  0  0
 20 16  1  0  0  0  0
 21  3  1  0  0  0  0
 22 24  1  0  0  0  0
 22 23  1  0  0  0  0
 23 21  1  1  0  0  0
 24 25  1  6  0  0  0
 24 23  1  0  0  0  0
 26 25  1  0  0  0  0
 27 26  1  0  0  0  0
 28 29  1  0  0  0  0
 28 27  1  0  0  0  0
 29 30  1  6  0  0  0
 29 33  1  0  0  0  0
 30 32  1  0  0  0  0
 32 31  1  0  0  0  0
 33 34  1  0  0  0  0
 34 35  1  0  0  0  0
 35 36  1  0  0  0  0
 36 37  1  0  0  0  0
M  END
>  <MODEL>
6

>  <REMARK>
 VINA RESULT:      -6.3      3.225      9.885
  Name = 
  19 active torsions:
  status: ('A' for Active; 'I' for Inactive)
    1  A    between atoms: C_2  and  C_29
    2  A    between atoms: C_2  and  C_37
    3  A    between atoms: C_3  and  C_6
    4  A    between atoms: C_3  and  C_29
    5  A    between atoms: C_4  and  C_16
    6  A    between atoms: C_4  and  S_21
    7  A    between atoms: C_7  and  C_27
    8  A    between atoms: C_7  and  C_32
    9  A    between atoms: C_10  and  N_22
   10  A    between atoms: C_10  and  C_35
   11  A    between atoms: C_15  and  C_25
   12  A    between atoms: C_15  and  C_26
   13  A    between atoms: C_16  and  C_20
   14  A    between atoms: C_17  and  C_34
   15  A    between atoms: C_18  and  N_24
   16  A    between atoms: C_18  and  C_37
   17  A    between atoms: C_20  and  C_33
   18  A    between atoms: S_21  and  C_37
   19  A    between atoms: N_30  and  C_32
                            x       y       z     vdW  Elec       q    Type
                         _______ _______ _______ _____ _____    ______ ____

>  <TORSDO>
F 19

$$$$
=
 OpenBabel10232412353D

 37 38  0  0  1  0  0  0  0  0999 V2000
  191.7550  178.0230  144.7620 O   0  0  0  0  0  0  0  0  0  0  0  0
  191.4030  178.2260  143.4760 O   0  0  0  0  0  0  0  0  0  0  0  0
  189.7010  177.5590  144.8730 C   0  0  0  0  0  0  0  0  0  0  0  0
  190.0260  177.8940  143.4600 C   0  0  2  0  0  3  0  0  0  0  0  0
  190.7430  177.6370  145.6000 N   0  0  0  0  0  0  0  0  0  0  0  0
  189.7990  176.7170  142.5580 C   0  0  0  0  0  0  0  0  0  0  0  0
  189.1680  176.8790  141.2870 N   0  0  0  0  0  2  0  0  0  0  0  0
  190.1710  175.5680  142.9190 O   0  0  0  0  0  0  0  0  0  0  0  0
  188.7690  178.1790  140.7690 C   0  0  0  0  0  2  0  0  0  0  0  0
  188.2300  179.0140  138.6020 O   0  0  0  0  0  0  0  0  0  0  0  0
  189.8040  177.2760  138.6530 N   0  0  0  0  0  2  0  0  0  0  0  0
  190.0210  177.1810  137.2410 C   0  0  0  0  0  0  0  0  0  0  0  0
  189.4670  177.9880  136.4450 O   0  0  0  0  0  0  0  0  0  0  0  0
  188.9170  178.2060  139.2860 C   0  0  0  0  0  0  0  0  0  0  0  0
  190.9090  176.1120  136.7030 C   0  0  0  0  0  2  0  0  0  0  0  0
  192.2550  176.1310  137.4100 C   0  0  0  0  0  2  0  0  0  0  0  0
  194.0960  174.4440  137.6800 C   0  0  0  0  0  0  0  0  0  0  0  0
  194.4540  173.2580  137.9020 O   0  0  0  0  0  1  0  0  0  0  0  0
  195.0580  175.4220  137.4520 O   0  0  0  0  0  0  0  0  0  0  0  0
  192.7080  174.7720  137.6580 N   0  0  0  0  0  2  0  0  0  0  0  0
  188.3640  177.1630  145.4060 C   0  0  0  0  0  2  0  0  0  0  0  0
  186.3710  178.4230  146.1640 C   0  0  0  0  0  2  0  0  0  0  0  0
  187.3120  178.1790  145.0020 C   0  0  2  0  0  3  0  0  0  0  0  0
  185.9550  177.5060  145.0330 C   0  0  2  0  0  3  0  0  0  0  0  0
  185.0030  178.2530  144.1180 C   0  0  0  0  0  2  0  0  0  0  0  0
  185.5360  178.2230  142.6990 C   0  0  0  0  0  2  0  0  0  0  0  0
  184.8580  179.2890  141.8530 C   0  0  0  0  0  2  0  0  0  0  0  0
  184.8990  178.8380  140.0900 S   0  0  0  0  0  0  0  0  0  0  0  0
  183.0850  178.8820  139.9280 C   0  0  1  0  0  3  0  0  0  0  0  0
  182.6950  179.0430  138.4650 C   0  0  0  0  0  2  0  0  0  0  0  0
  182.1330  181.3040  138.4350 C   0  0  0  0  0  1  0  0  0  0  0  0
  181.5780  179.9670  138.3440 N   0  0  0  0  0  2  0  0  0  0  0  0
  182.4350  177.6600  140.5870 C   0  0  0  0  0  2  0  0  0  0  0  0
  181.0280  177.9290  141.1110 C   0  0  0  0  0  2  0  0  0  0  0  0
  181.0210  179.1620  142.0000 C   0  0  0  0  0  2  0  0  0  0  0  0
  180.4060  178.8380  143.3530 C   0  0  0  0  0  2  0  0  0  0  0  0
  181.4120  178.5460  144.2790 O   0  0  0  0  0  1  0  0  0  0  0  0
  1  5  1  0  0  0  0
  2  1  1  0  0  0  0
  3 21  1  0  0  0  0
  3  5  2  0  0  0  0
  4  6  1  6  0  0  0
  4  2  1  0  0  0  0
  4  3  1  0  0  0  0
  6  8  2  0  0  0  0
  7  6  1  0  0  0  0
  9  7  1  0  0  0  0
 10 14  2  0  0  0  0
 11 14  1  0  0  0  0
 12 11  1  0  0  0  0
 13 12  2  0  0  0  0
 14  9  1  0  0  0  0
 15 12  1  0  0  0  0
 15 16  1  0  0  0  0
 16 20  1  0  0  0  0
 17 18  1  0  0  0  0
 19 17  2  0  0  0  0
 20 17  1  0  0  0  0
 23 24  1  0  0  0  0
 23 21  1  1  0  0  0
 23 22  1  0  0  0  0
 24 25  1  6  0  0  0
 24 22  1  0  0  0  0
 26 25  1  0  0  0  0
 27 26  1  0  0  0  0
 28 27  1  0  0  0  0
 29 30  1  6  0  0  0
 29 28  1  0  0  0  0
 29 33  1  0  0  0  0
 32 31  1  0  0  0  0
 32 30  1  0  0  0  0
 33 34  1  0  0  0  0
 34 35  1  0  0  0  0
 35 36  1  0  0  0  0
 36 37  1  0  0  0  0
M  END
>  <MODEL>
7

>  <REMARK>
 VINA RESULT:      -6.3      3.691      6.324
  Name = 
  19 active torsions:
  status: ('A' for Active; 'I' for Inactive)
    1  A    between atoms: C_2  and  C_29
    2  A    between atoms: C_2  and  C_37
    3  A    between atoms: C_3  and  C_6
    4  A    between atoms: C_3  and  C_29
    5  A    between atoms: C_4  and  C_16
    6  A    between atoms: C_4  and  S_21
    7  A    between atoms: C_7  and  C_27
    8  A    between atoms: C_7  and  C_32
    9  A    between atoms: C_10  and  N_22
   10  A    between atoms: C_10  and  C_35
   11  A    between atoms: C_15  and  C_25
   12  A    between atoms: C_15  and  C_26
   13  A    between atoms: C_16  and  C_20
   14  A    between atoms: C_17  and  C_34
   15  A    between atoms: C_18  and  N_24
   16  A    between atoms: C_18  and  C_37
   17  A    between atoms: C_20  and  C_33
   18  A    between atoms: S_21  and  C_37
   19  A    between atoms: N_30  and  C_32
                            x       y       z     vdW  Elec       q    Type
                         _______ _______ _______ _____ _____    ______ ____

>  <TORSDO>
F 19

$$$$
=
 OpenBabel10232412353D

 37 38  0  0  1  0  0  0  0  0999 V2000
  188.7540  178.0930  149.1650 O   0  0  0  0  0  0  0  0  0  0  0  0
  189.8100  178.4100  148.3880 O   0  0  0  0  0  0  0  0  0  0  0  0
  187.9360  177.6880  147.2650 C   0  0  0  0  0  0  0  0  0  0  0  0
  189.3470  178.1240  147.0800 C   0  0  2  0  0  3  0  0  0  0  0  0
  187.6320  177.6750  148.5010 N   0  0  0  0  0  0  0  0  0  0  0  0
  190.1770  177.0310  146.4760 C   0  0  0  0  0  0  0  0  0  0  0  0
  190.6600  177.1330  145.1350 N   0  0  0  0  0  2  0  0  0  0  0  0
  190.4610  176.0090  147.1560 O   0  0  0  0  0  0  0  0  0  0  0  0
  190.4330  178.3070  144.3060 C   0  0  0  0  0  2  0  0  0  0  0  0
  188.4150  177.5910  143.2600 O   0  0  0  0  0  0  0  0  0  0  0  0
  190.2310  177.9440  141.8180 N   0  0  0  0  0  2  0  0  0  0  0  0
  189.5690  177.5930  140.5980 C   0  0  0  0  0  0  0  0  0  0  0  0
  188.3400  177.3090  140.5860 O   0  0  0  0  0  0  0  0  0  0  0  0
  189.6190  177.9410  143.1130 C   0  0  0  0  0  0  0  0  0  0  0  0
  190.3440  177.5570  139.3260 C   0  0  0  0  0  2  0  0  0  0  0  0
  191.3590  176.4250  139.3520 C   0  0  0  0  0  2  0  0  0  0  0  0
  193.2340  175.8530  137.7820 C   0  0  0  0  0  0  0  0  0  0  0  0
  194.2540  176.2110  137.1360 O   0  0  0  0  0  0  0  0  0  0  0  0
  192.7960  174.5360  137.7000 O   0  0  0  0  0  1  0  0  0  0  0  0
  192.5430  176.7990  138.5950 N   0  0  0  0  0  2  0  0  0  0  0  0
  186.9820  177.2940  146.1860 C   0  0  0  0  0  2  0  0  0  0  0  0
  184.7710  178.4060  146.0960 C   0  0  0  0  0  2  0  0  0  0  0  0
  186.2240  178.5070  145.6810 C   0  0  2  0  0  3  0  0  0  0  0  0
  185.1810  178.0440  144.6850 C   0  0  2  0  0  3  0  0  0  0  0  0
  184.8260  179.1910  143.7590 C   0  0  0  0  0  2  0  0  0  0  0  0
  183.3920  179.0410  143.2930 C   0  0  0  0  0  2  0  0  0  0  0  0
  183.3460  178.4860  141.8790 C   0  0  0  0  0  2  0  0  0  0  0  0
  184.8260  178.9790  140.9410 S   0  0  0  0  0  0  0  0  0  0  0  0
  184.3410  178.0250  139.4670 C   0  0  1  0  0  3  0  0  0  0  0  0
  182.8320  178.0940  139.2740 C   0  0  0  0  0  2  0  0  0  0  0  0
  181.6620  176.1040  139.5900 C   0  0  0  0  0  1  0  0  0  0  0  0
  182.3590  176.8980  138.5960 N   0  0  0  0  0  2  0  0  0  0  0  0
  185.1220  178.4740  138.2270 C   0  0  0  0  0  2  0  0  0  0  0  0
  185.7540  177.3190  137.4570 C   0  0  0  0  0  2  0  0  0  0  0  0
  187.2540  177.5270  137.3260 C   0  0  0  0  0  2  0  0  0  0  0  0
  187.5480  178.8410  136.6190 C   0  0  0  0  0  2  0  0  0  0  0  0
  188.4860  179.5780  137.3500 O   0  0  0  0  0  1  0  0  0  0  0  0
  2  1  1  0  0  0  0
  3  5  2  0  0  0  0
  4  6  1  1  0  0  0
  4  3  1  0  0  0  0
  4  2  1  0  0  0  0
  5  1  1  0  0  0  0
  6  8  2  0  0  0  0
  7  6  1  0  0  0  0
  9  7  1  0  0  0  0
 11 14  1  0  0  0  0
 12 11  1  0  0  0  0
 13 12  2  0  0  0  0
 14 10  2  0  0  0  0
 14  9  1  0  0  0  0
 15 16  1  0  0  0  0
 15 12  1  0  0  0  0
 17 20  1  0  0  0  0
 18 17  2  0  0  0  0
 19 17  1  0  0  0  0
 20 16  1  0  0  0  0
 21  3  1  0  0  0  0
 23 22  1  0  0  0  0
 23 21  1  1  0  0  0
 24 25  1  6  0  0  0
 24 23  1  0  0  0  0
 24 22  1  0  0  0  0
 26 25  1  0  0  0  0
 27 26  1  0  0  0  0
 28 27  1  0  0  0  0
 29 33  1  6  0  0  0
 29 28  1  0  0  0  0
 30 29  1  0  0  0  0
 32 30  1  0  0  0  0
 32 31  1  0  0  0  0
 34 33  1  0  0  0  0
 35 34  1  0  0  0  0
 36 35  1  0  0  0  0
 36 37  1  0  0  0  0
M  END
>  <MODEL>
8

>  <REMARK>
 VINA RESULT:      -6.3      3.193      7.947
  Name = 
  19 active torsions:
  status: ('A' for Active; 'I' for Inactive)
    1  A    between atoms: C_2  and  C_29
    2  A    between atoms: C_2  and  C_37
    3  A    between atoms: C_3  and  C_6
    4  A    between atoms: C_3  and  C_29
    5  A    between atoms: C_4  and  C_16
    6  A    between atoms: C_4  and  S_21
    7  A    between atoms: C_7  and  C_27
    8  A    between atoms: C_7  and  C_32
    9  A    between atoms: C_10  and  N_22
   10  A    between atoms: C_10  and  C_35
   11  A    between atoms: C_15  and  C_25
   12  A    between atoms: C_15  and  C_26
   13  A    between atoms: C_16  and  C_20
   14  A    between atoms: C_17  and  C_34
   15  A    between atoms: C_18  and  N_24
   16  A    between atoms: C_18  and  C_37
   17  A    between atoms: C_20  and  C_33
   18  A    between atoms: S_21  and  C_37
   19  A    between atoms: N_30  and  C_32
                            x       y       z     vdW  Elec       q    Type
                         _______ _______ _______ _____ _____    ______ ____

>  <TORSDO>
F 19

$$$$
=
 OpenBabel10232412353D

 37 38  0  0  1  0  0  0  0  0999 V2000
  191.9710  175.8300  144.6430 O   0  0  0  0  0  0  0  0  0  0  0  0
  191.1440  176.2460  145.6230 O   0  0  0  0  0  0  0  0  0  0  0  0
  190.2350  176.2160  143.5100 C   0  0  0  0  0  0  0  0  0  0  0  0
  189.9520  176.5670  144.9280 C   0  0  2  0  0  3  0  0  0  0  0  0
  191.4320  175.7980  143.3850 N   0  0  0  0  0  0  0  0  0  0  0  0
  189.6560  178.0300  145.0760 C   0  0  0  0  0  0  0  0  0  0  0  0
  188.4640  178.4740  145.7260 N   0  0  0  0  0  2  0  0  0  0  0  0
  190.4670  178.8830  144.6290 O   0  0  0  0  0  0  0  0  0  0  0  0
  187.5080  177.5550  146.3270 C   0  0  0  0  0  2  0  0  0  0  0  0
  185.4430  178.3210  147.2370 O   0  0  0  0  0  0  0  0  0  0  0  0
  185.5750  178.3140  144.8950 N   0  0  0  0  0  2  0  0  0  0  0  0
  184.2570  178.8090  144.6330 C   0  0  0  0  0  0  0  0  0  0  0  0
  183.4970  179.1560  145.5780 O   0  0  0  0  0  0  0  0  0  0  0  0
  186.1270  178.0990  146.2000 C   0  0  0  0  0  0  0  0  0  0  0  0
  183.7750  178.9080  143.2270 C   0  0  0  0  0  2  0  0  0  0  0  0
  184.7910  178.3040  142.2710 C   0  0  0  0  0  2  0  0  0  0  0  0
  184.2440  179.1710  139.9780 C   0  0  0  0  0  0  0  0  0  0  0  0
  184.4800  179.9750  139.0390 O   0  0  0  0  0  0  0  0  0  0  0  0
  183.2150  178.2440  139.8470 O   0  0  0  0  0  1  0  0  0  0  0  0
  185.0360  179.2130  141.1630 N   0  0  0  0  0  2  0  0  0  0  0  0
  189.2910  176.3390  142.3610 C   0  0  0  0  0  2  0  0  0  0  0  0
  188.4600  178.2790  141.0650 C   0  0  0  0  0  2  0  0  0  0  0  0
  189.6930  177.4960  141.4670 C   0  0  2  0  0  3  0  0  0  0  0  0
  189.0750  177.2870  140.0990 C   0  0  2  0  0  3  0  0  0  0  0  0
  189.8810  178.0450  139.0620 C   0  0  0  0  0  2  0  0  0  0  0  0
  188.9700  178.4790  137.9310 C   0  0  0  0  0  2  0  0  0  0  0  0
  188.4240  177.2680  137.1910 C   0  0  0  0  0  2  0  0  0  0  0  0
  189.3290  176.9980  135.6340 S   0  0  0  0  0  0  0  0  0  0  0  0
  189.0570  175.1970  135.6660 C   0  0  1  0  0  3  0  0  0  0  0  0
  188.9230  174.7140  137.1030 C   0  0  0  0  0  2  0  0  0  0  0  0
  191.0900  173.9250  136.7740 C   0  0  0  0  0  1  0  0  0  0  0  0
  189.7970  173.5750  137.3330 N   0  0  0  0  0  2  0  0  0  0  0  0
  187.8670  174.7950  134.7880 C   0  0  0  0  0  2  0  0  0  0  0  0
  186.6870  174.2430  135.5810 C   0  0  0  0  0  2  0  0  0  0  0  0
  185.5220  175.2190  135.5460 C   0  0  0  0  0  2  0  0  0  0  0  0
  184.9380  175.3980  136.9390 C   0  0  0  0  0  2  0  0  0  0  0  0
  184.1990  176.5830  137.0000 O   0  0  0  0  0  1  0  0  0  0  0  0
  1  2  1  0  0  0  0
  3  4  1  0  0  0  0
  4  6  1  6  0  0  0
  4  2  1  0  0  0  0
  5  3  2  0  0  0  0
  5  1  1  0  0  0  0
  6  7  1  0  0  0  0
  7  9  1  0  0  0  0
  8  6  2  0  0  0  0
 11 14  1  0  0  0  0
 12 11  1  0  0  0  0
 12 13  2  0  0  0  0
 14  9  1  0  0  0  0
 14 10  2  0  0  0  0
 15 12  1  0  0  0  0
 16 15  1  0  0  0  0
 17 20  1  0  0  0  0
 18 17  2  0  0  0  0
 19 17  1  0  0  0  0
 20 16  1  0  0  0  0
 21  3  1  0  0  0  0
 22 23  1  0  0  0  0
 23 21  1  1  0  0  0
 24 25  1  6  0  0  0
 24 22  1  0  0  0  0
 24 23  1  0  0  0  0
 26 25  1  0  0  0  0
 27 26  1  0  0  0  0
 28 29  1  0  0  0  0
 28 27  1  0  0  0  0
 29 33  1  6  0  0  0
 29 30  1  0  0  0  0
 30 32  1  0  0  0  0
 31 32  1  0  0  0  0
 33 34  1  0  0  0  0
 35 34  1  0  0  0  0
 35 36  1  0  0  0  0
 36 37  1  0  0  0  0
M  END
>  <MODEL>
9

>  <REMARK>
 VINA RESULT:      -6.2      3.600      9.685
  Name = 
  19 active torsions:
  status: ('A' for Active; 'I' for Inactive)
    1  A    between atoms: C_2  and  C_29
    2  A    between atoms: C_2  and  C_37
    3  A    between atoms: C_3  and  C_6
    4  A    between atoms: C_3  and  C_29
    5  A    between atoms: C_4  and  C_16
    6  A    between atoms: C_4  and  S_21
    7  A    between atoms: C_7  and  C_27
    8  A    between atoms: C_7  and  C_32
    9  A    between atoms: C_10  and  N_22
   10  A    between atoms: C_10  and  C_35
   11  A    between atoms: C_15  and  C_25
   12  A    between atoms: C_15  and  C_26
   13  A    between atoms: C_16  and  C_20
   14  A    between atoms: C_17  and  C_34
   15  A    between atoms: C_18  and  N_24
   16  A    between atoms: C_18  and  C_37
   17  A    between atoms: C_20  and  C_33
   18  A    between atoms: S_21  and  C_37
   19  A    between atoms: N_30  and  C_32
                            x       y       z     vdW  Elec       q    Type
                         _______ _______ _______ _____ _____    ______ ____

>  <TORSDO>
F 19

$$$$
