=
 OpenBabel10232408073D

 38 40  0  0  1  0  0  0  0  0999 V2000
  183.6720  177.7720  138.2020 C   0  0  0  0  0  3  0  0  0  0  0  0
  183.2930  178.5290  139.2350 C   0  0  0  0  0  0  0  0  0  0  0  0
  186.2030  177.2180  137.6510 C   0  0  0  0  0  0  0  0  0  0  0  0
  185.0520  177.4700  137.9120 C   0  0  0  0  0  0  0  0  0  0  0  0
  187.5670  176.9160  137.3250 C   0  0  0  0  0  0  0  0  0  0  0  0
  188.6400  177.9030  137.7130 C   0  0  0  0  0  2  0  0  0  0  0  0
  189.2030  175.4480  136.1520 C   0  0  0  0  0  2  0  0  0  0  0  0
  187.8170  175.8480  136.5590 C   0  0  0  0  0  3  0  0  0  0  0  0
  190.1310  176.6560  136.0900 C   0  0  0  0  0  2  0  0  0  0  0  0
  190.0700  177.4400  137.4020 C   0  0  2  0  0  3  0  0  0  0  0  0
  190.0650  176.6290  139.6450 O   0  0  0  0  0  1  0  0  0  0  0  0
  190.6680  176.6780  138.5430 C   0  0  0  0  0  0  0  0  0  0  0  0
  191.9020  176.0510  138.4090 O   0  0  0  0  0  0  0  0  0  0  0  0
  181.8940  178.7660  139.4230 N   0  0  0  0  0  2  0  0  0  0  0  0
  181.2940  180.0930  139.3970 C   0  0  0  0  0  2  0  0  0  0  0  0
  180.8060  180.5320  137.7010 S   0  0  0  0  0  0  0  0  0  0  0  0
  180.7100  182.3010  138.0950 C   0  0  0  0  0  2  0  0  0  0  0  0
  180.9900  183.1320  136.8580 C   0  0  0  0  0  2  0  0  0  0  0  0
  182.4660  184.7570  137.6960 O   0  0  0  0  0  0  0  0  0  0  0  0
  181.3570  184.5230  137.2440 C   0  0  0  0  0  3  0  0  0  0  0  0
  184.2970  179.1090  140.1880 C   0  0  0  0  0  2  0  0  0  0  0  0
  184.4400  178.2320  141.3390 N   0  0  0  0  0  2  0  0  0  0  0  0
  183.5810  179.0900  144.2060 N   0  0  0  0  0  1  0  0  0  0  0  0
  187.4910  178.1980  141.4680 O   0  0  0  0  0  0  0  0  0  0  0  0
  184.8250  178.6300  143.6920 C   0  0  0  0  0  0  0  0  0  0  0  0
  185.6500  177.9340  144.4080 N   0  0  0  0  0  0  0  0  0  0  0  0
  186.7720  177.6180  143.6440 N   0  0  0  0  0  0  0  0  0  0  0  0
  186.6140  178.2150  142.3710 C   0  0  0  0  0  0  0  0  0  0  0  0
  185.3020  178.9100  142.2910 C   0  0  1  0  0  3  0  0  0  0  0  0
  187.9970  177.0580  144.1900 C   0  0  0  0  0  2  0  0  0  0  0  0
  189.9380  176.8120  146.6310 C   0  0  0  0  0  2  0  0  0  0  0  0
  191.2830  176.8860  145.8960 C   0  0  2  0  0  3  0  0  0  0  0  0
  189.0750  178.0210  146.2750 C   0  0  0  0  0  2  0  0  0  0  0  0
  188.8840  178.1590  144.7600 C   0  0  1  0  0  3  0  0  0  0  0  0
  190.2330  178.2120  144.0390 C   0  0  0  0  0  2  0  0  0  0  0  0
  191.1050  177.0050  144.3770 C   0  0  0  0  0  2  0  0  0  0  0  0
  192.1770  175.8600  146.2730 O   0  0  0  0  0  0  0  0  0  0  0  0
  192.0880  175.6580  147.6620 C   0  0  0  0  0  1  0  0  0  0  0  0
  1  2  2  0  0  0  0
  2 14  1  0  0  0  0
  2 21  1  0  0  0  0
  3  4  3  0  0  0  0
  4  1  1  0  0  0  0
  5  3  1  0  0  0  0
  5  6  1  0  0  0  0
  7  8  1  0  0  0  0
  8  5  2  0  0  0  0
  9  7  1  0  0  0  0
  9 10  1  0  0  0  0
 10  6  1  0  0  0  0
 10 12  1  1  0  0  0
 12 11  1  0  0  0  0
 13 12  2  0  0  0  0
 15 14  1  0  0  0  0
 16 17  1  0  0  0  0
 16 15  1  0  0  0  0
 18 20  1  0  0  0  0
 18 17  1  0  0  0  0
 20 19  2  0  0  0  0
 21 22  1  0  0  0  0
 24 28  2  0  0  0  0
 25 23  1  0  0  0  0
 25 26  2  0  0  0  0
 27 30  1  0  0  0  0
 27 26  1  0  0  0  0
 28 27  1  0  0  0  0
 29 22  1  6  0  0  0
 29 28  1  0  0  0  0
 29 25  1  0  0  0  0
 32 37  1  6  0  0  0
 32 31  1  0  0  0  0
 33 31  1  0  0  0  0
 34 30  1  6  0  0  0
 34 33  1  0  0  0  0
 35 36  1  0  0  0  0
 35 34  1  0  0  0  0
 36 32  1  0  0  0  0
 37 38  1  0  0  0  0
M  END
>  <MODEL>
1

>  <REMARK>
 VINA RESULT:      -7.1      0.000      0.000
  Name = 
  15 active torsions:
  status: ('A' for Active; 'I' for Inactive)
    1  A    between atoms: N_1  and  C_22
    2  A    between atoms: N_1  and  C_28
    3  A    between atoms: C_3  and  C_4
    4  A    between atoms: C_3  and  C_19
    5  A    between atoms: S_7  and  C_19
    6  A    between atoms: S_7  and  C_22
    7  A    between atoms: C_9  and  C_30
    8  A    between atoms: C_11  and  O_18
    9  A    between atoms: C_14  and  C_31
   10  A    between atoms: N_20  and  C_29
   11  A    between atoms: C_23  and  C_29
   12  A    between atoms: C_28  and  C_36
   13  A    between atoms: C_32  and  C_37
   14  A    between atoms: C_33  and  N_35
   15  A    between atoms: N_35  and  C_36
                            x       y       z     vdW  Elec       q    Type
                         _______ _______ _______ _____ _____    ______ ____

>  <TORSDO>
F 15

$$$$
=
 OpenBabel10232408073D

 38 40  0  0  1  0  0  0  0  0999 V2000
  186.7780  177.1260  136.4570 C   0  0  0  0  0  2  0  0  0  0  0  0
  187.9840  177.7000  136.4780 C   0  0  0  0  0  0  0  0  0  0  0  0
  184.7780  177.8760  138.0230 C   0  0  0  0  0  0  0  0  0  0  0  0
  185.6950  177.5370  137.3160 C   0  0  0  0  0  0  0  0  0  0  0  0
  183.6760  178.2780  138.8500 C   0  0  0  0  0  0  0  0  0  0  0  0
  183.2240  177.3520  139.9520 C   0  0  0  0  0  2  0  0  0  0  0  0
  181.8280  179.8850  139.3060 C   0  0  0  0  0  2  0  0  0  0  0  0
  182.9990  179.3820  138.5170 C   0  0  0  0  0  3  0  0  0  0  0  0
  181.1090  178.7440  140.0160 C   0  0  0  0  0  2  0  0  0  0  0  0
  182.1020  177.9180  140.8350 C   0  0  2  0  0  3  0  0  0  0  0  0
  183.8880  178.8030  142.1450 O   0  0  0  0  0  0  0  0  0  0  0  0
  182.6450  178.6830  142.0020 C   0  0  0  0  0  0  0  0  0  0  0  0
  181.7900  179.2360  142.9480 O   0  0  0  0  0  1  0  0  0  0  0  0
  188.9840  177.2060  135.5830 N   0  0  0  0  0  0  0  0  0  0  0  0
  188.8590  175.9530  134.8520 C   0  0  0  0  0  2  0  0  0  0  0  0
  190.2980  174.8870  135.1730 S   0  0  0  0  0  0  0  0  0  0  0  0
  189.2680  173.4000  135.3340 C   0  0  0  0  0  2  0  0  0  0  0  0
  188.2300  173.5950  136.4210 C   0  0  0  0  0  2  0  0  0  0  0  0
  187.6980  171.3120  136.2620 O   0  0  0  0  0  0  0  0  0  0  0  0
  187.8310  172.2790  136.9930 C   0  0  0  0  0  3  0  0  0  0  0  0
  188.2880  178.8430  137.4010 C   0  0  0  0  0  2  0  0  0  0  0  0
  189.4260  178.5020  138.2400 N   0  0  0  0  0  2  0  0  0  0  0  0
  190.8190  175.7880  138.8580 N   0  0  0  0  0  1  0  0  0  0  0  0
  187.7110  179.0240  140.7130 O   0  0  0  0  0  0  0  0  0  0  0  0
  190.1200  176.7010  139.6950 C   0  0  0  0  0  0  0  0  0  0  0  0
  190.4320  176.8690  140.9400 N   0  0  0  0  0  0  0  0  0  0  0  0
  189.5890  177.8260  141.5020 N   0  0  0  0  0  0  0  0  0  0  0  0
  188.6680  178.2330  140.5080 C   0  0  0  0  0  0  0  0  0  0  0  0
  188.9620  177.5410  139.2250 C   0  0  1  0  0  3  0  0  0  0  0  0
  189.4930  178.0900  142.9290 C   0  0  0  0  0  2  0  0  0  0  0  0
  188.7890  177.8650  145.9690 C   0  0  0  0  0  2  0  0  0  0  0  0
  187.2940  177.5390  145.8610 C   0  0  2  0  0  3  0  0  0  0  0  0
  189.6060  176.8680  145.1490 C   0  0  0  0  0  2  0  0  0  0  0  0
  189.1440  176.8150  143.6890 C   0  0  1  0  0  3  0  0  0  0  0  0
  187.6470  176.5090  143.5970 C   0  0  0  0  0  2  0  0  0  0  0  0
  186.8140  177.5030  144.4040 C   0  0  0  0  0  2  0  0  0  0  0  0
  186.4890  178.3510  146.6920 O   0  0  0  0  0  0  0  0  0  0  0  0
  185.2880  178.6450  146.0230 C   0  0  0  0  0  1  0  0  0  0  0  0
  1  2  1  0  0  0  0
  1  4  1  0  0  0  0
  2 21  1  0  0  0  0
  3  5  1  0  0  0  0
  4  3  3  0  0  0  0
  5  6  1  0  0  0  0
  6 10  1  0  0  0  0
  7  9  1  0  0  0  0
  8  5  2  0  0  0  0
  8  7  1  0  0  0  0
  9 10  1  0  0  0  0
 10 12  1  1  0  0  0
 12 11  2  0  0  0  0
 12 13  1  0  0  0  0
 14  2  2  0  0  0  0
 15 16  1  0  0  0  0
 15 14  1  0  0  0  0
 16 17  1  0  0  0  0
 17 18  1  0  0  0  0
 18 20  1  0  0  0  0
 19 20  2  0  0  0  0
 21 22  1  0  0  0  0
 23 25  1  0  0  0  0
 25 26  2  0  0  0  0
 26 27  1  0  0  0  0
 27 30  1  0  0  0  0
 28 24  2  0  0  0  0
 28 27  1  0  0  0  0
 29 22  1  6  0  0  0
 29 25  1  0  0  0  0
 29 28  1  0  0  0  0
 32 31  1  0  0  0  0
 32 37  1  1  0  0  0
 33 31  1  0  0  0  0
 34 30  1  1  0  0  0
 34 33  1  0  0  0  0
 35 34  1  0  0  0  0
 35 36  1  0  0  0  0
 36 32  1  0  0  0  0
 38 37  1  0  0  0  0
M  END
>  <MODEL>
2

>  <REMARK>
 VINA RESULT:      -6.9      3.820      7.426
  Name = 
  15 active torsions:
  status: ('A' for Active; 'I' for Inactive)
    1  A    between atoms: N_1  and  C_22
    2  A    between atoms: N_1  and  C_28
    3  A    between atoms: C_3  and  C_4
    4  A    between atoms: C_3  and  C_19
    5  A    between atoms: S_7  and  C_19
    6  A    between atoms: S_7  and  C_22
    7  A    between atoms: C_9  and  C_30
    8  A    between atoms: C_11  and  O_18
    9  A    between atoms: C_14  and  C_31
   10  A    between atoms: N_20  and  C_29
   11  A    between atoms: C_23  and  C_29
   12  A    between atoms: C_28  and  C_36
   13  A    between atoms: C_32  and  C_37
   14  A    between atoms: C_33  and  N_35
   15  A    between atoms: N_35  and  C_36
                            x       y       z     vdW  Elec       q    Type
                         _______ _______ _______ _____ _____    ______ ____

>  <TORSDO>
F 15

$$$$
=
 OpenBabel10232408073D

 38 40  0  0  1  0  0  0  0  0999 V2000
  185.2080  178.8040  145.8130 C   0  0  0  0  0  3  0  0  0  0  0  0
  186.3600  178.1290  145.7760 C   0  0  0  0  0  0  0  0  0  0  0  0
  183.4510  178.7810  143.8320 C   0  0  0  0  0  0  0  0  0  0  0  0
  184.2570  178.7980  144.7300 C   0  0  0  0  0  0  0  0  0  0  0  0
  182.4850  178.7470  142.7710 C   0  0  0  0  0  0  0  0  0  0  0  0
  182.9770  178.7540  141.3440 C   0  0  0  0  0  2  0  0  0  0  0  0
  180.1010  178.8520  142.0550 C   0  0  0  0  0  2  0  0  0  0  0  0
  181.1910  178.8650  143.0850 C   0  0  0  0  0  3  0  0  0  0  0  0
  180.6040  179.3720  140.7130 C   0  0  0  0  0  2  0  0  0  0  0  0
  181.8680  178.6220  140.2910 C   0  0  2  0  0  3  0  0  0  0  0  0
  182.5130  176.3410  140.0200 O   0  0  0  0  0  1  0  0  0  0  0  0
  181.5880  177.1900  139.9560 C   0  0  0  0  0  0  0  0  0  0  0  0
  180.3220  176.7920  139.5400 O   0  0  0  0  0  0  0  0  0  0  0  0
  187.2310  178.2130  146.9090 N   0  0  0  0  0  2  0  0  0  0  0  0
  188.1130  177.1330  147.3250 C   0  0  0  0  0  2  0  0  0  0  0  0
  189.8090  177.7520  147.5470 S   0  0  0  0  0  0  0  0  0  0  0  0
  190.3450  177.1160  145.9340 C   0  0  0  0  0  2  0  0  0  0  0  0
  191.6810  176.4110  146.0640 C   0  0  0  0  0  2  0  0  0  0  0  0
  193.0700  175.7570  147.8430 O   0  0  0  0  0  0  0  0  0  0  0  0
  191.9450  176.0700  147.4900 C   0  0  0  0  0  3  0  0  0  0  0  0
  186.7350  177.2900  144.5910 C   0  0  0  0  0  2  0  0  0  0  0  0
  187.6130  178.0480  143.7150 N   0  0  0  0  0  2  0  0  0  0  0  0
  186.0480  179.4780  141.4360 N   0  0  0  0  0  1  0  0  0  0  0  0
  189.3930  176.0510  142.2390 O   0  0  0  0  0  0  0  0  0  0  0  0
  187.2060  178.6530  141.4100 C   0  0  0  0  0  0  0  0  0  0  0  0
  188.1490  178.8200  140.5380 N   0  0  0  0  0  0  0  0  0  0  0  0
  189.1550  177.8810  140.7610 N   0  0  0  0  0  0  0  0  0  0  0  0
  188.7510  177.0580  141.8390 C   0  0  0  0  0  0  0  0  0  0  0  0
  187.4420  177.5200  142.3730 C   0  0  1  0  0  3  0  0  0  0  0  0
  190.2440  177.6180  139.8340 C   0  0  0  0  0  2  0  0  0  0  0  0
  188.9200  176.9440  137.0800 C   0  0  0  0  0  2  0  0  0  0  0  0
  190.1720  176.5510  136.2850 C   0  0  2  0  0  3  0  0  0  0  0  0
  188.8270  176.1160  138.3600 C   0  0  0  0  0  2  0  0  0  0  0  0
  190.0970  176.2340  139.2110 C   0  0  1  0  0  3  0  0  0  0  0  0
  191.3390  175.8590  138.3990 C   0  0  0  0  0  2  0  0  0  0  0  0
  191.4520  176.6850  137.1190 C   0  0  0  0  0  2  0  0  0  0  0  0
  190.2550  177.1950  135.0310 O   0  0  0  0  0  0  0  0  0  0  0  0
  188.9570  177.4210  134.5410 C   0  0  0  0  0  1  0  0  0  0  0  0
  2  1  2  0  0  0  0
  2 14  1  0  0  0  0
  3  4  3  0  0  0  0
  4  1  1  0  0  0  0
  5  8  2  0  0  0  0
  5  3  1  0  0  0  0
  6  5  1  0  0  0  0
  7  8  1  0  0  0  0
  9  7  1  0  0  0  0
 10 12  1  1  0  0  0
 10  9  1  0  0  0  0
 10  6  1  0  0  0  0
 12 11  1  0  0  0  0
 13 12  2  0  0  0  0
 14 15  1  0  0  0  0
 15 16  1  0  0  0  0
 17 18  1  0  0  0  0
 17 16  1  0  0  0  0
 18 20  1  0  0  0  0
 20 19  2  0  0  0  0
 21  2  1  0  0  0  0
 22 21  1  0  0  0  0
 25 23  1  0  0  0  0
 25 29  1  0  0  0  0
 26 27  1  0  0  0  0
 26 25  2  0  0  0  0
 27 28  1  0  0  0  0
 28 24  2  0  0  0  0
 28 29  1  0  0  0  0
 29 22  1  1  0  0  0
 30 27  1  0  0  0  0
 31 33  1  0  0  0  0
 32 37  1  6  0  0  0
 32 31  1  0  0  0  0
 32 36  1  0  0  0  0
 33 34  1  0  0  0  0
 34 30  1  6  0  0  0
 35 34  1  0  0  0  0
 36 35  1  0  0  0  0
 38 37  1  0  0  0  0
M  END
>  <MODEL>
3

>  <REMARK>
 VINA RESULT:      -6.9      3.619      9.265
  Name = 
  15 active torsions:
  status: ('A' for Active; 'I' for Inactive)
    1  A    between atoms: N_1  and  C_22
    2  A    between atoms: N_1  and  C_28
    3  A    between atoms: C_3  and  C_4
    4  A    between atoms: C_3  and  C_19
    5  A    between atoms: S_7  and  C_19
    6  A    between atoms: S_7  and  C_22
    7  A    between atoms: C_9  and  C_30
    8  A    between atoms: C_11  and  O_18
    9  A    between atoms: C_14  and  C_31
   10  A    between atoms: N_20  and  C_29
   11  A    between atoms: C_23  and  C_29
   12  A    between atoms: C_28  and  C_36
   13  A    between atoms: C_32  and  C_37
   14  A    between atoms: C_33  and  N_35
   15  A    between atoms: N_35  and  C_36
                            x       y       z     vdW  Elec       q    Type
                         _______ _______ _______ _____ _____    ______ ____

>  <TORSDO>
F 15

$$$$
=
 OpenBabel10232408073D

 38 40  0  0  1  0  0  0  0  0999 V2000
  186.8390  176.7550  136.4780 C   0  0  0  0  0  3  0  0  0  0  0  0
  187.9930  177.4270  136.5030 C   0  0  0  0  0  0  0  0  0  0  0  0
  184.6990  177.5280  137.8340 C   0  0  0  0  0  0  0  0  0  0  0  0
  185.6680  177.1720  137.2090 C   0  0  0  0  0  0  0  0  0  0  0  0
  183.5560  177.9540  138.5900 C   0  0  0  0  0  0  0  0  0  0  0  0
  183.0950  177.1020  139.7470 C   0  0  0  0  0  2  0  0  0  0  0  0
  181.6420  179.5270  138.8550 C   0  0  0  0  0  2  0  0  0  0  0  0
  182.8570  179.0040  138.1470 C   0  0  0  0  0  3  0  0  0  0  0  0
  180.9360  178.4200  139.6290 C   0  0  0  0  0  2  0  0  0  0  0  0
  181.9250  177.6960  140.5440 C   0  0  2  0  0  3  0  0  0  0  0  0
  183.6270  178.6160  141.9410 O   0  0  0  0  0  0  0  0  0  0  0  0
  182.4010  178.5700  141.6630 C   0  0  0  0  0  0  0  0  0  0  0  0
  181.4990  179.3060  142.4230 O   0  0  0  0  0  1  0  0  0  0  0  0
  189.0910  176.9160  135.7410 N   0  0  0  0  0  2  0  0  0  0  0  0
  189.7090  175.6220  135.9920 C   0  0  0  0  0  2  0  0  0  0  0  0
  191.4450  175.6330  135.4490 S   0  0  0  0  0  0  0  0  0  0  0  0
  191.8280  174.1090  136.3580 C   0  0  0  0  0  2  0  0  0  0  0  0
  193.2960  174.0790  136.7360 C   0  0  0  0  0  2  0  0  0  0  0  0
  194.1240  175.8530  138.0360 O   0  0  0  0  0  0  0  0  0  0  0  0
  193.8080  175.4660  136.9240 C   0  0  0  0  0  3  0  0  0  0  0  0
  188.1410  178.6940  137.2920 C   0  0  0  0  0  2  0  0  0  0  0  0
  189.1970  178.5350  138.2780 N   0  0  0  0  0  2  0  0  0  0  0  0
  190.9460  176.1560  139.2650 N   0  0  0  0  0  1  0  0  0  0  0  0
  187.0080  178.7620  140.3950 O   0  0  0  0  0  0  0  0  0  0  0  0
  189.9510  176.9320  139.9220 C   0  0  0  0  0  0  0  0  0  0  0  0
  190.0030  177.1820  141.1920 N   0  0  0  0  0  0  0  0  0  0  0  0
  188.9100  177.9680  141.5520 N   0  0  0  0  0  0  0  0  0  0  0  0
  188.1180  178.1680  140.3970 C   0  0  0  0  0  0  0  0  0  0  0  0
  188.7570  177.5220  139.2200 C   0  0  1  0  0  3  0  0  0  0  0  0
  188.5180  178.2360  142.9260 C   0  0  0  0  0  2  0  0  0  0  0  0
  189.0140  177.6970  145.9680 C   0  0  0  0  0  2  0  0  0  0  0  0
  187.5620  177.6140  146.4530 C   0  0  2  0  0  3  0  0  0  0  0  0
  189.2450  176.7140  144.8210 C   0  0  0  0  0  2  0  0  0  0  0  0
  188.2530  176.9330  143.6740 C   0  0  1  0  0  3  0  0  0  0  0  0
  186.8080  176.8680  144.1760 C   0  0  0  0  0  2  0  0  0  0  0  0
  186.5580  177.8520  145.3170 C   0  0  0  0  0  2  0  0  0  0  0  0
  187.3120  178.4120  147.5920 O   0  0  0  0  0  0  0  0  0  0  0  0
  188.3430  178.2150  148.5280 C   0  0  0  0  0  1  0  0  0  0  0  0
  1  2  2  0  0  0  0
  1  4  1  0  0  0  0
  2 21  1  0  0  0  0
  3  5  1  0  0  0  0
  4  3  3  0  0  0  0
  5  6  1  0  0  0  0
  6 10  1  0  0  0  0
  7  9  1  0  0  0  0
  8  5  2  0  0  0  0
  8  7  1  0  0  0  0
  9 10  1  0  0  0  0
 10 12  1  1  0  0  0
 12 11  2  0  0  0  0
 12 13  1  0  0  0  0
 14 15  1  0  0  0  0
 14  2  1  0  0  0  0
 16 15  1  0  0  0  0
 16 17  1  0  0  0  0
 17 18  1  0  0  0  0
 18 20  1  0  0  0  0
 20 19  2  0  0  0  0
 21 22  1  0  0  0  0
 23 25  1  0  0  0  0
 24 28  2  0  0  0  0
 25 26  2  0  0  0  0
 26 27  1  0  0  0  0
 27 30  1  0  0  0  0
 28 27  1  0  0  0  0
 29 22  1  6  0  0  0
 29 25  1  0  0  0  0
 29 28  1  0  0  0  0
 31 32  1  0  0  0  0
 32 37  1  1  0  0  0
 33 31  1  0  0  0  0
 34 30  1  1  0  0  0
 34 35  1  0  0  0  0
 34 33  1  0  0  0  0
 35 36  1  0  0  0  0
 36 32  1  0  0  0  0
 37 38  1  0  0  0  0
M  END
>  <MODEL>
4

>  <REMARK>
 VINA RESULT:      -6.9      3.679      7.660
  Name = 
  15 active torsions:
  status: ('A' for Active; 'I' for Inactive)
    1  A    between atoms: N_1  and  C_22
    2  A    between atoms: N_1  and  C_28
    3  A    between atoms: C_3  and  C_4
    4  A    between atoms: C_3  and  C_19
    5  A    between atoms: S_7  and  C_19
    6  A    between atoms: S_7  and  C_22
    7  A    between atoms: C_9  and  C_30
    8  A    between atoms: C_11  and  O_18
    9  A    between atoms: C_14  and  C_31
   10  A    between atoms: N_20  and  C_29
   11  A    between atoms: C_23  and  C_29
   12  A    between atoms: C_28  and  C_36
   13  A    between atoms: C_32  and  C_37
   14  A    between atoms: C_33  and  N_35
   15  A    between atoms: N_35  and  C_36
                            x       y       z     vdW  Elec       q    Type
                         _______ _______ _______ _____ _____    ______ ____

>  <TORSDO>
F 15

$$$$
=
 OpenBabel10232408073D

 38 40  0  0  1  0  0  0  0  0999 V2000
  185.8540  177.0890  136.8240 C   0  0  0  0  0  3  0  0  0  0  0  0
  187.1380  177.3370  137.0960 C   0  0  0  0  0  0  0  0  0  0  0  0
  183.8510  177.9720  138.3150 C   0  0  0  0  0  0  0  0  0  0  0  0
  184.7690  177.5680  137.6440 C   0  0  0  0  0  0  0  0  0  0  0  0
  182.7510  178.4570  139.0990 C   0  0  0  0  0  0  0  0  0  0  0  0
  182.2100  177.5840  140.2040 C   0  0  0  0  0  2  0  0  0  0  0  0
  180.9920  180.1830  139.4650 C   0  0  0  0  0  2  0  0  0  0  0  0
  182.1540  179.5930  138.7230 C   0  0  0  0  0  3  0  0  0  0  0  0
  180.1840  179.1020  140.1740 C   0  0  0  0  0  2  0  0  0  0  0  0
  181.0990  178.2350  141.0390 C   0  0  2  0  0  3  0  0  0  0  0  0
  182.8290  178.7720  142.5920 O   0  0  0  0  0  0  0  0  0  0  0  0
  181.6520  178.9910  142.2080 C   0  0  0  0  0  0  0  0  0  0  0  0
  180.8660  179.9090  142.8960 O   0  0  0  0  0  1  0  0  0  0  0  0
  188.1320  176.8050  136.2140 N   0  0  0  0  0  2  0  0  0  0  0  0
  189.0060  175.6950  136.5660 C   0  0  0  0  0  2  0  0  0  0  0  0
  190.7230  176.0700  136.1010 S   0  0  0  0  0  0  0  0  0  0  0  0
  191.3590  174.5730  136.9060 C   0  0  0  0  0  2  0  0  0  0  0  0
  192.6960  174.8560  137.5630 C   0  0  0  0  0  2  0  0  0  0  0  0
  193.9110  176.8660  137.4910 O   0  0  0  0  0  0  0  0  0  0  0  0
  193.3930  175.9650  136.8530 C   0  0  0  0  0  3  0  0  0  0  0  0
  187.5390  178.1620  138.2830 C   0  0  0  0  0  2  0  0  0  0  0  0
  187.7400  177.2970  139.4340 N   0  0  0  0  0  2  0  0  0  0  0  0
  185.8400  179.3370  140.8200 N   0  0  0  0  0  1  0  0  0  0  0  0
  189.9420  176.8280  141.4980 O   0  0  0  0  0  0  0  0  0  0  0  0
  186.8850  178.5200  141.3350 C   0  0  0  0  0  0  0  0  0  0  0  0
  186.8510  178.0390  142.5370 N   0  0  0  0  0  0  0  0  0  0  0  0
  187.9930  177.2730  142.7600 N   0  0  0  0  0  0  0  0  0  0  0  0
  188.7960  177.3380  141.5960 C   0  0  0  0  0  0  0  0  0  0  0  0
  188.1140  178.1470  140.5500 C   0  0  1  0  0  3  0  0  0  0  0  0
  188.4040  176.7830  144.0660 C   0  0  0  0  0  2  0  0  0  0  0  0
  189.9360  176.5410  146.7830 C   0  0  0  0  0  2  0  0  0  0  0  0
  191.3160  177.0440  146.3430 C   0  0  2  0  0  3  0  0  0  0  0  0
  188.8630  177.5700  146.4330 C   0  0  0  0  0  2  0  0  0  0  0  0
  188.8840  177.9340  144.9440 C   0  0  1  0  0  3  0  0  0  0  0  0
  190.2720  178.4150  144.5150 C   0  0  0  0  0  2  0  0  0  0  0  0
  191.3560  177.3920  144.8490 C   0  0  0  0  0  2  0  0  0  0  0  0
  192.3700  176.1930  146.7440 O   0  0  0  0  0  0  0  0  0  0  0  0
  191.9390  175.4060  147.8270 C   0  0  0  0  0  1  0  0  0  0  0  0
  1  2  2  0  0  0  0
  1  4  1  0  0  0  0
  2 21  1  0  0  0  0
  3  5  1  0  0  0  0
  4  3  3  0  0  0  0
  5  6  1  0  0  0  0
  6 10  1  0  0  0  0
  7  9  1  0  0  0  0
  8  5  2  0  0  0  0
  8  7  1  0  0  0  0
  9 10  1  0  0  0  0
 10 12  1  1  0  0  0
 12 11  2  0  0  0  0
 12 13  1  0  0  0  0
 14 15  1  0  0  0  0
 14  2  1  0  0  0  0
 16 15  1  0  0  0  0
 16 17  1  0  0  0  0
 17 18  1  0  0  0  0
 20 19  2  0  0  0  0
 20 18  1  0  0  0  0
 21 22  1  0  0  0  0
 23 25  1  0  0  0  0
 24 28  2  0  0  0  0
 25 26  2  0  0  0  0
 26 27  1  0  0  0  0
 27 30  1  0  0  0  0
 28 27  1  0  0  0  0
 29 22  1  6  0  0  0
 29 25  1  0  0  0  0
 29 28  1  0  0  0  0
 32 37  1  6  0  0  0
 32 31  1  0  0  0  0
 33 31  1  0  0  0  0
 34 30  1  6  0  0  0
 34 33  1  0  0  0  0
 35 36  1  0  0  0  0
 35 34  1  0  0  0  0
 36 32  1  0  0  0  0
 37 38  1  0  0  0  0
M  END
>  <MODEL>
5

>  <REMARK>
 VINA RESULT:      -6.7      2.962      7.156
  Name = 
  15 active torsions:
  status: ('A' for Active; 'I' for Inactive)
    1  A    between atoms: N_1  and  C_22
    2  A    between atoms: N_1  and  C_28
    3  A    between atoms: C_3  and  C_4
    4  A    between atoms: C_3  and  C_19
    5  A    between atoms: S_7  and  C_19
    6  A    between atoms: S_7  and  C_22
    7  A    between atoms: C_9  and  C_30
    8  A    between atoms: C_11  and  O_18
    9  A    between atoms: C_14  and  C_31
   10  A    between atoms: N_20  and  C_29
   11  A    between atoms: C_23  and  C_29
   12  A    between atoms: C_28  and  C_36
   13  A    between atoms: C_32  and  C_37
   14  A    between atoms: C_33  and  N_35
   15  A    between atoms: N_35  and  C_36
                            x       y       z     vdW  Elec       q    Type
                         _______ _______ _______ _____ _____    ______ ____

>  <TORSDO>
F 15

$$$$
=
 OpenBabel10232408073D

 38 40  0  0  1  0  0  0  0  0999 V2000
  183.9340  178.0700  138.2330 C   0  0  0  0  0  3  0  0  0  0  0  0
  183.6430  178.8100  139.3060 C   0  0  0  0  0  0  0  0  0  0  0  0
  186.3910  177.2750  137.6420 C   0  0  0  0  0  0  0  0  0  0  0  0
  185.2710  177.6310  137.9180 C   0  0  0  0  0  0  0  0  0  0  0  0
  187.7210  176.8610  137.2980 C   0  0  0  0  0  0  0  0  0  0  0  0
  188.8880  177.6010  137.9030 C   0  0  0  0  0  2  0  0  0  0  0  0
  189.2170  175.4420  135.9000 C   0  0  0  0  0  2  0  0  0  0  0  0
  187.8730  175.9390  136.3420 C   0  0  0  0  0  3  0  0  0  0  0  0
  190.2930  176.5030  136.1050 C   0  0  0  0  0  2  0  0  0  0  0  0
  190.2630  177.0190  137.5450 C   0  0  2  0  0  3  0  0  0  0  0  0
  190.4420  176.1230  139.7490 O   0  0  0  0  0  1  0  0  0  0  0  0
  190.6990  175.9760  138.5270 C   0  0  0  0  0  0  0  0  0  0  0  0
  191.4150  174.8600  138.1070 O   0  0  0  0  0  0  0  0  0  0  0  0
  182.2800  179.1920  139.5150 N   0  0  0  0  0  2  0  0  0  0  0  0
  181.1460  178.3640  139.1300 C   0  0  0  0  0  2  0  0  0  0  0  0
  180.6640  177.2740  140.5050 S   0  0  0  0  0  0  0  0  0  0  0  0
  180.5560  175.8190  139.4260 C   0  0  0  0  0  2  0  0  0  0  0  0
  180.7880  176.2180  137.9810 C   0  0  0  0  0  2  0  0  0  0  0  0
  181.0360  174.2950  136.6520 O   0  0  0  0  0  0  0  0  0  0  0  0
  181.5940  175.1770  137.2830 C   0  0  0  0  0  3  0  0  0  0  0  0
  184.7050  179.2230  140.2810 C   0  0  0  0  0  2  0  0  0  0  0  0
  184.6870  178.3310  141.4290 N   0  0  0  0  0  2  0  0  0  0  0  0
  183.6740  179.0170  144.2920 N   0  0  0  0  0  1  0  0  0  0  0  0
  187.7280  178.2830  141.7210 O   0  0  0  0  0  0  0  0  0  0  0  0
  184.9450  178.5860  143.8190 C   0  0  0  0  0  0  0  0  0  0  0  0
  185.7300  177.8470  144.5360 N   0  0  0  0  0  0  0  0  0  0  0  0
  186.8920  177.5750  143.8160 N   0  0  0  0  0  0  0  0  0  0  0  0
  186.8020  178.2470  142.5740 C   0  0  0  0  0  0  0  0  0  0  0  0
  185.4960  178.9490  142.4650 C   0  0  1  0  0  3  0  0  0  0  0  0
  188.0870  176.9800  144.3920 C   0  0  0  0  0  2  0  0  0  0  0  0
  189.2740  176.5950  147.2610 C   0  0  0  0  0  2  0  0  0  0  0  0
  190.7690  176.5660  146.9170 C   0  0  2  0  0  3  0  0  0  0  0  0
  188.6300  177.8650  146.7070 C   0  0  0  0  0  2  0  0  0  0  0  0
  188.8650  178.0130  145.2000 C   0  0  1  0  0  3  0  0  0  0  0  0
  190.3590  177.9620  144.8690 C   0  0  0  0  0  2  0  0  0  0  0  0
  191.0170  176.6930  145.4080 C   0  0  0  0  0  2  0  0  0  0  0  0
  191.4510  175.4760  147.5020 O   0  0  0  0  0  0  0  0  0  0  0  0
  192.6920  175.9190  147.9930 C   0  0  0  0  0  1  0  0  0  0  0  0
  1  2  2  0  0  0  0
  2 14  1  0  0  0  0
  2 21  1  0  0  0  0
  3  4  3  0  0  0  0
  4  1  1  0  0  0  0
  5  3  1  0  0  0  0
  5  6  1  0  0  0  0
  7  9  1  0  0  0  0
  7  8  1  0  0  0  0
  8  5  2  0  0  0  0
  9 10  1  0  0  0  0
 10  6  1  0  0  0  0
 10 12  1  1  0  0  0
 12 11  1  0  0  0  0
 13 12  2  0  0  0  0
 15 14  1  0  0  0  0
 15 16  1  0  0  0  0
 17 16  1  0  0  0  0
 18 17  1  0  0  0  0
 19 20  2  0  0  0  0
 20 18  1  0  0  0  0
 21 22  1  0  0  0  0
 24 28  2  0  0  0  0
 25 23  1  0  0  0  0
 25 26  2  0  0  0  0
 27 30  1  0  0  0  0
 27 26  1  0  0  0  0
 28 27  1  0  0  0  0
 29 22  1  6  0  0  0
 29 28  1  0  0  0  0
 29 25  1  0  0  0  0
 32 31  1  0  0  0  0
 32 37  1  6  0  0  0
 33 31  1  0  0  0  0
 34 30  1  6  0  0  0
 34 33  1  0  0  0  0
 35 34  1  0  0  0  0
 35 36  1  0  0  0  0
 36 32  1  0  0  0  0
 37 38  1  0  0  0  0
M  END
>  <MODEL>
6

>  <REMARK>
 VINA RESULT:      -6.7      2.322      2.933
  Name = 
  15 active torsions:
  status: ('A' for Active; 'I' for Inactive)
    1  A    between atoms: N_1  and  C_22
    2  A    between atoms: N_1  and  C_28
    3  A    between atoms: C_3  and  C_4
    4  A    between atoms: C_3  and  C_19
    5  A    between atoms: S_7  and  C_19
    6  A    between atoms: S_7  and  C_22
    7  A    between atoms: C_9  and  C_30
    8  A    between atoms: C_11  and  O_18
    9  A    between atoms: C_14  and  C_31
   10  A    between atoms: N_20  and  C_29
   11  A    between atoms: C_23  and  C_29
   12  A    between atoms: C_28  and  C_36
   13  A    between atoms: C_32  and  C_37
   14  A    between atoms: C_33  and  N_35
   15  A    between atoms: N_35  and  C_36
                            x       y       z     vdW  Elec       q    Type
                         _______ _______ _______ _____ _____    ______ ____

>  <TORSDO>
F 15

$$$$
=
 OpenBabel10232408073D

 38 40  0  0  1  0  0  0  0  0999 V2000
  184.6330  178.3950  142.7270 C   0  0  0  0  0  2  0  0  0  0  0  0
  185.0610  178.8580  141.5500 C   0  0  0  0  0  0  0  0  0  0  0  0
  186.2370  178.0110  144.8000 C   0  0  0  0  0  0  0  0  0  0  0  0
  185.5080  178.1770  143.8530 C   0  0  0  0  0  0  0  0  0  0  0  0
  187.1020  177.8300  145.9310 C   0  0  0  0  0  0  0  0  0  0  0  0
  188.0360  176.6450  145.9440 C   0  0  0  0  0  2  0  0  0  0  0  0
  187.7810  178.5180  148.2270 C   0  0  0  0  0  2  0  0  0  0  0  0
  186.9380  178.6270  146.9910 C   0  0  0  0  0  3  0  0  0  0  0  0
  188.2900  177.0950  148.4230 C   0  0  0  0  0  2  0  0  0  0  0  0
  188.9820  176.5980  147.1530 C   0  0  2  0  0  3  0  0  0  0  0  0
  190.3980  177.9810  145.8210 O   0  0  0  0  0  0  0  0  0  0  0  0
  190.2630  177.3260  146.8860 C   0  0  0  0  0  0  0  0  0  0  0  0
  191.3180  177.2600  147.7890 O   0  0  0  0  0  1  0  0  0  0  0  0
  184.1030  179.0300  140.5020 N   0  0  0  0  0  0  0  0  0  0  0  0
  182.6860  178.7300  140.6510 C   0  0  0  0  0  2  0  0  0  0  0  0
  181.9850  178.1790  139.0660 S   0  0  0  0  0  0  0  0  0  0  0  0
  182.9690  176.6530  139.0630 C   0  0  0  0  0  2  0  0  0  0  0  0
  182.0850  175.4590  138.7620 C   0  0  0  0  0  2  0  0  0  0  0  0
  180.3410  175.2810  140.3270 O   0  0  0  0  0  0  0  0  0  0  0  0
  180.6980  175.7110  139.2420 C   0  0  0  0  0  3  0  0  0  0  0  0
  186.5030  179.2070  141.3260 C   0  0  0  0  0  2  0  0  0  0  0  0
  187.0630  178.3350  140.3070 N   0  0  0  0  0  2  0  0  0  0  0  0
  189.0070  176.9150  142.2810 N   0  0  0  0  0  1  0  0  0  0  0  0
  188.8720  179.2300  138.0140 O   0  0  0  0  0  0  0  0  0  0  0  0
  189.1620  177.3060  140.9220 C   0  0  0  0  0  0  0  0  0  0  0  0
  189.9000  176.6360  140.0940 N   0  0  0  0  0  0  0  0  0  0  0  0
  189.8540  177.2440  138.8410 N   0  0  0  0  0  0  0  0  0  0  0  0
  189.0470  178.4020  138.9470 C   0  0  0  0  0  0  0  0  0  0  0  0
  188.5030  178.5210  140.3250 C   0  0  1  0  0  3  0  0  0  0  0  0
  190.7430  176.9080  137.7400 C   0  0  0  0  0  2  0  0  0  0  0  0
  191.7410  174.7980  135.6570 C   0  0  0  0  0  2  0  0  0  0  0  0
  193.2510  175.0550  135.7370 C   0  0  2  0  0  3  0  0  0  0  0  0
  191.1810  174.5070  137.0480 C   0  0  0  0  0  2  0  0  0  0  0  0
  191.5120  175.6260  138.0420 C   0  0  1  0  0  3  0  0  0  0  0  0
  193.0190  175.8860  138.0960 C   0  0  0  0  0  2  0  0  0  0  0  0
  193.5930  176.1880  136.7140 C   0  0  0  0  0  2  0  0  0  0  0  0
  193.8530  175.2120  134.4690 O   0  0  0  0  0  0  0  0  0  0  0  0
  194.4590  176.4790  134.4010 C   0  0  0  0  0  1  0  0  0  0  0  0
  1  4  1  0  0  0  0
  2  1  1  0  0  0  0
  3  5  1  0  0  0  0
  4  3  3  0  0  0  0
  5  6  1  0  0  0  0
  5  8  2  0  0  0  0
  6 10  1  0  0  0  0
  7  9  1  0  0  0  0
  8  7  1  0  0  0  0
 10 12  1  6  0  0  0
 10  9  1  0  0  0  0
 11 12  2  0  0  0  0
 12 13  1  0  0  0  0
 14 15  1  0  0  0  0
 14  2  2  0  0  0  0
 16 15  1  0  0  0  0
 17 16  1  0  0  0  0
 18 17  1  0  0  0  0
 18 20  1  0  0  0  0
 20 19  2  0  0  0  0
 21  2  1  0  0  0  0
 22 21  1  0  0  0  0
 24 28  2  0  0  0  0
 25 23  1  0  0  0  0
 26 25  2  0  0  0  0
 27 28  1  0  0  0  0
 27 26  1  0  0  0  0
 28 29  1  0  0  0  0
 29 22  1  6  0  0  0
 29 25  1  0  0  0  0
 30 27  1  0  0  0  0
 31 32  1  0  0  0  0
 31 33  1  0  0  0  0
 32 37  1  6  0  0  0
 32 36  1  0  0  0  0
 33 34  1  0  0  0  0
 34 30  1  6  0  0  0
 34 35  1  0  0  0  0
 36 35  1  0  0  0  0
 38 37  1  0  0  0  0
M  END
>  <MODEL>
7

>  <REMARK>
 VINA RESULT:      -6.6      3.173      7.914
  Name = 
  15 active torsions:
  status: ('A' for Active; 'I' for Inactive)
    1  A    between atoms: N_1  and  C_22
    2  A    between atoms: N_1  and  C_28
    3  A    between atoms: C_3  and  C_4
    4  A    between atoms: C_3  and  C_19
    5  A    between atoms: S_7  and  C_19
    6  A    between atoms: S_7  and  C_22
    7  A    between atoms: C_9  and  C_30
    8  A    between atoms: C_11  and  O_18
    9  A    between atoms: C_14  and  C_31
   10  A    between atoms: N_20  and  C_29
   11  A    between atoms: C_23  and  C_29
   12  A    between atoms: C_28  and  C_36
   13  A    between atoms: C_32  and  C_37
   14  A    between atoms: C_33  and  N_35
   15  A    between atoms: N_35  and  C_36
                            x       y       z     vdW  Elec       q    Type
                         _______ _______ _______ _____ _____    ______ ____

>  <TORSDO>
F 15

$$$$
=
 OpenBabel10232408073D

 38 40  0  0  1  0  0  0  0  0999 V2000
  190.9140  174.6090  136.1410 C   0  0  0  0  0  3  0  0  0  0  0  0
  190.2200  175.5690  136.7580 C   0  0  0  0  0  0  0  0  0  0  0  0
  193.4850  174.1760  136.6070 C   0  0  0  0  0  0  0  0  0  0  0  0
  192.3130  174.3650  136.3910 C   0  0  0  0  0  0  0  0  0  0  0  0
  194.8810  173.9680  136.8680 C   0  0  0  0  0  0  0  0  0  0  0  0
  195.8130  173.7650  135.6990 C   0  0  0  0  0  2  0  0  0  0  0  0
  196.7050  173.5790  138.5190 C   0  0  0  0  0  2  0  0  0  0  0  0
  195.2740  173.8110  138.1360 C   0  0  0  0  0  3  0  0  0  0  0  0
  197.4710  172.8850  137.3990 C   0  0  0  0  0  2  0  0  0  0  0  0
  197.2950  173.6460  136.0840 C   0  0  2  0  0  3  0  0  0  0  0  0
  199.2280  175.0430  136.1210 O   0  0  0  0  0  0  0  0  0  0  0  0
  197.9720  174.9810  136.1100 C   0  0  0  0  0  0  0  0  0  0  0  0
  197.2280  176.1540  136.1550 O   0  0  0  0  0  1  0  0  0  0  0  0
  188.8360  175.7240  136.4270 N   0  0  0  0  0  2  0  0  0  0  0  0
  188.2140  175.1020  135.2660 C   0  0  0  0  0  2  0  0  0  0  0  0
  186.4020  175.1720  135.4070 S   0  0  0  0  0  0  0  0  0  0  0  0
  186.2830  173.4130  135.8410 C   0  0  0  0  0  2  0  0  0  0  0  0
  186.1430  173.2510  137.3420 C   0  0  0  0  0  2  0  0  0  0  0  0
  184.1230  172.1480  136.8650 O   0  0  0  0  0  0  0  0  0  0  0  0
  184.7710  172.7800  137.6830 C   0  0  0  0  0  3  0  0  0  0  0  0
  190.8590  176.4580  137.7840 C   0  0  0  0  0  2  0  0  0  0  0  0
  190.1340  176.3540  139.0390 N   0  0  0  0  0  2  0  0  0  0  0  0
  187.8850  178.4690  138.6400 N   0  0  0  0  0  1  0  0  0  0  0  0
  191.5550  177.2680  141.5840 O   0  0  0  0  0  0  0  0  0  0  0  0
  188.7090  178.1690  139.7600 C   0  0  0  0  0  0  0  0  0  0  0  0
  188.2900  178.3080  140.9780 N   0  0  0  0  0  0  0  0  0  0  0  0
  189.3020  177.9310  141.8590 N   0  0  0  0  0  0  0  0  0  0  0  0
  190.4370  177.5730  141.0930 C   0  0  0  0  0  0  0  0  0  0  0  0
  190.1270  177.6760  139.6420 C   0  0  1  0  0  3  0  0  0  0  0  0
  189.2710  178.1840  143.2910 C   0  0  0  0  0  2  0  0  0  0  0  0
  188.8320  177.9110  146.3760 C   0  0  0  0  0  2  0  0  0  0  0  0
  187.3320  177.5910  146.3930 C   0  0  2  0  0  3  0  0  0  0  0  0
  189.5710  176.9250  145.4730 C   0  0  0  0  0  2  0  0  0  0  0  0
  188.9840  176.8970  144.0570 C   0  0  1  0  0  3  0  0  0  0  0  0
  187.4830  176.5980  144.0900 C   0  0  0  0  0  2  0  0  0  0  0  0
  186.7270  177.5810  144.9820 C   0  0  0  0  0  2  0  0  0  0  0  0
  186.6050  178.3910  147.3030 O   0  0  0  0  0  0  0  0  0  0  0  0
  185.2810  178.5200  146.8480 C   0  0  0  0  0  1  0  0  0  0  0  0
  1  4  1  0  0  0  0
  1  2  2  0  0  0  0
  2 21  1  0  0  0  0
  3  5  1  0  0  0  0
  4  3  3  0  0  0  0
  5  8  2  0  0  0  0
  6 10  1  0  0  0  0
  6  5  1  0  0  0  0
  8  7  1  0  0  0  0
  9  7  1  0  0  0  0
 10 12  1  1  0  0  0
 10  9  1  0  0  0  0
 12 11  2  0  0  0  0
 12 13  1  0  0  0  0
 14  2  1  0  0  0  0
 15 16  1  0  0  0  0
 15 14  1  0  0  0  0
 16 17  1  0  0  0  0
 17 18  1  0  0  0  0
 18 20  1  0  0  0  0
 19 20  2  0  0  0  0
 21 22  1  0  0  0  0
 23 25  1  0  0  0  0
 25 26  2  0  0  0  0
 26 27  1  0  0  0  0
 27 30  1  0  0  0  0
 28 24  2  0  0  0  0
 28 27  1  0  0  0  0
 29 22  1  1  0  0  0
 29 25  1  0  0  0  0
 29 28  1  0  0  0  0
 31 32  1  0  0  0  0
 32 37  1  1  0  0  0
 33 31  1  0  0  0  0
 34 30  1  1  0  0  0
 34 35  1  0  0  0  0
 34 33  1  0  0  0  0
 35 36  1  0  0  0  0
 36 32  1  0  0  0  0
 38 37  1  0  0  0  0
M  END
>  <MODEL>
8

>  <REMARK>
 VINA RESULT:      -6.5      4.864      7.343
  Name = 
  15 active torsions:
  status: ('A' for Active; 'I' for Inactive)
    1  A    between atoms: N_1  and  C_22
    2  A    between atoms: N_1  and  C_28
    3  A    between atoms: C_3  and  C_4
    4  A    between atoms: C_3  and  C_19
    5  A    between atoms: S_7  and  C_19
    6  A    between atoms: S_7  and  C_22
    7  A    between atoms: C_9  and  C_30
    8  A    between atoms: C_11  and  O_18
    9  A    between atoms: C_14  and  C_31
   10  A    between atoms: N_20  and  C_29
   11  A    between atoms: C_23  and  C_29
   12  A    between atoms: C_28  and  C_36
   13  A    between atoms: C_32  and  C_37
   14  A    between atoms: C_33  and  N_35
   15  A    between atoms: N_35  and  C_36
                            x       y       z     vdW  Elec       q    Type
                         _______ _______ _______ _____ _____    ______ ____

>  <TORSDO>
F 15

$$$$
=
 OpenBabel10232408073D

 38 40  0  0  1  0  0  0  0  0999 V2000
  190.7030  175.7120  138.5070 C   0  0  0  0  0  3  0  0  0  0  0  0
  190.0500  176.3020  137.5020 C   0  0  0  0  0  0  0  0  0  0  0  0
  190.7110  176.6730  140.9750 C   0  0  0  0  0  0  0  0  0  0  0  0
  190.7080  176.2260  139.8540 C   0  0  0  0  0  0  0  0  0  0  0  0
  190.7160  177.2210  142.3010 C   0  0  0  0  0  0  0  0  0  0  0  0
  189.9650  176.4910  143.3880 C   0  0  0  0  0  2  0  0  0  0  0  0
  191.3060  179.0970  143.8310 C   0  0  0  0  0  2  0  0  0  0  0  0
  191.2560  178.4290  142.4890 C   0  0  0  0  0  3  0  0  0  0  0  0
  190.1560  178.6370  144.7180 C   0  0  0  0  0  2  0  0  0  0  0  0
  190.1120  177.1100  144.7850 C   0  0  2  0  0  3  0  0  0  0  0  0
  191.6700  177.0820  146.5920 O   0  0  0  0  0  1  0  0  0  0  0  0
  191.2870  176.5440  145.5220 C   0  0  0  0  0  0  0  0  0  0  0  0
  191.9810  175.4490  145.0200 O   0  0  0  0  0  0  0  0  0  0  0  0
  190.1210  175.7040  136.2050 N   0  0  0  0  0  2  0  0  0  0  0  0
  190.8910  176.2640  135.1030 C   0  0  0  0  0  2  0  0  0  0  0  0
  192.6420  175.7970  135.2540 S   0  0  0  0  0  0  0  0  0  0  0  0
  192.2750  174.0290  135.0710 C   0  0  0  0  0  2  0  0  0  0  0  0
  192.7940  173.2570  136.2690 C   0  0  0  0  0  2  0  0  0  0  0  0
  194.1590  174.0360  138.0160 O   0  0  0  0  0  0  0  0  0  0  0  0
  194.0170  173.9120  136.8110 C   0  0  0  0  0  3  0  0  0  0  0  0
  189.2480  177.5510  137.7210 C   0  0  0  0  0  2  0  0  0  0  0  0
  187.9850  177.2150  138.3560 N   0  0  0  0  0  2  0  0  0  0  0  0
  185.1640  177.9040  137.2340 N   0  0  0  0  0  1  0  0  0  0  0  0
  188.3300  179.1410  140.7020 O   0  0  0  0  0  0  0  0  0  0  0  0
  185.7980  178.2390  138.4630 C   0  0  0  0  0  0  0  0  0  0  0  0
  185.1300  178.3860  139.5630 N   0  0  0  0  0  0  0  0  0  0  0  0
  186.0100  178.7000  140.5980 N   0  0  0  0  0  0  0  0  0  0  0  0
  187.3120  178.7850  140.0510 C   0  0  0  0  0  0  0  0  0  0  0  0
  187.2810  178.4610  138.6000 C   0  0  1  0  0  3  0  0  0  0  0  0
  185.5910  179.1670  141.9090 C   0  0  0  0  0  2  0  0  0  0  0  0
  186.5350  178.3370  144.7740 C   0  0  0  0  0  2  0  0  0  0  0  0
  185.3000  178.7550  145.5810 C   0  0  2  0  0  3  0  0  0  0  0  0
  186.1310  177.3940  143.6420 C   0  0  0  0  0  2  0  0  0  0  0  0
  185.0520  178.0100  142.7440 C   0  0  1  0  0  3  0  0  0  0  0  0
  183.8340  178.4410  143.5650 C   0  0  0  0  0  2  0  0  0  0  0  0
  184.2200  179.3920  144.6970 C   0  0  0  0  0  2  0  0  0  0  0  0
  185.6180  179.5320  146.7170 O   0  0  0  0  0  0  0  0  0  0  0  0
  186.4030  178.7640  147.5950 C   0  0  0  0  0  1  0  0  0  0  0  0
  1  4  1  0  0  0  0
  2 21  1  0  0  0  0
  2  1  2  0  0  0  0
  3  5  1  0  0  0  0
  4  3  3  0  0  0  0
  5  8  2  0  0  0  0
  5  6  1  0  0  0  0
  6 10  1  0  0  0  0
  7  9  1  0  0  0  0
  8  7  1  0  0  0  0
  9 10  1  0  0  0  0
 10 12  1  6  0  0  0
 12 11  1  0  0  0  0
 13 12  2  0  0  0  0
 14  2  1  0  0  0  0
 15 16  1  0  0  0  0
 15 14  1  0  0  0  0
 17 16  1  0  0  0  0
 17 18  1  0  0  0  0
 18 20  1  0  0  0  0
 20 19  2  0  0  0  0
 21 22  1  0  0  0  0
 23 25  1  0  0  0  0
 25 29  1  0  0  0  0
 25 26  2  0  0  0  0
 26 27  1  0  0  0  0
 27 30  1  0  0  0  0
 28 27  1  0  0  0  0
 28 24  2  0  0  0  0
 29 22  1  1  0  0  0
 29 28  1  0  0  0  0
 31 32  1  0  0  0  0
 32 37  1  1  0  0  0
 33 31  1  0  0  0  0
 34 30  1  1  0  0  0
 34 35  1  0  0  0  0
 34 33  1  0  0  0  0
 35 36  1  0  0  0  0
 36 32  1  0  0  0  0
 37 38  1  0  0  0  0
M  END
>  <MODEL>
9

>  <REMARK>
 VINA RESULT:      -6.5      3.854      8.122
  Name = 
  15 active torsions:
  status: ('A' for Active; 'I' for Inactive)
    1  A    between atoms: N_1  and  C_22
    2  A    between atoms: N_1  and  C_28
    3  A    between atoms: C_3  and  C_4
    4  A    between atoms: C_3  and  C_19
    5  A    between atoms: S_7  and  C_19
    6  A    between atoms: S_7  and  C_22
    7  A    between atoms: C_9  and  C_30
    8  A    between atoms: C_11  and  O_18
    9  A    between atoms: C_14  and  C_31
   10  A    between atoms: N_20  and  C_29
   11  A    between atoms: C_23  and  C_29
   12  A    between atoms: C_28  and  C_36
   13  A    between atoms: C_32  and  C_37
   14  A    between atoms: C_33  and  N_35
   15  A    between atoms: N_35  and  C_36
                            x       y       z     vdW  Elec       q    Type
                         _______ _______ _______ _____ _____    ______ ____

>  <TORSDO>
F 15

$$$$
