=
 OpenBabel10232411293D

 54 59  0  0  1  0  0  0  0  0999 V2000
  184.7340  178.8020  140.6570 C   0  0  0  0  0  2  0  0  0  0  0  0
  184.7640  178.7330  139.3270 C   0  0  0  0  0  0  0  0  0  0  0  0
  183.5610  178.4910  138.5860 N   0  0  0  0  0  0  0  0  0  0  0  0
  181.9360  179.1050  140.2910 C   0  0  1  0  0  3  0  0  0  0  0  0
  182.2920  178.1120  139.1980 C   0  0  1  0  0  3  0  0  0  0  0  0
  181.1890  179.1480  138.9670 C   0  0  2  0  0  3  0  0  0  0  0  0
  181.3430  180.1530  136.6760 C   0  0  0  0  0  2  0  0  0  0  0  0
  180.0850  182.2140  136.0060 C   0  0  0  0  0  3  0  0  0  0  0  0
  181.6250  180.3760  138.1700 C   0  0  1  0  0  3  0  0  0  0  0  0
  180.9450  181.5620  138.6920 N   0  0  0  0  0  2  0  0  0  0  0  0
  181.4920  182.7350  138.0210 C   0  0  0  0  0  2  0  0  0  0  0  0
  180.6830  183.1210  136.8020 C   0  0  0  0  0  0  0  0  0  0  0  0
  179.9990  180.7340  136.2560 C   0  0  0  0  0  2  0  0  0  0  0  0
  180.0070  185.4420  137.1600 O   0  0  0  0  0  0  0  0  0  0  0  0
  180.6680  184.4990  136.4040 N   0  0  0  0  0  0  0  0  0  0  0  0
  181.2590  184.8590  135.3650 O   0  0  0  0  0  0  0  0  0  0  0  0
  180.2720  177.5440  141.0040 O   0  0  0  0  0  0  0  0  0  0  0  0
  181.0950  178.4390  141.3320 C   0  0  0  0  0  0  0  0  0  0  0  0
  181.2580  178.7750  142.7050 N   0  0  0  0  0  1  0  0  0  0  0  0
  185.9770  178.8910  138.6490 O   0  0  0  0  0  0  0  0  0  0  0  0
  186.5120  177.8830  137.7970 C   0  0  1  0  0  3  0  0  0  0  0  0
  188.4660  179.2650  136.9820 C   0  0  0  0  0  2  0  0  0  0  0  0
  189.4340  178.3660  137.7520 C   0  0  1  0  0  3  0  0  0  0  0  0
  187.2040  178.4990  136.5780 C   0  0  0  0  0  2  0  0  0  0  0  0
  188.7380  177.7660  138.9790 C   0  0  0  0  0  2  0  0  0  0  0  0
  187.4810  176.9940  138.5770 C   0  0  0  0  0  2  0  0  0  0  0  0
  189.9220  177.3520  136.9210 O   0  0  0  0  0  0  0  0  0  0  0  0
  190.8530  176.6630  137.6970 C   0  0  0  0  0  2  0  0  0  0  0  0
  191.8660  175.9940  136.7940 C   0  0  0  0  0  2  0  0  0  0  0  0
  193.0300  175.7290  137.5130 O   0  0  0  0  0  0  0  0  0  0  0  0
  194.0370  175.6720  136.5490 C   0  0  0  0  0  2  0  0  0  0  0  0
  197.2090  173.6020  136.7410 C   0  0  0  0  0  2  0  0  0  0  0  0
  197.7740  174.2170  138.0200 C   0  0  0  0  0  2  0  0  0  0  0  0
  196.6560  174.2920  139.0540 C   0  0  0  0  0  2  0  0  0  0  0  0
  195.2190  174.9470  137.0940 C   0  0  0  0  0  0  0  0  0  0  0  0
  196.0310  174.3410  136.2770 N   0  0  0  0  0  0  0  0  0  0  0  0
  195.5170  175.0130  138.4950 N   0  0  0  0  0  2  0  0  0  0  0  0
  185.9590  179.0510  141.4690 C   0  0  0  0  0  2  0  0  0  0  0  0
  185.5440  178.2320  143.9740 C   0  0  0  0  0  0  0  0  0  0  0  0
  185.7340  178.5980  142.8410 C   0  0  0  0  0  0  0  0  0  0  0  0
  185.3080  177.8020  145.3540 C   0  0  0  0  0  2  0  0  0  0  0  0
  186.6330  177.5710  146.0760 C   0  0  1  0  0  3  0  0  0  0  0  0
  187.8190  177.6660  145.1050 C   0  0  0  0  0  2  0  0  0  0  0  0
  188.5820  176.8810  148.0690 C   0  0  0  0  0  2  0  0  0  0  0  0
  189.5650  176.9550  146.8920 C   0  0  0  0  0  2  0  0  0  0  0  0
  189.1710  177.9520  145.7770 C   0  0  1  0  0  3  0  0  0  0  0  0
  187.8180  178.0760  148.2250 O   0  0  0  0  0  0  0  0  0  0  0  0
  186.8260  178.4270  147.3070 C   0  0  0  0  0  0  0  0  0  0  0  0
  186.1340  179.5440  147.5040 C   0  0  0  0  0  2  0  0  0  0  0  0
  189.6740  178.0080  143.4110 C   0  0  0  0  0  2  0  0  0  0  0  0
  190.7270  177.3280  142.5750 C   0  0  0  0  0  2  0  0  0  0  0  0
  190.2170  178.1410  144.7610 N   0  0  0  0  0  0  0  0  0  0  0  0
  191.4810  176.4710  143.5570 C   0  0  0  0  0  2  0  0  0  0  0  0
  191.2320  177.1000  144.9140 C   0  0  0  0  0  2  0  0  0  0  0  0
  1 38  1  0  0  0  0
  2  1  1  0  0  0  0
  3  2  2  0  0  0  0
  4 18  1  1  0  0  0
  5  3  1  6  0  0  0
  5  4  1  0  0  0  0
  6  9  1  6  0  0  0
  6  5  1  0  0  0  0
  6  4  1  0  0  0  0
  8 13  1  0  0  0  0
  8 12  2  0  0  0  0
  9  7  1  6  0  0  0
  9 10  1  0  0  0  0
 11 10  1  0  0  0  0
 12 11  1  0  0  0  0
 13  7  1  0  0  0  0
 15 12  1  0  0  0  0
 15 14  2  0  0  0  0
 16 15  2  0  0  0  0
 17 18  2  0  0  0  0
 18 19  1  0  0  0  0
 20  2  1  0  0  0  0
 21 26  1  0  0  0  0
 21 20  1  1  0  0  0
 22 23  1  0  0  0  0
 23 27  1  6  0  0  0
 23 25  1  0  0  0  0
 24 22  1  0  0  0  0
 24 21  1  0  0  0  0
 26 25  1  0  0  0  0
 27 28  1  0  0  0  0
 29 30  1  0  0  0  0
 29 28  1  0  0  0  0
 31 35  1  0  0  0  0
 31 30  1  0  0  0  0
 32 33  1  0  0  0  0
 33 34  1  0  0  0  0
 35 37  1  0  0  0  0
 36 32  1  0  0  0  0
 36 35  2  0  0  0  0
 37 34  1  0  0  0  0
 38 40  1  0  0  0  0
 39 41  1  0  0  0  0
 40 39  3  0  0  0  0
 42 41  1  6  0  0  0
 42 48  1  0  0  0  0
 43 46  1  0  0  0  0
 43 42  1  0  0  0  0
 44 47  1  0  0  0  0
 45 44  1  0  0  0  0
 46 52  1  6  0  0  0
 46 45  1  0  0  0  0
 48 49  2  0  0  0  0
 48 47  1  0  0  0  0
 50 52  1  0  0  0  0
 51 50  1  0  0  0  0
 51 53  1  0  0  0  0
 52 54  1  0  0  0  0
 53 54  1  0  0  0  0
M  END
>  <MODEL>
1

>  <REMARK>
 VINA RESULT:      -8.4      0.000      0.000
  Name = 
  18 active torsions:
  status: ('A' for Active; 'I' for Inactive)
    1  A    between atoms: O_1  and  C_34
    2  A    between atoms: O_1  and  C_35
    3  A    between atoms: C_6  and  C_7
    4  A    between atoms: C_7  and  C_28
    5  A    between atoms: C_10  and  C_17
    6  A    between atoms: C_10  and  O_37
    7  A    between atoms: C_13  and  C_16
    8  A    between atoms: C_14  and  C_34
    9  A    between atoms: C_14  and  O_37
   10  A    between atoms: C_18  and  C_25
   11  A    between atoms: C_19  and  O_27
   12  A    between atoms: N_20  and  C_31
   13  A    between atoms: C_23  and  O_27
   14  A    between atoms: C_23  and  N_38
   15  A    between atoms: C_24  and  N_38
   16  A    between atoms: C_25  and  C_30
   17  A    between atoms: C_32  and  C_39
   18  A    between atoms: C_46  and  N_53
                            x       y       z     vdW  Elec       q    Type
                         _______ _______ _______ _____ _____    ______ ____

>  <TORSDO>
F 18

$$$$
=
 OpenBabel10232411293D

 54 59  0  0  1  0  0  0  0  0999 V2000
  190.2090  176.7990  139.6360 C   0  0  0  0  0  3  0  0  0  0  0  0
  189.7910  176.3290  138.4610 C   0  0  0  0  0  0  0  0  0  0  0  0
  190.7110  175.6900  137.5670 N   0  0  0  0  0  2  0  0  0  0  0  0
  191.0430  174.2140  135.6600 C   0  0  1  0  0  3  0  0  0  0  0  0
  190.5680  174.3150  137.1000 C   0  0  1  0  0  3  0  0  0  0  0  0
  191.9110  173.6560  136.7780 C   0  0  2  0  0  3  0  0  0  0  0  0
  194.1430  173.8570  137.9010 C   0  0  0  0  0  2  0  0  0  0  0  0
  196.2960  174.0280  136.6310 C   0  0  0  0  0  3  0  0  0  0  0  0
  193.1290  174.5560  136.9810 C   0  0  1  0  0  3  0  0  0  0  0  0
  193.7040  174.8990  135.6800 N   0  0  0  0  0  2  0  0  0  0  0  0
  194.7640  175.8770  135.8930 C   0  0  0  0  0  2  0  0  0  0  0  0
  196.1210  175.2240  136.0350 C   0  0  0  0  0  0  0  0  0  0  0  0
  195.2080  173.1080  137.1110 C   0  0  0  0  0  2  0  0  0  0  0  0
  197.2100  177.3350  135.4670 O   0  0  0  0  0  0  0  0  0  0  0  0
  197.2800  175.9700  135.6410 N   0  0  0  0  0  0  0  0  0  0  0  0
  198.3680  175.3890  135.4530 O   0  0  0  0  0  0  0  0  0  0  0  0
  189.1260  173.2440  134.6130 O   0  0  0  0  0  0  0  0  0  0  0  0
  190.3280  173.1020  134.9640 C   0  0  0  0  0  0  0  0  0  0  0  0
  191.0170  171.8990  134.6440 N   0  0  0  0  0  1  0  0  0  0  0  0
  188.4490  176.4660  138.0950 O   0  0  0  0  0  0  0  0  0  0  0  0
  188.0410  177.2370  136.9680 C   0  0  1  0  0  3  0  0  0  0  0  0
  186.3590  175.5510  136.1180 C   0  0  0  0  0  2  0  0  0  0  0  0
  185.2130  176.4920  136.4930 C   0  0  1  0  0  3  0  0  0  0  0  0
  187.6340  176.3330  135.7990 C   0  0  0  0  0  2  0  0  0  0  0  0
  185.6230  177.3800  137.6740 C   0  0  0  0  0  2  0  0  0  0  0  0
  186.8930  178.1690  137.3540 C   0  0  0  0  0  2  0  0  0  0  0  0
  184.8480  177.2750  135.3940 O   0  0  0  0  0  0  0  0  0  0  0  0
  183.8720  176.5320  134.7280 C   0  0  0  0  0  2  0  0  0  0  0  0
  182.5800  176.5790  135.5130 C   0  0  0  0  0  2  0  0  0  0  0  0
  182.1670  177.9030  135.6560 O   0  0  0  0  0  0  0  0  0  0  0  0
  181.0850  177.8440  136.5340 C   0  0  0  0  0  2  0  0  0  0  0  0
  181.5200  177.5300  140.2890 C   0  0  0  0  0  2  0  0  0  0  0  0
  182.9400  178.0840  140.3750 C   0  0  0  0  0  2  0  0  0  0  0  0
  183.0120  179.3580  139.5400 C   0  0  0  0  0  2  0  0  0  0  0  0
  181.5500  178.0930  137.9270 C   0  0  0  0  0  0  0  0  0  0  0  0
  181.1110  177.3400  138.8940 N   0  0  0  0  0  0  0  0  0  0  0  0
  182.5580  179.0810  138.1800 N   0  0  0  0  0  2  0  0  0  0  0  0
  189.2890  177.4700  140.5970 C   0  0  0  0  0  2  0  0  0  0  0  0
  190.6040  178.0140  142.8540 C   0  0  0  0  0  0  0  0  0  0  0  0
  190.0090  177.7630  141.8350 C   0  0  0  0  0  0  0  0  0  0  0  0
  191.3310  178.3320  144.0850 C   0  0  0  0  0  2  0  0  0  0  0  0
  190.4410  178.1090  145.3050 C   0  0  1  0  0  3  0  0  0  0  0  0
  188.9600  178.0290  144.9050 C   0  0  0  0  0  2  0  0  0  0  0  0
  189.5130  177.8770  148.0130 C   0  0  0  0  0  2  0  0  0  0  0  0
  188.1230  177.9090  147.3620 C   0  0  0  0  0  2  0  0  0  0  0  0
  188.0610  177.3220  145.9320 C   0  0  1  0  0  3  0  0  0  0  0  0
  190.3510  176.8550  147.4730 O   0  0  0  0  0  0  0  0  0  0  0  0
  190.8660  176.9490  146.1770 C   0  0  0  0  0  0  0  0  0  0  0  0
  191.6510  175.9770  145.7270 C   0  0  0  0  0  2  0  0  0  0  0  0
  186.6100  177.6510  144.0240 C   0  0  0  0  0  2  0  0  0  0  0  0
  185.2750  178.3320  143.8620 C   0  0  0  0  0  2  0  0  0  0  0  0
  186.6930  177.1930  145.4080 N   0  0  0  0  0  0  0  0  0  0  0  0
  184.9710  178.8780  145.2310 C   0  0  0  0  0  2  0  0  0  0  0  0
  185.7950  178.0410  146.1900 C   0  0  0  0  0  2  0  0  0  0  0  0
  1 38  1  0  0  0  0
  2  1  2  0  0  0  0
  3  2  1  0  0  0  0
  4 18  1  6  0  0  0
  4  6  1  0  0  0  0
  4  5  1  0  0  0  0
  5  3  1  1  0  0  0
  6  9  1  1  0  0  0
  6  5  1  0  0  0  0
  8 13  1  0  0  0  0
  9  7  1  1  0  0  0
 10 11  1  0  0  0  0
 10  9  1  0  0  0  0
 11 12  1  0  0  0  0
 12  8  2  0  0  0  0
 13  7  1  0  0  0  0
 14 15  2  0  0  0  0
 15 12  1  0  0  0  0
 16 15  2  0  0  0  0
 17 18  2  0  0  0  0
 19 18  1  0  0  0  0
 20  2  1  0  0  0  0
 21 26  1  0  0  0  0
 21 20  1  1  0  0  0
 22 23  1  0  0  0  0
 23 27  1  6  0  0  0
 23 25  1  0  0  0  0
 24 22  1  0  0  0  0
 24 21  1  0  0  0  0
 26 25  1  0  0  0  0
 28 27  1  0  0  0  0
 28 29  1  0  0  0  0
 29 30  1  0  0  0  0
 30 31  1  0  0  0  0
 31 35  1  0  0  0  0
 32 33  1  0  0  0  0
 34 33  1  0  0  0  0
 35 37  1  0  0  0  0
 35 36  2  0  0  0  0
 36 32  1  0  0  0  0
 37 34  1  0  0  0  0
 38 40  1  0  0  0  0
 39 41  1  0  0  0  0
 40 39  3  0  0  0  0
 42 41  1  6  0  0  0
 42 48  1  0  0  0  0
 43 42  1  0  0  0  0
 45 44  1  0  0  0  0
 46 43  1  6  0  0  0
 46 45  1  0  0  0  0
 47 44  1  0  0  0  0
 48 47  1  0  0  0  0
 49 48  2  0  0  0  0
 50 52  1  0  0  0  0
 51 50  1  0  0  0  0
 51 53  1  0  0  0  0
 52 46  1  0  0  0  0
 52 54  1  0  0  0  0
 53 54  1  0  0  0  0
M  END
>  <MODEL>
2

>  <REMARK>
 VINA RESULT:      -8.2      2.878     10.594
  Name = 
  18 active torsions:
  status: ('A' for Active; 'I' for Inactive)
    1  A    between atoms: O_1  and  C_34
    2  A    between atoms: O_1  and  C_35
    3  A    between atoms: C_6  and  C_7
    4  A    between atoms: C_7  and  C_28
    5  A    between atoms: C_10  and  C_17
    6  A    between atoms: C_10  and  O_37
    7  A    between atoms: C_13  and  C_16
    8  A    between atoms: C_14  and  C_34
    9  A    between atoms: C_14  and  O_37
   10  A    between atoms: C_18  and  C_25
   11  A    between atoms: C_19  and  O_27
   12  A    between atoms: N_20  and  C_31
   13  A    between atoms: C_23  and  O_27
   14  A    between atoms: C_23  and  N_38
   15  A    between atoms: C_24  and  N_38
   16  A    between atoms: C_25  and  C_30
   17  A    between atoms: C_32  and  C_39
   18  A    between atoms: C_46  and  N_53
                            x       y       z     vdW  Elec       q    Type
                         _______ _______ _______ _____ _____    ______ ____

>  <TORSDO>
F 18

$$$$
=
 OpenBabel10232411293D

 54 59  0  0  1  0  0  0  0  0999 V2000
  189.4710  177.3170  139.6000 C   0  0  0  0  0  3  0  0  0  0  0  0
  188.8990  176.8360  138.4960 C   0  0  0  0  0  0  0  0  0  0  0  0
  189.7010  176.2700  137.4520 N   0  0  0  0  0  2  0  0  0  0  0  0
  189.8440  174.8280  135.4960 C   0  0  1  0  0  3  0  0  0  0  0  0
  189.5790  174.8910  136.9910 C   0  0  1  0  0  3  0  0  0  0  0  0
  190.9000  174.3220  136.4670 C   0  0  2  0  0  3  0  0  0  0  0  0
  192.8760  175.0970  137.8010 C   0  0  0  0  0  2  0  0  0  0  0  0
  195.2370  174.8660  136.9960 C   0  0  0  0  0  3  0  0  0  0  0  0
  192.0740  175.2980  136.5050 C   0  0  1  0  0  3  0  0  0  0  0  0
  192.8980  175.1160  135.3090 N   0  0  0  0  0  2  0  0  0  0  0  0
  193.9180  176.1580  135.2930 C   0  0  0  0  0  2  0  0  0  0  0  0
  195.2070  175.7020  135.9410 C   0  0  0  0  0  0  0  0  0  0  0  0
  194.0570  174.1570  137.6010 C   0  0  0  0  0  2  0  0  0  0  0  0
  197.6430  175.8790  136.0200 O   0  0  0  0  0  0  0  0  0  0  0  0
  196.4370  176.2920  135.4970 N   0  0  0  0  0  0  0  0  0  0  0  0
  196.4270  177.1870  134.6280 O   0  0  0  0  0  0  0  0  0  0  0  0
  189.6660  172.5510  134.7920 O   0  0  0  0  0  0  0  0  0  0  0  0
  189.1070  173.6760  134.8950 C   0  0  0  0  0  0  0  0  0  0  0  0
  187.7530  173.8290  134.4860 N   0  0  0  0  0  1  0  0  0  0  0  0
  187.5090  176.8910  138.3520 O   0  0  0  0  0  0  0  0  0  0  0  0
  186.8770  177.6740  137.3440 C   0  0  1  0  0  3  0  0  0  0  0  0
  185.1740  175.9190  136.7040 C   0  0  0  0  0  2  0  0  0  0  0  0
  184.0560  176.7720  137.3060 C   0  0  1  0  0  3  0  0  0  0  0  0
  186.3330  176.7910  136.2170 C   0  0  0  0  0  2  0  0  0  0  0  0
  184.6060  177.6400  138.4430 C   0  0  0  0  0  2  0  0  0  0  0  0
  185.7600  178.5190  137.9560 C   0  0  0  0  0  2  0  0  0  0  0  0
  183.4690  177.5700  136.3180 O   0  0  0  0  0  0  0  0  0  0  0  0
  182.1120  177.6000  136.6360 C   0  0  0  0  0  2  0  0  0  0  0  0
  181.4030  178.5800  135.7270 C   0  0  0  0  0  2  0  0  0  0  0  0
  180.4210  179.2590  136.4470 O   0  0  0  0  0  0  0  0  0  0  0  0
  181.1270  180.1430  137.2620 C   0  0  0  0  0  2  0  0  0  0  0  0
  180.7570  183.9160  137.3830 C   0  0  0  0  0  2  0  0  0  0  0  0
  180.9870  184.1890  135.8970 C   0  0  0  0  0  2  0  0  0  0  0  0
  180.1490  183.2030  135.0910 C   0  0  0  0  0  2  0  0  0  0  0  0
  180.8370  181.5470  136.8570 C   0  0  0  0  0  0  0  0  0  0  0  0
  181.0270  182.5120  137.7090 N   0  0  0  0  0  0  0  0  0  0  0  0
  180.4600  181.8390  135.5050 N   0  0  0  0  0  2  0  0  0  0  0  0
  188.6770  177.9150  140.7100 C   0  0  0  0  0  2  0  0  0  0  0  0
  190.2380  178.2060  142.8550 C   0  0  0  0  0  0  0  0  0  0  0  0
  189.5300  178.0700  141.8880 C   0  0  0  0  0  0  0  0  0  0  0  0
  191.1060  178.3790  144.0220 C   0  0  0  0  0  2  0  0  0  0  0  0
  190.3190  178.1610  145.3110 C   0  0  1  0  0  3  0  0  0  0  0  0
  188.8110  178.0810  145.0350 C   0  0  0  0  0  2  0  0  0  0  0  0
  189.6170  177.9400  148.0870 C   0  0  0  0  0  2  0  0  0  0  0  0
  188.1780  177.9710  147.5530 C   0  0  0  0  0  2  0  0  0  0  0  0
  187.9980  177.3790  146.1350 C   0  0  1  0  0  3  0  0  0  0  0  0
  190.4060  176.9160  147.4840 O   0  0  0  0  0  0  0  0  0  0  0  0
  190.8130  177.0040  146.1510 C   0  0  0  0  0  0  0  0  0  0  0  0
  191.5580  176.0300  145.6400 C   0  0  0  0  0  2  0  0  0  0  0  0
  186.4230  177.5490  144.3070 C   0  0  0  0  0  2  0  0  0  0  0  0
  185.1040  178.2630  144.1580 C   0  0  0  0  0  2  0  0  0  0  0  0
  186.5910  177.2500  145.7260 N   0  0  0  0  0  0  0  0  0  0  0  0
  184.9210  178.9760  145.4710 C   0  0  0  0  0  2  0  0  0  0  0  0
  185.7830  178.2200  146.4630 C   0  0  0  0  0  2  0  0  0  0  0  0
  1 38  1  0  0  0  0
  2  1  2  0  0  0  0
  3  2  1  0  0  0  0
  4 18  1  6  0  0  0
  4  6  1  0  0  0  0
  4  5  1  0  0  0  0
  5  3  1  1  0  0  0
  6  9  1  1  0  0  0
  6  5  1  0  0  0  0
  8 13  1  0  0  0  0
  9  7  1  1  0  0  0
 10  9  1  0  0  0  0
 11 10  1  0  0  0  0
 11 12  1  0  0  0  0
 12  8  2  0  0  0  0
 13  7  1  0  0  0  0
 15 12  1  0  0  0  0
 15 14  2  0  0  0  0
 16 15  2  0  0  0  0
 17 18  2  0  0  0  0
 19 18  1  0  0  0  0
 20  2  1  0  0  0  0
 21 26  1  0  0  0  0
 21 20  1  1  0  0  0
 22 23  1  0  0  0  0
 23 27  1  6  0  0  0
 23 25  1  0  0  0  0
 24 22  1  0  0  0  0
 24 21  1  0  0  0  0
 26 25  1  0  0  0  0
 27 28  1  0  0  0  0
 29 30  1  0  0  0  0
 29 28  1  0  0  0  0
 30 31  1  0  0  0  0
 32 36  1  0  0  0  0
 33 32  1  0  0  0  0
 34 37  1  0  0  0  0
 34 33  1  0  0  0  0
 35 31  1  0  0  0  0
 35 36  2  0  0  0  0
 37 35  1  0  0  0  0
 38 40  1  0  0  0  0
 39 41  1  0  0  0  0
 40 39  3  0  0  0  0
 42 41  1  6  0  0  0
 42 48  1  0  0  0  0
 43 42  1  0  0  0  0
 45 44  1  0  0  0  0
 46 43  1  6  0  0  0
 46 45  1  0  0  0  0
 47 44  1  0  0  0  0
 48 47  1  0  0  0  0
 49 48  2  0  0  0  0
 50 52  1  0  0  0  0
 51 50  1  0  0  0  0
 51 53  1  0  0  0  0
 52 46  1  0  0  0  0
 52 54  1  0  0  0  0
 53 54  1  0  0  0  0
M  END
>  <MODEL>
3

>  <REMARK>
 VINA RESULT:      -8.1      2.620     10.779
  Name = 
  18 active torsions:
  status: ('A' for Active; 'I' for Inactive)
    1  A    between atoms: O_1  and  C_34
    2  A    between atoms: O_1  and  C_35
    3  A    between atoms: C_6  and  C_7
    4  A    between atoms: C_7  and  C_28
    5  A    between atoms: C_10  and  C_17
    6  A    between atoms: C_10  and  O_37
    7  A    between atoms: C_13  and  C_16
    8  A    between atoms: C_14  and  C_34
    9  A    between atoms: C_14  and  O_37
   10  A    between atoms: C_18  and  C_25
   11  A    between atoms: C_19  and  O_27
   12  A    between atoms: N_20  and  C_31
   13  A    between atoms: C_23  and  O_27
   14  A    between atoms: C_23  and  N_38
   15  A    between atoms: C_24  and  N_38
   16  A    between atoms: C_25  and  C_30
   17  A    between atoms: C_32  and  C_39
   18  A    between atoms: C_46  and  N_53
                            x       y       z     vdW  Elec       q    Type
                         _______ _______ _______ _____ _____    ______ ____

>  <TORSDO>
F 18

$$$$
=
 OpenBabel10232411293D

 54 59  0  0  1  0  0  0  0  0999 V2000
  186.3160  178.6840  140.2090 C   0  0  0  0  0  3  0  0  0  0  0  0
  185.1330  178.9800  140.7480 C   0  0  0  0  0  0  0  0  0  0  0  0
  183.9630  179.0640  139.9250 N   0  0  0  0  0  2  0  0  0  0  0  0
  181.6720  179.1580  140.7410 C   0  0  1  0  0  3  0  0  0  0  0  0
  182.7560  178.2760  140.1470 C   0  0  1  0  0  3  0  0  0  0  0  0
  181.5800  178.7370  139.2820 C   0  0  2  0  0  3  0  0  0  0  0  0
  181.4170  179.6320  136.9470 C   0  0  0  0  0  2  0  0  0  0  0  0
  180.0340  181.6340  136.3500 C   0  0  0  0  0  3  0  0  0  0  0  0
  181.8810  179.9330  138.3810 C   0  0  1  0  0  3  0  0  0  0  0  0
  181.2440  181.1300  138.9310 N   0  0  0  0  0  2  0  0  0  0  0  0
  181.6720  182.2790  138.1430 C   0  0  0  0  0  2  0  0  0  0  0  0
  180.7060  182.5900  137.0200 C   0  0  0  0  0  0  0  0  0  0  0  0
  180.0170  180.1670  136.6760 C   0  0  0  0  0  2  0  0  0  0  0  0
  180.4580  184.9800  137.4630 O   0  0  0  0  0  0  0  0  0  0  0  0
  180.6070  183.9460  136.5650 N   0  0  0  0  0  0  0  0  0  0  0  0
  180.6570  184.2050  135.3450 O   0  0  0  0  0  0  0  0  0  0  0  0
  180.2410  177.2780  141.1040 O   0  0  0  0  0  0  0  0  0  0  0  0
  180.7410  178.3350  141.5710 C   0  0  0  0  0  0  0  0  0  0  0  0
  180.4580  178.7140  142.9140 N   0  0  0  0  0  1  0  0  0  0  0  0
  185.0350  179.2180  142.1220 O   0  0  0  0  0  0  0  0  0  0  0  0
  184.6080  178.2160  143.0400 C   0  0  1  0  0  3  0  0  0  0  0  0
  186.6520  178.3580  144.5230 C   0  0  0  0  0  2  0  0  0  0  0  0
  185.8090  178.9740  145.6400 C   0  0  1  0  0  3  0  0  0  0  0  0
  185.8040  177.4550  143.6240 C   0  0  0  0  0  2  0  0  0  0  0  0
  184.6250  179.7460  145.0460 C   0  0  0  0  0  2  0  0  0  0  0  0
  183.7710  178.8440  144.1550 C   0  0  0  0  0  2  0  0  0  0  0  0
  185.3580  177.9780  146.5130 O   0  0  0  0  0  0  0  0  0  0  0  0
  186.4970  177.5490  147.1930 C   0  0  0  0  0  2  0  0  0  0  0  0
  187.0590  178.6920  148.0080 C   0  0  0  0  0  2  0  0  0  0  0  0
  188.4100  178.4630  148.2670 O   0  0  0  0  0  0  0  0  0  0  0  0
  188.6210  177.1350  147.8940 C   0  0  0  0  0  2  0  0  0  0  0  0
  192.0400  176.1150  146.6060 C   0  0  0  0  0  2  0  0  0  0  0  0
  191.7600  176.3060  145.1170 C   0  0  0  0  0  2  0  0  0  0  0  0
  191.0630  177.6490  144.9260 C   0  0  0  0  0  2  0  0  0  0  0  0
  189.8360  177.0370  147.0370 C   0  0  0  0  0  0  0  0  0  0  0  0
  190.8130  176.2570  147.3960 N   0  0  0  0  0  0  0  0  0  0  0  0
  189.8760  177.7120  145.7720 N   0  0  0  0  0  2  0  0  0  0  0  0
  187.5590  178.5860  141.0250 C   0  0  0  0  0  2  0  0  0  0  0  0
  189.4130  177.2450  139.6520 C   0  0  0  0  0  0  0  0  0  0  0  0
  188.5750  177.8470  140.2760 C   0  0  0  0  0  0  0  0  0  0  0  0
  190.4280  176.5220  138.8820 C   0  0  0  0  0  2  0  0  0  0  0  0
  189.7680  175.5840  137.8750 C   0  0  1  0  0  3  0  0  0  0  0  0
  188.3700  176.0830  137.4840 C   0  0  0  0  0  2  0  0  0  0  0  0
  189.2020  173.3130  136.2110 C   0  0  0  0  0  2  0  0  0  0  0  0
  187.8310  173.9830  136.0520 C   0  0  0  0  0  2  0  0  0  0  0  0
  187.8460  175.5270  136.1500 C   0  0  1  0  0  3  0  0  0  0  0  0
  190.2820  174.1790  135.8650 O   0  0  0  0  0  0  0  0  0  0  0  0
  190.6260  175.2670  136.6700 C   0  0  0  0  0  0  0  0  0  0  0  0
  191.6480  176.0360  136.3100 C   0  0  0  0  0  2  0  0  0  0  0  0
  186.2560  177.2650  136.7020 C   0  0  0  0  0  2  0  0  0  0  0  0
  184.7680  177.2500  136.9420 C   0  0  0  0  0  2  0  0  0  0  0  0
  186.5590  176.1510  135.8080 N   0  0  0  0  0  0  0  0  0  0  0  0
  184.3890  175.7990  136.8110 C   0  0  0  0  0  2  0  0  0  0  0  0
  185.4880  175.1700  135.9760 C   0  0  0  0  0  2  0  0  0  0  0  0
  1  2  2  0  0  0  0
  1 38  1  0  0  0  0
  2 20  1  0  0  0  0
  3  2  1  0  0  0  0
  4 18  1  1  0  0  0
  5  3  1  6  0  0  0
  5  4  1  0  0  0  0
  6  9  1  6  0  0  0
  6  5  1  0  0  0  0
  6  4  1  0  0  0  0
  8 13  1  0  0  0  0
  8 12  2  0  0  0  0
  9  7  1  6  0  0  0
  9 10  1  0  0  0  0
 11 10  1  0  0  0  0
 12 11  1  0  0  0  0
 13  7  1  0  0  0  0
 15 12  1  0  0  0  0
 15 14  2  0  0  0  0
 16 15  2  0  0  0  0
 17 18  2  0  0  0  0
 18 19  1  0  0  0  0
 21 20  1  6  0  0  0
 21 24  1  0  0  0  0
 21 26  1  0  0  0  0
 22 23  1  0  0  0  0
 23 27  1  1  0  0  0
 24 22  1  0  0  0  0
 25 23  1  0  0  0  0
 26 25  1  0  0  0  0
 27 28  1  0  0  0  0
 28 29  1  0  0  0  0
 29 30  1  0  0  0  0
 31 30  1  0  0  0  0
 32 36  1  0  0  0  0
 33 32  1  0  0  0  0
 34 33  1  0  0  0  0
 34 37  1  0  0  0  0
 35 36  2  0  0  0  0
 35 31  1  0  0  0  0
 37 35  1  0  0  0  0
 39 40  3  0  0  0  0
 40 38  1  0  0  0  0
 41 39  1  0  0  0  0
 42 41  1  6  0  0  0
 43 42  1  0  0  0  0
 45 46  1  0  0  0  0
 45 44  1  0  0  0  0
 46 52  1  1  0  0  0
 46 43  1  0  0  0  0
 47 44  1  0  0  0  0
 47 48  1  0  0  0  0
 48 42  1  0  0  0  0
 49 48  2  0  0  0  0
 50 51  1  0  0  0  0
 52 54  1  0  0  0  0
 52 50  1  0  0  0  0
 53 51  1  0  0  0  0
 54 53  1  0  0  0  0
M  END
>  <MODEL>
4

>  <REMARK>
 VINA RESULT:      -8.1      2.789      7.790
  Name = 
  18 active torsions:
  status: ('A' for Active; 'I' for Inactive)
    1  A    between atoms: O_1  and  C_34
    2  A    between atoms: O_1  and  C_35
    3  A    between atoms: C_6  and  C_7
    4  A    between atoms: C_7  and  C_28
    5  A    between atoms: C_10  and  C_17
    6  A    between atoms: C_10  and  O_37
    7  A    between atoms: C_13  and  C_16
    8  A    between atoms: C_14  and  C_34
    9  A    between atoms: C_14  and  O_37
   10  A    between atoms: C_18  and  C_25
   11  A    between atoms: C_19  and  O_27
   12  A    between atoms: N_20  and  C_31
   13  A    between atoms: C_23  and  O_27
   14  A    between atoms: C_23  and  N_38
   15  A    between atoms: C_24  and  N_38
   16  A    between atoms: C_25  and  C_30
   17  A    between atoms: C_32  and  C_39
   18  A    between atoms: C_46  and  N_53
                            x       y       z     vdW  Elec       q    Type
                         _______ _______ _______ _____ _____    ______ ____

>  <TORSDO>
F 18

$$$$
=
 OpenBabel10232411293D

 54 59  0  0  1  0  0  0  0  0999 V2000
  192.1550  176.9940  139.7640 C   0  0  0  0  0  3  0  0  0  0  0  0
  192.2530  176.3620  138.5950 C   0  0  0  0  0  0  0  0  0  0  0  0
  193.5280  176.2070  137.9590 N   0  0  0  0  0  2  0  0  0  0  0  0
  195.1160  175.8000  136.1590 C   0  0  1  0  0  3  0  0  0  0  0  0
  193.7400  176.3340  136.5210 C   0  0  1  0  0  3  0  0  0  0  0  0
  193.8800  174.9790  135.8210 C   0  0  2  0  0  3  0  0  0  0  0  0
  192.6690  172.8340  136.2810 C   0  0  0  0  0  2  0  0  0  0  0  0
  193.7820  170.5920  136.1720 C   0  0  0  0  0  3  0  0  0  0  0  0
  193.7950  173.7700  136.7500 C   0  0  1  0  0  3  0  0  0  0  0  0
  195.0940  173.0960  136.7920 N   0  0  0  0  0  2  0  0  0  0  0  0
  195.0300  172.0430  137.7980 C   0  0  0  0  0  2  0  0  0  0  0  0
  194.6440  170.7080  137.2010 C   0  0  0  0  0  0  0  0  0  0  0  0
  193.1890  171.7230  135.3790 C   0  0  0  0  0  2  0  0  0  0  0  0
  194.2240  168.6610  138.4660 O   0  0  0  0  0  0  0  0  0  0  0  0
  195.1090  169.5150  137.8440 N   0  0  0  0  0  0  0  0  0  0  0  0
  196.3250  169.2340  137.8460 O   0  0  0  0  0  0  0  0  0  0  0  0
  196.6510  176.0560  134.3460 O   0  0  0  0  0  0  0  0  0  0  0  0
  195.6250  176.4880  134.9350 C   0  0  0  0  0  0  0  0  0  0  0  0
  194.9220  177.6030  134.3970 N   0  0  0  0  0  1  0  0  0  0  0  0
  191.1040  175.8540  137.9800 O   0  0  0  0  0  0  0  0  0  0  0  0
  190.5180  176.4650  136.8350 C   0  0  1  0  0  3  0  0  0  0  0  0
  188.6790  174.7520  136.5600 C   0  0  0  0  0  2  0  0  0  0  0  0
  187.6370  175.7910  136.9760 C   0  0  1  0  0  3  0  0  0  0  0  0
  189.8930  175.4170  135.9080 C   0  0  0  0  0  2  0  0  0  0  0  0
  188.2670  176.8250  137.9150 C   0  0  0  0  0  2  0  0  0  0  0  0
  189.4760  177.4980  137.2630 C   0  0  0  0  0  2  0  0  0  0  0  0
  187.0980  176.4170  135.8470 O   0  0  0  0  0  0  0  0  0  0  0  0
  185.8720  176.9310  136.2690 C   0  0  0  0  0  2  0  0  0  0  0  0
  184.8200  175.8460  136.2040 C   0  0  0  0  0  2  0  0  0  0  0  0
  183.9190  176.0040  137.2550 O   0  0  0  0  0  0  0  0  0  0  0  0
  184.2430  177.2400  137.8160 C   0  0  0  0  0  2  0  0  0  0  0  0
  181.3520  177.2890  140.2720 C   0  0  0  0  0  2  0  0  0  0  0  0
  181.5070  178.7360  140.7370 C   0  0  0  0  0  2  0  0  0  0  0  0
  181.6910  179.6200  139.5080 C   0  0  0  0  0  2  0  0  0  0  0  0
  183.1130  177.7250  138.6580 C   0  0  0  0  0  0  0  0  0  0  0  0
  182.4770  176.8860  139.4230 N   0  0  0  0  0  0  0  0  0  0  0  0
  182.8070  179.1250  138.7080 N   0  0  0  0  0  2  0  0  0  0  0  0
  190.8510  177.1790  140.4610 C   0  0  0  0  0  2  0  0  0  0  0  0
  191.2920  178.1590  142.9040 C   0  0  0  0  0  0  0  0  0  0  0  0
  191.0890  177.7140  141.8020 C   0  0  0  0  0  0  0  0  0  0  0  0
  191.5520  178.7050  144.2380 C   0  0  0  0  0  2  0  0  0  0  0  0
  190.4580  178.2780  145.2130 C   0  0  1  0  0  3  0  0  0  0  0  0
  189.1040  178.1350  144.5020 C   0  0  0  0  0  2  0  0  0  0  0  0
  189.0240  177.6710  147.6260 C   0  0  0  0  0  2  0  0  0  0  0  0
  187.8000  177.6740  146.7010 C   0  0  0  0  0  2  0  0  0  0  0  0
  188.0870  177.2510  145.2410 C   0  0  1  0  0  3  0  0  0  0  0  0
  190.0490  176.7830  147.1820 O   0  0  0  0  0  0  0  0  0  0  0  0
  190.8060  177.0620  146.0410 C   0  0  0  0  0  0  0  0  0  0  0  0
  191.7570  176.2090  145.6760 C   0  0  0  0  0  2  0  0  0  0  0  0
  187.0870  177.5340  143.0560 C   0  0  0  0  0  2  0  0  0  0  0  0
  185.8030  178.1750  142.5960 C   0  0  0  0  0  2  0  0  0  0  0  0
  186.8730  177.0810  144.4280 N   0  0  0  0  0  0  0  0  0  0  0  0
  185.1880  178.7160  143.8590 C   0  0  0  0  0  2  0  0  0  0  0  0
  185.8010  177.9050  144.9840 C   0  0  0  0  0  2  0  0  0  0  0  0
  1 38  1  0  0  0  0
  2  1  2  0  0  0  0
  3  2  1  0  0  0  0
  4 18  1  6  0  0  0
  4  5  1  0  0  0  0
  5  3  1  1  0  0  0
  6  4  1  0  0  0  0
  6  5  1  0  0  0  0
  6  9  1  1  0  0  0
  8 12  2  0  0  0  0
  9  7  1  6  0  0  0
  9 10  1  0  0  0  0
 10 11  1  0  0  0  0
 12 11  1  0  0  0  0
 12 15  1  0  0  0  0
 13  8  1  0  0  0  0
 13  7  1  0  0  0  0
 15 16  2  0  0  0  0
 15 14  2  0  0  0  0
 17 18  2  0  0  0  0
 19 18  1  0  0  0  0
 20  2  1  0  0  0  0
 21 26  1  0  0  0  0
 21 20  1  1  0  0  0
 22 23  1  0  0  0  0
 23 27  1  6  0  0  0
 23 25  1  0  0  0  0
 24 22  1  0  0  0  0
 24 21  1  0  0  0  0
 26 25  1  0  0  0  0
 27 28  1  0  0  0  0
 29 28  1  0  0  0  0
 29 30  1  0  0  0  0
 30 31  1  0  0  0  0
 31 35  1  0  0  0  0
 32 33  1  0  0  0  0
 34 33  1  0  0  0  0
 35 37  1  0  0  0  0
 35 36  2  0  0  0  0
 36 32  1  0  0  0  0
 37 34  1  0  0  0  0
 38 40  1  0  0  0  0
 39 41  1  0  0  0  0
 40 39  3  0  0  0  0
 42 41  1  6  0  0  0
 42 48  1  0  0  0  0
 43 42  1  0  0  0  0
 43 46  1  0  0  0  0
 45 44  1  0  0  0  0
 46 52  1  6  0  0  0
 46 45  1  0  0  0  0
 47 44  1  0  0  0  0
 48 47  1  0  0  0  0
 49 48  2  0  0  0  0
 50 52  1  0  0  0  0
 51 50  1  0  0  0  0
 51 53  1  0  0  0  0
 52 54  1  0  0  0  0
 53 54  1  0  0  0  0
M  END
>  <MODEL>
5

>  <REMARK>
 VINA RESULT:      -8.0      3.069     11.345
  Name = 
  18 active torsions:
  status: ('A' for Active; 'I' for Inactive)
    1  A    between atoms: O_1  and  C_34
    2  A    between atoms: O_1  and  C_35
    3  A    between atoms: C_6  and  C_7
    4  A    between atoms: C_7  and  C_28
    5  A    between atoms: C_10  and  C_17
    6  A    between atoms: C_10  and  O_37
    7  A    between atoms: C_13  and  C_16
    8  A    between atoms: C_14  and  C_34
    9  A    between atoms: C_14  and  O_37
   10  A    between atoms: C_18  and  C_25
   11  A    between atoms: C_19  and  O_27
   12  A    between atoms: N_20  and  C_31
   13  A    between atoms: C_23  and  O_27
   14  A    between atoms: C_23  and  N_38
   15  A    between atoms: C_24  and  N_38
   16  A    between atoms: C_25  and  C_30
   17  A    between atoms: C_32  and  C_39
   18  A    between atoms: C_46  and  N_53
                            x       y       z     vdW  Elec       q    Type
                         _______ _______ _______ _____ _____    ______ ____

>  <TORSDO>
F 18

$$$$
=
 OpenBabel10232411293D

 54 59  0  0  1  0  0  0  0  0999 V2000
  186.7620  178.4860  140.0230 C   0  0  0  0  0  2  0  0  0  0  0  0
  185.4890  178.7840  140.2850 C   0  0  0  0  0  0  0  0  0  0  0  0
  184.5070  178.7450  139.2420 N   0  0  0  0  0  0  0  0  0  0  0  0
  182.4560  179.2350  138.0250 C   0  0  1  0  0  3  0  0  0  0  0  0
  183.1690  179.3150  139.3640 C   0  0  1  0  0  3  0  0  0  0  0  0
  182.0620  178.2820  139.1430 C   0  0  2  0  0  3  0  0  0  0  0  0
  181.7540  175.8410  139.6230 C   0  0  0  0  0  2  0  0  0  0  0  0
  181.0170  174.1950  137.8840 C   0  0  0  0  0  3  0  0  0  0  0  0
  182.5590  176.8750  138.8180 C   0  0  1  0  0  3  0  0  0  0  0  0
  182.4680  176.6470  137.3750 N   0  0  0  0  0  2  0  0  0  0  0  0
  183.0880  175.3620  137.0750 C   0  0  0  0  0  2  0  0  0  0  0  0
  182.0810  174.2340  137.0590 C   0  0  0  0  0  0  0  0  0  0  0  0
  180.5830  175.2830  138.8250 C   0  0  0  0  0  2  0  0  0  0  0  0
  181.4330  172.0690  136.1300 O   0  0  0  0  0  0  0  0  0  0  0  0
  182.3460  173.0970  136.2270 N   0  0  0  0  0  0  0  0  0  0  0  0
  183.4100  173.0270  135.5780 O   0  0  0  0  0  0  0  0  0  0  0  0
  180.3330  180.1220  137.3800 O   0  0  0  0  0  0  0  0  0  0  0  0
  181.4540  180.3370  137.9140 C   0  0  0  0  0  0  0  0  0  0  0  0
  181.7390  181.6210  138.4580 N   0  0  0  0  0  1  0  0  0  0  0  0
  185.1110  179.1430  141.5820 O   0  0  0  0  0  0  0  0  0  0  0  0
  184.5840  178.2000  142.5110 C   0  0  1  0  0  3  0  0  0  0  0  0
  186.2700  178.6830  144.3320 C   0  0  0  0  0  2  0  0  0  0  0  0
  185.1760  179.3230  145.1880 C   0  0  1  0  0  3  0  0  0  0  0  0
  185.6900  177.6190  143.3980 C   0  0  0  0  0  2  0  0  0  0  0  0
  184.0820  179.9150  144.2920 C   0  0  0  0  0  2  0  0  0  0  0  0
  183.4950  178.8520  143.3630 C   0  0  0  0  0  2  0  0  0  0  0  0
  184.6330  178.3800  146.0660 O   0  0  0  0  0  0  0  0  0  0  0  0
  185.7290  177.8360  146.7360 C   0  0  0  0  0  2  0  0  0  0  0  0
  186.2920  178.8580  147.6980 C   0  0  0  0  0  2  0  0  0  0  0  0
  187.6450  178.6040  147.9130 O   0  0  0  0  0  0  0  0  0  0  0  0
  187.8630  177.3470  147.3490 C   0  0  0  0  0  2  0  0  0  0  0  0
  191.5410  176.5150  146.9340 C   0  0  0  0  0  2  0  0  0  0  0  0
  191.5830  176.5430  145.4070 C   0  0  0  0  0  2  0  0  0  0  0  0
  190.8590  177.7970  144.9280 C   0  0  0  0  0  2  0  0  0  0  0  0
  189.2400  177.2770  146.7850 C   0  0  0  0  0  0  0  0  0  0  0  0
  190.1630  176.6200  147.4250 N   0  0  0  0  0  0  0  0  0  0  0  0
  189.5130  177.8340  145.4910 N   0  0  0  0  0  2  0  0  0  0  0  0
  187.8170  178.5140  141.0750 C   0  0  0  0  0  2  0  0  0  0  0  0
  190.0660  177.4520  140.1080 C   0  0  0  0  0  0  0  0  0  0  0  0
  189.0470  177.9270  140.5440 C   0  0  0  0  0  0  0  0  0  0  0  0
  191.3100  176.8880  139.5780 C   0  0  0  0  0  2  0  0  0  0  0  0
  191.0120  175.9050  138.4480 C   0  0  1  0  0  3  0  0  0  0  0  0
  189.7480  176.3110  137.6770 C   0  0  0  0  0  2  0  0  0  0  0  0
  191.0670  173.5960  136.7420 C   0  0  0  0  0  2  0  0  0  0  0  0
  189.7540  174.1760  136.1970 C   0  0  0  0  0  2  0  0  0  0  0  0
  189.6470  175.7170  136.2630 C   0  0  1  0  0  3  0  0  0  0  0  0
  192.1450  174.5290  136.6880 O   0  0  0  0  0  0  0  0  0  0  0  0
  192.1860  175.6410  137.5330 C   0  0  0  0  0  0  0  0  0  0  0  0
  193.2190  176.4720  137.4510 C   0  0  0  0  0  2  0  0  0  0  0  0
  188.4720  177.7160  135.5700 C   0  0  0  0  0  2  0  0  0  0  0  0
  187.0400  178.1620  135.7190 C   0  0  0  0  0  2  0  0  0  0  0  0
  188.4680  176.2550  135.5670 N   0  0  0  0  0  0  0  0  0  0  0  0
  186.3880  177.0530  136.5010 C   0  0  0  0  0  2  0  0  0  0  0  0
  187.2580  175.8330  136.2700 C   0  0  0  0  0  2  0  0  0  0  0  0
  1  2  1  0  0  0  0
  1 38  1  0  0  0  0
  2 20  1  0  0  0  0
  3  2  2  0  0  0  0
  4 18  1  1  0  0  0
  4  6  1  0  0  0  0
  4  5  1  0  0  0  0
  5  3  1  6  0  0  0
  6  9  1  6  0  0  0
  6  5  1  0  0  0  0
  8 13  1  0  0  0  0
  9  7  1  1  0  0  0
 10  9  1  0  0  0  0
 11 10  1  0  0  0  0
 12 11  1  0  0  0  0
 12  8  2  0  0  0  0
 13  7  1  0  0  0  0
 14 15  2  0  0  0  0
 15 12  1  0  0  0  0
 16 15  2  0  0  0  0
 17 18  2  0  0  0  0
 18 19  1  0  0  0  0
 21 20  1  6  0  0  0
 21 26  1  0  0  0  0
 21 24  1  0  0  0  0
 22 23  1  0  0  0  0
 23 27  1  1  0  0  0
 24 22  1  0  0  0  0
 25 23  1  0  0  0  0
 26 25  1  0  0  0  0
 27 28  1  0  0  0  0
 28 29  1  0  0  0  0
 29 30  1  0  0  0  0
 31 30  1  0  0  0  0
 32 36  1  0  0  0  0
 33 32  1  0  0  0  0
 34 33  1  0  0  0  0
 34 37  1  0  0  0  0
 35 31  1  0  0  0  0
 35 36  2  0  0  0  0
 37 35  1  0  0  0  0
 39 40  3  0  0  0  0
 40 38  1  0  0  0  0
 41 39  1  0  0  0  0
 42 41  1  1  0  0  0
 43 42  1  0  0  0  0
 45 46  1  0  0  0  0
 45 44  1  0  0  0  0
 46 52  1  1  0  0  0
 46 43  1  0  0  0  0
 47 44  1  0  0  0  0
 47 48  1  0  0  0  0
 48 42  1  0  0  0  0
 49 48  2  0  0  0  0
 50 51  1  0  0  0  0
 51 53  1  0  0  0  0
 52 50  1  0  0  0  0
 52 54  1  0  0  0  0
 54 53  1  0  0  0  0
M  END
>  <MODEL>
6

>  <REMARK>
 VINA RESULT:      -7.9      2.832      8.646
  Name = 
  18 active torsions:
  status: ('A' for Active; 'I' for Inactive)
    1  A    between atoms: O_1  and  C_34
    2  A    between atoms: O_1  and  C_35
    3  A    between atoms: C_6  and  C_7
    4  A    between atoms: C_7  and  C_28
    5  A    between atoms: C_10  and  C_17
    6  A    between atoms: C_10  and  O_37
    7  A    between atoms: C_13  and  C_16
    8  A    between atoms: C_14  and  C_34
    9  A    between atoms: C_14  and  O_37
   10  A    between atoms: C_18  and  C_25
   11  A    between atoms: C_19  and  O_27
   12  A    between atoms: N_20  and  C_31
   13  A    between atoms: C_23  and  O_27
   14  A    between atoms: C_23  and  N_38
   15  A    between atoms: C_24  and  N_38
   16  A    between atoms: C_25  and  C_30
   17  A    between atoms: C_32  and  C_39
   18  A    between atoms: C_46  and  N_53
                            x       y       z     vdW  Elec       q    Type
                         _______ _______ _______ _____ _____    ______ ____

>  <TORSDO>
F 18

$$$$
=
 OpenBabel10232411293D

 54 59  0  0  1  0  0  0  0  0999 V2000
  186.3920  178.6710  140.7650 C   0  0  0  0  0  2  0  0  0  0  0  0
  186.0760  178.4710  139.4850 C   0  0  0  0  0  0  0  0  0  0  0  0
  186.9290  177.6870  138.6420 N   0  0  0  0  0  0  0  0  0  0  0  0
  187.5040  177.6460  136.2770 C   0  0  1  0  0  3  0  0  0  0  0  0
  186.5280  177.1670  137.3380 C   0  0  1  0  0  3  0  0  0  0  0  0
  187.5550  176.1990  136.7450 C   0  0  2  0  0  3  0  0  0  0  0  0
  189.3750  174.5810  137.3410 C   0  0  0  0  0  2  0  0  0  0  0  0
  191.7970  175.0270  136.8800 C   0  0  0  0  0  3  0  0  0  0  0  0
  188.7980  175.9810  137.6060 C   0  0  1  0  0  3  0  0  0  0  0  0
  189.7700  177.0420  137.3370 N   0  0  0  0  0  2  0  0  0  0  0  0
  190.8750  176.8990  138.2770 C   0  0  0  0  0  2  0  0  0  0  0  0
  192.0040  176.0700  137.7070 C   0  0  0  0  0  0  0  0  0  0  0  0
  190.4780  174.6090  136.2920 C   0  0  0  0  0  2  0  0  0  0  0  0
  193.5630  177.2080  139.2040 O   0  0  0  0  0  0  0  0  0  0  0  0
  193.3360  176.3210  138.1740 N   0  0  0  0  0  0  0  0  0  0  0  0
  194.3060  175.7370  137.6510 O   0  0  0  0  0  0  0  0  0  0  0  0
  186.7460  178.8330  134.3460 O   0  0  0  0  0  0  0  0  0  0  0  0
  186.8170  177.7320  134.9530 C   0  0  0  0  0  0  0  0  0  0  0  0
  186.2860  176.5590  134.3460 N   0  0  0  0  0  1  0  0  0  0  0  0
  184.9090  179.0350  138.9610 O   0  0  0  0  0  0  0  0  0  0  0  0
  183.8900  178.2490  138.3500 C   0  0  1  0  0  3  0  0  0  0  0  0
  182.7290  177.6350  140.5110 C   0  0  0  0  0  2  0  0  0  0  0  0
  181.5330  178.5070  140.1260 C   0  0  1  0  0  3  0  0  0  0  0  0
  183.4490  177.1050  139.2690 C   0  0  0  0  0  2  0  0  0  0  0  0
  181.9860  179.6570  139.2200 C   0  0  0  0  0  2  0  0  0  0  0  0
  182.6990  179.1300  137.9740 C   0  0  0  0  0  2  0  0  0  0  0  0
  180.5550  177.7360  139.4880 O   0  0  0  0  0  0  0  0  0  0  0  0
  180.6630  176.4690  140.0610 C   0  0  0  0  0  2  0  0  0  0  0  0
  179.9830  175.4530  139.1690 C   0  0  0  0  0  2  0  0  0  0  0  0
  180.6750  175.3510  137.9640 O   0  0  0  0  0  0  0  0  0  0  0  0
  180.7500  173.9810  137.7120 C   0  0  0  0  0  2  0  0  0  0  0  0
  183.1340  172.4250  135.2050 C   0  0  0  0  0  2  0  0  0  0  0  0
  184.0790  173.6160  135.0600 C   0  0  0  0  0  2  0  0  0  0  0  0
  184.4140  174.1390  136.4520 C   0  0  0  0  0  2  0  0  0  0  0  0
  181.9890  173.6740  136.9450 C   0  0  0  0  0  0  0  0  0  0  0  0
  181.9530  172.7830  135.9970 N   0  0  0  0  0  0  0  0  0  0  0  0
  183.1820  174.4360  137.1760 N   0  0  0  0  0  2  0  0  0  0  0  0
  185.5360  179.4790  141.6780 C   0  0  0  0  0  2  0  0  0  0  0  0
  185.4470  178.3070  144.0740 C   0  0  0  0  0  0  0  0  0  0  0  0
  185.4900  178.8400  142.9930 C   0  0  0  0  0  0  0  0  0  0  0  0
  185.3830  177.6510  145.3820 C   0  0  0  0  0  2  0  0  0  0  0  0
  186.7830  177.4880  145.9670 C   0  0  1  0  0  3  0  0  0  0  0  0
  187.8610  177.6710  144.8890 C   0  0  0  0  0  2  0  0  0  0  0  0
  188.9530  176.8830  147.7480 C   0  0  0  0  0  2  0  0  0  0  0  0
  189.8120  177.0360  146.4840 C   0  0  0  0  0  2  0  0  0  0  0  0
  189.2540  178.0260  145.4350 C   0  0  1  0  0  3  0  0  0  0  0  0
  188.1400  178.0270  148.0030 O   0  0  0  0  0  0  0  0  0  0  0  0
  187.0440  178.3330  147.1940 C   0  0  0  0  0  0  0  0  0  0  0  0
  186.3110  179.4030  147.4820 C   0  0  0  0  0  2  0  0  0  0  0  0
  189.4890  178.2930  143.0420 C   0  0  0  0  0  2  0  0  0  0  0  0
  190.4260  177.6800  142.0330 C   0  0  0  0  0  2  0  0  0  0  0  0
  190.1820  178.2950  144.3270 N   0  0  0  0  0  0  0  0  0  0  0  0
  191.2660  176.7280  142.8420 C   0  0  0  0  0  2  0  0  0  0  0  0
  191.1850  177.2330  144.2700 C   0  0  0  0  0  2  0  0  0  0  0  0
  1 38  1  0  0  0  0
  2  1  1  0  0  0  0
  3  2  2  0  0  0  0
  4 18  1  6  0  0  0
  4  6  1  0  0  0  0
  4  5  1  0  0  0  0
  5  3  1  1  0  0  0
  6  5  1  0  0  0  0
  6  9  1  1  0  0  0
  8 12  2  0  0  0  0
  9  7  1  6  0  0  0
 10  9  1  0  0  0  0
 10 11  1  0  0  0  0
 12 15  1  0  0  0  0
 12 11  1  0  0  0  0
 13  8  1  0  0  0  0
 13  7  1  0  0  0  0
 15 14  2  0  0  0  0
 16 15  2  0  0  0  0
 17 18  2  0  0  0  0
 19 18  1  0  0  0  0
 20  2  1  0  0  0  0
 21 20  1  1  0  0  0
 21 24  1  0  0  0  0
 23 27  1  6  0  0  0
 23 22  1  0  0  0  0
 24 22  1  0  0  0  0
 25 23  1  0  0  0  0
 26 21  1  0  0  0  0
 26 25  1  0  0  0  0
 27 28  1  0  0  0  0
 29 28  1  0  0  0  0
 30 29  1  0  0  0  0
 31 30  1  0  0  0  0
 32 36  1  0  0  0  0
 33 32  1  0  0  0  0
 33 34  1  0  0  0  0
 34 37  1  0  0  0  0
 35 37  1  0  0  0  0
 35 31  1  0  0  0  0
 36 35  2  0  0  0  0
 38 40  1  0  0  0  0
 39 41  1  0  0  0  0
 40 39  3  0  0  0  0
 42 41  1  6  0  0  0
 42 48  1  0  0  0  0
 43 46  1  0  0  0  0
 43 42  1  0  0  0  0
 44 47  1  0  0  0  0
 45 44  1  0  0  0  0
 46 52  1  6  0  0  0
 46 45  1  0  0  0  0
 48 49  2  0  0  0  0
 48 47  1  0  0  0  0
 50 52  1  0  0  0  0
 51 53  1  0  0  0  0
 51 50  1  0  0  0  0
 53 54  1  0  0  0  0
 54 52  1  0  0  0  0
M  END
>  <MODEL>
7

>  <REMARK>
 VINA RESULT:      -7.7      3.297      8.665
  Name = 
  18 active torsions:
  status: ('A' for Active; 'I' for Inactive)
    1  A    between atoms: O_1  and  C_34
    2  A    between atoms: O_1  and  C_35
    3  A    between atoms: C_6  and  C_7
    4  A    between atoms: C_7  and  C_28
    5  A    between atoms: C_10  and  C_17
    6  A    between atoms: C_10  and  O_37
    7  A    between atoms: C_13  and  C_16
    8  A    between atoms: C_14  and  C_34
    9  A    between atoms: C_14  and  O_37
   10  A    between atoms: C_18  and  C_25
   11  A    between atoms: C_19  and  O_27
   12  A    between atoms: N_20  and  C_31
   13  A    between atoms: C_23  and  O_27
   14  A    between atoms: C_23  and  N_38
   15  A    between atoms: C_24  and  N_38
   16  A    between atoms: C_25  and  C_30
   17  A    between atoms: C_32  and  C_39
   18  A    between atoms: C_46  and  N_53
                            x       y       z     vdW  Elec       q    Type
                         _______ _______ _______ _____ _____    ______ ____

>  <TORSDO>
F 18

$$$$
=
 OpenBabel10232411293D

 54 59  0  0  1  0  0  0  0  0999 V2000
  183.6770  178.8860  143.1890 C   0  0  0  0  0  3  0  0  0  0  0  0
  183.7750  178.2090  142.0450 C   0  0  0  0  0  0  0  0  0  0  0  0
  182.6290  177.5520  141.4910 N   0  0  0  0  0  2  0  0  0  0  0  0
  181.4510  179.1090  140.0370 C   0  0  1  0  0  3  0  0  0  0  0  0
  181.3480  178.2100  141.2570 C   0  0  1  0  0  3  0  0  0  0  0  0
  180.6980  177.7910  139.9360 C   0  0  2  0  0  3  0  0  0  0  0  0
  181.0520  175.3620  139.4290 C   0  0  0  0  0  2  0  0  0  0  0  0
  180.6400  174.3700  137.1650 C   0  0  0  0  0  3  0  0  0  0  0  0
  181.5120  176.7940  139.1130 C   0  0  1  0  0  3  0  0  0  0  0  0
  181.3850  177.1170  137.6920 N   0  0  0  0  0  2  0  0  0  0  0  0
  182.2890  176.2520  136.9440 C   0  0  0  0  0  2  0  0  0  0  0  0
  181.6020  174.9950  136.4580 C   0  0  0  0  0  0  0  0  0  0  0  0
  180.0090  174.8660  138.4360 C   0  0  0  0  0  2  0  0  0  0  0  0
  182.8380  175.0860  134.3530 O   0  0  0  0  0  0  0  0  0  0  0  0
  182.0900  174.3720  135.2630 N   0  0  0  0  0  0  0  0  0  0  0  0
  181.8420  173.1700  135.0340 O   0  0  0  0  0  0  0  0  0  0  0  0
  180.0540  180.5930  141.2850 O   0  0  0  0  0  0  0  0  0  0  0  0
  180.4860  180.2430  140.1540 C   0  0  0  0  0  0  0  0  0  0  0  0
  180.0910  180.9680  138.9950 N   0  0  0  0  0  1  0  0  0  0  0  0
  185.0060  178.1350  141.3840 O   0  0  0  0  0  0  0  0  0  0  0  0
  185.5200  179.2120  140.6060 C   0  0  1  0  0  3  0  0  0  0  0  0
  187.3430  177.8590  139.4930 C   0  0  0  0  0  2  0  0  0  0  0  0
  186.6100  177.9550  138.1550 C   0  0  1  0  0  3  0  0  0  0  0  0
  187.0280  179.0630  140.3840 C   0  0  0  0  0  2  0  0  0  0  0  0
  185.1000  178.0880  138.3870 C   0  0  0  0  0  2  0  0  0  0  0  0
  184.7820  179.2950  139.2700 C   0  0  0  0  0  2  0  0  0  0  0  0
  187.0900  179.0410  137.4150 O   0  0  0  0  0  0  0  0  0  0  0  0
  188.0990  178.5130  136.6100 C   0  0  0  0  0  2  0  0  0  0  0  0
  187.4790  177.7610  135.4530 C   0  0  0  0  0  2  0  0  0  0  0  0
  187.5570  176.3900  135.6910 O   0  0  0  0  0  0  0  0  0  0  0  0
  186.3560  175.8760  135.2010 C   0  0  0  0  0  2  0  0  0  0  0  0
  184.8310  173.6150  137.8370 C   0  0  0  0  0  2  0  0  0  0  0  0
  184.6880  172.3640  136.9720 C   0  0  0  0  0  2  0  0  0  0  0  0
  185.9930  172.1510  136.2140 C   0  0  0  0  0  2  0  0  0  0  0  0
  185.9780  174.6560  135.9670 C   0  0  0  0  0  0  0  0  0  0  0  0
  185.2370  174.7700  137.0310 N   0  0  0  0  0  0  0  0  0  0  0  0
  186.3340  173.3590  135.4700 N   0  0  0  0  0  2  0  0  0  0  0  0
  184.8420  179.5850  143.8020 C   0  0  0  0  0  2  0  0  0  0  0  0
  185.8830  178.0560  145.7250 C   0  0  0  0  0  0  0  0  0  0  0  0
  185.4090  178.7480  144.8600 C   0  0  0  0  0  0  0  0  0  0  0  0
  186.4690  177.2090  146.7680 C   0  0  0  0  0  2  0  0  0  0  0  0
  187.9880  177.1620  146.6280 C   0  0  1  0  0  3  0  0  0  0  0  0
  188.4320  177.6100  145.2280 C   0  0  0  0  0  2  0  0  0  0  0  0
  190.7690  176.6410  147.1200 C   0  0  0  0  0  2  0  0  0  0  0  0
  190.9330  177.0520  145.6510 C   0  0  0  0  0  2  0  0  0  0  0  0
  189.8930  178.0780  145.1420 C   0  0  1  0  0  3  0  0  0  0  0  0
  190.0970  177.6310  147.8980 O   0  0  0  0  0  0  0  0  0  0  0  0
  188.7330  177.8850  147.7270 C   0  0  0  0  0  0  0  0  0  0  0  0
  188.1520  178.8080  148.4850 C   0  0  0  0  0  2  0  0  0  0  0  0
  189.3750  177.9230  142.7840 C   0  0  0  0  0  2  0  0  0  0  0  0
  190.2370  177.7690  141.5570 C   0  0  0  0  0  2  0  0  0  0  0  0
  190.1860  178.5940  143.7960 N   0  0  0  0  0  0  0  0  0  0  0  0
  191.6380  177.6720  142.1000 C   0  0  0  0  0  2  0  0  0  0  0  0
  191.5840  178.3220  143.4690 C   0  0  0  0  0  2  0  0  0  0  0  0
  1 38  1  0  0  0  0
  2  1  2  0  0  0  0
  3  2  1  0  0  0  0
  4 18  1  1  0  0  0
  4  5  1  0  0  0  0
  5  3  1  6  0  0  0
  6  9  1  6  0  0  0
  6  4  1  0  0  0  0
  6  5  1  0  0  0  0
  8 13  1  0  0  0  0
  9  7  1  6  0  0  0
 10  9  1  0  0  0  0
 11 10  1  0  0  0  0
 12 11  1  0  0  0  0
 12  8  2  0  0  0  0
 13  7  1  0  0  0  0
 14 15  2  0  0  0  0
 15 12  1  0  0  0  0
 16 15  2  0  0  0  0
 18 17  2  0  0  0  0
 19 18  1  0  0  0  0
 20  2  1  0  0  0  0
 21 20  1  6  0  0  0
 22 24  1  0  0  0  0
 23 27  1  1  0  0  0
 23 25  1  0  0  0  0
 23 22  1  0  0  0  0
 24 21  1  0  0  0  0
 25 26  1  0  0  0  0
 26 21  1  0  0  0  0
 28 27  1  0  0  0  0
 29 30  1  0  0  0  0
 29 28  1  0  0  0  0
 31 30  1  0  0  0  0
 31 35  1  0  0  0  0
 33 32  1  0  0  0  0
 34 33  1  0  0  0  0
 35 36  2  0  0  0  0
 36 32  1  0  0  0  0
 37 35  1  0  0  0  0
 37 34  1  0  0  0  0
 38 40  1  0  0  0  0
 39 41  1  0  0  0  0
 40 39  3  0  0  0  0
 42 41  1  1  0  0  0
 42 48  1  0  0  0  0
 43 42  1  0  0  0  0
 44 47  1  0  0  0  0
 45 44  1  0  0  0  0
 46 52  1  6  0  0  0
 46 43  1  0  0  0  0
 46 45  1  0  0  0  0
 48 47  1  0  0  0  0
 48 49  2  0  0  0  0
 50 52  1  0  0  0  0
 51 53  1  0  0  0  0
 51 50  1  0  0  0  0
 53 54  1  0  0  0  0
 54 52  1  0  0  0  0
M  END
>  <MODEL>
8

>  <REMARK>
 VINA RESULT:      -7.6      3.809      5.690
  Name = 
  18 active torsions:
  status: ('A' for Active; 'I' for Inactive)
    1  A    between atoms: O_1  and  C_34
    2  A    between atoms: O_1  and  C_35
    3  A    between atoms: C_6  and  C_7
    4  A    between atoms: C_7  and  C_28
    5  A    between atoms: C_10  and  C_17
    6  A    between atoms: C_10  and  O_37
    7  A    between atoms: C_13  and  C_16
    8  A    between atoms: C_14  and  C_34
    9  A    between atoms: C_14  and  O_37
   10  A    between atoms: C_18  and  C_25
   11  A    between atoms: C_19  and  O_27
   12  A    between atoms: N_20  and  C_31
   13  A    between atoms: C_23  and  O_27
   14  A    between atoms: C_23  and  N_38
   15  A    between atoms: C_24  and  N_38
   16  A    between atoms: C_25  and  C_30
   17  A    between atoms: C_32  and  C_39
   18  A    between atoms: C_46  and  N_53
                            x       y       z     vdW  Elec       q    Type
                         _______ _______ _______ _____ _____    ______ ____

>  <TORSDO>
F 18

$$$$
=
 OpenBabel10232411293D

 54 59  0  0  1  0  0  0  0  0999 V2000
  183.5180  179.0840  143.0950 C   0  0  0  0  0  3  0  0  0  0  0  0
  183.6980  178.3000  142.0320 C   0  0  0  0  0  0  0  0  0  0  0  0
  182.5840  177.6290  141.4300 N   0  0  0  0  0  2  0  0  0  0  0  0
  181.7230  178.6460  139.3930 C   0  0  1  0  0  3  0  0  0  0  0  0
  181.4370  178.3180  140.8480 C   0  0  1  0  0  3  0  0  0  0  0  0
  180.7660  177.5140  139.7320 C   0  0  2  0  0  3  0  0  0  0  0  0
  180.3490  175.0920  139.2390 C   0  0  0  0  0  2  0  0  0  0  0  0
  180.9710  174.0200  137.0620 C   0  0  0  0  0  3  0  0  0  0  0  0
  181.4270  176.1710  139.4270 C   0  0  1  0  0  3  0  0  0  0  0  0
  182.2860  176.3080  138.2500 N   0  0  0  0  0  2  0  0  0  0  0  0
  183.0210  175.0610  138.0730 C   0  0  0  0  0  2  0  0  0  0  0  0
  182.3130  174.1130  137.1300 C   0  0  0  0  0  0  0  0  0  0  0  0
  179.9830  174.9010  137.7730 C   0  0  0  0  0  2  0  0  0  0  0  0
  183.5600  173.5030  135.1200 O   0  0  0  0  0  0  0  0  0  0  0  0
  183.1050  173.1820  136.3800 N   0  0  0  0  0  0  0  0  0  0  0  0
  183.3930  172.0690  136.8640 O   0  0  0  0  0  0  0  0  0  0  0  0
  180.5240  180.6610  139.8540 O   0  0  0  0  0  0  0  0  0  0  0  0
  180.9560  179.8600  138.9830 C   0  0  0  0  0  0  0  0  0  0  0  0
  180.7560  180.1470  137.6030 N   0  0  0  0  0  1  0  0  0  0  0  0
  184.9820  178.1250  141.5060 O   0  0  0  0  0  0  0  0  0  0  0  0
  185.6590  179.1550  140.7930 C   0  0  1  0  0  3  0  0  0  0  0  0
  187.5150  177.6700  139.9290 C   0  0  0  0  0  2  0  0  0  0  0  0
  186.9640  177.7950  138.5070 C   0  0  1  0  0  3  0  0  0  0  0  0
  187.1710  178.9050  140.7640 C   0  0  0  0  0  2  0  0  0  0  0  0
  185.4500  178.0280  138.5450 C   0  0  0  0  0  2  0  0  0  0  0  0
  185.1040  179.2660  139.3730 C   0  0  0  0  0  2  0  0  0  0  0  0
  187.6040  178.8360  137.8280 O   0  0  0  0  0  0  0  0  0  0  0  0
  187.8540  178.3350  136.5500 C   0  0  0  0  0  2  0  0  0  0  0  0
  189.3200  177.9860  136.4230 C   0  0  0  0  0  2  0  0  0  0  0  0
  189.5290  176.6780  136.8560 O   0  0  0  0  0  0  0  0  0  0  0  0
  190.4780  176.7890  137.8730 C   0  0  0  0  0  2  0  0  0  0  0  0
  194.0440  175.5760  137.4290 C   0  0  0  0  0  2  0  0  0  0  0  0
  193.7920  174.0980  137.7210 C   0  0  0  0  0  2  0  0  0  0  0  0
  192.5610  173.6550  136.9380 C   0  0  0  0  0  2  0  0  0  0  0  0
  191.6440  175.9110  137.5760 C   0  0  0  0  0  0  0  0  0  0  0  0
  192.8500  176.3790  137.7090 N   0  0  0  0  0  0  0  0  0  0  0  0
  191.4360  174.5290  137.2550 N   0  0  0  0  0  2  0  0  0  0  0  0
  184.6450  179.8010  143.7550 C   0  0  0  0  0  2  0  0  0  0  0  0
  185.5990  178.2980  145.7420 C   0  0  0  0  0  0  0  0  0  0  0  0
  185.1710  178.9810  144.8450 C   0  0  0  0  0  0  0  0  0  0  0  0
  186.1080  177.4580  146.8290 C   0  0  0  0  0  2  0  0  0  0  0  0
  187.6200  177.2870  146.7090 C   0  0  1  0  0  3  0  0  0  0  0  0
  188.1030  177.5950  145.2850 C   0  0  0  0  0  2  0  0  0  0  0  0
  190.3500  176.5940  147.2690 C   0  0  0  0  0  2  0  0  0  0  0  0
  190.5530  176.8820  145.7740 C   0  0  0  0  0  2  0  0  0  0  0  0
  189.5970  177.9430  145.1810 C   0  0  1  0  0  3  0  0  0  0  0  0
  189.7520  177.6870  147.9640 O   0  0  0  0  0  0  0  0  0  0  0  0
  188.4130  178.0300  147.7610 C   0  0  0  0  0  0  0  0  0  0  0  0
  187.9000  179.0480  148.4430 C   0  0  0  0  0  2  0  0  0  0  0  0
  189.5980  177.2770  142.8550 C   0  0  0  0  0  2  0  0  0  0  0  0
  190.6680  177.2780  141.7930 C   0  0  0  0  0  2  0  0  0  0  0  0
  189.9350  178.3340  143.8040 N   0  0  0  0  0  0  0  0  0  0  0  0
  191.8950  177.7780  142.5070 C   0  0  0  0  0  2  0  0  0  0  0  0
  191.3770  178.5510  143.7040 C   0  0  0  0  0  2  0  0  0  0  0  0
  1 38  1  0  0  0  0
  2  1  2  0  0  0  0
  3  2  1  0  0  0  0
  4 18  1  6  0  0  0
  4  6  1  0  0  0  0
  4  5  1  0  0  0  0
  5  3  1  1  0  0  0
  6  9  1  1  0  0  0
  6  5  1  0  0  0  0
  8 12  2  0  0  0  0
  8 13  1  0  0  0  0
  9  7  1  6  0  0  0
 10  9  1  0  0  0  0
 11 10  1  0  0  0  0
 12 11  1  0  0  0  0
 13  7  1  0  0  0  0
 14 15  2  0  0  0  0
 15 16  2  0  0  0  0
 15 12  1  0  0  0  0
 18 17  2  0  0  0  0
 19 18  1  0  0  0  0
 20  2  1  0  0  0  0
 21 20  1  6  0  0  0
 22 24  1  0  0  0  0
 23 27  1  1  0  0  0
 23 25  1  0  0  0  0
 23 22  1  0  0  0  0
 24 21  1  0  0  0  0
 25 26  1  0  0  0  0
 26 21  1  0  0  0  0
 28 27  1  0  0  0  0
 29 28  1  0  0  0  0
 29 30  1  0  0  0  0
 30 31  1  0  0  0  0
 32 36  1  0  0  0  0
 32 33  1  0  0  0  0
 34 37  1  0  0  0  0
 34 33  1  0  0  0  0
 35 36  2  0  0  0  0
 35 31  1  0  0  0  0
 37 35  1  0  0  0  0
 38 40  1  0  0  0  0
 39 41  1  0  0  0  0
 40 39  3  0  0  0  0
 42 41  1  6  0  0  0
 42 48  1  0  0  0  0
 43 42  1  0  0  0  0
 44 47  1  0  0  0  0
 45 44  1  0  0  0  0
 46 52  1  6  0  0  0
 46 43  1  0  0  0  0
 46 45  1  0  0  0  0
 48 47  1  0  0  0  0
 48 49  2  0  0  0  0
 50 52  1  0  0  0  0
 51 53  1  0  0  0  0
 51 50  1  0  0  0  0
 53 54  1  0  0  0  0
 54 52  1  0  0  0  0
M  END
>  <MODEL>
9

>  <REMARK>
 VINA RESULT:      -7.6      2.558      4.647
  Name = 
  18 active torsions:
  status: ('A' for Active; 'I' for Inactive)
    1  A    between atoms: O_1  and  C_34
    2  A    between atoms: O_1  and  C_35
    3  A    between atoms: C_6  and  C_7
    4  A    between atoms: C_7  and  C_28
    5  A    between atoms: C_10  and  C_17
    6  A    between atoms: C_10  and  O_37
    7  A    between atoms: C_13  and  C_16
    8  A    between atoms: C_14  and  C_34
    9  A    between atoms: C_14  and  O_37
   10  A    between atoms: C_18  and  C_25
   11  A    between atoms: C_19  and  O_27
   12  A    between atoms: N_20  and  C_31
   13  A    between atoms: C_23  and  O_27
   14  A    between atoms: C_23  and  N_38
   15  A    between atoms: C_24  and  N_38
   16  A    between atoms: C_25  and  C_30
   17  A    between atoms: C_32  and  C_39
   18  A    between atoms: C_46  and  N_53
                            x       y       z     vdW  Elec       q    Type
                         _______ _______ _______ _____ _____    ______ ____

>  <TORSDO>
F 18

$$$$
