=
 OpenBabel10222422093D

 29 32  0  0  1  0  0  0  0  0999 V2000
  186.9430  177.8240  145.7360 C   0  0  0  0  0  0  0  0  0  0  0  0
  183.8970  179.2760  142.6680 O   0  0  0  0  0  1  0  0  0  0  0  0
  184.8800  178.6140  145.7070 C   0  0  0  0  0  0  0  0  0  0  0  0
  189.2910  177.2550  146.1860 C   0  0  0  0  0  3  0  0  0  0  0  0
  190.8040  177.7640  144.3280 C   0  0  0  0  0  3  0  0  0  0  0  0
  183.6480  179.2120  145.3240 N   0  0  0  0  0  1  0  0  0  0  0  0
  188.1630  177.5140  145.2770 C   0  0  0  0  0  0  0  0  0  0  0  0
  188.4170  177.4240  143.7770 C   0  0  2  0  0  3  0  0  0  0  0  0
  189.8160  177.8560  143.4300 C   0  0  0  0  0  3  0  0  0  0  0  0
  185.7930  178.8940  141.1660 C   0  0  0  0  0  0  0  0  0  0  0  0
  186.4550  177.9500  147.1040 C   0  0  0  0  0  3  0  0  0  0  0  0
  187.3670  178.3100  141.2700 S   0  0  0  0  0  0  0  0  0  0  0  0
  186.0910  178.4430  143.4350 C   0  0  0  0  0  0  0  0  0  0  0  0
  185.2400  178.4050  147.0760 N   0  0  0  0  0  0  0  0  0  0  0  0
  190.5450  177.3370  145.7280 C   0  0  0  0  0  0  0  0  0  0  0  0
  185.2110  178.8960  142.4350 C   0  0  0  0  0  0  0  0  0  0  0  0
  187.3500  178.0990  142.9400 C   0  0  0  0  0  0  0  0  0  0  0  0
  185.8670  178.2810  144.8850 C   0  0  0  0  0  0  0  0  0  0  0  0
  185.1700  179.2700  139.9330 N   0  0  0  0  0  2  0  0  0  0  0  0
  184.7720  178.3260  138.8980 C   0  0  1  0  0  3  0  0  0  0  0  0
  182.7510  179.5870  139.2530 O   0  0  0  0  0  1  0  0  0  0  0  0
  183.2960  178.5100  138.5480 C   0  0  0  0  0  2  0  0  0  0  0  0
  185.6540  178.5120  137.6740 C   0  0  0  0  0  2  0  0  0  0  0  0
  186.7000  177.4470  137.6180 C   0  0  0  0  0  3  0  0  0  0  0  0
  188.0000  177.7270  137.6000 C   0  0  0  0  0  3  0  0  0  0  0  0
  188.4750  179.0700  137.6330 N   0  0  0  0  0  1  0  0  0  0  0  0
  191.6260  177.0920  146.6290 N   0  0  0  0  0  2  0  0  0  0  0  0
  192.1290  175.7560  146.9050 C   0  0  0  0  0  2  0  0  0  0  0  0
  192.7650  175.7300  148.2790 C   0  0  0  0  0  1  0  0  0  0  0  0
  1 11  1  0  0  0  0
  3 14  1  0  0  0  0
  5 15  1  0  0  0  0
  6  3  1  0  0  0  0
  7  1  2  0  0  0  0
  7  4  1  0  0  0  0
  8  9  1  1  0  0  0
  8  7  1  0  0  0  0
  9  5  2  0  0  0  0
 10 12  1  0  0  0  0
 10 16  2  0  0  0  0
 12 17  1  0  0  0  0
 13 18  1  0  0  0  0
 14 11  2  0  0  0  0
 15  4  2  0  0  0  0
 15 27  1  0  0  0  0
 16  2  1  0  0  0  0
 16 13  1  0  0  0  0
 17 13  2  0  0  0  0
 17  8  1  0  0  0  0
 18  3  2  0  0  0  0
 18  1  1  0  0  0  0
 19 10  1  0  0  0  0
 20 23  1  6  0  0  0
 20 19  1  0  0  0  0
 22 20  1  0  0  0  0
 22 21  1  0  0  0  0
 24 23  1  0  0  0  0
 25 24  2  0  0  0  0
 25 26  1  0  0  0  0
 27 28  1  0  0  0  0
 28 29  1  0  0  0  0
M  END
>  <MODEL>
1

>  <REMARK>
 VINA RESULT:      -9.2      0.000      0.000
  Name = 
  7 active torsions:
  status: ('A' for Active; 'I' for Inactive)
    1  A    between atoms: C_1  and  C_15
    2  A    between atoms: N_5  and  C_17
    3  A    between atoms: N_5  and  CA_23
    4  A    between atoms: C_9  and  N_13
    5  A    between atoms: N_13  and  C_25
    6  A    between atoms: C_15  and  CA_23
    7  A    between atoms: CA_23  and  C_27
                            x       y       z     vdW  Elec       q    Type
                         _______ _______ _______ _____ _____    ______ ____

>  <TORSDO>
F 7

$$$$
=
 OpenBabel10222422093D

 29 32  0  0  1  0  0  0  0  0999 V2000
  186.9230  177.8380  145.6600 C   0  0  0  0  0  0  0  0  0  0  0  0
  183.7310  179.3490  142.7750 O   0  0  0  0  0  1  0  0  0  0  0  0
  184.8560  178.6130  145.7460 C   0  0  0  0  0  0  0  0  0  0  0  0
  189.2920  177.2750  145.9870 C   0  0  0  0  0  3  0  0  0  0  0  0
  190.7150  177.8450  144.0770 C   0  0  0  0  0  3  0  0  0  0  0  0
  183.6030  179.2120  145.4360 N   0  0  0  0  0  1  0  0  0  0  0  0
  188.1220  177.5490  145.1380 C   0  0  0  0  0  0  0  0  0  0  0  0
  188.3080  177.5020  143.6250 C   0  0  2  0  0  3  0  0  0  0  0  0
  189.6870  177.9540  143.2270 C   0  0  0  0  0  3  0  0  0  0  0  0
  185.5580  179.0220  141.1770 C   0  0  0  0  0  0  0  0  0  0  0  0
  186.4970  177.9240  147.0510 C   0  0  0  0  0  3  0  0  0  0  0  0
  187.1390  178.4470  141.1940 S   0  0  0  0  0  0  0  0  0  0  0  0
  185.9630  178.5130  143.4170 C   0  0  0  0  0  0  0  0  0  0  0  0
  185.2790  178.3700  147.0910 N   0  0  0  0  0  0  0  0  0  0  0  0
  190.5240  177.3780  145.4740 C   0  0  0  0  0  0  0  0  0  0  0  0
  185.0350  178.9850  142.4710 C   0  0  0  0  0  0  0  0  0  0  0  0
  187.2000  178.1920  142.8560 C   0  0  0  0  0  0  0  0  0  0  0  0
  185.8060  178.3090  144.8720 C   0  0  0  0  0  0  0  0  0  0  0  0
  184.8770  179.4270  139.9850 N   0  0  0  0  0  2  0  0  0  0  0  0
  184.2650  178.5020  139.0410 C   0  0  1  0  0  3  0  0  0  0  0  0
  186.2530  178.8490  137.7250 O   0  0  0  0  0  1  0  0  0  0  0  0
  185.3310  177.8830  138.1370 C   0  0  0  0  0  2  0  0  0  0  0  0
  183.5000  177.4300  139.8000 C   0  0  0  0  0  2  0  0  0  0  0  0
  182.0920  177.8680  140.0410 C   0  0  0  0  0  3  0  0  0  0  0  0
  181.0650  177.0250  139.9810 C   0  0  0  0  0  3  0  0  0  0  0  0
  181.2490  175.6440  139.6820 N   0  0  0  0  0  1  0  0  0  0  0  0
  191.6460  177.1170  146.3180 N   0  0  0  0  0  2  0  0  0  0  0  0
  192.0690  175.7700  146.6660 C   0  0  0  0  0  2  0  0  0  0  0  0
  192.6240  175.7630  148.0740 C   0  0  0  0  0  1  0  0  0  0  0  0
  1 11  1  0  0  0  0
  3 14  1  0  0  0  0
  5 15  1  0  0  0  0
  6  3  1  0  0  0  0
  7  1  2  0  0  0  0
  7  4  1  0  0  0  0
  8  9  1  1  0  0  0
  8  7  1  0  0  0  0
  9  5  2  0  0  0  0
 10 12  1  0  0  0  0
 10 16  2  0  0  0  0
 11 14  2  0  0  0  0
 12 17  1  0  0  0  0
 13 18  1  0  0  0  0
 15  4  2  0  0  0  0
 15 27  1  0  0  0  0
 16  2  1  0  0  0  0
 16 13  1  0  0  0  0
 17 13  2  0  0  0  0
 17  8  1  0  0  0  0
 18  1  1  0  0  0  0
 18  3  2  0  0  0  0
 19 10  1  0  0  0  0
 20 22  1  1  0  0  0
 20 23  1  0  0  0  0
 20 19  1  0  0  0  0
 21 22  1  0  0  0  0
 23 24  1  0  0  0  0
 25 24  2  0  0  0  0
 26 25  1  0  0  0  0
 27 28  1  0  0  0  0
 28 29  1  0  0  0  0
M  END
>  <MODEL>
2

>  <REMARK>
 VINA RESULT:      -9.1      1.460      2.499
  Name = 
  7 active torsions:
  status: ('A' for Active; 'I' for Inactive)
    1  A    between atoms: C_1  and  C_15
    2  A    between atoms: N_5  and  C_17
    3  A    between atoms: N_5  and  CA_23
    4  A    between atoms: C_9  and  N_13
    5  A    between atoms: N_13  and  C_25
    6  A    between atoms: C_15  and  CA_23
    7  A    between atoms: CA_23  and  C_27
                            x       y       z     vdW  Elec       q    Type
                         _______ _______ _______ _____ _____    ______ ____

>  <TORSDO>
F 7

$$$$
=
 OpenBabel10222422093D

 29 32  0  0  1  0  0  0  0  0999 V2000
  186.9430  177.8740  145.5210 C   0  0  0  0  0  0  0  0  0  0  0  0
  184.8690  179.2180  141.6890 O   0  0  0  0  0  1  0  0  0  0  0  0
  185.0650  178.8750  144.9270 C   0  0  0  0  0  0  0  0  0  0  0  0
  189.0350  177.1170  146.5660 C   0  0  0  0  0  3  0  0  0  0  0  0
  190.9710  177.1960  145.0680 C   0  0  0  0  0  3  0  0  0  0  0  0
  184.0410  179.5470  144.2040 N   0  0  0  0  0  1  0  0  0  0  0  0
  188.1780  177.3710  145.3960 C   0  0  0  0  0  0  0  0  0  0  0  0
  188.7380  177.0490  144.0150 C   0  0  2  0  0  3  0  0  0  0  0  0
  190.2250  177.2730  143.9590 C   0  0  0  0  0  3  0  0  0  0  0  0
  186.9740  178.4270  140.7200 C   0  0  0  0  0  0  0  0  0  0  0  0
  186.1910  178.2400  146.7150 C   0  0  0  0  0  3  0  0  0  0  0  0
  188.3920  177.6920  141.2510 S   0  0  0  0  0  0  0  0  0  0  0  0
  186.7070  178.2610  143.0310 C   0  0  0  0  0  0  0  0  0  0  0  0
  185.0870  178.8180  146.3560 N   0  0  0  0  0  0  0  0  0  0  0  0
  190.3580  176.9960  146.4060 C   0  0  0  0  0  0  0  0  0  0  0  0
  186.1360  178.6670  141.8110 C   0  0  0  0  0  0  0  0  0  0  0  0
  187.9830  177.7160  142.8840 C   0  0  0  0  0  0  0  0  0  0  0  0
  186.1520  178.3250  144.3980 C   0  0  0  0  0  0  0  0  0  0  0  0
  186.6920  178.6960  139.3430 N   0  0  0  0  0  2  0  0  0  0  0  0
  187.2030  177.9010  138.2340 C   0  0  1  0  0  3  0  0  0  0  0  0
  185.8220  176.2940  137.0900 O   0  0  0  0  0  1  0  0  0  0  0  0
  186.1020  177.6580  137.2040 C   0  0  0  0  0  2  0  0  0  0  0  0
  188.3940  178.6080  137.6080 C   0  0  0  0  0  2  0  0  0  0  0  0
  189.0270  177.7410  136.5680 C   0  0  0  0  0  3  0  0  0  0  0  0
  190.0410  176.9260  136.8430 C   0  0  0  0  0  3  0  0  0  0  0  0
  190.5890  176.8310  138.1550 N   0  0  0  0  0  1  0  0  0  0  0  0
  191.1720  176.7590  147.5560 N   0  0  0  0  0  2  0  0  0  0  0  0
  192.2460  175.7790  147.5670 C   0  0  0  0  0  2  0  0  0  0  0  0
  193.0380  175.9130  148.8500 C   0  0  0  0  0  1  0  0  0  0  0  0
  1 11  1  0  0  0  0
  2 16  1  0  0  0  0
  3 14  1  0  0  0  0
  5 15  1  0  0  0  0
  6  3  1  0  0  0  0
  7  1  2  0  0  0  0
  7  4  1  0  0  0  0
  8  9  1  1  0  0  0
  8  7  1  0  0  0  0
  9  5  2  0  0  0  0
 10 12  1  0  0  0  0
 10 16  2  0  0  0  0
 12 17  1  0  0  0  0
 13 18  1  0  0  0  0
 14 11  2  0  0  0  0
 15  4  2  0  0  0  0
 15 27  1  0  0  0  0
 16 13  1  0  0  0  0
 17 13  2  0  0  0  0
 17  8  1  0  0  0  0
 18  3  2  0  0  0  0
 18  1  1  0  0  0  0
 19 10  1  0  0  0  0
 20 22  1  6  0  0  0
 20 19  1  0  0  0  0
 21 22  1  0  0  0  0
 23 20  1  0  0  0  0
 24 25  2  0  0  0  0
 24 23  1  0  0  0  0
 25 26  1  0  0  0  0
 27 28  1  0  0  0  0
 28 29  1  0  0  0  0
M  END
>  <MODEL>
3

>  <REMARK>
 VINA RESULT:      -8.6      1.468      1.764
  Name = 
  7 active torsions:
  status: ('A' for Active; 'I' for Inactive)
    1  A    between atoms: C_1  and  C_15
    2  A    between atoms: N_5  and  C_17
    3  A    between atoms: N_5  and  CA_23
    4  A    between atoms: C_9  and  N_13
    5  A    between atoms: N_13  and  C_25
    6  A    between atoms: C_15  and  CA_23
    7  A    between atoms: CA_23  and  C_27
                            x       y       z     vdW  Elec       q    Type
                         _______ _______ _______ _____ _____    ______ ____

>  <TORSDO>
F 7

$$$$
=
 OpenBabel10222422093D

 29 32  0  0  1  0  0  0  0  0999 V2000
  186.7140  177.9100  145.3770 C   0  0  0  0  0  0  0  0  0  0  0  0
  183.4510  179.3440  142.5330 O   0  0  0  0  0  1  0  0  0  0  0  0
  184.6330  178.6430  145.4900 C   0  0  0  0  0  0  0  0  0  0  0  0
  189.0990  177.3950  145.6720 C   0  0  0  0  0  3  0  0  0  0  0  0
  190.4830  177.9860  143.7380 C   0  0  0  0  0  3  0  0  0  0  0  0
  183.3650  179.2150  145.1960 N   0  0  0  0  0  1  0  0  0  0  0  0
  187.9120  177.6430  144.8380 C   0  0  0  0  0  0  0  0  0  0  0  0
  188.0770  177.5930  143.3240 C   0  0  2  0  0  3  0  0  0  0  0  0
  189.4400  178.0710  142.9040 C   0  0  0  0  0  3  0  0  0  0  0  0
  185.2610  179.0470  140.9100 C   0  0  0  0  0  0  0  0  0  0  0  0
  186.3070  177.9920  146.7740 C   0  0  0  0  0  3  0  0  0  0  0  0
  186.8530  178.5040  140.9050 S   0  0  0  0  0  0  0  0  0  0  0  0
  185.7090  178.5550  143.1460 C   0  0  0  0  0  0  0  0  0  0  0  0
  185.0810  178.4140  146.8300 N   0  0  0  0  0  0  0  0  0  0  0  0
  190.3210  177.5210  145.1410 C   0  0  0  0  0  0  0  0  0  0  0  0
  184.7580  179.0050  142.2110 C   0  0  0  0  0  0  0  0  0  0  0  0
  186.9440  178.2570  142.5680 C   0  0  0  0  0  0  0  0  0  0  0  0
  185.5770  178.3550  144.6030 C   0  0  0  0  0  0  0  0  0  0  0  0
  184.5550  179.4320  139.7260 N   0  0  0  0  0  2  0  0  0  0  0  0
  183.6840  178.5430  138.9690 C   0  0  1  0  0  3  0  0  0  0  0  0
  182.2760  177.0040  140.1730 O   0  0  0  0  0  1  0  0  0  0  0  0
  183.5660  177.1910  139.6700 C   0  0  0  0  0  2  0  0  0  0  0  0
  182.3210  179.1930  138.7960 C   0  0  0  0  0  2  0  0  0  0  0  0
  182.4400  180.6810  138.8650 C   0  0  0  0  0  3  0  0  0  0  0  0
  181.6490  181.4910  138.1680 C   0  0  0  0  0  3  0  0  0  0  0  0
  180.6320  180.9830  137.3080 N   0  0  0  0  0  1  0  0  0  0  0  0
  191.4610  177.2870  145.9690 N   0  0  0  0  0  2  0  0  0  0  0  0
  191.3590  176.6920  147.2920 C   0  0  0  0  0  2  0  0  0  0  0  0
  192.3240  175.5310  147.3990 C   0  0  0  0  0  1  0  0  0  0  0  0
  1 11  1  0  0  0  0
  3 14  1  0  0  0  0
  5 15  1  0  0  0  0
  6  3  1  0  0  0  0
  7  1  2  0  0  0  0
  7  4  1  0  0  0  0
  8  9  1  1  0  0  0
  8  7  1  0  0  0  0
  9  5  2  0  0  0  0
 10 16  2  0  0  0  0
 11 14  2  0  0  0  0
 12 10  1  0  0  0  0
 12 17  1  0  0  0  0
 13 18  1  0  0  0  0
 15  4  2  0  0  0  0
 15 27  1  0  0  0  0
 16  2  1  0  0  0  0
 16 13  1  0  0  0  0
 17 13  2  0  0  0  0
 17  8  1  0  0  0  0
 18  1  1  0  0  0  0
 18  3  2  0  0  0  0
 19 10  1  0  0  0  0
 20 23  1  1  0  0  0
 20 22  1  0  0  0  0
 20 19  1  0  0  0  0
 22 21  1  0  0  0  0
 23 24  1  0  0  0  0
 25 24  2  0  0  0  0
 26 25  1  0  0  0  0
 27 28  1  0  0  0  0
 28 29  1  0  0  0  0
M  END
>  <MODEL>
4

>  <REMARK>
 VINA RESULT:      -8.5      1.601      2.517
  Name = 
  7 active torsions:
  status: ('A' for Active; 'I' for Inactive)
    1  A    between atoms: C_1  and  C_15
    2  A    between atoms: N_5  and  C_17
    3  A    between atoms: N_5  and  CA_23
    4  A    between atoms: C_9  and  N_13
    5  A    between atoms: N_13  and  C_25
    6  A    between atoms: C_15  and  CA_23
    7  A    between atoms: CA_23  and  C_27
                            x       y       z     vdW  Elec       q    Type
                         _______ _______ _______ _____ _____    ______ ____

>  <TORSDO>
F 7

$$$$
=
 OpenBabel10222422093D

 29 32  0  0  1  0  0  0  0  0999 V2000
  187.0060  177.8630  143.4330 C   0  0  0  0  0  0  0  0  0  0  0  0
  187.2760  178.6320  138.9460 O   0  0  0  0  0  1  0  0  0  0  0  0
  185.7780  178.7780  141.8400 C   0  0  0  0  0  0  0  0  0  0  0  0
  188.2100  177.2560  145.4870 C   0  0  0  0  0  3  0  0  0  0  0  0
  190.6360  177.0930  145.1980 C   0  0  0  0  0  3  0  0  0  0  0  0
  185.3200  179.3410  140.6160 N   0  0  0  0  0  1  0  0  0  0  0  0
  188.0870  177.3370  144.0230 C   0  0  0  0  0  0  0  0  0  0  0  0
  189.2390  176.8070  143.1770 C   0  0  2  0  0  3  0  0  0  0  0  0
  190.5630  177.0080  143.8640 C   0  0  0  0  0  3  0  0  0  0  0  0
  189.5070  177.6870  139.3010 C   0  0  0  0  0  0  0  0  0  0  0  0
  185.7870  178.4100  144.0150 C   0  0  0  0  0  3  0  0  0  0  0  0
  190.3940  177.0300  140.5710 S   0  0  0  0  0  0  0  0  0  0  0  0
  188.0950  177.8740  141.1480 C   0  0  0  0  0  0  0  0  0  0  0  0
  185.0690  178.9360  143.0720 N   0  0  0  0  0  0  0  0  0  0  0  0
  189.4160  177.1010  146.0450 C   0  0  0  0  0  0  0  0  0  0  0  0
  188.2560  178.0950  139.7680 C   0  0  0  0  0  0  0  0  0  0  0  0
  189.2190  177.3020  141.7460 C   0  0  0  0  0  0  0  0  0  0  0  0
  186.9320  178.1470  142.0170 C   0  0  0  0  0  0  0  0  0  0  0  0
  189.9850  177.7490  137.9540 N   0  0  0  0  0  2  0  0  0  0  0  0
  190.1120  176.5910  137.0790 C   0  0  1  0  0  3  0  0  0  0  0  0
  191.2030  174.6530  138.0030 O   0  0  0  0  0  1  0  0  0  0  0  0
  191.4300  175.8650  137.3480 C   0  0  0  0  0  2  0  0  0  0  0  0
  188.9240  175.6660  137.2830 C   0  0  0  0  0  2  0  0  0  0  0  0
  187.7620  176.1220  136.4620 C   0  0  0  0  0  3  0  0  0  0  0  0
  186.6030  175.4690  136.4450 C   0  0  0  0  0  3  0  0  0  0  0  0
  186.4010  174.2860  137.2150 N   0  0  0  0  0  1  0  0  0  0  0  0
  189.5140  177.0340  147.4690 N   0  0  0  0  0  2  0  0  0  0  0  0
  189.2330  178.1730  148.3280 C   0  0  0  0  0  2  0  0  0  0  0  0
  187.8500  178.0260  148.9240 C   0  0  0  0  0  1  0  0  0  0  0  0
  1 11  1  0  0  0  0
  1  7  2  0  0  0  0
  2 16  1  0  0  0  0
  3 18  2  0  0  0  0
  3 14  1  0  0  0  0
  4 15  2  0  0  0  0
  5 15  1  0  0  0  0
  6  3  1  0  0  0  0
  7  4  1  0  0  0  0
  8  9  1  1  0  0  0
  8  7  1  0  0  0  0
  9  5  2  0  0  0  0
 10 16  2  0  0  0  0
 10 12  1  0  0  0  0
 12 17  1  0  0  0  0
 13 17  2  0  0  0  0
 13 18  1  0  0  0  0
 14 11  2  0  0  0  0
 15 27  1  0  0  0  0
 16 13  1  0  0  0  0
 17  8  1  0  0  0  0
 18  1  1  0  0  0  0
 19 10  1  0  0  0  0
 20 23  1  1  0  0  0
 20 22  1  0  0  0  0
 20 19  1  0  0  0  0
 22 21  1  0  0  0  0
 24 23  1  0  0  0  0
 25 24  2  0  0  0  0
 25 26  1  0  0  0  0
 27 28  1  0  0  0  0
 28 29  1  0  0  0  0
M  END
>  <MODEL>
5

>  <REMARK>
 VINA RESULT:      -8.4      2.893      4.255
  Name = 
  7 active torsions:
  status: ('A' for Active; 'I' for Inactive)
    1  A    between atoms: C_1  and  C_15
    2  A    between atoms: N_5  and  C_17
    3  A    between atoms: N_5  and  CA_23
    4  A    between atoms: C_9  and  N_13
    5  A    between atoms: N_13  and  C_25
    6  A    between atoms: C_15  and  CA_23
    7  A    between atoms: CA_23  and  C_27
                            x       y       z     vdW  Elec       q    Type
                         _______ _______ _______ _____ _____    ______ ____

>  <TORSDO>
F 7

$$$$
=
 OpenBabel10222422093D

 29 32  0  0  1  0  0  0  0  0999 V2000
  186.8610  178.1030  145.4880 C   0  0  0  0  0  0  0  0  0  0  0  0
  190.8130  176.4080  143.9690 O   0  0  0  0  0  1  0  0  0  0  0  0
  188.7130  177.2360  146.3240 C   0  0  0  0  0  0  0  0  0  0  0  0
  184.5660  178.7800  144.9260 C   0  0  0  0  0  3  0  0  0  0  0  0
  183.9170  178.2510  142.6240 C   0  0  0  0  0  3  0  0  0  0  0  0
  189.9610  176.5750  146.4920 N   0  0  0  0  0  1  0  0  0  0  0  0
  185.9520  178.4400  144.5640 C   0  0  0  0  0  0  0  0  0  0  0  0
  186.3360  178.4760  143.0890 C   0  0  2  0  0  3  0  0  0  0  0  0
  185.1790  178.0830  142.2100 C   0  0  0  0  0  3  0  0  0  0  0  0
  189.7160  176.7980  141.8140 C   0  0  0  0  0  0  0  0  0  0  0  0
  186.7430  178.0170  146.9380 C   0  0  0  0  0  3  0  0  0  0  0  0
  188.2690  177.4460  141.2510 S   0  0  0  0  0  0  0  0  0  0  0  0
  188.5430  177.3560  143.7510 C   0  0  0  0  0  0  0  0  0  0  0  0
  187.8380  177.5150  147.4200 N   0  0  0  0  0  0  0  0  0  0  0  0
  183.6050  178.7270  143.9960 C   0  0  0  0  0  0  0  0  0  0  0  0
  189.7290  176.8280  143.2090 C   0  0  0  0  0  0  0  0  0  0  0  0
  187.6150  177.7260  142.7770 C   0  0  0  0  0  0  0  0  0  0  0  0
  188.1650  177.5710  145.1620 C   0  0  0  0  0  0  0  0  0  0  0  0
  190.7670  176.3470  140.9530 N   0  0  0  0  0  2  0  0  0  0  0  0
  191.4060  177.1770  139.9400 C   0  0  1  0  0  3  0  0  0  0  0  0
  193.7860  177.2380  139.5750 O   0  0  0  0  0  1  0  0  0  0  0  0
  192.7680  177.6620  140.4330 C   0  0  0  0  0  2  0  0  0  0  0  0
  191.5380  176.3890  138.6470 C   0  0  0  0  0  2  0  0  0  0  0  0
  190.2530  176.4190  137.8850 C   0  0  0  0  0  3  0  0  0  0  0  0
  189.7030  175.3200  137.3760 C   0  0  0  0  0  3  0  0  0  0  0  0
  190.3120  174.0410  137.5280 N   0  0  0  0  0  1  0  0  0  0  0  0
  182.2650  179.0510  144.3710 N   0  0  0  0  0  2  0  0  0  0  0  0
  181.1640  179.0490  143.4210 C   0  0  0  0  0  2  0  0  0  0  0  0
  179.9830  178.3160  144.0190 C   0  0  0  0  0  1  0  0  0  0  0  0
  1 11  1  0  0  0  0
  3  6  1  0  0  0  0
  3 14  1  0  0  0  0
  5 15  1  0  0  0  0
  7  4  1  0  0  0  0
  7  1  2  0  0  0  0
  8  9  1  6  0  0  0
  8  7  1  0  0  0  0
  9  5  2  0  0  0  0
 10 16  2  0  0  0  0
 11 14  2  0  0  0  0
 12 10  1  0  0  0  0
 12 17  1  0  0  0  0
 13 18  1  0  0  0  0
 15 27  1  0  0  0  0
 15  4  2  0  0  0  0
 16 13  1  0  0  0  0
 16  2  1  0  0  0  0
 17  8  1  0  0  0  0
 17 13  2  0  0  0  0
 18  1  1  0  0  0  0
 18  3  2  0  0  0  0
 19 10  1  0  0  0  0
 20 23  1  6  0  0  0
 20 22  1  0  0  0  0
 20 19  1  0  0  0  0
 21 22  1  0  0  0  0
 24 23  1  0  0  0  0
 25 26  1  0  0  0  0
 25 24  2  0  0  0  0
 28 29  1  0  0  0  0
 28 27  1  0  0  0  0
M  END
>  <MODEL>
6

>  <REMARK>
 VINA RESULT:      -8.3      3.519      6.390
  Name = 
  7 active torsions:
  status: ('A' for Active; 'I' for Inactive)
    1  A    between atoms: C_1  and  C_15
    2  A    between atoms: N_5  and  C_17
    3  A    between atoms: N_5  and  CA_23
    4  A    between atoms: C_9  and  N_13
    5  A    between atoms: N_13  and  C_25
    6  A    between atoms: C_15  and  CA_23
    7  A    between atoms: CA_23  and  C_27
                            x       y       z     vdW  Elec       q    Type
                         _______ _______ _______ _____ _____    ______ ____

>  <TORSDO>
F 7

$$$$
=
 OpenBabel10222422093D

 29 32  0  0  1  0  0  0  0  0999 V2000
  187.1920  177.7950  143.6730 C   0  0  0  0  0  0  0  0  0  0  0  0
  187.3230  178.4570  139.1630 O   0  0  0  0  0  1  0  0  0  0  0  0
  185.8890  178.6140  142.0890 C   0  0  0  0  0  0  0  0  0  0  0  0
  188.4700  177.2930  145.7120 C   0  0  0  0  0  3  0  0  0  0  0  0
  190.8940  177.2270  145.3670 C   0  0  0  0  0  3  0  0  0  0  0  0
  185.3780  179.1260  140.8630 N   0  0  0  0  0  1  0  0  0  0  0  0
  188.3090  177.3320  144.2490 C   0  0  0  0  0  0  0  0  0  0  0  0
  189.4630  176.8290  143.3890 C   0  0  2  0  0  3  0  0  0  0  0  0
  190.7930  177.1050  144.0380 C   0  0  0  0  0  3  0  0  0  0  0  0
  189.6010  177.6190  139.4870 C   0  0  0  0  0  0  0  0  0  0  0  0
  185.9650  178.3050  144.2720 C   0  0  0  0  0  3  0  0  0  0  0  0
  190.5450  177.0340  140.7510 S   0  0  0  0  0  0  0  0  0  0  0  0
  188.2260  177.7930  141.3630 C   0  0  0  0  0  0  0  0  0  0  0  0
  185.2030  178.7740  143.3330 N   0  0  0  0  0  0  0  0  0  0  0  0
  189.6940  177.2060  146.2440 C   0  0  0  0  0  0  0  0  0  0  0  0
  188.3450  177.9850  139.9740 C   0  0  0  0  0  0  0  0  0  0  0  0
  189.3880  177.2860  141.9470 C   0  0  0  0  0  0  0  0  0  0  0  0
  187.0730  178.0380  142.2530 C   0  0  0  0  0  0  0  0  0  0  0  0
  190.0430  177.6650  138.1270 N   0  0  0  0  0  2  0  0  0  0  0  0
  189.8110  176.6050  137.1560 C   0  0  1  0  0  3  0  0  0  0  0  0
  188.6030  178.4520  136.1910 O   0  0  0  0  0  1  0  0  0  0  0  0
  188.8500  177.0820  136.0680 C   0  0  0  0  0  2  0  0  0  0  0  0
  191.1370  176.1610  136.5600 C   0  0  0  0  0  2  0  0  0  0  0  0
  191.9270  175.3900  137.5670 C   0  0  0  0  0  3  0  0  0  0  0  0
  193.2310  175.5810  137.7450 C   0  0  0  0  0  3  0  0  0  0  0  0
  193.9570  176.5410  136.9810 N   0  0  0  0  0  1  0  0  0  0  0  0
  189.8290  177.1800  147.6660 N   0  0  0  0  0  2  0  0  0  0  0  0
  189.3280  178.2450  148.5190 C   0  0  0  0  0  2  0  0  0  0  0  0
  187.8570  178.0190  148.7970 C   0  0  0  0  0  1  0  0  0  0  0  0
  1  7  2  0  0  0  0
  1 11  1  0  0  0  0
  2 16  1  0  0  0  0
  3 18  2  0  0  0  0
  3 14  1  0  0  0  0
  4 15  2  0  0  0  0
  5 15  1  0  0  0  0
  6  3  1  0  0  0  0
  7  4  1  0  0  0  0
  8  9  1  1  0  0  0
  8  7  1  0  0  0  0
  9  5  2  0  0  0  0
 10 16  2  0  0  0  0
 10 12  1  0  0  0  0
 12 17  1  0  0  0  0
 13 17  2  0  0  0  0
 13 18  1  0  0  0  0
 14 11  2  0  0  0  0
 15 27  1  0  0  0  0
 16 13  1  0  0  0  0
 17  8  1  0  0  0  0
 18  1  1  0  0  0  0
 19 10  1  0  0  0  0
 20 22  1  6  0  0  0
 20 19  1  0  0  0  0
 22 21  1  0  0  0  0
 23 20  1  0  0  0  0
 23 24  1  0  0  0  0
 24 25  2  0  0  0  0
 26 25  1  0  0  0  0
 27 28  1  0  0  0  0
 28 29  1  0  0  0  0
M  END
>  <MODEL>
7

>  <REMARK>
 VINA RESULT:      -8.3      2.884      4.154
  Name = 
  7 active torsions:
  status: ('A' for Active; 'I' for Inactive)
    1  A    between atoms: C_1  and  C_15
    2  A    between atoms: N_5  and  C_17
    3  A    between atoms: N_5  and  CA_23
    4  A    between atoms: C_9  and  N_13
    5  A    between atoms: N_13  and  C_25
    6  A    between atoms: C_15  and  CA_23
    7  A    between atoms: CA_23  and  C_27
                            x       y       z     vdW  Elec       q    Type
                         _______ _______ _______ _____ _____    ______ ____

>  <TORSDO>
F 7

$$$$
=
 OpenBabel10222422093D

 29 32  0  0  1  0  0  0  0  0999 V2000
  187.5160  177.4740  144.5220 C   0  0  0  0  0  0  0  0  0  0  0  0
  186.2340  178.8350  140.3630 O   0  0  0  0  0  1  0  0  0  0  0  0
  185.7200  178.3070  143.5400 C   0  0  0  0  0  0  0  0  0  0  0  0
  189.3850  176.8770  146.0010 C   0  0  0  0  0  3  0  0  0  0  0  0
  191.5910  177.2560  145.0050 C   0  0  0  0  0  3  0  0  0  0  0  0
  184.8170  178.9120  142.6230 N   0  0  0  0  0  1  0  0  0  0  0  0
  188.7970  177.1130  144.6730 C   0  0  0  0  0  0  0  0  0  0  0  0
  189.6930  176.9420  143.4510 C   0  0  2  0  0  3  0  0  0  0  0  0
  191.1160  177.3250  143.7560 C   0  0  0  0  0  3  0  0  0  0  0  0
  188.5840  178.3350  139.8880 C   0  0  0  0  0  0  0  0  0  0  0  0
  186.4720  177.6800  145.5180 C   0  0  0  0  0  3  0  0  0  0  0  0
  189.9180  177.7220  140.7100 S   0  0  0  0  0  0  0  0  0  0  0  0
  187.8140  177.9940  142.0630 C   0  0  0  0  0  0  0  0  0  0  0  0
  185.4190  178.1600  144.9310 N   0  0  0  0  0  0  0  0  0  0  0  0
  190.7140  176.9060  146.1530 C   0  0  0  0  0  0  0  0  0  0  0  0
  187.4960  178.4140  140.7590 C   0  0  0  0  0  0  0  0  0  0  0  0
  189.1450  177.5970  142.2000 C   0  0  0  0  0  0  0  0  0  0  0  0
  186.9560  177.9100  143.2630 C   0  0  0  0  0  0  0  0  0  0  0  0
  188.5970  178.6620  138.4950 N   0  0  0  0  0  2  0  0  0  0  0  0
  188.5160  177.6770  137.4250 C   0  0  1  0  0  3  0  0  0  0  0  0
  189.6830  175.6030  137.7990 O   0  0  0  0  0  1  0  0  0  0  0  0
  188.4690  176.2640  138.0050 C   0  0  0  0  0  2  0  0  0  0  0  0
  187.2940  177.9580  136.5650 C   0  0  0  0  0  2  0  0  0  0  0  0
  186.0560  177.4710  137.2450 C   0  0  0  0  0  3  0  0  0  0  0  0
  185.0020  177.0250  136.5680 C   0  0  0  0  0  3  0  0  0  0  0  0
  184.9920  176.9840  135.1430 N   0  0  0  0  0  1  0  0  0  0  0  0
  191.2650  176.6840  147.4520 N   0  0  0  0  0  2  0  0  0  0  0  0
  192.3530  175.7500  147.6930 C   0  0  0  0  0  2  0  0  0  0  0  0
  193.1070  176.1640  148.9380 C   0  0  0  0  0  1  0  0  0  0  0  0
  1  7  2  0  0  0  0
  1 11  1  0  0  0  0
  2 16  1  0  0  0  0
  3 14  1  0  0  0  0
  4 15  2  0  0  0  0
  5 15  1  0  0  0  0
  6  3  1  0  0  0  0
  7  4  1  0  0  0  0
  8  9  1  1  0  0  0
  8  7  1  0  0  0  0
  9  5  2  0  0  0  0
 10 12  1  0  0  0  0
 10 16  2  0  0  0  0
 12 17  1  0  0  0  0
 13 17  2  0  0  0  0
 13 18  1  0  0  0  0
 14 11  2  0  0  0  0
 15 27  1  0  0  0  0
 16 13  1  0  0  0  0
 17  8  1  0  0  0  0
 18  3  2  0  0  0  0
 18  1  1  0  0  0  0
 19 10  1  0  0  0  0
 20 23  1  1  0  0  0
 20 22  1  0  0  0  0
 20 19  1  0  0  0  0
 21 22  1  0  0  0  0
 23 24  1  0  0  0  0
 25 24  2  0  0  0  0
 26 25  1  0  0  0  0
 27 28  1  0  0  0  0
 28 29  1  0  0  0  0
M  END
>  <MODEL>
8

>  <REMARK>
 VINA RESULT:      -7.9      2.267      2.929
  Name = 
  7 active torsions:
  status: ('A' for Active; 'I' for Inactive)
    1  A    between atoms: C_1  and  C_15
    2  A    between atoms: N_5  and  C_17
    3  A    between atoms: N_5  and  CA_23
    4  A    between atoms: C_9  and  N_13
    5  A    between atoms: N_13  and  C_25
    6  A    between atoms: C_15  and  CA_23
    7  A    between atoms: CA_23  and  C_27
                            x       y       z     vdW  Elec       q    Type
                         _______ _______ _______ _____ _____    ______ ____

>  <TORSDO>
F 7

$$$$
=
 OpenBabel10222422093D

 29 32  0  0  1  0  0  0  0  0999 V2000
  187.1090  178.0150  144.5340 C   0  0  0  0  0  0  0  0  0  0  0  0
  190.9260  176.9620  142.2720 O   0  0  0  0  0  1  0  0  0  0  0  0
  189.1040  177.1730  144.9690 C   0  0  0  0  0  0  0  0  0  0  0  0
  184.7230  178.5830  144.3810 C   0  0  0  0  0  3  0  0  0  0  0  0
  183.8130  178.4210  142.1120 C   0  0  0  0  0  3  0  0  0  0  0  0
  190.4030  176.6020  144.8630 N   0  0  0  0  0  1  0  0  0  0  0  0
  186.0680  178.4330  143.8020 C   0  0  0  0  0  0  0  0  0  0  0  0
  186.2530  178.7650  142.3250 C   0  0  2  0  0  3  0  0  0  0  0  0
  185.0180  178.4380  141.5300 C   0  0  0  0  0  3  0  0  0  0  0  0
  189.5350  177.6350  140.3720 C   0  0  0  0  0  0  0  0  0  0  0  0
  187.1860  177.6610  145.9460 C   0  0  0  0  0  3  0  0  0  0  0  0
  187.9900  178.2470  140.1140 S   0  0  0  0  0  0  0  0  0  0  0  0
  188.5930  177.7360  142.5030 C   0  0  0  0  0  0  0  0  0  0  0  0
  188.3640  177.1770  146.1930 N   0  0  0  0  0  0  0  0  0  0  0  0
  183.6540  178.6160  143.5770 C   0  0  0  0  0  0  0  0  0  0  0  0
  189.7290  177.4170  141.7370 C   0  0  0  0  0  0  0  0  0  0  0  0
  187.5240  178.1940  141.7310 C   0  0  0  0  0  0  0  0  0  0  0  0
  188.3890  177.6630  143.9640 C   0  0  0  0  0  0  0  0  0  0  0  0
  190.4900  177.4370  139.3240 N   0  0  0  0  0  2  0  0  0  0  0  0
  190.6900  176.1720  138.6300 C   0  0  1  0  0  3  0  0  0  0  0  0
  189.8310  177.0660  136.5650 O   0  0  0  0  0  1  0  0  0  0  0  0
  189.6840  176.0280  137.4890 C   0  0  0  0  0  2  0  0  0  0  0  0
  192.1180  176.0930  138.1160 C   0  0  0  0  0  2  0  0  0  0  0  0
  192.4350  174.7030  137.6680 C   0  0  0  0  0  3  0  0  0  0  0  0
  193.6830  174.2760  137.5040 C   0  0  0  0  0  3  0  0  0  0  0  0
  194.8020  175.1250  137.7490 N   0  0  0  0  0  1  0  0  0  0  0  0
  182.3560  178.7520  144.1590 N   0  0  0  0  0  2  0  0  0  0  0  0
  181.1620  178.9900  143.3650 C   0  0  0  0  0  2  0  0  0  0  0  0
  179.9830  178.2880  144.0050 C   0  0  0  0  0  1  0  0  0  0  0  0
  1 11  1  0  0  0  0
  3 14  1  0  0  0  0
  5 15  1  0  0  0  0
  6  3  1  0  0  0  0
  7  4  1  0  0  0  0
  7  1  2  0  0  0  0
  8  9  1  6  0  0  0
  8  7  1  0  0  0  0
  9  5  2  0  0  0  0
 10 16  2  0  0  0  0
 11 14  2  0  0  0  0
 12 10  1  0  0  0  0
 12 17  1  0  0  0  0
 13 18  1  0  0  0  0
 15 27  1  0  0  0  0
 15  4  2  0  0  0  0
 16  2  1  0  0  0  0
 16 13  1  0  0  0  0
 17  8  1  0  0  0  0
 17 13  2  0  0  0  0
 18  1  1  0  0  0  0
 18  3  2  0  0  0  0
 19 10  1  0  0  0  0
 20 22  1  6  0  0  0
 20 19  1  0  0  0  0
 21 22  1  0  0  0  0
 23 20  1  0  0  0  0
 24 23  1  0  0  0  0
 25 24  2  0  0  0  0
 25 26  1  0  0  0  0
 28 29  1  0  0  0  0
 28 27  1  0  0  0  0
M  END
>  <MODEL>
9

>  <REMARK>
 VINA RESULT:      -7.9      3.652      6.368
  Name = 
  7 active torsions:
  status: ('A' for Active; 'I' for Inactive)
    1  A    between atoms: C_1  and  C_15
    2  A    between atoms: N_5  and  C_17
    3  A    between atoms: N_5  and  CA_23
    4  A    between atoms: C_9  and  N_13
    5  A    between atoms: N_13  and  C_25
    6  A    between atoms: C_15  and  CA_23
    7  A    between atoms: CA_23  and  C_27
                            x       y       z     vdW  Elec       q    Type
                         _______ _______ _______ _____ _____    ______ ____

>  <TORSDO>
F 7

$$$$
