=
 OpenBabel10232410233D

 42 45  0  0  1  0  0  0  0  0999 V2000
  185.9480  178.1760  144.8780 C   0  0  0  0  0  0  0  0  0  0  0  0
  184.8800  178.6960  144.3040 C   0  0  0  0  0  3  0  0  0  0  0  0
  184.9820  178.4660  142.8810 C   0  0  0  0  0  0  0  0  0  0  0  0
  184.0400  178.7830  142.0470 N   0  0  0  0  0  0  0  0  0  0  0  0
  186.2550  177.7710  142.5310 C   0  0  2  0  0  3  0  0  0  0  0  0
  186.8850  177.5230  143.9020 C   0  0  0  0  0  2  0  0  0  0  0  0
  184.1210  178.5110  140.6190 C   0  0  0  0  0  2  0  0  0  0  0  0
  183.1100  177.4390  140.2330 C   0  0  0  0  0  2  0  0  0  0  0  0
  181.0970  177.9180  141.4260 F   0  0  0  0  0  0  0  0  0  0  0  0
  181.6880  177.9850  140.1770 C   0  0  0  0  0  0  0  0  0  0  0  0
  181.7310  179.3050  139.7710 F   0  0  0  0  0  0  0  0  0  0  0  0
  180.9380  177.2590  139.2710 F   0  0  0  0  0  0  0  0  0  0  0  0
  187.1510  178.6980  141.7200 C   0  0  0  0  0  2  0  0  0  0  0  0
  188.8570  177.6220  138.6880 C   0  0  0  0  0  2  0  0  0  0  0  0
  190.3580  176.9140  141.5530 C   0  0  0  0  0  2  0  0  0  0  0  0
  188.1800  177.9290  141.0420 N   0  0  0  0  0  0  0  0  0  0  0  0
  188.4410  178.6090  139.7810 C   0  0  0  0  0  2  0  0  0  0  0  0
  190.8560  176.9440  140.1110 C   0  0  0  0  0  2  0  0  0  0  0  0
  189.3920  178.0590  141.8410 C   0  0  0  0  0  2  0  0  0  0  0  0
  189.7540  176.4750  139.1650 C   0  0  2  0  0  3  0  0  0  0  0  0
  190.3500  175.7990  137.9770 C   0  0  0  0  0  3  0  0  0  0  0  0
  191.6080  175.8920  137.7380 N   0  0  0  0  0  0  0  0  0  0  0  0
  191.4290  173.0260  135.9030 C   0  0  0  0  0  2  0  0  0  0  0  0
  192.8970  172.9390  136.2500 C   0  0  0  0  0  2  0  0  0  0  0  0
  193.1820  174.1960  137.0470 C   0  0  2  0  0  3  0  0  0  0  0  0
  191.1160  174.5070  135.7960 C   0  0  0  0  0  2  0  0  0  0  0  0
  192.1870  175.2460  136.5890 C   0  0  1  0  0  3  0  0  0  0  0  0
  194.6360  174.6730  136.9550 C   0  0  1  0  0  3  0  0  0  0  0  0
  194.6750  176.0540  136.7620 O   0  0  0  0  0  1  0  0  0  0  0  0
  195.6690  174.2210  138.3950 P   0  0  0  0  0  0  0  0  0  0  0  0
  195.2990  172.6530  138.9120 O   0  0  0  0  0  1  0  0  0  0  0  0
  197.1340  174.2970  138.0300 O   0  0  0  0  0  0  0  0  0  0  0  0
  195.3570  175.3050  139.6550 O   0  0  0  0  0  1  0  0  0  0  0  0
  186.1540  178.2460  146.3580 C   0  0  0  0  0  2  0  0  0  0  0  0
  187.2470  177.3020  146.8380 C   0  0  0  0  0  2  0  0  0  0  0  0
  188.2480  178.0440  147.7080 C   0  0  0  0  0  2  0  0  0  0  0  0
  190.0250  176.4240  147.6010 O   0  0  0  0  0  0  0  0  0  0  0  0
  191.8020  176.4350  145.9370 C   0  0  0  0  0  2  0  0  0  0  0  0
  189.8180  178.0030  145.7650 C   0  0  0  0  0  2  0  0  0  0  0  0
  191.4180  176.3340  147.4230 C   0  0  0  0  0  2  0  0  0  0  0  0
  189.6760  177.7480  147.2730 C   0  0  1  0  0  3  0  0  0  0  0  0
  190.6220  176.8960  145.0770 C   0  0  0  0  0  2  0  0  0  0  0  0
  1 34  1  0  0  0  0
  2  1  2  0  0  0  0
  3  2  1  0  0  0  0
  4  3  2  0  0  0  0
  5 13  1  6  0  0  0
  5  3  1  0  0  0  0
  5  6  1  0  0  0  0
  6  1  1  0  0  0  0
  7  4  1  0  0  0  0
  8  7  1  0  0  0  0
 10  8  1  0  0  0  0
 10  9  1  0  0  0  0
 11 10  1  0  0  0  0
 12 10  1  0  0  0  0
 14 20  1  0  0  0  0
 14 17  1  0  0  0  0
 15 19  1  0  0  0  0
 16 13  1  0  0  0  0
 16 19  1  0  0  0  0
 17 16  1  0  0  0  0
 18 15  1  0  0  0  0
 20 21  1  6  0  0  0
 20 18  1  0  0  0  0
 22 21  2  0  0  0  0
 23 24  1  0  0  0  0
 24 25  1  0  0  0  0
 25 28  1  6  0  0  0
 26 23  1  0  0  0  0
 26 27  1  0  0  0  0
 27 25  1  0  0  0  0
 27 22  1  1  0  0  0
 28 29  1  1  0  0  0
 28 30  1  0  0  0  0
 30 31  1  0  0  0  0
 30 33  1  0  0  0  0
 32 30  2  0  0  0  0
 34 35  1  0  0  0  0
 35 36  1  0  0  0  0
 38 40  1  0  0  0  0
 39 41  1  0  0  0  0
 40 37  1  0  0  0  0
 41 37  1  0  0  0  0
 41 36  1  6  0  0  0
 42 39  1  0  0  0  0
 42 38  1  0  0  0  0
M  END
>  <MODEL>
1

>  <REMARK>
 VINA RESULT:      -8.8      0.000      0.000
  Name = 
  13 active torsions:
  status: ('A' for Active; 'I' for Inactive)
    1  A    between atoms: P_2  and  C_22
    2  A    between atoms: C_5  and  C_41
    3  A    between atoms: C_7  and  C_32
    4  A    between atoms: C_9  and  C_29
    5  A    between atoms: C_10  and  C_22
    6  A    between atoms: N_12  and  C_17
    7  A    between atoms: N_14  and  C_31
    8  A    between atoms: N_23  and  C_28
    9  A    between atoms: C_24  and  C_37
   10  A    between atoms: C_24  and  C_38
   11  A    between atoms: C_25  and  C_31
   12  A    between atoms: C_28  and  C_29
   13  A    between atoms: C_32  and  C_37
                            x       y       z     vdW  Elec       q    Type
                         _______ _______ _______ _____ _____    ______ ____

>  <TORSDO>
F 13

$$$$
=
 OpenBabel10232410233D

 42 45  0  0  1  0  0  0  0  0999 V2000
  185.1880  178.4470  144.8520 C   0  0  0  0  0  0  0  0  0  0  0  0
  185.7990  178.2390  146.0030 C   0  0  0  0  0  3  0  0  0  0  0  0
  187.1870  177.9510  145.7250 C   0  0  0  0  0  0  0  0  0  0  0  0
  188.0730  177.7870  146.6580 N   0  0  0  0  0  0  0  0  0  0  0  0
  187.4580  177.9390  144.2580 C   0  0  2  0  0  3  0  0  0  0  0  0
  186.1040  178.3350  143.6680 C   0  0  0  0  0  2  0  0  0  0  0  0
  189.4810  177.5430  146.3810 C   0  0  0  0  0  2  0  0  0  0  0  0
  190.0840  176.6660  147.4700 C   0  0  0  0  0  2  0  0  0  0  0  0
  191.9940  177.0220  146.0800 F   0  0  0  0  0  0  0  0  0  0  0  0
  191.5760  176.4360  147.2610 C   0  0  0  0  0  0  0  0  0  0  0  0
  192.2690  177.0040  148.3130 F   0  0  0  0  0  0  0  0  0  0  0  0
  191.8470  175.0800  147.2240 F   0  0  0  0  0  0  0  0  0  0  0  0
  187.8180  176.5310  143.8040 C   0  0  0  0  0  2  0  0  0  0  0  0
  189.0270  176.9810  140.3980 C   0  0  0  0  0  2  0  0  0  0  0  0
  191.3210  176.9710  142.7860 C   0  0  0  0  0  2  0  0  0  0  0  0
  188.8960  176.5810  142.8310 N   0  0  0  0  0  0  0  0  0  0  0  0
  188.4250  177.4180  141.7360 C   0  0  0  0  0  2  0  0  0  0  0  0
  191.3500  177.4400  141.3350 C   0  0  0  0  0  2  0  0  0  0  0  0
  189.9940  177.3030  143.4610 C   0  0  0  0  0  2  0  0  0  0  0  0
  190.4880  176.5250  140.4690 C   0  0  2  0  0  3  0  0  0  0  0  0
  191.0420  176.4540  139.0860 C   0  0  0  0  0  3  0  0  0  0  0  0
  191.3230  175.3190  138.5550 N   0  0  0  0  0  0  0  0  0  0  0  0
  191.3350  173.3490  135.7750 C   0  0  0  0  0  2  0  0  0  0  0  0
  192.8290  173.3720  135.9990 C   0  0  0  0  0  2  0  0  0  0  0  0
  193.0270  174.2720  137.2020 C   0  0  2  0  0  3  0  0  0  0  0  0
  190.8240  174.6950  136.2540 C   0  0  0  0  0  2  0  0  0  0  0  0
  191.8640  175.2460  137.2230 C   0  0  1  0  0  3  0  0  0  0  0  0
  194.3910  174.9710  137.2370 C   0  0  1  0  0  3  0  0  0  0  0  0
  194.2200  176.3430  137.4250 O   0  0  0  0  0  1  0  0  0  0  0  0
  195.5420  174.3140  138.4980 P   0  0  0  0  0  0  0  0  0  0  0  0
  195.5410  175.3090  139.8660 O   0  0  0  0  0  1  0  0  0  0  0  0
  195.1350  172.9130  138.8940 O   0  0  0  0  0  1  0  0  0  0  0  0
  197.1020  174.2720  137.8460 O   0  0  0  0  0  0  0  0  0  0  0  0
  183.7280  178.7690  144.7870 C   0  0  0  0  0  2  0  0  0  0  0  0
  183.3330  179.4050  143.4630 C   0  0  0  0  0  2  0  0  0  0  0  0
  182.0460  178.7900  142.9400 C   0  0  0  0  0  2  0  0  0  0  0  0
  181.4660  179.5340  140.7250 O   0  0  0  0  0  0  0  0  0  0  0  0
  182.7350  179.0040  138.7170 C   0  0  0  0  0  2  0  0  0  0  0  0
  183.6090  178.4270  141.0250 C   0  0  0  0  0  2  0  0  0  0  0  0
  181.3610  179.0640  139.4030 C   0  0  0  0  0  2  0  0  0  0  0  0
  182.1340  178.5240  141.4440 C   0  0  1  0  0  3  0  0  0  0  0  0
  183.8780  179.1830  139.7200 C   0  0  0  0  0  2  0  0  0  0  0  0
  1  2  2  0  0  0  0
  3  2  1  0  0  0  0
  3  4  2  0  0  0  0
  5 13  1  6  0  0  0
  5  3  1  0  0  0  0
  6  5  1  0  0  0  0
  6  1  1  0  0  0  0
  7  4  1  0  0  0  0
  7  8  1  0  0  0  0
  9 10  1  0  0  0  0
 10  8  1  0  0  0  0
 10 11  1  0  0  0  0
 12 10  1  0  0  0  0
 14 20  1  0  0  0  0
 14 17  1  0  0  0  0
 15 19  1  0  0  0  0
 16 19  1  0  0  0  0
 16 13  1  0  0  0  0
 17 16  1  0  0  0  0
 18 15  1  0  0  0  0
 20 21  1  6  0  0  0
 20 18  1  0  0  0  0
 22 21  2  0  0  0  0
 23 24  1  0  0  0  0
 23 26  1  0  0  0  0
 24 25  1  0  0  0  0
 25 27  1  0  0  0  0
 25 28  1  6  0  0  0
 26 27  1  0  0  0  0
 27 22  1  1  0  0  0
 28 29  1  1  0  0  0
 28 30  1  0  0  0  0
 30 32  1  0  0  0  0
 30 31  1  0  0  0  0
 33 30  2  0  0  0  0
 34  1  1  0  0  0  0
 35 34  1  0  0  0  0
 36 35  1  0  0  0  0
 37 41  1  0  0  0  0
 38 40  1  0  0  0  0
 38 42  1  0  0  0  0
 39 41  1  0  0  0  0
 40 37  1  0  0  0  0
 41 36  1  1  0  0  0
 42 39  1  0  0  0  0
M  END
>  <MODEL>
2

>  <REMARK>
 VINA RESULT:      -8.8      4.043      6.424
  Name = 
  13 active torsions:
  status: ('A' for Active; 'I' for Inactive)
    1  A    between atoms: P_2  and  C_22
    2  A    between atoms: C_5  and  C_41
    3  A    between atoms: C_7  and  C_32
    4  A    between atoms: C_9  and  C_29
    5  A    between atoms: C_10  and  C_22
    6  A    between atoms: N_12  and  C_17
    7  A    between atoms: N_14  and  C_31
    8  A    between atoms: N_23  and  C_28
    9  A    between atoms: C_24  and  C_37
   10  A    between atoms: C_24  and  C_38
   11  A    between atoms: C_25  and  C_31
   12  A    between atoms: C_28  and  C_29
   13  A    between atoms: C_32  and  C_37
                            x       y       z     vdW  Elec       q    Type
                         _______ _______ _______ _____ _____    ______ ____

>  <TORSDO>
F 13

$$$$
=
 OpenBabel10232410233D

 42 45  0  0  1  0  0  0  0  0999 V2000
  185.1780  178.6790  145.4910 C   0  0  0  0  0  0  0  0  0  0  0  0
  185.8460  178.4890  146.6130 C   0  0  0  0  0  3  0  0  0  0  0  0
  187.2200  178.1960  146.2700 C   0  0  0  0  0  0  0  0  0  0  0  0
  188.1510  178.0470  147.1600 N   0  0  0  0  0  0  0  0  0  0  0  0
  187.4160  178.1590  144.7910 C   0  0  2  0  0  3  0  0  0  0  0  0
  186.0340  178.5470  144.2640 C   0  0  0  0  0  2  0  0  0  0  0  0
  189.5440  177.7980  146.8160 C   0  0  0  0  0  2  0  0  0  0  0  0
  189.9340  176.3800  147.2120 C   0  0  0  0  0  2  0  0  0  0  0  0
  192.0750  176.4430  146.1540 F   0  0  0  0  0  0  0  0  0  0  0  0
  191.4420  176.2220  147.3640 C   0  0  0  0  0  0  0  0  0  0  0  0
  191.9000  177.1460  148.2840 F   0  0  0  0  0  0  0  0  0  0  0  0
  191.7420  174.9500  147.8170 F   0  0  0  0  0  0  0  0  0  0  0  0
  187.7540  176.7440  144.3440 C   0  0  0  0  0  2  0  0  0  0  0  0
  188.3260  177.9030  140.9380 C   0  0  0  0  0  2  0  0  0  0  0  0
  190.8730  176.4050  142.4330 C   0  0  0  0  0  2  0  0  0  0  0  0
  188.5470  176.7820  143.1270 N   0  0  0  0  0  0  0  0  0  0  0  0
  188.2220  178.0350  142.4600 C   0  0  0  0  0  2  0  0  0  0  0  0
  190.7850  177.2950  141.1970 C   0  0  0  0  0  2  0  0  0  0  0  0
  189.9400  176.8830  143.5420 C   0  0  0  0  0  2  0  0  0  0  0  0
  189.4830  177.0260  140.4470 C   0  0  2  0  0  3  0  0  0  0  0  0
  189.6750  177.2510  138.9860 C   0  0  0  0  0  3  0  0  0  0  0  0
  188.6800  177.1710  138.1790 N   0  0  0  0  0  0  0  0  0  0  0  0
  186.9270  177.5650  135.2830 C   0  0  0  0  0  2  0  0  0  0  0  0
  187.7440  176.3690  134.8510 C   0  0  0  0  0  2  0  0  0  0  0  0
  188.6490  176.0720  136.0290 C   0  0  2  0  0  3  0  0  0  0  0  0
  187.8140  178.3500  136.2310 C   0  0  0  0  0  2  0  0  0  0  0  0
  188.8610  177.3810  136.7660 C   0  0  1  0  0  3  0  0  0  0  0  0
  189.9650  175.3850  135.6430 C   0  0  1  0  0  3  0  0  0  0  0  0
  191.0120  176.3070  135.6740 O   0  0  0  0  0  1  0  0  0  0  0  0
  190.3880  173.9350  136.6750 P   0  0  0  0  0  0  0  0  0  0  0  0
  191.3050  174.4180  138.0130 O   0  0  0  0  0  1  0  0  0  0  0  0
  189.1290  173.2490  137.1500 O   0  0  0  0  0  1  0  0  0  0  0  0
  191.2940  172.8490  135.7480 O   0  0  0  0  0  0  0  0  0  0  0  0
  183.7170  179.0010  145.4940 C   0  0  0  0  0  2  0  0  0  0  0  0
  182.9890  178.4060  144.2980 C   0  0  0  0  0  2  0  0  0  0  0  0
  183.0840  179.3360  143.1000 C   0  0  0  0  0  2  0  0  0  0  0  0
  182.1910  178.7330  140.9480 O   0  0  0  0  0  0  0  0  0  0  0  0
  183.5400  178.0810  139.0300 C   0  0  0  0  0  2  0  0  0  0  0  0
  184.6000  178.9900  141.1450 C   0  0  0  0  0  2  0  0  0  0  0  0
  182.3350  177.7710  139.9320 C   0  0  0  0  0  2  0  0  0  0  0  0
  183.2870  178.5520  141.8130 C   0  0  1  0  0  3  0  0  0  0  0  0
  184.4340  179.1680  139.6330 C   0  0  0  0  0  2  0  0  0  0  0  0
  1 34  1  0  0  0  0
  1  2  2  0  0  0  0
  3  2  1  0  0  0  0
  3  4  2  0  0  0  0
  5 13  1  6  0  0  0
  5  3  1  0  0  0  0
  6  5  1  0  0  0  0
  6  1  1  0  0  0  0
  7  4  1  0  0  0  0
  7  8  1  0  0  0  0
  8 10  1  0  0  0  0
  9 10  1  0  0  0  0
 10 12  1  0  0  0  0
 10 11  1  0  0  0  0
 14 17  1  0  0  0  0
 15 19  1  0  0  0  0
 16 19  1  0  0  0  0
 16 13  1  0  0  0  0
 17 16  1  0  0  0  0
 18 15  1  0  0  0  0
 20 21  1  6  0  0  0
 20 14  1  0  0  0  0
 20 18  1  0  0  0  0
 22 21  2  0  0  0  0
 23 26  1  0  0  0  0
 24 23  1  0  0  0  0
 24 25  1  0  0  0  0
 25 28  1  6  0  0  0
 25 27  1  0  0  0  0
 26 27  1  0  0  0  0
 27 22  1  1  0  0  0
 28 29  1  1  0  0  0
 28 30  1  0  0  0  0
 30 32  1  0  0  0  0
 30 31  1  0  0  0  0
 33 30  2  0  0  0  0
 35 34  1  0  0  0  0
 36 35  1  0  0  0  0
 37 41  1  0  0  0  0
 38 42  1  0  0  0  0
 38 40  1  0  0  0  0
 39 41  1  0  0  0  0
 40 37  1  0  0  0  0
 41 36  1  1  0  0  0
 42 39  1  0  0  0  0
M  END
>  <MODEL>
3

>  <REMARK>
 VINA RESULT:      -8.2      4.490      6.819
  Name = 
  13 active torsions:
  status: ('A' for Active; 'I' for Inactive)
    1  A    between atoms: P_2  and  C_22
    2  A    between atoms: C_5  and  C_41
    3  A    between atoms: C_7  and  C_32
    4  A    between atoms: C_9  and  C_29
    5  A    between atoms: C_10  and  C_22
    6  A    between atoms: N_12  and  C_17
    7  A    between atoms: N_14  and  C_31
    8  A    between atoms: N_23  and  C_28
    9  A    between atoms: C_24  and  C_37
   10  A    between atoms: C_24  and  C_38
   11  A    between atoms: C_25  and  C_31
   12  A    between atoms: C_28  and  C_29
   13  A    between atoms: C_32  and  C_37
                            x       y       z     vdW  Elec       q    Type
                         _______ _______ _______ _____ _____    ______ ____

>  <TORSDO>
F 13

$$$$
=
 OpenBabel10232410233D

 42 45  0  0  1  0  0  0  0  0999 V2000
  186.7660  177.6200  144.5620 C   0  0  0  0  0  0  0  0  0  0  0  0
  185.6880  178.3200  144.2660 C   0  0  0  0  0  3  0  0  0  0  0  0
  185.6310  178.4650  142.8290 C   0  0  0  0  0  0  0  0  0  0  0  0
  184.6360  179.0300  142.2170 N   0  0  0  0  0  0  0  0  0  0  0  0
  186.8080  177.8280  142.1700 C   0  0  2  0  0  3  0  0  0  0  0  0
  187.5510  177.2030  143.3510 C   0  0  0  0  0  2  0  0  0  0  0  0
  184.5540  179.1360  140.7670 C   0  0  0  0  0  2  0  0  0  0  0  0
  183.1960  178.6470  140.2830 C   0  0  0  0  0  2  0  0  0  0  0  0
  181.5370  178.9550  138.5930 F   0  0  0  0  0  0  0  0  0  0  0  0
  182.8790  179.1360  138.8750 C   0  0  0  0  0  0  0  0  0  0  0  0
  183.1780  180.4820  138.7900 F   0  0  0  0  0  0  0  0  0  0  0  0
  183.6420  178.4460  137.9500 F   0  0  0  0  0  0  0  0  0  0  0  0
  187.6840  178.8930  141.5240 C   0  0  0  0  0  2  0  0  0  0  0  0
  190.1500  176.9760  139.6490 C   0  0  0  0  0  2  0  0  0  0  0  0
  187.4710  177.9670  137.9750 C   0  0  0  0  0  2  0  0  0  0  0  0
  188.2290  178.3980  140.2720 N   0  0  0  0  0  0  0  0  0  0  0  0
  188.9610  177.1800  140.5920 C   0  0  0  0  0  2  0  0  0  0  0  0
  188.5330  176.9130  137.6830 C   0  0  0  0  0  2  0  0  0  0  0  0
  187.0930  177.9950  139.4530 C   0  0  0  0  0  2  0  0  0  0  0  0
  189.8930  177.3810  138.1940 C   0  0  2  0  0  3  0  0  0  0  0  0
  190.9820  176.8300  137.3380 C   0  0  0  0  0  3  0  0  0  0  0  0
  191.2150  175.5680  137.3140 N   0  0  0  0  0  0  0  0  0  0  0  0
  192.2400  172.6820  135.8180 C   0  0  0  0  0  2  0  0  0  0  0  0
  193.4840  172.9230  136.6410 C   0  0  0  0  0  2  0  0  0  0  0  0
  193.2270  174.2330  137.3580 C   0  0  2  0  0  3  0  0  0  0  0  0
  191.7050  174.0570  135.4660 C   0  0  0  0  0  2  0  0  0  0  0  0
  192.2700  175.0310  136.4930 C   0  0  1  0  0  3  0  0  0  0  0  0
  194.5020  175.0090  137.7100 C   0  0  1  0  0  3  0  0  0  0  0  0
  194.1870  176.1070  138.5120 O   0  0  0  0  0  1  0  0  0  0  0  0
  195.7970  174.0030  138.5200 P   0  0  0  0  0  0  0  0  0  0  0  0
  196.5640  174.9020  139.7310 O   0  0  0  0  0  1  0  0  0  0  0  0
  195.1880  172.7600  139.1250 O   0  0  0  0  0  1  0  0  0  0  0  0
  196.9430  173.5490  137.3610 O   0  0  0  0  0  0  0  0  0  0  0  0
  187.1230  177.2930  145.9770 C   0  0  0  0  0  2  0  0  0  0  0  0
  188.3990  177.9870  146.4300 C   0  0  0  0  0  2  0  0  0  0  0  0
  189.5090  176.9730  146.6480 C   0  0  0  0  0  2  0  0  0  0  0  0
  190.3850  176.2130  144.5380 O   0  0  0  0  0  0  0  0  0  0  0  0
  191.7520  177.5650  143.0460 C   0  0  0  0  0  2  0  0  0  0  0  0
  190.6320  178.5680  145.0870 C   0  0  0  0  0  2  0  0  0  0  0  0
  191.5660  176.2240  143.7730 C   0  0  0  0  0  2  0  0  0  0  0  0
  190.5980  177.1180  145.5950 C   0  0  1  0  0  3  0  0  0  0  0  0
  190.7800  178.6300  143.5640 C   0  0  0  0  0  2  0  0  0  0  0  0
  1 34  1  0  0  0  0
  2  1  2  0  0  0  0
  3  2  1  0  0  0  0
  4  3  2  0  0  0  0
  5 13  1  1  0  0  0
  5  3  1  0  0  0  0
  5  6  1  0  0  0  0
  6  1  1  0  0  0  0
  7  4  1  0  0  0  0
  8  7  1  0  0  0  0
  9 10  1  0  0  0  0
 10  8  1  0  0  0  0
 11 10  1  0  0  0  0
 12 10  1  0  0  0  0
 14 17  1  0  0  0  0
 15 19  1  0  0  0  0
 16 17  1  0  0  0  0
 16 13  1  0  0  0  0
 18 15  1  0  0  0  0
 18 20  1  0  0  0  0
 19 16  1  0  0  0  0
 20 21  1  6  0  0  0
 20 14  1  0  0  0  0
 22 21  2  0  0  0  0
 23 24  1  0  0  0  0
 24 25  1  0  0  0  0
 25 28  1  6  0  0  0
 26 23  1  0  0  0  0
 26 27  1  0  0  0  0
 27 22  1  1  0  0  0
 27 25  1  0  0  0  0
 28 29  1  1  0  0  0
 28 30  1  0  0  0  0
 30 32  1  0  0  0  0
 30 31  1  0  0  0  0
 33 30  2  0  0  0  0
 34 35  1  0  0  0  0
 35 36  1  0  0  0  0
 37 41  1  0  0  0  0
 38 42  1  0  0  0  0
 38 40  1  0  0  0  0
 39 41  1  0  0  0  0
 40 37  1  0  0  0  0
 41 36  1  1  0  0  0
 42 39  1  0  0  0  0
M  END
>  <MODEL>
4

>  <REMARK>
 VINA RESULT:      -8.0      1.325      2.032
  Name = 
  13 active torsions:
  status: ('A' for Active; 'I' for Inactive)
    1  A    between atoms: P_2  and  C_22
    2  A    between atoms: C_5  and  C_41
    3  A    between atoms: C_7  and  C_32
    4  A    between atoms: C_9  and  C_29
    5  A    between atoms: C_10  and  C_22
    6  A    between atoms: N_12  and  C_17
    7  A    between atoms: N_14  and  C_31
    8  A    between atoms: N_23  and  C_28
    9  A    between atoms: C_24  and  C_37
   10  A    between atoms: C_24  and  C_38
   11  A    between atoms: C_25  and  C_31
   12  A    between atoms: C_28  and  C_29
   13  A    between atoms: C_32  and  C_37
                            x       y       z     vdW  Elec       q    Type
                         _______ _______ _______ _____ _____    ______ ____

>  <TORSDO>
F 13

$$$$
=
 OpenBabel10232410233D

 42 45  0  0  1  0  0  0  0  0999 V2000
  190.3940  177.4290  142.8910 C   0  0  0  0  0  0  0  0  0  0  0  0
  189.4950  178.3920  142.9530 C   0  0  0  0  0  3  0  0  0  0  0  0
  188.5340  178.1750  141.8960 C   0  0  0  0  0  0  0  0  0  0  0  0
  187.4730  178.9070  141.7470 N   0  0  0  0  0  0  0  0  0  0  0  0
  188.8910  176.9840  141.0710 C   0  0  2  0  0  3  0  0  0  0  0  0
  190.1280  176.4440  141.7880 C   0  0  0  0  0  2  0  0  0  0  0  0
  186.4800  178.6620  140.7120 C   0  0  0  0  0  2  0  0  0  0  0  0
  185.1170  179.1690  141.1640 C   0  0  0  0  0  2  0  0  0  0  0  0
  183.4090  178.5130  142.7000 F   0  0  0  0  0  0  0  0  0  0  0  0
  184.7730  178.7080  142.5750 C   0  0  0  0  0  0  0  0  0  0  0  0
  185.4220  177.5150  142.8280 F   0  0  0  0  0  0  0  0  0  0  0  0
  185.1910  179.6510  143.4960 F   0  0  0  0  0  0  0  0  0  0  0  0
  189.2690  177.4190  139.6610 C   0  0  0  0  0  2  0  0  0  0  0  0
  191.0680  175.2390  137.3630 C   0  0  0  0  0  2  0  0  0  0  0  0
  192.9100  176.9470  139.5200 C   0  0  0  0  0  2  0  0  0  0  0  0
  190.4790  176.7360  139.2370 N   0  0  0  0  0  0  0  0  0  0  0  0
  190.3500  176.5180  137.8030 C   0  0  0  0  0  2  0  0  0  0  0  0
  193.2560  176.2140  138.2280 C   0  0  0  0  0  2  0  0  0  0  0  0
  191.5750  177.6790  139.4160 C   0  0  0  0  0  2  0  0  0  0  0  0
  192.3910  174.9640  138.0860 C   0  0  2  0  0  3  0  0  0  0  0  0
  193.1350  173.9050  137.3470 C   0  0  0  0  0  3  0  0  0  0  0  0
  194.4180  173.9290  137.2920 N   0  0  0  0  0  0  0  0  0  0  0  0
  194.7560  170.5460  137.0540 C   0  0  0  0  0  2  0  0  0  0  0  0
  196.2020  170.8620  137.3570 C   0  0  0  0  0  2  0  0  0  0  0  0
  196.2580  172.3730  137.4490 C   0  0  2  0  0  3  0  0  0  0  0  0
  194.2320  171.7290  136.2620 C   0  0  0  0  0  2  0  0  0  0  0  0
  195.1410  172.9120  136.5740 C   0  0  1  0  0  3  0  0  0  0  0  0
  197.6280  172.9660  137.0980 C   0  0  1  0  0  3  0  0  0  0  0  0
  197.8040  172.9770  135.7140 O   0  0  0  0  0  1  0  0  0  0  0  0
  197.9180  174.6430  137.7710 P   0  0  0  0  0  0  0  0  0  0  0  0
  196.9880  174.8820  139.1640 O   0  0  0  0  0  1  0  0  0  0  0  0
  199.3800  174.8230  138.1050 O   0  0  0  0  0  1  0  0  0  0  0  0
  197.4720  175.7850  136.6060 O   0  0  0  0  0  0  0  0  0  0  0  0
  191.5390  177.3610  143.8510 C   0  0  0  0  0  2  0  0  0  0  0  0
  191.3150  176.3320  144.9500 C   0  0  0  0  0  2  0  0  0  0  0  0
  191.2010  177.0140  146.3030 C   0  0  0  0  0  2  0  0  0  0  0  0
  188.8210  176.8410  145.9900 O   0  0  0  0  0  0  0  0  0  0  0  0
  187.1650  178.0260  147.3240 C   0  0  0  0  0  2  0  0  0  0  0  0
  189.6230  178.0450  147.9430 C   0  0  0  0  0  2  0  0  0  0  0  0
  187.6630  177.6380  145.9230 C   0  0  0  0  0  2  0  0  0  0  0  0
  189.8440  177.6830  146.4660 C   0  0  1  0  0  3  0  0  0  0  0  0
  188.2030  177.7030  148.4040 C   0  0  0  0  0  2  0  0  0  0  0  0
  1  2  2  0  0  0  0
  1 34  1  0  0  0  0
  3  2  1  0  0  0  0
  4  3  2  0  0  0  0
  5 13  1  6  0  0  0
  5  6  1  0  0  0  0
  5  3  1  0  0  0  0
  6  1  1  0  0  0  0
  7  8  1  0  0  0  0
  7  4  1  0  0  0  0
  8 10  1  0  0  0  0
 10  9  1  0  0  0  0
 10 11  1  0  0  0  0
 10 12  1  0  0  0  0
 14 17  1  0  0  0  0
 14 20  1  0  0  0  0
 16 19  1  0  0  0  0
 16 13  1  0  0  0  0
 17 16  1  0  0  0  0
 18 15  1  0  0  0  0
 19 15  1  0  0  0  0
 20 21  1  6  0  0  0
 20 18  1  0  0  0  0
 22 21  2  0  0  0  0
 23 24  1  0  0  0  0
 24 25  1  0  0  0  0
 25 28  1  6  0  0  0
 26 27  1  0  0  0  0
 26 23  1  0  0  0  0
 27 22  1  1  0  0  0
 27 25  1  0  0  0  0
 28 29  1  6  0  0  0
 28 30  1  0  0  0  0
 30 32  1  0  0  0  0
 30 31  1  0  0  0  0
 33 30  2  0  0  0  0
 34 35  1  0  0  0  0
 35 36  1  0  0  0  0
 37 41  1  0  0  0  0
 38 42  1  0  0  0  0
 39 42  1  0  0  0  0
 40 37  1  0  0  0  0
 40 38  1  0  0  0  0
 41 36  1  1  0  0  0
 41 39  1  0  0  0  0
M  END
>  <MODEL>
5

>  <REMARK>
 VINA RESULT:      -7.6      2.105      3.774
  Name = 
  13 active torsions:
  status: ('A' for Active; 'I' for Inactive)
    1  A    between atoms: P_2  and  C_22
    2  A    between atoms: C_5  and  C_41
    3  A    between atoms: C_7  and  C_32
    4  A    between atoms: C_9  and  C_29
    5  A    between atoms: C_10  and  C_22
    6  A    between atoms: N_12  and  C_17
    7  A    between atoms: N_14  and  C_31
    8  A    between atoms: N_23  and  C_28
    9  A    between atoms: C_24  and  C_37
   10  A    between atoms: C_24  and  C_38
   11  A    between atoms: C_25  and  C_31
   12  A    between atoms: C_28  and  C_29
   13  A    between atoms: C_32  and  C_37
                            x       y       z     vdW  Elec       q    Type
                         _______ _______ _______ _____ _____    ______ ____

>  <TORSDO>
F 13

$$$$
=
 OpenBabel10232410233D

 42 45  0  0  1  0  0  0  0  0999 V2000
  189.3800  177.7590  141.9070 C   0  0  0  0  0  0  0  0  0  0  0  0
  188.4600  178.4350  141.2450 C   0  0  0  0  0  3  0  0  0  0  0  0
  188.5260  178.0360  139.8570 C   0  0  0  0  0  0  0  0  0  0  0  0
  187.6880  178.4580  138.9630 N   0  0  0  0  0  0  0  0  0  0  0  0
  189.6190  177.0460  139.6260 C   0  0  2  0  0  3  0  0  0  0  0  0
  190.1610  176.8160  141.0380 C   0  0  0  0  0  2  0  0  0  0  0  0
  187.7240  178.0220  137.5740 C   0  0  0  0  0  2  0  0  0  0  0  0
  186.4430  177.2750  137.2270 C   0  0  0  0  0  2  0  0  0  0  0  0
  185.6080  175.4550  135.9260 F   0  0  0  0  0  0  0  0  0  0  0  0
  186.7240  175.9150  136.6000 C   0  0  0  0  0  0  0  0  0  0  0  0
  187.7690  176.0420  135.7040 F   0  0  0  0  0  0  0  0  0  0  0  0
  187.0800  175.0060  137.5790 F   0  0  0  0  0  0  0  0  0  0  0  0
  190.7070  177.6620  138.7570 C   0  0  0  0  0  2  0  0  0  0  0  0
  193.5620  175.8460  137.4080 C   0  0  0  0  0  2  0  0  0  0  0  0
  190.5700  174.5960  136.7370 C   0  0  0  0  0  2  0  0  0  0  0  0
  191.2770  176.6520  137.8820 N   0  0  0  0  0  0  0  0  0  0  0  0
  192.5460  176.2570  138.4770 C   0  0  0  0  0  2  0  0  0  0  0  0
  191.9730  174.0030  136.6580 C   0  0  0  0  0  2  0  0  0  0  0  0
  190.4020  175.4890  137.9630 C   0  0  0  0  0  2  0  0  0  0  0  0
  192.9720  175.0720  136.2250 C   0  0  2  0  0  3  0  0  0  0  0  0
  194.0840  174.4530  135.4480 C   0  0  0  0  0  3  0  0  0  0  0  0
  194.6800  173.4040  135.8880 N   0  0  0  0  0  0  0  0  0  0  0  0
  195.9190  170.3760  134.9360 C   0  0  0  0  0  2  0  0  0  0  0  0
  197.1560  170.8730  135.6480 C   0  0  0  0  0  2  0  0  0  0  0  0
  196.8020  172.2720  136.1090 C   0  0  2  0  0  3  0  0  0  0  0  0
  195.2570  171.6070  134.3480 C   0  0  0  0  0  2  0  0  0  0  0  0
  195.7590  172.8060  135.1460 C   0  0  1  0  0  3  0  0  0  0  0  0
  198.0110  173.2030  136.2540 C   0  0  1  0  0  3  0  0  0  0  0  0
  198.3420  173.7520  135.0150 O   0  0  0  0  0  1  0  0  0  0  0  0
  197.7890  174.5410  137.4820 P   0  0  0  0  0  0  0  0  0  0  0  0
  199.2430  174.8330  138.2970 O   0  0  0  0  0  1  0  0  0  0  0  0
  197.3340  175.8080  136.7960 O   0  0  0  0  0  0  0  0  0  0  0  0
  196.6140  174.0660  138.6020 O   0  0  0  0  0  1  0  0  0  0  0  0
  189.5790  177.9420  143.3790 C   0  0  0  0  0  2  0  0  0  0  0  0
  188.7450  176.9720  144.2020 C   0  0  0  0  0  2  0  0  0  0  0  0
  188.2890  177.6270  145.4960 C   0  0  0  0  0  2  0  0  0  0  0  0
  186.3540  178.6800  146.4640 O   0  0  0  0  0  0  0  0  0  0  0  0
  184.1470  178.7180  145.4370 C   0  0  0  0  0  2  0  0  0  0  0  0
  186.1740  177.8520  144.1860 C   0  0  0  0  0  2  0  0  0  0  0  0
  184.9850  178.4540  146.6990 C   0  0  0  0  0  2  0  0  0  0  0  0
  186.7710  177.6590  145.5880 C   0  0  1  0  0  3  0  0  0  0  0  0
  185.0280  178.8680  144.1930 C   0  0  0  0  0  2  0  0  0  0  0  0
  1 34  1  0  0  0  0
  2  1  2  0  0  0  0
  3  2  1  0  0  0  0
  4  3  2  0  0  0  0
  5 13  1  6  0  0  0
  5  3  1  0  0  0  0
  5  6  1  0  0  0  0
  6  1  1  0  0  0  0
  7  4  1  0  0  0  0
  8  7  1  0  0  0  0
  9 10  1  0  0  0  0
 10  8  1  0  0  0  0
 10 12  1  0  0  0  0
 11 10  1  0  0  0  0
 14 17  1  0  0  0  0
 15 19  1  0  0  0  0
 16 19  1  0  0  0  0
 16 17  1  0  0  0  0
 16 13  1  0  0  0  0
 18 15  1  0  0  0  0
 20 21  1  1  0  0  0
 20 18  1  0  0  0  0
 20 14  1  0  0  0  0
 21 22  2  0  0  0  0
 23 24  1  0  0  0  0
 24 25  1  0  0  0  0
 25 28  1  6  0  0  0
 26 23  1  0  0  0  0
 26 27  1  0  0  0  0
 27 22  1  1  0  0  0
 27 25  1  0  0  0  0
 28 29  1  6  0  0  0
 28 30  1  0  0  0  0
 30 31  1  0  0  0  0
 30 33  1  0  0  0  0
 32 30  2  0  0  0  0
 34 35  1  0  0  0  0
 35 36  1  0  0  0  0
 37 40  1  0  0  0  0
 38 40  1  0  0  0  0
 39 42  1  0  0  0  0
 39 41  1  0  0  0  0
 41 36  1  6  0  0  0
 41 37  1  0  0  0  0
 42 38  1  0  0  0  0
M  END
>  <MODEL>
6

>  <REMARK>
 VINA RESULT:      -7.6      2.897      4.938
  Name = 
  13 active torsions:
  status: ('A' for Active; 'I' for Inactive)
    1  A    between atoms: P_2  and  C_22
    2  A    between atoms: C_5  and  C_41
    3  A    between atoms: C_7  and  C_32
    4  A    between atoms: C_9  and  C_29
    5  A    between atoms: C_10  and  C_22
    6  A    between atoms: N_12  and  C_17
    7  A    between atoms: N_14  and  C_31
    8  A    between atoms: N_23  and  C_28
    9  A    between atoms: C_24  and  C_37
   10  A    between atoms: C_24  and  C_38
   11  A    between atoms: C_25  and  C_31
   12  A    between atoms: C_28  and  C_29
   13  A    between atoms: C_32  and  C_37
                            x       y       z     vdW  Elec       q    Type
                         _______ _______ _______ _____ _____    ______ ____

>  <TORSDO>
F 13

$$$$
=
 OpenBabel10232410233D

 42 45  0  0  1  0  0  0  0  0999 V2000
  188.9330  177.8480  141.2030 C   0  0  0  0  0  0  0  0  0  0  0  0
  187.8710  178.4330  140.6840 C   0  0  0  0  0  3  0  0  0  0  0  0
  187.7790  178.0400  139.2960 C   0  0  0  0  0  0  0  0  0  0  0  0
  186.7870  178.3810  138.5320 N   0  0  0  0  0  0  0  0  0  0  0  0
  188.9150  177.1570  138.9030 C   0  0  2  0  0  3  0  0  0  0  0  0
  189.6690  176.9810  140.2220 C   0  0  0  0  0  2  0  0  0  0  0  0
  186.6680  177.9490  137.1470 C   0  0  0  0  0  2  0  0  0  0  0  0
  185.4740  177.0170  136.9910 C   0  0  0  0  0  2  0  0  0  0  0  0
  184.8700  174.7110  136.8460 F   0  0  0  0  0  0  0  0  0  0  0  0
  185.8950  175.6060  136.5990 C   0  0  0  0  0  0  0  0  0  0  0  0
  186.1920  175.5850  135.2490 F   0  0  0  0  0  0  0  0  0  0  0  0
  187.0180  175.2310  137.3120 F   0  0  0  0  0  0  0  0  0  0  0  0
  189.8080  177.8710  137.8980 C   0  0  0  0  0  2  0  0  0  0  0  0
  191.4950  174.6640  137.5270 C   0  0  0  0  0  2  0  0  0  0  0  0
  190.8480  176.3200  134.7340 C   0  0  0  0  0  2  0  0  0  0  0  0
  190.5380  176.9000  137.1010 N   0  0  0  0  0  0  0  0  0  0  0  0
  190.2970  175.6000  137.7110 C   0  0  0  0  0  2  0  0  0  0  0  0
  191.2170  174.8650  135.0040 C   0  0  0  0  0  2  0  0  0  0  0  0
  189.8960  176.8680  135.7930 C   0  0  0  0  0  2  0  0  0  0  0  0
  192.1980  174.7790  136.1710 C   0  0  2  0  0  3  0  0  0  0  0  0
  193.1060  173.6100  135.9940 C   0  0  0  0  0  3  0  0  0  0  0  0
  194.3510  173.7010  136.2970 N   0  0  0  0  0  0  0  0  0  0  0  0
  194.7170  170.4250  137.1600 C   0  0  0  0  0  2  0  0  0  0  0  0
  196.0310  170.9180  137.7200 C   0  0  0  0  0  2  0  0  0  0  0  0
  196.0710  172.3930  137.3740 C   0  0  2  0  0  3  0  0  0  0  0  0
  194.4320  171.2920  135.9480 C   0  0  0  0  0  2  0  0  0  0  0  0
  195.2330  172.5770  136.1230 C   0  0  1  0  0  3  0  0  0  0  0  0
  197.4880  172.9590  137.2310 C   0  0  1  0  0  3  0  0  0  0  0  0
  197.8930  172.9020  135.8970 O   0  0  0  0  0  1  0  0  0  0  0  0
  197.6860  174.6640  137.8630 P   0  0  0  0  0  0  0  0  0  0  0  0
  197.5600  175.7770  136.5950 O   0  0  0  0  0  0  0  0  0  0  0  0
  196.6260  174.9610  138.8990 O   0  0  0  0  0  1  0  0  0  0  0  0
  199.2130  174.8110  138.5760 O   0  0  0  0  0  1  0  0  0  0  0  0
  189.3180  178.0510  142.6350 C   0  0  0  0  0  2  0  0  0  0  0  0
  188.8990  176.8860  143.5190 C   0  0  0  0  0  2  0  0  0  0  0  0
  187.5520  177.1650  144.1650 C   0  0  0  0  0  2  0  0  0  0  0  0
  186.6090  177.5530  146.3450 O   0  0  0  0  0  0  0  0  0  0  0  0
  187.9120  178.0170  148.3480 C   0  0  0  0  0  2  0  0  0  0  0  0
  189.0230  177.3200  146.1790 C   0  0  0  0  0  2  0  0  0  0  0  0
  186.7260  178.4120  147.4540 C   0  0  0  0  0  2  0  0  0  0  0  0
  187.7240  177.8200  145.5280 C   0  0  1  0  0  3  0  0  0  0  0  0
  188.8230  176.9950  147.6630 C   0  0  0  0  0  2  0  0  0  0  0  0
  1 34  1  0  0  0  0
  2  1  2  0  0  0  0
  3  2  1  0  0  0  0
  4  3  2  0  0  0  0
  5 13  1  6  0  0  0
  5  3  1  0  0  0  0
  5  6  1  0  0  0  0
  6  1  1  0  0  0  0
  7  4  1  0  0  0  0
  8  7  1  0  0  0  0
 10  9  1  0  0  0  0
 10  8  1  0  0  0  0
 10 12  1  0  0  0  0
 11 10  1  0  0  0  0
 14 17  1  0  0  0  0
 15 18  1  0  0  0  0
 15 19  1  0  0  0  0
 16 17  1  0  0  0  0
 16 13  1  0  0  0  0
 18 20  1  0  0  0  0
 19 16  1  0  0  0  0
 20 21  1  6  0  0  0
 20 14  1  0  0  0  0
 21 22  2  0  0  0  0
 23 24  1  0  0  0  0
 25 28  1  6  0  0  0
 25 24  1  0  0  0  0
 26 27  1  0  0  0  0
 26 23  1  0  0  0  0
 27 22  1  1  0  0  0
 27 25  1  0  0  0  0
 28 29  1  6  0  0  0
 28 30  1  0  0  0  0
 30 33  1  0  0  0  0
 30 32  1  0  0  0  0
 31 30  2  0  0  0  0
 34 35  1  0  0  0  0
 35 36  1  0  0  0  0
 37 40  1  0  0  0  0
 39 42  1  0  0  0  0
 40 38  1  0  0  0  0
 41 36  1  6  0  0  0
 41 39  1  0  0  0  0
 41 37  1  0  0  0  0
 42 38  1  0  0  0  0
M  END
>  <MODEL>
7

>  <REMARK>
 VINA RESULT:      -7.4      2.727      4.577
  Name = 
  13 active torsions:
  status: ('A' for Active; 'I' for Inactive)
    1  A    between atoms: P_2  and  C_22
    2  A    between atoms: C_5  and  C_41
    3  A    between atoms: C_7  and  C_32
    4  A    between atoms: C_9  and  C_29
    5  A    between atoms: C_10  and  C_22
    6  A    between atoms: N_12  and  C_17
    7  A    between atoms: N_14  and  C_31
    8  A    between atoms: N_23  and  C_28
    9  A    between atoms: C_24  and  C_37
   10  A    between atoms: C_24  and  C_38
   11  A    between atoms: C_25  and  C_31
   12  A    between atoms: C_28  and  C_29
   13  A    between atoms: C_32  and  C_37
                            x       y       z     vdW  Elec       q    Type
                         _______ _______ _______ _____ _____    ______ ____

>  <TORSDO>
F 13

$$$$
=
 OpenBabel10232410233D

 42 45  0  0  1  0  0  0  0  0999 V2000
  181.5720  176.3850  138.5650 C   0  0  0  0  0  0  0  0  0  0  0  0
  182.4250  176.9400  137.7260 C   0  0  0  0  0  3  0  0  0  0  0  0
  183.5460  177.4350  138.4920 C   0  0  0  0  0  0  0  0  0  0  0  0
  184.5990  177.9570  137.9430 N   0  0  0  0  0  0  0  0  0  0  0  0
  183.3540  177.2000  139.9530 C   0  0  2  0  0  3  0  0  0  0  0  0
  182.0320  176.4310  139.9940 C   0  0  0  0  0  2  0  0  0  0  0  0
  185.7500  178.4130  138.7090 C   0  0  0  0  0  2  0  0  0  0  0  0
  187.0220  178.2480  137.8900 C   0  0  0  0  0  2  0  0  0  0  0  0
  189.2500  178.8280  138.5260 F   0  0  0  0  0  0  0  0  0  0  0  0
  188.2290  177.9270  138.7640 C   0  0  0  0  0  0  0  0  0  0  0  0
  187.8560  178.0120  140.0920 F   0  0  0  0  0  0  0  0  0  0  0  0
  188.6750  176.6440  138.5030 F   0  0  0  0  0  0  0  0  0  0  0  0
  183.1930  178.5280  140.6790 C   0  0  0  0  0  2  0  0  0  0  0  0
  185.9600  178.4330  143.0470 C   0  0  0  0  0  2  0  0  0  0  0  0
  182.9300  178.7910  144.3340 C   0  0  0  0  0  2  0  0  0  0  0  0
  183.7080  178.4210  142.0330 N   0  0  0  0  0  0  0  0  0  0  0  0
  185.0080  179.0770  142.0350 C   0  0  0  0  0  2  0  0  0  0  0  0
  184.3240  179.0260  144.9070 C   0  0  0  0  0  2  0  0  0  0  0  0
  182.8360  179.2290  142.8760 C   0  0  0  0  0  2  0  0  0  0  0  0
  185.3000  177.9890  144.3570 C   0  0  2  0  0  3  0  0  0  0  0  0
  186.3630  177.7000  145.3610 C   0  0  0  0  0  3  0  0  0  0  0  0
  187.4880  177.2020  144.9940 N   0  0  0  0  0  0  0  0  0  0  0  0
  188.6740  178.2180  148.0220 C   0  0  0  0  0  2  0  0  0  0  0  0
  189.9540  178.4070  147.2430 C   0  0  0  0  0  2  0  0  0  0  0  0
  189.6260  177.9420  145.8390 C   0  0  2  0  0  3  0  0  0  0  0  0
  187.9660  177.0420  147.3770 C   0  0  0  0  0  2  0  0  0  0  0  0
  188.5150  176.9150  145.9610 C   0  0  1  0  0  3  0  0  0  0  0  0
  190.8370  177.4190  145.0580 C   0  0  1  0  0  3  0  0  0  0  0  0
  191.2900  176.2260  145.6210 O   0  0  0  0  0  1  0  0  0  0  0  0
  190.5360  177.1830  143.2690 P   0  0  0  0  0  0  0  0  0  0  0  0
  191.9920  177.2740  142.4140 O   0  0  0  0  0  0  0  0  0  0  0  0
  189.8910  175.8390  143.0230 O   0  0  0  0  0  1  0  0  0  0  0  0
  189.4980  178.4020  142.7230 O   0  0  0  0  0  1  0  0  0  0  0  0
  180.2910  175.7740  138.0900 C   0  0  0  0  0  2  0  0  0  0  0  0
  180.4890  174.8800  136.8760 C   0  0  0  0  0  2  0  0  0  0  0  0
  181.0380  173.5260  137.2950 C   0  0  0  0  0  2  0  0  0  0  0  0
  183.1730  173.9080  136.2520 O   0  0  0  0  0  0  0  0  0  0  0  0
  184.5990  172.1540  135.3480 C   0  0  0  0  0  2  0  0  0  0  0  0
  182.5230  171.6090  136.6960 C   0  0  0  0  0  2  0  0  0  0  0  0
  183.9310  173.5220  135.1300 C   0  0  0  0  0  2  0  0  0  0  0  0
  182.0770  173.0260  136.3030 C   0  0  1  0  0  3  0  0  0  0  0  0
  184.0420  171.4410  136.5830 C   0  0  0  0  0  2  0  0  0  0  0  0
  1  6  1  0  0  0  0
  2  3  1  0  0  0  0
  2  1  2  0  0  0  0
  3  5  1  0  0  0  0
  4  3  2  0  0  0  0
  4  7  1  0  0  0  0
  5  6  1  0  0  0  0
  5 13  1  1  0  0  0
  8  7  1  0  0  0  0
  8 10  1  0  0  0  0
  9 10  1  0  0  0  0
 10 11  1  0  0  0  0
 12 10  1  0  0  0  0
 13 16  1  0  0  0  0
 14 20  1  0  0  0  0
 15 18  1  0  0  0  0
 16 17  1  0  0  0  0
 16 19  1  0  0  0  0
 17 14  1  0  0  0  0
 19 15  1  0  0  0  0
 20 18  1  0  0  0  0
 20 21  1  1  0  0  0
 22 21  2  0  0  0  0
 24 23  1  0  0  0  0
 25 28  1  1  0  0  0
 25 27  1  0  0  0  0
 25 24  1  0  0  0  0
 26 23  1  0  0  0  0
 27 22  1  6  0  0  0
 27 26  1  0  0  0  0
 28 29  1  1  0  0  0
 30 28  1  0  0  0  0
 31 30  2  0  0  0  0
 32 30  1  0  0  0  0
 33 30  1  0  0  0  0
 34  1  1  0  0  0  0
 35 36  1  0  0  0  0
 35 34  1  0  0  0  0
 37 41  1  0  0  0  0
 38 42  1  0  0  0  0
 40 38  1  0  0  0  0
 40 37  1  0  0  0  0
 41 39  1  0  0  0  0
 41 36  1  1  0  0  0
 42 39  1  0  0  0  0
M  END
>  <MODEL>
8

>  <REMARK>
 VINA RESULT:      -7.4      4.350      9.224
  Name = 
  13 active torsions:
  status: ('A' for Active; 'I' for Inactive)
    1  A    between atoms: P_2  and  C_22
    2  A    between atoms: C_5  and  C_41
    3  A    between atoms: C_7  and  C_32
    4  A    between atoms: C_9  and  C_29
    5  A    between atoms: C_10  and  C_22
    6  A    between atoms: N_12  and  C_17
    7  A    between atoms: N_14  and  C_31
    8  A    between atoms: N_23  and  C_28
    9  A    between atoms: C_24  and  C_37
   10  A    between atoms: C_24  and  C_38
   11  A    between atoms: C_25  and  C_31
   12  A    between atoms: C_28  and  C_29
   13  A    between atoms: C_32  and  C_37
                            x       y       z     vdW  Elec       q    Type
                         _______ _______ _______ _____ _____    ______ ____

>  <TORSDO>
F 13

$$$$
=
 OpenBabel10232410233D

 42 45  0  0  1  0  0  0  0  0999 V2000
  190.1590  177.7400  142.5320 C   0  0  0  0  0  0  0  0  0  0  0  0
  188.9830  178.2920  142.7590 C   0  0  0  0  0  3  0  0  0  0  0  0
  188.2000  178.1890  141.5480 C   0  0  0  0  0  0  0  0  0  0  0  0
  186.9600  178.5630  141.4770 N   0  0  0  0  0  0  0  0  0  0  0  0
  188.9790  177.5460  140.4500 C   0  0  2  0  0  3  0  0  0  0  0  0
  190.2950  177.1890  141.1420 C   0  0  0  0  0  2  0  0  0  0  0  0
  186.1560  178.4160  140.2720 C   0  0  0  0  0  2  0  0  0  0  0  0
  184.8300  179.1460  140.4370 C   0  0  0  0  0  2  0  0  0  0  0  0
  182.5680  178.9400  141.1760 F   0  0  0  0  0  0  0  0  0  0  0  0
  183.7910  178.2930  141.1540 C   0  0  0  0  0  0  0  0  0  0  0  0
  183.6520  177.0950  140.4790 F   0  0  0  0  0  0  0  0  0  0  0  0
  184.2010  178.0350  142.4490 F   0  0  0  0  0  0  0  0  0  0  0  0
  189.2450  178.5530  139.3390 C   0  0  0  0  0  2  0  0  0  0  0  0
  190.3830  175.5790  137.5690 C   0  0  0  0  0  2  0  0  0  0  0  0
  189.1890  178.0390  135.7020 C   0  0  0  0  0  2  0  0  0  0  0  0
  189.6100  177.8600  138.1160 N   0  0  0  0  0  0  0  0  0  0  0  0
  189.3980  176.4410  138.3640 C   0  0  0  0  0  2  0  0  0  0  0  0
  189.4480  176.5640  135.4150 C   0  0  0  0  0  2  0  0  0  0  0  0
  188.6340  178.2540  137.1070 C   0  0  0  0  0  2  0  0  0  0  0  0
  190.6940  176.0940  136.1600 C   0  0  2  0  0  3  0  0  0  0  0  0
  191.3780  175.0160  135.3900 C   0  0  0  0  0  3  0  0  0  0  0  0
  192.4850  174.5180  135.8100 N   0  0  0  0  0  0  0  0  0  0  0  0
  192.2910  171.1930  135.0870 C   0  0  0  0  0  2  0  0  0  0  0  0
  193.6840  171.1810  135.6720 C   0  0  0  0  0  2  0  0  0  0  0  0
  193.9740  172.6280  136.0150 C   0  0  2  0  0  3  0  0  0  0  0  0
  192.1350  172.5470  134.4210 C   0  0  0  0  0  2  0  0  0  0  0  0
  193.1520  173.4810  135.0670 C   0  0  1  0  0  3  0  0  0  0  0  0
  195.4650  172.9840  135.9960 C   0  0  1  0  0  3  0  0  0  0  0  0
  195.7160  173.9400  135.0110 O   0  0  0  0  0  1  0  0  0  0  0  0
  196.1210  173.5650  137.6020 P   0  0  0  0  0  0  0  0  0  0  0  0
  197.7890  173.2970  137.6840 O   0  0  0  0  0  0  0  0  0  0  0  0
  195.8390  175.0400  137.7760 O   0  0  0  0  0  1  0  0  0  0  0  0
  195.3620  172.7070  138.8460 O   0  0  0  0  0  1  0  0  0  0  0  0
  191.2160  177.6850  143.5900 C   0  0  0  0  0  2  0  0  0  0  0  0
  191.0220  176.5150  144.5430 C   0  0  0  0  0  2  0  0  0  0  0  0
  191.0070  176.9980  145.9840 C   0  0  0  0  0  2  0  0  0  0  0  0
  188.6050  176.9150  145.8710 O   0  0  0  0  0  0  0  0  0  0  0  0
  187.1120  178.0380  147.4320 C   0  0  0  0  0  2  0  0  0  0  0  0
  189.6130  177.9410  147.8300 C   0  0  0  0  0  2  0  0  0  0  0  0
  187.4730  177.7460  145.9660 C   0  0  0  0  0  2  0  0  0  0  0  0
  189.6930  177.6890  146.3160 C   0  0  1  0  0  3  0  0  0  0  0  0
  188.2270  177.6040  148.3870 C   0  0  0  0  0  2  0  0  0  0  0  0
  1  2  2  0  0  0  0
  1 34  1  0  0  0  0
  3  2  1  0  0  0  0
  4  3  2  0  0  0  0
  5 13  1  6  0  0  0
  5  6  1  0  0  0  0
  5  3  1  0  0  0  0
  6  1  1  0  0  0  0
  7  8  1  0  0  0  0
  7  4  1  0  0  0  0
  8 10  1  0  0  0  0
 10  9  1  0  0  0  0
 10 12  1  0  0  0  0
 11 10  1  0  0  0  0
 14 17  1  0  0  0  0
 15 19  1  0  0  0  0
 16 17  1  0  0  0  0
 16 13  1  0  0  0  0
 18 15  1  0  0  0  0
 18 20  1  0  0  0  0
 19 16  1  0  0  0  0
 20 21  1  6  0  0  0
 20 14  1  0  0  0  0
 21 22  2  0  0  0  0
 23 24  1  0  0  0  0
 24 25  1  0  0  0  0
 25 28  1  6  0  0  0
 26 27  1  0  0  0  0
 26 23  1  0  0  0  0
 27 22  1  1  0  0  0
 27 25  1  0  0  0  0
 28 29  1  6  0  0  0
 28 30  1  0  0  0  0
 30 31  2  0  0  0  0
 30 32  1  0  0  0  0
 30 33  1  0  0  0  0
 34 35  1  0  0  0  0
 35 36  1  0  0  0  0
 37 40  1  0  0  0  0
 37 41  1  0  0  0  0
 38 42  1  0  0  0  0
 39 42  1  0  0  0  0
 40 38  1  0  0  0  0
 41 36  1  1  0  0  0
 41 39  1  0  0  0  0
M  END
>  <MODEL>
9

>  <REMARK>
 VINA RESULT:      -7.4      1.684      3.406
  Name = 
  13 active torsions:
  status: ('A' for Active; 'I' for Inactive)
    1  A    between atoms: P_2  and  C_22
    2  A    between atoms: C_5  and  C_41
    3  A    between atoms: C_7  and  C_32
    4  A    between atoms: C_9  and  C_29
    5  A    between atoms: C_10  and  C_22
    6  A    between atoms: N_12  and  C_17
    7  A    between atoms: N_14  and  C_31
    8  A    between atoms: N_23  and  C_28
    9  A    between atoms: C_24  and  C_37
   10  A    between atoms: C_24  and  C_38
   11  A    between atoms: C_25  and  C_31
   12  A    between atoms: C_28  and  C_29
   13  A    between atoms: C_32  and  C_37
                            x       y       z     vdW  Elec       q    Type
                         _______ _______ _______ _____ _____    ______ ____

>  <TORSDO>
F 13

$$$$
