=
 OpenBabel10232409453D

 25 27  0  0  1  0  0  0  0  0999 V2000
  188.3750  178.5490  141.0130 C   0  0  0  0  0  2  0  0  0  0  0  0
  189.5190  178.1260  137.6410 N   0  0  0  0  0  2  0  0  0  0  0  0
  189.6820  176.8450  139.7160 C   0  0  0  0  0  2  0  0  0  0  0  0
  190.0060  176.8570  138.2160 C   0  0  2  0  0  0  0  0  0  0  0  0
  188.9710  178.1150  139.9020 C   0  0  0  0  0  0  0  0  0  0  0  0
  188.8800  178.8080  138.6850 N   0  0  0  0  0  0  0  0  0  0  0  0
  190.7880  178.2840  143.1970 C   0  0  0  0  0  3  0  0  0  0  0  0
  187.6640  176.8870  144.1210 N   0  0  0  0  0  0  0  0  0  0  0  0
  189.4780  177.8090  143.2210 C   0  0  0  0  0  0  0  0  0  0  0  0
  187.3350  177.3400  142.9140 N   0  0  0  0  0  0  0  0  0  0  0  0
  188.4240  177.8950  142.3330 C   0  0  0  0  0  0  0  0  0  0  0  0
  189.7240  176.9200  145.4520 C   0  0  0  0  0  3  0  0  0  0  0  0
  191.5850  178.0440  144.3300 C   0  0  0  0  0  2  0  0  0  0  0  0
  191.0620  177.3580  145.4560 C   0  0  0  0  0  0  0  0  0  0  0  0
  188.9630  177.1690  144.3130 C   0  0  0  0  0  0  0  0  0  0  0  0
  192.0640  175.8010  147.0960 C   0  0  0  0  0  1  0  0  0  0  0  0
  191.8460  177.1100  146.5860 O   0  0  0  0  0  0  0  0  0  0  0  0
  191.5220  176.7680  137.9940 C   0  0  0  0  0  2  0  0  0  0  0  0
  192.0410  175.3410  137.8490 C   0  0  0  0  0  2  0  0  0  0  0  0
  193.5420  175.3420  137.6440 C   0  0  0  0  0  1  0  0  0  0  0  0
  189.2750  175.6900  137.5500 C   0  0  0  0  0  2  0  0  0  0  0  0
  188.2980  176.1670  136.5810 N   0  0  0  0  0  2  0  0  0  0  0  0
  186.9990  175.7230  137.0480 C   0  0  0  0  0  2  0  0  0  0  0  0
  186.2250  176.8310  137.3900 O   0  0  0  0  0  0  0  0  0  0  0  0
  186.1750  177.5940  136.2240 C   0  0  0  0  0  1  0  0  0  0  0  0
  1 11  1  0  0  0  0
  2  4  1  0  0  0  0
  2  6  1  0  0  0  0
  3  5  1  0  0  0  0
  4 21  1  6  0  0  0
  4  3  1  0  0  0  0
  5  1  1  0  0  0  0
  6  5  2  0  0  0  0
  7  9  2  0  0  0  0
  7 13  1  0  0  0  0
  8 15  2  0  0  0  0
  9 15  1  0  0  0  0
 10  8  1  0  0  0  0
 11 10  2  0  0  0  0
 11  9  1  0  0  0  0
 12 14  2  0  0  0  0
 13 14  1  0  0  0  0
 14 17  1  0  0  0  0
 15 12  1  0  0  0  0
 17 16  1  0  0  0  0
 18  4  1  0  0  0  0
 19 18  1  0  0  0  0
 20 19  1  0  0  0  0
 22 23  1  0  0  0  0
 22 21  1  0  0  0  0
 23 24  1  0  0  0  0
 25 24  1  0  0  0  0
M  END
>  <MODEL>
1

>  <REMARK>
 VINA RESULT:      -6.5      0.000      0.000
  Name = 
  8 active torsions:
  status: ('A' for Active; 'I' for Inactive)
    1  A    between atoms: N_2  and  C_15
    2  A    between atoms: N_2  and  C_21
    3  A    between atoms: O_5  and  C_23
    4  A    between atoms: C_6  and  C_13
    5  A    between atoms: C_7  and  C_10
    6  A    between atoms: O_8  and  C_21
    7  A    between atoms: C_10  and  C_19
    8  A    between atoms: C_15  and  C_19
                            x       y       z     vdW  Elec       q    Type
                         _______ _______ _______ _____ _____    ______ ____

>  <TORSDO>
F 8

$$$$
=
 OpenBabel10232409453D

 25 27  0  0  1  0  0  0  0  0999 V2000
  189.0930  177.0650  138.5110 C   0  0  0  0  0  3  0  0  0  0  0  0
  187.7860  178.5900  141.4830 N   0  0  0  0  0  0  0  0  0  0  0  0
  189.3990  176.8200  140.9890 C   0  0  0  0  0  2  0  0  0  0  0  0
  188.7480  177.6570  142.1000 C   0  0  2  0  0  0  0  0  0  0  0  0
  188.7900  177.3720  139.7730 C   0  0  0  0  0  0  0  0  0  0  0  0
  187.8900  178.3980  140.0980 N   0  0  0  0  0  0  0  0  0  0  0  0
  192.3540  176.8970  138.5470 C   0  0  0  0  0  3  0  0  0  0  0  0
  190.6390  174.0200  137.3880 N   0  0  0  0  0  0  0  0  0  0  0  0
  191.3970  175.9820  138.1110 C   0  0  0  0  0  0  0  0  0  0  0  0
  189.5880  174.7920  137.6480 N   0  0  0  0  0  0  0  0  0  0  0  0
  190.0170  176.0020  138.0770 C   0  0  0  0  0  0  0  0  0  0  0  0
  193.0650  174.3180  137.5880 C   0  0  0  0  0  3  0  0  0  0  0  0
  193.7030  176.5070  138.4750 C   0  0  0  0  0  2  0  0  0  0  0  0
  194.0650  175.2240  137.9910 C   0  0  0  0  0  0  0  0  0  0  0  0
  191.7400  174.7360  137.6670 C   0  0  0  0  0  0  0  0  0  0  0  0
  196.0210  174.0080  138.8950 C   0  0  0  0  0  1  0  0  0  0  0  0
  195.4030  174.8260  137.9110 O   0  0  0  0  0  0  0  0  0  0  0  0
  187.9920  176.7500  143.0800 C   0  0  0  0  0  2  0  0  0  0  0  0
  187.9560  177.2810  144.5090 C   0  0  0  0  0  2  0  0  0  0  0  0
  186.5240  177.4990  144.9570 C   0  0  0  0  0  1  0  0  0  0  0  0
  189.8410  178.4580  142.8100 C   0  0  0  0  0  2  0  0  0  0  0  0
  191.1210  177.7680  142.7470 N   0  0  0  0  0  2  0  0  0  0  0  0
  191.6460  177.7420  144.0990 C   0  0  0  0  0  2  0  0  0  0  0  0
  191.6080  176.4370  144.5870 O   0  0  0  0  0  0  0  0  0  0  0  0
  191.6680  176.5800  145.9730 C   0  0  0  0  0  1  0  0  0  0  0  0
  1  5  2  0  0  0  0
  2  4  1  0  0  0  0
  3  4  1  0  0  0  0
  4 21  1  1  0  0  0
  4 18  1  0  0  0  0
  5  6  1  0  0  0  0
  5  3  1  0  0  0  0
  6  2  2  0  0  0  0
  8 10  1  0  0  0  0
  8 15  2  0  0  0  0
  9  7  2  0  0  0  0
 10 11  2  0  0  0  0
 11  9  1  0  0  0  0
 11  1  1  0  0  0  0
 12 15  1  0  0  0  0
 12 14  2  0  0  0  0
 13  7  1  0  0  0  0
 14 13  1  0  0  0  0
 15  9  1  0  0  0  0
 17 14  1  0  0  0  0
 17 16  1  0  0  0  0
 18 19  1  0  0  0  0
 19 20  1  0  0  0  0
 22 21  1  0  0  0  0
 22 23  1  0  0  0  0
 23 24  1  0  0  0  0
 24 25  1  0  0  0  0
M  END
>  <MODEL>
2

>  <REMARK>
 VINA RESULT:      -6.3      2.540      7.041
  Name = 
  8 active torsions:
  status: ('A' for Active; 'I' for Inactive)
    1  A    between atoms: N_2  and  C_15
    2  A    between atoms: N_2  and  C_21
    3  A    between atoms: O_5  and  C_23
    4  A    between atoms: C_6  and  C_13
    5  A    between atoms: C_7  and  C_10
    6  A    between atoms: O_8  and  C_21
    7  A    between atoms: C_10  and  C_19
    8  A    between atoms: C_15  and  C_19
                            x       y       z     vdW  Elec       q    Type
                         _______ _______ _______ _____ _____    ______ ____

>  <TORSDO>
F 8

$$$$
=
 OpenBabel10232409453D

 25 27  0  0  1  0  0  0  0  0999 V2000
  188.4340  178.3030  141.6260 C   0  0  0  0  0  2  0  0  0  0  0  0
  187.0810  178.3490  138.3050 N   0  0  0  0  0  2  0  0  0  0  0  0
  189.0840  177.4310  139.3650 C   0  0  0  0  0  2  0  0  0  0  0  0
  188.2840  177.5310  138.0580 C   0  0  2  0  0  0  0  0  0  0  0  0
  188.2450  178.1760  140.3120 C   0  0  0  0  0  0  0  0  0  0  0  0
  187.0970  178.6650  139.6700 N   0  0  0  0  0  0  0  0  0  0  0  0
  188.8870  177.8190  144.8230 C   0  0  0  0  0  3  0  0  0  0  0  0
  191.5980  176.9760  142.7020 N   0  0  0  0  0  0  0  0  0  0  0  0
  189.7490  177.6450  143.7430 C   0  0  0  0  0  0  0  0  0  0  0  0
  190.7410  177.4010  141.7780 N   0  0  0  0  0  0  0  0  0  0  0  0
  189.6080  177.8300  142.3810 C   0  0  0  0  0  0  0  0  0  0  0  0
  191.5060  176.7650  145.1430 C   0  0  0  0  0  3  0  0  0  0  0  0
  189.3680  177.4740  146.0990 C   0  0  0  0  0  2  0  0  0  0  0  0
  190.6770  176.9530  146.2660 C   0  0  0  0  0  0  0  0  0  0  0  0
  191.0020  177.1210  143.8960 C   0  0  0  0  0  0  0  0  0  0  0  0
  192.3020  175.7720  147.7090 C   0  0  0  0  0  1  0  0  0  0  0  0
  191.1690  176.6100  147.5290 O   0  0  0  0  0  0  0  0  0  0  0  0
  189.1240  178.2100  136.9670 C   0  0  0  0  0  2  0  0  0  0  0  0
  188.6950  177.8520  135.5480 C   0  0  0  0  0  2  0  0  0  0  0  0
  189.7970  177.0940  134.8370 C   0  0  0  0  0  1  0  0  0  0  0  0
  187.8570  176.1230  137.6390 C   0  0  0  0  0  2  0  0  0  0  0  0
  186.4510  176.0920  137.2650 N   0  0  0  0  0  2  0  0  0  0  0  0
  186.2410  174.8540  136.5380 C   0  0  0  0  0  2  0  0  0  0  0  0
  186.8700  173.8080  137.2120 O   0  0  0  0  0  0  0  0  0  0  0  0
  185.8270  172.9770  137.6190 C   0  0  0  0  0  1  0  0  0  0  0  0
  1 11  1  0  0  0  0
  2  6  1  0  0  0  0
  3  5  1  0  0  0  0
  4 18  1  6  0  0  0
  4  2  1  0  0  0  0
  4  3  1  0  0  0  0
  5  1  1  0  0  0  0
  6  5  2  0  0  0  0
  7 13  1  0  0  0  0
  8 15  2  0  0  0  0
  9 15  1  0  0  0  0
  9  7  2  0  0  0  0
 10 11  2  0  0  0  0
 10  8  1  0  0  0  0
 11  9  1  0  0  0  0
 12 14  2  0  0  0  0
 13 14  1  0  0  0  0
 14 17  1  0  0  0  0
 15 12  1  0  0  0  0
 17 16  1  0  0  0  0
 19 18  1  0  0  0  0
 20 19  1  0  0  0  0
 21  4  1  0  0  0  0
 22 21  1  0  0  0  0
 23 24  1  0  0  0  0
 23 22  1  0  0  0  0
 24 25  1  0  0  0  0
M  END
>  <MODEL>
3

>  <REMARK>
 VINA RESULT:      -6.0      2.217      2.615
  Name = 
  8 active torsions:
  status: ('A' for Active; 'I' for Inactive)
    1  A    between atoms: N_2  and  C_15
    2  A    between atoms: N_2  and  C_21
    3  A    between atoms: O_5  and  C_23
    4  A    between atoms: C_6  and  C_13
    5  A    between atoms: C_7  and  C_10
    6  A    between atoms: O_8  and  C_21
    7  A    between atoms: C_10  and  C_19
    8  A    between atoms: C_15  and  C_19
                            x       y       z     vdW  Elec       q    Type
                         _______ _______ _______ _____ _____    ______ ____

>  <TORSDO>
F 8

$$$$
=
 OpenBabel10232409453D

 25 27  0  0  1  0  0  0  0  0999 V2000
  191.5010  177.6750  141.6570 C   0  0  0  0  0  2  0  0  0  0  0  0
  192.6200  176.7260  138.3840 N   0  0  0  0  0  2  0  0  0  0  0  0
  190.5190  176.5750  139.6260 C   0  0  0  0  0  2  0  0  0  0  0  0
  191.2060  176.3210  138.2760 C   0  0  2  0  0  0  0  0  0  0  0  0
  191.5970  177.1680  140.4270 C   0  0  0  0  0  0  0  0  0  0  0  0
  192.7770  177.2580  139.6720 N   0  0  0  0  0  0  0  0  0  0  0  0
  191.1930  177.1350  144.8620 C   0  0  0  0  0  3  0  0  0  0  0  0
  188.2070  177.8380  143.0880 N   0  0  0  0  0  0  0  0  0  0  0  0
  190.2350  177.3830  143.8820 C   0  0  0  0  0  0  0  0  0  0  0  0
  189.0650  177.9070  142.0750 N   0  0  0  0  0  0  0  0  0  0  0  0
  190.3100  177.6200  142.5240 C   0  0  0  0  0  0  0  0  0  0  0  0
  188.4330  177.3860  145.4880 C   0  0  0  0  0  3  0  0  0  0  0  0
  190.7440  176.9870  146.1860 C   0  0  0  0  0  2  0  0  0  0  0  0
  189.3660  177.1050  146.5050 C   0  0  0  0  0  0  0  0  0  0  0  0
  188.9100  177.5210  144.1880 C   0  0  0  0  0  0  0  0  0  0  0  0
  188.2270  177.9930  148.5130 C   0  0  0  0  0  1  0  0  0  0  0  0
  188.9060  176.9570  147.8160 O   0  0  0  0  0  0  0  0  0  0  0  0
  191.1480  174.8290  137.9190 C   0  0  0  0  0  2  0  0  0  0  0  0
  192.4420  174.2890  137.3190 C   0  0  0  0  0  2  0  0  0  0  0  0
  192.3320  174.2070  135.8100 C   0  0  0  0  0  1  0  0  0  0  0  0
  190.5170  177.1760  137.2110 C   0  0  0  0  0  2  0  0  0  0  0  0
  189.1740  177.5520  137.6280 N   0  0  0  0  0  2  0  0  0  0  0  0
  188.9470  178.8970  137.1340 C   0  0  0  0  0  2  0  0  0  0  0  0
  187.5820  179.1760  137.1580 O   0  0  0  0  0  0  0  0  0  0  0  0
  187.0070  178.0530  137.7520 C   0  0  0  0  0  1  0  0  0  0  0  0
  1 11  1  0  0  0  0
  2  6  1  0  0  0  0
  3  5  1  0  0  0  0
  4 21  1  6  0  0  0
  4  2  1  0  0  0  0
  4  3  1  0  0  0  0
  5  1  1  0  0  0  0
  6  5  2  0  0  0  0
  7 13  1  0  0  0  0
  8 15  2  0  0  0  0
  9 15  1  0  0  0  0
  9  7  2  0  0  0  0
 10 11  2  0  0  0  0
 10  8  1  0  0  0  0
 11  9  1  0  0  0  0
 12 14  2  0  0  0  0
 13 14  1  0  0  0  0
 14 17  1  0  0  0  0
 15 12  1  0  0  0  0
 17 16  1  0  0  0  0
 18  4  1  0  0  0  0
 19 18  1  0  0  0  0
 20 19  1  0  0  0  0
 21 22  1  0  0  0  0
 23 24  1  0  0  0  0
 23 22  1  0  0  0  0
 24 25  1  0  0  0  0
M  END
>  <MODEL>
4

>  <REMARK>
 VINA RESULT:      -6.0      1.980      2.485
  Name = 
  8 active torsions:
  status: ('A' for Active; 'I' for Inactive)
    1  A    between atoms: N_2  and  C_15
    2  A    between atoms: N_2  and  C_21
    3  A    between atoms: O_5  and  C_23
    4  A    between atoms: C_6  and  C_13
    5  A    between atoms: C_7  and  C_10
    6  A    between atoms: O_8  and  C_21
    7  A    between atoms: C_10  and  C_19
    8  A    between atoms: C_15  and  C_19
                            x       y       z     vdW  Elec       q    Type
                         _______ _______ _______ _____ _____    ______ ____

>  <TORSDO>
F 8

$$$$
=
 OpenBabel10232409453D

 25 27  0  0  1  0  0  0  0  0999 V2000
  191.4090  177.1910  139.9660 C   0  0  0  0  0  3  0  0  0  0  0  0
  191.5710  178.2160  143.3990 N   0  0  0  0  0  0  0  0  0  0  0  0
  190.0570  176.8470  142.0520 C   0  0  0  0  0  2  0  0  0  0  0  0
  190.3720  177.3590  143.4650 C   0  0  2  0  0  0  0  0  0  0  0  0
  191.1500  177.4180  141.2540 C   0  0  0  0  0  0  0  0  0  0  0  0
  192.0060  178.1760  142.0670 N   0  0  0  0  0  0  0  0  0  0  0  0
  188.4560  177.8080  138.7170 C   0  0  0  0  0  3  0  0  0  0  0  0
  190.0440  174.8370  137.6150 N   0  0  0  0  0  0  0  0  0  0  0  0
  189.3140  176.7250  138.5400 C   0  0  0  0  0  0  0  0  0  0  0  0
  190.9860  175.2750  138.4460 N   0  0  0  0  0  2  0  0  0  0  0  0
  190.5650  176.4170  139.0370 C   0  0  0  0  0  0  0  0  0  0  0  0
  187.8460  175.6830  136.9310 C   0  0  0  0  0  3  0  0  0  0  0  0
  187.2510  177.8060  137.9920 C   0  0  0  0  0  3  0  0  0  0  0  0
  186.9380  176.7450  137.1040 C   0  0  0  0  0  0  0  0  0  0  0  0
  189.0260  175.7120  137.6670 C   0  0  0  0  0  0  0  0  0  0  0  0
  184.4980  177.1230  136.9470 C   0  0  0  0  0  1  0  0  0  0  0  0
  185.7410  176.7300  136.3810 O   0  0  0  0  0  0  0  0  0  0  0  0
  189.2020  178.1930  144.0050 C   0  0  0  0  0  2  0  0  0  0  0  0
  188.0020  177.3600  144.4440 C   0  0  0  0  0  2  0  0  0  0  0  0
  187.5350  177.7890  145.8210 C   0  0  0  0  0  1  0  0  0  0  0  0
  190.6620  176.1560  144.3650 C   0  0  0  0  0  2  0  0  0  0  0  0
  191.7020  176.4670  145.3360 N   0  0  0  0  0  2  0  0  0  0  0  0
  191.0510  176.5500  146.6300 C   0  0  0  0  0  2  0  0  0  0  0  0
  191.9850  176.9200  147.5960 O   0  0  0  0  0  0  0  0  0  0  0  0
  192.5240  175.7140  148.0410 C   0  0  0  0  0  1  0  0  0  0  0  0
  1  5  2  0  0  0  0
  2  4  1  0  0  0  0
  3  4  1  0  0  0  0
  4 18  1  1  0  0  0
  4 21  1  0  0  0  0
  5  3  1  0  0  0  0
  5  6  1  0  0  0  0
  6  2  2  0  0  0  0
  8 15  2  0  0  0  0
  8 10  1  0  0  0  0
  9  7  1  0  0  0  0
  9 11  2  0  0  0  0
 10 11  1  0  0  0  0
 11  1  1  0  0  0  0
 12 14  2  0  0  0  0
 12 15  1  0  0  0  0
 13  7  2  0  0  0  0
 14 13  1  0  0  0  0
 15  9  1  0  0  0  0
 17 16  1  0  0  0  0
 17 14  1  0  0  0  0
 18 19  1  0  0  0  0
 19 20  1  0  0  0  0
 21 22  1  0  0  0  0
 22 23  1  0  0  0  0
 23 24  1  0  0  0  0
 24 25  1  0  0  0  0
M  END
>  <MODEL>
5

>  <REMARK>
 VINA RESULT:      -5.9      2.180      8.061
  Name = 
  8 active torsions:
  status: ('A' for Active; 'I' for Inactive)
    1  A    between atoms: N_2  and  C_15
    2  A    between atoms: N_2  and  C_21
    3  A    between atoms: O_5  and  C_23
    4  A    between atoms: C_6  and  C_13
    5  A    between atoms: C_7  and  C_10
    6  A    between atoms: O_8  and  C_21
    7  A    between atoms: C_10  and  C_19
    8  A    between atoms: C_15  and  C_19
                            x       y       z     vdW  Elec       q    Type
                         _______ _______ _______ _____ _____    ______ ____

>  <TORSDO>
F 8

$$$$
=
 OpenBabel10232409453D

 25 27  0  0  1  0  0  0  0  0999 V2000
  184.4020  178.5160  143.7510 C   0  0  0  0  0  2  0  0  0  0  0  0
  181.7700  178.8470  141.3370 N   0  0  0  0  0  2  0  0  0  0  0  0
  184.1190  178.1730  141.2810 C   0  0  0  0  0  2  0  0  0  0  0  0
  182.8350  178.3300  140.4560 C   0  0  2  0  0  0  0  0  0  0  0  0
  183.6880  178.5740  142.6260 C   0  0  0  0  0  0  0  0  0  0  0  0
  182.3310  178.9300  142.6190 N   0  0  0  0  0  0  0  0  0  0  0  0
  186.3350  178.0840  146.3470 C   0  0  0  0  0  3  0  0  0  0  0  0
  187.8040  177.5090  143.1740 N   0  0  0  0  0  0  0  0  0  0  0  0
  186.6040  177.9940  144.9830 C   0  0  0  0  0  0  0  0  0  0  0  0
  186.5820  177.8460  142.7730 N   0  0  0  0  0  0  0  0  0  0  0  0
  185.8290  178.1620  143.8520 C   0  0  0  0  0  0  0  0  0  0  0  0
  188.8820  177.2930  145.3660 C   0  0  0  0  0  3  0  0  0  0  0  0
  187.3840  177.7900  147.2360 C   0  0  0  0  0  2  0  0  0  0  0  0
  188.6590  177.4000  146.7530 C   0  0  0  0  0  0  0  0  0  0  0  0
  187.8250  177.5960  144.5140 C   0  0  0  0  0  0  0  0  0  0  0  0
  190.9740  176.6370  147.1750 C   0  0  0  0  0  1  0  0  0  0  0  0
  189.7110  177.1090  147.6260 O   0  0  0  0  0  0  0  0  0  0  0  0
  183.0530  179.3300  139.3110 C   0  0  0  0  0  2  0  0  0  0  0  0
  181.8400  180.2090  139.0220 C   0  0  0  0  0  2  0  0  0  0  0  0
  181.3670  180.0060  137.5960 C   0  0  0  0  0  1  0  0  0  0  0  0
  182.4250  176.9550  139.9250 C   0  0  0  0  0  2  0  0  0  0  0  0
  182.8100  176.7960  138.5300 N   0  0  0  0  0  2  0  0  0  0  0  0
  183.1990  175.4090  138.3620 C   0  0  0  0  0  2  0  0  0  0  0  0
  184.0130  175.2880  137.2370 O   0  0  0  0  0  0  0  0  0  0  0  0
  184.8060  176.4360  137.2560 C   0  0  0  0  0  1  0  0  0  0  0  0
  1 11  1  0  0  0  0
  2  6  1  0  0  0  0
  3  5  1  0  0  0  0
  4 18  1  6  0  0  0
  4  3  1  0  0  0  0
  4  2  1  0  0  0  0
  5  1  1  0  0  0  0
  6  5  2  0  0  0  0
  7 13  1  0  0  0  0
  8 15  2  0  0  0  0
  9  7  2  0  0  0  0
 10  8  1  0  0  0  0
 10 11  2  0  0  0  0
 11  9  1  0  0  0  0
 12 14  2  0  0  0  0
 14 13  1  0  0  0  0
 14 17  1  0  0  0  0
 15  9  1  0  0  0  0
 15 12  1  0  0  0  0
 16 17  1  0  0  0  0
 19 18  1  0  0  0  0
 20 19  1  0  0  0  0
 21  4  1  0  0  0  0
 22 21  1  0  0  0  0
 23 22  1  0  0  0  0
 24 25  1  0  0  0  0
 24 23  1  0  0  0  0
M  END
>  <MODEL>
6

>  <REMARK>
 VINA RESULT:      -5.9      4.196      5.922
  Name = 
  8 active torsions:
  status: ('A' for Active; 'I' for Inactive)
    1  A    between atoms: N_2  and  C_15
    2  A    between atoms: N_2  and  C_21
    3  A    between atoms: O_5  and  C_23
    4  A    between atoms: C_6  and  C_13
    5  A    between atoms: C_7  and  C_10
    6  A    between atoms: O_8  and  C_21
    7  A    between atoms: C_10  and  C_19
    8  A    between atoms: C_15  and  C_19
                            x       y       z     vdW  Elec       q    Type
                         _______ _______ _______ _____ _____    ______ ____

>  <TORSDO>
F 8

$$$$
=
 OpenBabel10232409453D

 25 27  0  0  1  0  0  0  0  0999 V2000
  190.1530  177.7130  139.5560 C   0  0  0  0  0  2  0  0  0  0  0  0
  188.7550  177.8060  136.2550 N   0  0  0  0  0  2  0  0  0  0  0  0
  188.0910  176.8610  138.4090 C   0  0  0  0  0  2  0  0  0  0  0  0
  187.6710  177.0860  136.9500 C   0  0  2  0  0  0  0  0  0  0  0  0
  189.3990  177.5240  138.4730 C   0  0  0  0  0  0  0  0  0  0  0  0
  189.7320  178.0720  137.2250 N   0  0  0  0  0  0  0  0  0  0  0  0
  187.7840  178.3570  141.7090 C   0  0  0  0  0  3  0  0  0  0  0  0
  190.1060  175.8420  142.6260 N   0  0  0  0  0  0  0  0  0  0  0  0
  188.8660  177.4820  141.7770 C   0  0  0  0  0  0  0  0  0  0  0  0
  190.6130  176.1630  141.4390 N   0  0  0  0  0  0  0  0  0  0  0  0
  189.8880  177.1710  140.9010 C   0  0  0  0  0  0  0  0  0  0  0  0
  188.1820  176.6270  143.9280 C   0  0  0  0  0  3  0  0  0  0  0  0
  186.8950  178.3750  142.7980 C   0  0  0  0  0  2  0  0  0  0  0  0
  187.0920  177.5180  143.9120 C   0  0  0  0  0  0  0  0  0  0  0  0
  189.0460  176.6390  142.8370 C   0  0  0  0  0  0  0  0  0  0  0  0
  185.2330  178.5380  145.1860 C   0  0  0  0  0  1  0  0  0  0  0  0
  186.2180  177.5300  145.0030 O   0  0  0  0  0  0  0  0  0  0  0  0
  187.4450  175.7410  136.2440 C   0  0  0  0  0  2  0  0  0  0  0  0
  186.4700  174.8210  136.9710 C   0  0  0  0  0  2  0  0  0  0  0  0
  186.4960  173.4340  136.3600 C   0  0  0  0  0  1  0  0  0  0  0  0
  186.4050  177.9450  136.9330 C   0  0  0  0  0  2  0  0  0  0  0  0
  186.2940  178.7370  138.1490 N   0  0  0  0  0  2  0  0  0  0  0  0
  184.9100  178.6530  138.5750 C   0  0  0  0  0  2  0  0  0  0  0  0
  184.6830  179.5700  139.6000 O   0  0  0  0  0  0  0  0  0  0  0  0
  183.9960  178.8430  140.5720 C   0  0  0  0  0  1  0  0  0  0  0  0
  1 11  1  0  0  0  0
  2  4  1  0  0  0  0
  2  6  1  0  0  0  0
  3  5  1  0  0  0  0
  4 18  1  6  0  0  0
  4  3  1  0  0  0  0
  5  1  1  0  0  0  0
  6  5  2  0  0  0  0
  7  9  2  0  0  0  0
  7 13  1  0  0  0  0
  8 15  2  0  0  0  0
  9 15  1  0  0  0  0
 10  8  1  0  0  0  0
 11 10  2  0  0  0  0
 11  9  1  0  0  0  0
 13 14  1  0  0  0  0
 14 12  2  0  0  0  0
 14 17  1  0  0  0  0
 15 12  1  0  0  0  0
 17 16  1  0  0  0  0
 18 19  1  0  0  0  0
 20 19  1  0  0  0  0
 21  4  1  0  0  0  0
 21 22  1  0  0  0  0
 22 23  1  0  0  0  0
 23 24  1  0  0  0  0
 24 25  1  0  0  0  0
M  END
>  <MODEL>
7

>  <REMARK>
 VINA RESULT:      -5.9      2.715      3.999
  Name = 
  8 active torsions:
  status: ('A' for Active; 'I' for Inactive)
    1  A    between atoms: N_2  and  C_15
    2  A    between atoms: N_2  and  C_21
    3  A    between atoms: O_5  and  C_23
    4  A    between atoms: C_6  and  C_13
    5  A    between atoms: C_7  and  C_10
    6  A    between atoms: O_8  and  C_21
    7  A    between atoms: C_10  and  C_19
    8  A    between atoms: C_15  and  C_19
                            x       y       z     vdW  Elec       q    Type
                         _______ _______ _______ _____ _____    ______ ____

>  <TORSDO>
F 8

$$$$
=
 OpenBabel10232409453D

 25 27  0  0  1  0  0  0  0  0999 V2000
  188.7670  178.5900  139.5410 C   0  0  0  0  0  2  0  0  0  0  0  0
  189.4810  177.5100  136.1970 N   0  0  0  0  0  2  0  0  0  0  0  0
  189.2730  176.4250  138.3780 C   0  0  0  0  0  2  0  0  0  0  0  0
  189.4930  176.2000  136.8750 C   0  0  2  0  0  0  0  0  0  0  0  0
  189.0960  177.8800  138.4610 C   0  0  0  0  0  0  0  0  0  0  0  0
  189.2000  178.4610  137.1880 N   0  0  0  0  0  0  0  0  0  0  0  0
  191.0090  177.4410  141.6190 C   0  0  0  0  0  3  0  0  0  0  0  0
  187.6820  177.6150  142.8270 N   0  0  0  0  0  0  0  0  0  0  0  0
  189.6300  177.5890  141.7540 C   0  0  0  0  0  0  0  0  0  0  0  0
  187.4770  178.0860  141.6010 N   0  0  0  0  0  0  0  0  0  0  0  0
  188.6440  178.0690  140.9150 C   0  0  0  0  0  0  0  0  0  0  0  0
  189.6620  176.8310  144.0450 C   0  0  0  0  0  3  0  0  0  0  0  0
  191.7200  176.9510  142.7290 C   0  0  0  0  0  2  0  0  0  0  0  0
  191.0530  176.6390  143.9410 C   0  0  0  0  0  0  0  0  0  0  0  0
  188.9870  177.3120  142.9270 C   0  0  0  0  0  0  0  0  0  0  0  0
  191.5140  176.6180  146.3710 C   0  0  0  0  0  1  0  0  0  0  0  0
  191.7480  176.1480  145.0500 O   0  0  0  0  0  0  0  0  0  0  0  0
  190.8530  175.5320  136.6280 C   0  0  0  0  0  2  0  0  0  0  0  0
  191.7180  175.4140  137.8790 C   0  0  0  0  0  2  0  0  0  0  0  0
  192.8440  176.4280  137.8410 C   0  0  0  0  0  1  0  0  0  0  0  0
  188.3450  175.3440  136.3370 C   0  0  0  0  0  2  0  0  0  0  0  0
  187.2640  175.2480  137.3080 N   0  0  0  0  0  2  0  0  0  0  0  0
  186.0510  175.6500  136.6200 C   0  0  0  0  0  2  0  0  0  0  0  0
  186.1090  177.0140  136.3390 O   0  0  0  0  0  0  0  0  0  0  0  0
  185.4990  177.6230  137.4360 C   0  0  0  0  0  1  0  0  0  0  0  0
  1 11  1  0  0  0  0
  2  4  1  0  0  0  0
  2  6  1  0  0  0  0
  3  5  1  0  0  0  0
  4 21  1  6  0  0  0
  4  3  1  0  0  0  0
  5  1  1  0  0  0  0
  6  5  2  0  0  0  0
  7  9  2  0  0  0  0
  7 13  1  0  0  0  0
  8 15  2  0  0  0  0
  9 15  1  0  0  0  0
 10  8  1  0  0  0  0
 11 10  2  0  0  0  0
 11  9  1  0  0  0  0
 13 14  1  0  0  0  0
 14 12  2  0  0  0  0
 14 17  1  0  0  0  0
 15 12  1  0  0  0  0
 17 16  1  0  0  0  0
 18  4  1  0  0  0  0
 18 19  1  0  0  0  0
 20 19  1  0  0  0  0
 21 22  1  0  0  0  0
 23 22  1  0  0  0  0
 24 23  1  0  0  0  0
 24 25  1  0  0  0  0
M  END
>  <MODEL>
8

>  <REMARK>
 VINA RESULT:      -5.8      1.262      1.498
  Name = 
  8 active torsions:
  status: ('A' for Active; 'I' for Inactive)
    1  A    between atoms: N_2  and  C_15
    2  A    between atoms: N_2  and  C_21
    3  A    between atoms: O_5  and  C_23
    4  A    between atoms: C_6  and  C_13
    5  A    between atoms: C_7  and  C_10
    6  A    between atoms: O_8  and  C_21
    7  A    between atoms: C_10  and  C_19
    8  A    between atoms: C_15  and  C_19
                            x       y       z     vdW  Elec       q    Type
                         _______ _______ _______ _____ _____    ______ ____

>  <TORSDO>
F 8

$$$$
=
 OpenBabel10232409453D

 25 27  0  0  1  0  0  0  0  0999 V2000
  185.0580  178.3210  142.9850 C   0  0  0  0  0  3  0  0  0  0  0  0
  187.8930  177.0700  144.7900 N   0  0  0  0  0  0  0  0  0  0  0  0
  187.4610  177.7910  142.4940 C   0  0  0  0  0  2  0  0  0  0  0  0
  188.5310  177.3050  143.4800 C   0  0  2  0  0  0  0  0  0  0  0  0
  186.2570  177.8520  143.3320 C   0  0  0  0  0  0  0  0  0  0  0  0
  186.5530  177.4540  144.6440 N   0  0  0  0  0  0  0  0  0  0  0  0
  182.1340  178.4130  141.5330 C   0  0  0  0  0  3  0  0  0  0  0  0
  184.8670  179.6580  139.6530 N   0  0  0  0  0  0  0  0  0  0  0  0
  183.3970  178.7680  141.0650 C   0  0  0  0  0  0  0  0  0  0  0  0
  185.5220  179.3130  140.7570 N   0  0  0  0  0  2  0  0  0  0  0  0
  184.6560  178.7530  141.6340 C   0  0  0  0  0  0  0  0  0  0  0  0
  182.5180  179.5500  138.9570 C   0  0  0  0  0  3  0  0  0  0  0  0
  181.0420  178.6160  140.6710 C   0  0  0  0  0  3  0  0  0  0  0  0
  181.2280  179.1770  139.3810 C   0  0  0  0  0  0  0  0  0  0  0  0
  183.5770  179.3310  139.8330 C   0  0  0  0  0  0  0  0  0  0  0  0
  180.3230  179.6560  137.1290 C   0  0  0  0  0  1  0  0  0  0  0  0
  180.1510  179.3800  138.5130 O   0  0  0  0  0  0  0  0  0  0  0  0
  189.1490  175.9860  142.9930 C   0  0  0  0  0  2  0  0  0  0  0  0
  190.4360  176.1660  142.1940 C   0  0  0  0  0  2  0  0  0  0  0  0
  190.1210  176.5460  140.7620 C   0  0  0  0  0  1  0  0  0  0  0  0
  189.5920  178.3970  143.6260 C   0  0  0  0  0  2  0  0  0  0  0  0
  190.1490  178.4110  144.9710 N   0  0  0  0  0  2  0  0  0  0  0  0
  191.5300  177.9830  144.8540 C   0  0  0  0  0  2  0  0  0  0  0  0
  191.7080  176.7940  145.5590 O   0  0  0  0  0  0  0  0  0  0  0  0
  190.8590  176.9090  146.6590 C   0  0  0  0  0  1  0  0  0  0  0  0
  1  5  2  0  0  0  0
  3  5  1  0  0  0  0
  3  4  1  0  0  0  0
  4 18  1  6  0  0  0
  4 21  1  0  0  0  0
  4  2  1  0  0  0  0
  5  6  1  0  0  0  0
  6  2  2  0  0  0  0
  8 15  2  0  0  0  0
  8 10  1  0  0  0  0
  9  7  1  0  0  0  0
  9 11  2  0  0  0  0
 10 11  1  0  0  0  0
 11  1  1  0  0  0  0
 12 14  2  0  0  0  0
 12 15  1  0  0  0  0
 13  7  2  0  0  0  0
 14 13  1  0  0  0  0
 15  9  1  0  0  0  0
 16 17  1  0  0  0  0
 17 14  1  0  0  0  0
 19 18  1  0  0  0  0
 20 19  1  0  0  0  0
 21 22  1  0  0  0  0
 23 22  1  0  0  0  0
 23 24  1  0  0  0  0
 24 25  1  0  0  0  0
M  END
>  <MODEL>
9

>  <REMARK>
 VINA RESULT:      -5.7      3.834      8.362
  Name = 
  8 active torsions:
  status: ('A' for Active; 'I' for Inactive)
    1  A    between atoms: N_2  and  C_15
    2  A    between atoms: N_2  and  C_21
    3  A    between atoms: O_5  and  C_23
    4  A    between atoms: C_6  and  C_13
    5  A    between atoms: C_7  and  C_10
    6  A    between atoms: O_8  and  C_21
    7  A    between atoms: C_10  and  C_19
    8  A    between atoms: C_15  and  C_19
                            x       y       z     vdW  Elec       q    Type
                         _______ _______ _______ _____ _____    ______ ____

>  <TORSDO>
F 8

$$$$
