=
 OpenBabel10222421563D

 40 45  0  0  1  0  0  0  0  0999 V2000
  188.9350  176.2490  137.3860 C   0  0  2  0  0  0  0  0  0  0  0  0
  190.9430  174.6800  137.0980 O   0  0  0  0  0  0  0  0  0  0  0  0
  187.9700  175.3200  136.5900 C   0  0  1  0  0  3  0  0  0  0  0  0
  190.7830  176.0000  138.9460 O   0  0  0  0  0  0  0  0  0  0  0  0
  190.2620  175.6400  137.8600 C   0  0  0  0  0  0  0  0  0  0  0  0
  188.7760  177.7590  139.2460 C   0  0  1  0  0  3  0  0  0  0  0  0
  190.4500  174.1640  135.8670 C   0  0  2  0  0  3  0  0  0  0  0  0
  189.2700  173.2170  136.1260 C   0  0  0  0  0  2  0  0  0  0  0  0
  188.4190  177.6870  137.7480 C   0  0  1  0  0  0  0  0  0  0  0  0
  188.1560  173.8540  136.9550 C   0  0  0  0  0  2  0  0  0  0  0  0
  189.2930  178.8030  138.3400 C   0  0  0  0  0  2  0  0  0  0  0  0
  189.3070  177.4030  136.5410 C   0  0  0  0  0  2  0  0  0  0  0  0
  183.7970  173.4150  135.6280 N   0  0  0  0  0  0  0  0  0  0  0  0
  184.6860  174.4370  135.5990 C   0  0  0  0  0  0  0  0  0  0  0  0
  186.4700  175.6560  136.5230 C   0  0  2  0  0  3  0  0  0  0  0  0
  184.7730  175.5940  134.6880 C   0  0  0  0  0  3  0  0  0  0  0  0
  185.6070  174.4610  136.5720 C   0  0  0  0  0  0  0  0  0  0  0  0
  185.3880  173.1730  137.6300 S   0  0  0  0  0  0  0  0  0  0  0  0
  183.3360  171.4420  136.9900 N   0  0  0  0  0  1  0  0  0  0  0  0
  186.0180  176.3520  135.2160 C   0  0  0  0  0  3  0  0  0  0  0  0
  184.0750  172.6230  136.6960 C   0  0  0  0  0  0  0  0  0  0  0  0
  185.6020  178.9580  140.5040 N   0  0  0  0  0  0  0  0  0  0  0  0
  187.5710  178.1970  140.0210 C   0  0  0  0  0  0  0  0  0  0  0  0
  186.2080  178.6810  141.6780 C   0  0  0  0  0  2  0  0  0  0  0  0
  186.4240  178.6700  139.5000 N   0  0  0  0  0  0  0  0  0  0  0  0
  187.4660  178.1930  141.3930 C   0  0  0  0  0  0  0  0  0  0  0  0
  188.5220  177.8380  142.3850 C   0  0  0  0  0  2  0  0  0  0  0  0
  188.0960  176.6400  143.2100 C   0  0  0  0  0  1  0  0  0  0  0  0
  191.5190  173.4630  135.1380 N   0  0  0  0  0  0  0  0  0  0  0  0
  192.8680  173.9070  135.5250 C   0  0  0  0  0  2  0  0  0  0  0  0
  193.3680  175.0950  134.7210 C   0  0  0  0  0  2  0  0  0  0  0  0
  194.4120  176.1550  135.7720 S   0  0  0  0  0  0  0  0  0  0  0  0
  196.3680  174.3880  136.6130 C   0  0  0  0  0  1  0  0  0  0  0  0
  194.9260  174.7910  136.8810 C   0  0  1  0  0  3  0  0  0  0  0  0
  194.7480  175.1610  138.2740 N   0  0  0  0  0  2  0  0  0  0  0  0
  195.6980  174.3700  139.0350 C   0  0  0  0  0  1  0  0  0  0  0  0
  191.4080  171.9970  135.2230 C   0  0  0  0  0  2  0  0  0  0  0  0
  192.7600  171.3100  135.4390 C   0  0  0  0  0  2  0  0  0  0  0  0
  193.1480  168.9100  136.0310 C   0  0  0  0  0  1  0  0  0  0  0  0
  192.7390  169.8760  134.9310 C   0  0  0  0  0  2  0  0  0  0  0  0
  1 12  1  6  0  0  0
  1  9  1  0  0  0  0
  1  5  1  0  0  0  0
  2  5  1  0  0  0  0
  3 10  1  1  0  0  0
  3  1  1  0  0  0  0
  5  4  2  0  0  0  0
  6 23  1  1  0  0  0
  7 29  1  1  0  0  0
  7  8  1  0  0  0  0
  7  2  1  0  0  0  0
  8 10  1  0  0  0  0
  9 12  1  6  0  0  0
  9 11  1  0  0  0  0
  9  6  1  0  0  0  0
 11  6  1  0  0  0  0
 13 21  2  0  0  0  0
 14 13  1  0  0  0  0
 14 17  2  0  0  0  0
 15 20  1  6  0  0  0
 15 17  1  0  0  0  0
 15  3  1  0  0  0  0
 16 20  2  0  0  0  0
 16 14  1  0  0  0  0
 17 18  1  0  0  0  0
 21 19  1  0  0  0  0
 21 18  1  0  0  0  0
 22 24  1  0  0  0  0
 23 26  2  0  0  0  0
 25 23  1  0  0  0  0
 25 22  2  0  0  0  0
 26 24  1  0  0  0  0
 26 27  1  0  0  0  0
 27 28  1  0  0  0  0
 29 37  1  0  0  0  0
 29 30  1  0  0  0  0
 31 30  1  0  0  0  0
 31 32  1  0  0  0  0
 32 34  1  0  0  0  0
 34 33  1  1  0  0  0
 34 35  1  0  0  0  0
 35 36  1  0  0  0  0
 37 38  1  0  0  0  0
 40 38  1  0  0  0  0
 40 39  1  0  0  0  0
M  END
>  <MODEL>
1

>  <REMARK>
 VINA RESULT:      -5.9      0.000      0.000
  Name = 
  12 active torsions:
  status: ('A' for Active; 'I' for Inactive)
    1  A    between atoms: C_5  and  C_15
    2  A    between atoms: C_7  and  C_10
    3  A    between atoms: C_7  and  S_36
    4  A    between atoms: C_10  and  N_28
    5  A    between atoms: C_11  and  C_16
    6  A    between atoms: C_12  and  N_28
    7  A    between atoms: C_12  and  C_30
    8  A    between atoms: N_13  and  C_35
    9  A    between atoms: C_19  and  C_37
   10  A    between atoms: C_24  and  N_28
   11  A    between atoms: C_29  and  C_30
   12  A    between atoms: C_35  and  S_36
                            x       y       z     vdW  Elec       q    Type
                         _______ _______ _______ _____ _____    ______ ____

>  <TORSDO>
F 12

$$$$
=
 OpenBabel10222421563D

 40 45  0  0  1  0  0  0  0  0999 V2000
  183.6530  177.6050  138.0820 C   0  0  2  0  0  0  0  0  0  0  0  0
  184.7640  176.5090  136.0470 O   0  0  0  0  0  0  0  0  0  0  0  0
  185.0120  177.9730  138.7490 C   0  0  1  0  0  3  0  0  0  0  0  0
  182.7270  177.5040  135.8360 O   0  0  0  0  0  0  0  0  0  0  0  0
  183.6840  177.2130  136.5980 C   0  0  0  0  0  0  0  0  0  0  0  0
  181.4500  178.5530  137.9530 C   0  0  1  0  0  3  0  0  0  0  0  0
  185.9230  176.1460  136.7890 C   0  0  2  0  0  3  0  0  0  0  0  0
  186.7840  177.3850  137.0640 C   0  0  0  0  0  2  0  0  0  0  0  0
  182.3530  177.7880  138.9420 C   0  0  1  0  0  0  0  0  0  0  0  0
  186.0150  178.5180  137.7420 C   0  0  0  0  0  2  0  0  0  0  0  0
  180.9590  177.2870  138.5330 C   0  0  0  0  0  2  0  0  0  0  0  0
  183.0630  176.4480  138.7860 C   0  0  0  0  0  2  0  0  0  0  0  0
  186.6730  178.0690  143.1310 N   0  0  0  0  0  0  0  0  0  0  0  0
  185.7120  178.3050  142.2050 C   0  0  0  0  0  0  0  0  0  0  0  0
  185.0270  178.8380  140.0210 C   0  0  2  0  0  3  0  0  0  0  0  0
  184.2540  178.4590  142.3690 C   0  0  0  0  0  3  0  0  0  0  0  0
  186.1240  178.4910  140.9440 C   0  0  0  0  0  0  0  0  0  0  0  0
  187.8000  178.4020  140.8460 S   0  0  0  0  0  0  0  0  0  0  0  0
  189.1020  177.8330  143.2130 N   0  0  0  0  0  1  0  0  0  0  0  0
  183.7700  178.7000  140.9150 C   0  0  0  0  0  3  0  0  0  0  0  0
  187.8840  178.0790  142.5160 C   0  0  0  0  0  0  0  0  0  0  0  0
  180.0820  181.0860  140.1450 N   0  0  0  0  0  0  0  0  0  0  0  0
  180.8910  179.7650  138.6300 C   0  0  0  0  0  0  0  0  0  0  0  0
  180.1210  181.7930  138.9960 C   0  0  0  0  0  3  0  0  0  0  0  0
  180.5430  179.8580  139.9280 N   0  0  0  0  0  2  0  0  0  0  0  0
  180.6340  180.9700  138.0170 C   0  0  0  0  0  0  0  0  0  0  0  0
  180.7780  181.3010  136.5690 C   0  0  0  0  0  2  0  0  0  0  0  0
  180.5370  182.7790  136.3350 C   0  0  0  0  0  1  0  0  0  0  0  0
  186.7020  175.1300  136.0630 N   0  0  0  0  0  0  0  0  0  0  0  0
  187.9720  174.7940  136.7270 C   0  0  0  0  0  2  0  0  0  0  0  0
  189.1340  174.6330  135.7630 C   0  0  0  0  0  2  0  0  0  0  0  0
  190.4300  175.8530  136.1500 S   0  0  0  0  0  0  0  0  0  0  0  0
  192.4490  174.5630  137.5330 C   0  0  0  0  0  1  0  0  0  0  0  0
  190.9940  174.9860  137.6600 C   0  0  1  0  0  3  0  0  0  0  0  0
  190.8030  175.8160  138.8370 N   0  0  0  0  0  2  0  0  0  0  0  0
  190.4080  177.1270  138.3580 C   0  0  0  0  0  1  0  0  0  0  0  0
  185.9280  173.9120  135.7720 C   0  0  0  0  0  2  0  0  0  0  0  0
  186.0520  172.8510  136.8710 C   0  0  0  0  0  2  0  0  0  0  0  0
  183.5810  173.2250  136.9960 C   0  0  0  0  0  1  0  0  0  0  0  0
  184.8300  172.8480  137.7760 C   0  0  0  0  0  2  0  0  0  0  0  0
  1  3  1  0  0  0  0
  1 12  1  1  0  0  0
  1  9  1  0  0  0  0
  2  5  1  0  0  0  0
  2  7  1  0  0  0  0
  3 10  1  6  0  0  0
  3 15  1  0  0  0  0
  4  5  2  0  0  0  0
  5  1  1  0  0  0  0
  6 11  1  0  0  0  0
  6 23  1  1  0  0  0
  6  9  1  0  0  0  0
  7 29  1  6  0  0  0
  7  8  1  0  0  0  0
  8 10  1  0  0  0  0
  9 11  1  6  0  0  0
 12  9  1  0  0  0  0
 14 16  1  0  0  0  0
 14 13  1  0  0  0  0
 15 20  1  1  0  0  0
 15 17  1  0  0  0  0
 17 14  2  0  0  0  0
 18 17  1  0  0  0  0
 18 21  1  0  0  0  0
 20 16  2  0  0  0  0
 21 13  2  0  0  0  0
 21 19  1  0  0  0  0
 23 25  1  0  0  0  0
 24 22  2  0  0  0  0
 25 22  1  0  0  0  0
 26 23  2  0  0  0  0
 26 24  1  0  0  0  0
 27 26  1  0  0  0  0
 28 27  1  0  0  0  0
 29 30  1  0  0  0  0
 31 32  1  0  0  0  0
 31 30  1  0  0  0  0
 32 34  1  0  0  0  0
 34 33  1  6  0  0  0
 34 35  1  0  0  0  0
 36 35  1  0  0  0  0
 37 29  1  0  0  0  0
 37 38  1  0  0  0  0
 38 40  1  0  0  0  0
 39 40  1  0  0  0  0
M  END
>  <MODEL>
2

>  <REMARK>
 VINA RESULT:      -5.9      4.297      7.055
  Name = 
  12 active torsions:
  status: ('A' for Active; 'I' for Inactive)
    1  A    between atoms: C_5  and  C_15
    2  A    between atoms: C_7  and  C_10
    3  A    between atoms: C_7  and  S_36
    4  A    between atoms: C_10  and  N_28
    5  A    between atoms: C_11  and  C_16
    6  A    between atoms: C_12  and  N_28
    7  A    between atoms: C_12  and  C_30
    8  A    between atoms: N_13  and  C_35
    9  A    between atoms: C_19  and  C_37
   10  A    between atoms: C_24  and  N_28
   11  A    between atoms: C_29  and  C_30
   12  A    between atoms: C_35  and  S_36
                            x       y       z     vdW  Elec       q    Type
                         _______ _______ _______ _____ _____    ______ ____

>  <TORSDO>
F 12

$$$$
=
 OpenBabel10222421563D

 40 45  0  0  1  0  0  0  0  0999 V2000
  189.1330  177.1520  138.7480 C   0  0  2  0  0  0  0  0  0  0  0  0
  191.1700  175.5960  138.6500 O   0  0  0  0  0  0  0  0  0  0  0  0
  188.5380  176.6160  137.4110 C   0  0  1  0  0  3  0  0  0  0  0  0
  190.3330  176.2540  140.6630 O   0  0  0  0  0  0  0  0  0  0  0  0
  190.2340  176.3120  139.4100 C   0  0  0  0  0  0  0  0  0  0  0  0
  188.2860  177.9850  140.8340 C   0  0  1  0  0  3  0  0  0  0  0  0
  191.1530  175.5500  137.2280 C   0  0  2  0  0  3  0  0  0  0  0  0
  189.9900  174.6750  136.7420 C   0  0  0  0  0  2  0  0  0  0  0  0
  188.4740  178.4330  139.3710 C   0  0  1  0  0  0  0  0  0  0  0  0
  188.6360  175.1010  137.3060 C   0  0  0  0  0  2  0  0  0  0  0  0
  189.0500  179.2180  140.5590 C   0  0  0  0  0  2  0  0  0  0  0  0
  189.7350  178.4810  138.5150 C   0  0  0  0  0  2  0  0  0  0  0  0
  184.8930  175.3250  134.7620 N   0  0  0  0  0  0  0  0  0  0  0  0
  185.7500  176.2510  135.2570 C   0  0  0  0  0  0  0  0  0  0  0  0
  187.1430  177.0820  136.9570 C   0  0  2  0  0  3  0  0  0  0  0  0
  186.1360  177.5700  134.7210 C   0  0  0  0  0  3  0  0  0  0  0  0
  186.3030  175.9830  136.4460 C   0  0  0  0  0  0  0  0  0  0  0  0
  185.7440  174.5150  137.0460 S   0  0  0  0  0  0  0  0  0  0  0  0
  184.0010  173.1450  135.4020 N   0  0  0  0  0  1  0  0  0  0  0  0
  187.1470  178.0860  135.7780 C   0  0  0  0  0  3  0  0  0  0  0  0
  184.8030  174.2960  135.6430 C   0  0  0  0  0  0  0  0  0  0  0  0
  184.7970  178.8660  141.2160 N   0  0  0  0  0  0  0  0  0  0  0  0
  186.8730  178.2490  141.2550 C   0  0  0  0  0  0  0  0  0  0  0  0
  185.0380  178.3960  142.4580 C   0  0  0  0  0  2  0  0  0  0  0  0
  185.9050  178.7820  140.4860 N   0  0  0  0  0  0  0  0  0  0  0  0
  186.3570  177.9960  142.5050 C   0  0  0  0  0  0  0  0  0  0  0  0
  187.0860  177.4920  143.7050 C   0  0  0  0  0  2  0  0  0  0  0  0
  186.2420  177.6650  144.9520 C   0  0  0  0  0  1  0  0  0  0  0  0
  192.4330  175.0350  136.7140 N   0  0  0  0  0  0  0  0  0  0  0  0
  192.8130  173.7420  137.3070 C   0  0  0  0  0  2  0  0  0  0  0  0
  194.2900  173.4200  137.1580 C   0  0  0  0  0  2  0  0  0  0  0  0
  195.2470  174.3220  138.4180 S   0  0  0  0  0  0  0  0  0  0  0  0
  196.6880  173.9610  136.0830 C   0  0  0  0  0  1  0  0  0  0  0  0
  196.8590  174.0500  137.5920 C   0  0  1  0  0  3  0  0  0  0  0  0
  197.8030  175.0980  137.9390 N   0  0  0  0  0  2  0  0  0  0  0  0
  199.0680  174.4410  138.2070 C   0  0  0  0  0  1  0  0  0  0  0  0
  192.4760  174.9680  135.2440 C   0  0  0  0  0  2  0  0  0  0  0  0
  193.2900  176.1060  134.6200 C   0  0  0  0  0  2  0  0  0  0  0  0
  195.4150  177.3980  134.8910 C   0  0  0  0  0  1  0  0  0  0  0  0
  194.2860  176.6840  135.6140 C   0  0  0  0  0  2  0  0  0  0  0  0
  1 12  1  6  0  0  0
  1  9  1  0  0  0  0
  1  5  1  0  0  0  0
  2  5  1  0  0  0  0
  3 10  1  1  0  0  0
  3  1  1  0  0  0  0
  5  4  2  0  0  0  0
  6 23  1  1  0  0  0
  7 29  1  1  0  0  0
  7  2  1  0  0  0  0
  8  7  1  0  0  0  0
  8 10  1  0  0  0  0
  9 12  1  6  0  0  0
  9 11  1  0  0  0  0
  9  6  1  0  0  0  0
 11  6  1  0  0  0  0
 13 14  1  0  0  0  0
 13 21  2  0  0  0  0
 14 17  2  0  0  0  0
 15 20  1  6  0  0  0
 15  3  1  0  0  0  0
 16 14  1  0  0  0  0
 16 20  2  0  0  0  0
 17 15  1  0  0  0  0
 17 18  1  0  0  0  0
 19 21  1  0  0  0  0
 21 18  1  0  0  0  0
 22 24  1  0  0  0  0
 23 26  2  0  0  0  0
 24 26  1  0  0  0  0
 25 22  2  0  0  0  0
 25 23  1  0  0  0  0
 26 27  1  0  0  0  0
 27 28  1  0  0  0  0
 29 30  1  0  0  0  0
 31 30  1  0  0  0  0
 31 32  1  0  0  0  0
 34 33  1  6  0  0  0
 34 35  1  0  0  0  0
 34 32  1  0  0  0  0
 35 36  1  0  0  0  0
 37 29  1  0  0  0  0
 38 37  1  0  0  0  0
 38 40  1  0  0  0  0
 39 40  1  0  0  0  0
M  END
>  <MODEL>
3

>  <REMARK>
 VINA RESULT:      -5.7      1.845      2.817
  Name = 
  12 active torsions:
  status: ('A' for Active; 'I' for Inactive)
    1  A    between atoms: C_5  and  C_15
    2  A    between atoms: C_7  and  C_10
    3  A    between atoms: C_7  and  S_36
    4  A    between atoms: C_10  and  N_28
    5  A    between atoms: C_11  and  C_16
    6  A    between atoms: C_12  and  N_28
    7  A    between atoms: C_12  and  C_30
    8  A    between atoms: N_13  and  C_35
    9  A    between atoms: C_19  and  C_37
   10  A    between atoms: C_24  and  N_28
   11  A    between atoms: C_29  and  C_30
   12  A    between atoms: C_35  and  S_36
                            x       y       z     vdW  Elec       q    Type
                         _______ _______ _______ _____ _____    ______ ____

>  <TORSDO>
F 12

$$$$
=
 OpenBabel10222421563D

 40 45  0  0  1  0  0  0  0  0999 V2000
  188.9150  176.2410  137.5970 C   0  0  2  0  0  0  0  0  0  0  0  0
  190.8960  174.6170  137.4590 O   0  0  0  0  0  0  0  0  0  0  0  0
  187.9730  175.3150  136.7700 C   0  0  1  0  0  3  0  0  0  0  0  0
  190.6660  175.9860  139.2640 O   0  0  0  0  0  0  0  0  0  0  0  0
  190.1980  175.6120  138.1590 C   0  0  0  0  0  0  0  0  0  0  0  0
  188.6910  177.8000  139.4090 C   0  0  1  0  0  3  0  0  0  0  0  0
  190.4590  174.0810  136.2160 C   0  0  2  0  0  3  0  0  0  0  0  0
  189.2430  173.1700  136.4300 C   0  0  0  0  0  2  0  0  0  0  0  0
  188.4170  177.6990  137.8950 C   0  0  1  0  0  0  0  0  0  0  0  0
  188.1010  173.8550  137.1800 C   0  0  0  0  0  2  0  0  0  0  0  0
  189.2850  178.8080  138.5080 C   0  0  0  0  0  2  0  0  0  0  0  0
  189.3630  177.3640  136.7470 C   0  0  0  0  0  2  0  0  0  0  0  0
  183.8170  173.4930  135.5980 N   0  0  0  0  0  0  0  0  0  0  0  0
  184.7310  174.4930  135.6040 C   0  0  0  0  0  0  0  0  0  0  0  0
  186.4880  175.6850  136.6110 C   0  0  2  0  0  3  0  0  0  0  0  0
  184.8980  175.6320  134.6820 C   0  0  0  0  0  3  0  0  0  0  0  0
  185.5940  174.5120  136.6280 C   0  0  0  0  0  0  0  0  0  0  0  0
  185.2830  173.2480  137.6930 S   0  0  0  0  0  0  0  0  0  0  0  0
  183.2300  171.5550  136.9620 N   0  0  0  0  0  1  0  0  0  0  0  0
  186.1300  176.3690  135.2690 C   0  0  0  0  0  3  0  0  0  0  0  0
  184.0130  172.7130  136.6920 C   0  0  0  0  0  0  0  0  0  0  0  0
  185.4760  179.0880  140.4560 N   0  0  0  0  0  0  0  0  0  0  0  0
  187.4570  178.2860  140.1040 C   0  0  0  0  0  0  0  0  0  0  0  0
  186.0240  178.8630  141.6690 C   0  0  0  0  0  2  0  0  0  0  0  0
  186.3410  178.7430  139.5070 N   0  0  0  0  0  0  0  0  0  0  0  0
  187.2880  178.3520  141.4680 C   0  0  0  0  0  0  0  0  0  0  0  0
  188.2930  178.0360  142.5250 C   0  0  0  0  0  2  0  0  0  0  0  0
  188.1630  176.5930  142.9690 C   0  0  0  0  0  1  0  0  0  0  0  0
  191.5490  173.3360  135.5650 N   0  0  0  0  0  0  0  0  0  0  0  0
  191.1650  171.9660  135.1870 C   0  0  0  0  0  2  0  0  0  0  0  0
  192.3140  171.1520  134.6180 C   0  0  0  0  0  2  0  0  0  0  0  0
  193.5200  170.7860  135.9320 S   0  0  0  0  0  0  0  0  0  0  0  0
  195.4050  172.7970  136.1760 C   0  0  0  0  0  1  0  0  0  0  0  0
  194.8570  171.7860  135.1800 C   0  0  1  0  0  3  0  0  0  0  0  0
  195.9210  170.9350  134.6770 N   0  0  0  0  0  2  0  0  0  0  0  0
  196.0510  169.8370  135.6160 C   0  0  0  0  0  1  0  0  0  0  0  0
  192.1270  174.0520  134.4150 C   0  0  0  0  0  2  0  0  0  0  0  0
  192.1260  175.5730  134.5990 C   0  0  0  0  0  2  0  0  0  0  0  0
  193.7500  176.2410  136.3810 C   0  0  0  0  0  1  0  0  0  0  0  0
  193.5250  176.0960  134.8850 C   0  0  0  0  0  2  0  0  0  0  0  0
  1 12  1  6  0  0  0
  1  9  1  0  0  0  0
  1  5  1  0  0  0  0
  2  5  1  0  0  0  0
  3 10  1  1  0  0  0
  3  1  1  0  0  0  0
  5  4  2  0  0  0  0
  6 23  1  1  0  0  0
  7 29  1  1  0  0  0
  7  8  1  0  0  0  0
  7  2  1  0  0  0  0
  8 10  1  0  0  0  0
  9 12  1  6  0  0  0
  9 11  1  0  0  0  0
  9  6  1  0  0  0  0
 11  6  1  0  0  0  0
 13 14  1  0  0  0  0
 13 21  2  0  0  0  0
 14 17  2  0  0  0  0
 15 20  1  6  0  0  0
 15 17  1  0  0  0  0
 15  3  1  0  0  0  0
 16 20  2  0  0  0  0
 16 14  1  0  0  0  0
 17 18  1  0  0  0  0
 21 19  1  0  0  0  0
 21 18  1  0  0  0  0
 22 24  1  0  0  0  0
 23 26  2  0  0  0  0
 25 23  1  0  0  0  0
 25 22  2  0  0  0  0
 26 24  1  0  0  0  0
 26 27  1  0  0  0  0
 27 28  1  0  0  0  0
 30 29  1  0  0  0  0
 31 30  1  0  0  0  0
 31 32  1  0  0  0  0
 34 32  1  0  0  0  0
 34 33  1  1  0  0  0
 35 34  1  0  0  0  0
 35 36  1  0  0  0  0
 37 38  1  0  0  0  0
 37 29  1  0  0  0  0
 38 40  1  0  0  0  0
 40 39  1  0  0  0  0
M  END
>  <MODEL>
4

>  <REMARK>
 VINA RESULT:      -5.7      1.452      2.515
  Name = 
  12 active torsions:
  status: ('A' for Active; 'I' for Inactive)
    1  A    between atoms: C_5  and  C_15
    2  A    between atoms: C_7  and  C_10
    3  A    between atoms: C_7  and  S_36
    4  A    between atoms: C_10  and  N_28
    5  A    between atoms: C_11  and  C_16
    6  A    between atoms: C_12  and  N_28
    7  A    between atoms: C_12  and  C_30
    8  A    between atoms: N_13  and  C_35
    9  A    between atoms: C_19  and  C_37
   10  A    between atoms: C_24  and  N_28
   11  A    between atoms: C_29  and  C_30
   12  A    between atoms: C_35  and  S_36
                            x       y       z     vdW  Elec       q    Type
                         _______ _______ _______ _____ _____    ______ ____

>  <TORSDO>
F 12

$$$$
=
 OpenBabel10222421563D

 40 45  0  0  1  0  0  0  0  0999 V2000
  190.2860  177.7990  142.5990 C   0  0  2  0  0  0  0  0  0  0  0  0
  191.0490  177.7320  140.1510 O   0  0  0  0  0  0  0  0  0  0  0  0
  188.8890  177.1850  142.2810 C   0  0  1  0  0  3  0  0  0  0  0  0
  192.5770  177.5350  141.8280 O   0  0  0  0  0  0  0  0  0  0  0  0
  191.3670  177.6760  141.5160 C   0  0  0  0  0  0  0  0  0  0  0  0
  191.8610  177.7280  144.4100 C   0  0  1  0  0  3  0  0  0  0  0  0
  189.7200  177.8580  139.6610 C   0  0  2  0  0  3  0  0  0  0  0  0
  188.9590  176.5390  139.8510 C   0  0  0  0  0  2  0  0  0  0  0  0
  190.5110  178.3760  144.0410 C   0  0  1  0  0  0  0  0  0  0  0  0
  188.9820  176.0320  141.2920 C   0  0  0  0  0  2  0  0  0  0  0  0
  191.7360  179.1980  144.4690 C   0  0  0  0  0  2  0  0  0  0  0  0
  190.1350  179.2480  142.8470 C   0  0  0  0  0  2  0  0  0  0  0  0
  185.5470  178.9640  145.0440 N   0  0  0  0  0  0  0  0  0  0  0  0
  186.6290  178.1790  144.8200 C   0  0  0  0  0  0  0  0  0  0  0  0
  187.9410  176.8100  143.4340 C   0  0  2  0  0  3  0  0  0  0  0  0
  187.6410  177.6680  145.7630 C   0  0  0  0  0  3  0  0  0  0  0  0
  186.8000  177.7340  143.5690 C   0  0  0  0  0  0  0  0  0  0  0  0
  185.5580  178.2700  142.5710 S   0  0  0  0  0  0  0  0  0  0  0  0
  183.6900  179.9090  143.7710 N   0  0  0  0  0  1  0  0  0  0  0  0
  188.5840  176.8520  144.8420 C   0  0  0  0  0  3  0  0  0  0  0  0
  184.8660  179.1130  143.8780 C   0  0  0  0  0  0  0  0  0  0  0  0
  191.4530  176.7790  147.8780 N   0  0  0  0  0  0  0  0  0  0  0  0
  191.7450  177.0740  145.7510 C   0  0  0  0  0  0  0  0  0  0  0  0
  191.7430  175.5680  147.3550 C   0  0  0  0  0  2  0  0  0  0  0  0
  191.4570  177.6920  146.9120 N   0  0  0  0  0  0  0  0  0  0  0  0
  191.9320  175.7330  146.0000 C   0  0  0  0  0  0  0  0  0  0  0  0
  192.3550  174.6800  145.0310 C   0  0  0  0  0  2  0  0  0  0  0  0
  191.4350  174.6630  143.8270 C   0  0  0  0  0  1  0  0  0  0  0  0
  189.7290  178.2440  138.2400 N   0  0  0  0  0  0  0  0  0  0  0  0
  189.7660  177.0880  137.3290 C   0  0  0  0  0  2  0  0  0  0  0  0
  191.1720  176.6980  136.9060 C   0  0  0  0  0  2  0  0  0  0  0  0
  191.6150  175.0950  137.6490 S   0  0  0  0  0  0  0  0  0  0  0  0
  194.2590  174.2800  137.7070 C   0  0  0  0  0  1  0  0  0  0  0  0
  193.3850  175.5170  137.8510 C   0  0  1  0  0  3  0  0  0  0  0  0
  193.7860  176.5400  136.9010 N   0  0  0  0  0  2  0  0  0  0  0  0
  194.6070  175.8780  135.9040 C   0  0  0  0  0  1  0  0  0  0  0  0
  188.6260  179.1530  137.8850 C   0  0  0  0  0  2  0  0  0  0  0  0
  187.6290  178.5240  136.9070 C   0  0  0  0  0  2  0  0  0  0  0  0
  185.9190  176.7350  137.2730 C   0  0  0  0  0  1  0  0  0  0  0  0
  186.3260  178.1620  137.6020 C   0  0  0  0  0  2  0  0  0  0  0  0
  1 12  1  6  0  0  0
  1  9  1  0  0  0  0
  2  5  1  0  0  0  0
  3 10  1  1  0  0  0
  3  1  1  0  0  0  0
  3 15  1  0  0  0  0
  5  4  2  0  0  0  0
  5  1  1  0  0  0  0
  6 11  1  0  0  0  0
  6 23  1  1  0  0  0
  7 29  1  6  0  0  0
  7  8  1  0  0  0  0
  7  2  1  0  0  0  0
  8 10  1  0  0  0  0
  9 12  1  1  0  0  0
  9  6  1  0  0  0  0
  9 11  1  0  0  0  0
 14 13  1  0  0  0  0
 14 16  1  0  0  0  0
 15 17  1  0  0  0  0
 15 20  1  1  0  0  0
 17 14  2  0  0  0  0
 18 17  1  0  0  0  0
 18 21  1  0  0  0  0
 19 21  1  0  0  0  0
 20 16  2  0  0  0  0
 21 13  2  0  0  0  0
 23 26  2  0  0  0  0
 23 25  1  0  0  0  0
 24 22  1  0  0  0  0
 25 22  2  0  0  0  0
 26 24  1  0  0  0  0
 27 26  1  0  0  0  0
 28 27  1  0  0  0  0
 30 29  1  0  0  0  0
 31 30  1  0  0  0  0
 31 32  1  0  0  0  0
 32 34  1  0  0  0  0
 34 33  1  6  0  0  0
 35 34  1  0  0  0  0
 36 35  1  0  0  0  0
 37 29  1  0  0  0  0
 38 40  1  0  0  0  0
 38 37  1  0  0  0  0
 39 40  1  0  0  0  0
M  END
>  <MODEL>
5

>  <REMARK>
 VINA RESULT:      -5.5      3.649      7.215
  Name = 
  12 active torsions:
  status: ('A' for Active; 'I' for Inactive)
    1  A    between atoms: C_5  and  C_15
    2  A    between atoms: C_7  and  C_10
    3  A    between atoms: C_7  and  S_36
    4  A    between atoms: C_10  and  N_28
    5  A    between atoms: C_11  and  C_16
    6  A    between atoms: C_12  and  N_28
    7  A    between atoms: C_12  and  C_30
    8  A    between atoms: N_13  and  C_35
    9  A    between atoms: C_19  and  C_37
   10  A    between atoms: C_24  and  N_28
   11  A    between atoms: C_29  and  C_30
   12  A    between atoms: C_35  and  S_36
                            x       y       z     vdW  Elec       q    Type
                         _______ _______ _______ _____ _____    ______ ____

>  <TORSDO>
F 12

$$$$
=
 OpenBabel10222421563D

 40 45  0  0  1  0  0  0  0  0999 V2000
  190.2970  177.8130  142.6370 C   0  0  2  0  0  0  0  0  0  0  0  0
  191.1110  177.7710  140.2050 O   0  0  0  0  0  0  0  0  0  0  0  0
  188.9160  177.1800  142.2880 C   0  0  1  0  0  3  0  0  0  0  0  0
  192.6070  177.5870  141.9130 O   0  0  0  0  0  0  0  0  0  0  0  0
  191.4020  177.7120  141.5760 C   0  0  0  0  0  0  0  0  0  0  0  0
  191.8360  177.7560  144.4800 C   0  0  1  0  0  3  0  0  0  0  0  0
  189.7900  177.8790  139.6890 C   0  0  2  0  0  3  0  0  0  0  0  0
  189.0460  176.5480  139.8570 C   0  0  0  0  0  2  0  0  0  0  0  0
  190.4840  178.3860  144.0860 C   0  0  1  0  0  0  0  0  0  0  0  0
  189.0470  176.0330  141.2960 C   0  0  0  0  0  2  0  0  0  0  0  0
  191.6880  179.2240  144.5440 C   0  0  0  0  0  2  0  0  0  0  0  0
  190.1200  179.2580  142.8900 C   0  0  0  0  0  2  0  0  0  0  0  0
  185.5440  178.9150  145.0420 N   0  0  0  0  0  0  0  0  0  0  0  0
  186.6260  178.1300  144.8170 C   0  0  0  0  0  0  0  0  0  0  0  0
  187.9510  176.7840  143.4200 C   0  0  2  0  0  3  0  0  0  0  0  0
  187.6220  177.5940  145.7620 C   0  0  0  0  0  3  0  0  0  0  0  0
  186.8120  177.7100  143.5590 C   0  0  0  0  0  0  0  0  0  0  0  0
  185.5860  178.2730  142.5550 S   0  0  0  0  0  0  0  0  0  0  0  0
  183.7090  179.8950  143.7640 N   0  0  0  0  0  1  0  0  0  0  0  0
  188.5750  176.7930  144.8370 C   0  0  0  0  0  3  0  0  0  0  0  0
  184.8800  179.0920  143.8710 C   0  0  0  0  0  0  0  0  0  0  0  0
  191.3680  176.7820  147.9330 N   0  0  0  0  0  0  0  0  0  0  0  0
  191.7020  177.0930  145.8160 C   0  0  0  0  0  0  0  0  0  0  0  0
  191.6940  175.5800  147.4120 C   0  0  0  0  0  2  0  0  0  0  0  0
  191.3760  177.7000  146.9720 N   0  0  0  0  0  0  0  0  0  0  0  0
  191.9100  175.7550  146.0620 C   0  0  0  0  0  0  0  0  0  0  0  0
  192.3770  174.7150  145.0990 C   0  0  0  0  0  2  0  0  0  0  0  0
  191.4870  174.6890  143.8720 C   0  0  0  0  0  1  0  0  0  0  0  0
  189.8220  178.2730  138.2710 N   0  0  0  0  0  0  0  0  0  0  0  0
  189.9020  177.1230  137.3550 C   0  0  0  0  0  2  0  0  0  0  0  0
  191.3260  176.6780  137.0670 C   0  0  0  0  0  2  0  0  0  0  0  0
  191.3050  175.2050  135.9960 S   0  0  0  0  0  0  0  0  0  0  0  0
  188.7390  174.5560  135.1900 C   0  0  0  0  0  1  0  0  0  0  0  0
  189.5920  174.7330  136.4370 C   0  0  1  0  0  3  0  0  0  0  0  0
  189.5780  173.5240  137.2420 N   0  0  0  0  0  2  0  0  0  0  0  0
  188.3280  172.8490  136.9510 C   0  0  0  0  0  1  0  0  0  0  0  0
  188.7100  179.1620  137.8960 C   0  0  0  0  0  2  0  0  0  0  0  0
  187.7590  178.5260  136.8770 C   0  0  0  0  0  2  0  0  0  0  0  0
  186.0570  176.7110  137.1370 C   0  0  0  0  0  1  0  0  0  0  0  0
  186.4400  178.1300  137.5240 C   0  0  0  0  0  2  0  0  0  0  0  0
  1 12  1  6  0  0  0
  1  9  1  0  0  0  0
  2  5  1  0  0  0  0
  3 10  1  1  0  0  0
  3  1  1  0  0  0  0
  3 15  1  0  0  0  0
  5  4  2  0  0  0  0
  5  1  1  0  0  0  0
  6 11  1  0  0  0  0
  6 23  1  1  0  0  0
  7 29  1  6  0  0  0
  7  8  1  0  0  0  0
  7  2  1  0  0  0  0
  8 10  1  0  0  0  0
  9 12  1  1  0  0  0
  9  6  1  0  0  0  0
  9 11  1  0  0  0  0
 14 13  1  0  0  0  0
 14 16  1  0  0  0  0
 15 17  1  0  0  0  0
 15 20  1  1  0  0  0
 17 14  2  0  0  0  0
 18 17  1  0  0  0  0
 18 21  1  0  0  0  0
 19 21  1  0  0  0  0
 20 16  2  0  0  0  0
 21 13  2  0  0  0  0
 23 26  2  0  0  0  0
 23 25  1  0  0  0  0
 24 22  1  0  0  0  0
 25 22  2  0  0  0  0
 26 24  1  0  0  0  0
 27 26  1  0  0  0  0
 28 27  1  0  0  0  0
 30 29  1  0  0  0  0
 31 30  1  0  0  0  0
 32 34  1  0  0  0  0
 32 31  1  0  0  0  0
 34 33  1  6  0  0  0
 34 35  1  0  0  0  0
 36 35  1  0  0  0  0
 37 29  1  0  0  0  0
 38 40  1  0  0  0  0
 38 37  1  0  0  0  0
 39 40  1  0  0  0  0
M  END
>  <MODEL>
6

>  <REMARK>
 VINA RESULT:      -5.2      3.652      7.467
  Name = 
  12 active torsions:
  status: ('A' for Active; 'I' for Inactive)
    1  A    between atoms: C_5  and  C_15
    2  A    between atoms: C_7  and  C_10
    3  A    between atoms: C_7  and  S_36
    4  A    between atoms: C_10  and  N_28
    5  A    between atoms: C_11  and  C_16
    6  A    between atoms: C_12  and  N_28
    7  A    between atoms: C_12  and  C_30
    8  A    between atoms: N_13  and  C_35
    9  A    between atoms: C_19  and  C_37
   10  A    between atoms: C_24  and  N_28
   11  A    between atoms: C_29  and  C_30
   12  A    between atoms: C_35  and  S_36
                            x       y       z     vdW  Elec       q    Type
                         _______ _______ _______ _____ _____    ______ ____

>  <TORSDO>
F 12

$$$$
=
 OpenBabel10222421563D

 40 45  0  0  1  0  0  0  0  0999 V2000
  184.5840  174.4770  136.6490 C   0  0  2  0  0  0  0  0  0  0  0  0
  186.7990  175.4430  135.7880 O   0  0  0  0  0  0  0  0  0  0  0  0
  184.1070  175.8400  137.2360 C   0  0  1  0  0  3  0  0  0  0  0  0
  185.8170  173.6970  134.7040 O   0  0  0  0  0  0  0  0  0  0  0  0
  185.7560  174.5150  135.6580 C   0  0  0  0  0  0  0  0  0  0  0  0
  183.5690  172.5560  135.6280 C   0  0  1  0  0  3  0  0  0  0  0  0
  186.8380  176.4400  136.8010 C   0  0  2  0  0  3  0  0  0  0  0  0
  185.8100  177.5390  136.5010 C   0  0  0  0  0  2  0  0  0  0  0  0
  183.7510  173.1990  137.0180 C   0  0  1  0  0  0  0  0  0  0  0  0
  184.3940  177.0010  136.2950 C   0  0  0  0  0  2  0  0  0  0  0  0
  184.1840  171.7580  136.7070 C   0  0  0  0  0  2  0  0  0  0  0  0
  185.0260  173.6000  137.7530 C   0  0  0  0  0  2  0  0  0  0  0  0
  180.9650  179.0170  138.6500 N   0  0  0  0  0  0  0  0  0  0  0  0
  181.5920  177.8200  138.7520 C   0  0  0  0  0  0  0  0  0  0  0  0
  182.6820  175.9670  137.8030 C   0  0  2  0  0  3  0  0  0  0  0  0
  181.7520  176.9290  139.9160 C   0  0  0  0  0  3  0  0  0  0  0  0
  182.1060  177.3130  137.6240 C   0  0  0  0  0  0  0  0  0  0  0  0
  181.8000  178.3300  136.3200 S   0  0  0  0  0  0  0  0  0  0  0  0
  180.4690  180.6700  136.9230 N   0  0  0  0  0  1  0  0  0  0  0  0
  182.5710  175.7490  139.3330 C   0  0  0  0  0  3  0  0  0  0  0  0
  181.0160  179.4300  137.3570 C   0  0  0  0  0  0  0  0  0  0  0  0
  180.2330  171.1780  135.3600 N   0  0  0  0  0  0  0  0  0  0  0  0
  182.1200  172.2410  135.4160 C   0  0  0  0  0  0  0  0  0  0  0  0
  180.0000  172.4090  134.8580 C   0  0  0  0  0  3  0  0  0  0  0  0
  181.5150  171.0710  135.6950 N   0  0  0  0  0  2  0  0  0  0  0  0
  181.1890  173.1040  134.8850 C   0  0  0  0  0  0  0  0  0  0  0  0
  181.4250  174.4760  134.3470 C   0  0  0  0  0  2  0  0  0  0  0  0
  180.3670  175.4350  134.8530 C   0  0  0  0  0  1  0  0  0  0  0  0
  188.1880  177.0170  136.9050 N   0  0  0  0  0  0  0  0  0  0  0  0
  188.2980  178.0410  137.9560 C   0  0  0  0  0  2  0  0  0  0  0  0
  188.8980  177.5180  139.2500 C   0  0  0  0  0  2  0  0  0  0  0  0
  188.1480  178.3790  140.6690 S   0  0  0  0  0  0  0  0  0  0  0  0
  190.2280  176.6860  141.3480 C   0  0  0  0  0  1  0  0  0  0  0  0
  188.9790  177.3360  141.9230 C   0  0  1  0  0  3  0  0  0  0  0  0
  189.3040  178.1080  143.1090 N   0  0  0  0  0  2  0  0  0  0  0  0
  189.9520  177.1950  144.0320 C   0  0  0  0  0  1  0  0  0  0  0  0
  189.2380  175.9960  137.0600 C   0  0  0  0  0  2  0  0  0  0  0  0
  190.3070  176.0720  135.9650 C   0  0  0  0  0  2  0  0  0  0  0  0
  191.7570  175.7810  137.9840 C   0  0  0  0  0  1  0  0  0  0  0  0
  191.6590  175.5980  136.4780 C   0  0  0  0  0  2  0  0  0  0  0  0
  1  9  1  0  0  0  0
  1  3  1  0  0  0  0
  1 12  1  1  0  0  0
  2  7  1  0  0  0  0
  3 10  1  6  0  0  0
  3 15  1  0  0  0  0
  4  5  2  0  0  0  0
  5  2  1  0  0  0  0
  5  1  1  0  0  0  0
  6 23  1  1  0  0  0
  6 11  1  0  0  0  0
  6  9  1  0  0  0  0
  7 29  1  6  0  0  0
  8  7  1  0  0  0  0
  9 11  1  6  0  0  0
  9 12  1  0  0  0  0
 10  8  1  0  0  0  0
 13 14  1  0  0  0  0
 14 16  1  0  0  0  0
 15 20  1  1  0  0  0
 17 15  1  0  0  0  0
 17 14  2  0  0  0  0
 18 21  1  0  0  0  0
 18 17  1  0  0  0  0
 19 21  1  0  0  0  0
 20 16  2  0  0  0  0
 21 13  2  0  0  0  0
 22 25  1  0  0  0  0
 23 25  1  0  0  0  0
 24 26  1  0  0  0  0
 24 22  2  0  0  0  0
 26 23  2  0  0  0  0
 27 28  1  0  0  0  0
 27 26  1  0  0  0  0
 29 37  1  0  0  0  0
 29 30  1  0  0  0  0
 30 31  1  0  0  0  0
 31 32  1  0  0  0  0
 32 34  1  0  0  0  0
 34 33  1  6  0  0  0
 34 35  1  0  0  0  0
 35 36  1  0  0  0  0
 38 40  1  0  0  0  0
 38 37  1  0  0  0  0
 40 39  1  0  0  0  0
M  END
>  <MODEL>
7

>  <REMARK>
 VINA RESULT:      -5.2      3.603      7.382
  Name = 
  12 active torsions:
  status: ('A' for Active; 'I' for Inactive)
    1  A    between atoms: C_5  and  C_15
    2  A    between atoms: C_7  and  C_10
    3  A    between atoms: C_7  and  S_36
    4  A    between atoms: C_10  and  N_28
    5  A    between atoms: C_11  and  C_16
    6  A    between atoms: C_12  and  N_28
    7  A    between atoms: C_12  and  C_30
    8  A    between atoms: N_13  and  C_35
    9  A    between atoms: C_19  and  C_37
   10  A    between atoms: C_24  and  N_28
   11  A    between atoms: C_29  and  C_30
   12  A    between atoms: C_35  and  S_36
                            x       y       z     vdW  Elec       q    Type
                         _______ _______ _______ _____ _____    ______ ____

>  <TORSDO>
F 12

$$$$
=
 OpenBabel10222421563D

 40 45  0  0  1  0  0  0  0  0999 V2000
  188.4690  176.7900  136.0890 C   0  0  2  0  0  0  0  0  0  0  0  0
  190.1810  177.4950  137.8640 O   0  0  0  0  0  0  0  0  0  0  0  0
  189.0170  175.3340  135.9980 C   0  0  1  0  0  3  0  0  0  0  0  0
  188.1250  178.4720  137.8100 O   0  0  0  0  0  0  0  0  0  0  0  0
  188.9040  177.6280  137.2990 C   0  0  0  0  0  0  0  0  0  0  0  0
  186.3350  177.8740  135.8980 C   0  0  1  0  0  3  0  0  0  0  0  0
  191.1470  176.5580  137.4030 C   0  0  2  0  0  3  0  0  0  0  0  0
  190.7440  175.1360  137.8170 C   0  0  0  0  0  2  0  0  0  0  0  0
  187.4210  177.2360  135.0090 C   0  0  1  0  0  0  0  0  0  0  0  0
  189.3330  174.7550  137.3700 C   0  0  0  0  0  2  0  0  0  0  0  0
  186.9310  178.6790  134.8140 C   0  0  0  0  0  2  0  0  0  0  0  0
  188.9090  177.5500  134.9000 C   0  0  0  0  0  2  0  0  0  0  0  0
  186.1440  171.6480  136.3620 N   0  0  0  0  0  0  0  0  0  0  0  0
  187.1840  172.3100  135.7980 C   0  0  0  0  0  0  0  0  0  0  0  0
  188.2700  174.2900  135.1500 C   0  0  2  0  0  3  0  0  0  0  0  0
  188.3390  171.7930  135.0420 C   0  0  0  0  0  3  0  0  0  0  0  0
  187.1560  173.6470  135.8710 C   0  0  0  0  0  0  0  0  0  0  0  0
  185.7650  174.1720  136.6550 S   0  0  0  0  0  0  0  0  0  0  0  0
  184.0980  172.1780  137.5840 N   0  0  0  0  0  1  0  0  0  0  0  0
  189.1310  173.0820  134.7030 C   0  0  0  0  0  3  0  0  0  0  0  0
  185.2830  172.5560  136.8920 C   0  0  0  0  0  0  0  0  0  0  0  0
  183.3910  176.3820  134.4160 N   0  0  0  0  0  0  0  0  0  0  0  0
  185.0000  177.3000  135.5390 C   0  0  0  0  0  0  0  0  0  0  0  0
  182.9020  176.6480  135.6460 C   0  0  0  0  0  2  0  0  0  0  0  0
  184.6580  176.7780  134.3460 N   0  0  0  0  0  0  0  0  0  0  0  0
  183.9120  177.2330  136.3790 C   0  0  0  0  0  0  0  0  0  0  0  0
  183.8000  177.7720  137.7650 C   0  0  0  0  0  2  0  0  0  0  0  0
  182.5570  178.6280  137.9050 C   0  0  0  0  0  1  0  0  0  0  0  0
  192.4790  176.8880  137.9350 N   0  0  0  0  0  0  0  0  0  0  0  0
  192.6630  176.4620  139.3320 C   0  0  0  0  0  2  0  0  0  0  0  0
  192.3210  177.5430  140.3430 C   0  0  0  0  0  2  0  0  0  0  0  0
  190.8920  177.0190  141.3440 S   0  0  0  0  0  0  0  0  0  0  0  0
  191.2460  178.5660  143.6100 C   0  0  0  0  0  1  0  0  0  0  0  0
  191.7350  177.2880  142.9470 C   0  0  1  0  0  3  0  0  0  0  0  0
  191.5490  176.1500  143.8290 N   0  0  0  0  0  2  0  0  0  0  0  0
  191.5790  176.6680  145.1840 C   0  0  0  0  0  1  0  0  0  0  0  0
  193.5760  176.3890  137.0890 C   0  0  0  0  0  2  0  0  0  0  0  0
  193.1390  176.1210  135.6460 C   0  0  0  0  0  2  0  0  0  0  0  0
  193.4940  173.6520  135.8410 C   0  0  0  0  0  1  0  0  0  0  0  0
  193.8540  174.9090  135.0670 C   0  0  0  0  0  2  0  0  0  0  0  0
  1 12  1  6  0  0  0
  1  5  1  0  0  0  0
  3  1  1  0  0  0  0
  3 10  1  1  0  0  0
  5  4  2  0  0  0  0
  5  2  1  0  0  0  0
  6 23  1  6  0  0  0
  7  8  1  0  0  0  0
  7  2  1  0  0  0  0
  7 29  1  1  0  0  0
  9 11  1  1  0  0  0
  9  6  1  0  0  0  0
  9  1  1  0  0  0  0
 10  8  1  0  0  0  0
 11  6  1  0  0  0  0
 12  9  1  0  0  0  0
 13 21  2  0  0  0  0
 14 17  2  0  0  0  0
 14 13  1  0  0  0  0
 15 20  1  1  0  0  0
 15 17  1  0  0  0  0
 15  3  1  0  0  0  0
 16 14  1  0  0  0  0
 17 18  1  0  0  0  0
 18 21  1  0  0  0  0
 20 16  2  0  0  0  0
 21 19  1  0  0  0  0
 22 24  1  0  0  0  0
 23 26  2  0  0  0  0
 24 26  1  0  0  0  0
 25 22  2  0  0  0  0
 25 23  1  0  0  0  0
 26 27  1  0  0  0  0
 27 28  1  0  0  0  0
 29 30  1  0  0  0  0
 30 31  1  0  0  0  0
 31 32  1  0  0  0  0
 32 34  1  0  0  0  0
 34 33  1  1  0  0  0
 34 35  1  0  0  0  0
 35 36  1  0  0  0  0
 37 29  1  0  0  0  0
 38 37  1  0  0  0  0
 40 38  1  0  0  0  0
 40 39  1  0  0  0  0
M  END
>  <MODEL>
8

>  <REMARK>
 VINA RESULT:      -5.0      3.016      4.903
  Name = 
  12 active torsions:
  status: ('A' for Active; 'I' for Inactive)
    1  A    between atoms: C_5  and  C_15
    2  A    between atoms: C_7  and  C_10
    3  A    between atoms: C_7  and  S_36
    4  A    between atoms: C_10  and  N_28
    5  A    between atoms: C_11  and  C_16
    6  A    between atoms: C_12  and  N_28
    7  A    between atoms: C_12  and  C_30
    8  A    between atoms: N_13  and  C_35
    9  A    between atoms: C_19  and  C_37
   10  A    between atoms: C_24  and  N_28
   11  A    between atoms: C_29  and  C_30
   12  A    between atoms: C_35  and  S_36
                            x       y       z     vdW  Elec       q    Type
                         _______ _______ _______ _____ _____    ______ ____

>  <TORSDO>
F 12

$$$$
=
 OpenBabel10222421563D

 40 45  0  0  1  0  0  0  0  0999 V2000
  189.1000  177.0850  138.6830 C   0  0  2  0  0  0  0  0  0  0  0  0
  191.0880  175.4720  138.5430 O   0  0  0  0  0  0  0  0  0  0  0  0
  188.4560  176.5600  137.3650 C   0  0  1  0  0  3  0  0  0  0  0  0
  190.3210  176.1640  140.5730 O   0  0  0  0  0  0  0  0  0  0  0  0
  190.1920  176.2180  139.3230 C   0  0  0  0  0  0  0  0  0  0  0  0
  188.3300  177.9530  140.7850 C   0  0  1  0  0  3  0  0  0  0  0  0
  191.0340  175.4190  137.1230 C   0  0  2  0  0  3  0  0  0  0  0  0
  189.8350  174.5750  136.6710 C   0  0  0  0  0  2  0  0  0  0  0  0
  188.4930  178.3880  139.3150 C   0  0  1  0  0  0  0  0  0  0  0  0
  188.5080  175.0420  137.2670 C   0  0  0  0  0  2  0  0  0  0  0  0
  189.1200  179.1630  140.4840 C   0  0  0  0  0  2  0  0  0  0  0  0
  189.7330  178.3960  138.4270 C   0  0  0  0  0  2  0  0  0  0  0  0
  184.7580  175.4140  134.7230 N   0  0  0  0  0  0  0  0  0  0  0  0
  185.6360  176.3090  135.2360 C   0  0  0  0  0  0  0  0  0  0  0  0
  187.0640  177.0630  136.9430 C   0  0  2  0  0  3  0  0  0  0  0  0
  186.0380  177.6370  134.7370 C   0  0  0  0  0  3  0  0  0  0  0  0
  186.1990  175.9940  136.4090 C   0  0  0  0  0  0  0  0  0  0  0  0
  185.6220  174.5170  136.9690 S   0  0  0  0  0  0  0  0  0  0  0  0
  183.8370  173.2290  135.3050 N   0  0  0  0  0  1  0  0  0  0  0  0
  187.0700  178.1030  135.7960 C   0  0  0  0  0  3  0  0  0  0  0  0
  184.6610  174.3590  135.5730 C   0  0  0  0  0  0  0  0  0  0  0  0
  184.8750  178.9270  141.2470 N   0  0  0  0  0  0  0  0  0  0  0  0
  186.9360  178.2590  141.2400 C   0  0  0  0  0  0  0  0  0  0  0  0
  185.1390  178.4720  142.4900 C   0  0  0  0  0  2  0  0  0  0  0  0
  185.9600  178.8030  140.4890 N   0  0  0  0  0  0  0  0  0  0  0  0
  186.4480  178.0410  142.5080 C   0  0  0  0  0  0  0  0  0  0  0  0
  187.1980  177.5390  143.6960 C   0  0  0  0  0  2  0  0  0  0  0  0
  186.3550  177.6630  144.9490 C   0  0  0  0  0  1  0  0  0  0  0  0
  192.2850  174.8650  136.5800 N   0  0  0  0  0  0  0  0  0  0  0  0
  192.3030  174.8170  135.1090 C   0  0  0  0  0  2  0  0  0  0  0  0
  192.9540  173.5620  134.5530 C   0  0  0  0  0  2  0  0  0  0  0  0
  192.3700  172.1050  135.4750 S   0  0  0  0  0  0  0  0  0  0  0  0
  194.8890  171.1260  134.8850 C   0  0  0  0  0  1  0  0  0  0  0  0
  193.4190  170.9230  134.5520 C   0  0  1  0  0  3  0  0  0  0  0  0
  193.0180  169.5530  134.8210 N   0  0  0  0  0  2  0  0  0  0  0  0
  193.6670  169.1690  136.0600 C   0  0  0  0  0  1  0  0  0  0  0  0
  193.4860  175.5450  137.0940 C   0  0  0  0  0  2  0  0  0  0  0  0
  194.2830  174.6810  138.0760 C   0  0  0  0  0  2  0  0  0  0  0  0
  196.7120  174.3790  137.5550 C   0  0  0  0  0  1  0  0  0  0  0  0
  195.3110  173.8250  137.3510 C   0  0  0  0  0  2  0  0  0  0  0  0
  1 12  1  6  0  0  0
  1  9  1  0  0  0  0
  1  5  1  0  0  0  0
  2  5  1  0  0  0  0
  3 10  1  1  0  0  0
  3  1  1  0  0  0  0
  5  4  2  0  0  0  0
  6 23  1  1  0  0  0
  7 29  1  1  0  0  0
  7  2  1  0  0  0  0
  8  7  1  0  0  0  0
  8 10  1  0  0  0  0
  9 12  1  6  0  0  0
  9 11  1  0  0  0  0
  9  6  1  0  0  0  0
 11  6  1  0  0  0  0
 13 14  1  0  0  0  0
 13 21  2  0  0  0  0
 14 17  2  0  0  0  0
 15 20  1  6  0  0  0
 15  3  1  0  0  0  0
 16 14  1  0  0  0  0
 16 20  2  0  0  0  0
 17 15  1  0  0  0  0
 17 18  1  0  0  0  0
 19 21  1  0  0  0  0
 21 18  1  0  0  0  0
 22 24  1  0  0  0  0
 23 26  2  0  0  0  0
 24 26  1  0  0  0  0
 25 23  1  0  0  0  0
 25 22  2  0  0  0  0
 26 27  1  0  0  0  0
 27 28  1  0  0  0  0
 29 37  1  0  0  0  0
 30 29  1  0  0  0  0
 31 30  1  0  0  0  0
 31 32  1  0  0  0  0
 34 35  1  0  0  0  0
 34 33  1  1  0  0  0
 34 32  1  0  0  0  0
 35 36  1  0  0  0  0
 37 38  1  0  0  0  0
 40 39  1  0  0  0  0
 40 38  1  0  0  0  0
M  END
>  <MODEL>
9

>  <REMARK>
 VINA RESULT:      -5.0      1.624      3.006
  Name = 
  12 active torsions:
  status: ('A' for Active; 'I' for Inactive)
    1  A    between atoms: C_5  and  C_15
    2  A    between atoms: C_7  and  C_10
    3  A    between atoms: C_7  and  S_36
    4  A    between atoms: C_10  and  N_28
    5  A    between atoms: C_11  and  C_16
    6  A    between atoms: C_12  and  N_28
    7  A    between atoms: C_12  and  C_30
    8  A    between atoms: N_13  and  C_35
    9  A    between atoms: C_19  and  C_37
   10  A    between atoms: C_24  and  N_28
   11  A    between atoms: C_29  and  C_30
   12  A    between atoms: C_35  and  S_36
                            x       y       z     vdW  Elec       q    Type
                         _______ _______ _______ _____ _____    ______ ____

>  <TORSDO>
F 12

$$$$
