=
 OpenBabel10232412093D

 39 44  0  0  1  0  0  0  0  0999 V2000
  186.9270  178.0710  145.2800 C   0  0  2  0  0  3  0  0  0  0  0  0
  186.0470  177.6950  144.0900 C   0  0  1  0  0  3  0  0  0  0  0  0
  185.2420  179.3480  142.5170 C   0  0  1  0  0  3  0  0  0  0  0  0
  188.2560  178.3570  144.7410 N   0  0  0  0  0  2  0  0  0  0  0  0
  188.2580  177.6270  143.4830 C   0  0  1  0  0  3  0  0  0  0  0  0
  184.9550  178.7330  143.8680 C   0  0  0  0  0  2  0  0  0  0  0  0
  186.6770  178.9680  142.2560 C   0  0  0  0  0  2  0  0  0  0  0  0
  186.9070  177.6830  142.9150 N   0  0  2  0  0  0  0  0  0  0  0  0
  183.0250  178.5150  141.7110 C   0  0  0  0  0  3  0  0  0  0  0  0
  183.9740  178.2630  139.0730 C   0  0  0  0  0  0  0  0  0  0  0  0
  184.3770  178.7840  141.4220 C   0  0  0  0  0  0  0  0  0  0  0  0
  180.3470  177.5870  139.0120 C   0  0  0  0  0  2  0  0  0  0  0  0
  180.4410  177.7840  140.8440 S   0  0  0  0  0  0  0  0  0  0  0  0
  181.6600  177.6940  138.4650 O   0  0  0  0  0  0  0  0  0  0  0  0
  184.8460  178.6570  140.0950 C   0  0  0  0  0  3  0  0  0  0  0  0
  182.6330  178.0200  139.3850 C   0  0  0  0  0  0  0  0  0  0  0  0
  182.1770  178.1220  140.6750 C   0  0  0  0  0  0  0  0  0  0  0  0
  184.4370  178.1340  137.7690 O   0  0  0  0  0  1  0  0  0  0  0  0
  186.9980  176.8860  146.2420 C   0  0  0  0  0  2  0  0  0  0  0  0
  188.2910  176.9170  147.0250 C   0  0  0  0  0  2  0  0  0  0  0  0
  189.1630  178.5230  148.6130 N   0  0  0  0  0  1  0  0  0  0  0  0
  188.0610  177.6100  148.3550 C   0  0  0  0  0  2  0  0  0  0  0  0
  189.3680  178.0710  142.5130 C   0  0  2  0  0  3  0  0  0  0  0  0
  189.8470  176.9100  141.7530 N   0  0  0  0  0  2  0  0  0  0  0  0
  189.2260  177.7850  139.5090 N   0  0  0  0  0  2  0  0  0  0  0  0
  189.9180  176.8310  140.3250 C   0  0  0  0  0  0  0  0  0  0  0  0
  190.6010  175.9170  139.7980 O   0  0  0  0  0  0  0  0  0  0  0  0
  189.1600  177.7040  138.1060 N   0  0  0  0  0  0  0  0  0  0  0  0
  189.1020  179.0730  137.6380 C   0  0  0  0  0  1  0  0  0  0  0  0
  186.4330  176.6510  135.7870 O   0  0  0  0  0  1  0  0  0  0  0  0
  187.7390  176.7350  136.2800 C   0  0  1  0  0  0  0  0  0  0  0  0
  189.9900  175.9460  135.7610 C   0  0  2  0  0  3  0  0  0  0  0  0
  188.8740  176.8460  135.2760 C   0  0  0  0  0  2  0  0  0  0  0  0
  187.8790  177.0770  137.7640 C   0  0  1  0  0  3  0  0  0  0  0  0
  190.4000  174.9960  134.6580 C   0  0  0  0  0  1  0  0  0  0  0  0
  189.4660  175.1650  136.9510 C   0  0  0  0  0  2  0  0  0  0  0  0
  188.0360  175.6230  137.2540 C   0  0  2  0  0  3  0  0  0  0  0  0
  191.6030  178.1060  143.5540 C   0  0  0  0  0  2  0  0  0  0  0  0
  190.4910  178.7700  143.2270 C   0  0  0  0  0  3  0  0  0  0  0  0
  1 19  1  1  0  0  0
  2  6  1  6  0  0  0
  2  1  1  0  0  0  0
  3 11  1  6  0  0  0
  3  6  1  0  0  0  0
  4  1  1  0  0  0  0
  5 23  1  6  0  0  0
  5  4  1  0  0  0  0
  7  3  1  0  0  0  0
  8  7  1  1  0  0  0
  8  5  1  0  0  0  0
  8  2  1  0  0  0  0
 10 16  2  0  0  0  0
 10 15  1  0  0  0  0
 11  9  1  0  0  0  0
 12 13  1  0  0  0  0
 14 12  1  0  0  0  0
 14 16  1  0  0  0  0
 15 11  2  0  0  0  0
 16 17  1  0  0  0  0
 17 13  1  0  0  0  0
 17  9  2  0  0  0  0
 18 10  1  0  0  0  0
 19 20  1  0  0  0  0
 20 22  1  0  0  0  0
 22 21  1  0  0  0  0
 23 39  1  1  0  0  0
 24 23  1  0  0  0  0
 25 26  1  0  0  0  0
 26 24  1  0  0  0  0
 27 26  2  0  0  0  0
 28 25  1  0  0  0  0
 29 28  1  0  0  0  0
 31 30  1  6  0  0  0
 31 37  1  0  0  0  0
 31 34  1  0  0  0  0
 32 35  1  6  0  0  0
 32 36  1  0  0  0  0
 33 32  1  0  0  0  0
 33 31  1  0  0  0  0
 34 28  1  6  0  0  0
 37 36  1  6  0  0  0
 37 34  1  0  0  0  0
 39 38  2  0  0  0  0
M  END
>  <MODEL>
1

>  <REMARK>
 VINA RESULT:      -7.4      0.000      0.000
  Name = 
  9 active torsions:
  status: ('A' for Active; 'I' for Inactive)
    1  A    between atoms: C_5  and  C_28
    2  A    between atoms: N_6  and  N_16
    3  A    between atoms: N_6  and  C_23
    4  A    between atoms: N_7  and  C_30
    5  A    between atoms: C_10  and  C_14
    6  A    between atoms: C_13  and  C_24
    7  A    between atoms: C_13  and  C_28
    8  A    between atoms: C_22  and  C_30
    9  A    between atoms: C_26  and  C_30
                            x       y       z     vdW  Elec       q    Type
                         _______ _______ _______ _____ _____    ______ ____

>  <TORSDO>
F 9

$$$$
=
 OpenBabel10232412093D

 39 44  0  0  1  0  0  0  0  0999 V2000
  190.8840  177.4920  142.5300 C   0  0  2  0  0  3  0  0  0  0  0  0
  189.3860  177.3480  142.2670 C   0  0  1  0  0  3  0  0  0  0  0  0
  188.1120  179.0610  141.1290 C   0  0  1  0  0  3  0  0  0  0  0  0
  191.5530  177.2840  141.2470 N   0  0  0  0  0  2  0  0  0  0  0  0
  190.5780  176.5090  140.4950 C   0  0  1  0  0  3  0  0  0  0  0  0
  188.6630  178.6710  142.4820 C   0  0  0  0  0  2  0  0  0  0  0  0
  188.9040  178.2090  140.1690 C   0  0  0  0  0  2  0  0  0  0  0  0
  189.2370  176.9700  140.8690 N   0  0  2  0  0  0  0  0  0  0  0  0
  185.8220  178.8520  142.1130 C   0  0  0  0  0  3  0  0  0  0  0  0
  184.6860  178.3240  139.5920 C   0  0  0  0  0  0  0  0  0  0  0  0
  186.6500  178.7410  140.9790 C   0  0  0  0  0  0  0  0  0  0  0  0
  181.9140  178.6560  142.0070 C   0  0  0  0  0  2  0  0  0  0  0  0
  183.2470  178.8400  143.2690 S   0  0  0  0  0  0  0  0  0  0  0  0
  182.5100  178.3970  140.7360 O   0  0  0  0  0  0  0  0  0  0  0  0
  186.0720  178.4770  139.7170 C   0  0  0  0  0  3  0  0  0  0  0  0
  183.8870  178.4570  140.7320 C   0  0  0  0  0  0  0  0  0  0  0  0
  184.4440  178.6930  141.9640 C   0  0  0  0  0  0  0  0  0  0  0  0
  184.1180  178.0610  138.3520 O   0  0  0  0  0  1  0  0  0  0  0  0
  191.3200  176.4200  143.5270 C   0  0  0  0  0  2  0  0  0  0  0  0
  190.9050  176.8020  144.9310 C   0  0  0  0  0  2  0  0  0  0  0  0
  191.7400  176.8390  147.2030 N   0  0  0  0  0  1  0  0  0  0  0  0
  191.8320  176.1380  145.9320 C   0  0  0  0  0  2  0  0  0  0  0  0
  190.8380  176.4920  138.9790 C   0  0  2  0  0  3  0  0  0  0  0  0
  190.6330  175.1340  138.4620 N   0  0  0  0  0  2  0  0  0  0  0  0
  188.7470  175.7080  136.9460 N   0  0  0  0  0  2  0  0  0  0  0  0
  189.7460  174.7830  137.3940 C   0  0  0  0  0  0  0  0  0  0  0  0
  189.8610  173.6550  136.8510 O   0  0  0  0  0  0  0  0  0  0  0  0
  187.7730  175.3920  135.9810 N   0  0  0  0  0  0  0  0  0  0  0  0
  188.0780  176.2200  134.8320 C   0  0  0  0  0  1  0  0  0  0  0  0
  184.0660  175.8110  135.9010 O   0  0  0  0  0  1  0  0  0  0  0  0
  185.2810  175.1200  135.8810 C   0  0  1  0  0  0  0  0  0  0  0  0
  186.1340  172.8380  135.7210 C   0  0  2  0  0  3  0  0  0  0  0  0
  185.4040  173.9210  134.9560 C   0  0  0  0  0  2  0  0  0  0  0  0
  186.4780  175.8400  136.5030 C   0  0  1  0  0  3  0  0  0  0  0  0
  185.3320  171.5560  135.6890 C   0  0  0  0  0  1  0  0  0  0  0  0
  186.2940  173.3150  137.1520 C   0  0  0  0  0  2  0  0  0  0  0  0
  185.7190  174.7300  137.2710 C   0  0  2  0  0  3  0  0  0  0  0  0
  193.1040  176.2240  138.0440 C   0  0  0  0  0  2  0  0  0  0  0  0
  192.2060  177.0150  138.6380 C   0  0  0  0  0  3  0  0  0  0  0  0
  1 19  1  1  0  0  0
  2  6  1  6  0  0  0
  2  1  1  0  0  0  0
  3 11  1  1  0  0  0
  3  6  1  0  0  0  0
  4  1  1  0  0  0  0
  5 23  1  6  0  0  0
  5  8  1  0  0  0  0
  5  4  1  0  0  0  0
  7  3  1  0  0  0  0
  8  7  1  6  0  0  0
  8  2  1  0  0  0  0
 10 15  2  0  0  0  0
 10 16  1  0  0  0  0
 11  9  2  0  0  0  0
 12 13  1  0  0  0  0
 14 12  1  0  0  0  0
 15 11  1  0  0  0  0
 16 14  1  0  0  0  0
 16 17  2  0  0  0  0
 17  9  1  0  0  0  0
 17 13  1  0  0  0  0
 18 10  1  0  0  0  0
 19 20  1  0  0  0  0
 20 22  1  0  0  0  0
 22 21  1  0  0  0  0
 23 39  1  1  0  0  0
 24 23  1  0  0  0  0
 25 26  1  0  0  0  0
 26 24  1  0  0  0  0
 27 26  2  0  0  0  0
 28 25  1  0  0  0  0
 29 28  1  0  0  0  0
 31 30  1  6  0  0  0
 31 34  1  0  0  0  0
 31 37  1  0  0  0  0
 32 35  1  1  0  0  0
 32 36  1  0  0  0  0
 33 32  1  0  0  0  0
 33 31  1  0  0  0  0
 34 28  1  6  0  0  0
 34 37  1  0  0  0  0
 37 36  1  6  0  0  0
 38 39  2  0  0  0  0
M  END
>  <MODEL>
2

>  <REMARK>
 VINA RESULT:      -7.1      2.411      3.727
  Name = 
  9 active torsions:
  status: ('A' for Active; 'I' for Inactive)
    1  A    between atoms: C_5  and  C_28
    2  A    between atoms: N_6  and  N_16
    3  A    between atoms: N_6  and  C_23
    4  A    between atoms: N_7  and  C_30
    5  A    between atoms: C_10  and  C_14
    6  A    between atoms: C_13  and  C_24
    7  A    between atoms: C_13  and  C_28
    8  A    between atoms: C_22  and  C_30
    9  A    between atoms: C_26  and  C_30
                            x       y       z     vdW  Elec       q    Type
                         _______ _______ _______ _____ _____    ______ ____

>  <TORSDO>
F 9

$$$$
=
 OpenBabel10232412093D

 39 44  0  0  1  0  0  0  0  0999 V2000
  188.0060  173.8130  136.2700 C   0  0  2  0  0  3  0  0  0  0  0  0
  189.3790  173.5410  136.8810 C   0  0  1  0  0  3  0  0  0  0  0  0
  191.4270  174.2140  135.7840 C   0  0  1  0  0  3  0  0  0  0  0  0
  187.7500  175.2430  136.4410 N   0  0  0  0  0  2  0  0  0  0  0  0
  188.6100  175.5940  137.5600 C   0  0  1  0  0  3  0  0  0  0  0  0
  190.3800  173.1240  135.8130 C   0  0  0  0  0  2  0  0  0  0  0  0
  190.7540  175.3660  136.4840 C   0  0  0  0  0  2  0  0  0  0  0  0
  189.8350  174.7940  137.4680 N   0  0  2  0  0  0  0  0  0  0  0  0
  193.3140  172.6290  136.2170 C   0  0  0  0  0  3  0  0  0  0  0  0
  194.5310  174.4230  138.0130 C   0  0  0  0  0  0  0  0  0  0  0  0
  192.6770  173.8440  136.5360 C   0  0  0  0  0  0  0  0  0  0  0  0
  196.8510  171.5930  137.5340 C   0  0  0  0  0  2  0  0  0  0  0  0
  195.5090  170.8770  136.4890 S   0  0  0  0  0  0  0  0  0  0  0  0
  196.3930  172.8190  138.1030 O   0  0  0  0  0  0  0  0  0  0  0  0
  193.2950  174.7400  137.4370 C   0  0  0  0  0  3  0  0  0  0  0  0
  195.1490  173.2190  137.6630 C   0  0  0  0  0  0  0  0  0  0  0  0
  194.5440  172.3350  136.8050 C   0  0  0  0  0  0  0  0  0  0  0  0
  195.1370  175.3020  138.9010 O   0  0  0  0  0  1  0  0  0  0  0  0
  186.9550  173.0010  137.0260 C   0  0  0  0  0  2  0  0  0  0  0  0
  185.5890  173.6330  136.8740 C   0  0  0  0  0  2  0  0  0  0  0  0
  183.9520  171.8480  136.8610 N   0  0  0  0  0  1  0  0  0  0  0  0
  184.5780  172.8590  137.6990 C   0  0  0  0  0  2  0  0  0  0  0  0
  188.8550  177.1070  137.7000 C   0  0  2  0  0  3  0  0  0  0  0  0
  188.1690  177.6050  138.8970 N   0  0  0  0  0  2  0  0  0  0  0  0
  190.0950  177.3280  140.4450 N   0  0  0  0  0  2  0  0  0  0  0  0
  188.7910  177.8510  140.1630 C   0  0  0  0  0  0  0  0  0  0  0  0
  188.1800  178.5380  141.0210 O   0  0  0  0  0  0  0  0  0  0  0  0
  190.7200  177.4350  141.7010 N   0  0  0  0  0  0  0  0  0  0  0  0
  192.0480  177.9500  141.4350 C   0  0  0  0  0  1  0  0  0  0  0  0
  191.9380  174.8810  144.1340 O   0  0  0  0  0  1  0  0  0  0  0  0
  191.2620  176.0280  143.7060 C   0  0  1  0  0  0  0  0  0  0  0  0
  189.8880  177.8350  144.6030 C   0  0  2  0  0  3  0  0  0  0  0  0
  191.2830  177.2470  144.6130 C   0  0  0  0  0  2  0  0  0  0  0  0
  190.8830  176.0750  142.2250 C   0  0  1  0  0  3  0  0  0  0  0  0
  189.3890  177.9930  146.0220 C   0  0  0  0  0  1  0  0  0  0  0  0
  188.9910  176.8790  143.8400 C   0  0  0  0  0  2  0  0  0  0  0  0
  189.8390  175.7170  143.3120 C   0  0  2  0  0  3  0  0  0  0  0  0
  187.5130  178.8190  136.5390 C   0  0  0  0  0  2  0  0  0  0  0  0
  188.4390  177.8600  136.4660 C   0  0  0  0  0  3  0  0  0  0  0  0
  1  4  1  0  0  0  0
  1  2  1  0  0  0  0
  1 19  1  1  0  0  0
  2  6  1  6  0  0  0
  2  8  1  0  0  0  0
  3  6  1  0  0  0  0
  3  7  1  0  0  0  0
  3 11  1  1  0  0  0
  4  5  1  0  0  0  0
  5 23  1  6  0  0  0
  8  7  1  6  0  0  0
  8  5  1  0  0  0  0
  9 11  2  0  0  0  0
  9 17  1  0  0  0  0
 10 18  1  0  0  0  0
 11 15  1  0  0  0  0
 12 14  1  0  0  0  0
 13 17  1  0  0  0  0
 13 12  1  0  0  0  0
 15 10  2  0  0  0  0
 16 10  1  0  0  0  0
 16 14  1  0  0  0  0
 17 16  2  0  0  0  0
 20 19  1  0  0  0  0
 20 22  1  0  0  0  0
 21 22  1  0  0  0  0
 23 39  1  6  0  0  0
 23 24  1  0  0  0  0
 24 26  1  0  0  0  0
 25 28  1  0  0  0  0
 26 25  1  0  0  0  0
 26 27  2  0  0  0  0
 29 28  1  0  0  0  0
 31 30  1  1  0  0  0
 31 33  1  0  0  0  0
 32 33  1  0  0  0  0
 32 35  1  1  0  0  0
 34 28  1  1  0  0  0
 34 37  1  0  0  0  0
 34 31  1  0  0  0  0
 36 32  1  0  0  0  0
 37 31  1  0  0  0  0
 37 36  1  1  0  0  0
 39 38  2  0  0  0  0
M  END
>  <MODEL>
3

>  <REMARK>
 VINA RESULT:      -6.9      4.600     10.003
  Name = 
  9 active torsions:
  status: ('A' for Active; 'I' for Inactive)
    1  A    between atoms: C_5  and  C_28
    2  A    between atoms: N_6  and  N_16
    3  A    between atoms: N_6  and  C_23
    4  A    between atoms: N_7  and  C_30
    5  A    between atoms: C_10  and  C_14
    6  A    between atoms: C_13  and  C_24
    7  A    between atoms: C_13  and  C_28
    8  A    between atoms: C_22  and  C_30
    9  A    between atoms: C_26  and  C_30
                            x       y       z     vdW  Elec       q    Type
                         _______ _______ _______ _____ _____    ______ ____

>  <TORSDO>
F 9

$$$$
=
 OpenBabel10232412093D

 39 44  0  0  1  0  0  0  0  0999 V2000
  184.1760  176.6260  136.4520 C   0  0  2  0  0  3  0  0  0  0  0  0
  185.5990  176.3090  136.9090 C   0  0  1  0  0  3  0  0  0  0  0  0
  187.4740  177.7290  136.3430 C   0  0  1  0  0  3  0  0  0  0  0  0
  183.7130  177.7420  137.2760 N   0  0  0  0  0  2  0  0  0  0  0  0
  184.5560  177.6420  138.4580 C   0  0  1  0  0  3  0  0  0  0  0  0
  186.6070  176.6120  135.8080 C   0  0  0  0  0  2  0  0  0  0  0  0
  186.6630  178.2870  137.4840 C   0  0  0  0  0  2  0  0  0  0  0  0
  185.8840  177.1810  138.0390 N   0  0  2  0  0  0  0  0  0  0  0  0
  189.6550  176.5550  135.9920 C   0  0  0  0  0  3  0  0  0  0  0  0
  190.5390  177.2260  138.5790 C   0  0  0  0  0  0  0  0  0  0  0  0
  188.7950  177.2410  136.8720 C   0  0  0  0  0  0  0  0  0  0  0  0
  193.3680  175.6350  136.8220 C   0  0  0  0  0  2  0  0  0  0  0  0
  192.1680  175.3930  135.4420 S   0  0  0  0  0  0  0  0  0  0  0  0
  192.6890  176.2230  137.9310 O   0  0  0  0  0  0  0  0  0  0  0  0
  189.2470  177.5750  138.1690 C   0  0  0  0  0  3  0  0  0  0  0  0
  191.3770  176.5620  137.6780 C   0  0  0  0  0  0  0  0  0  0  0  0
  190.9380  176.2160  136.4250 C   0  0  0  0  0  0  0  0  0  0  0  0
  190.9810  177.5510  139.8560 O   0  0  0  0  0  1  0  0  0  0  0  0
  183.2930  175.4020  136.6880 C   0  0  0  0  0  2  0  0  0  0  0  0
  181.8700  175.8240  136.9770 C   0  0  0  0  0  2  0  0  0  0  0  0
  181.4100  176.0060  139.3480 N   0  0  0  0  0  1  0  0  0  0  0  0
  181.3670  175.0990  138.2110 C   0  0  0  0  0  2  0  0  0  0  0  0
  184.5740  178.9210  139.3140 C   0  0  2  0  0  3  0  0  0  0  0  0
  184.3980  178.5670  140.7270 N   0  0  0  0  0  2  0  0  0  0  0  0
  186.8190  178.5100  141.2920 N   0  0  0  0  0  2  0  0  0  0  0  0
  185.4460  178.5160  141.7010 C   0  0  0  0  0  0  0  0  0  0  0  0
  185.1440  178.4830  142.9210 O   0  0  0  0  0  0  0  0  0  0  0  0
  187.8950  178.3500  142.1830 N   0  0  0  0  0  0  0  0  0  0  0  0
  188.9700  179.1610  141.6500 C   0  0  0  0  0  1  0  0  0  0  0  0
  190.2390  175.5040  142.7620 O   0  0  0  0  0  1  0  0  0  0  0  0
  189.4200  176.5840  143.1060 C   0  0  1  0  0  0  0  0  0  0  0  0
  188.6780  177.8150  145.0790 C   0  0  2  0  0  3  0  0  0  0  0  0
  189.8860  177.5040  144.2220 C   0  0  0  0  0  2  0  0  0  0  0  0
  188.3290  176.9510  142.0990 C   0  0  1  0  0  3  0  0  0  0  0  0
  188.9810  177.5020  146.5270 C   0  0  0  0  0  1  0  0  0  0  0  0
  187.5320  176.9510  144.5880 C   0  0  0  0  0  2  0  0  0  0  0  0
  188.0040  176.1400  143.3780 C   0  0  2  0  0  3  0  0  0  0  0  0
  182.3060  179.8870  139.3590 C   0  0  0  0  0  2  0  0  0  0  0  0
  183.5440  179.9170  138.8570 C   0  0  0  0  0  3  0  0  0  0  0  0
  1 19  1  1  0  0  0
  1  2  1  0  0  0  0
  1  4  1  0  0  0  0
  2  6  1  6  0  0  0
  2  8  1  0  0  0  0
  3 11  1  1  0  0  0
  3  7  1  0  0  0  0
  4  5  1  0  0  0  0
  5 23  1  6  0  0  0
  6  3  1  0  0  0  0
  8  7  1  6  0  0  0
  8  5  1  0  0  0  0
  9 17  2  0  0  0  0
  9 11  1  0  0  0  0
 10 18  1  0  0  0  0
 11 15  2  0  0  0  0
 12 14  1  0  0  0  0
 13 17  1  0  0  0  0
 13 12  1  0  0  0  0
 15 10  1  0  0  0  0
 16 14  1  0  0  0  0
 16 10  2  0  0  0  0
 17 16  1  0  0  0  0
 19 20  1  0  0  0  0
 20 22  1  0  0  0  0
 22 21  1  0  0  0  0
 23 39  1  6  0  0  0
 23 24  1  0  0  0  0
 24 26  1  0  0  0  0
 25 26  1  0  0  0  0
 25 28  1  0  0  0  0
 26 27  2  0  0  0  0
 29 28  1  0  0  0  0
 31 30  1  6  0  0  0
 31 37  1  0  0  0  0
 31 33  1  0  0  0  0
 32 35  1  1  0  0  0
 33 32  1  0  0  0  0
 34 28  1  1  0  0  0
 34 31  1  0  0  0  0
 34 37  1  0  0  0  0
 36 32  1  0  0  0  0
 37 36  1  1  0  0  0
 39 38  2  0  0  0  0
M  END
>  <MODEL>
4

>  <REMARK>
 VINA RESULT:      -6.9      3.328      8.460
  Name = 
  9 active torsions:
  status: ('A' for Active; 'I' for Inactive)
    1  A    between atoms: C_5  and  C_28
    2  A    between atoms: N_6  and  N_16
    3  A    between atoms: N_6  and  C_23
    4  A    between atoms: N_7  and  C_30
    5  A    between atoms: C_10  and  C_14
    6  A    between atoms: C_13  and  C_24
    7  A    between atoms: C_13  and  C_28
    8  A    between atoms: C_22  and  C_30
    9  A    between atoms: C_26  and  C_30
                            x       y       z     vdW  Elec       q    Type
                         _______ _______ _______ _____ _____    ______ ____

>  <TORSDO>
F 9

$$$$
=
 OpenBabel10232412093D

 39 44  0  0  1  0  0  0  0  0999 V2000
  190.1390  176.7070  136.9370 C   0  0  2  0  0  3  0  0  0  0  0  0
  189.6490  176.5500  138.3750 C   0  0  1  0  0  3  0  0  0  0  0  0
  188.7940  178.4180  139.6520 C   0  0  1  0  0  3  0  0  0  0  0  0
  188.9460  176.8640  136.1060 N   0  0  0  0  0  2  0  0  0  0  0  0
  187.9050  176.2480  136.9150 C   0  0  1  0  0  3  0  0  0  0  0  0
  190.0750  177.7350  139.2310 C   0  0  0  0  0  2  0  0  0  0  0  0
  187.7740  177.8790  138.6820 C   0  0  0  0  0  2  0  0  0  0  0  0
  188.1940  176.5250  138.3250 N   0  0  2  0  0  0  0  0  0  0  0  0
  189.3720  177.6850  141.9730 C   0  0  0  0  0  3  0  0  0  0  0  0
  186.7190  178.0380  142.8450 C   0  0  0  0  0  0  0  0  0  0  0  0
  188.3750  178.0650  141.0530 C   0  0  0  0  0  0  0  0  0  0  0  0
  188.7620  177.2410  145.8130 C   0  0  0  0  0  2  0  0  0  0  0  0
  190.1480  177.0490  144.6110 S   0  0  0  0  0  0  0  0  0  0  0  0
  187.5590  177.5170  145.0970 O   0  0  0  0  0  0  0  0  0  0  0  0
  187.0460  178.2420  141.4990 C   0  0  0  0  0  3  0  0  0  0  0  0
  187.7320  177.6800  143.7390 C   0  0  0  0  0  0  0  0  0  0  0  0
  189.0210  177.4860  143.3080 C   0  0  0  0  0  0  0  0  0  0  0  0
  185.4110  178.2090  143.2820 O   0  0  0  0  0  1  0  0  0  0  0  0
  190.8980  175.4460  136.5290 C   0  0  0  0  0  2  0  0  0  0  0  0
  192.0700  175.2110  137.4560 C   0  0  0  0  0  2  0  0  0  0  0  0
  194.3600  175.8160  136.9540 N   0  0  0  0  0  1  0  0  0  0  0  0
  193.0590  176.3530  137.3230 C   0  0  0  0  0  2  0  0  0  0  0  0
  186.4790  176.6250  136.4780 C   0  0  2  0  0  3  0  0  0  0  0  0
  185.5130  175.7490  137.1510 N   0  0  0  0  0  2  0  0  0  0  0  0
  183.7450  177.4740  137.4410 N   0  0  0  0  0  2  0  0  0  0  0  0
  184.1640  176.1050  137.4760 C   0  0  0  0  0  0  0  0  0  0  0  0
  183.3520  175.1960  137.7880 O   0  0  0  0  0  0  0  0  0  0  0  0
  182.4720  177.9080  137.8530 N   0  0  0  0  0  0  0  0  0  0  0  0
  181.6800  178.0040  136.6430 C   0  0  0  0  0  1  0  0  0  0  0  0
  181.2330  181.1550  139.2140 O   0  0  0  0  0  1  0  0  0  0  0  0
  181.4020  179.7680  139.1530 C   0  0  1  0  0  0  0  0  0  0  0  0
  180.7530  177.7490  140.3630 C   0  0  2  0  0  3  0  0  0  0  0  0
  180.2180  178.8900  139.5230 C   0  0  0  0  0  2  0  0  0  0  0  0
  182.6220  179.2690  138.3780 C   0  0  1  0  0  3  0  0  0  0  0  0
  179.9820  177.6630  141.6610 C   0  0  0  0  0  1  0  0  0  0  0  0
  182.2160  178.0320  140.6440 C   0  0  0  0  0  2  0  0  0  0  0  0
  182.6190  179.3240  139.9260 C   0  0  2  0  0  3  0  0  0  0  0  0
  186.1430  175.4170  134.3550 C   0  0  0  0  0  2  0  0  0  0  0  0
  186.3200  176.5820  134.9830 C   0  0  0  0  0  3  0  0  0  0  0  0
  1 19  1  6  0  0  0
  1  2  1  0  0  0  0
  2  6  1  1  0  0  0
  3 11  1  1  0  0  0
  4  5  1  0  0  0  0
  4  1  1  0  0  0  0
  5 23  1  6  0  0  0
  5  8  1  0  0  0  0
  6  3  1  0  0  0  0
  7  3  1  0  0  0  0
  8  2  1  0  0  0  0
  8  7  1  6  0  0  0
  9 17  1  0  0  0  0
 10 18  1  0  0  0  0
 10 16  1  0  0  0  0
 11 15  1  0  0  0  0
 11  9  2  0  0  0  0
 13 12  1  0  0  0  0
 14 12  1  0  0  0  0
 15 10  2  0  0  0  0
 16 14  1  0  0  0  0
 17 16  2  0  0  0  0
 17 13  1  0  0  0  0
 19 20  1  0  0  0  0
 21 22  1  0  0  0  0
 22 20  1  0  0  0  0
 23 39  1  6  0  0  0
 23 24  1  0  0  0  0
 24 26  1  0  0  0  0
 25 26  1  0  0  0  0
 25 28  1  0  0  0  0
 26 27  2  0  0  0  0
 29 28  1  0  0  0  0
 31 30  1  6  0  0  0
 31 33  1  0  0  0  0
 31 37  1  0  0  0  0
 32 36  1  0  0  0  0
 32 35  1  1  0  0  0
 33 32  1  0  0  0  0
 34 28  1  1  0  0  0
 34 31  1  0  0  0  0
 34 37  1  0  0  0  0
 37 36  1  1  0  0  0
 38 39  2  0  0  0  0
M  END
>  <MODEL>
5

>  <REMARK>
 VINA RESULT:      -6.7      3.451      8.169
  Name = 
  9 active torsions:
  status: ('A' for Active; 'I' for Inactive)
    1  A    between atoms: C_5  and  C_28
    2  A    between atoms: N_6  and  N_16
    3  A    between atoms: N_6  and  C_23
    4  A    between atoms: N_7  and  C_30
    5  A    between atoms: C_10  and  C_14
    6  A    between atoms: C_13  and  C_24
    7  A    between atoms: C_13  and  C_28
    8  A    between atoms: C_22  and  C_30
    9  A    between atoms: C_26  and  C_30
                            x       y       z     vdW  Elec       q    Type
                         _______ _______ _______ _____ _____    ______ ____

>  <TORSDO>
F 9

$$$$
=
 OpenBabel10232412093D

 39 44  0  0  1  0  0  0  0  0999 V2000
  190.8280  177.4780  142.4980 C   0  0  2  0  0  3  0  0  0  0  0  0
  189.3250  177.3760  142.2490 C   0  0  1  0  0  3  0  0  0  0  0  0
  188.0830  179.1400  141.1530 C   0  0  1  0  0  3  0  0  0  0  0  0
  191.4790  177.2750  141.2050 N   0  0  0  0  0  2  0  0  0  0  0  0
  190.4770  176.5390  140.4500 C   0  0  1  0  0  3  0  0  0  0  0  0
  188.6380  178.7120  142.4930 C   0  0  0  0  0  2  0  0  0  0  0  0
  188.8430  178.2860  140.1710 C   0  0  0  0  0  2  0  0  0  0  0  0
  189.1520  177.0260  140.8460 N   0  0  2  0  0  0  0  0  0  0  0  0
  186.1170  178.5090  139.7420 C   0  0  0  0  0  3  0  0  0  0  0  0
  184.4230  178.3960  141.9870 C   0  0  0  0  0  0  0  0  0  0  0  0
  186.6120  178.8590  141.0130 C   0  0  0  0  0  0  0  0  0  0  0  0
  182.4970  177.1730  139.0870 C   0  0  0  0  0  2  0  0  0  0  0  0
  184.0020  177.5980  138.1090 S   0  0  0  0  0  0  0  0  0  0  0  0
  182.6990  177.5600  140.4450 O   0  0  0  0  0  0  0  0  0  0  0  0
  185.7560  178.7990  142.1360 C   0  0  0  0  0  3  0  0  0  0  0  0
  183.9640  178.0370  140.7170 C   0  0  0  0  0  0  0  0  0  0  0  0
  184.7840  178.1140  139.6190 C   0  0  0  0  0  0  0  0  0  0  0  0
  183.5810  178.3410  143.0910 O   0  0  0  0  0  1  0  0  0  0  0  0
  191.2470  176.3770  143.4720 C   0  0  0  0  0  2  0  0  0  0  0  0
  191.1550  176.8700  144.8990 C   0  0  0  0  0  2  0  0  0  0  0  0
  192.0570  176.4380  147.1040 N   0  0  0  0  0  1  0  0  0  0  0  0
  191.7080  175.8140  145.8370 C   0  0  0  0  0  2  0  0  0  0  0  0
  190.7220  176.5420  138.9310 C   0  0  2  0  0  3  0  0  0  0  0  0
  190.6530  175.1670  138.4210 N   0  0  0  0  0  2  0  0  0  0  0  0
  188.5970  175.4900  137.0600 N   0  0  0  0  0  2  0  0  0  0  0  0
  189.7380  174.7030  137.4220 C   0  0  0  0  0  0  0  0  0  0  0  0
  189.9540  173.5980  136.8630 O   0  0  0  0  0  0  0  0  0  0  0  0
  187.5990  175.0500  136.1710 N   0  0  0  0  0  0  0  0  0  0  0  0
  187.3850  176.1450  135.2480 C   0  0  0  0  0  1  0  0  0  0  0  0
  183.9660  174.3180  136.6130 O   0  0  0  0  0  1  0  0  0  0  0  0
  185.2880  174.0750  136.2260 C   0  0  1  0  0  0  0  0  0  0  0  0
  186.6400  172.3370  135.1710 C   0  0  2  0  0  3  0  0  0  0  0  0
  185.5230  173.3280  134.9230 C   0  0  0  0  0  2  0  0  0  0  0  0
  186.3630  174.8910  136.9450 C   0  0  1  0  0  3  0  0  0  0  0  0
  186.1970  170.9510  134.7580 C   0  0  0  0  0  1  0  0  0  0  0  0
  186.9550  172.3620  136.6550 C   0  0  0  0  0  2  0  0  0  0  0  0
  186.0770  173.4180  137.3310 C   0  0  2  0  0  3  0  0  0  0  0  0
  193.0070  176.4990  138.0040 C   0  0  0  0  0  2  0  0  0  0  0  0
  192.0240  177.2030  138.5730 C   0  0  0  0  0  3  0  0  0  0  0  0
  1 19  1  1  0  0  0
  2  6  1  6  0  0  0
  2  1  1  0  0  0  0
  3 11  1  1  0  0  0
  3  6  1  0  0  0  0
  4  1  1  0  0  0  0
  5 23  1  6  0  0  0
  5  8  1  0  0  0  0
  5  4  1  0  0  0  0
  7  3  1  0  0  0  0
  8  7  1  6  0  0  0
  8  2  1  0  0  0  0
  9 11  1  0  0  0  0
 10 15  1  0  0  0  0
 10 18  1  0  0  0  0
 11 15  2  0  0  0  0
 12 14  1  0  0  0  0
 13 12  1  0  0  0  0
 13 17  1  0  0  0  0
 14 16  1  0  0  0  0
 16 10  2  0  0  0  0
 17  9  2  0  0  0  0
 17 16  1  0  0  0  0
 19 20  1  0  0  0  0
 20 22  1  0  0  0  0
 22 21  1  0  0  0  0
 23 39  1  1  0  0  0
 24 23  1  0  0  0  0
 25 26  1  0  0  0  0
 26 24  1  0  0  0  0
 27 26  2  0  0  0  0
 28 25  1  0  0  0  0
 29 28  1  0  0  0  0
 31 30  1  1  0  0  0
 31 34  1  0  0  0  0
 31 37  1  0  0  0  0
 32 35  1  1  0  0  0
 32 36  1  0  0  0  0
 33 32  1  0  0  0  0
 33 31  1  0  0  0  0
 34 28  1  6  0  0  0
 34 37  1  0  0  0  0
 37 36  1  6  0  0  0
 38 39  2  0  0  0  0
M  END
>  <MODEL>
6

>  <REMARK>
 VINA RESULT:      -6.5      2.715      3.931
  Name = 
  9 active torsions:
  status: ('A' for Active; 'I' for Inactive)
    1  A    between atoms: C_5  and  C_28
    2  A    between atoms: N_6  and  N_16
    3  A    between atoms: N_6  and  C_23
    4  A    between atoms: N_7  and  C_30
    5  A    between atoms: C_10  and  C_14
    6  A    between atoms: C_13  and  C_24
    7  A    between atoms: C_13  and  C_28
    8  A    between atoms: C_22  and  C_30
    9  A    between atoms: C_26  and  C_30
                            x       y       z     vdW  Elec       q    Type
                         _______ _______ _______ _____ _____    ______ ____

>  <TORSDO>
F 9

$$$$
=
 OpenBabel10232412093D

 39 44  0  0  1  0  0  0  0  0999 V2000
  191.5750  176.1050  137.5300 C   0  0  2  0  0  3  0  0  0  0  0  0
  190.7630  176.1950  138.8210 C   0  0  1  0  0  3  0  0  0  0  0  0
  189.4330  178.1410  139.3660 C   0  0  1  0  0  3  0  0  0  0  0  0
  190.6160  175.8800  136.4500 N   0  0  0  0  0  2  0  0  0  0  0  0
  189.4750  175.3030  137.1450 C   0  0  1  0  0  3  0  0  0  0  0  0
  190.8410  177.5940  139.4190 C   0  0  0  0  0  2  0  0  0  0  0  0
  188.7450  177.2440  138.3690 C   0  0  0  0  0  2  0  0  0  0  0  0
  189.3760  175.9290  138.4670 N   0  0  2  0  0  0  0  0  0  0  0  0
  187.4320  178.6100  140.7930 C   0  0  0  0  0  3  0  0  0  0  0  0
  188.4850  177.1050  142.9270 C   0  0  0  0  0  0  0  0  0  0  0  0
  188.7190  178.0460  140.6870 C   0  0  0  0  0  0  0  0  0  0  0  0
  185.0490  178.0830  143.8530 C   0  0  0  0  0  2  0  0  0  0  0  0
  185.0530  179.0100  142.2580 S   0  0  0  0  0  0  0  0  0  0  0  0
  186.3350  177.4970  144.0530 O   0  0  0  0  0  0  0  0  0  0  0  0
  189.2400  177.2910  141.7620 C   0  0  0  0  0  3  0  0  0  0  0  0
  187.2040  177.6610  142.9970 C   0  0  0  0  0  0  0  0  0  0  0  0
  186.7010  178.4130  141.9650 C   0  0  0  0  0  0  0  0  0  0  0  0
  188.9990  176.3660  143.9840 O   0  0  0  0  0  1  0  0  0  0  0  0
  192.5370  174.9220  137.6280 C   0  0  0  0  0  2  0  0  0  0  0  0
  193.9120  175.3920  138.0490 C   0  0  0  0  0  2  0  0  0  0  0  0
  194.2340  173.0260  137.6460 N   0  0  0  0  0  1  0  0  0  0  0  0
  194.9270  174.2980  137.7750 C   0  0  0  0  0  2  0  0  0  0  0  0
  188.1710  175.3400  136.3300 C   0  0  2  0  0  3  0  0  0  0  0  0
  187.1560  174.5130  136.9920 N   0  0  0  0  0  2  0  0  0  0  0  0
  185.2720  176.1090  136.6920 N   0  0  0  0  0  2  0  0  0  0  0  0
  185.7540  174.8050  137.0360 C   0  0  0  0  0  0  0  0  0  0  0  0
  184.9530  173.8970  137.3760 O   0  0  0  0  0  0  0  0  0  0  0  0
  183.9260  176.4990  136.8170 N   0  0  0  0  0  0  0  0  0  0  0  0
  183.5530  177.0410  135.5270 C   0  0  0  0  0  1  0  0  0  0  0  0
  182.2840  179.2920  138.6690 O   0  0  0  0  0  1  0  0  0  0  0  0
  182.4630  177.9810  138.2160 C   0  0  1  0  0  0  0  0  0  0  0  0
  181.4250  175.7790  138.4000 C   0  0  2  0  0  3  0  0  0  0  0  0
  181.2250  177.1770  137.8540 C   0  0  0  0  0  2  0  0  0  0  0  0
  183.8800  177.6050  137.7790 C   0  0  1  0  0  3  0  0  0  0  0  0
  180.2420  175.3890  139.2570 C   0  0  0  0  0  1  0  0  0  0  0  0
  182.6910  175.7890  139.2350 C   0  0  0  0  0  2  0  0  0  0  0  0
  183.3240  177.1810  139.1620 C   0  0  2  0  0  3  0  0  0  0  0  0
  188.7870  173.6760  134.6180 C   0  0  0  0  0  2  0  0  0  0  0  0
  188.3870  174.9190  134.9030 C   0  0  0  0  0  3  0  0  0  0  0  0
  1 19  1  1  0  0  0
  1  2  1  0  0  0  0
  2  6  1  6  0  0  0
  3  6  1  0  0  0  0
  3 11  1  1  0  0  0
  4  5  1  0  0  0  0
  4  1  1  0  0  0  0
  5 23  1  6  0  0  0
  5  8  1  0  0  0  0
  7  3  1  0  0  0  0
  8  7  1  6  0  0  0
  8  2  1  0  0  0  0
  9 17  1  0  0  0  0
 10 16  1  0  0  0  0
 10 18  1  0  0  0  0
 11  9  2  0  0  0  0
 11 15  1  0  0  0  0
 12 14  1  0  0  0  0
 13 12  1  0  0  0  0
 15 10  2  0  0  0  0
 16 14  1  0  0  0  0
 17 13  1  0  0  0  0
 17 16  2  0  0  0  0
 19 20  1  0  0  0  0
 21 22  1  0  0  0  0
 22 20  1  0  0  0  0
 23 39  1  6  0  0  0
 23 24  1  0  0  0  0
 24 26  1  0  0  0  0
 25 28  1  0  0  0  0
 25 26  1  0  0  0  0
 26 27  2  0  0  0  0
 29 28  1  0  0  0  0
 31 30  1  1  0  0  0
 31 37  1  0  0  0  0
 32 36  1  0  0  0  0
 32 35  1  1  0  0  0
 33 31  1  0  0  0  0
 33 32  1  0  0  0  0
 34 28  1  6  0  0  0
 34 31  1  0  0  0  0
 34 37  1  0  0  0  0
 37 36  1  6  0  0  0
 38 39  2  0  0  0  0
M  END
>  <MODEL>
7

>  <REMARK>
 VINA RESULT:      -6.2      3.233      7.502
  Name = 
  9 active torsions:
  status: ('A' for Active; 'I' for Inactive)
    1  A    between atoms: C_5  and  C_28
    2  A    between atoms: N_6  and  N_16
    3  A    between atoms: N_6  and  C_23
    4  A    between atoms: N_7  and  C_30
    5  A    between atoms: C_10  and  C_14
    6  A    between atoms: C_13  and  C_24
    7  A    between atoms: C_13  and  C_28
    8  A    between atoms: C_22  and  C_30
    9  A    between atoms: C_26  and  C_30
                            x       y       z     vdW  Elec       q    Type
                         _______ _______ _______ _____ _____    ______ ____

>  <TORSDO>
F 9

$$$$
=
 OpenBabel10232412093D

 39 44  0  0  1  0  0  0  0  0999 V2000
  186.8610  177.6850  146.1190 C   0  0  2  0  0  3  0  0  0  0  0  0
  187.7770  177.9840  144.9340 C   0  0  1  0  0  3  0  0  0  0  0  0
  188.1040  176.4010  143.1340 C   0  0  1  0  0  3  0  0  0  0  0  0
  185.4900  177.8050  145.6260 N   0  0  0  0  0  2  0  0  0  0  0  0
  185.6380  178.6690  144.4650 C   0  0  1  0  0  3  0  0  0  0  0  0
  188.5690  176.7470  144.5300 C   0  0  0  0  0  2  0  0  0  0  0  0
  186.8030  177.1510  143.0020 C   0  0  0  0  0  2  0  0  0  0  0  0
  186.9180  178.3570  143.8200 N   0  0  2  0  0  0  0  0  0  0  0  0
  190.4380  176.7490  142.3030 C   0  0  0  0  0  3  0  0  0  0  0  0
  189.5130  177.5910  139.7810 C   0  0  0  0  0  0  0  0  0  0  0  0
  189.0540  176.8720  142.0670 C   0  0  0  0  0  0  0  0  0  0  0  0
  193.1890  177.3300  139.5800 C   0  0  0  0  0  2  0  0  0  0  0  0
  193.0980  176.9140  141.3760 S   0  0  0  0  0  0  0  0  0  0  0  0
  191.8780  177.6340  139.1070 O   0  0  0  0  0  0  0  0  0  0  0  0
  188.5980  177.2940  140.7980 C   0  0  0  0  0  3  0  0  0  0  0  0
  190.8790  177.4420  140.0370 C   0  0  0  0  0  0  0  0  0  0  0  0
  191.3290  177.0520  141.2740 C   0  0  0  0  0  0  0  0  0  0  0  0
  189.0640  178.0090  138.5340 O   0  0  0  0  0  1  0  0  0  0  0  0
  187.1130  178.7170  147.2170 C   0  0  0  0  0  2  0  0  0  0  0  0
  187.6820  178.0500  148.4500 C   0  0  0  0  0  2  0  0  0  0  0  0
  189.9460  177.4440  147.8420 N   0  0  0  0  0  1  0  0  0  0  0  0
  189.1500  178.4080  148.5870 C   0  0  0  0  0  2  0  0  0  0  0  0
  184.4300  178.6390  143.5130 C   0  0  2  0  0  3  0  0  0  0  0  0
  184.8210  179.1800  142.2070 N   0  0  0  0  0  2  0  0  0  0  0  0
  183.0550  178.0190  140.8970 N   0  0  0  0  0  2  0  0  0  0  0  0
  184.0870  179.0080  140.9890 C   0  0  0  0  0  0  0  0  0  0  0  0
  184.3570  179.7430  140.0050 O   0  0  0  0  0  0  0  0  0  0  0  0
  182.3700  177.7190  139.7050 N   0  0  0  0  0  0  0  0  0  0  0  0
  180.9980  178.1240  139.9290 C   0  0  0  0  0  1  0  0  0  0  0  0
  181.3560  174.4890  138.1340 O   0  0  0  0  0  1  0  0  0  0  0  0
  181.8850  175.7830  138.1850 C   0  0  1  0  0  0  0  0  0  0  0  0
  182.9000  177.4480  136.7170 C   0  0  2  0  0  3  0  0  0  0  0  0
  181.6120  176.7110  137.0140 C   0  0  0  0  0  2  0  0  0  0  0  0
  182.3700  176.2600  139.5550 C   0  0  1  0  0  3  0  0  0  0  0  0
  183.2560  177.2910  135.2560 C   0  0  0  0  0  1  0  0  0  0  0  0
  183.9870  176.8420  137.5850 C   0  0  0  0  0  2  0  0  0  0  0  0
  183.3650  175.7630  138.4770 C   0  0  2  0  0  3  0  0  0  0  0  0
  182.0440  178.7880  144.1190 C   0  0  0  0  0  2  0  0  0  0  0  0
  183.2460  179.3690  144.0850 C   0  0  0  0  0  3  0  0  0  0  0  0
  1 19  1  1  0  0  0
  2  6  1  6  0  0  0
  2  1  1  0  0  0  0
  3 11  1  6  0  0  0
  3  6  1  0  0  0  0
  4  1  1  0  0  0  0
  5 23  1  6  0  0  0
  5  4  1  0  0  0  0
  7  3  1  0  0  0  0
  8  7  1  6  0  0  0
  8  5  1  0  0  0  0
  8  2  1  0  0  0  0
 10 16  2  0  0  0  0
 10 15  1  0  0  0  0
 11  9  1  0  0  0  0
 12 13  1  0  0  0  0
 14 12  1  0  0  0  0
 14 16  1  0  0  0  0
 15 11  2  0  0  0  0
 16 17  1  0  0  0  0
 17 13  1  0  0  0  0
 17  9  2  0  0  0  0
 18 10  1  0  0  0  0
 19 20  1  0  0  0  0
 20 22  1  0  0  0  0
 21 22  1  0  0  0  0
 23 39  1  1  0  0  0
 24 23  1  0  0  0  0
 25 26  1  0  0  0  0
 26 24  1  0  0  0  0
 27 26  2  0  0  0  0
 28 29  1  0  0  0  0
 28 25  1  0  0  0  0
 31 30  1  6  0  0  0
 31 37  1  0  0  0  0
 31 34  1  0  0  0  0
 32 35  1  6  0  0  0
 32 33  1  0  0  0  0
 32 36  1  0  0  0  0
 33 31  1  0  0  0  0
 34 28  1  6  0  0  0
 37 36  1  6  0  0  0
 37 34  1  0  0  0  0
 39 38  2  0  0  0  0
M  END
>  <MODEL>
8

>  <REMARK>
 VINA RESULT:      -6.1      3.418      6.407
  Name = 
  9 active torsions:
  status: ('A' for Active; 'I' for Inactive)
    1  A    between atoms: C_5  and  C_28
    2  A    between atoms: N_6  and  N_16
    3  A    between atoms: N_6  and  C_23
    4  A    between atoms: N_7  and  C_30
    5  A    between atoms: C_10  and  C_14
    6  A    between atoms: C_13  and  C_24
    7  A    between atoms: C_13  and  C_28
    8  A    between atoms: C_22  and  C_30
    9  A    between atoms: C_26  and  C_30
                            x       y       z     vdW  Elec       q    Type
                         _______ _______ _______ _____ _____    ______ ____

>  <TORSDO>
F 9

$$$$
=
 OpenBabel10232412093D

 39 44  0  0  1  0  0  0  0  0999 V2000
  187.7700  178.0320  145.0420 C   0  0  2  0  0  3  0  0  0  0  0  0
  186.3470  177.8450  144.5190 C   0  0  1  0  0  3  0  0  0  0  0  0
  185.1950  179.5770  143.2850 C   0  0  1  0  0  3  0  0  0  0  0  0
  188.6560  177.9400  143.8830 N   0  0  0  0  0  2  0  0  0  0  0  0
  187.8630  177.1790  142.9290 C   0  0  1  0  0  3  0  0  0  0  0  0
  185.5310  179.1190  144.6860 C   0  0  0  0  0  2  0  0  0  0  0  0
  186.1800  178.8270  142.4250 C   0  0  0  0  0  2  0  0  0  0  0  0
  186.4560  177.5570  143.0950 N   0  0  2  0  0  0  0  0  0  0  0  0
  183.5900  178.7620  141.5480 C   0  0  0  0  0  3  0  0  0  0  0  0
  181.4770  178.6800  143.4060 C   0  0  0  0  0  0  0  0  0  0  0  0
  183.7980  179.2090  142.8670 C   0  0  0  0  0  0  0  0  0  0  0  0
  180.2430  177.1920  140.2620 C   0  0  0  0  0  2  0  0  0  0  0  0
  181.8990  177.6450  139.5840 S   0  0  0  0  0  0  0  0  0  0  0  0
  180.1460  177.6650  141.6040 O   0  0  0  0  0  0  0  0  0  0  0  0
  182.7320  179.1630  143.7950 C   0  0  0  0  0  3  0  0  0  0  0  0
  181.3050  178.2260  142.0950 C   0  0  0  0  0  0  0  0  0  0  0  0
  182.3300  178.2870  141.1840 C   0  0  0  0  0  0  0  0  0  0  0  0
  180.4290  178.6390  144.3160 O   0  0  0  0  0  1  0  0  0  0  0  0
  188.0880  176.9130  146.0320 C   0  0  0  0  0  2  0  0  0  0  0  0
  189.3380  177.2420  146.8180 C   0  0  0  0  0  2  0  0  0  0  0  0
  187.8570  177.6380  148.6930 N   0  0  0  0  0  1  0  0  0  0  0  0
  188.9880  178.1810  147.9570 C   0  0  0  0  0  2  0  0  0  0  0  0
  188.3750  177.2770  141.4820 C   0  0  2  0  0  3  0  0  0  0  0  0
  189.8410  177.2330  141.4770 N   0  0  0  0  0  2  0  0  0  0  0  0
  190.0870  176.7650  139.0470 N   0  0  0  0  0  2  0  0  0  0  0  0
  190.6600  177.1390  140.3050 C   0  0  0  0  0  0  0  0  0  0  0  0
  191.8880  177.3940  140.3970 O   0  0  0  0  0  0  0  0  0  0  0  0
  190.8450  176.5460  137.8820 N   0  0  0  0  0  0  0  0  0  0  0  0
  190.0900  177.1490  136.8030 C   0  0  0  0  0  1  0  0  0  0  0  0
  191.2630  173.4810  135.7930 O   0  0  0  0  0  1  0  0  0  0  0  0
  191.6300  174.6980  136.3780 C   0  0  1  0  0  0  0  0  0  0  0  0
  193.5240  176.2350  136.4660 C   0  0  2  0  0  3  0  0  0  0  0  0
  192.4620  175.6630  135.5510 C   0  0  0  0  0  2  0  0  0  0  0  0
  190.8630  175.0990  137.6390 C   0  0  1  0  0  3  0  0  0  0  0  0
  194.8910  176.0470  135.8470 C   0  0  0  0  0  1  0  0  0  0  0  0
  193.4430  175.4910  137.7850 C   0  0  0  0  0  2  0  0  0  0  0  0
  192.2850  174.4910  137.7210 C   0  0  2  0  0  3  0  0  0  0  0  0
  187.3470  178.4130  139.5500 C   0  0  0  0  0  2  0  0  0  0  0  0
  187.8530  178.5020  140.7830 C   0  0  0  0  0  3  0  0  0  0  0  0
  1 19  1  1  0  0  0
  2  6  1  6  0  0  0
  2  1  1  0  0  0  0
  3 11  1  6  0  0  0
  3  6  1  0  0  0  0
  4  1  1  0  0  0  0
  5 23  1  6  0  0  0
  5  8  1  0  0  0  0
  5  4  1  0  0  0  0
  7  3  1  0  0  0  0
  8  7  1  6  0  0  0
  8  2  1  0  0  0  0
  9 11  1  0  0  0  0
 10 15  1  0  0  0  0
 10 18  1  0  0  0  0
 11 15  2  0  0  0  0
 12 14  1  0  0  0  0
 13 12  1  0  0  0  0
 13 17  1  0  0  0  0
 14 16  1  0  0  0  0
 16 10  2  0  0  0  0
 17  9  2  0  0  0  0
 17 16  1  0  0  0  0
 19 20  1  0  0  0  0
 20 22  1  0  0  0  0
 22 21  1  0  0  0  0
 23 39  1  1  0  0  0
 24 23  1  0  0  0  0
 25 26  1  0  0  0  0
 26 27  2  0  0  0  0
 26 24  1  0  0  0  0
 28 25  1  0  0  0  0
 29 28  1  0  0  0  0
 31 30  1  6  0  0  0
 31 34  1  0  0  0  0
 31 37  1  0  0  0  0
 32 35  1  6  0  0  0
 32 36  1  0  0  0  0
 33 31  1  0  0  0  0
 33 32  1  0  0  0  0
 34 37  1  0  0  0  0
 34 28  1  6  0  0  0
 37 36  1  6  0  0  0
 38 39  2  0  0  0  0
M  END
>  <MODEL>
9

>  <REMARK>
 VINA RESULT:      -5.9      2.280      3.049
  Name = 
  9 active torsions:
  status: ('A' for Active; 'I' for Inactive)
    1  A    between atoms: C_5  and  C_28
    2  A    between atoms: N_6  and  N_16
    3  A    between atoms: N_6  and  C_23
    4  A    between atoms: N_7  and  C_30
    5  A    between atoms: C_10  and  C_14
    6  A    between atoms: C_13  and  C_24
    7  A    between atoms: C_13  and  C_28
    8  A    between atoms: C_22  and  C_30
    9  A    between atoms: C_26  and  C_30
                            x       y       z     vdW  Elec       q    Type
                         _______ _______ _______ _____ _____    ______ ____

>  <TORSDO>
F 9

$$$$
