=
 OpenBabel10232412323D

 29 31  0  0  1  0  0  0  0  0999 V2000
  189.4350  177.5620  144.6380 N   0  0  0  0  0  0  0  0  0  0  0  0
  188.9850  177.3470  147.4770 C   0  0  0  0  0  2  0  0  0  0  0  0
  187.3600  178.7300  144.3170 O   0  0  0  0  0  0  0  0  0  0  0  0
  190.2440  176.7390  145.4530 N   0  0  0  0  0  0  0  0  0  0  0  0
  188.3940  178.4010  145.2370 C   0  0  1  0  0  3  0  0  0  0  0  0
  185.6790  177.4990  145.5410 C   0  0  2  0  0  3  0  0  0  0  0  0
  186.6800  177.2820  146.6350 C   0  0  0  0  0  3  0  0  0  0  0  0
  190.0700  176.6020  146.7420 C   0  0  0  0  0  0  0  0  0  0  0  0
  186.4380  177.6650  144.2200 C   0  0  0  0  0  2  0  0  0  0  0  0
  187.9230  177.7650  146.5200 C   0  0  0  0  0  0  0  0  0  0  0  0
  188.9410  176.7120  142.3960 C   0  0  0  0  0  2  0  0  0  0  0  0
  191.9710  178.5430  143.6020 O   0  0  0  0  0  1  0  0  0  0  0  0
  189.3680  176.7880  140.9330 C   0  0  0  0  0  2  0  0  0  0  0  0
  191.5480  177.5350  141.4840 C   0  0  0  0  0  2  0  0  0  0  0  0
  190.7920  176.4780  140.8140 N   0  0  0  0  0  0  0  0  0  0  0  0
  189.7580  177.7060  143.2220 C   0  0  2  0  0  3  0  0  0  0  0  0
  191.2590  177.5160  142.9820 C   0  0  2  0  0  3  0  0  0  0  0  0
  191.1290  176.5540  139.4010 C   0  0  0  0  0  2  0  0  0  0  0  0
  189.8760  176.4280  138.5510 C   0  0  0  0  0  2  0  0  0  0  0  0
  190.0460  175.3270  137.5220 C   0  0  0  0  0  2  0  0  0  0  0  0
  191.1450  174.4650  137.9130 N   0  0  0  0  0  2  0  0  0  0  0  0
  191.7860  174.0250  136.6870 C   0  0  0  0  0  1  0  0  0  0  0  0
  184.8320  178.7270  145.8530 C   0  0  0  0  0  2  0  0  0  0  0  0
  184.1310  179.2510  144.6060 C   0  0  0  0  0  2  0  0  0  0  0  0
  182.1240  179.0490  143.1360 C   0  0  0  0  0  1  0  0  0  0  0  0
  182.7080  178.7250  144.4980 C   0  0  0  0  0  2  0  0  0  0  0  0
  190.9150  175.7720  147.4850 O   0  0  0  0  0  0  0  0  0  0  0  0
  193.0590  175.7920  148.5920 C   0  0  0  0  0  1  0  0  0  0  0  0
  192.3210  175.7100  147.2690 C   0  0  0  0  0  2  0  0  0  0  0  0
  1  5  1  0  0  0  0
  1  4  1  0  0  0  0
  4  8  2  0  0  0  0
  5  3  1  6  0  0  0
  5 10  1  0  0  0  0
  6 23  1  1  0  0  0
  6  7  1  0  0  0  0
  8  2  1  0  0  0  0
  8 27  1  0  0  0  0
  9  3  1  0  0  0  0
  9  6  1  0  0  0  0
 10  7  2  0  0  0  0
 10  2  1  0  0  0  0
 13 11  1  0  0  0  0
 14 17  1  0  0  0  0
 15 13  1  0  0  0  0
 15 14  1  0  0  0  0
 16 11  1  6  0  0  0
 16  1  1  0  0  0  0
 17 16  1  0  0  0  0
 17 12  1  1  0  0  0
 18 15  1  0  0  0  0
 19 18  1  0  0  0  0
 20 21  1  0  0  0  0
 20 19  1  0  0  0  0
 22 21  1  0  0  0  0
 24 23  1  0  0  0  0
 25 26  1  0  0  0  0
 26 24  1  0  0  0  0
 29 27  1  0  0  0  0
 29 28  1  0  0  0  0
M  END
>  <MODEL>
1

>  <REMARK>
 VINA RESULT:      -6.8      0.000      0.000
  Name = 
  10 active torsions:
  status: ('A' for Active; 'I' for Inactive)
    1  A    between atoms: N_1  and  C_15
    2  A    between atoms: C_6  and  C_18
    3  A    between atoms: C_6  and  N_22
    4  A    between atoms: C_9  and  C_11
    5  A    between atoms: C_11  and  C_23
    6  A    between atoms: N_14  and  C_29
    7  A    between atoms: C_17  and  C_23
    8  A    between atoms: C_18  and  C_29
    9  A    between atoms: C_20  and  O_27
   10  A    between atoms: O_27  and  C_28
                            x       y       z     vdW  Elec       q    Type
                         _______ _______ _______ _____ _____    ______ ____

>  <TORSDO>
F 10

$$$$
=
 OpenBabel10232412323D

 29 31  0  0  1  0  0  0  0  0999 V2000
  189.6140  177.4500  144.6930 N   0  0  0  0  0  0  0  0  0  0  0  0
  189.3130  177.2080  147.5490 C   0  0  0  0  0  2  0  0  0  0  0  0
  187.5660  178.6900  144.5020 O   0  0  0  0  0  0  0  0  0  0  0  0
  190.4390  176.5870  145.4510 N   0  0  0  0  0  0  0  0  0  0  0  0
  188.6380  178.3140  145.3590 C   0  0  1  0  0  3  0  0  0  0  0  0
  185.9140  177.4990  145.8010 C   0  0  2  0  0  3  0  0  0  0  0  0
  186.9660  177.2320  146.8350 C   0  0  0  0  0  3  0  0  0  0  0  0
  190.3310  176.4380  146.7460 C   0  0  0  0  0  0  0  0  0  0  0  0
  186.6040  177.6590  144.4420 C   0  0  0  0  0  2  0  0  0  0  0  0
  188.2160  177.6750  146.6580 C   0  0  0  0  0  0  0  0  0  0  0  0
  189.0870  176.5450  142.4790 C   0  0  0  0  0  2  0  0  0  0  0  0
  192.0250  178.6010  143.5400 O   0  0  0  0  0  1  0  0  0  0  0  0
  189.4420  176.6370  140.9990 C   0  0  0  0  0  2  0  0  0  0  0  0
  191.5840  177.5460  141.4480 C   0  0  0  0  0  2  0  0  0  0  0  0
  190.8790  176.4310  140.8190 N   0  0  0  0  0  0  0  0  0  0  0  0
  189.8640  177.6020  143.2620 C   0  0  2  0  0  3  0  0  0  0  0  0
  191.3630  177.5200  142.9580 C   0  0  2  0  0  3  0  0  0  0  0  0
  191.1480  176.5170  139.3920 C   0  0  0  0  0  2  0  0  0  0  0  0
  189.9560  177.1160  138.6650 C   0  0  0  0  0  2  0  0  0  0  0  0
  190.1030  176.9280  137.1670 C   0  0  0  0  0  2  0  0  0  0  0  0
  189.2900  177.9080  136.4740 N   0  0  0  0  0  2  0  0  0  0  0  0
  189.0350  178.9800  137.4190 C   0  0  0  0  0  1  0  0  0  0  0  0
  185.1280  178.7510  146.1750 C   0  0  0  0  0  2  0  0  0  0  0  0
  183.7700  178.7820  145.4850 C   0  0  0  0  0  2  0  0  0  0  0  0
  183.0730  178.8770  143.0910 C   0  0  0  0  0  1  0  0  0  0  0  0
  183.8080  179.5990  144.2030 C   0  0  0  0  0  2  0  0  0  0  0  0
  191.1860  175.5690  147.4300 O   0  0  0  0  0  0  0  0  0  0  0  0
  193.1260  175.9810  148.8060 C   0  0  0  0  0  1  0  0  0  0  0  0
  192.6030  175.7050  147.4080 C   0  0  0  0  0  2  0  0  0  0  0  0
  1  5  1  0  0  0  0
  1  4  1  0  0  0  0
  4  8  2  0  0  0  0
  5  3  1  6  0  0  0
  5 10  1  0  0  0  0
  6 23  1  1  0  0  0
  6  7  1  0  0  0  0
  8 27  1  0  0  0  0
  8  2  1  0  0  0  0
  9  3  1  0  0  0  0
  9  6  1  0  0  0  0
 10  7  2  0  0  0  0
 10  2  1  0  0  0  0
 13 11  1  0  0  0  0
 14 17  1  0  0  0  0
 15 13  1  0  0  0  0
 15 14  1  0  0  0  0
 16 11  1  6  0  0  0
 16  1  1  0  0  0  0
 17 16  1  0  0  0  0
 17 12  1  1  0  0  0
 18 15  1  0  0  0  0
 19 18  1  0  0  0  0
 20 19  1  0  0  0  0
 21 20  1  0  0  0  0
 21 22  1  0  0  0  0
 24 23  1  0  0  0  0
 25 26  1  0  0  0  0
 26 24  1  0  0  0  0
 29 27  1  0  0  0  0
 29 28  1  0  0  0  0
M  END
>  <MODEL>
2

>  <REMARK>
 VINA RESULT:      -6.8      1.060      1.425
  Name = 
  10 active torsions:
  status: ('A' for Active; 'I' for Inactive)
    1  A    between atoms: N_1  and  C_15
    2  A    between atoms: C_6  and  C_18
    3  A    between atoms: C_6  and  N_22
    4  A    between atoms: C_9  and  C_11
    5  A    between atoms: C_11  and  C_23
    6  A    between atoms: N_14  and  C_29
    7  A    between atoms: C_17  and  C_23
    8  A    between atoms: C_18  and  C_29
    9  A    between atoms: C_20  and  O_27
   10  A    between atoms: O_27  and  C_28
                            x       y       z     vdW  Elec       q    Type
                         _______ _______ _______ _____ _____    ______ ____

>  <TORSDO>
F 10

$$$$
=
 OpenBabel10232412323D

 29 31  0  0  1  0  0  0  0  0999 V2000
  189.7550  176.9440  141.1710 N   0  0  0  0  0  0  0  0  0  0  0  0
  187.5600  177.8410  142.8100 C   0  0  0  0  0  2  0  0  0  0  0  0
  190.8960  176.0140  143.0700 O   0  0  0  0  0  0  0  0  0  0  0  0
  188.7650  177.8160  140.6650 N   0  0  0  0  0  0  0  0  0  0  0  0
  189.6390  176.4020  142.5270 C   0  0  1  0  0  3  0  0  0  0  0  0
  190.8300  177.6930  144.8050 C   0  0  2  0  0  3  0  0  0  0  0  0
  189.4250  178.0160  144.3950 C   0  0  0  0  0  3  0  0  0  0  0  0
  187.7580  178.2570  141.3750 C   0  0  0  0  0  0  0  0  0  0  0  0
  191.5730  177.1410  143.5840 C   0  0  0  0  0  2  0  0  0  0  0  0
  188.8500  177.3630  143.3800 C   0  0  0  0  0  0  0  0  0  0  0  0
  192.0390  177.3340  140.3810 C   0  0  0  0  0  2  0  0  0  0  0  0
  189.2730  175.4330  138.7320 O   0  0  0  0  0  1  0  0  0  0  0  0
  193.0790  176.8800  139.3610 C   0  0  0  0  0  2  0  0  0  0  0  0
  191.4360  175.9930  137.9030 C   0  0  0  0  0  2  0  0  0  0  0  0
  192.5220  176.9650  138.0120 N   0  0  0  0  0  0  0  0  0  0  0  0
  190.7970  176.4490  140.2770 C   0  0  2  0  0  3  0  0  0  0  0  0
  190.2900  176.3820  138.8330 C   0  0  2  0  0  3  0  0  0  0  0  0
  193.5630  176.5350  137.0920 C   0  0  0  0  0  2  0  0  0  0  0  0
  193.9400  175.0880  137.3590 C   0  0  0  0  0  2  0  0  0  0  0  0
  195.3290  174.7980  136.8230 C   0  0  0  0  0  2  0  0  0  0  0  0
  196.2940  174.8920  137.9020 N   0  0  0  0  0  2  0  0  0  0  0  0
  195.7470  174.1380  139.0160 C   0  0  0  0  0  1  0  0  0  0  0  0
  190.8150  176.6850  145.9490 C   0  0  0  0  0  2  0  0  0  0  0  0
  190.3120  177.3170  147.2410 C   0  0  0  0  0  2  0  0  0  0  0  0
  188.2000  177.9420  148.4150 C   0  0  0  0  0  1  0  0  0  0  0  0
  188.8830  176.8980  147.5530 C   0  0  0  0  0  2  0  0  0  0  0  0
  186.8130  179.1140  140.8030 O   0  0  0  0  0  0  0  0  0  0  0  0
  184.5570  179.0580  139.9480 C   0  0  0  0  0  1  0  0  0  0  0  0
  185.4400  179.1120  141.1810 C   0  0  0  0  0  2  0  0  0  0  0  0
  1  5  1  0  0  0  0
  2 10  1  0  0  0  0
  3  9  1  0  0  0  0
  4  1  1  0  0  0  0
  4  8  2  0  0  0  0
  5  3  1  1  0  0  0
  5 10  1  0  0  0  0
  6 23  1  1  0  0  0
  7  6  1  0  0  0  0
  8  2  1  0  0  0  0
  9  6  1  0  0  0  0
 10  7  2  0  0  0  0
 13 11  1  0  0  0  0
 14 15  1  0  0  0  0
 14 17  1  0  0  0  0
 15 13  1  0  0  0  0
 16 11  1  6  0  0  0
 16  1  1  0  0  0  0
 17 12  1  1  0  0  0
 17 16  1  0  0  0  0
 18 19  1  0  0  0  0
 18 15  1  0  0  0  0
 20 19  1  0  0  0  0
 20 21  1  0  0  0  0
 21 22  1  0  0  0  0
 23 24  1  0  0  0  0
 24 26  1  0  0  0  0
 26 25  1  0  0  0  0
 27 29  1  0  0  0  0
 27  8  1  0  0  0  0
 28 29  1  0  0  0  0
M  END
>  <MODEL>
3

>  <REMARK>
 VINA RESULT:      -6.7      2.695      5.812
  Name = 
  10 active torsions:
  status: ('A' for Active; 'I' for Inactive)
    1  A    between atoms: N_1  and  C_15
    2  A    between atoms: C_6  and  C_18
    3  A    between atoms: C_6  and  N_22
    4  A    between atoms: C_9  and  C_11
    5  A    between atoms: C_11  and  C_23
    6  A    between atoms: N_14  and  C_29
    7  A    between atoms: C_17  and  C_23
    8  A    between atoms: C_18  and  C_29
    9  A    between atoms: C_20  and  O_27
   10  A    between atoms: O_27  and  C_28
                            x       y       z     vdW  Elec       q    Type
                         _______ _______ _______ _____ _____    ______ ____

>  <TORSDO>
F 10

$$$$
=
 OpenBabel10232412323D

 29 31  0  0  1  0  0  0  0  0999 V2000
  190.2420  176.7710  139.2390 N   0  0  0  0  0  0  0  0  0  0  0  0
  187.8320  178.2420  139.8190 C   0  0  0  0  0  2  0  0  0  0  0  0
  190.4410  176.0440  141.5200 O   0  0  0  0  0  0  0  0  0  0  0  0
  189.6820  177.6680  138.3020 N   0  0  0  0  0  0  0  0  0  0  0  0
  189.5560  176.5000  140.5040 C   0  0  1  0  0  3  0  0  0  0  0  0
  190.1010  177.9980  142.9000 C   0  0  2  0  0  3  0  0  0  0  0  0
  189.0200  178.4350  141.9580 C   0  0  0  0  0  3  0  0  0  0  0  0
  188.5970  178.3640  138.5260 C   0  0  0  0  0  0  0  0  0  0  0  0
  191.1010  177.1390  142.1190 C   0  0  0  0  0  2  0  0  0  0  0  0
  188.7210  177.6980  140.8820 C   0  0  0  0  0  0  0  0  0  0  0  0
  192.6370  176.8940  138.7420 C   0  0  0  0  0  2  0  0  0  0  0  0
  190.1610  174.2710  137.7530 O   0  0  0  0  0  1  0  0  0  0  0  0
  193.8290  176.0860  138.2400 C   0  0  0  0  0  2  0  0  0  0  0  0
  192.4470  174.5180  137.1230 C   0  0  0  0  0  2  0  0  0  0  0  0
  193.5160  175.4970  136.9380 N   0  0  0  0  0  0  0  0  0  0  0  0
  191.4140  175.9850  138.8650 C   0  0  2  0  0  3  0  0  0  0  0  0
  191.1640  175.2210  137.5610 C   0  0  2  0  0  3  0  0  0  0  0  0
  194.6920  174.7560  136.5110 C   0  0  0  0  0  2  0  0  0  0  0  0
  195.5910  175.6360  135.6580 C   0  0  0  0  0  2  0  0  0  0  0  0
  197.0360  175.1940  135.7870 C   0  0  0  0  0  2  0  0  0  0  0  0
  197.5220  175.5100  137.1170 N   0  0  0  0  0  2  0  0  0  0  0  0
  198.3250  174.3800  137.5470 C   0  0  0  0  0  1  0  0  0  0  0  0
  189.4900  177.2210  144.0610 C   0  0  0  0  0  2  0  0  0  0  0  0
  189.5800  178.0070  145.3640 C   0  0  0  0  0  2  0  0  0  0  0  0
  187.1250  177.6140  145.5830 C   0  0  0  0  0  1  0  0  0  0  0  0
  188.4520  177.6450  146.3180 C   0  0  0  0  0  2  0  0  0  0  0  0
  188.0980  179.2290  137.5470 O   0  0  0  0  0  0  0  0  0  0  0  0
  186.4250  177.7910  136.5700 C   0  0  0  0  0  1  0  0  0  0  0  0
  187.5570  178.7690  136.3140 C   0  0  0  0  0  2  0  0  0  0  0  0
  1  5  1  0  0  0  0
  2 10  1  0  0  0  0
  3  9  1  0  0  0  0
  4  8  2  0  0  0  0
  4  1  1  0  0  0  0
  5 10  1  1  0  0  0
  5  3  1  0  0  0  0
  6 23  1  1  0  0  0
  7  6  1  0  0  0  0
  8  2  1  0  0  0  0
  9  6  1  0  0  0  0
 10  7  2  0  0  0  0
 13 11  1  0  0  0  0
 14 17  1  0  0  0  0
 15 14  1  0  0  0  0
 15 13  1  0  0  0  0
 16 11  1  6  0  0  0
 16  1  1  0  0  0  0
 17 12  1  1  0  0  0
 17 16  1  0  0  0  0
 18 15  1  0  0  0  0
 19 20  1  0  0  0  0
 19 18  1  0  0  0  0
 20 21  1  0  0  0  0
 21 22  1  0  0  0  0
 23 24  1  0  0  0  0
 24 26  1  0  0  0  0
 25 26  1  0  0  0  0
 27  8  1  0  0  0  0
 29 28  1  0  0  0  0
 29 27  1  0  0  0  0
M  END
>  <MODEL>
4

>  <REMARK>
 VINA RESULT:      -6.6      3.456      6.951
  Name = 
  10 active torsions:
  status: ('A' for Active; 'I' for Inactive)
    1  A    between atoms: N_1  and  C_15
    2  A    between atoms: C_6  and  C_18
    3  A    between atoms: C_6  and  N_22
    4  A    between atoms: C_9  and  C_11
    5  A    between atoms: C_11  and  C_23
    6  A    between atoms: N_14  and  C_29
    7  A    between atoms: C_17  and  C_23
    8  A    between atoms: C_18  and  C_29
    9  A    between atoms: C_20  and  O_27
   10  A    between atoms: O_27  and  C_28
                            x       y       z     vdW  Elec       q    Type
                         _______ _______ _______ _____ _____    ______ ____

>  <TORSDO>
F 10

$$$$
=
 OpenBabel10232412323D

 29 31  0  0  1  0  0  0  0  0999 V2000
  187.9070  177.6980  142.7850 N   0  0  0  0  0  0  0  0  0  0  0  0
  185.8630  177.3840  144.7920 C   0  0  0  0  0  2  0  0  0  0  0  0
  189.6130  176.9250  144.2900 O   0  0  0  0  0  0  0  0  0  0  0  0
  186.6050  178.2140  142.5980 N   0  0  0  0  0  0  0  0  0  0  0  0
  188.2260  176.9090  143.9770 C   0  0  1  0  0  3  0  0  0  0  0  0
  189.2800  178.1010  146.3730 C   0  0  2  0  0  3  0  0  0  0  0  0
  187.8010  177.9450  146.1880 C   0  0  0  0  0  3  0  0  0  0  0  0
  185.6490  178.1040  143.4850 C   0  0  0  0  0  0  0  0  0  0  0  0
  189.9410  178.1060  144.9910 C   0  0  0  0  0  2  0  0  0  0  0  0
  187.3170  177.3260  145.1060 C   0  0  0  0  0  0  0  0  0  0  0  0
  188.2790  178.5810  140.5320 C   0  0  0  0  0  2  0  0  0  0  0  0
  190.0620  175.8050  142.2930 O   0  0  0  0  0  1  0  0  0  0  0  0
  189.2600  178.5900  139.3640 C   0  0  0  0  0  2  0  0  0  0  0  0
  190.2680  176.5550  140.0400 C   0  0  0  0  0  2  0  0  0  0  0  0
  189.5530  177.2180  138.9510 N   0  0  0  0  0  0  0  0  0  0  0  0
  188.8810  177.8060  141.7040 C   0  0  2  0  0  3  0  0  0  0  0  0
  189.3580  176.4200  141.2580 C   0  0  2  0  0  3  0  0  0  0  0  0
  190.4770  177.2970  137.8310 C   0  0  0  0  0  2  0  0  0  0  0  0
  191.4730  176.1500  137.8840 C   0  0  0  0  0  2  0  0  0  0  0  0
  191.1400  175.1150  136.8270 C   0  0  0  0  0  2  0  0  0  0  0  0
  190.5990  173.9290  137.4650 N   0  0  0  0  0  2  0  0  0  0  0  0
  189.2710  173.7300  136.9160 C   0  0  0  0  0  1  0  0  0  0  0  0
  189.8150  176.9660  147.2400 C   0  0  0  0  0  2  0  0  0  0  0  0
  191.3230  177.0710  147.4250 C   0  0  0  0  0  2  0  0  0  0  0  0
  193.0540  175.5990  148.4580 C   0  0  0  0  0  1  0  0  0  0  0  0
  191.9920  175.7050  147.3810 C   0  0  0  0  0  2  0  0  0  0  0  0
  184.3830  178.6370  143.2280 O   0  0  0  0  0  0  0  0  0  0  0  0
  182.0670  178.8770  143.8640 C   0  0  0  0  0  1  0  0  0  0  0  0
  183.5150  179.0990  144.2580 C   0  0  0  0  0  2  0  0  0  0  0  0
  1  5  1  0  0  0  0
  2 10  1  0  0  0  0
  3  9  1  0  0  0  0
  4  1  1  0  0  0  0
  4  8  2  0  0  0  0
  5  3  1  1  0  0  0
  5 10  1  0  0  0  0
  6 23  1  1  0  0  0
  7  6  1  0  0  0  0
  8  2  1  0  0  0  0
  9  6  1  0  0  0  0
 10  7  2  0  0  0  0
 13 11  1  0  0  0  0
 14 17  1  0  0  0  0
 15 13  1  0  0  0  0
 15 14  1  0  0  0  0
 16 11  1  6  0  0  0
 16  1  1  0  0  0  0
 17 16  1  0  0  0  0
 17 12  1  1  0  0  0
 18 19  1  0  0  0  0
 18 15  1  0  0  0  0
 20 21  1  0  0  0  0
 20 19  1  0  0  0  0
 22 21  1  0  0  0  0
 23 24  1  0  0  0  0
 26 24  1  0  0  0  0
 26 25  1  0  0  0  0
 27  8  1  0  0  0  0
 27 29  1  0  0  0  0
 28 29  1  0  0  0  0
M  END
>  <MODEL>
5

>  <REMARK>
 VINA RESULT:      -6.5      1.799      5.453
  Name = 
  10 active torsions:
  status: ('A' for Active; 'I' for Inactive)
    1  A    between atoms: N_1  and  C_15
    2  A    between atoms: C_6  and  C_18
    3  A    between atoms: C_6  and  N_22
    4  A    between atoms: C_9  and  C_11
    5  A    between atoms: C_11  and  C_23
    6  A    between atoms: N_14  and  C_29
    7  A    between atoms: C_17  and  C_23
    8  A    between atoms: C_18  and  C_29
    9  A    between atoms: C_20  and  O_27
   10  A    between atoms: O_27  and  C_28
                            x       y       z     vdW  Elec       q    Type
                         _______ _______ _______ _____ _____    ______ ____

>  <TORSDO>
F 10

$$$$
=
 OpenBabel10232412323D

 29 31  0  0  1  0  0  0  0  0999 V2000
  188.5660  177.6640  141.7030 N   0  0  0  0  0  0  0  0  0  0  0  0
  187.1560  177.1050  144.1540 C   0  0  0  0  0  2  0  0  0  0  0  0
  190.6830  177.1330  142.7070 O   0  0  0  0  0  0  0  0  0  0  0  0
  187.2040  178.0050  141.8640 N   0  0  0  0  0  0  0  0  0  0  0  0
  189.2750  176.9330  142.7560 C   0  0  1  0  0  3  0  0  0  0  0  0
  190.7430  178.2740  144.8360 C   0  0  2  0  0  3  0  0  0  0  0  0
  189.2980  177.9260  145.0270 C   0  0  0  0  0  3  0  0  0  0  0  0
  186.5270  177.7800  142.9610 C   0  0  0  0  0  0  0  0  0  0  0  0
  191.0240  178.3520  143.3320 C   0  0  0  0  0  2  0  0  0  0  0  0
  188.6370  177.2390  144.0880 C   0  0  0  0  0  0  0  0  0  0  0  0
  188.3030  178.7240  139.5120 C   0  0  0  0  0  2  0  0  0  0  0  0
  190.5400  175.8960  140.5030 O   0  0  0  0  0  1  0  0  0  0  0  0
  188.9330  178.8560  138.1290 C   0  0  0  0  0  2  0  0  0  0  0  0
  190.1200  176.8160  138.3440 C   0  0  0  0  0  2  0  0  0  0  0  0
  189.1280  177.5300  137.5430 N   0  0  0  0  0  0  0  0  0  0  0  0
  189.2120  177.8880  140.4130 C   0  0  2  0  0  3  0  0  0  0  0  0
  189.5730  176.5570  139.7460 C   0  0  2  0  0  3  0  0  0  0  0  0
  189.7150  177.7260  136.2270 C   0  0  0  0  0  2  0  0  0  0  0  0
  189.0140  176.8530  135.1990 C   0  0  0  0  0  2  0  0  0  0  0  0
  187.7450  177.5280  134.7140 C   0  0  0  0  0  2  0  0  0  0  0  0
  186.6030  176.6880  135.0230 N   0  0  0  0  0  2  0  0  0  0  0  0
  185.4420  177.3310  134.4330 C   0  0  0  0  0  1  0  0  0  0  0  0
  191.6200  177.2250  145.5110 C   0  0  0  0  0  2  0  0  0  0  0  0
  191.0190  176.7640  146.8320 C   0  0  0  0  0  2  0  0  0  0  0  0
  192.8300  175.8370  148.2770 C   0  0  0  0  0  1  0  0  0  0  0  0
  191.6860  175.4960  147.3420 C   0  0  0  0  0  2  0  0  0  0  0  0
  185.1800  178.1410  143.0460 O   0  0  0  0  0  0  0  0  0  0  0  0
  183.7830  178.9950  144.8190 C   0  0  0  0  0  1  0  0  0  0  0  0
  184.7380  179.3320  143.6890 C   0  0  0  0  0  2  0  0  0  0  0  0
  1  4  1  0  0  0  0
  1  5  1  0  0  0  0
  3  9  1  0  0  0  0
  4  8  2  0  0  0  0
  5  3  1  1  0  0  0
  5 10  1  0  0  0  0
  6  7  1  0  0  0  0
  6 23  1  6  0  0  0
  8 27  1  0  0  0  0
  8  2  1  0  0  0  0
  9  6  1  0  0  0  0
 10  2  1  0  0  0  0
 10  7  2  0  0  0  0
 13 11  1  0  0  0  0
 14 17  1  0  0  0  0
 15 13  1  0  0  0  0
 15 14  1  0  0  0  0
 16 11  1  6  0  0  0
 16  1  1  0  0  0  0
 17 16  1  0  0  0  0
 17 12  1  1  0  0  0
 18 15  1  0  0  0  0
 19 18  1  0  0  0  0
 20 21  1  0  0  0  0
 20 19  1  0  0  0  0
 22 21  1  0  0  0  0
 23 24  1  0  0  0  0
 24 26  1  0  0  0  0
 26 25  1  0  0  0  0
 27 29  1  0  0  0  0
 29 28  1  0  0  0  0
M  END
>  <MODEL>
6

>  <REMARK>
 VINA RESULT:      -6.1      2.635      5.882
  Name = 
  10 active torsions:
  status: ('A' for Active; 'I' for Inactive)
    1  A    between atoms: N_1  and  C_15
    2  A    between atoms: C_6  and  C_18
    3  A    between atoms: C_6  and  N_22
    4  A    between atoms: C_9  and  C_11
    5  A    between atoms: C_11  and  C_23
    6  A    between atoms: N_14  and  C_29
    7  A    between atoms: C_17  and  C_23
    8  A    between atoms: C_18  and  C_29
    9  A    between atoms: C_20  and  O_27
   10  A    between atoms: O_27  and  C_28
                            x       y       z     vdW  Elec       q    Type
                         _______ _______ _______ _____ _____    ______ ____

>  <TORSDO>
F 10

$$$$
=
 OpenBabel10232412323D

 29 31  0  0  1  0  0  0  0  0999 V2000
  189.4550  177.7320  141.4320 N   0  0  0  0  0  0  0  0  0  0  0  0
  187.4190  178.5420  139.5600 C   0  0  0  0  0  2  0  0  0  0  0  0
  191.0390  177.3520  139.6670 O   0  0  0  0  0  0  0  0  0  0  0  0
  188.1100  177.9030  141.8330 N   0  0  0  0  0  0  0  0  0  0  0  0
  189.8640  178.0500  140.0630 C   0  0  1  0  0  3  0  0  0  0  0  0
  189.8860  176.0780  137.9680 C   0  0  2  0  0  3  0  0  0  0  0  0
  188.6670  176.9140  138.2130 C   0  0  0  0  0  3  0  0  0  0  0  0
  187.1520  178.2590  141.0170 C   0  0  0  0  0  0  0  0  0  0  0  0
  190.7120  176.0400  139.2580 C   0  0  0  0  0  2  0  0  0  0  0  0
  188.6840  177.8790  139.1400 C   0  0  0  0  0  0  0  0  0  0  0  0
  190.3490  175.9350  142.8350 C   0  0  0  0  0  2  0  0  0  0  0  0
  190.6190  179.6360  143.2990 O   0  0  0  0  0  1  0  0  0  0  0  0
  191.3290  175.6320  143.9640 C   0  0  0  0  0  2  0  0  0  0  0  0
  191.3070  177.8690  144.7440 C   0  0  0  0  0  2  0  0  0  0  0  0
  191.0360  176.4830  145.1170 N   0  0  0  0  0  0  0  0  0  0  0  0
  190.4640  177.4060  142.4350 C   0  0  2  0  0  3  0  0  0  0  0  0
  190.3330  178.3190  143.6590 C   0  0  2  0  0  3  0  0  0  0  0  0
  191.9910  176.1350  146.1580 C   0  0  0  0  0  2  0  0  0  0  0  0
  191.4560  176.5350  147.5220 C   0  0  0  0  0  2  0  0  0  0  0  0
  189.9390  176.5560  147.5070 C   0  0  0  0  0  2  0  0  0  0  0  0
  189.4700  177.8690  147.9100 N   0  0  0  0  0  2  0  0  0  0  0  0
  188.2100  177.6660  148.6030 C   0  0  0  0  0  1  0  0  0  0  0  0
  190.6890  176.6620  136.8120 C   0  0  0  0  0  2  0  0  0  0  0  0
  190.5720  175.8000  135.5610 C   0  0  0  0  0  2  0  0  0  0  0  0
  189.1040  177.6450  134.7420 C   0  0  0  0  0  1  0  0  0  0  0  0
  190.1510  176.6200  134.3510 C   0  0  0  0  0  2  0  0  0  0  0  0
  185.8450  178.4140  141.4870 O   0  0  0  0  0  0  0  0  0  0  0  0
  184.1350  178.8760  143.1260 C   0  0  0  0  0  1  0  0  0  0  0  0
  185.4950  178.2590  142.8590 C   0  0  0  0  0  2  0  0  0  0  0  0
  1  4  1  0  0  0  0
  2  8  1  0  0  0  0
  3  5  1  0  0  0  0
  5 10  1  6  0  0  0
  5  1  1  0  0  0  0
  6 23  1  6  0  0  0
  6  7  1  0  0  0  0
  6  9  1  0  0  0  0
  7 10  2  0  0  0  0
  8 27  1  0  0  0  0
  8  4  2  0  0  0  0
  9  3  1  0  0  0  0
 10  2  1  0  0  0  0
 11 13  1  0  0  0  0
 13 15  1  0  0  0  0
 14 15  1  0  0  0  0
 15 18  1  0  0  0  0
 16  1  1  6  0  0  0
 16 11  1  0  0  0  0
 16 17  1  0  0  0  0
 17 12  1  6  0  0  0
 17 14  1  0  0  0  0
 18 19  1  0  0  0  0
 20 19  1  0  0  0  0
 20 21  1  0  0  0  0
 21 22  1  0  0  0  0
 24 23  1  0  0  0  0
 26 25  1  0  0  0  0
 26 24  1  0  0  0  0
 27 29  1  0  0  0  0
 29 28  1  0  0  0  0
M  END
>  <MODEL>
7

>  <REMARK>
 VINA RESULT:      -6.1      2.286      7.931
  Name = 
  10 active torsions:
  status: ('A' for Active; 'I' for Inactive)
    1  A    between atoms: N_1  and  C_15
    2  A    between atoms: C_6  and  C_18
    3  A    between atoms: C_6  and  N_22
    4  A    between atoms: C_9  and  C_11
    5  A    between atoms: C_11  and  C_23
    6  A    between atoms: N_14  and  C_29
    7  A    between atoms: C_17  and  C_23
    8  A    between atoms: C_18  and  C_29
    9  A    between atoms: C_20  and  O_27
   10  A    between atoms: O_27  and  C_28
                            x       y       z     vdW  Elec       q    Type
                         _______ _______ _______ _____ _____    ______ ____

>  <TORSDO>
F 10

$$$$
=
 OpenBabel10232412323D

 29 31  0  0  1  0  0  0  0  0999 V2000
  190.3130  177.2860  139.2120 N   0  0  0  0  0  0  0  0  0  0  0  0
  192.8250  177.5880  140.5910 C   0  0  0  0  0  2  0  0  0  0  0  0
  189.0720  177.9350  141.1640 O   0  0  0  0  0  0  0  0  0  0  0  0
  191.5240  176.8240  138.6480 N   0  0  0  0  0  0  0  0  0  0  0  0
  190.3190  178.0140  140.4820 C   0  0  1  0  0  3  0  0  0  0  0  0
  189.9950  176.6860  143.0140 C   0  0  2  0  0  3  0  0  0  0  0  0
  191.3610  176.9020  142.4370 C   0  0  0  0  0  3  0  0  0  0  0  0
  192.6840  176.9300  139.2420 C   0  0  0  0  0  0  0  0  0  0  0  0
  188.9780  176.7160  141.8690 C   0  0  0  0  0  2  0  0  0  0  0  0
  191.5130  177.5820  141.2950 C   0  0  0  0  0  0  0  0  0  0  0  0
  188.9450  175.7870  137.8400 C   0  0  0  0  0  2  0  0  0  0  0  0
  188.9830  179.5260  137.9160 O   0  0  0  0  0  1  0  0  0  0  0  0
  187.7170  175.7290  136.9380 C   0  0  0  0  0  2  0  0  0  0  0  0
  187.8090  178.0470  136.4600 C   0  0  0  0  0  2  0  0  0  0  0  0
  187.8410  176.7140  135.8640 N   0  0  0  0  0  0  0  0  0  0  0  0
  189.0800  177.1890  138.4360 C   0  0  2  0  0  3  0  0  0  0  0  0
  189.0400  178.2580  137.3390 C   0  0  2  0  0  3  0  0  0  0  0  0
  186.6510  176.5960  135.0370 C   0  0  0  0  0  2  0  0  0  0  0  0
  185.4730  177.2870  135.7040 C   0  0  0  0  0  2  0  0  0  0  0  0
  184.2880  176.3440  135.7880 C   0  0  0  0  0  2  0  0  0  0  0  0
  183.7350  176.3790  137.1290 N   0  0  0  0  0  2  0  0  0  0  0  0
  184.3030  177.5450  137.7820 C   0  0  0  0  0  1  0  0  0  0  0  0
  189.6960  177.7650  144.0500 C   0  0  0  0  0  2  0  0  0  0  0  0
  188.3990  177.4770  144.7960 C   0  0  0  0  0  2  0  0  0  0  0  0
  190.0470  177.0990  146.6310 C   0  0  0  0  0  1  0  0  0  0  0  0
  188.6100  177.4530  146.3020 C   0  0  0  0  0  2  0  0  0  0  0  0
  193.8420  176.4540  138.6200 O   0  0  0  0  0  0  0  0  0  0  0  0
  194.6740  174.2500  138.0970 C   0  0  0  0  0  1  0  0  0  0  0  0
  193.8230  175.4200  137.6410 C   0  0  0  0  0  2  0  0  0  0  0  0
  1  5  1  0  0  0  0
  2 10  1  0  0  0  0
  3  9  1  0  0  0  0
  4  1  1  0  0  0  0
  4  8  2  0  0  0  0
  5  3  1  1  0  0  0
  5 10  1  0  0  0  0
  6 23  1  1  0  0  0
  7  6  1  0  0  0  0
  8  2  1  0  0  0  0
  9  6  1  0  0  0  0
 10  7  2  0  0  0  0
 13 11  1  0  0  0  0
 14 17  1  0  0  0  0
 15 14  1  0  0  0  0
 15 13  1  0  0  0  0
 16 11  1  6  0  0  0
 16  1  1  0  0  0  0
 17 12  1  1  0  0  0
 17 16  1  0  0  0  0
 18 19  1  0  0  0  0
 18 15  1  0  0  0  0
 19 20  1  0  0  0  0
 20 21  1  0  0  0  0
 21 22  1  0  0  0  0
 23 24  1  0  0  0  0
 24 26  1  0  0  0  0
 26 25  1  0  0  0  0
 27  8  1  0  0  0  0
 29 28  1  0  0  0  0
 29 27  1  0  0  0  0
M  END
>  <MODEL>
8

>  <REMARK>
 VINA RESULT:      -6.1      3.470      6.639
  Name = 
  10 active torsions:
  status: ('A' for Active; 'I' for Inactive)
    1  A    between atoms: N_1  and  C_15
    2  A    between atoms: C_6  and  C_18
    3  A    between atoms: C_6  and  N_22
    4  A    between atoms: C_9  and  C_11
    5  A    between atoms: C_11  and  C_23
    6  A    between atoms: N_14  and  C_29
    7  A    between atoms: C_17  and  C_23
    8  A    between atoms: C_18  and  C_29
    9  A    between atoms: C_20  and  O_27
   10  A    between atoms: O_27  and  C_28
                            x       y       z     vdW  Elec       q    Type
                         _______ _______ _______ _____ _____    ______ ____

>  <TORSDO>
F 10

$$$$
=
 OpenBabel10232412323D

 29 31  0  0  1  0  0  0  0  0999 V2000
  186.7790  177.7830  143.5500 N   0  0  0  0  0  0  0  0  0  0  0  0
  185.6300  178.0490  146.1800 C   0  0  0  0  0  2  0  0  0  0  0  0
  188.7330  176.6950  144.4280 O   0  0  0  0  0  0  0  0  0  0  0  0
  185.6370  178.5830  143.7790 N   0  0  0  0  0  0  0  0  0  0  0  0
  187.3580  176.9930  144.6390 C   0  0  1  0  0  3  0  0  0  0  0  0
  189.4610  178.0060  146.3220 C   0  0  2  0  0  3  0  0  0  0  0  0
  188.0240  178.1960  146.7020 C   0  0  0  0  0  3  0  0  0  0  0  0
  185.0880  178.7410  144.9560 C   0  0  0  0  0  0  0  0  0  0  0  0
  189.5340  177.7940  144.8060 C   0  0  0  0  0  2  0  0  0  0  0  0
  187.0500  177.6630  145.9550 C   0  0  0  0  0  0  0  0  0  0  0  0
  188.7700  177.9020  142.1300 C   0  0  0  0  0  2  0  0  0  0  0  0
  185.1670  178.1020  141.1500 O   0  0  0  0  0  1  0  0  0  0  0  0
  189.2520  177.8330  140.6840 C   0  0  0  0  0  2  0  0  0  0  0  0
  187.1220  178.4090  139.8210 C   0  0  0  0  0  2  0  0  0  0  0  0
  188.5270  178.8090  139.8720 N   0  0  0  0  0  0  0  0  0  0  0  0
  187.2710  177.6110  142.1870 C   0  0  2  0  0  3  0  0  0  0  0  0
  186.5000  178.5070  141.2120 C   0  0  2  0  0  3  0  0  0  0  0  0
  189.0410  178.7010  138.5150 C   0  0  0  0  0  2  0  0  0  0  0  0
  188.5860  177.3990  137.8780 C   0  0  0  0  0  2  0  0  0  0  0  0
  189.6740  176.8440  136.9790 C   0  0  0  0  0  2  0  0  0  0  0  0
  190.9290  176.8060  137.7060 N   0  0  0  0  0  2  0  0  0  0  0  0
  191.8940  176.1580  136.8360 C   0  0  0  0  0  1  0  0  0  0  0  0
  190.0410  176.8160  147.0770 C   0  0  0  0  0  2  0  0  0  0  0  0
  191.5190  176.6240  146.7620 C   0  0  0  0  0  2  0  0  0  0  0  0
  192.9890  175.7870  148.5970 C   0  0  0  0  0  1  0  0  0  0  0  0
  192.0850  175.3890  147.4460 C   0  0  0  0  0  2  0  0  0  0  0  0
  183.9550  179.5460  145.1040 O   0  0  0  0  0  0  0  0  0  0  0  0
  182.3300  179.1610  143.3610 C   0  0  0  0  0  1  0  0  0  0  0  0
  182.6360  179.0770  144.8450 C   0  0  0  0  0  2  0  0  0  0  0  0
  1  4  1  0  0  0  0
  1  5  1  0  0  0  0
  3  9  1  0  0  0  0
  4  8  2  0  0  0  0
  5  3  1  6  0  0  0
  5 10  1  0  0  0  0
  6  7  1  0  0  0  0
  6 23  1  1  0  0  0
  8 27  1  0  0  0  0
  8  2  1  0  0  0  0
  9  6  1  0  0  0  0
 10  2  1  0  0  0  0
 10  7  2  0  0  0  0
 13 11  1  0  0  0  0
 14 15  1  0  0  0  0
 14 17  1  0  0  0  0
 15 13  1  0  0  0  0
 16 11  1  1  0  0  0
 16  1  1  0  0  0  0
 17 12  1  6  0  0  0
 17 16  1  0  0  0  0
 18 15  1  0  0  0  0
 19 18  1  0  0  0  0
 20 21  1  0  0  0  0
 20 19  1  0  0  0  0
 22 21  1  0  0  0  0
 24 23  1  0  0  0  0
 24 26  1  0  0  0  0
 26 25  1  0  0  0  0
 28 29  1  0  0  0  0
 29 27  1  0  0  0  0
M  END
>  <MODEL>
9

>  <REMARK>
 VINA RESULT:      -6.0      2.094      5.776
  Name = 
  10 active torsions:
  status: ('A' for Active; 'I' for Inactive)
    1  A    between atoms: N_1  and  C_15
    2  A    between atoms: C_6  and  C_18
    3  A    between atoms: C_6  and  N_22
    4  A    between atoms: C_9  and  C_11
    5  A    between atoms: C_11  and  C_23
    6  A    between atoms: N_14  and  C_29
    7  A    between atoms: C_17  and  C_23
    8  A    between atoms: C_18  and  C_29
    9  A    between atoms: C_20  and  O_27
   10  A    between atoms: O_27  and  C_28
                            x       y       z     vdW  Elec       q    Type
                         _______ _______ _______ _____ _____    ______ ____

>  <TORSDO>
F 10

$$$$
