=
 OpenBabel10232408063D

 38 42  0  0  1  0  0  0  0  0999 V2000
  184.4710  176.8910  137.3780 N   0  0  0  0  0  0  0  0  0  0  0  0
  183.6820  177.4300  140.2130 C   0  0  0  0  0  2  0  0  0  0  0  0
  186.3300  177.6680  144.6890 C   0  0  0  0  0  2  0  0  0  0  0  0
  182.2060  179.2320  143.8300 O   0  0  0  0  0  0  0  0  0  0  0  0
  185.3560  176.4760  136.4450 C   0  0  0  0  0  3  0  0  0  0  0  0
  188.1180  177.4990  139.6490 C   0  0  0  0  0  2  0  0  0  0  0  0
  184.0000  178.3490  142.5800 C   0  0  0  0  0  0  0  0  0  0  0  0
  186.4880  177.7150  137.8600 N   0  0  0  0  0  0  0  0  0  0  0  0
  185.4640  178.7130  145.3880 C   0  0  0  0  0  3  0  0  0  0  0  0
  186.3920  177.7950  143.1970 C   0  0  0  0  0  0  0  0  0  0  0  0
  185.1990  177.6350  138.2310 C   0  0  0  0  0  0  0  0  0  0  0  0
  187.5660  178.3980  138.5570 C   0  0  0  0  0  2  0  0  0  0  0  0
  184.6260  178.3390  139.4260 C   0  0  1  0  0  3  0  0  0  0  0  0
  188.5920  178.0830  142.0500 C   0  0  1  0  0  0  0  0  0  0  0  0
  183.4230  178.9120  143.8170 C   0  0  0  0  0  0  0  0  0  0  0  0
  184.2410  179.1870  145.0410 C   0  0  0  0  0  3  0  0  0  0  0  0
  188.1290  179.2030  141.3370 O   0  0  0  0  0  0  0  0  0  0  0  0
  183.1970  178.0870  141.4220 N   0  0  0  0  0  2  0  0  0  0  0  0
  187.4600  177.1130  142.4160 C   0  0  0  0  0  2  0  0  0  0  0  0
  185.2410  178.0150  142.6650 C   0  0  0  0  0  0  0  0  0  0  0  0
  188.9600  178.3100  140.6240 C   0  0  2  0  0  3  0  0  0  0  0  0
  186.6100  176.9810  136.7430 C   0  0  0  0  0  3  0  0  0  0  0  0
  183.8560  179.9340  138.9570 S   0  0  0  0  0  0  0  0  0  0  0  0
  182.2960  179.2220  138.3480 C   0  0  0  0  0  1  0  0  0  0  0  0
  189.0320  178.6570  144.3280 F   0  0  0  0  0  0  0  0  0  0  0  0
  189.6330  178.4800  143.0930 C   0  0  1  0  0  3  0  0  0  0  0  0
  192.3740  177.2690  141.2270 O   0  0  0  0  0  0  0  0  0  0  0  0
  190.7420  177.4740  143.1710 C   0  0  0  0  0  0  0  0  0  0  0  0
  191.5810  177.3690  142.1720 C   0  0  0  0  0  0  0  0  0  0  0  0
  190.8650  176.5810  144.3750 C   0  0  2  0  0  3  0  0  0  0  0  0
  192.9910  173.4900  144.7880 N   0  0  0  0  0  1  0  0  0  0  0  0
  192.1920  174.6280  145.0820 C   0  0  0  0  0  0  0  0  0  0  0  0
  191.7730  176.4220  146.7290 C   0  0  0  0  0  0  0  0  0  0  0  0
  189.9220  178.3280  146.2320 Cl  0  0  0  0  0  0  0  0  0  0  0  0
  191.2920  177.3510  145.6380 C   0  0  2  0  0  3  0  0  0  0  0  0
  192.1250  176.8800  147.8050 O   0  0  0  0  0  0  0  0  0  0  0  0
  191.8330  174.9360  146.5060 C   0  0  0  0  0  2  0  0  0  0  0  0
  191.7500  175.3990  144.0880 C   0  0  0  0  0  3  0  0  0  0  0  0
  1 11  2  0  0  0  0
  2 18  1  0  0  0  0
  3  9  1  0  0  0  0
  5 22  2  0  0  0  0
  5  1  1  0  0  0  0
  7 20  2  0  0  0  0
  7 15  1  0  0  0  0
  8 11  1  0  0  0  0
  8 12  1  0  0  0  0
 10  3  1  0  0  0  0
 11 13  1  0  0  0  0
 12  6  1  0  0  0  0
 13 23  1  6  0  0  0
 13  2  1  0  0  0  0
 14 19  1  0  0  0  0
 14 26  1  1  0  0  0
 15  4  2  0  0  0  0
 15 16  1  0  0  0  0
 16  9  2  0  0  0  0
 17 14  1  0  0  0  0
 18  7  1  0  0  0  0
 19 10  1  0  0  0  0
 20 10  2  0  0  0  0
 21  6  1  6  0  0  0
 21 17  1  0  0  0  0
 21 14  1  0  0  0  0
 22  8  1  0  0  0  0
 24 23  1  0  0  0  0
 26 28  1  0  0  0  0
 26 25  1  1  0  0  0
 27 29  2  0  0  0  0
 29 28  2  0  0  0  0
 30 28  1  6  0  0  0
 30 35  1  0  0  0  0
 31 32  1  0  0  0  0
 32 37  1  0  0  0  0
 33 36  2  0  0  0  0
 35 34  1  1  0  0  0
 35 33  1  0  0  0  0
 37 33  1  0  0  0  0
 38 30  1  0  0  0  0
 38 32  2  0  0  0  0
M  END
>  <MODEL>
1

>  <REMARK>
 VINA RESULT:      -8.8      0.000      0.000
  Name = 
  4 active torsions:
  status: ('A' for Active; 'I' for Inactive)
    1  A    between atoms: S_5  and  C_19
    2  A    between atoms: C_9  and  C_26
    3  A    between atoms: C_21  and  C_35
    4  A    between atoms: C_26  and  C_35
                            x       y       z     vdW  Elec       q    Type
                         _______ _______ _______ _____ _____    ______ ____

>  <TORSDO>
F 4

$$$$
=
 OpenBabel10232408063D

 38 42  0  0  1  0  0  0  0  0999 V2000
  183.6260  176.7880  137.2350 N   0  0  0  0  0  0  0  0  0  0  0  0
  183.0830  177.5060  140.0890 C   0  0  0  0  0  2  0  0  0  0  0  0
  186.0810  177.8640  144.3290 C   0  0  0  0  0  2  0  0  0  0  0  0
  181.9630  179.5520  143.7040 O   0  0  0  0  0  0  0  0  0  0  0  0
  184.4190  176.2890  136.2610 C   0  0  0  0  0  3  0  0  0  0  0  0
  187.4600  177.3610  139.1850 C   0  0  0  0  0  2  0  0  0  0  0  0
  183.6200  178.5320  142.3700 C   0  0  0  0  0  0  0  0  0  0  0  0
  185.7050  177.5520  137.5160 N   0  0  0  0  0  0  0  0  0  0  0  0
  185.3120  178.9790  145.0340 C   0  0  0  0  0  3  0  0  0  0  0  0
  186.0300  177.9110  142.8330 C   0  0  0  0  0  0  0  0  0  0  0  0
  184.4460  177.5450  137.9880 C   0  0  0  0  0  0  0  0  0  0  0  0
  186.8590  178.2240  138.0900 C   0  0  0  0  0  2  0  0  0  0  0  0
  183.9950  178.3330  139.1840 C   0  0  1  0  0  3  0  0  0  0  0  0
  188.1430  178.0480  141.5070 C   0  0  1  0  0  0  0  0  0  0  0  0
  183.1630  179.1820  143.6150 C   0  0  0  0  0  0  0  0  0  0  0  0
  184.0850  179.4850  144.7560 C   0  0  0  0  0  3  0  0  0  0  0  0
  187.6670  179.1480  140.7710 O   0  0  0  0  0  0  0  0  0  0  0  0
  182.7190  178.2440  141.2930 N   0  0  0  0  0  2  0  0  0  0  0  0
  187.0070  177.1460  142.0110 C   0  0  0  0  0  2  0  0  0  0  0  0
  184.8510  178.1510  142.3790 C   0  0  0  0  0  0  0  0  0  0  0  0
  188.4060  178.1850  140.0470 C   0  0  2  0  0  3  0  0  0  0  0  0
  185.7110  176.7570  136.4350 C   0  0  0  0  0  3  0  0  0  0  0  0
  183.2520  179.9320  138.6880 S   0  0  0  0  0  0  0  0  0  0  0  0
  181.6520  179.2430  138.1600 C   0  0  0  0  0  1  0  0  0  0  0  0
  188.9700  179.6460  143.0810 F   0  0  0  0  0  0  0  0  0  0  0  0
  189.2770  178.4540  142.4440 C   0  0  1  0  0  3  0  0  0  0  0  0
  189.7330  174.9590  142.6400 O   0  0  0  0  0  0  0  0  0  0  0  0
  189.5820  177.3730  143.4370 C   0  0  0  0  0  0  0  0  0  0  0  0
  189.6600  176.1320  143.0280 C   0  0  0  0  0  0  0  0  0  0  0  0
  189.7660  177.7160  144.8890 C   0  0  2  0  0  3  0  0  0  0  0  0
  187.4800  176.9280  147.7880 N   0  0  0  0  0  1  0  0  0  0  0  0
  188.6330  177.2810  147.0350 C   0  0  0  0  0  0  0  0  0  0  0  0
  191.1020  177.1880  146.9700 C   0  0  0  0  0  0  0  0  0  0  0  0
  192.4490  178.1460  144.8330 Cl  0  0  0  0  0  0  0  0  0  0  0  0
  191.0900  177.1740  145.4590 C   0  0  2  0  0  3  0  0  0  0  0  0
  192.0940  176.8100  147.5730 O   0  0  0  0  0  0  0  0  0  0  0  0
  189.9010  177.6530  147.7470 C   0  0  0  0  0  2  0  0  0  0  0  0
  188.5710  177.3000  145.7030 C   0  0  0  0  0  3  0  0  0  0  0  0
  1 11  2  0  0  0  0
  2 18  1  0  0  0  0
  3  9  1  0  0  0  0
  5 22  2  0  0  0  0
  5  1  1  0  0  0  0
  7 20  2  0  0  0  0
  7 15  1  0  0  0  0
  8 11  1  0  0  0  0
  8 12  1  0  0  0  0
 10  3  1  0  0  0  0
 11 13  1  0  0  0  0
 12  6  1  0  0  0  0
 13 23  1  6  0  0  0
 13  2  1  0  0  0  0
 14 19  1  0  0  0  0
 14 26  1  1  0  0  0
 15  4  2  0  0  0  0
 15 16  1  0  0  0  0
 16  9  2  0  0  0  0
 17 14  1  0  0  0  0
 18  7  1  0  0  0  0
 19 10  1  0  0  0  0
 20 10  2  0  0  0  0
 21  6  1  6  0  0  0
 21 17  1  0  0  0  0
 21 14  1  0  0  0  0
 22  8  1  0  0  0  0
 24 23  1  0  0  0  0
 26 25  1  1  0  0  0
 26 28  1  0  0  0  0
 27 29  2  0  0  0  0
 29 28  2  0  0  0  0
 30 28  1  6  0  0  0
 30 35  1  0  0  0  0
 30 38  1  0  0  0  0
 32 37  1  0  0  0  0
 32 31  1  0  0  0  0
 33 36  2  0  0  0  0
 33 37  1  0  0  0  0
 35 34  1  6  0  0  0
 35 33  1  0  0  0  0
 38 32  2  0  0  0  0
M  END
>  <MODEL>
2

>  <REMARK>
 VINA RESULT:      -8.7      1.755      2.001
  Name = 
  4 active torsions:
  status: ('A' for Active; 'I' for Inactive)
    1  A    between atoms: S_5  and  C_19
    2  A    between atoms: C_9  and  C_26
    3  A    between atoms: C_21  and  C_35
    4  A    between atoms: C_26  and  C_35
                            x       y       z     vdW  Elec       q    Type
                         _______ _______ _______ _____ _____    ______ ____

>  <TORSDO>
F 4

$$$$
=
 OpenBabel10232408063D

 38 42  0  0  1  0  0  0  0  0999 V2000
  188.4570  175.7430  136.9780 N   0  0  0  0  0  0  0  0  0  0  0  0
  185.6290  176.6670  137.3050 C   0  0  0  0  0  2  0  0  0  0  0  0
  182.8700  178.4030  141.3630 C   0  0  0  0  0  2  0  0  0  0  0  0
  181.9080  178.8020  136.9920 O   0  0  0  0  0  0  0  0  0  0  0  0
  189.6490  175.3520  137.4800 C   0  0  0  0  0  3  0  0  0  0  0  0
  188.1380  177.5990  140.8870 C   0  0  0  0  0  2  0  0  0  0  0  0
  183.7510  178.1010  138.2850 C   0  0  0  0  0  0  0  0  0  0  0  0
  189.0110  177.0760  138.6810 N   0  0  0  0  0  0  0  0  0  0  0  0
  181.9490  179.3510  140.5980 C   0  0  0  0  0  3  0  0  0  0  0  0
  184.2340  178.2300  140.7670 C   0  0  0  0  0  0  0  0  0  0  0  0
  188.0920  176.7900  137.7420 C   0  0  0  0  0  0  0  0  0  0  0  0
  188.9380  178.1090  139.7020 C   0  0  0  0  0  2  0  0  0  0  0  0
  186.8330  177.5800  137.5340 C   0  0  1  0  0  3  0  0  0  0  0  0
  186.2710  178.7560  142.1140 C   0  0  1  0  0  0  0  0  0  0  0  0
  182.4410  178.7650  138.1310 C   0  0  0  0  0  0  0  0  0  0  0  0
  181.7470  179.4600  139.2620 C   0  0  0  0  0  3  0  0  0  0  0  0
  186.7930  179.5740  141.0960 O   0  0  0  0  0  0  0  0  0  0  0  0
  184.3950  177.4340  137.1910 N   0  0  0  0  0  2  0  0  0  0  0  0
  185.3500  177.6560  141.5670 C   0  0  0  0  0  2  0  0  0  0  0  0
  184.2060  178.0750  139.4900 C   0  0  0  0  0  0  0  0  0  0  0  0
  187.7220  178.7600  141.7810 C   0  0  2  0  0  3  0  0  0  0  0  0
  189.9940  176.1730  138.5410 C   0  0  0  0  0  3  0  0  0  0  0  0
  187.0420  178.8330  136.2140 S   0  0  0  0  0  0  0  0  0  0  0  0
  186.8280  177.6800  134.8210 C   0  0  0  0  0  1  0  0  0  0  0  0
  184.9230  180.5420  142.9570 F   0  0  0  0  0  0  0  0  0  0  0  0
  185.8480  179.5800  143.3280 C   0  0  1  0  0  3  0  0  0  0  0  0
  182.8010  178.6470  144.8460 O   0  0  0  0  0  0  0  0  0  0  0  0
  185.3120  178.7080  144.4230 C   0  0  0  0  0  0  0  0  0  0  0  0
  184.0210  178.6770  144.6410 C   0  0  0  0  0  0  0  0  0  0  0  0
  186.2540  177.9050  145.2750 C   0  0  2  0  0  3  0  0  0  0  0  0
  189.8990  177.1440  144.6550 N   0  0  0  0  0  1  0  0  0  0  0  0
  188.6460  177.3120  145.3060 C   0  0  0  0  0  0  0  0  0  0  0  0
  187.5510  177.8860  147.4460 C   0  0  0  0  0  0  0  0  0  0  0  0
  184.8570  178.0390  147.6030 Cl  0  0  0  0  0  0  0  0  0  0  0  0
  186.3500  178.4430  146.7150 C   0  0  2  0  0  3  0  0  0  0  0  0
  187.7530  178.2000  148.6080 O   0  0  0  0  0  0  0  0  0  0  0  0
  188.5100  176.9540  146.7570 C   0  0  0  0  0  2  0  0  0  0  0  0
  187.5990  177.7640  144.6160 C   0  0  0  0  0  3  0  0  0  0  0  0
  1  5  1  0  0  0  0
  1 11  2  0  0  0  0
  2 13  1  0  0  0  0
  4 15  2  0  0  0  0
  5 22  2  0  0  0  0
  7 20  2  0  0  0  0
  8 12  1  0  0  0  0
  9  3  1  0  0  0  0
 10  3  1  0  0  0  0
 10 19  1  0  0  0  0
 11  8  1  0  0  0  0
 12  6  1  0  0  0  0
 13 23  1  6  0  0  0
 13 11  1  0  0  0  0
 14 26  1  1  0  0  0
 15  7  1  0  0  0  0
 15 16  1  0  0  0  0
 16  9  2  0  0  0  0
 17 21  1  0  0  0  0
 17 14  1  0  0  0  0
 18  2  1  0  0  0  0
 18  7  1  0  0  0  0
 19 14  1  0  0  0  0
 20 10  2  0  0  0  0
 21  6  1  6  0  0  0
 21 14  1  0  0  0  0
 22  8  1  0  0  0  0
 24 23  1  0  0  0  0
 26 25  1  6  0  0  0
 26 28  1  0  0  0  0
 28 29  2  0  0  0  0
 29 27  2  0  0  0  0
 30 28  1  6  0  0  0
 30 35  1  0  0  0  0
 31 32  1  0  0  0  0
 32 37  1  0  0  0  0
 33 36  2  0  0  0  0
 35 33  1  0  0  0  0
 35 34  1  1  0  0  0
 37 33  1  0  0  0  0
 38 30  1  0  0  0  0
 38 32  2  0  0  0  0
M  END
>  <MODEL>
3

>  <REMARK>
 VINA RESULT:      -8.3      2.828      4.731
  Name = 
  4 active torsions:
  status: ('A' for Active; 'I' for Inactive)
    1  A    between atoms: S_5  and  C_19
    2  A    between atoms: C_9  and  C_26
    3  A    between atoms: C_21  and  C_35
    4  A    between atoms: C_26  and  C_35
                            x       y       z     vdW  Elec       q    Type
                         _______ _______ _______ _____ _____    ______ ____

>  <TORSDO>
F 4

$$$$
=
 OpenBabel10232408063D

 38 42  0  0  1  0  0  0  0  0999 V2000
  182.3880  175.4580  135.1550 N   0  0  0  0  0  0  0  0  0  0  0  0
  184.9410  174.0470  134.4880 C   0  0  0  0  0  2  0  0  0  0  0  0
  189.9600  175.4000  134.7470 C   0  0  0  0  0  2  0  0  0  0  0  0
  188.2270  171.2730  134.3560 O   0  0  0  0  0  0  0  0  0  0  0  0
  181.6870  176.5700  135.4680 C   0  0  0  0  0  3  0  0  0  0  0  0
  185.6440  177.8220  136.7780 C   0  0  0  0  0  2  0  0  0  0  0  0
  187.4090  173.4430  134.7850 C   0  0  0  0  0  0  0  0  0  0  0  0
  183.5240  176.6410  136.6690 N   0  0  0  0  0  0  0  0  0  0  0  0
  190.5350  174.0150  135.0360 C   0  0  0  0  0  3  0  0  0  0  0  0
  188.5790  175.6330  135.2780 C   0  0  0  0  0  0  0  0  0  0  0  0
  183.5070  175.5400  135.8980 C   0  0  0  0  0  0  0  0  0  0  0  0
  184.5830  177.0750  137.5650 C   0  0  0  0  0  2  0  0  0  0  0  0
  184.5850  174.4950  135.9050 C   0  0  1  0  0  3  0  0  0  0  0  0
  188.1400  177.5190  136.8580 C   0  0  1  0  0  0  0  0  0  0  0  0
  188.5060  172.4620  134.6610 C   0  0  0  0  0  0  0  0  0  0  0  0
  189.9350  172.8020  134.9530 C   0  0  0  0  0  3  0  0  0  0  0  0
  187.4950  176.6670  137.7720 O   0  0  0  0  0  0  0  0  0  0  0  0
  186.0490  173.0980  134.4940 N   0  0  0  0  0  2  0  0  0  0  0  0
  188.0340  177.0130  135.4120 C   0  0  0  0  0  2  0  0  0  0  0  0
  187.7860  174.6430  135.0640 C   0  0  0  0  0  0  0  0  0  0  0  0
  186.9200  177.9460  137.5990 C   0  0  2  0  0  3  0  0  0  0  0  0
  182.3910  177.3100  136.4040 C   0  0  0  0  0  3  0  0  0  0  0  0
  184.1560  173.1000  137.0120 S   0  0  0  0  0  0  0  0  0  0  0  0
  185.8140  172.9180  137.7410 C   0  0  0  0  0  1  0  0  0  0  0  0
  189.3840  179.3460  137.7690 F   0  0  0  0  0  0  0  0  0  0  0  0
  189.4770  178.0120  137.4050 C   0  0  1  0  0  3  0  0  0  0  0  0
  190.5840  174.7400  138.1320 O   0  0  0  0  0  0  0  0  0  0  0  0
  189.9450  177.1690  138.5530 C   0  0  0  0  0  0  0  0  0  0  0  0
  190.2730  175.9200  138.3370 C   0  0  0  0  0  0  0  0  0  0  0  0
  190.0050  177.7510  139.9370 C   0  0  2  0  0  3  0  0  0  0  0  0
  187.2390  178.0020  142.4940 N   0  0  0  0  0  1  0  0  0  0  0  0
  188.5310  177.9730  141.9000 C   0  0  0  0  0  0  0  0  0  0  0  0
  190.9060  177.4020  142.2740 C   0  0  0  0  0  0  0  0  0  0  0  0
  192.7010  177.6440  140.2680 Cl  0  0  0  0  0  0  0  0  0  0  0  0
  191.0920  177.0920  140.8060 C   0  0  2  0  0  3  0  0  0  0  0  0
  191.7030  176.9690  143.0920 O   0  0  0  0  0  0  0  0  0  0  0  0
  189.7430  178.2310  142.7460 C   0  0  0  0  0  2  0  0  0  0  0  0
  188.6510  177.7400  140.5930 C   0  0  0  0  0  3  0  0  0  0  0  0
  1  5  1  0  0  0  0
  1 11  2  0  0  0  0
  2 18  1  0  0  0  0
  2 13  1  0  0  0  0
  3  9  1  0  0  0  0
  3 10  1  0  0  0  0
  4 15  2  0  0  0  0
  5 22  2  0  0  0  0
  6 12  1  0  0  0  0
  7 20  2  0  0  0  0
  8 12  1  0  0  0  0
 10 19  1  0  0  0  0
 11 13  1  0  0  0  0
 11  8  1  0  0  0  0
 13 23  1  1  0  0  0
 14 26  1  1  0  0  0
 14 21  1  0  0  0  0
 14 17  1  0  0  0  0
 15  7  1  0  0  0  0
 15 16  1  0  0  0  0
 16  9  2  0  0  0  0
 18  7  1  0  0  0  0
 19 14  1  0  0  0  0
 20 10  2  0  0  0  0
 21  6  1  6  0  0  0
 21 17  1  0  0  0  0
 22  8  1  0  0  0  0
 23 24  1  0  0  0  0
 26 25  1  1  0  0  0
 26 28  1  0  0  0  0
 27 29  2  0  0  0  0
 29 28  2  0  0  0  0
 30 28  1  6  0  0  0
 30 38  1  0  0  0  0
 30 35  1  0  0  0  0
 32 31  1  0  0  0  0
 32 37  1  0  0  0  0
 33 37  1  0  0  0  0
 33 36  2  0  0  0  0
 35 34  1  6  0  0  0
 35 33  1  0  0  0  0
 38 32  2  0  0  0  0
M  END
>  <MODEL>
4

>  <REMARK>
 VINA RESULT:      -8.3      3.969      7.093
  Name = 
  4 active torsions:
  status: ('A' for Active; 'I' for Inactive)
    1  A    between atoms: S_5  and  C_19
    2  A    between atoms: C_9  and  C_26
    3  A    between atoms: C_21  and  C_35
    4  A    between atoms: C_26  and  C_35
                            x       y       z     vdW  Elec       q    Type
                         _______ _______ _______ _____ _____    ______ ____

>  <TORSDO>
F 4

$$$$
=
 OpenBabel10232408063D

 38 42  0  0  1  0  0  0  0  0999 V2000
  184.4210  179.3610  138.1950 N   0  0  0  0  0  0  0  0  0  0  0  0
  186.9350  178.2250  137.0360 C   0  0  0  0  0  2  0  0  0  0  0  0
  191.6740  177.2880  138.9750 C   0  0  0  0  0  2  0  0  0  0  0  0
  189.8580  175.6540  135.2040 O   0  0  0  0  0  0  0  0  0  0  0  0
  183.7430  180.0090  139.1680 C   0  0  0  0  0  3  0  0  0  0  0  0
  187.1270  178.5610  141.4910 C   0  0  0  0  0  2  0  0  0  0  0  0
  189.1130  176.8820  137.0740 C   0  0  0  0  0  0  0  0  0  0  0  0
  185.0790  178.5930  140.1850 N   0  0  0  0  0  0  0  0  0  0  0  0
  192.0130  176.0720  138.1180 C   0  0  0  0  0  3  0  0  0  0  0  0
  190.2170  177.4610  139.2780 C   0  0  0  0  0  0  0  0  0  0  0  0
  185.2350  178.5130  138.8520 C   0  0  0  0  0  0  0  0  0  0  0  0
  185.8110  177.8600  141.2040 C   0  0  0  0  0  2  0  0  0  0  0  0
  186.1660  177.5520  138.1730 C   0  0  1  0  0  3  0  0  0  0  0  0
  189.4250  177.5500  141.6460 C   0  0  1  0  0  0  0  0  0  0  0  0
  190.1100  176.0500  136.3720 C   0  0  0  0  0  0  0  0  0  0  0  0
  191.3840  175.5950  137.0150 C   0  0  0  0  0  3  0  0  0  0  0  0
  188.4510  176.5640  141.4080 O   0  0  0  0  0  0  0  0  0  0  0  0
  187.9030  177.3130  136.4370 N   0  0  0  0  0  2  0  0  0  0  0  0
  189.7650  178.3530  140.3820 C   0  0  0  0  0  2  0  0  0  0  0  0
  189.4670  177.2750  138.2500 C   0  0  0  0  0  0  0  0  0  0  0  0
  188.0660  177.6320  142.2480 C   0  0  2  0  0  3  0  0  0  0  0  0
  184.1520  179.5380  140.4050 C   0  0  0  0  0  3  0  0  0  0  0  0
  185.2900  176.0330  137.6440 S   0  0  0  0  0  0  0  0  0  0  0  0
  184.5480  176.7530  136.1460 C   0  0  0  0  0  1  0  0  0  0  0  0
  191.7620  177.1130  141.9020 F   0  0  0  0  0  0  0  0  0  0  0  0
  190.5400  177.0260  142.5480 C   0  0  1  0  0  3  0  0  0  0  0  0
  191.1320  180.2330  143.8990 O   0  0  0  0  0  0  0  0  0  0  0  0
  190.5690  177.7490  143.8610 C   0  0  0  0  0  0  0  0  0  0  0  0
  190.8580  179.0260  143.8800 C   0  0  0  0  0  0  0  0  0  0  0  0
  190.2960  177.0040  145.1370 C   0  0  2  0  0  3  0  0  0  0  0  0
  192.7730  175.7840  147.7110 N   0  0  0  0  0  1  0  0  0  0  0  0
  191.5590  176.1830  147.0880 C   0  0  0  0  0  0  0  0  0  0  0  0
  189.3420  177.2070  147.4700 C   0  0  0  0  0  0  0  0  0  0  0  0
  187.6700  177.6570  145.3950 Cl  0  0  0  0  0  0  0  0  0  0  0  0
  189.3220  177.7570  146.0620 C   0  0  2  0  0  3  0  0  0  0  0  0
  188.6060  177.6830  148.3190 O   0  0  0  0  0  0  0  0  0  0  0  0
  190.2680  176.0820  147.8460 C   0  0  0  0  0  2  0  0  0  0  0  0
  191.5760  176.6210  145.8290 C   0  0  0  0  0  3  0  0  0  0  0  0
  1 11  2  0  0  0  0
  1  5  1  0  0  0  0
  2 13  1  0  0  0  0
  3 10  1  0  0  0  0
  4 15  2  0  0  0  0
  5 22  2  0  0  0  0
  7 20  2  0  0  0  0
  8 22  1  0  0  0  0
  8 12  1  0  0  0  0
  9  3  1  0  0  0  0
 10 19  1  0  0  0  0
 11  8  1  0  0  0  0
 12  6  1  0  0  0  0
 13 23  1  6  0  0  0
 13 11  1  0  0  0  0
 14 21  1  0  0  0  0
 14 26  1  1  0  0  0
 15 16  1  0  0  0  0
 15  7  1  0  0  0  0
 16  9  2  0  0  0  0
 17 14  1  0  0  0  0
 17 21  1  0  0  0  0
 18  2  1  0  0  0  0
 18  7  1  0  0  0  0
 19 14  1  0  0  0  0
 20 10  2  0  0  0  0
 21  6  1  6  0  0  0
 24 23  1  0  0  0  0
 26 25  1  6  0  0  0
 26 28  1  0  0  0  0
 28 29  2  0  0  0  0
 29 27  2  0  0  0  0
 30 28  1  6  0  0  0
 30 38  1  0  0  0  0
 30 35  1  0  0  0  0
 32 31  1  0  0  0  0
 32 37  1  0  0  0  0
 33 37  1  0  0  0  0
 33 36  2  0  0  0  0
 35 34  1  6  0  0  0
 35 33  1  0  0  0  0
 38 32  2  0  0  0  0
M  END
>  <MODEL>
5

>  <REMARK>
 VINA RESULT:      -8.2      2.660      5.107
  Name = 
  4 active torsions:
  status: ('A' for Active; 'I' for Inactive)
    1  A    between atoms: S_5  and  C_19
    2  A    between atoms: C_9  and  C_26
    3  A    between atoms: C_21  and  C_35
    4  A    between atoms: C_26  and  C_35
                            x       y       z     vdW  Elec       q    Type
                         _______ _______ _______ _____ _____    ______ ____

>  <TORSDO>
F 4

$$$$
=
 OpenBabel10232408063D

 38 42  0  0  1  0  0  0  0  0999 V2000
  183.5160  178.2040  145.0260 N   0  0  0  0  0  0  0  0  0  0  0  0
  186.2230  177.2830  145.9090 C   0  0  0  0  0  2  0  0  0  0  0  0
  190.5580  175.9300  143.3650 C   0  0  0  0  0  2  0  0  0  0  0  0
  190.1230  177.0110  147.7040 O   0  0  0  0  0  0  0  0  0  0  0  0
  182.5750  178.4010  144.0770 C   0  0  0  0  0  3  0  0  0  0  0  0
  186.1260  178.3240  141.5610 C   0  0  0  0  0  2  0  0  0  0  0  0
  188.7700  177.0870  145.7740 C   0  0  0  0  0  0  0  0  0  0  0  0
  184.4810  179.0460  143.1970 N   0  0  0  0  0  0  0  0  0  0  0  0
  191.5670  176.3950  144.4110 C   0  0  0  0  0  3  0  0  0  0  0  0
  189.2840  176.7180  143.3230 C   0  0  0  0  0  0  0  0  0  0  0  0
  184.6680  178.5980  144.4510 C   0  0  0  0  0  0  0  0  0  0  0  0
  185.4950  179.5120  142.2660 C   0  0  0  0  0  2  0  0  0  0  0  0
  185.9970  178.5890  145.1480 C   0  0  1  0  0  3  0  0  0  0  0  0
  188.5710  177.8450  141.2100 C   0  0  1  0  0  0  0  0  0  0  0  0
  190.0750  176.9360  146.4490 C   0  0  0  0  0  0  0  0  0  0  0  0
  191.3610  176.7660  145.6990 C   0  0  0  0  0  3  0  0  0  0  0  0
  188.3840  179.0720  141.8710 O   0  0  0  0  0  0  0  0  0  0  0  0
  187.5510  177.2420  146.5110 N   0  0  0  0  0  2  0  0  0  0  0  0
  188.3760  176.6420  142.1450 C   0  0  0  0  0  2  0  0  0  0  0  0
  188.8060  176.9590  144.4920 C   0  0  0  0  0  0  0  0  0  0  0  0
  187.4260  178.7410  140.8870 C   0  0  2  0  0  3  0  0  0  0  0  0
  183.1700  178.9190  142.9380 C   0  0  0  0  0  3  0  0  0  0  0  0
  186.2110  180.0750  146.1980 S   0  0  0  0  0  0  0  0  0  0  0  0
  185.8690  179.2420  147.7790 C   0  0  0  0  0  1  0  0  0  0  0  0
  190.7070  176.9480  140.6230 F   0  0  0  0  0  0  0  0  0  0  0  0
  189.7670  177.8990  140.2640 C   0  0  1  0  0  3  0  0  0  0  0  0
  188.9830  179.7970  137.3920 O   0  0  0  0  0  0  0  0  0  0  0  0
  189.3440  177.7300  138.8350 C   0  0  0  0  0  0  0  0  0  0  0  0
  189.1590  178.7920  138.0930 C   0  0  0  0  0  0  0  0  0  0  0  0
  189.1110  176.3530  138.2780 C   0  0  2  0  0  3  0  0  0  0  0  0
  186.0230  175.0120  136.5720 N   0  0  0  0  0  1  0  0  0  0  0  0
  187.3670  175.1590  137.0100 C   0  0  0  0  0  0  0  0  0  0  0  0
  189.7330  174.7590  136.4170 C   0  0  0  0  0  0  0  0  0  0  0  0
  191.7120  175.5960  138.0560 Cl  0  0  0  0  0  0  0  0  0  0  0  0
  190.1700  175.9530  137.2340 C   0  0  2  0  0  3  0  0  0  0  0  0
  190.4750  174.3040  135.5610 O   0  0  0  0  0  0  0  0  0  0  0  0
  188.3870  174.1230  136.6370 C   0  0  0  0  0  2  0  0  0  0  0  0
  187.7040  176.2040  137.7660 C   0  0  0  0  0  3  0  0  0  0  0  0
  2 18  1  0  0  0  0
  3  9  1  0  0  0  0
  5  1  1  0  0  0  0
  6 12  1  0  0  0  0
  7 15  1  0  0  0  0
  7 18  1  0  0  0  0
  8 11  1  0  0  0  0
  9 16  2  0  0  0  0
 10  3  1  0  0  0  0
 10 20  2  0  0  0  0
 11  1  2  0  0  0  0
 11 13  1  0  0  0  0
 12  8  1  0  0  0  0
 13  2  1  0  0  0  0
 13 23  1  1  0  0  0
 14 26  1  6  0  0  0
 14 17  1  0  0  0  0
 14 19  1  0  0  0  0
 15  4  2  0  0  0  0
 16 15  1  0  0  0  0
 19 10  1  0  0  0  0
 20  7  2  0  0  0  0
 21 14  1  0  0  0  0
 21  6  1  1  0  0  0
 21 17  1  0  0  0  0
 22  8  1  0  0  0  0
 22  5  2  0  0  0  0
 23 24  1  0  0  0  0
 26 25  1  1  0  0  0
 27 29  2  0  0  0  0
 28 26  1  0  0  0  0
 29 28  2  0  0  0  0
 30 28  1  6  0  0  0
 31 32  1  0  0  0  0
 32 38  2  0  0  0  0
 33 37  1  0  0  0  0
 33 35  1  0  0  0  0
 35 34  1  1  0  0  0
 35 30  1  0  0  0  0
 36 33  2  0  0  0  0
 37 32  1  0  0  0  0
 38 30  1  0  0  0  0
M  END
>  <MODEL>
6

>  <REMARK>
 VINA RESULT:      -8.1      3.185      6.952
  Name = 
  4 active torsions:
  status: ('A' for Active; 'I' for Inactive)
    1  A    between atoms: S_5  and  C_19
    2  A    between atoms: C_9  and  C_26
    3  A    between atoms: C_21  and  C_35
    4  A    between atoms: C_26  and  C_35
                            x       y       z     vdW  Elec       q    Type
                         _______ _______ _______ _____ _____    ______ ____

>  <TORSDO>
F 4

$$$$
=
 OpenBabel10232408063D

 38 42  0  0  1  0  0  0  0  0999 V2000
  183.8260  179.6160  138.3480 N   0  0  0  0  0  0  0  0  0  0  0  0
  186.5630  178.6570  137.6110 C   0  0  0  0  0  2  0  0  0  0  0  0
  190.8600  177.6190  140.3580 C   0  0  0  0  0  2  0  0  0  0  0  0
  189.8900  176.3480  136.1590 O   0  0  0  0  0  0  0  0  0  0  0  0
  182.9440  180.1460  139.2240 C   0  0  0  0  0  3  0  0  0  0  0  0
  185.8590  178.5340  142.0250 C   0  0  0  0  0  2  0  0  0  0  0  0
  188.7420  177.3610  137.9530 C   0  0  0  0  0  0  0  0  0  0  0  0
  184.1090  178.6600  140.3450 N   0  0  0  0  0  0  0  0  0  0  0  0
  191.4100  176.5050  139.4720 C   0  0  0  0  0  3  0  0  0  0  0  0
  189.3660  177.7300  140.3780 C   0  0  0  0  0  0  0  0  0  0  0  0
  184.5270  178.7210  139.0690 C   0  0  0  0  0  0  0  0  0  0  0  0
  184.6550  177.8400  141.4140 C   0  0  0  0  0  2  0  0  0  0  0  0
  185.6130  177.8540  138.5000 C   0  0  1  0  0  3  0  0  0  0  0  0
  188.1210  177.5580  142.5370 C   0  0  1  0  0  0  0  0  0  0  0  0
  189.8910  176.6260  137.3860 C   0  0  0  0  0  0  0  0  0  0  0  0
  191.0300  176.1320  138.2240 C   0  0  0  0  0  3  0  0  0  0  0  0
  187.2530  176.5820  142.0150 O   0  0  0  0  0  0  0  0  0  0  0  0
  187.6650  177.8310  137.1320 N   0  0  0  0  0  2  0  0  0  0  0  0
  188.6710  178.4940  141.4510 C   0  0  0  0  0  2  0  0  0  0  0  0
  188.8410  177.6370  139.2080 C   0  0  0  0  0  0  0  0  0  0  0  0
  186.6670  177.5500  142.8610 C   0  0  2  0  0  3  0  0  0  0  0  0
  183.1200  179.5580  140.4660 C   0  0  0  0  0  3  0  0  0  0  0  0
  184.9190  176.3810  137.6600 S   0  0  0  0  0  0  0  0  0  0  0  0
  184.5260  177.2220  136.0940 C   0  0  0  0  0  1  0  0  0  0  0  0
  190.1080  176.3030  142.9770 F   0  0  0  0  0  0  0  0  0  0  0  0
  189.0560  176.9650  143.5890 C   0  0  1  0  0  3  0  0  0  0  0  0
  191.5150  179.4850  143.8390 O   0  0  0  0  0  0  0  0  0  0  0  0
  189.5540  178.0170  144.5340 C   0  0  0  0  0  0  0  0  0  0  0  0
  190.5630  178.7720  144.1770 C   0  0  0  0  0  0  0  0  0  0  0  0
  188.9170  178.1760  145.8860 C   0  0  2  0  0  3  0  0  0  0  0  0
  185.3000  178.8910  146.6980 N   0  0  0  0  0  1  0  0  0  0  0  0
  186.6590  178.4920  146.8240 C   0  0  0  0  0  0  0  0  0  0  0  0
  188.2050  176.9470  147.9780 C   0  0  0  0  0  0  0  0  0  0  0  0
  190.8340  176.9250  147.3510 Cl  0  0  0  0  0  0  0  0  0  0  0  0
  189.1400  176.9500  146.7910 C   0  0  2  0  0  3  0  0  0  0  0  0
  188.2740  176.0510  148.8040 O   0  0  0  0  0  0  0  0  0  0  0  0
  187.1790  178.0330  148.1550 C   0  0  0  0  0  2  0  0  0  0  0  0
  187.4650  178.5500  145.7630 C   0  0  0  0  0  3  0  0  0  0  0  0
  1 11  2  0  0  0  0
  1  5  1  0  0  0  0
  2 13  1  0  0  0  0
  3 10  1  0  0  0  0
  4 15  2  0  0  0  0
  5 22  2  0  0  0  0
  7 20  2  0  0  0  0
  8 22  1  0  0  0  0
  8 12  1  0  0  0  0
  9  3  1  0  0  0  0
 10 19  1  0  0  0  0
 11  8  1  0  0  0  0
 12  6  1  0  0  0  0
 13 23  1  6  0  0  0
 13 11  1  0  0  0  0
 14 21  1  0  0  0  0
 14 26  1  1  0  0  0
 15  7  1  0  0  0  0
 15 16  1  0  0  0  0
 16  9  2  0  0  0  0
 17 14  1  0  0  0  0
 17 21  1  0  0  0  0
 18  2  1  0  0  0  0
 18  7  1  0  0  0  0
 19 14  1  0  0  0  0
 20 10  2  0  0  0  0
 21  6  1  6  0  0  0
 24 23  1  0  0  0  0
 26 25  1  6  0  0  0
 26 28  1  0  0  0  0
 27 29  2  0  0  0  0
 29 28  2  0  0  0  0
 30 28  1  6  0  0  0
 30 35  1  0  0  0  0
 31 32  1  0  0  0  0
 32 37  1  0  0  0  0
 33 37  1  0  0  0  0
 33 36  2  0  0  0  0
 35 34  1  1  0  0  0
 35 33  1  0  0  0  0
 38 30  1  0  0  0  0
 38 32  2  0  0  0  0
M  END
>  <MODEL>
7

>  <REMARK>
 VINA RESULT:      -8.0      2.865      5.208
  Name = 
  4 active torsions:
  status: ('A' for Active; 'I' for Inactive)
    1  A    between atoms: S_5  and  C_19
    2  A    between atoms: C_9  and  C_26
    3  A    between atoms: C_21  and  C_35
    4  A    between atoms: C_26  and  C_35
                            x       y       z     vdW  Elec       q    Type
                         _______ _______ _______ _____ _____    ______ ____

>  <TORSDO>
F 4

$$$$
=
 OpenBabel10232408063D

 38 42  0  0  1  0  0  0  0  0999 V2000
  181.8840  179.0790  141.8870 N   0  0  0  0  0  0  0  0  0  0  0  0
  184.2430  178.7300  140.0790 C   0  0  0  0  0  2  0  0  0  0  0  0
  185.5420  175.1540  136.5260 C   0  0  0  0  0  2  0  0  0  0  0  0
  187.2670  179.2680  137.0660 O   0  0  0  0  0  0  0  0  0  0  0  0
  180.7560  178.6250  142.4750 C   0  0  0  0  0  3  0  0  0  0  0  0
  180.8820  175.9760  139.0240 C   0  0  0  0  0  2  0  0  0  0  0  0
  185.4380  178.0500  137.9210 C   0  0  0  0  0  0  0  0  0  0  0  0
  180.6590  177.9810  140.3780 N   0  0  0  0  0  0  0  0  0  0  0  0
  186.3270  176.0680  135.5890 C   0  0  0  0  0  3  0  0  0  0  0  0
  184.4260  175.8220  137.2710 C   0  0  0  0  0  0  0  0  0  0  0  0
  181.7970  178.6580  140.6110 C   0  0  0  0  0  0  0  0  0  0  0  0
  180.2470  177.3500  139.1350 C   0  0  0  0  0  2  0  0  0  0  0  0
  182.8240  178.9580  139.5580 C   0  0  1  0  0  3  0  0  0  0  0  0
  182.0860  174.9750  137.0540 C   0  0  1  0  0  0  0  0  0  0  0  0
  186.5340  178.2510  136.9530 C   0  0  0  0  0  0  0  0  0  0  0  0
  186.7710  177.3330  135.7930 C   0  0  0  0  0  3  0  0  0  0  0  0
  181.5980  176.2590  136.7520 O   0  0  0  0  0  0  0  0  0  0  0  0
  185.2330  178.9370  139.0280 N   0  0  0  0  0  2  0  0  0  0  0  0
  183.3530  175.0200  137.9200 C   0  0  0  0  0  2  0  0  0  0  0  0
  184.7610  176.9660  137.7550 C   0  0  0  0  0  0  0  0  0  0  0  0
  180.7860  175.4640  137.5930 C   0  0  2  0  0  3  0  0  0  0  0  0
  179.9950  177.9380  141.5430 C   0  0  0  0  0  3  0  0  0  0  0  0
  182.5830  180.6280  138.8460 S   0  0  0  0  0  0  0  0  0  0  0  0
  181.4820  180.1020  137.4950 C   0  0  0  0  0  1  0  0  0  0  0  0
  182.9620  174.4260  134.8980 F   0  0  0  0  0  0  0  0  0  0  0  0
  182.0160  174.0530  135.8390 C   0  0  1  0  0  3  0  0  0  0  0  0
  180.7310  171.6620  138.0960 O   0  0  0  0  0  0  0  0  0  0  0  0
  182.1810  172.6150  136.2320 C   0  0  0  0  0  0  0  0  0  0  0  0
  181.4360  172.1250  137.1900 C   0  0  0  0  0  0  0  0  0  0  0  0
  183.2110  171.7620  135.5470 C   0  0  2  0  0  3  0  0  0  0  0  0
  186.9370  171.6630  136.1410 N   0  0  0  0  0  1  0  0  0  0  0  0
  185.6260  171.3030  135.7270 C   0  0  0  0  0  0  0  0  0  0  0  0
  184.0970  169.4060  135.3090 C   0  0  0  0  0  0  0  0  0  0  0  0
  181.5330  169.8530  134.5830 Cl  0  0  0  0  0  0  0  0  0  0  0  0
  182.8990  170.2590  135.6570 C   0  0  2  0  0  3  0  0  0  0  0  0
  184.0030  168.1890  135.3270 O   0  0  0  0  0  0  0  0  0  0  0  0
  185.4150  170.0370  134.9490 C   0  0  0  0  0  2  0  0  0  0  0  0
  184.6000  172.1030  136.0150 C   0  0  0  0  0  3  0  0  0  0  0  0
  1  5  1  0  0  0  0
  3 10  1  0  0  0  0
  6 12  1  0  0  0  0
  7 18  1  0  0  0  0
  8 11  1  0  0  0  0
  8 22  1  0  0  0  0
  9 16  2  0  0  0  0
  9  3  1  0  0  0  0
 10 20  2  0  0  0  0
 10 19  1  0  0  0  0
 11  1  2  0  0  0  0
 12  8  1  0  0  0  0
 13 23  1  1  0  0  0
 13  2  1  0  0  0  0
 13 11  1  0  0  0  0
 14 26  1  6  0  0  0
 14 21  1  0  0  0  0
 14 19  1  0  0  0  0
 15  4  2  0  0  0  0
 15  7  1  0  0  0  0
 16 15  1  0  0  0  0
 17 14  1  0  0  0  0
 17 21  1  0  0  0  0
 18  2  1  0  0  0  0
 20  7  2  0  0  0  0
 21  6  1  1  0  0  0
 22  5  2  0  0  0  0
 24 23  1  0  0  0  0
 26 25  1  6  0  0  0
 26 28  1  0  0  0  0
 28 29  2  0  0  0  0
 29 27  2  0  0  0  0
 30 35  1  0  0  0  0
 30 38  1  0  0  0  0
 30 28  1  1  0  0  0
 32 38  2  0  0  0  0
 32 31  1  0  0  0  0
 33 36  2  0  0  0  0
 33 35  1  0  0  0  0
 35 34  1  6  0  0  0
 37 33  1  0  0  0  0
 37 32  1  0  0  0  0
M  END
>  <MODEL>
8

>  <REMARK>
 VINA RESULT:      -7.7      6.734      9.796
  Name = 
  4 active torsions:
  status: ('A' for Active; 'I' for Inactive)
    1  A    between atoms: S_5  and  C_19
    2  A    between atoms: C_9  and  C_26
    3  A    between atoms: C_21  and  C_35
    4  A    between atoms: C_26  and  C_35
                            x       y       z     vdW  Elec       q    Type
                         _______ _______ _______ _____ _____    ______ ____

>  <TORSDO>
F 4

$$$$
=
 OpenBabel10232408063D

 38 42  0  0  1  0  0  0  0  0999 V2000
  190.2420  175.8760  137.6030 N   0  0  0  0  0  0  0  0  0  0  0  0
  188.7240  173.3750  136.9740 C   0  0  0  0  0  2  0  0  0  0  0  0
  183.6640  172.1560  136.9660 C   0  0  0  0  0  2  0  0  0  0  0  0
  187.0460  169.9310  135.0170 O   0  0  0  0  0  0  0  0  0  0  0  0
  190.3210  177.1280  138.1070 C   0  0  0  0  0  3  0  0  0  0  0  0
  186.0420  176.9340  137.3360 C   0  0  0  0  0  2  0  0  0  0  0  0
  186.7510  172.0170  136.0760 C   0  0  0  0  0  0  0  0  0  0  0  0
  188.4420  177.0380  136.9740 N   0  0  0  0  0  0  0  0  0  0  0  0
  183.6990  171.1280  135.8390 C   0  0  0  0  0  3  0  0  0  0  0  0
  184.6810  173.2500  136.8540 C   0  0  0  0  0  0  0  0  0  0  0  0
  189.0770  175.8540  136.9270 C   0  0  0  0  0  0  0  0  0  0  0  0
  187.1500  177.3690  136.3950 C   0  0  0  0  0  2  0  0  0  0  0  0
  188.5750  174.6630  136.1640 C   0  0  1  0  0  3  0  0  0  0  0  0
  183.9560  175.6400  136.7870 C   0  0  1  0  0  0  0  0  0  0  0  0
  186.2300  170.7840  135.4530 C   0  0  0  0  0  0  0  0  0  0  0  0
  184.7670  170.5330  135.2510 C   0  0  0  0  0  3  0  0  0  0  0  0
  184.7180  175.8890  135.6320 O   0  0  0  0  0  0  0  0  0  0  0  0
  188.1550  172.2340  136.2660 N   0  0  0  0  0  2  0  0  0  0  0  0
  184.5420  174.5070  137.6410 C   0  0  0  0  0  2  0  0  0  0  0  0
  185.8480  172.8180  136.5280 C   0  0  0  0  0  0  0  0  0  0  0  0
  184.7070  176.9130  136.6050 C   0  0  2  0  0  3  0  0  0  0  0  0
  189.2030  177.8500  137.7230 C   0  0  0  0  0  3  0  0  0  0  0  0
  189.3450  174.5590  134.5060 S   0  0  0  0  0  0  0  0  0  0  0  0
  190.8920  173.7770  135.0620 C   0  0  0  0  0  1  0  0  0  0  0  0
  182.1130  174.6540  135.6250 F   0  0  0  0  0  0  0  0  0  0  0  0
  182.4590  175.6830  136.4860 C   0  0  1  0  0  3  0  0  0  0  0  0
  180.3980  173.4920  138.3330 O   0  0  0  0  0  0  0  0  0  0  0  0
  181.6460  175.6330  137.7440 C   0  0  0  0  0  0  0  0  0  0  0  0
  181.0040  174.5320  138.0470 C   0  0  0  0  0  0  0  0  0  0  0  0
  181.5500  176.8450  138.6270 C   0  0  2  0  0  3  0  0  0  0  0  0
  183.8130  177.8510  141.4760 N   0  0  0  0  0  1  0  0  0  0  0  0
  182.8490  177.9080  140.4320 C   0  0  0  0  0  0  0  0  0  0  0  0
  181.8360  179.3570  138.7050 C   0  0  0  0  0  0  0  0  0  0  0  0
  179.9840  178.3640  137.0050 Cl  0  0  0  0  0  0  0  0  0  0  0  0
  181.5560  178.1600  137.8250 C   0  0  2  0  0  3  0  0  0  0  0  0
  181.8510  180.4770  138.2200 O   0  0  0  0  0  0  0  0  0  0  0  0
  182.1070  179.1870  140.1750 C   0  0  0  0  0  2  0  0  0  0  0  0
  182.5980  176.8180  139.7060 C   0  0  0  0  0  3  0  0  0  0  0  0
  1  5  1  0  0  0  0
  4 15  2  0  0  0  0
  7 18  1  0  0  0  0
  7 20  2  0  0  0  0
  8 22  1  0  0  0  0
  9  3  1  0  0  0  0
 10  3  1  0  0  0  0
 10 19  1  0  0  0  0
 11  8  1  0  0  0  0
 11  1  2  0  0  0  0
 12  8  1  0  0  0  0
 12  6  1  0  0  0  0
 13 23  1  6  0  0  0
 13 11  1  0  0  0  0
 13  2  1  0  0  0  0
 14 26  1  6  0  0  0
 14 19  1  0  0  0  0
 15  7  1  0  0  0  0
 16 15  1  0  0  0  0
 16  9  2  0  0  0  0
 17 21  1  0  0  0  0
 17 14  1  0  0  0  0
 18  2  1  0  0  0  0
 20 10  2  0  0  0  0
 21 14  1  0  0  0  0
 21  6  1  1  0  0  0
 22  5  2  0  0  0  0
 23 24  1  0  0  0  0
 26 25  1  6  0  0  0
 26 28  1  0  0  0  0
 28 29  2  0  0  0  0
 29 27  2  0  0  0  0
 30 28  1  6  0  0  0
 30 38  1  0  0  0  0
 32 31  1  0  0  0  0
 33 37  1  0  0  0  0
 35 34  1  1  0  0  0
 35 30  1  0  0  0  0
 35 33  1  0  0  0  0
 36 33  2  0  0  0  0
 37 32  1  0  0  0  0
 38 32  2  0  0  0  0
M  END
>  <MODEL>
9

>  <REMARK>
 VINA RESULT:      -7.7      6.281      9.777
  Name = 
  4 active torsions:
  status: ('A' for Active; 'I' for Inactive)
    1  A    between atoms: S_5  and  C_19
    2  A    between atoms: C_9  and  C_26
    3  A    between atoms: C_21  and  C_35
    4  A    between atoms: C_26  and  C_35
                            x       y       z     vdW  Elec       q    Type
                         _______ _______ _______ _____ _____    ______ ____

>  <TORSDO>
F 4

$$$$
