=
 OpenBabel10232408393D

 28 31  0  0  1  0  0  0  0  0999 V2000
  185.5560  178.4960  143.1460 C   0  0  0  0  0  0  0  0  0  0  0  0
  183.2840  179.0150  143.8600 C   0  0  0  0  0  3  0  0  0  0  0  0
  184.1520  178.8330  142.8610 C   0  0  0  0  0  3  0  0  0  0  0  0
  185.9860  178.3640  144.5580 C   0  0  0  0  0  0  0  0  0  0  0  0
  187.2280  178.0670  144.8350 N   0  0  0  0  0  0  0  0  0  0  0  0
  183.6990  178.8860  145.2720 C   0  0  0  0  0  3  0  0  0  0  0  0
  186.3910  178.3190  142.1560 C   0  0  0  0  0  0  0  0  0  0  0  0
  184.9600  178.5830  145.6020 C   0  0  0  0  0  3  0  0  0  0  0  0
  187.2380  178.1400  141.1780 C   0  0  0  0  0  3  0  0  0  0  0  0
  189.2220  177.5590  146.1330 C   0  0  0  0  0  3  0  0  0  0  0  0
  187.8700  177.8470  148.5320 C   0  0  0  0  0  3  0  0  0  0  0  0
  187.1840  178.0300  147.3300 C   0  0  0  0  0  3  0  0  0  0  0  0
  187.8640  177.8880  146.1120 C   0  0  0  0  0  0  0  0  0  0  0  0
  189.8760  177.3660  147.3540 C   0  0  0  0  0  0  0  0  0  0  0  0
  189.1900  177.5270  148.5200 N   0  0  0  0  0  0  0  0  0  0  0  0
  191.7520  176.3750  146.0850 C   0  0  0  0  0  2  0  0  0  0  0  0
  191.5620  175.5520  147.3380 C   0  0  0  0  0  2  0  0  0  0  0  0
  191.3400  177.0540  147.3790 C   0  0  0  0  0  3  0  0  0  0  0  0
  188.6720  177.7800  141.4370 C   0  0  0  0  0  0  0  0  0  0  0  0
  189.2590  178.7450  142.2610 O   0  0  0  0  0  1  0  0  0  0  0  0
  188.7160  176.5390  142.0820 O   0  0  0  0  0  1  0  0  0  0  0  0
  188.4880  177.4240  138.9180 C   0  0  0  0  0  2  0  0  0  0  0  0
  189.4370  177.6940  140.1090 C   0  0  2  0  0  3  0  0  0  0  0  0
  189.0950  176.5670  137.7960 C   0  0  0  0  0  2  0  0  0  0  0  0
  192.5480  176.6860  138.7570 O   0  0  0  0  0  0  0  0  0  0  0  0
  191.2930  176.7130  138.8440 C   0  0  0  0  0  0  0  0  0  0  0  0
  190.6250  176.7240  140.1760 C   0  0  0  0  0  2  0  0  0  0  0  0
  190.5050  176.7490  137.6960 O   0  0  0  0  0  0  0  0  0  0  0  0
  1  4  1  0  0  0  0
  2  6  1  0  0  0  0
  3  1  1  0  0  0  0
  3  2  2  0  0  0  0
  4  5  2  0  0  0  0
  4  8  1  0  0  0  0
  5 13  1  0  0  0  0
  6  8  2  0  0  0  0
  7  1  2  0  0  0  0
  9 19  1  0  0  0  0
  9  7  2  0  0  0  0
 10 14  1  0  0  0  0
 12 11  2  0  0  0  0
 13 10  2  0  0  0  0
 13 12  1  0  0  0  0
 14 18  1  0  0  0  0
 14 15  2  0  0  0  0
 15 11  1  0  0  0  0
 16 17  1  0  0  0  0
 16 18  1  0  0  0  0
 17 18  1  0  0  0  0
 19 21  1  0  0  0  0
 19 20  1  0  0  0  0
 22 23  1  0  0  0  0
 23 27  1  0  0  0  0
 23 19  1  1  0  0  0
 24 22  1  0  0  0  0
 25 26  2  0  0  0  0
 26 27  1  0  0  0  0
 28 24  1  0  0  0  0
 28 26  1  0  0  0  0
M  END
>  <MODEL>
1

>  <REMARK>
 VINA RESULT:      -9.9      0.000      0.000
  Name = 
  4 active torsions:
  status: ('A' for Active; 'I' for Inactive)
    1  A    between atoms: C_8  and  C_11
    2  A    between atoms: C_8  and  C_28
    3  A    between atoms: C_13  and  N_16
    4  A    between atoms: C_21  and  C_22
                            x       y       z     vdW  Elec       q    Type
                         _______ _______ _______ _____ _____    ______ ____

>  <TORSDO>
F 4

$$$$
=
 OpenBabel10232408393D

 28 31  0  0  1  0  0  0  0  0999 V2000
  190.3620  177.0120  144.6050 C   0  0  0  0  0  0  0  0  0  0  0  0
  191.5800  176.5170  146.6590 C   0  0  0  0  0  3  0  0  0  0  0  0
  191.5770  176.5950  145.3240 C   0  0  0  0  0  3  0  0  0  0  0  0
  189.1470  177.3420  145.3880 C   0  0  0  0  0  0  0  0  0  0  0  0
  188.0570  177.7120  144.7700 N   0  0  0  0  0  0  0  0  0  0  0  0
  190.3750  176.8430  147.4500 C   0  0  0  0  0  3  0  0  0  0  0  0
  190.3780  177.0840  143.3010 C   0  0  0  0  0  0  0  0  0  0  0  0
  189.2380  177.2270  146.8600 C   0  0  0  0  0  3  0  0  0  0  0  0
  190.3770  177.1620  141.9970 C   0  0  0  0  0  3  0  0  0  0  0  0
  185.8380  178.6600  144.4570 C   0  0  0  0  0  3  0  0  0  0  0  0
  185.1640  178.2470  147.1100 C   0  0  0  0  0  3  0  0  0  0  0  0
  186.4290  177.8720  146.6560 C   0  0  0  0  0  3  0  0  0  0  0  0
  186.7760  178.0770  145.3130 C   0  0  0  0  0  0  0  0  0  0  0  0
  184.5840  179.0400  144.9470 C   0  0  0  0  0  0  0  0  0  0  0  0
  184.2730  178.8120  146.2540 N   0  0  0  0  0  0  0  0  0  0  0  0
  182.2740  178.8280  144.0920 C   0  0  0  0  0  2  0  0  0  0  0  0
  183.2130  178.6360  142.9260 C   0  0  0  0  0  2  0  0  0  0  0  0
  183.5640  179.6260  144.0220 C   0  0  0  0  0  3  0  0  0  0  0  0
  189.1580  177.5990  141.2370 C   0  0  0  0  0  0  0  0  0  0  0  0
  188.0300  176.9430  141.7380 O   0  0  0  0  0  1  0  0  0  0  0  0
  188.9970  178.9780  141.3990 O   0  0  0  0  0  1  0  0  0  0  0  0
  190.6200  176.4650  139.4790 C   0  0  0  0  0  2  0  0  0  0  0  0
  189.3290  177.2750  139.7460 C   0  0  2  0  0  3  0  0  0  0  0  0
  191.2960  176.7630  138.1320 C   0  0  0  0  0  2  0  0  0  0  0  0
  188.6550  178.5800  136.5260 O   0  0  0  0  0  0  0  0  0  0  0  0
  189.3760  178.0970  137.4370 C   0  0  0  0  0  0  0  0  0  0  0  0
  189.1920  178.5180  138.8550 C   0  0  0  0  0  2  0  0  0  0  0  0
  190.3500  177.1460  137.1390 O   0  0  0  0  0  0  0  0  0  0  0  0
  1  3  1  0  0  0  0
  1  4  1  0  0  0  0
  2  6  1  0  0  0  0
  3  2  2  0  0  0  0
  4  8  1  0  0  0  0
  5 13  1  0  0  0  0
  5  4  2  0  0  0  0
  7  1  2  0  0  0  0
  8  6  2  0  0  0  0
  9  7  2  0  0  0  0
 10 14  2  0  0  0  0
 10 13  1  0  0  0  0
 12 11  1  0  0  0  0
 13 12  2  0  0  0  0
 14 15  1  0  0  0  0
 15 11  2  0  0  0  0
 17 18  1  0  0  0  0
 17 16  1  0  0  0  0
 18 16  1  0  0  0  0
 18 14  1  0  0  0  0
 19 21  1  0  0  0  0
 19 20  1  0  0  0  0
 19  9  1  0  0  0  0
 22 23  1  0  0  0  0
 23 19  1  1  0  0  0
 24 22  1  0  0  0  0
 25 26  2  0  0  0  0
 26 27  1  0  0  0  0
 27 23  1  0  0  0  0
 28 26  1  0  0  0  0
 28 24  1  0  0  0  0
M  END
>  <MODEL>
2

>  <REMARK>
 VINA RESULT:      -9.7      1.440      5.101
  Name = 
  4 active torsions:
  status: ('A' for Active; 'I' for Inactive)
    1  A    between atoms: C_8  and  C_11
    2  A    between atoms: C_8  and  C_28
    3  A    between atoms: C_13  and  N_16
    4  A    between atoms: C_21  and  C_22
                            x       y       z     vdW  Elec       q    Type
                         _______ _______ _______ _____ _____    ______ ____

>  <TORSDO>
F 4

$$$$
=
 OpenBabel10232408393D

 28 31  0  0  1  0  0  0  0  0999 V2000
  186.6020  178.2150  146.0040 C   0  0  0  0  0  0  0  0  0  0  0  0
  187.8570  177.8350  148.0600 C   0  0  0  0  0  3  0  0  0  0  0  0
  186.7230  178.2280  147.4710 C   0  0  0  0  0  3  0  0  0  0  0  0
  187.7590  177.7600  145.1960 C   0  0  0  0  0  0  0  0  0  0  0  0
  187.6750  177.7410  143.8930 N   0  0  0  0  0  0  0  0  0  0  0  0
  189.0170  177.3790  147.2660 C   0  0  0  0  0  3  0  0  0  0  0  0
  185.4860  178.6000  145.4460 C   0  0  0  0  0  0  0  0  0  0  0  0
  188.9750  177.3430  145.9300 C   0  0  0  0  0  3  0  0  0  0  0  0
  184.3770  178.9820  144.8710 C   0  0  0  0  0  3  0  0  0  0  0  0
  188.5300  177.8410  141.6170 C   0  0  0  0  0  3  0  0  0  0  0  0
  190.6380  176.1490  142.2160 C   0  0  0  0  0  3  0  0  0  0  0  0
  189.7230  176.4860  143.2140 C   0  0  0  0  0  3  0  0  0  0  0  0
  188.6540  177.3440  142.9180 C   0  0  0  0  0  0  0  0  0  0  0  0
  189.4550  177.4700  140.6350 C   0  0  0  0  0  0  0  0  0  0  0  0
  190.4910  176.6470  140.9610 N   0  0  0  0  0  0  0  0  0  0  0  0
  187.8930  178.0710  138.8160 C   0  0  0  0  0  2  0  0  0  0  0  0
  188.8060  176.9860  138.2960 C   0  0  0  0  0  2  0  0  0  0  0  0
  189.3470  178.0330  139.2530 C   0  0  0  0  0  3  0  0  0  0  0  0
  184.2180  178.9650  143.3790 C   0  0  0  0  0  0  0  0  0  0  0  0
  185.0420  179.9390  142.8060 O   0  0  0  0  0  1  0  0  0  0  0  0
  184.5950  177.7060  142.9000 O   0  0  0  0  0  1  0  0  0  0  0  0
  181.7910  178.8670  144.1580 C   0  0  0  0  0  2  0  0  0  0  0  0
  182.7540  179.2370  143.0060 C   0  0  2  0  0  3  0  0  0  0  0  0
  180.4230  178.3350  143.7050 C   0  0  0  0  0  2  0  0  0  0  0  0
  180.5480  179.2420  140.2380 O   0  0  0  0  0  0  0  0  0  0  0  0
  180.9320  178.9290  141.3950 C   0  0  0  0  0  0  0  0  0  0  0  0
  182.3640  178.6110  141.6590 C   0  0  0  0  0  2  0  0  0  0  0  0
  180.0280  178.8900  142.4540 O   0  0  0  0  0  0  0  0  0  0  0  0
  1  3  1  0  0  0  0
  3  2  2  0  0  0  0
  4  8  1  0  0  0  0
  4  1  1  0  0  0  0
  5  4  2  0  0  0  0
  6  2  1  0  0  0  0
  7  1  2  0  0  0  0
  8  6  2  0  0  0  0
  9  7  2  0  0  0  0
 10 13  1  0  0  0  0
 11 12  1  0  0  0  0
 13 12  2  0  0  0  0
 13  5  1  0  0  0  0
 14 15  1  0  0  0  0
 14 10  2  0  0  0  0
 15 11  2  0  0  0  0
 16 18  1  0  0  0  0
 17 16  1  0  0  0  0
 17 18  1  0  0  0  0
 18 14  1  0  0  0  0
 19  9  1  0  0  0  0
 20 19  1  0  0  0  0
 21 19  1  0  0  0  0
 23 19  1  1  0  0  0
 23 22  1  0  0  0  0
 24 22  1  0  0  0  0
 25 26  2  0  0  0  0
 26 27  1  0  0  0  0
 26 28  1  0  0  0  0
 27 23  1  0  0  0  0
 28 24  1  0  0  0  0
M  END
>  <MODEL>
3

>  <REMARK>
 VINA RESULT:      -9.4      3.133      7.082
  Name = 
  4 active torsions:
  status: ('A' for Active; 'I' for Inactive)
    1  A    between atoms: C_8  and  C_11
    2  A    between atoms: C_8  and  C_28
    3  A    between atoms: C_13  and  N_16
    4  A    between atoms: C_21  and  C_22
                            x       y       z     vdW  Elec       q    Type
                         _______ _______ _______ _____ _____    ______ ____

>  <TORSDO>
F 4

$$$$
=
 OpenBabel10232408393D

 28 31  0  0  1  0  0  0  0  0999 V2000
  186.3840  178.2530  145.2530 C   0  0  0  0  0  0  0  0  0  0  0  0
  184.1050  178.7150  145.9860 C   0  0  0  0  0  3  0  0  0  0  0  0
  185.3670  178.4120  146.3050 C   0  0  0  0  0  3  0  0  0  0  0  0
  185.9820  178.4350  143.8370 C   0  0  0  0  0  0  0  0  0  0  0  0
  186.8670  178.2970  142.8870 N   0  0  0  0  0  0  0  0  0  0  0  0
  183.6910  178.8990  144.5790 C   0  0  0  0  0  3  0  0  0  0  0  0
  187.6130  177.9590  145.5820 C   0  0  0  0  0  0  0  0  0  0  0  0
  184.5640  178.7680  143.5740 C   0  0  0  0  0  3  0  0  0  0  0  0
  188.8470  177.6640  145.8960 C   0  0  0  0  0  3  0  0  0  0  0  0
  187.8430  178.2850  140.6580 C   0  0  0  0  0  3  0  0  0  0  0  0
  185.3970  178.7880  139.4620 C   0  0  0  0  0  3  0  0  0  0  0  0
  185.4740  178.6820  140.8520 C   0  0  0  0  0  3  0  0  0  0  0  0
  186.7090  178.4260  141.4630 C   0  0  0  0  0  0  0  0  0  0  0  0
  187.7350  178.4130  139.2690 C   0  0  0  0  0  0  0  0  0  0  0  0
  186.5170  178.6470  138.7060 N   0  0  0  0  0  0  0  0  0  0  0  0
  188.5180  177.9790  136.9650 C   0  0  0  0  0  2  0  0  0  0  0  0
  188.9580  176.8180  137.8240 C   0  0  0  0  0  2  0  0  0  0  0  0
  188.9410  178.2220  138.4030 C   0  0  0  0  0  3  0  0  0  0  0  0
  189.9090  177.5120  144.8460 C   0  0  0  0  0  0  0  0  0  0  0  0
  189.4370  176.6970  143.8130 O   0  0  0  0  0  1  0  0  0  0  0  0
  190.2180  178.7740  144.3300 O   0  0  0  0  0  1  0  0  0  0  0  0
  191.7030  175.7120  144.6150 C   0  0  0  0  0  2  0  0  0  0  0  0
  191.1690  176.8900  145.4650 C   0  0  2  0  0  3  0  0  0  0  0  0
  192.3570  174.5820  145.4240 C   0  0  0  0  0  2  0  0  0  0  0  0
  192.6950  176.2330  148.5900 O   0  0  0  0  0  0  0  0  0  0  0  0
  192.2560  175.9420  147.4470 C   0  0  0  0  0  0  0  0  0  0  0  0
  190.9840  176.5380  146.9480 C   0  0  0  0  0  2  0  0  0  0  0  0
  192.9590  175.0690  146.6200 O   0  0  0  0  0  0  0  0  0  0  0  0
  1  7  2  0  0  0  0
  1  3  1  0  0  0  0
  2  3  2  0  0  0  0
  4  1  1  0  0  0  0
  5  4  2  0  0  0  0
  6  2  1  0  0  0  0
  7  9  2  0  0  0  0
  8  4  1  0  0  0  0
  8  6  2  0  0  0  0
 10 13  1  0  0  0  0
 11 12  1  0  0  0  0
 12 13  2  0  0  0  0
 13  5  1  0  0  0  0
 14 10  2  0  0  0  0
 15 14  1  0  0  0  0
 15 11  2  0  0  0  0
 16 17  1  0  0  0  0
 16 18  1  0  0  0  0
 17 18  1  0  0  0  0
 18 14  1  0  0  0  0
 19  9  1  0  0  0  0
 20 19  1  0  0  0  0
 21 19  1  0  0  0  0
 22 24  1  0  0  0  0
 22 23  1  0  0  0  0
 23 19  1  6  0  0  0
 23 27  1  0  0  0  0
 24 28  1  0  0  0  0
 26 25  2  0  0  0  0
 27 26  1  0  0  0  0
 28 26  1  0  0  0  0
M  END
>  <MODEL>
4

>  <REMARK>
 VINA RESULT:      -9.4      2.548      6.575
  Name = 
  4 active torsions:
  status: ('A' for Active; 'I' for Inactive)
    1  A    between atoms: C_8  and  C_11
    2  A    between atoms: C_8  and  C_28
    3  A    between atoms: C_13  and  N_16
    4  A    between atoms: C_21  and  C_22
                            x       y       z     vdW  Elec       q    Type
                         _______ _______ _______ _____ _____    ______ ____

>  <TORSDO>
F 4

$$$$
=
 OpenBabel10232408393D

 28 31  0  0  1  0  0  0  0  0999 V2000
  188.8180  177.6630  145.8450 C   0  0  0  0  0  0  0  0  0  0  0  0
  188.7740  177.9640  148.2640 C   0  0  0  0  0  3  0  0  0  0  0  0
  189.4670  177.6460  147.1660 C   0  0  0  0  0  3  0  0  0  0  0  0
  187.3860  178.0380  145.7580 C   0  0  0  0  0  0  0  0  0  0  0  0
  186.7890  178.0580  144.5960 N   0  0  0  0  0  0  0  0  0  0  0  0
  187.3470  178.3400  148.1910 C   0  0  0  0  0  3  0  0  0  0  0  0
  189.5100  177.3500  144.7820 C   0  0  0  0  0  0  0  0  0  0  0  0
  186.6960  178.3750  147.0230 C   0  0  0  0  0  3  0  0  0  0  0  0
  190.1880  177.0410  143.7100 C   0  0  0  0  0  3  0  0  0  0  0  0
  185.0640  178.4410  142.9240 C   0  0  0  0  0  3  0  0  0  0  0  0
  183.1490  178.9590  144.8550 C   0  0  0  0  0  3  0  0  0  0  0  0
  184.4530  178.6520  145.2460 C   0  0  0  0  0  3  0  0  0  0  0  0
  185.4270  178.3870  144.2720 C   0  0  0  0  0  0  0  0  0  0  0  0
  183.7510  178.7690  142.5650 C   0  0  0  0  0  0  0  0  0  0  0  0
  182.8260  179.0050  143.5370 N   0  0  0  0  0  0  0  0  0  0  0  0
  181.8770  178.4500  140.9850 C   0  0  0  0  0  2  0  0  0  0  0  0
  182.9190  177.4010  140.6770 C   0  0  0  0  0  2  0  0  0  0  0  0
  183.3510  178.7870  141.1230 C   0  0  0  0  0  3  0  0  0  0  0  0
  189.5580  177.0640  142.3480 C   0  0  0  0  0  0  0  0  0  0  0  0
  188.4830  176.1710  142.3100 O   0  0  0  0  0  1  0  0  0  0  0  0
  189.0890  178.3570  142.0900 O   0  0  0  0  0  1  0  0  0  0  0  0
  191.9820  177.2910  141.5850 C   0  0  0  0  0  2  0  0  0  0  0  0
  190.5950  176.6750  141.2850 C   0  0  2  0  0  3  0  0  0  0  0  0
  192.8010  177.6640  140.3400 C   0  0  0  0  0  2  0  0  0  0  0  0
  190.8980  175.9440  137.8360 O   0  0  0  0  0  0  0  0  0  0  0  0
  191.1790  176.5380  138.9090 C   0  0  0  0  0  0  0  0  0  0  0  0
  190.1030  176.9450  139.8560 C   0  0  0  0  0  2  0  0  0  0  0  0
  192.5050  176.8120  139.2380 O   0  0  0  0  0  0  0  0  0  0  0  0
  1  3  1  0  0  0  0
  3  2  2  0  0  0  0
  4  1  1  0  0  0  0
  4  8  1  0  0  0  0
  5  4  2  0  0  0  0
  6  2  1  0  0  0  0
  7  1  2  0  0  0  0
  8  6  2  0  0  0  0
  9  7  2  0  0  0  0
 10 13  1  0  0  0  0
 11 12  1  0  0  0  0
 13  5  1  0  0  0  0
 13 12  2  0  0  0  0
 14 10  2  0  0  0  0
 14 15  1  0  0  0  0
 15 11  2  0  0  0  0
 16 18  1  0  0  0  0
 17 16  1  0  0  0  0
 17 18  1  0  0  0  0
 18 14  1  0  0  0  0
 19  9  1  0  0  0  0
 20 19  1  0  0  0  0
 21 19  1  0  0  0  0
 23 22  1  0  0  0  0
 23 19  1  1  0  0  0
 24 22  1  0  0  0  0
 25 26  2  0  0  0  0
 26 28  1  0  0  0  0
 26 27  1  0  0  0  0
 27 23  1  0  0  0  0
 28 24  1  0  0  0  0
M  END
>  <MODEL>
5

>  <REMARK>
 VINA RESULT:      -9.3      1.600      5.425
  Name = 
  4 active torsions:
  status: ('A' for Active; 'I' for Inactive)
    1  A    between atoms: C_8  and  C_11
    2  A    between atoms: C_8  and  C_28
    3  A    between atoms: C_13  and  N_16
    4  A    between atoms: C_21  and  C_22
                            x       y       z     vdW  Elec       q    Type
                         _______ _______ _______ _____ _____    ______ ____

>  <TORSDO>
F 4

$$$$
=
 OpenBabel10232408393D

 28 31  0  0  1  0  0  0  0  0999 V2000
  186.2780  178.2530  145.2340 C   0  0  0  0  0  0  0  0  0  0  0  0
  184.0040  178.7350  145.9700 C   0  0  0  0  0  3  0  0  0  0  0  0
  185.2640  178.4190  146.2880 C   0  0  0  0  0  3  0  0  0  0  0  0
  185.8760  178.4430  143.8200 C   0  0  0  0  0  0  0  0  0  0  0  0
  186.7600  178.2990  142.8680 N   0  0  0  0  0  0  0  0  0  0  0  0
  183.5910  178.9270  144.5650 C   0  0  0  0  0  3  0  0  0  0  0  0
  187.5050  177.9460  145.5620 C   0  0  0  0  0  0  0  0  0  0  0  0
  184.4620  178.7900  143.5590 C   0  0  0  0  0  3  0  0  0  0  0  0
  188.7360  177.6390  145.8740 C   0  0  0  0  0  3  0  0  0  0  0  0
  185.3440  178.7890  140.9520 C   0  0  0  0  0  3  0  0  0  0  0  0
  187.4220  178.3780  139.1690 C   0  0  0  0  0  3  0  0  0  0  0  0
  187.6500  178.2240  140.5370 C   0  0  0  0  0  3  0  0  0  0  0  0
  186.6020  178.4330  141.4450 C   0  0  0  0  0  0  0  0  0  0  0  0
  185.1450  178.9200  139.5730 C   0  0  0  0  0  0  0  0  0  0  0  0
  186.1880  178.7250  138.7190 N   0  0  0  0  0  0  0  0  0  0  0  0
  182.7010  178.7770  139.9170 C   0  0  0  0  0  2  0  0  0  0  0  0
  183.0150  178.1300  138.5890 C   0  0  0  0  0  2  0  0  0  0  0  0
  183.8090  179.3410  139.0450 C   0  0  0  0  0  3  0  0  0  0  0  0
  189.7950  177.4780  144.8230 C   0  0  0  0  0  0  0  0  0  0  0  0
  189.3410  176.6130  143.8240 O   0  0  0  0  0  1  0  0  0  0  0  0
  190.0640  178.7300  144.2590 O   0  0  0  0  0  1  0  0  0  0  0  0
  191.6610  175.7490  144.6260 C   0  0  0  0  0  2  0  0  0  0  0  0
  191.0770  176.9170  145.4550 C   0  0  2  0  0  3  0  0  0  0  0  0
  192.3560  174.6580  145.4540 C   0  0  0  0  0  2  0  0  0  0  0  0
  192.6160  176.3700  148.5950 O   0  0  0  0  0  0  0  0  0  0  0  0
  192.1930  176.0440  147.4550 C   0  0  0  0  0  0  0  0  0  0  0  0
  190.9010  176.5810  146.9430 C   0  0  0  0  0  2  0  0  0  0  0  0
  192.9340  175.1870  146.6450 O   0  0  0  0  0  0  0  0  0  0  0  0
  1  7  2  0  0  0  0
  1  3  1  0  0  0  0
  2  3  2  0  0  0  0
  4  1  1  0  0  0  0
  5  4  2  0  0  0  0
  6  2  1  0  0  0  0
  7  9  2  0  0  0  0
  8  4  1  0  0  0  0
  8  6  2  0  0  0  0
 10 13  1  0  0  0  0
 11 12  1  0  0  0  0
 12 13  2  0  0  0  0
 13  5  1  0  0  0  0
 14 10  2  0  0  0  0
 15 11  2  0  0  0  0
 15 14  1  0  0  0  0
 17 18  1  0  0  0  0
 17 16  1  0  0  0  0
 18 14  1  0  0  0  0
 18 16  1  0  0  0  0
 19  9  1  0  0  0  0
 20 19  1  0  0  0  0
 21 19  1  0  0  0  0
 22 24  1  0  0  0  0
 22 23  1  0  0  0  0
 23 19  1  6  0  0  0
 23 27  1  0  0  0  0
 24 28  1  0  0  0  0
 26 25  2  0  0  0  0
 27 26  1  0  0  0  0
 28 26  1  0  0  0  0
M  END
>  <MODEL>
6

>  <REMARK>
 VINA RESULT:      -9.3      2.821      6.983
  Name = 
  4 active torsions:
  status: ('A' for Active; 'I' for Inactive)
    1  A    between atoms: C_8  and  C_11
    2  A    between atoms: C_8  and  C_28
    3  A    between atoms: C_13  and  N_16
    4  A    between atoms: C_21  and  C_22
                            x       y       z     vdW  Elec       q    Type
                         _______ _______ _______ _____ _____    ______ ____

>  <TORSDO>
F 4

$$$$
=
 OpenBabel10232408393D

 28 31  0  0  1  0  0  0  0  0999 V2000
  188.4700  178.0410  140.6550 C   0  0  0  0  0  0  0  0  0  0  0  0
  190.2780  177.6620  139.0640 C   0  0  0  0  0  3  0  0  0  0  0  0
  189.0080  178.0150  139.2850 C   0  0  0  0  0  3  0  0  0  0  0  0
  189.3610  177.6680  141.7800 C   0  0  0  0  0  0  0  0  0  0  0  0
  188.9040  177.6820  143.0030 N   0  0  0  0  0  0  0  0  0  0  0  0
  191.1760  177.2880  140.1760 C   0  0  0  0  0  3  0  0  0  0  0  0
  187.2270  178.3910  140.8530 C   0  0  0  0  0  0  0  0  0  0  0  0
  190.7520  177.2890  141.4440 C   0  0  0  0  0  3  0  0  0  0  0  0
  185.9860  178.7380  141.0680 C   0  0  0  0  0  3  0  0  0  0  0  0
  188.8290  177.3790  145.4160 C   0  0  0  0  0  3  0  0  0  0  0  0
  191.5200  176.7380  145.5320 C   0  0  0  0  0  3  0  0  0  0  0  0
  190.9380  177.0410  144.3000 C   0  0  0  0  0  3  0  0  0  0  0  0
  189.5760  177.3640  144.2350 C   0  0  0  0  0  0  0  0  0  0  0  0
  189.4460  177.0860  146.6370 C   0  0  0  0  0  0  0  0  0  0  0  0
  190.7690  176.7610  146.6640 N   0  0  0  0  0  0  0  0  0  0  0  0
  187.4810  178.0380  147.7970 C   0  0  0  0  0  2  0  0  0  0  0  0
  188.7080  178.4080  148.5970 C   0  0  0  0  0  2  0  0  0  0  0  0
  188.6390  177.0610  147.8980 C   0  0  0  0  0  3  0  0  0  0  0  0
  185.4140  178.7890  142.4550 C   0  0  0  0  0  0  0  0  0  0  0  0
  186.1080  177.9030  143.2850 O   0  0  0  0  0  1  0  0  0  0  0  0
  185.5530  180.0890  142.9530 O   0  0  0  0  0  1  0  0  0  0  0  0
  183.3810  178.3600  140.9730 C   0  0  0  0  0  2  0  0  0  0  0  0
  183.9260  178.4110  142.4200 C   0  0  2  0  0  3  0  0  0  0  0  0
  181.9140  178.7880  140.8240 C   0  0  0  0  0  2  0  0  0  0  0  0
  180.9300  178.7540  144.2730 O   0  0  0  0  0  0  0  0  0  0  0  0
  181.6590  178.8350  143.2500 C   0  0  0  0  0  0  0  0  0  0  0  0
  183.0770  179.2790  143.3620 C   0  0  0  0  0  2  0  0  0  0  0  0
  181.1570  178.4960  141.9960 O   0  0  0  0  0  0  0  0  0  0  0  0
  1  7  2  0  0  0  0
  1  4  1  0  0  0  0
  2  3  2  0  0  0  0
  2  6  1  0  0  0  0
  3  1  1  0  0  0  0
  4  5  2  0  0  0  0
  5 13  1  0  0  0  0
  6  8  2  0  0  0  0
  7  9  2  0  0  0  0
  8  4  1  0  0  0  0
  9 19  1  0  0  0  0
 10 14  1  0  0  0  0
 11 15  1  0  0  0  0
 12 11  2  0  0  0  0
 13 12  1  0  0  0  0
 13 10  2  0  0  0  0
 14 15  2  0  0  0  0
 14 18  1  0  0  0  0
 16 18  1  0  0  0  0
 16 17  1  0  0  0  0
 18 17  1  0  0  0  0
 19 21  1  0  0  0  0
 19 20  1  0  0  0  0
 22 23  1  0  0  0  0
 23 19  1  6  0  0  0
 23 27  1  0  0  0  0
 24 22  1  0  0  0  0
 24 28  1  0  0  0  0
 26 27  1  0  0  0  0
 26 25  2  0  0  0  0
 28 26  1  0  0  0  0
M  END
>  <MODEL>
7

>  <REMARK>
 VINA RESULT:      -9.1      2.733      6.137
  Name = 
  4 active torsions:
  status: ('A' for Active; 'I' for Inactive)
    1  A    between atoms: C_8  and  C_11
    2  A    between atoms: C_8  and  C_28
    3  A    between atoms: C_13  and  N_16
    4  A    between atoms: C_21  and  C_22
                            x       y       z     vdW  Elec       q    Type
                         _______ _______ _______ _____ _____    ______ ____

>  <TORSDO>
F 4

$$$$
=
 OpenBabel10232408393D

 28 31  0  0  1  0  0  0  0  0999 V2000
  185.8120  178.4310  141.6560 C   0  0  0  0  0  0  0  0  0  0  0  0
  183.8800  178.6760  143.1230 C   0  0  0  0  0  3  0  0  0  0  0  0
  184.3770  178.6690  141.8820 C   0  0  0  0  0  3  0  0  0  0  0  0
  186.6910  178.2000  142.8270 C   0  0  0  0  0  0  0  0  0  0  0  0
  187.9670  177.9880  142.6500 N   0  0  0  0  0  0  0  0  0  0  0  0
  184.7450  178.4460  144.2980 C   0  0  0  0  0  3  0  0  0  0  0  0
  186.2800  178.4260  140.4370 C   0  0  0  0  0  0  0  0  0  0  0  0
  186.0570  178.2250  144.1640 C   0  0  0  0  0  3  0  0  0  0  0  0
  186.7650  178.4190  139.2230 C   0  0  0  0  0  3  0  0  0  0  0  0
  188.6110  177.4460  144.9320 C   0  0  0  0  0  3  0  0  0  0  0  0
  191.3080  177.5290  144.3110 C   0  0  0  0  0  3  0  0  0  0  0  0
  190.3650  177.7840  143.3150 C   0  0  0  0  0  3  0  0  0  0  0  0
  188.9980  177.7420  143.6230 C   0  0  0  0  0  0  0  0  0  0  0  0
  189.5820  177.2110  145.9120 C   0  0  0  0  0  0  0  0  0  0  0  0
  190.9020  177.2440  145.5760 N   0  0  0  0  0  0  0  0  0  0  0  0
  187.8720  177.5560  147.6640 C   0  0  0  0  0  2  0  0  0  0  0  0
  189.1840  178.0850  148.1940 C   0  0  0  0  0  2  0  0  0  0  0  0
  189.1700  176.8530  147.3060 C   0  0  0  0  0  3  0  0  0  0  0  0
  188.2200  178.1630  138.9600 C   0  0  0  0  0  0  0  0  0  0  0  0
  188.9920  179.1420  139.5910 O   0  0  0  0  0  1  0  0  0  0  0  0
  188.5580  176.9080  139.4780 O   0  0  0  0  0  1  0  0  0  0  0  0
  187.2220  178.5630  136.6460 C   0  0  0  0  0  2  0  0  0  0  0  0
  188.4890  178.1820  137.4490 C   0  0  2  0  0  3  0  0  0  0  0  0
  187.1020  177.8810  135.2750 C   0  0  0  0  0  2  0  0  0  0  0  0
  190.4350  176.5960  134.9540 O   0  0  0  0  0  0  0  0  0  0  0  0
  189.3720  177.0120  135.4840 C   0  0  0  0  0  0  0  0  0  0  0  0
  189.1600  176.8920  136.9540 C   0  0  0  0  0  2  0  0  0  0  0  0
  188.3800  177.6060  134.7080 O   0  0  0  0  0  0  0  0  0  0  0  0
  1  3  1  0  0  0  0
  1  4  1  0  0  0  0
  2  6  1  0  0  0  0
  3  2  2  0  0  0  0
  4  8  1  0  0  0  0
  5  4  2  0  0  0  0
  5 13  1  0  0  0  0
  7  1  2  0  0  0  0
  8  6  2  0  0  0  0
  9  7  2  0  0  0  0
 10 14  1  0  0  0  0
 11 15  1  0  0  0  0
 12 13  1  0  0  0  0
 12 11  2  0  0  0  0
 13 10  2  0  0  0  0
 14 18  1  0  0  0  0
 15 14  2  0  0  0  0
 16 17  1  0  0  0  0
 18 16  1  0  0  0  0
 18 17  1  0  0  0  0
 19  9  1  0  0  0  0
 19 21  1  0  0  0  0
 19 20  1  0  0  0  0
 22 23  1  0  0  0  0
 23 19  1  1  0  0  0
 24 22  1  0  0  0  0
 25 26  2  0  0  0  0
 26 27  1  0  0  0  0
 27 23  1  0  0  0  0
 28 24  1  0  0  0  0
 28 26  1  0  0  0  0
M  END
>  <MODEL>
8

>  <REMARK>
 VINA RESULT:      -8.6      2.018      2.997
  Name = 
  4 active torsions:
  status: ('A' for Active; 'I' for Inactive)
    1  A    between atoms: C_8  and  C_11
    2  A    between atoms: C_8  and  C_28
    3  A    between atoms: C_13  and  N_16
    4  A    between atoms: C_21  and  C_22
                            x       y       z     vdW  Elec       q    Type
                         _______ _______ _______ _____ _____    ______ ____

>  <TORSDO>
F 4

$$$$
=
 OpenBabel10232408393D

 28 31  0  0  1  0  0  0  0  0999 V2000
  190.4740  177.0580  140.3110 C   0  0  0  0  0  0  0  0  0  0  0  0
  190.6150  176.0610  138.0900 C   0  0  0  0  0  3  0  0  0  0  0  0
  191.2190  176.3770  139.2400 C   0  0  0  0  0  3  0  0  0  0  0  0
  189.0450  177.3860  140.0900 C   0  0  0  0  0  0  0  0  0  0  0  0
  188.3650  177.9920  141.0260 N   0  0  0  0  0  0  0  0  0  0  0  0
  189.1920  176.3820  137.8570 C   0  0  0  0  0  3  0  0  0  0  0  0
  191.0800  177.3570  141.4290 C   0  0  0  0  0  0  0  0  0  0  0  0
  188.4560  177.0010  138.7880 C   0  0  0  0  0  3  0  0  0  0  0  0
  191.6720  177.6640  142.5530 C   0  0  0  0  0  3  0  0  0  0  0  0
  186.4160  178.7680  142.2580 C   0  0  0  0  0  3  0  0  0  0  0  0
  184.8680  178.8700  139.9640 C   0  0  0  0  0  3  0  0  0  0  0  0
  186.1970  178.4550  139.8780 C   0  0  0  0  0  3  0  0  0  0  0  0
  186.9870  178.4030  141.0350 C   0  0  0  0  0  0  0  0  0  0  0  0
  185.0750  179.1640  142.3130 C   0  0  0  0  0  0  0  0  0  0  0  0
  184.3400  179.2180  141.1670 N   0  0  0  0  0  0  0  0  0  0  0  0
  185.0610  178.7830  144.7550 C   0  0  0  0  0  2  0  0  0  0  0  0
  183.6820  178.4540  144.2330 C   0  0  0  0  0  2  0  0  0  0  0  0
  184.4730  179.5940  143.6140 C   0  0  0  0  0  3  0  0  0  0  0  0
  190.9340  178.3440  143.6690 C   0  0  0  0  0  0  0  0  0  0  0  0
  191.7320  179.3550  144.2140 O   0  0  0  0  0  1  0  0  0  0  0  0
  189.7630  178.9110  143.1550 O   0  0  0  0  0  1  0  0  0  0  0  0
  189.1200  177.5030  145.2530 C   0  0  0  0  0  2  0  0  0  0  0  0
  190.5740  177.3220  144.7560 C   0  0  2  0  0  3  0  0  0  0  0  0
  188.9040  177.1750  146.7380 C   0  0  0  0  0  2  0  0  0  0  0  0
  191.9960  175.4980  147.4340 O   0  0  0  0  0  0  0  0  0  0  0  0
  191.1630  176.2670  146.8880 C   0  0  0  0  0  0  0  0  0  0  0  0
  191.6070  177.2820  145.8920 C   0  0  0  0  0  2  0  0  0  0  0  0
  189.8070  176.1720  147.1950 O   0  0  0  0  0  0  0  0  0  0  0  0
  1  7  2  0  0  0  0
  2  3  2  0  0  0  0
  3  1  1  0  0  0  0
  4  1  1  0  0  0  0
  4  5  2  0  0  0  0
  5 13  1  0  0  0  0
  6  2  1  0  0  0  0
  6  8  2  0  0  0  0
  7  9  2  0  0  0  0
  8  4  1  0  0  0  0
  9 19  1  0  0  0  0
 10 14  1  0  0  0  0
 11 15  1  0  0  0  0
 12 11  2  0  0  0  0
 12 13  1  0  0  0  0
 13 10  2  0  0  0  0
 14 18  1  0  0  0  0
 15 14  2  0  0  0  0
 17 16  1  0  0  0  0
 18 17  1  0  0  0  0
 18 16  1  0  0  0  0
 19 20  1  0  0  0  0
 21 19  1  0  0  0  0
 22 24  1  0  0  0  0
 23 19  1  6  0  0  0
 23 22  1  0  0  0  0
 23 27  1  0  0  0  0
 24 28  1  0  0  0  0
 26 28  1  0  0  0  0
 26 25  2  0  0  0  0
 27 26  1  0  0  0  0
M  END
>  <MODEL>
9

>  <REMARK>
 VINA RESULT:      -8.5      2.493      7.087
  Name = 
  4 active torsions:
  status: ('A' for Active; 'I' for Inactive)
    1  A    between atoms: C_8  and  C_11
    2  A    between atoms: C_8  and  C_28
    3  A    between atoms: C_13  and  N_16
    4  A    between atoms: C_21  and  C_22
                            x       y       z     vdW  Elec       q    Type
                         _______ _______ _______ _____ _____    ______ ____

>  <TORSDO>
F 4

$$$$
