=
 OpenBabel10232412293D

 29 33  0  0  1  0  0  0  0  0999 V2000
  184.5890  179.0350  143.3070 C   0  0  0  0  0  3  0  0  0  0  0  0
  190.7370  177.7110  140.7140 C   0  0  0  0  0  2  0  0  0  0  0  0
  186.5690  178.2200  146.8000 C   0  0  0  0  0  0  0  0  0  0  0  0
  188.8420  176.2070  143.2160 C   0  0  0  0  0  3  0  0  0  0  0  0
  184.3790  179.0000  140.8550 N   0  0  0  0  0  0  0  0  0  0  0  0
  186.5200  178.5510  141.7780 C   0  0  0  0  0  3  0  0  0  0  0  0
  189.4070  178.8500  142.3270 O   0  0  0  0  0  1  0  0  0  0  0  0
  188.2940  176.8900  145.5270 C   0  0  2  0  0  3  0  0  0  0  0  0
  184.0940  179.0480  138.5220 F   0  0  0  0  0  0  0  0  0  0  0  0
  188.6300  177.5940  147.8660 C   0  0  0  0  0  3  0  0  0  0  0  0
  190.4880  177.6510  139.2120 C   0  0  2  0  0  3  0  0  0  0  0  0
  186.2180  178.6020  139.4270 N   0  0  0  0  0  0  0  0  0  0  0  0
  187.0620  177.7500  145.5740 C   0  0  0  0  0  0  0  0  0  0  0  0
  187.0450  178.4330  140.4950 C   0  0  0  0  0  0  0  0  0  0  0  0
  184.8960  178.8800  139.6010 C   0  0  0  0  0  0  0  0  0  0  0  0
  189.0590  178.1220  138.9940 C   0  0  0  0  0  2  0  0  0  0  0  0
  186.3650  178.0050  144.4430 N   0  0  0  0  0  0  0  0  0  0  0  0
  184.6610  179.0920  145.6840 C   0  0  0  0  0  3  0  0  0  0  0  0
  189.3780  177.8220  141.3790 C   0  0  1  0  0  0  0  0  0  0  0  0
  188.4450  178.1530  140.3060 N   0  0  0  0  0  0  0  0  0  0  0  0
  189.0140  176.5260  141.9650 N   0  0  0  0  0  0  0  0  0  0  0  0
  189.1480  177.0640  146.7520 C   0  0  0  0  0  3  0  0  0  0  0  0
  185.1980  178.6990  144.4530 C   0  0  0  0  0  0  0  0  0  0  0  0
  185.1620  178.8280  141.9540 C   0  0  0  0  0  0  0  0  0  0  0  0
  187.2860  178.1180  147.8820 N   0  0  0  0  0  0  0  0  0  0  0  0
  189.0370  177.1200  144.2970 N   0  0  0  0  0  2  0  0  0  0  0  0
  185.3600  178.8470  146.8290 N   0  0  0  0  0  0  0  0  0  0  0  0
  192.2450  176.2560  137.8410 C   0  0  0  0  0  1  0  0  0  0  0  0
  190.6510  175.9310  138.6480 S   0  0  0  0  0  0  0  0  0  0  0  0
  1 23  2  0  0  0  0
  2 19  1  0  0  0  0
  3 27  1  0  0  0  0
  3 25  2  0  0  0  0
  4 26  1  0  0  0  0
  5 24  1  0  0  0  0
  6 24  2  0  0  0  0
  8 13  1  0  0  0  0
  8 22  1  1  0  0  0
  9 15  1  0  0  0  0
 10 25  1  0  0  0  0
 11 29  1  1  0  0  0
 11  2  1  0  0  0  0
 12 15  1  0  0  0  0
 12 14  2  0  0  0  0
 13  3  1  0  0  0  0
 14  6  1  0  0  0  0
 15  5  2  0  0  0  0
 16 11  1  0  0  0  0
 16 20  1  0  0  0  0
 17 23  1  0  0  0  0
 17 13  2  0  0  0  0
 18 27  2  0  0  0  0
 19 21  1  0  0  0  0
 19  7  1  1  0  0  0
 20 14  1  0  0  0  0
 20 19  1  0  0  0  0
 21  4  2  0  0  0  0
 22 10  2  0  0  0  0
 23 18  1  0  0  0  0
 24  1  1  0  0  0  0
 26  8  1  0  0  0  0
 28 29  1  0  0  0  0
M  END
>  <MODEL>
1

>  <REMARK>
 VINA RESULT:     -10.2      0.000      0.000
  Name = 
  1 active torsions:
  status: ('A' for Active; 'I' for Inactive)
    1  A    between atoms: C_11  and  S_24
                            x       y       z     vdW  Elec       q    Type
                         _______ _______ _______ _____ _____    ______ ____

>  <TORSDO>
F 1

$$$$
=
 OpenBabel10232412293D

 29 33  0  0  1  0  0  0  0  0999 V2000
  185.7370  178.3200  145.5280 C   0  0  0  0  0  3  0  0  0  0  0  0
  189.7170  177.9990  140.0210 C   0  0  0  0  0  2  0  0  0  0  0  0
  189.2720  177.3850  147.3760 C   0  0  0  0  0  0  0  0  0  0  0  0
  189.4600  176.0330  142.8810 C   0  0  0  0  0  3  0  0  0  0  0  0
  184.2930  178.5140  143.5440 N   0  0  0  0  0  0  0  0  0  0  0  0
  186.6210  178.2260  143.1800 C   0  0  0  0  0  3  0  0  0  0  0  0
  189.3590  178.8020  142.2330 O   0  0  0  0  0  1  0  0  0  0  0  0
  190.1530  176.4050  145.2240 C   0  0  2  0  0  3  0  0  0  0  0  0
  182.8420  178.7700  141.7120 F   0  0  0  0  0  0  0  0  0  0  0  0
  191.6140  176.8980  147.1470 C   0  0  0  0  0  3  0  0  0  0  0  0
  188.7310  178.0660  138.8610 C   0  0  2  0  0  3  0  0  0  0  0  0
  185.1470  178.4840  141.3420 N   0  0  0  0  0  0  0  0  0  0  0  0
  189.0830  177.1060  146.0140 C   0  0  0  0  0  0  0  0  0  0  0  0
  186.4130  178.3040  141.8070 C   0  0  0  0  0  0  0  0  0  0  0  0
  184.0930  178.5860  142.2000 C   0  0  0  0  0  0  0  0  0  0  0  0
  187.3750  178.3870  139.4670 C   0  0  0  0  0  2  0  0  0  0  0  0
  187.8910  177.3930  145.4430 N   0  0  0  0  0  0  0  0  0  0  0  0
  187.0240  178.1390  147.5200 C   0  0  0  0  0  3  0  0  0  0  0  0
  188.8940  177.8820  141.2890 C   0  0  1  0  0  0  0  0  0  0  0  0
  187.5260  178.2100  140.8980 N   0  0  0  0  0  0  0  0  0  0  0  0
  188.9460  176.4980  141.7790 N   0  0  0  0  0  0  0  0  0  0  0  0
  191.5070  176.5500  145.8590 C   0  0  0  0  0  3  0  0  0  0  0  0
  186.8660  177.9410  146.1450 C   0  0  0  0  0  0  0  0  0  0  0  0
  185.5380  178.3230  144.0570 C   0  0  0  0  0  0  0  0  0  0  0  0
  190.4490  177.2570  147.9170 N   0  0  0  0  0  0  0  0  0  0  0  0
  190.1420  176.8460  143.8370 N   0  0  0  0  0  2  0  0  0  0  0  0
  188.2250  177.8610  148.1050 N   0  0  0  0  0  0  0  0  0  0  0  0
  190.4070  176.0950  138.3950 C   0  0  0  0  0  1  0  0  0  0  0  0
  188.6610  176.4450  138.0430 S   0  0  0  0  0  0  0  0  0  0  0  0
  1 23  2  0  0  0  0
  2 19  1  0  0  0  0
  3 25  2  0  0  0  0
  3 27  1  0  0  0  0
  4 26  1  0  0  0  0
  5 24  1  0  0  0  0
  6 24  2  0  0  0  0
  8 22  1  1  0  0  0
  8 13  1  0  0  0  0
  9 15  1  0  0  0  0
 10 25  1  0  0  0  0
 11 29  1  1  0  0  0
 11 16  1  0  0  0  0
 11  2  1  0  0  0  0
 12 14  2  0  0  0  0
 12 15  1  0  0  0  0
 13  3  1  0  0  0  0
 14  6  1  0  0  0  0
 15  5  2  0  0  0  0
 16 20  1  0  0  0  0
 17 13  2  0  0  0  0
 17 23  1  0  0  0  0
 18 27  2  0  0  0  0
 19 21  1  0  0  0  0
 19  7  1  1  0  0  0
 20 19  1  0  0  0  0
 20 14  1  0  0  0  0
 21  4  2  0  0  0  0
 22 10  2  0  0  0  0
 23 18  1  0  0  0  0
 24  1  1  0  0  0  0
 26  8  1  0  0  0  0
 29 28  1  0  0  0  0
M  END
>  <MODEL>
2

>  <REMARK>
 VINA RESULT:      -9.6      1.563      2.213
  Name = 
  1 active torsions:
  status: ('A' for Active; 'I' for Inactive)
    1  A    between atoms: C_11  and  S_24
                            x       y       z     vdW  Elec       q    Type
                         _______ _______ _______ _____ _____    ______ ____

>  <TORSDO>
F 1

$$$$
=
 OpenBabel10232412293D

 29 33  0  0  1  0  0  0  0  0999 V2000
  185.1460  178.6260  146.3700 C   0  0  0  0  0  3  0  0  0  0  0  0
  189.9520  176.1830  142.2230 C   0  0  0  0  0  2  0  0  0  0  0  0
  183.0610  178.7880  142.8470 C   0  0  0  0  0  0  0  0  0  0  0  0
  187.6670  178.7920  141.9310 C   0  0  0  0  0  3  0  0  0  0  0  0
  187.2240  178.4130  147.6710 N   0  0  0  0  0  0  0  0  0  0  0  0
  187.3020  177.8140  145.3760 C   0  0  0  0  0  3  0  0  0  0  0  0
  187.6920  176.1440  142.9710 O   0  0  0  0  0  1  0  0  0  0  0  0
  185.2250  178.8320  141.5530 C   0  0  2  0  0  3  0  0  0  0  0  0
  189.1430  178.1860  149.0100 F   0  0  0  0  0  0  0  0  0  0  0  0
  183.0500  178.4000  140.4760 C   0  0  0  0  0  3  0  0  0  0  0  0
  191.1980  176.1470  143.1000 C   0  0  2  0  0  3  0  0  0  0  0  0
  189.2300  177.5900  146.7370 N   0  0  0  0  0  0  0  0  0  0  0  0
  184.4620  178.7520  142.8450 C   0  0  0  0  0  0  0  0  0  0  0  0
  188.6390  177.4570  145.5180 C   0  0  0  0  0  0  0  0  0  0  0  0
  188.5330  178.0670  147.8060 C   0  0  0  0  0  0  0  0  0  0  0  0
  190.7380  176.4600  144.5140 C   0  0  0  0  0  2  0  0  0  0  0  0
  185.1220  178.7370  144.0270 N   0  0  0  0  0  0  0  0  0  0  0  0
  183.0780  178.8820  145.2210 C   0  0  0  0  0  3  0  0  0  0  0  0
  188.8740  176.8890  143.0240 C   0  0  1  0  0  0  0  0  0  0  0  0
  189.3760  176.9410  144.3930 N   0  0  0  0  0  0  0  0  0  0  0  0
  188.7020  178.2550  142.5120 N   0  0  0  0  0  0  0  0  0  0  0  0
  184.3850  178.4180  140.3770 C   0  0  0  0  0  3  0  0  0  0  0  0
  184.4720  178.7580  145.2190 C   0  0  0  0  0  0  0  0  0  0  0  0
  186.5920  178.3100  146.4720 C   0  0  0  0  0  0  0  0  0  0  0  0
  182.3960  178.6570  141.7350 N   0  0  0  0  0  0  0  0  0  0  0  0
  186.4670  178.0760  141.6390 N   0  0  0  0  0  2  0  0  0  0  0  0
  182.4030  178.8900  144.0360 N   0  0  0  0  0  0  0  0  0  0  0  0
  191.8170  177.2900  140.8140 C   0  0  0  0  0  1  0  0  0  0  0  0
  192.3560  177.4310  142.5420 S   0  0  0  0  0  0  0  0  0  0  0  0
  1 24  1  0  0  0  0
  2 19  1  0  0  0  0
  2 11  1  0  0  0  0
  3 27  1  0  0  0  0
  4 21  2  0  0  0  0
  5 15  2  0  0  0  0
  6 14  1  0  0  0  0
  6 24  2  0  0  0  0
  8 22  1  6  0  0  0
  8 26  1  0  0  0  0
  8 13  1  0  0  0  0
 10 25  1  0  0  0  0
 11 29  1  6  0  0  0
 11 16  1  0  0  0  0
 12 15  1  0  0  0  0
 13  3  1  0  0  0  0
 13 17  2  0  0  0  0
 14 12  2  0  0  0  0
 15  9  1  0  0  0  0
 17 23  1  0  0  0  0
 19  7  1  6  0  0  0
 19 20  1  0  0  0  0
 20 16  1  0  0  0  0
 20 14  1  0  0  0  0
 21 19  1  0  0  0  0
 22 10  2  0  0  0  0
 23 18  1  0  0  0  0
 23  1  2  0  0  0  0
 24  5  1  0  0  0  0
 25  3  2  0  0  0  0
 26  4  1  0  0  0  0
 27 18  2  0  0  0  0
 28 29  1  0  0  0  0
M  END
>  <MODEL>
3

>  <REMARK>
 VINA RESULT:      -9.4      2.838      5.480
  Name = 
  1 active torsions:
  status: ('A' for Active; 'I' for Inactive)
    1  A    between atoms: C_11  and  S_24
                            x       y       z     vdW  Elec       q    Type
                         _______ _______ _______ _____ _____    ______ ____

>  <TORSDO>
F 1

$$$$
=
 OpenBabel10232412293D

 29 33  0  0  1  0  0  0  0  0999 V2000
  184.6020  178.6970  140.7920 C   0  0  0  0  0  3  0  0  0  0  0  0
  189.4490  176.4760  145.0160 C   0  0  0  0  0  2  0  0  0  0  0  0
  187.5460  177.9850  138.0330 C   0  0  0  0  0  0  0  0  0  0  0  0
  189.4940  178.6030  142.2630 C   0  0  0  0  0  3  0  0  0  0  0  0
  183.8000  179.0240  143.0960 N   0  0  0  0  0  0  0  0  0  0  0  0
  185.9710  178.1070  142.8120 C   0  0  0  0  0  3  0  0  0  0  0  0
  188.2010  176.1810  143.0110 O   0  0  0  0  0  1  0  0  0  0  0  0
  189.3010  178.1860  139.8340 C   0  0  2  0  0  3  0  0  0  0  0  0
  182.9230  179.3160  145.2570 F   0  0  0  0  0  0  0  0  0  0  0  0
  189.7930  177.2480  137.6090 C   0  0  0  0  0  3  0  0  0  0  0  0
  188.8850  176.7750  146.4000 C   0  0  2  0  0  3  0  0  0  0  0  0
  185.0740  178.4080  144.9860 N   0  0  0  0  0  0  0  0  0  0  0  0
  187.8670  178.1790  139.3850 C   0  0  0  0  0  0  0  0  0  0  0  0
  186.1020  177.9990  144.1930 C   0  0  0  0  0  0  0  0  0  0  0  0
  183.9330  178.9200  144.4460 C   0  0  0  0  0  0  0  0  0  0  0  0
  187.4460  177.2180  146.1910 C   0  0  0  0  0  2  0  0  0  0  0  0
  186.8750  178.4490  140.2650 N   0  0  0  0  0  0  0  0  0  0  0  0
  185.2660  178.4360  138.5220 C   0  0  0  0  0  3  0  0  0  0  0  0
  188.5050  177.1080  144.0120 C   0  0  1  0  0  0  0  0  0  0  0  0
  187.3020  177.4470  144.7670 N   0  0  0  0  0  0  0  0  0  0  0  0
  189.1110  178.3350  143.4780 N   0  0  0  0  0  0  0  0  0  0  0  0
  190.1980  177.4690  138.8650 C   0  0  0  0  0  3  0  0  0  0  0  0
  185.5750  178.5430  139.8830 C   0  0  0  0  0  0  0  0  0  0  0  0
  184.8020  178.6400  142.2610 C   0  0  0  0  0  0  0  0  0  0  0  0
  188.4540  177.5820  137.1920 N   0  0  0  0  0  0  0  0  0  0  0  0
  189.4200  177.6650  141.1880 N   0  0  0  0  0  2  0  0  0  0  0  0
  186.2570  178.1560  137.6290 N   0  0  0  0  0  0  0  0  0  0  0  0
  188.6690  178.2980  148.5330 C   0  0  0  0  0  1  0  0  0  0  0  0
  189.8320  178.1330  147.1490 S   0  0  0  0  0  0  0  0  0  0  0  0
  1 24  1  0  0  0  0
  2 11  1  0  0  0  0
  3 13  1  0  0  0  0
  4 21  2  0  0  0  0
  5 15  2  0  0  0  0
  6 14  1  0  0  0  0
  8 22  1  6  0  0  0
  8 26  1  0  0  0  0
 10 22  2  0  0  0  0
 11 29  1  6  0  0  0
 13  8  1  0  0  0  0
 13 17  2  0  0  0  0
 14 20  1  0  0  0  0
 14 12  2  0  0  0  0
 15 12  1  0  0  0  0
 15  9  1  0  0  0  0
 16 11  1  0  0  0  0
 18 23  1  0  0  0  0
 19  7  1  6  0  0  0
 19 20  1  0  0  0  0
 19  2  1  0  0  0  0
 20 16  1  0  0  0  0
 21 19  1  0  0  0  0
 23 17  1  0  0  0  0
 23  1  2  0  0  0  0
 24  6  2  0  0  0  0
 24  5  1  0  0  0  0
 25 10  1  0  0  0  0
 25  3  2  0  0  0  0
 26  4  1  0  0  0  0
 27  3  1  0  0  0  0
 27 18  2  0  0  0  0
 29 28  1  0  0  0  0
M  END
>  <MODEL>
4

>  <REMARK>
 VINA RESULT:      -8.6      2.558      6.296
  Name = 
  1 active torsions:
  status: ('A' for Active; 'I' for Inactive)
    1  A    between atoms: C_11  and  S_24
                            x       y       z     vdW  Elec       q    Type
                         _______ _______ _______ _____ _____    ______ ____

>  <TORSDO>
F 1

$$$$
=
 OpenBabel10232412293D

 29 33  0  0  1  0  0  0  0  0999 V2000
  187.1060  178.0070  147.0980 C   0  0  0  0  0  3  0  0  0  0  0  0
  190.0320  176.4420  141.1600 C   0  0  0  0  0  2  0  0  0  0  0  0
  183.9230  178.7500  144.6280 C   0  0  0  0  0  0  0  0  0  0  0  0
  187.9080  179.0130  142.1540 C   0  0  0  0  0  3  0  0  0  0  0  0
  189.4980  177.6100  147.5200 N   0  0  0  0  0  0  0  0  0  0  0  0
  188.7370  177.4300  145.2790 C   0  0  0  0  0  3  0  0  0  0  0  0
  188.1810  176.2230  142.6410 O   0  0  0  0  0  1  0  0  0  0  0  0
  185.4930  179.0680  142.6780 C   0  0  2  0  0  3  0  0  0  0  0  0
  191.7540  177.1880  148.0300 F   0  0  0  0  0  0  0  0  0  0  0  0
  183.0620  178.7890  142.3850 C   0  0  0  0  0  3  0  0  0  0  0  0
  191.5040  176.2760  141.5180 C   0  0  2  0  0  3  0  0  0  0  0  0
  191.0090  177.0080  145.8080 N   0  0  0  0  0  0  0  0  0  0  0  0
  185.2320  178.7440  144.1230 C   0  0  0  0  0  0  0  0  0  0  0  0
  190.0210  177.0820  144.8740 C   0  0  0  0  0  0  0  0  0  0  0  0
  190.7550  177.2720  147.1200 C   0  0  0  0  0  0  0  0  0  0  0  0
  191.5860  176.3230  143.0350 C   0  0  0  0  0  2  0  0  0  0  0  0
  186.2640  178.5330  144.9720 N   0  0  0  0  0  0  0  0  0  0  0  0
  184.7800  178.4200  146.8190 C   0  0  0  0  0  3  0  0  0  0  0  0
  189.3370  176.9710  142.4000 C   0  0  1  0  0  0  0  0  0  0  0  0
  190.2910  176.7890  143.4900 N   0  0  0  0  0  0  0  0  0  0  0  0
  189.0560  178.4030  142.2280 N   0  0  0  0  0  0  0  0  0  0  0  0
  184.2750  178.8530  141.8250 C   0  0  0  0  0  3  0  0  0  0  0  0
  186.0770  178.3280  146.3010 C   0  0  0  0  0  0  0  0  0  0  0  0
  188.4800  177.7080  146.6240 C   0  0  0  0  0  0  0  0  0  0  0  0
  182.9050  178.8050  143.8180 N   0  0  0  0  0  0  0  0  0  0  0  0
  186.6510  178.3350  142.1870 N   0  0  0  0  0  2  0  0  0  0  0  0
  183.7320  178.6250  145.9710 N   0  0  0  0  0  0  0  0  0  0  0  0
  192.4890  176.9140  139.1650 C   0  0  0  0  0  1  0  0  0  0  0  0
  192.4470  177.6630  140.8180 S   0  0  0  0  0  0  0  0  0  0  0  0
  2 11  1  0  0  0  0
  2 19  1  0  0  0  0
  3 27  1  0  0  0  0
  4 26  1  0  0  0  0
  4 21  2  0  0  0  0
  6 24  2  0  0  0  0
  8 22  1  6  0  0  0
  8 13  1  0  0  0  0
 10 25  1  0  0  0  0
 11 29  1  6  0  0  0
 11 16  1  0  0  0  0
 12 15  1  0  0  0  0
 13  3  1  0  0  0  0
 13 17  2  0  0  0  0
 14  6  1  0  0  0  0
 14 12  2  0  0  0  0
 15  5  2  0  0  0  0
 15  9  1  0  0  0  0
 16 20  1  0  0  0  0
 17 23  1  0  0  0  0
 19  7  1  1  0  0  0
 19 20  1  0  0  0  0
 20 14  1  0  0  0  0
 21 19  1  0  0  0  0
 22 10  2  0  0  0  0
 23 18  1  0  0  0  0
 23  1  2  0  0  0  0
 24  1  1  0  0  0  0
 24  5  1  0  0  0  0
 25  3  2  0  0  0  0
 26  8  1  0  0  0  0
 27 18  2  0  0  0  0
 28 29  1  0  0  0  0
M  END
>  <MODEL>
5

>  <REMARK>
 VINA RESULT:      -8.5      2.922      5.214
  Name = 
  1 active torsions:
  status: ('A' for Active; 'I' for Inactive)
    1  A    between atoms: C_11  and  S_24
                            x       y       z     vdW  Elec       q    Type
                         _______ _______ _______ _____ _____    ______ ____

>  <TORSDO>
F 1

$$$$
=
 OpenBabel10232412293D

 29 33  0  0  1  0  0  0  0  0999 V2000
  185.4810  178.6420  140.9540 C   0  0  0  0  0  3  0  0  0  0  0  0
  189.3470  176.5370  146.1400 C   0  0  0  0  0  2  0  0  0  0  0  0
  188.8760  177.7160  138.8560 C   0  0  0  0  0  0  0  0  0  0  0  0
  189.9920  178.5130  143.3490 C   0  0  0  0  0  3  0  0  0  0  0  0
  184.2610  179.1090  143.0400 N   0  0  0  0  0  0  0  0  0  0  0  0
  186.4150  178.1290  143.2270 C   0  0  0  0  0  3  0  0  0  0  0  0
  188.5000  176.1650  143.9470 O   0  0  0  0  0  1  0  0  0  0  0  0
  190.2570  177.9720  140.9520 C   0  0  2  0  0  3  0  0  0  0  0  0
  182.9940  179.5360  144.9740 F   0  0  0  0  0  0  0  0  0  0  0  0
  191.1370  176.9050  138.9110 C   0  0  0  0  0  3  0  0  0  0  0  0
  188.5370  176.9230  147.3720 C   0  0  2  0  0  3  0  0  0  0  0  0
  185.1270  178.5660  145.1690 N   0  0  0  0  0  0  0  0  0  0  0  0
  188.9370  177.9740  140.2330 C   0  0  0  0  0  0  0  0  0  0  0  0
  186.2730  178.0910  144.6100 C   0  0  0  0  0  0  0  0  0  0  0  0
  184.1280  179.0740  144.3940 C   0  0  0  0  0  0  0  0  0  0  0  0
  187.1810  177.3870  146.8660 C   0  0  0  0  0  2  0  0  0  0  0  0
  187.8040  178.3130  140.8900 N   0  0  0  0  0  0  0  0  0  0  0  0
  186.5600  178.2450  138.8710 C   0  0  0  0  0  3  0  0  0  0  0  0
  188.6360  177.1370  144.9420 C   0  0  1  0  0  0  0  0  0  0  0  0
  187.3220  177.5430  145.4320 N   0  0  0  0  0  0  0  0  0  0  0  0
  189.3740  178.3190  144.4780 N   0  0  0  0  0  0  0  0  0  0  0  0
  191.3000  177.1840  140.2100 C   0  0  0  0  0  3  0  0  0  0  0  0
  186.6050  178.4160  140.2590 C   0  0  0  0  0  0  0  0  0  0  0  0
  185.3920  178.6580  142.4350 C   0  0  0  0  0  0  0  0  0  0  0  0
  189.9150  177.2470  138.2270 N   0  0  0  0  0  0  0  0  0  0  0  0
  190.0960  177.5210  142.3260 N   0  0  0  0  0  2  0  0  0  0  0  0
  187.6950  177.8940  138.2010 N   0  0  0  0  0  0  0  0  0  0  0  0
  191.0180  177.6040  147.9180 C   0  0  0  0  0  1  0  0  0  0  0  0
  189.3680  178.2960  148.2250 S   0  0  0  0  0  0  0  0  0  0  0  0
  1 24  1  0  0  0  0
  2 11  1  0  0  0  0
  3 13  1  0  0  0  0
  4 21  2  0  0  0  0
  5 15  2  0  0  0  0
  6 14  1  0  0  0  0
  8 22  1  6  0  0  0
  8 26  1  0  0  0  0
 10 22  2  0  0  0  0
 11 29  1  6  0  0  0
 13 17  2  0  0  0  0
 13  8  1  0  0  0  0
 14 12  2  0  0  0  0
 14 20  1  0  0  0  0
 15  9  1  0  0  0  0
 15 12  1  0  0  0  0
 16 11  1  0  0  0  0
 18 23  1  0  0  0  0
 19  7  1  6  0  0  0
 19 20  1  0  0  0  0
 19  2  1  0  0  0  0
 20 16  1  0  0  0  0
 21 19  1  0  0  0  0
 23 17  1  0  0  0  0
 23  1  2  0  0  0  0
 24  5  1  0  0  0  0
 24  6  2  0  0  0  0
 25  3  2  0  0  0  0
 25 10  1  0  0  0  0
 26  4  1  0  0  0  0
 27  3  1  0  0  0  0
 27 18  2  0  0  0  0
 28 29  1  0  0  0  0
M  END
>  <MODEL>
6

>  <REMARK>
 VINA RESULT:      -8.4      2.657      6.180
  Name = 
  1 active torsions:
  status: ('A' for Active; 'I' for Inactive)
    1  A    between atoms: C_11  and  S_24
                            x       y       z     vdW  Elec       q    Type
                         _______ _______ _______ _____ _____    ______ ____

>  <TORSDO>
F 1

$$$$
=
 OpenBabel10232412293D

 29 33  0  0  1  0  0  0  0  0999 V2000
  183.6430  178.7180  143.0230 C   0  0  0  0  0  3  0  0  0  0  0  0
  190.0190  176.3790  143.3900 C   0  0  0  0  0  2  0  0  0  0  0  0
  184.3920  178.3380  139.0130 C   0  0  0  0  0  0  0  0  0  0  0  0
  188.4620  178.7100  141.3280 C   0  0  0  0  0  3  0  0  0  0  0  0
  184.3530  178.8360  145.3760 N   0  0  0  0  0  0  0  0  0  0  0  0
  185.9300  178.0320  143.7960 C   0  0  0  0  0  3  0  0  0  0  0  0
  187.8270  176.1880  142.4820 O   0  0  0  0  0  1  0  0  0  0  0  0
  186.8730  178.4720  139.4500 C   0  0  2  0  0  3  0  0  0  0  0  0
  184.9180  178.9280  147.6560 F   0  0  0  0  0  0  0  0  0  0  0  0
  185.9510  177.7270  137.2890 C   0  0  0  0  0  3  0  0  0  0  0  0
  190.3810  176.5500  144.8610 C   0  0  2  0  0  3  0  0  0  0  0  0
  186.4870  178.1310  146.0980 N   0  0  0  0  0  0  0  0  0  0  0  0
  185.4490  178.4410  139.9290 C   0  0  0  0  0  0  0  0  0  0  0  0
  186.8470  177.8240  144.8210 C   0  0  0  0  0  0  0  0  0  0  0  0
  185.2530  178.6350  146.3770 C   0  0  0  0  0  0  0  0  0  0  0  0
  189.0990  176.9490  145.5750 C   0  0  0  0  0  2  0  0  0  0  0  0
  185.1680  178.6030  141.2430 N   0  0  0  0  0  0  0  0  0  0  0  0
  182.8410  178.6580  140.7840 C   0  0  0  0  0  3  0  0  0  0  0  0
  188.6730  177.0480  143.1890 C   0  0  1  0  0  0  0  0  0  0  0  0
  188.1480  177.2790  144.5320 N   0  0  0  0  0  0  0  0  0  0  0  0
  188.8640  178.3350  142.5090 N   0  0  0  0  0  0  0  0  0  0  0  0
  187.0200  177.8680  138.0820 C   0  0  0  0  0  3  0  0  0  0  0  0
  183.8930  178.6730  141.7060 C   0  0  0  0  0  0  0  0  0  0  0  0
  184.6680  178.5570  144.0840 C   0  0  0  0  0  0  0  0  0  0  0  0
  184.6270  178.0370  137.7680 N   0  0  0  0  0  0  0  0  0  0  0  0
  187.7590  177.8550  140.4260 N   0  0  0  0  0  2  0  0  0  0  0  0
  183.1140  178.4870  139.4590 N   0  0  0  0  0  0  0  0  0  0  0  0
  191.9820  177.8720  143.2480 C   0  0  0  0  0  1  0  0  0  0  0  0
  191.6040  177.8830  145.0240 S   0  0  0  0  0  0  0  0  0  0  0  0
  1 24  1  0  0  0  0
  2 11  1  0  0  0  0
  3 27  1  0  0  0  0
  3 13  1  0  0  0  0
  4 21  2  0  0  0  0
  5 15  2  0  0  0  0
  6 24  2  0  0  0  0
  6 14  1  0  0  0  0
  8 22  1  6  0  0  0
  8 13  1  0  0  0  0
  8 26  1  0  0  0  0
 10 25  1  0  0  0  0
 10 22  2  0  0  0  0
 11 29  1  6  0  0  0
 11 16  1  0  0  0  0
 12 15  1  0  0  0  0
 13 17  2  0  0  0  0
 14 12  2  0  0  0  0
 15  9  1  0  0  0  0
 17 23  1  0  0  0  0
 18 23  1  0  0  0  0
 19  7  1  6  0  0  0
 19  2  1  0  0  0  0
 19 20  1  0  0  0  0
 20 14  1  0  0  0  0
 20 16  1  0  0  0  0
 21 19  1  0  0  0  0
 23  1  2  0  0  0  0
 24  5  1  0  0  0  0
 25  3  2  0  0  0  0
 26  4  1  0  0  0  0
 27 18  2  0  0  0  0
 28 29  1  0  0  0  0
M  END
>  <MODEL>
7

>  <REMARK>
 VINA RESULT:      -7.8      2.828      5.907
  Name = 
  1 active torsions:
  status: ('A' for Active; 'I' for Inactive)
    1  A    between atoms: C_11  and  S_24
                            x       y       z     vdW  Elec       q    Type
                         _______ _______ _______ _____ _____    ______ ____

>  <TORSDO>
F 1

$$$$
=
 OpenBabel10232412293D

 29 33  0  0  1  0  0  0  0  0999 V2000
  187.8070  178.0640  142.2840 C   0  0  0  0  0  3  0  0  0  0  0  0
  182.1470  179.6770  138.8740 C   0  0  0  0  0  2  0  0  0  0  0  0
  189.2970  177.8380  138.4750 C   0  0  0  0  0  0  0  0  0  0  0  0
  184.6330  177.2980  138.3560 C   0  0  0  0  0  3  0  0  0  0  0  0
  185.9570  178.1670  143.9040 N   0  0  0  0  0  0  0  0  0  0  0  0
  185.4400  178.5740  141.6230 C   0  0  0  0  0  3  0  0  0  0  0  0
  184.4790  180.0030  139.2230 O   0  0  0  0  0  1  0  0  0  0  0  0
  186.9700  177.4750  137.5710 C   0  0  2  0  0  3  0  0  0  0  0  0
  184.2670  178.3040  145.5320 F   0  0  0  0  0  0  0  0  0  0  0  0
  188.8780  178.0390  136.1170 C   0  0  0  0  0  3  0  0  0  0  0  0
  181.0640  179.6560  139.9450 C   0  0  2  0  0  3  0  0  0  0  0  0
  183.7460  178.7080  143.2760 N   0  0  0  0  0  0  0  0  0  0  0  0
  187.9190  177.7320  138.7080 C   0  0  0  0  0  0  0  0  0  0  0  0
  184.1120  178.8040  141.9690 C   0  0  0  0  0  0  0  0  0  0  0  0
  184.6560  178.3890  144.2380 C   0  0  0  0  0  0  0  0  0  0  0  0
  181.7790  179.5030  141.2770 C   0  0  0  0  0  2  0  0  0  0  0  0
  187.4620  177.7730  139.9810 N   0  0  0  0  0  0  0  0  0  0  0  0
  189.6760  177.9290  140.8180 C   0  0  0  0  0  3  0  0  0  0  0  0
  183.4130  179.1480  139.5200 C   0  0  1  0  0  0  0  0  0  0  0  0
  183.1490  179.1540  140.9560 N   0  0  0  0  0  0  0  0  0  0  0  0
  183.6530  177.7710  139.0700 N   0  0  0  0  0  0  0  0  0  0  0  0
  187.5560  177.8780  136.2480 C   0  0  0  0  0  3  0  0  0  0  0  0
  188.2950  177.9110  141.0450 C   0  0  0  0  0  0  0  0  0  0  0  0
  186.3700  178.2400  142.6110 C   0  0  0  0  0  0  0  0  0  0  0  0
  189.7530  177.9480  137.2600 N   0  0  0  0  0  0  0  0  0  0  0  0
  185.6820  178.1060  137.8210 N   0  0  0  0  0  2  0  0  0  0  0  0
  190.1460  177.8970  139.5380 N   0  0  0  0  0  0  0  0  0  0  0  0
  179.9850  177.7730  141.4300 C   0  0  0  0  0  1  0  0  0  0  0  0
  179.9820  178.2210  139.6710 S   0  0  0  0  0  0  0  0  0  0  0  0
  1 24  1  0  0  0  0
  2 19  1  0  0  0  0
  2 11  1  0  0  0  0
  3 13  1  0  0  0  0
  3 27  1  0  0  0  0
  4 21  2  0  0  0  0
  5 15  2  0  0  0  0
  6 14  1  0  0  0  0
  6 24  2  0  0  0  0
  8 22  1  6  0  0  0
  8 26  1  0  0  0  0
  8 13  1  0  0  0  0
 10 22  2  0  0  0  0
 10 25  1  0  0  0  0
 11 29  1  6  0  0  0
 11 16  1  0  0  0  0
 12 15  1  0  0  0  0
 13 17  2  0  0  0  0
 14 12  2  0  0  0  0
 15  9  1  0  0  0  0
 17 23  1  0  0  0  0
 18 23  1  0  0  0  0
 19  7  1  6  0  0  0
 19 20  1  0  0  0  0
 20 16  1  0  0  0  0
 20 14  1  0  0  0  0
 21 19  1  0  0  0  0
 23  1  2  0  0  0  0
 24  5  1  0  0  0  0
 25  3  2  0  0  0  0
 26  4  1  0  0  0  0
 27 18  2  0  0  0  0
 29 28  1  0  0  0  0
M  END
>  <MODEL>
8

>  <REMARK>
 VINA RESULT:      -7.6      3.572      7.483
  Name = 
  1 active torsions:
  status: ('A' for Active; 'I' for Inactive)
    1  A    between atoms: C_11  and  S_24
                            x       y       z     vdW  Elec       q    Type
                         _______ _______ _______ _____ _____    ______ ____

>  <TORSDO>
F 1

$$$$
=
 OpenBabel10232412293D

 29 33  0  0  1  0  0  0  0  0999 V2000
  187.2610  178.2900  139.6310 C   0  0  0  0  0  3  0  0  0  0  0  0
  190.4360  177.7080  145.6180 C   0  0  0  0  0  2  0  0  0  0  0  0
  184.0860  179.0920  142.0930 C   0  0  0  0  0  0  0  0  0  0  0  0
  187.3230  176.6570  144.4710 C   0  0  0  0  0  3  0  0  0  0  0  0
  189.5310  177.4450  139.1990 N   0  0  0  0  0  0  0  0  0  0  0  0
  188.9150  177.8220  141.4600 C   0  0  0  0  0  3  0  0  0  0  0  0
  188.9890  178.9460  144.1910 O   0  0  0  0  0  1  0  0  0  0  0  0
  185.2290  177.8770  143.9860 C   0  0  2  0  0  3  0  0  0  0  0  0
  191.6990  176.6960  138.6830 F   0  0  0  0  0  0  0  0  0  0  0  0
  183.2720  179.3330  144.3420 C   0  0  0  0  0  3  0  0  0  0  0  0
  191.7950  177.1270  145.2490 C   0  0  2  0  0  3  0  0  0  0  0  0
  191.0970  177.0660  140.9260 N   0  0  0  0  0  0  0  0  0  0  0  0
  185.2030  178.3940  142.5750 C   0  0  0  0  0  0  0  0  0  0  0  0
  190.1880  177.4370  141.8680 C   0  0  0  0  0  0  0  0  0  0  0  0
  190.7750  177.0650  139.6020 C   0  0  0  0  0  0  0  0  0  0  0  0
  191.8780  177.1560  143.7320 C   0  0  0  0  0  2  0  0  0  0  0  0
  186.2190  178.1120  141.7260 N   0  0  0  0  0  0  0  0  0  0  0  0
  185.0420  179.0990  139.9190 C   0  0  0  0  0  3  0  0  0  0  0  0
  189.5970  177.6980  144.3550 C   0  0  1  0  0  0  0  0  0  0  0  0
  190.5370  177.4490  143.2650 N   0  0  0  0  0  0  0  0  0  0  0  0
  188.6230  176.6010  144.4240 N   0  0  0  0  0  0  0  0  0  0  0  0
  184.2710  178.6190  144.8740 C   0  0  0  0  0  3  0  0  0  0  0  0
  186.1930  178.4810  140.4190 C   0  0  0  0  0  0  0  0  0  0  0  0
  188.5840  177.8130  140.1030 C   0  0  0  0  0  0  0  0  0  0  0  0
  183.1620  179.5040  142.9140 N   0  0  0  0  0  0  0  0  0  0  0  0
  186.5870  177.8800  144.5110 N   0  0  0  0  0  2  0  0  0  0  0  0
  184.0160  179.3950  140.7670 N   0  0  0  0  0  0  0  0  0  0  0  0
  192.1610  175.9070  147.5500 C   0  0  0  0  0  1  0  0  0  0  0  0
  191.8850  175.4060  145.8270 S   0  0  0  0  0  0  0  0  0  0  0  0
  1 24  1  0  0  0  0
  1 23  2  0  0  0  0
  3 13  1  0  0  0  0
  3 25  2  0  0  0  0
  4 26  1  0  0  0  0
  5 15  2  0  0  0  0
  5 24  1  0  0  0  0
  6 14  1  0  0  0  0
  8 26  1  0  0  0  0
  8 22  1  1  0  0  0
  9 15  1  0  0  0  0
 10 22  2  0  0  0  0
 11  2  1  0  0  0  0
 11 29  1  6  0  0  0
 12 14  2  0  0  0  0
 13  8  1  0  0  0  0
 14 20  1  0  0  0  0
 15 12  1  0  0  0  0
 16 11  1  0  0  0  0
 17 13  2  0  0  0  0
 18 23  1  0  0  0  0
 18 27  2  0  0  0  0
 19  7  1  6  0  0  0
 19 21  1  0  0  0  0
 19  2  1  0  0  0  0
 20 16  1  0  0  0  0
 20 19  1  0  0  0  0
 21  4  2  0  0  0  0
 23 17  1  0  0  0  0
 24  6  2  0  0  0  0
 25 10  1  0  0  0  0
 27  3  1  0  0  0  0
 29 28  1  0  0  0  0
M  END
>  <MODEL>
9

>  <REMARK>
 VINA RESULT:      -7.2      2.624      5.159
  Name = 
  1 active torsions:
  status: ('A' for Active; 'I' for Inactive)
    1  A    between atoms: C_11  and  S_24
                            x       y       z     vdW  Elec       q    Type
                         _______ _______ _______ _____ _____    ______ ____

>  <TORSDO>
F 1

$$$$
