=
 OpenBabel10232409133D

 57 60  0  0  1  0  0  0  0  0999 V2000
  185.7790  178.8310  139.8950 C   0  0  0  0  0  0  0  0  0  0  0  0
  187.9160  178.0280  139.2000 C   0  0  0  0  0  0  0  0  0  0  0  0
  186.2000  178.8220  141.2440 C   0  0  0  0  0  0  0  0  0  0  0  0
  187.5050  178.4190  141.5350 C   0  0  0  0  0  3  0  0  0  0  0  0
  186.6550  178.4490  138.9210 N   0  0  0  0  0  0  0  0  0  0  0  0
  188.3670  178.0120  140.5170 C   0  0  0  0  0  3  0  0  0  0  0  0
  188.8240  177.5940  138.0980 C   0  0  0  0  0  2  0  0  0  0  0  0
  189.6010  176.4360  138.5190 N   0  0  0  0  0  2  0  0  0  0  0  0
  190.8580  176.5290  137.9040 N   0  0  0  0  0  2  0  0  0  0  0  0
  191.6020  175.4220  138.3300 N   0  0  0  0  0  2  0  0  0  0  0  0
  192.3920  174.9800  137.1900 C   0  0  2  0  0  3  0  0  0  0  0  0
  190.7740  173.3320  136.5480 O   0  0  0  0  0  1  0  0  0  0  0  0
  191.5170  174.2870  136.1940 C   0  0  0  0  0  0  0  0  0  0  0  0
  191.5440  174.6840  134.8630 O   0  0  0  0  0  0  0  0  0  0  0  0
  193.5130  174.0670  137.6740 C   0  0  0  0  0  2  0  0  0  0  0  0
  194.8580  174.4330  137.0490 C   0  0  2  0  0  3  0  0  0  0  0  0
  194.8690  174.0660  135.7130 F   0  0  0  0  0  0  0  0  0  0  0  0
  196.0390  173.7980  137.7850 C   0  0  0  0  0  2  0  0  0  0  0  0
  196.1760  174.3310  139.2030 C   0  0  0  0  0  1  0  0  0  0  0  0
  184.4460  179.3970  139.4950 C   0  0  0  0  0  2  0  0  0  0  0  0
  183.5020  177.2130  139.3930 O   0  0  0  0  0  0  0  0  0  0  0  0
  183.3390  178.4210  139.7120 C   0  0  0  0  0  0  0  0  0  0  0  0
  181.2370  179.7040  139.6060 C   0  0  0  0  0  0  0  0  0  0  0  0
  182.0790  178.9050  140.2050 N   0  0  0  0  0  0  0  0  0  0  0  0
  180.2600  179.8470  137.3490 C   0  0  1  0  0  3  0  0  0  0  0  0
  181.1120  181.5910  138.0330 N   0  0  0  0  0  2  0  0  0  0  0  0
  181.4560  180.1820  138.1850 C   0  0  1  0  0  3  0  0  0  0  0  0
  179.9820  181.2740  137.2530 N   0  0  0  0  0  2  0  0  0  0  0  0
  180.6960  179.3230  135.9900 C   0  0  0  0  0  2  0  0  0  0  0  0
  180.9620  175.6460  136.8510 C   0  0  0  0  0  3  0  0  0  0  0  0
  180.4760  176.9540  136.7540 C   0  0  0  0  0  3  0  0  0  0  0  0
  182.2120  175.3220  136.3100 C   0  0  0  0  0  0  0  0  0  0  0  0
  182.4920  177.6160  135.5800 C   0  0  0  0  0  3  0  0  0  0  0  0
  181.2390  177.9410  136.1200 C   0  0  0  0  0  0  0  0  0  0  0  0
  182.9760  176.3080  135.6730 C   0  0  0  0  0  3  0  0  0  0  0  0
  182.8110  173.6400  136.3890 S   0  0  0  0  0  0  0  0  0  0  0  0
  184.1510  174.0730  137.5410 C   0  0  0  0  0  2  0  0  0  0  0  0
  185.0140  172.8550  137.7750 C   0  0  0  0  0  2  0  0  0  0  0  0
  186.4330  173.1420  137.3140 C   0  0  0  0  0  2  0  0  0  0  0  0
  187.6540  174.6570  135.7790 C   0  0  0  0  0  1  0  0  0  0  0  0
  186.3960  173.8310  135.9660 C   0  0  0  0  0  2  0  0  0  0  0  0
  180.2890  180.3350  141.7320 N   0  0  0  0  0  1  0  0  0  0  0  0
  179.9820  180.0690  140.3360 C   0  0  0  0  0  2  0  0  0  0  0  0
  185.3700  179.2480  142.3330 N   0  0  0  0  0  2  0  0  0  0  0  0
  184.4190  178.4170  143.0000 C   0  0  0  0  0  3  0  0  0  0  0  0
  184.4720  178.2140  144.3120 C   0  0  0  0  0  3  0  0  0  0  0  0
  185.5120  178.8460  145.1870 C   0  0  0  0  0  2  0  0  0  0  0  0
  187.7330  177.8990  145.9900 C   0  0  0  0  0  0  0  0  0  0  0  0
  187.4150  178.0940  147.1950 O   0  0  0  0  0  0  0  0  0  0  0  0
  186.8210  178.2470  144.9430 N   0  0  0  0  0  2  0  0  0  0  0  0
  189.8220  177.9340  144.5650 C   0  0  0  0  0  2  0  0  0  0  0  0
  189.9090  177.0020  146.9100 C   0  0  0  0  0  2  0  0  0  0  0  0
  190.6470  176.2810  142.8810 C   0  0  0  0  0  1  0  0  0  0  0  0
  191.0250  177.0940  144.1040 C   0  0  2  0  0  3  0  0  0  0  0  0
  191.3920  176.7680  146.5820 C   0  0  0  0  0  2  0  0  0  0  0  0
  191.5700  176.1560  145.1920 C   0  0  0  0  0  2  0  0  0  0  0  0
  189.0320  177.2120  145.6620 C   0  0  1  0  0  3  0  0  0  0  0  0
  1  3  1  0  0  0  0
  2  6  2  0  0  0  0
  3  4  2  0  0  0  0
  3 44  1  0  0  0  0
  5  2  1  0  0  0  0
  5  1  2  0  0  0  0
  6  4  1  0  0  0  0
  7  8  1  0  0  0  0
  7  2  1  0  0  0  0
  9 10  1  0  0  0  0
  9  8  1  0  0  0  0
 11 15  1  1  0  0  0
 11 10  1  0  0  0  0
 13 12  1  0  0  0  0
 13 11  1  0  0  0  0
 14 13  2  0  0  0  0
 16 17  1  6  0  0  0
 16 15  1  0  0  0  0
 16 18  1  0  0  0  0
 18 19  1  0  0  0  0
 20 22  1  0  0  0  0
 20  1  1  0  0  0  0
 21 22  2  0  0  0  0
 22 24  1  0  0  0  0
 23 24  2  0  0  0  0
 23 43  1  0  0  0  0
 25 29  1  6  0  0  0
 25 27  1  0  0  0  0
 26 27  1  0  0  0  0
 27 23  1  1  0  0  0
 28 25  1  0  0  0  0
 28 26  1  0  0  0  0
 29 34  1  0  0  0  0
 31 30  1  0  0  0  0
 32 36  1  0  0  0  0
 32 30  2  0  0  0  0
 33 35  2  0  0  0  0
 33 34  1  0  0  0  0
 34 31  2  0  0  0  0
 35 32  1  0  0  0  0
 36 37  1  0  0  0  0
 37 38  1  0  0  0  0
 39 38  1  0  0  0  0
 40 41  1  0  0  0  0
 41 39  1  0  0  0  0
 43 42  1  0  0  0  0
 44 45  1  0  0  0  0
 45 46  2  0  0  0  0
 46 47  1  0  0  0  0
 48 49  2  0  0  0  0
 50 47  1  0  0  0  0
 50 48  1  0  0  0  0
 51 57  1  0  0  0  0
 54 53  1  6  0  0  0
 54 51  1  0  0  0  0
 54 56  1  0  0  0  0
 55 52  1  0  0  0  0
 56 55  1  0  0  0  0
 57 48  1  1  0  0  0
 57 52  1  0  0  0  0
M  END
>  <MODEL>
1

>  <REMARK>
 VINA RESULT:      -6.6      0.000      0.000
  Name = 
  26 active torsions:
  status: ('A' for Active; 'I' for Inactive)
    1  A    between atoms: C_1  and  C_14
    2  A    between atoms: C_2  and  C_38
    3  A    between atoms: C_2  and  C_51
    4  A    between atoms: C_3  and  N_45
    5  A    between atoms: C_4  and  C_39
    6  A    between atoms: C_7  and  C_15
    7  A    between atoms: C_8  and  C_40
    8  A    between atoms: C_8  and  C_47
    9  A    between atoms: C_9  and  C_43
   10  A    between atoms: N_10  and  N_13
   11  A    between atoms: N_10  and  N_33
   12  A    between atoms: C_11  and  C_18
   13  A    between atoms: C_11  and  C_23
   14  A    between atoms: N_13  and  C_23
   15  A    between atoms: C_14  and  C_52
   16  A    between atoms: C_15  and  N_33
   17  A    between atoms: C_18  and  C_19
   18  A    between atoms: C_22  and  C_56
   19  A    between atoms: C_23  and  C_31
   20  A    between atoms: S_24  and  C_37
   21  A    between atoms: S_24  and  C_40
   22  A    between atoms: C_28  and  N_45
   23  A    between atoms: C_34  and  C_39
   24  A    between atoms: C_34  and  N_53
   25  A    between atoms: C_35  and  C_47
   26  A    between atoms: N_36  and  C_43
                            x       y       z     vdW  Elec       q    Type
                         _______ _______ _______ _____ _____    ______ ____

>  <TORSDO>
F 26

$$$$
=
 OpenBabel10232409133D

 57 60  0  0  1  0  0  0  0  0999 V2000
  190.2800  177.1620  139.2050 C   0  0  0  0  0  0  0  0  0  0  0  0
  191.2880  177.5990  141.3230 C   0  0  0  0  0  0  0  0  0  0  0  0
  191.5470  176.8720  138.6480 C   0  0  0  0  0  0  0  0  0  0  0  0
  192.6720  176.9430  139.4720 C   0  0  0  0  0  3  0  0  0  0  0  0
  190.1940  177.4990  140.5240 N   0  0  0  0  0  0  0  0  0  0  0  0
  192.5510  177.3150  140.8110 C   0  0  0  0  0  3  0  0  0  0  0  0
  191.1390  178.0000  142.7520 C   0  0  0  0  0  2  0  0  0  0  0  0
  189.7970  177.6800  143.2230 N   0  0  0  0  0  2  0  0  0  0  0  0
  189.8540  177.5940  144.6210 N   0  0  0  0  0  2  0  0  0  0  0  0
  188.6750  176.9610  145.0380 N   0  0  0  0  0  2  0  0  0  0  0  0
  188.0840  177.8040  146.0660 C   0  0  2  0  0  3  0  0  0  0  0  0
  189.0570  176.3510  147.7050 O   0  0  0  0  0  0  0  0  0  0  0  0
  188.7200  177.5250  147.3910 C   0  0  0  0  0  0  0  0  0  0  0  0
  188.9180  178.5640  148.2910 O   0  0  0  0  0  1  0  0  0  0  0  0
  186.5780  177.5660  146.1120 C   0  0  0  0  0  2  0  0  0  0  0  0
  185.7890  178.8270  145.7670 C   0  0  2  0  0  3  0  0  0  0  0  0
  185.8620  179.7280  146.8180 F   0  0  0  0  0  0  0  0  0  0  0  0
  184.3290  178.5290  145.4220 C   0  0  0  0  0  2  0  0  0  0  0  0
  183.7590  179.5460  144.4440 C   0  0  0  0  0  1  0  0  0  0  0  0
  189.0150  176.9550  138.4210 C   0  0  0  0  0  2  0  0  0  0  0  0
  188.0120  178.9550  137.6050 O   0  0  0  0  0  0  0  0  0  0  0  0
  188.0880  178.1190  138.5440 C   0  0  0  0  0  0  0  0  0  0  0  0
  186.1000  178.5780  139.9250 C   0  0  0  0  0  0  0  0  0  0  0  0
  187.3670  178.3000  139.7740 N   0  0  0  0  0  0  0  0  0  0  0  0
  183.8880  177.9210  139.0620 C   0  0  1  0  0  3  0  0  0  0  0  0
  184.3740  179.9000  138.7740 N   0  0  0  0  0  2  0  0  0  0  0  0
  185.1490  178.6650  138.7490 C   0  0  1  0  0  3  0  0  0  0  0  0
  183.1890  179.2000  139.0770 N   0  0  0  0  0  2  0  0  0  0  0  0
  183.4390  177.1110  137.8560 C   0  0  0  0  0  2  0  0  0  0  0  0
  186.0170  177.4030  135.0990 C   0  0  0  0  0  3  0  0  0  0  0  0
  184.9050  177.6610  135.9090 C   0  0  0  0  0  3  0  0  0  0  0  0
  186.8290  176.2930  135.3570 C   0  0  0  0  0  0  0  0  0  0  0  0
  185.4180  175.6960  137.2350 C   0  0  0  0  0  3  0  0  0  0  0  0
  184.6040  176.8080  136.9760 C   0  0  0  0  0  0  0  0  0  0  0  0
  186.5300  175.4400  136.4270 C   0  0  0  0  0  3  0  0  0  0  0  0
  188.2780  175.9930  134.3540 S   0  0  0  0  0  0  0  0  0  0  0  0
  188.8680  174.6590  135.4420 C   0  0  0  0  0  2  0  0  0  0  0  0
  189.5700  173.6140  134.6060 C   0  0  0  0  0  2  0  0  0  0  0  0
  190.7980  173.1130  135.3460 C   0  0  0  0  0  2  0  0  0  0  0  0
  192.2070  171.1920  134.6620 C   0  0  0  0  0  1  0  0  0  0  0  0
  191.8260  172.6260  134.3460 C   0  0  0  0  0  2  0  0  0  0  0  0
  186.6650  178.5220  142.2690 N   0  0  0  0  0  1  0  0  0  0  0  0
  185.5810  178.7230  141.3220 C   0  0  0  0  0  2  0  0  0  0  0  0
  191.7360  176.4640  137.2870 N   0  0  0  0  0  2  0  0  0  0  0  0
  193.0060  176.3710  136.6380 C   0  0  0  0  0  3  0  0  0  0  0  0
  193.7640  175.2860  136.7460 C   0  0  0  0  0  3  0  0  0  0  0  0
  193.3460  174.0820  137.5340 C   0  0  0  0  0  2  0  0  0  0  0  0
  195.2250  172.4220  137.9640 C   0  0  0  0  0  0  0  0  0  0  0  0
  195.5100  172.9810  139.0590 O   0  0  0  0  0  0  0  0  0  0  0  0
  194.1500  172.9210  137.1620 N   0  0  0  0  0  2  0  0  0  0  0  0
  195.1170  169.9040  137.7450 C   0  0  0  0  0  2  0  0  0  0  0  0
  196.4820  171.2570  136.1070 C   0  0  0  0  0  2  0  0  0  0  0  0
  196.4910  168.1340  138.8530 C   0  0  0  0  0  1  0  0  0  0  0  0
  195.9650  168.6400  137.5240 C   0  0  2  0  0  3  0  0  0  0  0  0
  196.7890  169.8850  135.4860 C   0  0  0  0  0  2  0  0  0  0  0  0
  197.1390  168.8500  136.5570 C   0  0  0  0  0  2  0  0  0  0  0  0
  195.9570  171.1710  137.5520 C   0  0  1  0  0  3  0  0  0  0  0  0
  1  5  1  0  0  0  0
  2  7  1  0  0  0  0
  3  1  2  0  0  0  0
  3  4  1  0  0  0  0
  4  6  2  0  0  0  0
  5  2  2  0  0  0  0
  6  2  1  0  0  0  0
  7  8  1  0  0  0  0
  8  9  1  0  0  0  0
  9 10  1  0  0  0  0
 10 11  1  0  0  0  0
 11 15  1  1  0  0  0
 11 13  1  0  0  0  0
 13 12  2  0  0  0  0
 13 14  1  0  0  0  0
 16 15  1  0  0  0  0
 16 17  1  1  0  0  0
 18 16  1  0  0  0  0
 19 18  1  0  0  0  0
 20 22  1  0  0  0  0
 20  1  1  0  0  0  0
 21 22  2  0  0  0  0
 22 24  1  0  0  0  0
 23 43  1  0  0  0  0
 24 23  2  0  0  0  0
 25 29  1  6  0  0  0
 25 28  1  0  0  0  0
 26 28  1  0  0  0  0
 27 26  1  0  0  0  0
 27 25  1  0  0  0  0
 27 23  1  1  0  0  0
 30 32  2  0  0  0  0
 30 31  1  0  0  0  0
 31 34  2  0  0  0  0
 32 35  1  0  0  0  0
 34 33  1  0  0  0  0
 34 29  1  0  0  0  0
 35 33  2  0  0  0  0
 36 32  1  0  0  0  0
 36 37  1  0  0  0  0
 38 39  1  0  0  0  0
 38 37  1  0  0  0  0
 41 40  1  0  0  0  0
 41 39  1  0  0  0  0
 43 42  1  0  0  0  0
 44  3  1  0  0  0  0
 45 46  2  0  0  0  0
 45 44  1  0  0  0  0
 46 47  1  0  0  0  0
 48 49  2  0  0  0  0
 50 47  1  0  0  0  0
 50 48  1  0  0  0  0
 52 57  1  0  0  0  0
 54 51  1  0  0  0  0
 54 53  1  1  0  0  0
 55 52  1  0  0  0  0
 55 56  1  0  0  0  0
 56 54  1  0  0  0  0
 57 51  1  0  0  0  0
 57 48  1  6  0  0  0
M  END
>  <MODEL>
2

>  <REMARK>
 VINA RESULT:      -6.0      3.410      8.881
  Name = 
  26 active torsions:
  status: ('A' for Active; 'I' for Inactive)
    1  A    between atoms: C_1  and  C_14
    2  A    between atoms: C_2  and  C_38
    3  A    between atoms: C_2  and  C_51
    4  A    between atoms: C_3  and  N_45
    5  A    between atoms: C_4  and  C_39
    6  A    between atoms: C_7  and  C_15
    7  A    between atoms: C_8  and  C_40
    8  A    between atoms: C_8  and  C_47
    9  A    between atoms: C_9  and  C_43
   10  A    between atoms: N_10  and  N_13
   11  A    between atoms: N_10  and  N_33
   12  A    between atoms: C_11  and  C_18
   13  A    between atoms: C_11  and  C_23
   14  A    between atoms: N_13  and  C_23
   15  A    between atoms: C_14  and  C_52
   16  A    between atoms: C_15  and  N_33
   17  A    between atoms: C_18  and  C_19
   18  A    between atoms: C_22  and  C_56
   19  A    between atoms: C_23  and  C_31
   20  A    between atoms: S_24  and  C_37
   21  A    between atoms: S_24  and  C_40
   22  A    between atoms: C_28  and  N_45
   23  A    between atoms: C_34  and  C_39
   24  A    between atoms: C_34  and  N_53
   25  A    between atoms: C_35  and  C_47
   26  A    between atoms: N_36  and  C_43
                            x       y       z     vdW  Elec       q    Type
                         _______ _______ _______ _____ _____    ______ ____

>  <TORSDO>
F 26

$$$$
=
 OpenBabel10232409133D

 57 60  0  0  1  0  0  0  0  0999 V2000
  186.5380  178.5460  140.5470 C   0  0  0  0  0  0  0  0  0  0  0  0
  188.5600  177.4200  139.9680 C   0  0  0  0  0  0  0  0  0  0  0  0
  186.8750  178.4740  141.9180 C   0  0  0  0  0  0  0  0  0  0  0  0
  188.0840  177.8740  142.2790 C   0  0  0  0  0  3  0  0  0  0  0  0
  187.3980  178.0320  139.6220 N   0  0  0  0  0  0  0  0  0  0  0  0
  188.9280  177.3360  141.3080 C   0  0  0  0  0  3  0  0  0  0  0  0
  189.4500  176.8490  138.9150 C   0  0  0  0  0  2  0  0  0  0  0  0
  190.8170  177.3120  139.1140 N   0  0  0  0  0  2  0  0  0  0  0  0
  191.5310  177.0260  137.9400 N   0  0  0  0  0  2  0  0  0  0  0  0
  192.7430  176.4460  138.3340 N   0  0  0  0  0  2  0  0  0  0  0  0
  192.9770  175.3140  137.4480 C   0  0  2  0  0  3  0  0  0  0  0  0
  194.6120  176.6230  136.2820 O   0  0  0  0  0  0  0  0  0  0  0  0
  194.2700  175.4900  136.7170 C   0  0  0  0  0  0  0  0  0  0  0  0
  195.0880  174.3900  136.4950 O   0  0  0  0  0  1  0  0  0  0  0  0
  191.8060  175.1790  136.4800 C   0  0  0  0  0  2  0  0  0  0  0  0
  191.1720  173.7910  136.5410 C   0  0  2  0  0  3  0  0  0  0  0  0
  192.1640  172.8240  136.5840 F   0  0  0  0  0  0  0  0  0  0  0  0
  190.2240  173.5280  135.3700 C   0  0  0  0  0  2  0  0  0  0  0  0
  189.8530  174.8110  134.6410 C   0  0  0  0  0  1  0  0  0  0  0  0
  185.3350  179.3130  140.0770 C   0  0  0  0  0  2  0  0  0  0  0  0
  184.2670  177.6150  138.7920 O   0  0  0  0  0  0  0  0  0  0  0  0
  184.1870  178.4100  139.7660 C   0  0  0  0  0  0  0  0  0  0  0  0
  181.8450  179.0610  140.1710 C   0  0  0  0  0  0  0  0  0  0  0  0
  182.9820  178.5340  140.5390 N   0  0  0  0  0  0  0  0  0  0  0  0
  180.1550  179.4500  138.4210 C   0  0  1  0  0  3  0  0  0  0  0  0
  181.4620  181.0110  138.7210 N   0  0  0  0  0  2  0  0  0  0  0  0
  181.6090  179.5600  138.7600 C   0  0  1  0  0  3  0  0  0  0  0  0
  180.0920  180.9060  138.4100 N   0  0  0  0  0  2  0  0  0  0  0  0
  179.9820  178.9230  137.0050 C   0  0  0  0  0  2  0  0  0  0  0  0
  182.7610  176.8080  135.5440 C   0  0  0  0  0  3  0  0  0  0  0  0
  181.8690  177.8650  135.7540 C   0  0  0  0  0  3  0  0  0  0  0  0
  182.6920  175.6630  136.3470 C   0  0  0  0  0  0  0  0  0  0  0  0
  180.8350  176.6300  137.5670 C   0  0  0  0  0  3  0  0  0  0  0  0
  180.9050  177.7770  136.7640 C   0  0  0  0  0  0  0  0  0  0  0  0
  181.7290  175.5750  137.3590 C   0  0  0  0  0  3  0  0  0  0  0  0
  183.8650  174.3350  136.1120 S   0  0  0  0  0  0  0  0  0  0  0  0
  185.2410  175.3040  136.8020 C   0  0  0  0  0  2  0  0  0  0  0  0
  186.4170  175.2350  135.8550 C   0  0  0  0  0  2  0  0  0  0  0  0
  186.1780  176.1670  134.6800 C   0  0  0  0  0  2  0  0  0  0  0  0
  187.7120  177.7000  135.8800 C   0  0  0  0  0  1  0  0  0  0  0  0
  186.4050  177.5990  135.1160 C   0  0  0  0  0  2  0  0  0  0  0  0
  181.2660  178.8800  142.5060 N   0  0  0  0  0  1  0  0  0  0  0  0
  180.7290  179.0750  141.1690 C   0  0  0  0  0  2  0  0  0  0  0  0
  186.0620  179.0250  142.9620 N   0  0  0  0  0  2  0  0  0  0  0  0
  184.9140  178.3830  143.5190 C   0  0  0  0  0  3  0  0  0  0  0  0
  184.7680  178.2380  144.8320 C   0  0  0  0  0  3  0  0  0  0  0  0
  185.7750  178.7440  145.8190 C   0  0  0  0  0  2  0  0  0  0  0  0
  188.0480  177.9630  146.6520 C   0  0  0  0  0  0  0  0  0  0  0  0
  187.8180  178.4220  147.8050 O   0  0  0  0  0  0  0  0  0  0  0  0
  187.0630  178.0860  145.6210 N   0  0  0  0  0  2  0  0  0  0  0  0
  190.2150  177.8810  145.3500 C   0  0  0  0  0  2  0  0  0  0  0  0
  190.1100  176.9290  147.6860 C   0  0  0  0  0  2  0  0  0  0  0  0
  191.0360  176.1920  143.6990 C   0  0  0  0  0  1  0  0  0  0  0  0
  191.3900  176.9720  144.9510 C   0  0  2  0  0  3  0  0  0  0  0  0
  191.5930  176.6080  147.4420 C   0  0  0  0  0  2  0  0  0  0  0  0
  191.8150  175.9960  146.0580 C   0  0  0  0  0  2  0  0  0  0  0  0
  189.3210  177.2010  146.3920 C   0  0  1  0  0  3  0  0  0  0  0  0
  1  3  1  0  0  0  0
  2  6  2  0  0  0  0
  3  4  2  0  0  0  0
  3 44  1  0  0  0  0
  5  2  1  0  0  0  0
  5  1  2  0  0  0  0
  6  4  1  0  0  0  0
  7  8  1  0  0  0  0
  7  2  1  0  0  0  0
  9 10  1  0  0  0  0
  9  8  1  0  0  0  0
 11 15  1  6  0  0  0
 11 10  1  0  0  0  0
 12 13  2  0  0  0  0
 13 11  1  0  0  0  0
 14 13  1  0  0  0  0
 15 16  1  0  0  0  0
 16 17  1  6  0  0  0
 18 16  1  0  0  0  0
 19 18  1  0  0  0  0
 20  1  1  0  0  0  0
 21 22  2  0  0  0  0
 22 20  1  0  0  0  0
 22 24  1  0  0  0  0
 23 24  2  0  0  0  0
 23 43  1  0  0  0  0
 25 29  1  6  0  0  0
 25 27  1  0  0  0  0
 26 27  1  0  0  0  0
 27 23  1  1  0  0  0
 28 25  1  0  0  0  0
 28 26  1  0  0  0  0
 30 31  2  0  0  0  0
 30 32  1  0  0  0  0
 31 34  1  0  0  0  0
 32 35  2  0  0  0  0
 34 29  1  0  0  0  0
 34 33  2  0  0  0  0
 35 33  1  0  0  0  0
 36 32  1  0  0  0  0
 36 37  1  0  0  0  0
 38 37  1  0  0  0  0
 39 41  1  0  0  0  0
 39 38  1  0  0  0  0
 41 40  1  0  0  0  0
 43 42  1  0  0  0  0
 44 45  1  0  0  0  0
 45 46  2  0  0  0  0
 46 47  1  0  0  0  0
 48 49  2  0  0  0  0
 50 47  1  0  0  0  0
 50 48  1  0  0  0  0
 51 57  1  0  0  0  0
 54 53  1  6  0  0  0
 54 51  1  0  0  0  0
 54 56  1  0  0  0  0
 55 52  1  0  0  0  0
 56 55  1  0  0  0  0
 57 48  1  1  0  0  0
 57 52  1  0  0  0  0
M  END
>  <MODEL>
3

>  <REMARK>
 VINA RESULT:      -5.9      1.516      2.303
  Name = 
  26 active torsions:
  status: ('A' for Active; 'I' for Inactive)
    1  A    between atoms: C_1  and  C_14
    2  A    between atoms: C_2  and  C_38
    3  A    between atoms: C_2  and  C_51
    4  A    between atoms: C_3  and  N_45
    5  A    between atoms: C_4  and  C_39
    6  A    between atoms: C_7  and  C_15
    7  A    between atoms: C_8  and  C_40
    8  A    between atoms: C_8  and  C_47
    9  A    between atoms: C_9  and  C_43
   10  A    between atoms: N_10  and  N_13
   11  A    between atoms: N_10  and  N_33
   12  A    between atoms: C_11  and  C_18
   13  A    between atoms: C_11  and  C_23
   14  A    between atoms: N_13  and  C_23
   15  A    between atoms: C_14  and  C_52
   16  A    between atoms: C_15  and  N_33
   17  A    between atoms: C_18  and  C_19
   18  A    between atoms: C_22  and  C_56
   19  A    between atoms: C_23  and  C_31
   20  A    between atoms: S_24  and  C_37
   21  A    between atoms: S_24  and  C_40
   22  A    between atoms: C_28  and  N_45
   23  A    between atoms: C_34  and  C_39
   24  A    between atoms: C_34  and  N_53
   25  A    between atoms: C_35  and  C_47
   26  A    between atoms: N_36  and  C_43
                            x       y       z     vdW  Elec       q    Type
                         _______ _______ _______ _____ _____    ______ ____

>  <TORSDO>
F 26

$$$$
=
 OpenBabel10232409133D

 57 60  0  0  1  0  0  0  0  0999 V2000
  186.2830  178.0650  141.7630 C   0  0  0  0  0  0  0  0  0  0  0  0
  188.2290  178.3640  140.4150 C   0  0  0  0  0  0  0  0  0  0  0  0
  187.0790  178.0520  142.9310 C   0  0  0  0  0  0  0  0  0  0  0  0
  188.4600  178.2140  142.8020 C   0  0  0  0  0  3  0  0  0  0  0  0
  186.8840  178.2360  140.5500 N   0  0  0  0  0  0  0  0  0  0  0  0
  189.0440  178.3620  141.5440 C   0  0  0  0  0  3  0  0  0  0  0  0
  188.8360  178.5200  139.0610 C   0  0  0  0  0  2  0  0  0  0  0  0
  190.0550  177.7270  138.9660 N   0  0  0  0  0  2  0  0  0  0  0  0
  189.6720  176.3970  138.7430 N   0  0  0  0  0  2  0  0  0  0  0  0
  190.8340  175.6910  138.4060 N   0  0  0  0  0  2  0  0  0  0  0  0
  191.3990  176.3430  137.2340 C   0  0  2  0  0  3  0  0  0  0  0  0
  190.8440  176.4250  134.9030 O   0  0  0  0  0  0  0  0  0  0  0  0
  190.7890  175.7840  135.9880 C   0  0  0  0  0  0  0  0  0  0  0  0
  190.1350  174.5590  136.0330 O   0  0  0  0  0  1  0  0  0  0  0  0
  192.9140  176.1670  137.2370 C   0  0  0  0  0  2  0  0  0  0  0  0
  193.3200  174.7020  137.0990 C   0  0  2  0  0  3  0  0  0  0  0  0
  193.9640  174.2830  138.2530 F   0  0  0  0  0  0  0  0  0  0  0  0
  194.2030  174.4500  135.8760 C   0  0  0  0  0  2  0  0  0  0  0  0
  195.6020  175.0190  136.0610 C   0  0  0  0  0  1  0  0  0  0  0  0
  184.7830  178.0520  141.8380 C   0  0  0  0  0  2  0  0  0  0  0  0
  184.7610  179.6430  140.0660 O   0  0  0  0  0  0  0  0  0  0  0  0
  184.1610  178.6990  140.6450 C   0  0  0  0  0  0  0  0  0  0  0  0
  182.4290  178.0160  139.0310 C   0  0  0  0  0  0  0  0  0  0  0  0
  182.8470  178.2800  140.2390 N   0  0  0  0  0  0  0  0  0  0  0  0
  183.9660  176.6770  137.6470 C   0  0  1  0  0  3  0  0  0  0  0  0
  182.6340  177.8330  136.5860 N   0  0  0  0  0  2  0  0  0  0  0  0
  183.3600  178.0330  137.8360 C   0  0  1  0  0  3  0  0  0  0  0  0
  183.1990  176.5530  136.4140 N   0  0  0  0  0  2  0  0  0  0  0  0
  185.4450  176.8020  137.3150 C   0  0  0  0  0  2  0  0  0  0  0  0
  186.3400  174.4180  134.5140 C   0  0  0  0  0  3  0  0  0  0  0  0
  185.8680  175.5430  135.1990 C   0  0  0  0  0  3  0  0  0  0  0  0
  186.8630  173.3330  135.2270 C   0  0  0  0  0  0  0  0  0  0  0  0
  186.4390  174.4960  137.3100 C   0  0  0  0  0  3  0  0  0  0  0  0
  185.9160  175.5840  136.5960 C   0  0  0  0  0  0  0  0  0  0  0  0
  186.9140  173.3730  136.6250 C   0  0  0  0  0  3  0  0  0  0  0  0
  187.5130  171.9170  134.3500 S   0  0  0  0  0  0  0  0  0  0  0  0
  186.4380  170.7540  135.2450 C   0  0  0  0  0  2  0  0  0  0  0  0
  185.0280  170.8770  134.7140 C   0  0  0  0  0  2  0  0  0  0  0  0
  184.0680  170.1670  135.6540 C   0  0  0  0  0  2  0  0  0  0  0  0
  183.5410  172.2130  136.9490 C   0  0  0  0  0  1  0  0  0  0  0  0
  182.9670  171.1210  136.0660 C   0  0  0  0  0  2  0  0  0  0  0  0
  180.8100  176.2720  139.4300 N   0  0  0  0  0  1  0  0  0  0  0  0
  181.0010  177.5980  138.8640 C   0  0  0  0  0  2  0  0  0  0  0  0
  186.5390  177.9240  144.2530 N   0  0  0  0  0  2  0  0  0  0  0  0
  185.3680  178.5970  144.7190 C   0  0  0  0  0  3  0  0  0  0  0  0
  185.2310  178.9540  145.9910 C   0  0  0  0  0  3  0  0  0  0  0  0
  186.2880  178.6970  147.0210 C   0  0  0  0  0  2  0  0  0  0  0  0
  188.6720  177.8110  147.0650 C   0  0  0  0  0  0  0  0  0  0  0  0
  188.9000  178.3880  148.1640 O   0  0  0  0  0  0  0  0  0  0  0  0
  187.3850  177.9220  146.4490 N   0  0  0  0  0  2  0  0  0  0  0  0
  190.4120  177.5770  145.2450 C   0  0  0  0  0  2  0  0  0  0  0  0
  190.7740  176.4710  147.4860 C   0  0  0  0  0  2  0  0  0  0  0  0
  190.5640  175.9320  143.3670 C   0  0  0  0  0  1  0  0  0  0  0  0
  191.3200  176.5710  144.5160 C   0  0  2  0  0  3  0  0  0  0  0  0
  192.0930  176.0000  146.8530 C   0  0  0  0  0  2  0  0  0  0  0  0
  191.8770  175.4720  145.4340 C   0  0  0  0  0  2  0  0  0  0  0  0
  189.7280  176.9290  146.4520 C   0  0  1  0  0  3  0  0  0  0  0  0
  1 20  1  0  0  0  0
  1  3  1  0  0  0  0
  2  5  1  0  0  0  0
  2  6  2  0  0  0  0
  3 44  1  0  0  0  0
  4  3  2  0  0  0  0
  5  1  2  0  0  0  0
  6  4  1  0  0  0  0
  7  2  1  0  0  0  0
  8  7  1  0  0  0  0
  9  8  1  0  0  0  0
 10  9  1  0  0  0  0
 11 15  1  6  0  0  0
 11 10  1  0  0  0  0
 12 13  2  0  0  0  0
 13 14  1  0  0  0  0
 13 11  1  0  0  0  0
 16 15  1  0  0  0  0
 16 17  1  1  0  0  0
 18 19  1  0  0  0  0
 18 16  1  0  0  0  0
 21 22  2  0  0  0  0
 22 20  1  0  0  0  0
 23 24  2  0  0  0  0
 24 22  1  0  0  0  0
 25 29  1  6  0  0  0
 25 27  1  0  0  0  0
 26 27  1  0  0  0  0
 27 23  1  1  0  0  0
 28 26  1  0  0  0  0
 28 25  1  0  0  0  0
 30 31  2  0  0  0  0
 30 32  1  0  0  0  0
 31 34  1  0  0  0  0
 32 35  2  0  0  0  0
 34 33  2  0  0  0  0
 34 29  1  0  0  0  0
 35 33  1  0  0  0  0
 36 32  1  0  0  0  0
 36 37  1  0  0  0  0
 38 37  1  0  0  0  0
 38 39  1  0  0  0  0
 39 41  1  0  0  0  0
 41 40  1  0  0  0  0
 43 23  1  0  0  0  0
 43 42  1  0  0  0  0
 44 45  1  0  0  0  0
 45 46  2  0  0  0  0
 46 47  1  0  0  0  0
 48 49  2  0  0  0  0
 50 47  1  0  0  0  0
 50 48  1  0  0  0  0
 51 57  1  0  0  0  0
 54 53  1  6  0  0  0
 54 51  1  0  0  0  0
 54 56  1  0  0  0  0
 55 52  1  0  0  0  0
 56 55  1  0  0  0  0
 57 48  1  1  0  0  0
 57 52  1  0  0  0  0
M  END
>  <MODEL>
4

>  <REMARK>
 VINA RESULT:      -5.4      2.095      3.193
  Name = 
  26 active torsions:
  status: ('A' for Active; 'I' for Inactive)
    1  A    between atoms: C_1  and  C_14
    2  A    between atoms: C_2  and  C_38
    3  A    between atoms: C_2  and  C_51
    4  A    between atoms: C_3  and  N_45
    5  A    between atoms: C_4  and  C_39
    6  A    between atoms: C_7  and  C_15
    7  A    between atoms: C_8  and  C_40
    8  A    between atoms: C_8  and  C_47
    9  A    between atoms: C_9  and  C_43
   10  A    between atoms: N_10  and  N_13
   11  A    between atoms: N_10  and  N_33
   12  A    between atoms: C_11  and  C_18
   13  A    between atoms: C_11  and  C_23
   14  A    between atoms: N_13  and  C_23
   15  A    between atoms: C_14  and  C_52
   16  A    between atoms: C_15  and  N_33
   17  A    between atoms: C_18  and  C_19
   18  A    between atoms: C_22  and  C_56
   19  A    between atoms: C_23  and  C_31
   20  A    between atoms: S_24  and  C_37
   21  A    between atoms: S_24  and  C_40
   22  A    between atoms: C_28  and  N_45
   23  A    between atoms: C_34  and  C_39
   24  A    between atoms: C_34  and  N_53
   25  A    between atoms: C_35  and  C_47
   26  A    between atoms: N_36  and  C_43
                            x       y       z     vdW  Elec       q    Type
                         _______ _______ _______ _____ _____    ______ ____

>  <TORSDO>
F 26

$$$$
=
 OpenBabel10232409133D

 57 60  0  0  1  0  0  0  0  0999 V2000
  186.3140  178.5850  141.7090 C   0  0  0  0  0  0  0  0  0  0  0  0
  188.2830  177.2740  141.3990 C   0  0  0  0  0  0  0  0  0  0  0  0
  186.2890  178.2470  143.0810 C   0  0  0  0  0  0  0  0  0  0  0  0
  187.2970  177.4220  143.5850 C   0  0  0  0  0  3  0  0  0  0  0  0
  187.3170  178.1010  140.9210 N   0  0  0  0  0  0  0  0  0  0  0  0
  188.2940  176.9240  142.7460 C   0  0  0  0  0  3  0  0  0  0  0  0
  189.3410  176.7500  140.4860 C   0  0  0  0  0  2  0  0  0  0  0  0
  189.4540  177.6050  139.3120 N   0  0  0  0  0  2  0  0  0  0  0  0
  188.5980  177.0840  138.3310 N   0  0  0  0  0  2  0  0  0  0  0  0
  189.2550  175.9840  137.7620 N   0  0  0  0  0  2  0  0  0  0  0  0
  190.3720  176.5120  136.9920 C   0  0  2  0  0  3  0  0  0  0  0  0
  190.4420  176.0730  134.6360 O   0  0  0  0  0  0  0  0  0  0  0  0
  189.9530  176.7560  135.5770 C   0  0  0  0  0  0  0  0  0  0  0  0
  189.0360  177.7600  135.2950 O   0  0  0  0  0  1  0  0  0  0  0  0
  191.5420  175.5360  137.0640 C   0  0  0  0  0  2  0  0  0  0  0  0
  192.8820  176.2590  137.1700 C   0  0  2  0  0  3  0  0  0  0  0  0
  193.5310  176.2240  135.9450 F   0  0  0  0  0  0  0  0  0  0  0  0
  193.7790  175.6760  138.2620 C   0  0  0  0  0  2  0  0  0  0  0  0
  194.4050  174.3560  137.8370 C   0  0  0  0  0  1  0  0  0  0  0  0
  185.3560  179.5890  141.1330 C   0  0  0  0  0  2  0  0  0  0  0  0
  185.0260  179.0950  138.8270 O   0  0  0  0  0  0  0  0  0  0  0  0
  184.5700  179.0200  139.9990 C   0  0  0  0  0  0  0  0  0  0  0  0
  182.2270  178.4630  139.4770 C   0  0  0  0  0  0  0  0  0  0  0  0
  183.2670  178.4750  140.2660 N   0  0  0  0  0  0  0  0  0  0  0  0
  181.1610  178.4030  137.2570 C   0  0  1  0  0  3  0  0  0  0  0  0
  181.6600  180.2850  137.9240 N   0  0  0  0  0  2  0  0  0  0  0  0
  182.2920  178.9760  138.0530 C   0  0  1  0  0  3  0  0  0  0  0  0
  180.5920  179.7430  137.1820 N   0  0  0  0  0  2  0  0  0  0  0  0
  181.6460  177.9800  135.8790 C   0  0  0  0  0  2  0  0  0  0  0  0
  182.4710  174.4290  136.8980 C   0  0  0  0  0  3  0  0  0  0  0  0
  181.8570  175.6850  136.8430 C   0  0  0  0  0  3  0  0  0  0  0  0
  183.5590  174.1440  136.0650 C   0  0  0  0  0  0  0  0  0  0  0  0
  183.4210  176.3730  135.1230 C   0  0  0  0  0  3  0  0  0  0  0  0
  182.3300  176.6580  135.9570 C   0  0  0  0  0  0  0  0  0  0  0  0
  184.0320  175.1170  135.1760 C   0  0  0  0  0  3  0  0  0  0  0  0
  184.3110  172.5230  136.0990 S   0  0  0  0  0  0  0  0  0  0  0  0
  185.2100  172.8720  137.6420 C   0  0  0  0  0  2  0  0  0  0  0  0
  186.5240  173.5400  137.3080 C   0  0  0  0  0  2  0  0  0  0  0  0
  187.5590  172.4810  136.9710 C   0  0  0  0  0  2  0  0  0  0  0  0
  187.5550  174.0340  135.0390 C   0  0  0  0  0  1  0  0  0  0  0  0
  188.2550  172.8490  135.6770 C   0  0  0  0  0  2  0  0  0  0  0  0
  180.2640  178.7770  140.8430 N   0  0  0  0  0  1  0  0  0  0  0  0
  180.9700  177.8330  139.9910 C   0  0  0  0  0  2  0  0  0  0  0  0
  185.3050  178.7410  143.9990 N   0  0  0  0  0  2  0  0  0  0  0  0
  184.7130  177.9700  145.0450 C   0  0  0  0  0  3  0  0  0  0  0  0
  185.1720  178.0200  146.2910 C   0  0  0  0  0  3  0  0  0  0  0  0
  186.3220  178.8910  146.6950 C   0  0  0  0  0  2  0  0  0  0  0  0
  188.3850  177.4930  147.2100 C   0  0  0  0  0  0  0  0  0  0  0  0
  187.9930  177.2940  148.3920 O   0  0  0  0  0  0  0  0  0  0  0  0
  187.5900  178.2760  146.3130 N   0  0  0  0  0  2  0  0  0  0  0  0
  190.4470  177.7140  145.7620 C   0  0  0  0  0  2  0  0  0  0  0  0
  190.5310  176.3350  147.8760 C   0  0  0  0  0  2  0  0  0  0  0  0
  191.1580  176.3880  143.7650 C   0  0  0  0  0  1  0  0  0  0  0  0
  191.5980  176.9270  145.1120 C   0  0  2  0  0  3  0  0  0  0  0  0
  191.9940  176.1040  147.4680 C   0  0  0  0  0  2  0  0  0  0  0  0
  192.1160  175.7700  145.9800 C   0  0  0  0  0  2  0  0  0  0  0  0
  189.6430  176.8270  146.7170 C   0  0  1  0  0  3  0  0  0  0  0  0
  1  3  1  0  0  0  0
  2  6  2  0  0  0  0
  3  4  2  0  0  0  0
  3 44  1  0  0  0  0
  5  2  1  0  0  0  0
  5  1  2  0  0  0  0
  6  4  1  0  0  0  0
  7  2  1  0  0  0  0
  8  7  1  0  0  0  0
  9  8  1  0  0  0  0
 10  9  1  0  0  0  0
 11 15  1  6  0  0  0
 11 10  1  0  0  0  0
 12 13  2  0  0  0  0
 13 11  1  0  0  0  0
 14 13  1  0  0  0  0
 15 16  1  0  0  0  0
 16 17  1  6  0  0  0
 16 18  1  0  0  0  0
 19 18  1  0  0  0  0
 20  1  1  0  0  0  0
 21 22  2  0  0  0  0
 22 24  1  0  0  0  0
 22 20  1  0  0  0  0
 23 43  1  0  0  0  0
 23 24  2  0  0  0  0
 25 29  1  6  0  0  0
 25 27  1  0  0  0  0
 26 27  1  0  0  0  0
 27 23  1  1  0  0  0
 28 25  1  0  0  0  0
 28 26  1  0  0  0  0
 29 34  1  0  0  0  0
 31 30  1  0  0  0  0
 32 36  1  0  0  0  0
 32 30  2  0  0  0  0
 33 35  2  0  0  0  0
 33 34  1  0  0  0  0
 34 31  2  0  0  0  0
 35 32  1  0  0  0  0
 36 37  1  0  0  0  0
 38 37  1  0  0  0  0
 39 38  1  0  0  0  0
 40 41  1  0  0  0  0
 41 39  1  0  0  0  0
 43 42  1  0  0  0  0
 44 45  1  0  0  0  0
 45 46  2  0  0  0  0
 46 47  1  0  0  0  0
 48 49  2  0  0  0  0
 50 47  1  0  0  0  0
 50 48  1  0  0  0  0
 51 57  1  0  0  0  0
 54 53  1  6  0  0  0
 54 51  1  0  0  0  0
 54 56  1  0  0  0  0
 55 52  1  0  0  0  0
 56 55  1  0  0  0  0
 57 48  1  1  0  0  0
 57 52  1  0  0  0  0
M  END
>  <MODEL>
5

>  <REMARK>
 VINA RESULT:      -5.4      1.566      2.013
  Name = 
  26 active torsions:
  status: ('A' for Active; 'I' for Inactive)
    1  A    between atoms: C_1  and  C_14
    2  A    between atoms: C_2  and  C_38
    3  A    between atoms: C_2  and  C_51
    4  A    between atoms: C_3  and  N_45
    5  A    between atoms: C_4  and  C_39
    6  A    between atoms: C_7  and  C_15
    7  A    between atoms: C_8  and  C_40
    8  A    between atoms: C_8  and  C_47
    9  A    between atoms: C_9  and  C_43
   10  A    between atoms: N_10  and  N_13
   11  A    between atoms: N_10  and  N_33
   12  A    between atoms: C_11  and  C_18
   13  A    between atoms: C_11  and  C_23
   14  A    between atoms: N_13  and  C_23
   15  A    between atoms: C_14  and  C_52
   16  A    between atoms: C_15  and  N_33
   17  A    between atoms: C_18  and  C_19
   18  A    between atoms: C_22  and  C_56
   19  A    between atoms: C_23  and  C_31
   20  A    between atoms: S_24  and  C_37
   21  A    between atoms: S_24  and  C_40
   22  A    between atoms: C_28  and  N_45
   23  A    between atoms: C_34  and  C_39
   24  A    between atoms: C_34  and  N_53
   25  A    between atoms: C_35  and  C_47
   26  A    between atoms: N_36  and  C_43
                            x       y       z     vdW  Elec       q    Type
                         _______ _______ _______ _____ _____    ______ ____

>  <TORSDO>
F 26

$$$$
=
 OpenBabel10232409133D

 57 60  0  0  1  0  0  0  0  0999 V2000
  183.5660  179.1350  140.6300 C   0  0  0  0  0  0  0  0  0  0  0  0
  183.8330  178.8510  142.9840 C   0  0  0  0  0  0  0  0  0  0  0  0
  182.1660  178.9890  140.7580 C   0  0  0  0  0  0  0  0  0  0  0  0
  181.6280  178.7880  142.0310 C   0  0  0  0  0  3  0  0  0  0  0  0
  184.3470  179.0760  141.7470 N   0  0  0  0  0  0  0  0  0  0  0  0
  182.4580  178.7090  143.1490 C   0  0  0  0  0  3  0  0  0  0  0  0
  184.7360  178.7690  144.1690 C   0  0  0  0  0  2  0  0  0  0  0  0
  185.9440  178.0300  143.8240 N   0  0  0  0  0  2  0  0  0  0  0  0
  186.6380  177.7830  145.0170 N   0  0  0  0  0  2  0  0  0  0  0  0
  187.9950  178.0100  144.7530 N   0  0  0  0  0  2  0  0  0  0  0  0
  188.7470  177.0520  145.5510 C   0  0  2  0  0  3  0  0  0  0  0  0
  188.1200  176.3300  147.7490 O   0  0  0  0  0  1  0  0  0  0  0  0
  188.4890  177.2800  147.0070 C   0  0  0  0  0  0  0  0  0  0  0  0
  188.6340  178.5550  147.5390 O   0  0  0  0  0  0  0  0  0  0  0  0
  190.2310  177.1760  145.2240 C   0  0  0  0  0  2  0  0  0  0  0  0
  190.5290  176.8120  143.7720 C   0  0  2  0  0  3  0  0  0  0  0  0
  191.2530  175.6320  143.7230 F   0  0  0  0  0  0  0  0  0  0  0  0
  191.2720  177.9230  143.0290 C   0  0  0  0  0  2  0  0  0  0  0  0
  191.6040  179.0930  143.9440 C   0  0  0  0  0  1  0  0  0  0  0  0
  184.1970  179.5070  139.3180 C   0  0  0  0  0  2  0  0  0  0  0  0
  184.9140  177.6720  137.9790 O   0  0  0  0  0  0  0  0  0  0  0  0
  185.2090  178.5000  138.8820 C   0  0  0  0  0  0  0  0  0  0  0  0
  187.6080  177.9870  139.1190 C   0  0  0  0  0  0  0  0  0  0  0  0
  186.4710  178.4480  139.5670 N   0  0  0  0  0  0  0  0  0  0  0  0
  189.0560  176.7420  137.5630 C   0  0  1  0  0  3  0  0  0  0  0  0
  187.0620  176.2430  137.4710 N   0  0  0  0  0  2  0  0  0  0  0  0
  187.7710  177.4980  137.6940 C   0  0  1  0  0  3  0  0  0  0  0  0
  188.2720  175.5310  137.3570 N   0  0  0  0  0  2  0  0  0  0  0  0
  189.7600  177.1170  136.2680 C   0  0  0  0  0  2  0  0  0  0  0  0
  192.3330  174.8280  134.6970 C   0  0  0  0  0  3  0  0  0  0  0  0
  191.1720  175.5840  134.8900 C   0  0  0  0  0  3  0  0  0  0  0  0
  193.3090  174.7750  135.6990 C   0  0  0  0  0  0  0  0  0  0  0  0
  191.9600  176.2310  137.0900 C   0  0  0  0  0  3  0  0  0  0  0  0
  190.9830  176.2850  136.0860 C   0  0  0  0  0  0  0  0  0  0  0  0
  193.1220  175.4790  136.8950 C   0  0  0  0  0  3  0  0  0  0  0  0
  194.8150  173.8510  135.4310 S   0  0  0  0  0  0  0  0  0  0  0  0
  195.7550  175.3400  134.9700 C   0  0  0  0  0  2  0  0  0  0  0  0
  197.1430  174.9310  134.5320 C   0  0  0  0  0  2  0  0  0  0  0  0
  198.1590  175.4140  135.5530 C   0  0  0  0  0  2  0  0  0  0  0  0
  198.7920  174.1560  137.5920 C   0  0  0  0  0  1  0  0  0  0  0  0
  198.9410  174.2310  136.0850 C   0  0  0  0  0  2  0  0  0  0  0  0
  188.3960  178.6120  141.3110 N   0  0  0  0  0  1  0  0  0  0  0  0
  188.7910  178.0400  140.0340 C   0  0  0  0  0  2  0  0  0  0  0  0
  181.2590  179.0800  139.6520 N   0  0  0  0  0  2  0  0  0  0  0  0
  181.6540  179.1340  138.2810 C   0  0  0  0  0  3  0  0  0  0  0  0
  181.4590  178.1080  137.4600 C   0  0  0  0  0  3  0  0  0  0  0  0
  180.8010  176.8350  137.8980 C   0  0  0  0  0  2  0  0  0  0  0  0
  182.6120  175.0530  137.7740 C   0  0  0  0  0  0  0  0  0  0  0  0
  183.1470  175.4780  138.8340 O   0  0  0  0  0  0  0  0  0  0  0  0
  181.4340  175.6850  137.2610 N   0  0  0  0  0  2  0  0  0  0  0  0
  184.4810  173.3500  137.7200 C   0  0  0  0  0  2  0  0  0  0  0  0
  182.1360  172.6710  137.0740 C   0  0  0  0  0  2  0  0  0  0  0  0
  186.1270  172.8250  135.9120 C   0  0  0  0  0  1  0  0  0  0  0  0
  185.1180  172.2320  136.8770 C   0  0  2  0  0  3  0  0  0  0  0  0
  182.7740  171.2900  136.8590 C   0  0  0  0  0  2  0  0  0  0  0  0
  184.0960  171.3940  136.0950 C   0  0  0  0  0  2  0  0  0  0  0  0
  183.1600  173.8210  137.1030 C   0  0  1  0  0  3  0  0  0  0  0  0
  1  3  2  0  0  0  0
  1  5  1  0  0  0  0
  2  6  1  0  0  0  0
  2  7  1  0  0  0  0
  3  4  1  0  0  0  0
  4  6  2  0  0  0  0
  5  2  2  0  0  0  0
  8  7  1  0  0  0  0
  8  9  1  0  0  0  0
 10  9  1  0  0  0  0
 10 11  1  0  0  0  0
 11 15  1  1  0  0  0
 11 13  1  0  0  0  0
 13 14  2  0  0  0  0
 13 12  1  0  0  0  0
 16 17  1  1  0  0  0
 16 15  1  0  0  0  0
 18 16  1  0  0  0  0
 18 19  1  0  0  0  0
 20  1  1  0  0  0  0
 21 22  2  0  0  0  0
 22 20  1  0  0  0  0
 22 24  1  0  0  0  0
 23 24  2  0  0  0  0
 23 43  1  0  0  0  0
 25 29  1  6  0  0  0
 25 27  1  0  0  0  0
 26 27  1  0  0  0  0
 27 23  1  1  0  0  0
 28 26  1  0  0  0  0
 28 25  1  0  0  0  0
 30 31  2  0  0  0  0
 30 32  1  0  0  0  0
 31 34  1  0  0  0  0
 32 35  2  0  0  0  0
 34 29  1  0  0  0  0
 34 33  2  0  0  0  0
 35 33  1  0  0  0  0
 36 32  1  0  0  0  0
 37 36  1  0  0  0  0
 38 37  1  0  0  0  0
 38 39  1  0  0  0  0
 39 41  1  0  0  0  0
 41 40  1  0  0  0  0
 43 42  1  0  0  0  0
 44  3  1  0  0  0  0
 45 44  1  0  0  0  0
 46 47  1  0  0  0  0
 46 45  2  0  0  0  0
 48 49  2  0  0  0  0
 50 48  1  0  0  0  0
 50 47  1  0  0  0  0
 52 57  1  0  0  0  0
 54 53  1  6  0  0  0
 54 51  1  0  0  0  0
 55 52  1  0  0  0  0
 56 55  1  0  0  0  0
 56 54  1  0  0  0  0
 57 51  1  0  0  0  0
 57 48  1  1  0  0  0
M  END
>  <MODEL>
6

>  <REMARK>
 VINA RESULT:      -5.2      2.986      9.247
  Name = 
  26 active torsions:
  status: ('A' for Active; 'I' for Inactive)
    1  A    between atoms: C_1  and  C_14
    2  A    between atoms: C_2  and  C_38
    3  A    between atoms: C_2  and  C_51
    4  A    between atoms: C_3  and  N_45
    5  A    between atoms: C_4  and  C_39
    6  A    between atoms: C_7  and  C_15
    7  A    between atoms: C_8  and  C_40
    8  A    between atoms: C_8  and  C_47
    9  A    between atoms: C_9  and  C_43
   10  A    between atoms: N_10  and  N_13
   11  A    between atoms: N_10  and  N_33
   12  A    between atoms: C_11  and  C_18
   13  A    between atoms: C_11  and  C_23
   14  A    between atoms: N_13  and  C_23
   15  A    between atoms: C_14  and  C_52
   16  A    between atoms: C_15  and  N_33
   17  A    between atoms: C_18  and  C_19
   18  A    between atoms: C_22  and  C_56
   19  A    between atoms: C_23  and  C_31
   20  A    between atoms: S_24  and  C_37
   21  A    between atoms: S_24  and  C_40
   22  A    between atoms: C_28  and  N_45
   23  A    between atoms: C_34  and  C_39
   24  A    between atoms: C_34  and  N_53
   25  A    between atoms: C_35  and  C_47
   26  A    between atoms: N_36  and  C_43
                            x       y       z     vdW  Elec       q    Type
                         _______ _______ _______ _____ _____    ______ ____

>  <TORSDO>
F 26

$$$$
=
 OpenBabel10232409133D

 57 60  0  0  1  0  0  0  0  0999 V2000
  186.0230  178.1240  142.1710 C   0  0  0  0  0  0  0  0  0  0  0  0
  187.7510  178.2810  140.5330 C   0  0  0  0  0  0  0  0  0  0  0  0
  186.9880  178.0380  143.2000 C   0  0  0  0  0  0  0  0  0  0  0  0
  188.3410  178.0930  142.8550 C   0  0  0  0  0  3  0  0  0  0  0  0
  186.4380  178.2580  140.8780 N   0  0  0  0  0  0  0  0  0  0  0  0
  188.7300  178.2060  141.5200 C   0  0  0  0  0  3  0  0  0  0  0  0
  188.1490  178.4010  139.1000 C   0  0  0  0  0  2  0  0  0  0  0  0
  189.5570  178.0610  138.9430 N   0  0  0  0  0  2  0  0  0  0  0  0
  189.7080  177.4730  137.6790 N   0  0  0  0  0  2  0  0  0  0  0  0
  188.6610  176.5530  137.5310 N   0  0  0  0  0  2  0  0  0  0  0  0
  188.4640  176.3640  136.1020 C   0  0  2  0  0  3  0  0  0  0  0  0
  187.0010  178.0730  135.2730 O   0  0  0  0  0  0  0  0  0  0  0  0
  187.1250  176.8900  135.6920 C   0  0  0  0  0  0  0  0  0  0  0  0
  186.0050  176.0760  135.7990 O   0  0  0  0  0  1  0  0  0  0  0  0
  188.6060  174.8850  135.7620 C   0  0  0  0  0  2  0  0  0  0  0  0
  188.8250  174.0310  137.0090 C   0  0  2  0  0  3  0  0  0  0  0  0
  190.1770  173.7650  137.1630 F   0  0  0  0  0  0  0  0  0  0  0  0
  188.0280  172.7260  136.9730 C   0  0  0  0  0  2  0  0  0  0  0  0
  186.5500  172.9570  137.2560 C   0  0  0  0  0  1  0  0  0  0  0  0
  184.5570  178.2280  142.4810 C   0  0  0  0  0  2  0  0  0  0  0  0
  184.4620  179.5520  140.5030 O   0  0  0  0  0  0  0  0  0  0  0  0
  183.8200  178.9950  141.4330 C   0  0  0  0  0  0  0  0  0  0  0  0
  181.5170  179.2860  140.6070 C   0  0  0  0  0  0  0  0  0  0  0  0
  182.3970  179.1470  141.5610 N   0  0  0  0  0  0  0  0  0  0  0  0
  181.7790  177.7980  138.6610 C   0  0  1  0  0  3  0  0  0  0  0  0
  180.7780  179.5550  138.2750 N   0  0  0  0  0  2  0  0  0  0  0  0
  181.9000  179.2110  139.1430 C   0  0  1  0  0  3  0  0  0  0  0  0
  180.6600  178.2240  137.8290 N   0  0  0  0  0  2  0  0  0  0  0  0
  182.9620  177.4390  137.7760 C   0  0  0  0  0  2  0  0  0  0  0  0
  181.7660  174.8420  135.2950 C   0  0  0  0  0  3  0  0  0  0  0  0
  181.9610  176.0660  135.9440 C   0  0  0  0  0  3  0  0  0  0  0  0
  182.3410  173.6760  135.8120 C   0  0  0  0  0  0  0  0  0  0  0  0
  183.3050  174.9560  137.6300 C   0  0  0  0  0  3  0  0  0  0  0  0
  182.7290  176.1250  137.1120 C   0  0  0  0  0  0  0  0  0  0  0  0
  183.1120  173.7340  136.9790 C   0  0  0  0  0  3  0  0  0  0  0  0
  182.1340  172.1210  134.9550 S   0  0  0  0  0  0  0  0  0  0  0  0
  183.3910  171.2870  135.9720 C   0  0  0  0  0  2  0  0  0  0  0  0
  184.4340  170.6740  135.0650 C   0  0  0  0  0  2  0  0  0  0  0  0
  184.5510  169.1890  135.3580 C   0  0  0  0  0  2  0  0  0  0  0  0
  186.9360  169.7510  134.9860 C   0  0  0  0  0  1  0  0  0  0  0  0
  185.8770  168.6750  134.8390 C   0  0  0  0  0  2  0  0  0  0  0  0
  179.9820  180.2550  142.1960 N   0  0  0  0  0  1  0  0  0  0  0  0
  180.0800  179.4330  141.0010 C   0  0  0  0  0  2  0  0  0  0  0  0
  186.6540  177.9420  144.5900 N   0  0  0  0  0  2  0  0  0  0  0  0
  185.4290  178.4020  145.1630 C   0  0  0  0  0  3  0  0  0  0  0  0
  185.3280  178.6810  146.4580 C   0  0  0  0  0  3  0  0  0  0  0  0
  186.4830  178.5540  147.4050 C   0  0  0  0  0  2  0  0  0  0  0  0
  188.8590  177.6460  147.3920 C   0  0  0  0  0  0  0  0  0  0  0  0
  189.1010  178.1740  148.5110 O   0  0  0  0  0  0  0  0  0  0  0  0
  187.5680  177.7940  146.7920 N   0  0  0  0  0  2  0  0  0  0  0  0
  190.6150  177.4880  145.5780 C   0  0  0  0  0  2  0  0  0  0  0  0
  190.9250  176.2320  147.7470 C   0  0  0  0  0  2  0  0  0  0  0  0
  190.7510  175.9650  143.6000 C   0  0  0  0  0  1  0  0  0  0  0  0
  191.5080  176.5100  144.7960 C   0  0  2  0  0  3  0  0  0  0  0  0
  192.2400  175.7720  147.0980 C   0  0  0  0  0  2  0  0  0  0  0  0
  192.0290  175.3410  145.6460 C   0  0  0  0  0  2  0  0  0  0  0  0
  189.9020  176.7800  146.7340 C   0  0  1  0  0  3  0  0  0  0  0  0
  1 20  1  0  0  0  0
  1  3  1  0  0  0  0
  2  5  1  0  0  0  0
  2  6  2  0  0  0  0
  3 44  1  0  0  0  0
  4  3  2  0  0  0  0
  5  1  2  0  0  0  0
  6  4  1  0  0  0  0
  7  2  1  0  0  0  0
  8  7  1  0  0  0  0
  9  8  1  0  0  0  0
 10  9  1  0  0  0  0
 11 15  1  1  0  0  0
 11 10  1  0  0  0  0
 12 13  2  0  0  0  0
 13 14  1  0  0  0  0
 13 11  1  0  0  0  0
 15 16  1  0  0  0  0
 16 17  1  6  0  0  0
 18 16  1  0  0  0  0
 18 19  1  0  0  0  0
 21 22  2  0  0  0  0
 22 24  1  0  0  0  0
 22 20  1  0  0  0  0
 23 43  1  0  0  0  0
 23 24  2  0  0  0  0
 25 29  1  6  0  0  0
 25 27  1  0  0  0  0
 26 27  1  0  0  0  0
 27 23  1  1  0  0  0
 28 26  1  0  0  0  0
 28 25  1  0  0  0  0
 30 32  2  0  0  0  0
 30 31  1  0  0  0  0
 31 34  2  0  0  0  0
 32 35  1  0  0  0  0
 34 33  1  0  0  0  0
 34 29  1  0  0  0  0
 35 33  2  0  0  0  0
 36 32  1  0  0  0  0
 36 37  1  0  0  0  0
 38 39  1  0  0  0  0
 38 37  1  0  0  0  0
 41 40  1  0  0  0  0
 41 39  1  0  0  0  0
 43 42  1  0  0  0  0
 44 45  1  0  0  0  0
 45 46  2  0  0  0  0
 46 47  1  0  0  0  0
 48 49  2  0  0  0  0
 50 48  1  0  0  0  0
 50 47  1  0  0  0  0
 51 57  1  0  0  0  0
 54 53  1  6  0  0  0
 54 51  1  0  0  0  0
 54 56  1  0  0  0  0
 55 52  1  0  0  0  0
 56 55  1  0  0  0  0
 57 48  1  1  0  0  0
 57 52  1  0  0  0  0
M  END
>  <MODEL>
7

>  <REMARK>
 VINA RESULT:      -5.1      2.630      3.405
  Name = 
  26 active torsions:
  status: ('A' for Active; 'I' for Inactive)
    1  A    between atoms: C_1  and  C_14
    2  A    between atoms: C_2  and  C_38
    3  A    between atoms: C_2  and  C_51
    4  A    between atoms: C_3  and  N_45
    5  A    between atoms: C_4  and  C_39
    6  A    between atoms: C_7  and  C_15
    7  A    between atoms: C_8  and  C_40
    8  A    between atoms: C_8  and  C_47
    9  A    between atoms: C_9  and  C_43
   10  A    between atoms: N_10  and  N_13
   11  A    between atoms: N_10  and  N_33
   12  A    between atoms: C_11  and  C_18
   13  A    between atoms: C_11  and  C_23
   14  A    between atoms: N_13  and  C_23
   15  A    between atoms: C_14  and  C_52
   16  A    between atoms: C_15  and  N_33
   17  A    between atoms: C_18  and  C_19
   18  A    between atoms: C_22  and  C_56
   19  A    between atoms: C_23  and  C_31
   20  A    between atoms: S_24  and  C_37
   21  A    between atoms: S_24  and  C_40
   22  A    between atoms: C_28  and  N_45
   23  A    between atoms: C_34  and  C_39
   24  A    between atoms: C_34  and  N_53
   25  A    between atoms: C_35  and  C_47
   26  A    between atoms: N_36  and  C_43
                            x       y       z     vdW  Elec       q    Type
                         _______ _______ _______ _____ _____    ______ ____

>  <TORSDO>
F 26

$$$$
=
 OpenBabel10232409133D

 57 60  0  0  1  0  0  0  0  0999 V2000
  187.8600  177.9390  137.8620 C   0  0  0  0  0  0  0  0  0  0  0  0
  185.4750  177.9940  137.8440 C   0  0  0  0  0  0  0  0  0  0  0  0
  187.8730  177.4810  136.5250 C   0  0  0  0  0  0  0  0  0  0  0  0
  186.6530  177.3030  135.8670 C   0  0  0  0  0  3  0  0  0  0  0  0
  186.6650  178.1940  138.4680 N   0  0  0  0  0  0  0  0  0  0  0  0
  185.4480  177.5500  136.5250 C   0  0  0  0  0  3  0  0  0  0  0  0
  184.1960  178.2630  138.5640 C   0  0  0  0  0  2  0  0  0  0  0  0
  183.0640  177.9640  137.6960 N   0  0  0  0  0  2  0  0  0  0  0  0
  182.1810  177.1540  138.4250 N   0  0  0  0  0  2  0  0  0  0  0  0
  182.8200  175.9220  138.6120 N   0  0  0  0  0  2  0  0  0  0  0  0
  182.5530  175.1230  137.4240 C   0  0  2  0  0  3  0  0  0  0  0  0
  180.5470  174.3060  136.3980 O   0  0  0  0  0  0  0  0  0  0  0  0
  181.1560  174.5900  137.4650 C   0  0  0  0  0  0  0  0  0  0  0  0
  180.5170  174.4290  138.6880 O   0  0  0  0  0  1  0  0  0  0  0  0
  183.5750  173.9960  137.3320 C   0  0  0  0  0  2  0  0  0  0  0  0
  184.6320  174.2680  136.2640 C   0  0  2  0  0  3  0  0  0  0  0  0
  184.0180  174.4690  135.0370 F   0  0  0  0  0  0  0  0  0  0  0  0
  185.6670  173.1470  136.1630 C   0  0  0  0  0  2  0  0  0  0  0  0
  186.9230  173.6000  135.4330 C   0  0  0  0  0  1  0  0  0  0  0  0
  189.1310  178.3000  138.5770 C   0  0  0  0  0  2  0  0  0  0  0  0
  189.4550  175.9510  138.7950 O   0  0  0  0  0  0  0  0  0  0  0  0
  189.9700  177.0990  138.8630 C   0  0  0  0  0  0  0  0  0  0  0  0
  191.7650  177.4560  140.5120 C   0  0  0  0  0  0  0  0  0  0  0  0
  191.3270  177.2910  139.2930 N   0  0  0  0  0  0  0  0  0  0  0  0
  191.2740  176.2390  142.5970 C   0  0  1  0  0  3  0  0  0  0  0  0
  191.2590  178.2900  142.7710 N   0  0  0  0  0  2  0  0  0  0  0  0
  190.8480  177.3710  141.7150 C   0  0  1  0  0  3  0  0  0  0  0  0
  191.6680  177.2240  143.5970 N   0  0  0  0  0  2  0  0  0  0  0  0
  190.0600  175.4700  143.0930 C   0  0  0  0  0  2  0  0  0  0  0  0
  187.0770  177.8010  143.0830 C   0  0  0  0  0  3  0  0  0  0  0  0
  188.0890  176.9400  142.6460 C   0  0  0  0  0  3  0  0  0  0  0  0
  186.9790  178.1360  144.4390 C   0  0  0  0  0  0  0  0  0  0  0  0
  188.9100  176.7520  144.9200 C   0  0  0  0  0  3  0  0  0  0  0  0
  189.0070  176.4160  143.5630 C   0  0  0  0  0  0  0  0  0  0  0  0
  187.8960  177.6100  145.3570 C   0  0  0  0  0  3  0  0  0  0  0  0
  185.6550  179.1950  145.0050 S   0  0  0  0  0  0  0  0  0  0  0  0
  184.4330  178.4040  143.9140 C   0  0  0  0  0  2  0  0  0  0  0  0
  183.0570  178.5600  144.5200 C   0  0  0  0  0  2  0  0  0  0  0  0
  182.1300  179.2160  143.5110 C   0  0  0  0  0  2  0  0  0  0  0  0
  181.4870  179.3120  141.1200 C   0  0  0  0  0  1  0  0  0  0  0  0
  182.4380  178.6910  142.1250 C   0  0  0  0  0  2  0  0  0  0  0  0
  193.9580  176.5710  140.0330 N   0  0  0  0  0  1  0  0  0  0  0  0
  193.2380  177.6420  140.7030 C   0  0  0  0  0  2  0  0  0  0  0  0
  189.0760  177.2290  135.7880 N   0  0  0  0  0  2  0  0  0  0  0  0
  189.2900  176.0920  134.9500 C   0  0  0  0  0  3  0  0  0  0  0  0
  190.4670  175.4780  134.8990 C   0  0  0  0  0  3  0  0  0  0  0  0
  191.6440  175.9150  135.7170 C   0  0  0  0  0  2  0  0  0  0  0  0
  193.1350  174.2000  136.8620 C   0  0  0  0  0  0  0  0  0  0  0  0
  192.6050  174.4420  137.9820 O   0  0  0  0  0  0  0  0  0  0  0  0
  192.6910  174.8990  135.6940 N   0  0  0  0  0  2  0  0  0  0  0  0
  194.9890  172.9310  138.0240 C   0  0  0  0  0  2  0  0  0  0  0  0
  193.5450  171.7690  136.3090 C   0  0  0  0  0  2  0  0  0  0  0  0
  197.4180  172.7580  137.4580 C   0  0  0  0  0  1  0  0  0  0  0  0
  196.1670  171.9700  137.7950 C   0  0  2  0  0  3  0  0  0  0  0  0
  194.4250  170.5530  136.6370 C   0  0  0  0  0  2  0  0  0  0  0  0
  195.9060  170.9310  136.6940 C   0  0  0  0  0  2  0  0  0  0  0  0
  194.1660  173.1090  136.7430 C   0  0  1  0  0  3  0  0  0  0  0  0
  1  5  1  0  0  0  0
  1 20  1  0  0  0  0
  2  5  2  0  0  0  0
  2  7  1  0  0  0  0
  3  1  2  0  0  0  0
  4  6  2  0  0  0  0
  4  3  1  0  0  0  0
  6  2  1  0  0  0  0
  8  9  1  0  0  0  0
  8  7  1  0  0  0  0
  9 10  1  0  0  0  0
 11 15  1  1  0  0  0
 11 13  1  0  0  0  0
 11 10  1  0  0  0  0
 12 13  2  0  0  0  0
 13 14  1  0  0  0  0
 16 17  1  6  0  0  0
 16 15  1  0  0  0  0
 18 16  1  0  0  0  0
 19 18  1  0  0  0  0
 20 22  1  0  0  0  0
 21 22  2  0  0  0  0
 22 24  1  0  0  0  0
 23 43  1  0  0  0  0
 24 23  2  0  0  0  0
 25 29  1  1  0  0  0
 25 28  1  0  0  0  0
 26 28  1  0  0  0  0
 27 23  1  6  0  0  0
 27 25  1  0  0  0  0
 27 26  1  0  0  0  0
 29 34  1  0  0  0  0
 30 32  1  0  0  0  0
 31 30  2  0  0  0  0
 31 34  1  0  0  0  0
 32 36  1  0  0  0  0
 32 35  2  0  0  0  0
 33 35  1  0  0  0  0
 34 33  2  0  0  0  0
 37 38  1  0  0  0  0
 37 36  1  0  0  0  0
 39 38  1  0  0  0  0
 40 41  1  0  0  0  0
 41 39  1  0  0  0  0
 42 43  1  0  0  0  0
 44  3  1  0  0  0  0
 45 44  1  0  0  0  0
 46 45  2  0  0  0  0
 46 47  1  0  0  0  0
 48 49  2  0  0  0  0
 50 47  1  0  0  0  0
 50 48  1  0  0  0  0
 52 55  1  0  0  0  0
 52 57  1  0  0  0  0
 54 53  1  6  0  0  0
 54 51  1  0  0  0  0
 55 56  1  0  0  0  0
 56 54  1  0  0  0  0
 57 48  1  1  0  0  0
 57 51  1  0  0  0  0
M  END
>  <MODEL>
8

>  <REMARK>
 VINA RESULT:      -5.1      3.331      9.849
  Name = 
  26 active torsions:
  status: ('A' for Active; 'I' for Inactive)
    1  A    between atoms: C_1  and  C_14
    2  A    between atoms: C_2  and  C_38
    3  A    between atoms: C_2  and  C_51
    4  A    between atoms: C_3  and  N_45
    5  A    between atoms: C_4  and  C_39
    6  A    between atoms: C_7  and  C_15
    7  A    between atoms: C_8  and  C_40
    8  A    between atoms: C_8  and  C_47
    9  A    between atoms: C_9  and  C_43
   10  A    between atoms: N_10  and  N_13
   11  A    between atoms: N_10  and  N_33
   12  A    between atoms: C_11  and  C_18
   13  A    between atoms: C_11  and  C_23
   14  A    between atoms: N_13  and  C_23
   15  A    between atoms: C_14  and  C_52
   16  A    between atoms: C_15  and  N_33
   17  A    between atoms: C_18  and  C_19
   18  A    between atoms: C_22  and  C_56
   19  A    between atoms: C_23  and  C_31
   20  A    between atoms: S_24  and  C_37
   21  A    between atoms: S_24  and  C_40
   22  A    between atoms: C_28  and  N_45
   23  A    between atoms: C_34  and  C_39
   24  A    between atoms: C_34  and  N_53
   25  A    between atoms: C_35  and  C_47
   26  A    between atoms: N_36  and  C_43
                            x       y       z     vdW  Elec       q    Type
                         _______ _______ _______ _____ _____    ______ ____

>  <TORSDO>
F 26

$$$$
=
 OpenBabel10232409133D

 57 60  0  0  1  0  0  0  0  0999 V2000
  188.3890  177.8890  138.5450 C   0  0  0  0  0  0  0  0  0  0  0  0
  186.4950  177.2730  137.2310 C   0  0  0  0  0  0  0  0  0  0  0  0
  189.2400  177.1610  137.6820 C   0  0  0  0  0  0  0  0  0  0  0  0
  188.6780  176.5060  136.5840 C   0  0  0  0  0  3  0  0  0  0  0  0
  187.0520  177.9320  138.2800 N   0  0  0  0  0  0  0  0  0  0  0  0
  187.3020  176.5510  136.3570 C   0  0  0  0  0  3  0  0  0  0  0  0
  185.0210  177.3320  137.0050 C   0  0  0  0  0  2  0  0  0  0  0  0
  184.7320  177.2490  135.5790 N   0  0  0  0  0  2  0  0  0  0  0  0
  183.5670  176.4810  135.4320 N   0  0  0  0  0  2  0  0  0  0  0  0
  183.4460  175.7020  136.5890 N   0  0  0  0  0  2  0  0  0  0  0  0
  183.1560  174.3430  136.1550 C   0  0  2  0  0  3  0  0  0  0  0  0
  180.9170  174.4530  137.0030 O   0  0  0  0  0  1  0  0  0  0  0  0
  181.6780  174.1400  136.0470 C   0  0  0  0  0  0  0  0  0  0  0  0
  181.1430  173.5800  134.8940 O   0  0  0  0  0  0  0  0  0  0  0  0
  183.7830  173.3540  137.1320 C   0  0  0  0  0  2  0  0  0  0  0  0
  185.0420  172.7070  136.5610 C   0  0  2  0  0  3  0  0  0  0  0  0
  184.8860  171.3300  136.5230 F   0  0  0  0  0  0  0  0  0  0  0  0
  186.3000  173.0770  137.3490 C   0  0  0  0  0  2  0  0  0  0  0  0
  187.5430  172.4120  136.7770 C   0  0  0  0  0  1  0  0  0  0  0  0
  188.9410  178.7420  139.6510 C   0  0  0  0  0  2  0  0  0  0  0  0
  187.6950  179.0270  141.6610 O   0  0  0  0  0  0  0  0  0  0  0  0
  188.4680  178.2890  140.9920 C   0  0  0  0  0  0  0  0  0  0  0  0
  189.3130  176.7920  142.7570 C   0  0  0  0  0  0  0  0  0  0  0  0
  188.9770  177.0550  141.5230 N   0  0  0  0  0  0  0  0  0  0  0  0
  189.5040  177.1770  145.1830 C   0  0  1  0  0  3  0  0  0  0  0  0
  190.2590  178.6880  144.0080 N   0  0  0  0  0  2  0  0  0  0  0  0
  189.1130  177.7940  143.8760 C   0  0  1  0  0  3  0  0  0  0  0  0
  190.6300  178.1010  145.2340 N   0  0  0  0  0  2  0  0  0  0  0  0
  188.4960  177.5450  146.2610 C   0  0  0  0  0  2  0  0  0  0  0  0
  185.1030  179.1260  145.7010 C   0  0  0  0  0  3  0  0  0  0  0  0
  186.3250  178.7800  146.2880 C   0  0  0  0  0  3  0  0  0  0  0  0
  184.7370  178.5730  144.4680 C   0  0  0  0  0  0  0  0  0  0  0  0
  186.8130  177.3250  144.4110 C   0  0  0  0  0  3  0  0  0  0  0  0
  187.1810  177.8790  145.6460 C   0  0  0  0  0  0  0  0  0  0  0  0
  185.5940  177.6730  143.8230 C   0  0  0  0  0  3  0  0  0  0  0  0
  183.2000  179.0540  143.6930 S   0  0  0  0  0  0  0  0  0  0  0  0
  183.7090  178.4080  142.0700 C   0  0  0  0  0  2  0  0  0  0  0  0
  182.4770  178.0160  141.2870 C   0  0  0  0  0  2  0  0  0  0  0  0
  182.8860  177.5420  139.9030 C   0  0  0  0  0  2  0  0  0  0  0  0
  180.6070  177.3800  138.9420 C   0  0  0  0  0  1  0  0  0  0  0  0
  181.9350  178.1120  138.8720 C   0  0  0  0  0  2  0  0  0  0  0  0
  191.2720  175.4570  143.2050 N   0  0  0  0  0  1  0  0  0  0  0  0
  189.8260  175.4190  143.0620 C   0  0  0  0  0  2  0  0  0  0  0  0
  190.6620  177.0930  137.8480 N   0  0  0  0  0  2  0  0  0  0  0  0
  191.3520  176.0230  138.4980 C   0  0  0  0  0  3  0  0  0  0  0  0
  192.5620  175.6390  138.1090 C   0  0  0  0  0  3  0  0  0  0  0  0
  193.2970  176.2990  136.9820 C   0  0  0  0  0  2  0  0  0  0  0  0
  195.0370  174.7330  135.9850 C   0  0  0  0  0  0  0  0  0  0  0  0
  194.1790  174.2190  135.2160 O   0  0  0  0  0  0  0  0  0  0  0  0
  194.6590  175.7810  136.8840 N   0  0  0  0  0  2  0  0  0  0  0  0
  196.9310  173.4700  137.0870 C   0  0  0  0  0  2  0  0  0  0  0  0
  196.7770  173.5680  134.5690 C   0  0  0  0  0  2  0  0  0  0  0  0
  199.1450  174.2890  137.9110 C   0  0  0  0  0  1  0  0  0  0  0  0
  198.4520  173.2410  137.0620 C   0  0  2  0  0  3  0  0  0  0  0  0
  198.0500  172.7100  134.6240 C   0  0  0  0  0  2  0  0  0  0  0  0
  199.0500  173.2540  135.6470 C   0  0  0  0  0  2  0  0  0  0  0  0
  196.4780  174.3070  135.8870 C   0  0  1  0  0  3  0  0  0  0  0  0
  1 20  1  0  0  0  0
  2  5  2  0  0  0  0
  3 44  1  0  0  0  0
  3  1  2  0  0  0  0
  4  3  1  0  0  0  0
  5  1  1  0  0  0  0
  6  4  2  0  0  0  0
  6  2  1  0  0  0  0
  7  2  1  0  0  0  0
  8  7  1  0  0  0  0
  9  8  1  0  0  0  0
  9 10  1  0  0  0  0
 11 10  1  0  0  0  0
 11 15  1  1  0  0  0
 13 11  1  0  0  0  0
 13 12  1  0  0  0  0
 14 13  2  0  0  0  0
 16 17  1  1  0  0  0
 16 15  1  0  0  0  0
 16 18  1  0  0  0  0
 19 18  1  0  0  0  0
 20 22  1  0  0  0  0
 22 24  1  0  0  0  0
 22 21  2  0  0  0  0
 23 43  1  0  0  0  0
 24 23  2  0  0  0  0
 25 28  1  0  0  0  0
 25 29  1  1  0  0  0
 26 28  1  0  0  0  0
 27 23  1  6  0  0  0
 27 26  1  0  0  0  0
 27 25  1  0  0  0  0
 30 31  1  0  0  0  0
 32 30  2  0  0  0  0
 33 34  1  0  0  0  0
 34 29  1  0  0  0  0
 34 31  2  0  0  0  0
 35 33  2  0  0  0  0
 35 32  1  0  0  0  0
 36 32  1  0  0  0  0
 37 36  1  0  0  0  0
 38 37  1  0  0  0  0
 39 38  1  0  0  0  0
 41 40  1  0  0  0  0
 41 39  1  0  0  0  0
 43 42  1  0  0  0  0
 44 45  1  0  0  0  0
 46 45  2  0  0  0  0
 47 46  1  0  0  0  0
 48 50  1  0  0  0  0
 49 48  2  0  0  0  0
 50 47  1  0  0  0  0
 52 55  1  0  0  0  0
 52 57  1  0  0  0  0
 54 51  1  0  0  0  0
 54 53  1  1  0  0  0
 55 56  1  0  0  0  0
 56 54  1  0  0  0  0
 57 48  1  1  0  0  0
 57 51  1  0  0  0  0
M  END
>  <MODEL>
9

>  <REMARK>
 VINA RESULT:      -5.1      3.261      9.596
  Name = 
  26 active torsions:
  status: ('A' for Active; 'I' for Inactive)
    1  A    between atoms: C_1  and  C_14
    2  A    between atoms: C_2  and  C_38
    3  A    between atoms: C_2  and  C_51
    4  A    between atoms: C_3  and  N_45
    5  A    between atoms: C_4  and  C_39
    6  A    between atoms: C_7  and  C_15
    7  A    between atoms: C_8  and  C_40
    8  A    between atoms: C_8  and  C_47
    9  A    between atoms: C_9  and  C_43
   10  A    between atoms: N_10  and  N_13
   11  A    between atoms: N_10  and  N_33
   12  A    between atoms: C_11  and  C_18
   13  A    between atoms: C_11  and  C_23
   14  A    between atoms: N_13  and  C_23
   15  A    between atoms: C_14  and  C_52
   16  A    between atoms: C_15  and  N_33
   17  A    between atoms: C_18  and  C_19
   18  A    between atoms: C_22  and  C_56
   19  A    between atoms: C_23  and  C_31
   20  A    between atoms: S_24  and  C_37
   21  A    between atoms: S_24  and  C_40
   22  A    between atoms: C_28  and  N_45
   23  A    between atoms: C_34  and  C_39
   24  A    between atoms: C_34  and  N_53
   25  A    between atoms: C_35  and  C_47
   26  A    between atoms: N_36  and  C_43
                            x       y       z     vdW  Elec       q    Type
                         _______ _______ _______ _____ _____    ______ ____

>  <TORSDO>
F 26

$$$$
