=
 OpenBabel10232408443D

 55 59  0  0  1  0  0  0  0  0999 V2000
  185.8080  178.7160  139.3910 C   0  0  1  0  0  3  0  0  0  0  0  0
  185.3170  178.2690  138.0990 C   0  0  0  0  0  2  0  0  0  0  0  0
  184.1050  177.5900  138.3460 O   0  0  0  0  0  0  0  0  0  0  0  0
  183.5200  177.3240  137.0770 C   0  0  1  0  0  3  0  0  0  0  0  0
  183.4290  175.8160  136.7610 C   0  0  0  0  0  2  0  0  0  0  0  0
  184.1360  175.0760  137.7190 O   0  0  0  0  0  1  0  0  0  0  0  0
  182.0150  177.6710  137.0700 C   0  0  2  0  0  3  0  0  0  0  0  0
  181.6430  178.3180  135.7130 C   0  0  0  0  0  1  0  0  0  0  0  0
  182.0940  179.9360  138.4010 O   0  0  0  0  0  0  0  0  0  0  0  0
  181.5300  178.6550  138.1590 C   0  0  0  0  0  0  0  0  0  0  0  0
  180.5130  178.3510  138.8490 O   0  0  0  0  0  1  0  0  0  0  0  0
  184.7180  178.8590  140.2500 O   0  0  0  0  0  0  0  0  0  0  0  0
  185.9420  179.8570  142.0130 O   0  0  0  0  0  0  0  0  0  0  0  0
  182.6040  178.3420  141.8060 C   0  0  0  0  0  1  0  0  0  0  0  0
  184.9920  179.1250  141.6170 C   0  0  0  0  0  0  0  0  0  0  0  0
  183.7960  178.9510  142.3790 N   0  0  0  0  0  0  0  0  0  0  0  0
  183.7330  179.6570  143.6580 C   0  0  0  0  0  2  0  0  0  0  0  0
  184.0030  178.7580  144.8480 C   0  0  0  0  0  2  0  0  0  0  0  0
  185.1430  179.1680  145.7840 C   0  0  0  0  0  2  0  0  0  0  0  0
  185.8370  177.9260  146.3790 C   0  0  0  0  0  2  0  0  0  0  0  0
  189.0580  177.3220  144.1380 C   0  0  1  0  0  3  0  0  0  0  0  0
  191.7010  175.8170  143.9850 C   0  0  0  0  0  2  0  0  0  0  0  0
  188.3900  177.6410  146.8880 N   0  0  0  0  0  2  0  0  0  0  0  0
  191.4490  176.8150  145.2030 C   0  0  0  0  0  2  0  0  0  0  0  0
  189.6690  177.0990  146.6920 C   0  0  0  0  0  2  0  0  0  0  0  0
  190.4970  175.7040  142.8730 C   0  0  0  0  0  3  0  0  0  0  0  0
  187.5120  177.5480  144.5590 C   0  0  0  0  0  2  0  0  0  0  0  0
  189.9990  176.9200  145.4050 C   0  0  1  0  0  3  0  0  0  0  0  0
  189.3100  176.3110  143.0150 N   0  0  0  0  0  0  0  0  0  0  0  0
  187.2950  178.0550  145.9190 C   0  0  1  0  0  3  0  0  0  0  0  0
  187.0780  178.1250  139.9770 C   0  0  0  0  0  2  0  0  0  0  0  0
  187.7200  177.9840  138.5380 C   0  0  1  0  0  3  0  0  0  0  0  0
  188.5290  179.0470  137.9140 O   0  0  0  0  0  1  0  0  0  0  0  0
  188.1930  176.5990  138.1060 C   0  0  0  0  0  2  0  0  0  0  0  0
  193.3620  174.7330  137.0750 C   0  0  0  0  0  0  0  0  0  0  0  0
  190.6070  176.0190  137.8040 C   0  0  0  0  0  0  0  0  0  0  0  0
  190.5810  177.4620  139.6130 C   0  0  0  0  0  3  0  0  0  0  0  0
  194.3840  173.5910  136.7170 C   0  0  0  0  0  0  0  0  0  0  0  0
  191.6040  173.5180  135.9650 C   0  0  0  0  0  0  0  0  0  0  0  0
  190.0380  175.2610  136.6590 N   0  0  0  0  0  2  0  0  0  0  0  0
  192.3620  174.2850  136.5300 C   0  0  0  0  0  3  0  0  0  0  0  0
  194.3490  176.0010  138.8990 O   0  0  0  0  0  1  0  0  0  0  0  0
  190.1740  173.8410  136.1950 C   0  0  0  0  0  2  0  0  0  0  0  0
  191.8210  177.1010  139.5490 N   0  0  0  0  0  0  0  0  0  0  0  0
  193.7850  172.3180  135.8370 C   0  0  0  0  0  3  0  0  0  0  0  0
  193.2200  175.6490  138.1530 N   0  0  0  0  0  0  0  0  0  0  0  0
  191.8910  176.2760  138.4300 C   0  0  0  0  0  0  0  0  0  0  0  0
  192.3950  172.3220  135.5810 C   0  0  0  0  0  0  0  0  0  0  0  0
  189.6950  176.8690  138.4540 C   0  0  2  0  0  3  0  0  0  0  0  0
  191.5520  171.3140  135.2590 F   0  0  0  0  0  0  0  0  0  0  0  0
  195.8360  174.0870  136.6210 C   0  0  0  0  0  2  0  0  0  0  0  0
  196.5040  173.3620  137.8220 C   0  0  1  0  0  3  0  0  0  0  0  0
  195.5710  172.8090  138.7330 O   0  0  0  0  0  1  0  0  0  0  0  0
  196.8130  170.8150  137.2950 C   0  0  0  0  0  1  0  0  0  0  0  0
  197.4420  172.2000  137.4710 C   0  0  0  0  0  2  0  0  0  0  0  0
  1  2  1  6  0  0  0
  1 31  1  0  0  0  0
  1 12  1  0  0  0  0
  2  3  1  0  0  0  0
  4  5  1  1  0  0  0
  4  3  1  0  0  0  0
  5  6  1  0  0  0  0
  7  8  1  6  0  0  0
  7  4  1  0  0  0  0
  7 10  1  0  0  0  0
 10  9  2  0  0  0  0
 10 11  1  0  0  0  0
 12 15  1  0  0  0  0
 14 16  1  0  0  0  0
 15 13  2  0  0  0  0
 15 16  1  0  0  0  0
 16 17  1  0  0  0  0
 17 18  1  0  0  0  0
 18 19  1  0  0  0  0
 19 20  1  0  0  0  0
 21 27  1  1  0  0  0
 21 28  1  0  0  0  0
 22 24  1  0  0  0  0
 25 23  1  0  0  0  0
 26 29  2  0  0  0  0
 26 22  1  0  0  0  0
 27 30  1  0  0  0  0
 28 24  1  6  0  0  0
 28 25  1  0  0  0  0
 29 21  1  0  0  0  0
 30 20  1  1  0  0  0
 30 23  1  0  0  0  0
 32 33  1  1  0  0  0
 32 31  1  0  0  0  0
 34 32  1  0  0  0  0
 35 46  1  0  0  0  0
 36 47  2  0  0  0  0
 36 49  1  0  0  0  0
 38 35  1  0  0  0  0
 39 43  1  0  0  0  0
 39 41  1  0  0  0  0
 40 36  1  0  0  0  0
 41 35  2  0  0  0  0
 43 40  1  0  0  0  0
 44 37  2  0  0  0  0
 45 38  2  0  0  0  0
 46 47  1  0  0  0  0
 46 42  1  0  0  0  0
 47 44  1  0  0  0  0
 48 45  1  0  0  0  0
 48 39  2  0  0  0  0
 49 34  1  1  0  0  0
 49 37  1  0  0  0  0
 50 48  1  0  0  0  0
 51 38  1  0  0  0  0
 51 52  1  0  0  0  0
 52 53  1  1  0  0  0
 54 55  1  0  0  0  0
 55 52  1  0  0  0  0
M  END
>  <MODEL>
1

>  <REMARK>
 VINA RESULT:      -7.5      0.000      0.000
  Name = 
  20 active torsions:
  status: ('A' for Active; 'I' for Inactive)
    1  A    between atoms: C_8  and  C_39
    2  A    between atoms: C_9  and  C_28
    3  A    between atoms: C_9  and  C_33
    4  A    between atoms: C_10  and  C_29
    5  A    between atoms: C_12  and  C_17
    6  A    between atoms: C_12  and  C_55
    7  A    between atoms: C_15  and  C_39
    8  A    between atoms: C_15  and  C_52
    9  A    between atoms: C_17  and  C_49
   10  A    between atoms: C_18  and  C_44
   11  A    between atoms: O_27  and  C_46
   12  A    between atoms: O_27  and  C_55
   13  A    between atoms: C_28  and  C_31
   14  A    between atoms: C_29  and  C_44
   15  A    between atoms: C_31  and  N_51
   16  A    between atoms: O_32  and  C_36
   17  A    between atoms: O_32  and  C_44
   18  A    between atoms: C_33  and  C_50
   19  A    between atoms: C_36  and  C_55
   20  A    between atoms: C_40  and  C_49
                            x       y       z     vdW  Elec       q    Type
                         _______ _______ _______ _____ _____    ______ ____

>  <TORSDO>
F 20

$$$$
=
 OpenBabel10232408443D

 55 59  0  0  1  0  0  0  0  0999 V2000
  188.3890  177.8910  142.5720 C   0  0  1  0  0  3  0  0  0  0  0  0
  187.7600  176.9610  143.4940 C   0  0  0  0  0  2  0  0  0  0  0  0
  188.7220  176.6670  144.4830 O   0  0  0  0  0  0  0  0  0  0  0  0
  188.4500  177.5260  145.5840 C   0  0  1  0  0  3  0  0  0  0  0  0
  186.9960  177.4110  146.0910 C   0  0  0  0  0  2  0  0  0  0  0  0
  186.3500  178.6520  145.9960 O   0  0  0  0  0  1  0  0  0  0  0  0
  189.1930  177.0600  146.8550 C   0  0  2  0  0  3  0  0  0  0  0  0
  189.0170  178.1200  147.9710 C   0  0  0  0  0  1  0  0  0  0  0  0
  191.5600  177.5370  145.8170 O   0  0  0  0  0  0  0  0  0  0  0  0
  190.7170  176.8350  146.7180 C   0  0  0  0  0  0  0  0  0  0  0  0
  191.2880  176.0240  147.5050 O   0  0  0  0  0  1  0  0  0  0  0  0
  187.5100  178.9510  142.3490 O   0  0  0  0  0  0  0  0  0  0  0  0
  187.0750  178.4120  140.0860 O   0  0  0  0  0  0  0  0  0  0  0  0
  184.9150  179.2010  142.9490 C   0  0  0  0  0  1  0  0  0  0  0  0
  186.6930  178.8930  141.1900 C   0  0  0  0  0  0  0  0  0  0  0  0
  185.3200  178.9070  141.5810 N   0  0  0  0  0  0  0  0  0  0  0  0
  184.3680  178.3440  140.6250 C   0  0  0  0  0  2  0  0  0  0  0  0
  183.6990  179.3950  139.7620 C   0  0  0  0  0  2  0  0  0  0  0  0
  182.9850  178.9050  138.4990 C   0  0  0  0  0  2  0  0  0  0  0  0
  182.2650  177.5670  138.7590 C   0  0  0  0  0  2  0  0  0  0  0  0
  184.0950  174.4010  137.2140 C   0  0  1  0  0  3  0  0  0  0  0  0
  186.6720  173.4460  135.9040 C   0  0  0  0  0  2  0  0  0  0  0  0
  183.8270  177.1880  136.6920 N   0  0  0  0  0  2  0  0  0  0  0  0
  185.8370  174.6120  135.2070 C   0  0  0  0  0  2  0  0  0  0  0  0
  184.8990  176.6000  136.0040 C   0  0  0  0  0  2  0  0  0  0  0  0
  186.0430  172.8230  137.2870 C   0  0  0  0  0  3  0  0  0  0  0  0
  183.1920  175.3100  138.2010 C   0  0  0  0  0  2  0  0  0  0  0  0
  185.0590  175.2910  136.2490 C   0  0  1  0  0  3  0  0  0  0  0  0
  184.9530  173.3240  137.8860 N   0  0  0  0  0  0  0  0  0  0  0  0
  182.8150  176.6280  137.6770 C   0  0  1  0  0  3  0  0  0  0  0  0
  189.8630  178.2310  142.7100 C   0  0  0  0  0  2  0  0  0  0  0  0
  190.2540  177.1300  141.6440 C   0  0  1  0  0  3  0  0  0  0  0  0
  190.2470  175.6870  141.9430 O   0  0  0  0  0  1  0  0  0  0  0  0
  189.8940  177.3970  140.1860 C   0  0  0  0  0  2  0  0  0  0  0  0
  193.0980  174.8120  136.4020 C   0  0  0  0  0  0  0  0  0  0  0  0
  191.5590  176.4360  138.5860 C   0  0  0  0  0  0  0  0  0  0  0  0
  192.8450  177.4830  140.2000 C   0  0  0  0  0  3  0  0  0  0  0  0
  193.4480  173.5870  135.4790 C   0  0  0  0  0  0  0  0  0  0  0  0
  190.7720  174.1910  136.3560 C   0  0  0  0  0  0  0  0  0  0  0  0
  190.3080  176.0350  137.8910 N   0  0  0  0  0  2  0  0  0  0  0  0
  191.8830  174.6760  136.4630 C   0  0  0  0  0  3  0  0  0  0  0  0
  195.1740  175.4950  137.4670 O   0  0  0  0  0  1  0  0  0  0  0  0
  189.8060  174.7310  137.3450 C   0  0  0  0  0  2  0  0  0  0  0  0
  193.7310  176.9120  139.4500 N   0  0  0  0  0  0  0  0  0  0  0  0
  192.1720  172.6440  134.9920 C   0  0  0  0  0  3  0  0  0  0  0  0
  193.7760  175.5140  137.4360 N   0  0  0  0  0  0  0  0  0  0  0  0
  192.9970  176.3180  138.4270 C   0  0  0  0  0  0  0  0  0  0  0  0
  190.9060  172.9620  135.5340 C   0  0  0  0  0  0  0  0  0  0  0  0
  191.3710  177.3030  139.6760 C   0  0  2  0  0  3  0  0  0  0  0  0
  189.7860  172.2150  135.6640 F   0  0  0  0  0  0  0  0  0  0  0  0
  194.7160  173.8060  134.6380 C   0  0  0  0  0  2  0  0  0  0  0  0
  195.5590  172.5490  134.9930 C   0  0  1  0  0  3  0  0  0  0  0  0
  196.9500  172.7320  134.7950 O   0  0  0  0  0  1  0  0  0  0  0  0
  196.6220  172.2760  137.3710 C   0  0  0  0  0  1  0  0  0  0  0  0
  195.4350  172.0380  136.4340 C   0  0  0  0  0  2  0  0  0  0  0  0
  1 31  1  1  0  0  0
  1  2  1  0  0  0  0
  2  3  1  0  0  0  0
  3  4  1  0  0  0  0
  4  5  1  1  0  0  0
  4  7  1  0  0  0  0
  6  5  1  0  0  0  0
  7  8  1  1  0  0  0
  9 10  2  0  0  0  0
 10  7  1  0  0  0  0
 10 11  1  0  0  0  0
 12  1  1  0  0  0  0
 13 15  2  0  0  0  0
 15 16  1  0  0  0  0
 15 12  1  0  0  0  0
 16 14  1  0  0  0  0
 17 16  1  0  0  0  0
 18 17  1  0  0  0  0
 19 20  1  0  0  0  0
 19 18  1  0  0  0  0
 21 29  1  0  0  0  0
 21 27  1  1  0  0  0
 22 26  1  0  0  0  0
 23 30  1  0  0  0  0
 24 22  1  0  0  0  0
 25 28  1  0  0  0  0
 25 23  1  0  0  0  0
 26 29  2  0  0  0  0
 28 24  1  6  0  0  0
 28 21  1  0  0  0  0
 30 27  1  0  0  0  0
 30 20  1  1  0  0  0
 32 33  1  1  0  0  0
 32 31  1  0  0  0  0
 34 32  1  0  0  0  0
 35 41  1  0  0  0  0
 35 46  1  0  0  0  0
 36 49  1  0  0  0  0
 38 35  2  0  0  0  0
 39 41  2  0  0  0  0
 39 43  1  0  0  0  0
 40 36  1  0  0  0  0
 43 40  1  0  0  0  0
 44 37  2  0  0  0  0
 45 38  1  0  0  0  0
 45 48  2  0  0  0  0
 46 42  1  0  0  0  0
 46 47  1  0  0  0  0
 47 36  2  0  0  0  0
 47 44  1  0  0  0  0
 48 50  1  0  0  0  0
 48 39  1  0  0  0  0
 49 34  1  1  0  0  0
 49 37  1  0  0  0  0
 51 52  1  0  0  0  0
 51 38  1  0  0  0  0
 52 53  1  1  0  0  0
 52 55  1  0  0  0  0
 55 54  1  0  0  0  0
M  END
>  <MODEL>
2

>  <REMARK>
 VINA RESULT:      -7.3      2.747      6.826
  Name = 
  20 active torsions:
  status: ('A' for Active; 'I' for Inactive)
    1  A    between atoms: C_8  and  C_39
    2  A    between atoms: C_9  and  C_28
    3  A    between atoms: C_9  and  C_33
    4  A    between atoms: C_10  and  C_29
    5  A    between atoms: C_12  and  C_17
    6  A    between atoms: C_12  and  C_55
    7  A    between atoms: C_15  and  C_39
    8  A    between atoms: C_15  and  C_52
    9  A    between atoms: C_17  and  C_49
   10  A    between atoms: C_18  and  C_44
   11  A    between atoms: O_27  and  C_46
   12  A    between atoms: O_27  and  C_55
   13  A    between atoms: C_28  and  C_31
   14  A    between atoms: C_29  and  C_44
   15  A    between atoms: C_31  and  N_51
   16  A    between atoms: O_32  and  C_36
   17  A    between atoms: O_32  and  C_44
   18  A    between atoms: C_33  and  C_50
   19  A    between atoms: C_36  and  C_55
   20  A    between atoms: C_40  and  C_49
                            x       y       z     vdW  Elec       q    Type
                         _______ _______ _______ _____ _____    ______ ____

>  <TORSDO>
F 20

$$$$
=
 OpenBabel10232408443D

 55 59  0  0  1  0  0  0  0  0999 V2000
  184.1900  176.4690  137.6090 C   0  0  1  0  0  3  0  0  0  0  0  0
  183.3880  176.5890  136.4030 C   0  0  0  0  0  2  0  0  0  0  0  0
  183.0900  175.2730  135.9910 O   0  0  0  0  0  0  0  0  0  0  0  0
  181.7650  174.9980  136.4290 C   0  0  1  0  0  3  0  0  0  0  0  0
  180.6880  175.5370  135.4630 C   0  0  0  0  0  2  0  0  0  0  0  0
  180.5750  174.6990  134.3460 O   0  0  0  0  0  1  0  0  0  0  0  0
  181.4460  173.4900  136.3400 C   0  0  2  0  0  3  0  0  0  0  0  0
  180.7160  173.0410  137.6300 C   0  0  0  0  0  1  0  0  0  0  0  0
  183.2450  171.7970  137.2390 O   0  0  0  0  0  1  0  0  0  0  0  0
  182.6550  172.5390  136.1810 C   0  0  0  0  0  0  0  0  0  0  0  0
  183.1230  172.3350  135.0230 O   0  0  0  0  0  0  0  0  0  0  0  0
  185.4390  177.0420  137.3650 O   0  0  0  0  0  0  0  0  0  0  0  0
  186.5310  174.9440  137.2750 O   0  0  0  0  0  0  0  0  0  0  0  0
  186.8860  178.0540  135.3550 C   0  0  0  0  0  1  0  0  0  0  0  0
  186.4960  176.1740  136.9870 C   0  0  0  0  0  0  0  0  0  0  0  0
  187.1530  176.7050  135.8360 N   0  0  0  0  0  0  0  0  0  0  0  0
  187.8870  175.7480  135.0090 C   0  0  0  0  0  2  0  0  0  0  0  0
  189.3400  176.1280  134.8070 C   0  0  0  0  0  2  0  0  0  0  0  0
  190.1160  176.5870  136.0430 C   0  0  0  0  0  2  0  0  0  0  0  0
  190.4500  175.3900  136.9570 C   0  0  0  0  0  2  0  0  0  0  0  0
  194.1020  173.8540  137.2150 C   0  0  1  0  0  3  0  0  0  0  0  0
  197.0610  174.5560  137.3500 C   0  0  0  0  0  2  0  0  0  0  0  0
  192.7590  175.9740  135.8690 N   0  0  0  0  0  2  0  0  0  0  0  0
  196.2130  175.0240  136.0840 C   0  0  0  0  0  2  0  0  0  0  0  0
  194.1550  176.1100  135.8530 C   0  0  0  0  0  2  0  0  0  0  0  0
  196.2560  173.6890  138.4890 C   0  0  0  0  0  3  0  0  0  0  0  0
  192.5200  174.0800  137.4680 C   0  0  0  0  0  2  0  0  0  0  0  0
  194.8100  175.1340  136.4980 C   0  0  1  0  0  3  0  0  0  0  0  0
  194.9330  173.4730  138.4440 N   0  0  0  0  0  0  0  0  0  0  0  0
  191.8400  174.9370  136.4900 C   0  0  1  0  0  3  0  0  0  0  0  0
  183.5690  176.7180  138.9720 C   0  0  0  0  0  2  0  0  0  0  0  0
  183.3540  178.2480  138.6360 C   0  0  1  0  0  3  0  0  0  0  0  0
  182.0740  178.9450  138.8580 O   0  0  0  0  0  1  0  0  0  0  0  0
  184.5390  179.1890  138.8280 C   0  0  0  0  0  2  0  0  0  0  0  0
  187.9380  177.7000  143.0110 C   0  0  0  0  0  0  0  0  0  0  0  0
  185.8290  178.6180  140.8940 C   0  0  0  0  0  0  0  0  0  0  0  0
  183.6230  178.6940  141.5910 C   0  0  0  0  0  3  0  0  0  0  0  0
  189.1480  176.8820  143.5970 C   0  0  0  0  0  0  0  0  0  0  0  0
  188.9270  177.6030  140.8170 C   0  0  0  0  0  0  0  0  0  0  0  0
  186.9620  178.7640  139.9430 N   0  0  0  0  0  2  0  0  0  0  0  0
  188.3010  177.7860  141.8460 C   0  0  0  0  0  3  0  0  0  0  0  0
  186.1260  177.5060  144.6190 O   0  0  0  0  0  1  0  0  0  0  0  0
  188.1340  177.8940  139.5970 C   0  0  0  0  0  2  0  0  0  0  0  0
  184.2480  178.2970  142.6520 N   0  0  0  0  0  0  0  0  0  0  0  0
  190.3420  176.4640  142.5230 C   0  0  0  0  0  3  0  0  0  0  0  0
  186.5550  177.8040  143.3220 N   0  0  0  0  0  0  0  0  0  0  0  0
  185.5930  178.2970  142.2900 C   0  0  1  0  0  3  0  0  0  0  0  0
  190.1150  176.7850  141.1660 C   0  0  0  0  0  0  0  0  0  0  0  0
  184.5810  179.0170  140.3840 C   0  0  0  0  0  0  0  0  0  0  0  0
  190.6530  176.2760  140.0340 F   0  0  0  0  0  0  0  0  0  0  0  0
  189.4010  177.1610  145.0880 C   0  0  0  0  0  2  0  0  0  0  0  0
  190.9520  177.0950  145.1690 C   0  0  1  0  0  3  0  0  0  0  0  0
  191.5860  178.2990  144.7740 O   0  0  0  0  0  1  0  0  0  0  0  0
  192.2320  175.4230  146.7280 C   0  0  0  0  0  1  0  0  0  0  0  0
  191.5420  176.7790  146.5490 C   0  0  0  0  0  2  0  0  0  0  0  0
  1  2  1  6  0  0  0
  1 31  1  0  0  0  0
  3  2  1  0  0  0  0
  3  4  1  0  0  0  0
  4  5  1  6  0  0  0
  6  5  1  0  0  0  0
  7  4  1  0  0  0  0
  7  8  1  1  0  0  0
 10  7  1  0  0  0  0
 10  9  1  0  0  0  0
 11 10  2  0  0  0  0
 12  1  1  0  0  0  0
 14 16  1  0  0  0  0
 15 13  2  0  0  0  0
 15 12  1  0  0  0  0
 16 15  1  0  0  0  0
 17 16  1  0  0  0  0
 18 17  1  0  0  0  0
 18 19  1  0  0  0  0
 19 20  1  0  0  0  0
 21 27  1  1  0  0  0
 21 29  1  0  0  0  0
 22 26  1  0  0  0  0
 23 30  1  0  0  0  0
 24 28  1  0  0  0  0
 24 22  1  0  0  0  0
 25 23  1  0  0  0  0
 28 25  1  6  0  0  0
 28 21  1  0  0  0  0
 29 26  2  0  0  0  0
 30 20  1  1  0  0  0
 30 27  1  0  0  0  0
 32 34  1  0  0  0  0
 32 33  1  1  0  0  0
 32 31  1  0  0  0  0
 34 49  1  0  0  0  0
 35 46  1  0  0  0  0
 35 38  1  0  0  0  0
 37 44  2  0  0  0  0
 38 51  1  0  0  0  0
 39 48  2  0  0  0  0
 39 41  1  0  0  0  0
 40 36  1  0  0  0  0
 41 35  2  0  0  0  0
 43 40  1  0  0  0  0
 43 39  1  0  0  0  0
 45 38  2  0  0  0  0
 46 42  1  0  0  0  0
 47 36  1  6  0  0  0
 47 44  1  0  0  0  0
 47 46  1  0  0  0  0
 48 45  1  0  0  0  0
 49 36  2  0  0  0  0
 49 37  1  0  0  0  0
 50 48  1  0  0  0  0
 51 52  1  0  0  0  0
 52 53  1  1  0  0  0
 52 55  1  0  0  0  0
 55 54  1  0  0  0  0
M  END
>  <MODEL>
3

>  <REMARK>
 VINA RESULT:      -6.9      2.759      8.070
  Name = 
  20 active torsions:
  status: ('A' for Active; 'I' for Inactive)
    1  A    between atoms: C_8  and  C_39
    2  A    between atoms: C_9  and  C_28
    3  A    between atoms: C_9  and  C_33
    4  A    between atoms: C_10  and  C_29
    5  A    between atoms: C_12  and  C_17
    6  A    between atoms: C_12  and  C_55
    7  A    between atoms: C_15  and  C_39
    8  A    between atoms: C_15  and  C_52
    9  A    between atoms: C_17  and  C_49
   10  A    between atoms: C_18  and  C_44
   11  A    between atoms: O_27  and  C_46
   12  A    between atoms: O_27  and  C_55
   13  A    between atoms: C_28  and  C_31
   14  A    between atoms: C_29  and  C_44
   15  A    between atoms: C_31  and  N_51
   16  A    between atoms: O_32  and  C_36
   17  A    between atoms: O_32  and  C_44
   18  A    between atoms: C_33  and  C_50
   19  A    between atoms: C_36  and  C_55
   20  A    between atoms: C_40  and  C_49
                            x       y       z     vdW  Elec       q    Type
                         _______ _______ _______ _____ _____    ______ ____

>  <TORSDO>
F 20

$$$$
=
 OpenBabel10232408443D

 55 59  0  0  1  0  0  0  0  0999 V2000
  187.7400  177.8720  141.9340 C   0  0  1  0  0  3  0  0  0  0  0  0
  188.5850  178.4630  142.9570 C   0  0  0  0  0  2  0  0  0  0  0  0
  188.9270  177.4200  143.8430 O   0  0  0  0  0  0  0  0  0  0  0  0
  189.6540  178.0140  144.9120 C   0  0  1  0  0  3  0  0  0  0  0  0
  189.5560  177.2100  146.2260 C   0  0  0  0  0  2  0  0  0  0  0  0
  188.8010  177.9180  147.1720 O   0  0  0  0  0  1  0  0  0  0  0  0
  191.1770  177.9190  144.6750 C   0  0  2  0  0  3  0  0  0  0  0  0
  191.7060  179.2840  144.1680 C   0  0  0  0  0  1  0  0  0  0  0  0
  191.6440  175.4660  143.8570 O   0  0  0  0  0  1  0  0  0  0  0  0
  191.6490  176.8690  143.6430 C   0  0  0  0  0  0  0  0  0  0  0  0
  192.0010  177.2610  142.4920 O   0  0  0  0  0  0  0  0  0  0  0  0
  186.4640  177.6890  142.4690 O   0  0  0  0  0  0  0  0  0  0  0  0
  185.0590  179.3890  141.6110 O   0  0  0  0  0  0  0  0  0  0  0  0
  185.6090  178.0370  144.9800 C   0  0  0  0  0  1  0  0  0  0  0  0
  185.6330  178.8330  142.5890 C   0  0  0  0  0  0  0  0  0  0  0  0
  185.1090  178.8970  143.9160 N   0  0  0  0  0  0  0  0  0  0  0  0
  183.8720  179.6580  144.0890 C   0  0  0  0  0  2  0  0  0  0  0  0
  182.6280  178.7950  144.0180 C   0  0  0  0  0  2  0  0  0  0  0  0
  181.3930  179.4110  143.3580 C   0  0  0  0  0  2  0  0  0  0  0  0
  180.4040  178.3140  142.9130 C   0  0  0  0  0  2  0  0  0  0  0  0
  180.5840  177.1310  139.1280 C   0  0  1  0  0  3  0  0  0  0  0  0
  182.3600  177.0580  136.6560 C   0  0  0  0  0  2  0  0  0  0  0  0
  181.3870  179.3520  140.7190 N   0  0  0  0  0  2  0  0  0  0  0  0
  181.9750  178.4700  137.2900 C   0  0  0  0  0  2  0  0  0  0  0  0
  182.0300  179.3070  139.4730 C   0  0  0  0  0  2  0  0  0  0  0  0
  181.7280  175.7310  137.3890 C   0  0  0  0  0  3  0  0  0  0  0  0
  180.2640  177.1290  140.7140 C   0  0  0  0  0  2  0  0  0  0  0  0
  181.6830  178.2590  138.7130 C   0  0  1  0  0  3  0  0  0  0  0  0
  181.0220  175.7910  138.5270 N   0  0  0  0  0  0  0  0  0  0  0  0
  180.3790  178.4290  141.3830 C   0  0  1  0  0  3  0  0  0  0  0  0
  187.8240  178.3520  140.4960 C   0  0  0  0  0  2  0  0  0  0  0  0
  189.2110  177.6200  140.2940 C   0  0  1  0  0  3  0  0  0  0  0  0
  189.4830  176.2630  140.8030 O   0  0  0  0  0  1  0  0  0  0  0  0
  189.9740  177.8910  139.0010 C   0  0  0  0  0  2  0  0  0  0  0  0
  192.0180  173.3560  136.4490 C   0  0  0  0  0  0  0  0  0  0  0  0
  190.5910  175.7510  137.8650 C   0  0  0  0  0  0  0  0  0  0  0  0
  188.3110  175.9480  137.5270 C   0  0  0  0  0  3  0  0  0  0  0  0
  193.1010  172.6180  135.5780 C   0  0  0  0  0  0  0  0  0  0  0  0
  193.6760  174.9410  137.1810 C   0  0  0  0  0  0  0  0  0  0  0  0
  191.9240  176.1180  138.4130 N   0  0  0  0  0  2  0  0  0  0  0  0
  192.7220  174.2190  136.9540 C   0  0  0  0  0  3  0  0  0  0  0  0
  189.8500  172.6800  135.5790 O   0  0  0  0  0  1  0  0  0  0  0  0
  193.2910  176.2310  137.8070 C   0  0  0  0  0  2  0  0  0  0  0  0
  188.6140  174.8930  136.8430 N   0  0  0  0  0  0  0  0  0  0  0  0
  194.6410  173.2330  135.6440 C   0  0  0  0  0  3  0  0  0  0  0  0
  190.6170  173.5740  136.3330 N   0  0  0  0  0  0  0  0  0  0  0  0
  189.9740  174.7040  137.0710 C   0  0  0  0  0  0  0  0  0  0  0  0
  194.8180  174.4210  136.3890 C   0  0  0  0  0  0  0  0  0  0  0  0
  189.5310  176.5560  138.3150 C   0  0  2  0  0  3  0  0  0  0  0  0
  195.7900  175.3610  136.3380 F   0  0  0  0  0  0  0  0  0  0  0  0
  192.7850  171.1310  135.3520 C   0  0  0  0  0  2  0  0  0  0  0  0
  194.1200  170.4510  135.7710 C   0  0  1  0  0  3  0  0  0  0  0  0
  194.0760  169.8810  137.0670 O   0  0  0  0  0  1  0  0  0  0  0  0
  196.1080  168.9860  134.8990 C   0  0  0  0  0  1  0  0  0  0  0  0
  194.6130  169.3180  134.8630 C   0  0  0  0  0  2  0  0  0  0  0  0
  1 31  1  6  0  0  0
  1 12  1  0  0  0  0
  1  2  1  0  0  0  0
  2  3  1  0  0  0  0
  3  4  1  0  0  0  0
  4  5  1  1  0  0  0
  5  6  1  0  0  0  0
  7  8  1  6  0  0  0
  7  4  1  0  0  0  0
 10  9  1  0  0  0  0
 10  7  1  0  0  0  0
 11 10  2  0  0  0  0
 12 15  1  0  0  0  0
 13 15  2  0  0  0  0
 15 16  1  0  0  0  0
 16 17  1  0  0  0  0
 16 14  1  0  0  0  0
 18 17  1  0  0  0  0
 19 18  1  0  0  0  0
 20 19  1  0  0  0  0
 21 27  1  1  0  0  0
 22 24  1  0  0  0  0
 22 26  1  0  0  0  0
 23 30  1  0  0  0  0
 25 23  1  0  0  0  0
 26 29  2  0  0  0  0
 27 30  1  0  0  0  0
 28 24  1  6  0  0  0
 28 21  1  0  0  0  0
 28 25  1  0  0  0  0
 29 21  1  0  0  0  0
 30 20  1  1  0  0  0
 32 31  1  0  0  0  0
 32 33  1  6  0  0  0
 34 32  1  0  0  0  0
 35 41  1  0  0  0  0
 36 49  1  0  0  0  0
 36 40  1  0  0  0  0
 37 49  1  0  0  0  0
 38 45  1  0  0  0  0
 38 35  2  0  0  0  0
 39 43  1  0  0  0  0
 41 39  2  0  0  0  0
 42 46  1  0  0  0  0
 43 40  1  0  0  0  0
 44 47  1  0  0  0  0
 44 37  2  0  0  0  0
 45 48  2  0  0  0  0
 46 35  1  0  0  0  0
 46 47  1  0  0  0  0
 47 36  2  0  0  0  0
 48 39  1  0  0  0  0
 49 34  1  6  0  0  0
 50 48  1  0  0  0  0
 51 38  1  0  0  0  0
 51 52  1  0  0  0  0
 52 53  1  1  0  0  0
 55 54  1  0  0  0  0
 55 52  1  0  0  0  0
M  END
>  <MODEL>
4

>  <REMARK>
 VINA RESULT:      -6.8      2.613      6.921
  Name = 
  20 active torsions:
  status: ('A' for Active; 'I' for Inactive)
    1  A    between atoms: C_8  and  C_39
    2  A    between atoms: C_9  and  C_28
    3  A    between atoms: C_9  and  C_33
    4  A    between atoms: C_10  and  C_29
    5  A    between atoms: C_12  and  C_17
    6  A    between atoms: C_12  and  C_55
    7  A    between atoms: C_15  and  C_39
    8  A    between atoms: C_15  and  C_52
    9  A    between atoms: C_17  and  C_49
   10  A    between atoms: C_18  and  C_44
   11  A    between atoms: O_27  and  C_46
   12  A    between atoms: O_27  and  C_55
   13  A    between atoms: C_28  and  C_31
   14  A    between atoms: C_29  and  C_44
   15  A    between atoms: C_31  and  N_51
   16  A    between atoms: O_32  and  C_36
   17  A    between atoms: O_32  and  C_44
   18  A    between atoms: C_33  and  C_50
   19  A    between atoms: C_36  and  C_55
   20  A    between atoms: C_40  and  C_49
                            x       y       z     vdW  Elec       q    Type
                         _______ _______ _______ _____ _____    ______ ____

>  <TORSDO>
F 20

$$$$
=
 OpenBabel10232408443D

 55 59  0  0  1  0  0  0  0  0999 V2000
  187.0210  178.0120  144.3120 C   0  0  1  0  0  3  0  0  0  0  0  0
  188.3260  178.1050  144.9450 C   0  0  0  0  0  2  0  0  0  0  0  0
  188.3360  177.1470  145.9810 O   0  0  0  0  0  0  0  0  0  0  0  0
  189.6470  176.5980  146.0160 C   0  0  1  0  0  3  0  0  0  0  0  0
  190.7150  177.5530  145.4390 C   0  0  0  0  0  2  0  0  0  0  0  0
  191.3920  176.9380  144.3770 O   0  0  0  0  0  1  0  0  0  0  0  0
  190.1700  176.4880  147.4660 C   0  0  2  0  0  3  0  0  0  0  0  0
  189.8410  177.7940  148.2320 C   0  0  0  0  0  1  0  0  0  0  0  0
  192.4140  175.1750  147.0880 O   0  0  0  0  0  0  0  0  0  0  0  0
  191.6910  176.2670  147.6340 C   0  0  0  0  0  0  0  0  0  0  0  0
  192.3730  177.1480  148.2350 O   0  0  0  0  0  1  0  0  0  0  0  0
  187.2050  177.6770  142.9710 O   0  0  0  0  0  0  0  0  0  0  0  0
  188.4740  175.6790  142.9190 O   0  0  0  0  0  0  0  0  0  0  0  0
  188.6600  178.8310  141.0440 C   0  0  0  0  0  1  0  0  0  0  0  0
  188.3490  176.9050  142.6390 C   0  0  0  0  0  0  0  0  0  0  0  0
  189.0150  177.5040  141.5270 N   0  0  0  0  0  0  0  0  0  0  0  0
  189.8670  176.6220  140.7300 C   0  0  0  0  0  2  0  0  0  0  0  0
  190.1980  177.1890  139.3640 C   0  0  0  0  0  2  0  0  0  0  0  0
  189.0720  177.2030  138.3270 C   0  0  0  0  0  2  0  0  0  0  0  0
  189.3220  176.1470  137.2310 C   0  0  0  0  0  2  0  0  0  0  0  0
  187.4240  172.6800  136.8620 C   0  0  1  0  0  3  0  0  0  0  0  0
  184.9420  171.3460  135.7070 C   0  0  0  0  0  2  0  0  0  0  0  0
  186.8090  175.4210  137.3280 N   0  0  0  0  0  2  0  0  0  0  0  0
  184.7640  172.5250  136.7660 C   0  0  0  0  0  2  0  0  0  0  0  0
  185.6920  174.6640  136.9430 C   0  0  0  0  0  2  0  0  0  0  0  0
  186.4860  170.9190  135.3420 C   0  0  0  0  0  3  0  0  0  0  0  0
  188.6230  173.7640  136.9200 C   0  0  0  0  0  2  0  0  0  0  0  0
  185.9590  173.3740  136.6980 C   0  0  1  0  0  3  0  0  0  0  0  0
  187.5560  171.5840  135.7990 N   0  0  0  0  0  0  0  0  0  0  0  0
  188.2730  175.0620  137.5090 C   0  0  1  0  0  3  0  0  0  0  0  0
  185.8610  177.3530  145.0370 C   0  0  0  0  0  2  0  0  0  0  0  0
  185.1670  178.7540  145.2760 C   0  0  1  0  0  3  0  0  0  0  0  0
  185.3330  179.5300  146.5190 O   0  0  0  0  0  1  0  0  0  0  0  0
  184.9870  179.6700  144.0690 C   0  0  0  0  0  2  0  0  0  0  0  0
  182.1340  177.4580  139.8000 C   0  0  0  0  0  0  0  0  0  0  0  0
  183.4800  178.6230  142.3700 C   0  0  0  0  0  0  0  0  0  0  0  0
  182.0660  179.2430  144.0930 C   0  0  0  0  0  3  0  0  0  0  0  0
  181.8320  177.2930  138.2640 C   0  0  0  0  0  0  0  0  0  0  0  0
  184.4100  178.0610  139.2950 C   0  0  0  0  0  0  0  0  0  0  0  0
  184.7830  178.4230  141.6830 N   0  0  0  0  0  2  0  0  0  0  0  0
  183.3220  177.7430  139.7400 C   0  0  0  0  0  3  0  0  0  0  0  0
  179.9840  177.7080  140.9060 O   0  0  0  0  0  1  0  0  0  0  0  0
  185.2750  178.7280  140.2990 C   0  0  0  0  0  2  0  0  0  0  0  0
  181.2480  178.8030  143.1920 N   0  0  0  0  0  0  0  0  0  0  0  0
  183.1040  177.5590  137.2320 C   0  0  0  0  0  3  0  0  0  0  0  0
  181.3740  177.8580  140.9330 N   0  0  0  0  0  0  0  0  0  0  0  0
  182.0680  178.3610  142.1570 C   0  0  0  0  0  0  0  0  0  0  0  0
  184.3100  178.0110  137.8150 C   0  0  0  0  0  0  0  0  0  0  0  0
  183.5810  179.0970  143.6890 C   0  0  2  0  0  3  0  0  0  0  0  0
  185.3630  178.6670  137.2750 F   0  0  0  0  0  0  0  0  0  0  0  0
  180.6910  176.3040  137.9750 C   0  0  0  0  0  2  0  0  0  0  0  0
  181.4210  175.2010  137.1570 C   0  0  1  0  0  3  0  0  0  0  0  0
  181.4740  173.9520  137.8240 O   0  0  0  0  0  1  0  0  0  0  0  0
  181.5690  175.4240  134.5510 C   0  0  0  0  0  1  0  0  0  0  0  0
  180.8300  174.8810  135.7780 C   0  0  0  0  0  2  0  0  0  0  0  0
  1  2  1  1  0  0  0
  1 31  1  0  0  0  0
  2  3  1  0  0  0  0
  3  4  1  0  0  0  0
  4  5  1  6  0  0  0
  4  7  1  0  0  0  0
  6  5  1  0  0  0  0
  7 10  1  0  0  0  0
  7  8  1  1  0  0  0
  9 10  2  0  0  0  0
 10 11  1  0  0  0  0
 12  1  1  0  0  0  0
 14 16  1  0  0  0  0
 15 13  2  0  0  0  0
 15 12  1  0  0  0  0
 16 15  1  0  0  0  0
 17 16  1  0  0  0  0
 18 17  1  0  0  0  0
 19 18  1  0  0  0  0
 20 19  1  0  0  0  0
 21 27  1  6  0  0  0
 22 24  1  0  0  0  0
 23 30  1  0  0  0  0
 25 23  1  0  0  0  0
 26 22  1  0  0  0  0
 26 29  2  0  0  0  0
 27 30  1  0  0  0  0
 28 24  1  1  0  0  0
 28 21  1  0  0  0  0
 28 25  1  0  0  0  0
 29 21  1  0  0  0  0
 30 20  1  6  0  0  0
 31 32  1  0  0  0  0
 32 33  1  1  0  0  0
 34 32  1  0  0  0  0
 35 46  1  0  0  0  0
 36 49  1  0  0  0  0
 38 35  2  0  0  0  0
 39 41  2  0  0  0  0
 39 43  1  0  0  0  0
 40 36  1  0  0  0  0
 41 35  1  0  0  0  0
 42 46  1  0  0  0  0
 43 40  1  0  0  0  0
 44 37  2  0  0  0  0
 45 48  2  0  0  0  0
 45 38  1  0  0  0  0
 46 47  1  0  0  0  0
 47 36  2  0  0  0  0
 47 44  1  0  0  0  0
 48 39  1  0  0  0  0
 49 34  1  6  0  0  0
 49 37  1  0  0  0  0
 50 48  1  0  0  0  0
 51 38  1  0  0  0  0
 52 53  1  1  0  0  0
 52 51  1  0  0  0  0
 54 55  1  0  0  0  0
 55 52  1  0  0  0  0
M  END
>  <MODEL>
5

>  <REMARK>
 VINA RESULT:      -6.7      3.891     10.635
  Name = 
  20 active torsions:
  status: ('A' for Active; 'I' for Inactive)
    1  A    between atoms: C_8  and  C_39
    2  A    between atoms: C_9  and  C_28
    3  A    between atoms: C_9  and  C_33
    4  A    between atoms: C_10  and  C_29
    5  A    between atoms: C_12  and  C_17
    6  A    between atoms: C_12  and  C_55
    7  A    between atoms: C_15  and  C_39
    8  A    between atoms: C_15  and  C_52
    9  A    between atoms: C_17  and  C_49
   10  A    between atoms: C_18  and  C_44
   11  A    between atoms: O_27  and  C_46
   12  A    between atoms: O_27  and  C_55
   13  A    between atoms: C_28  and  C_31
   14  A    between atoms: C_29  and  C_44
   15  A    between atoms: C_31  and  N_51
   16  A    between atoms: O_32  and  C_36
   17  A    between atoms: O_32  and  C_44
   18  A    between atoms: C_33  and  C_50
   19  A    between atoms: C_36  and  C_55
   20  A    between atoms: C_40  and  C_49
                            x       y       z     vdW  Elec       q    Type
                         _______ _______ _______ _____ _____    ______ ____

>  <TORSDO>
F 20

$$$$
=
 OpenBabel10232408443D

 55 59  0  0  1  0  0  0  0  0999 V2000
  191.7610  175.8470  136.9510 C   0  0  1  0  0  3  0  0  0  0  0  0
  193.0950  175.6370  136.4160 C   0  0  0  0  0  2  0  0  0  0  0  0
  193.8350  174.9930  137.4300 O   0  0  0  0  0  0  0  0  0  0  0  0
  194.3580  173.8000  136.8580 C   0  0  1  0  0  3  0  0  0  0  0  0
  193.5410  173.3070  135.6440 C   0  0  0  0  0  2  0  0  0  0  0  0
  192.5890  172.3630  136.0530 O   0  0  0  0  0  1  0  0  0  0  0  0
  195.7100  174.0600  136.1580 C   0  0  2  0  0  3  0  0  0  0  0  0
  196.4760  172.7220  136.0060 C   0  0  0  0  0  1  0  0  0  0  0  0
  197.2410  176.1920  136.2830 O   0  0  0  0  0  0  0  0  0  0  0  0
  196.6800  175.0290  136.8720 C   0  0  0  0  0  0  0  0  0  0  0  0
  196.9520  174.8310  138.0930 O   0  0  0  0  0  1  0  0  0  0  0  0
  191.8370  175.8230  138.3440 O   0  0  0  0  0  0  0  0  0  0  0  0
  189.6580  176.3340  139.1130 O   0  0  0  0  0  0  0  0  0  0  0  0
  193.0140  177.3600  140.1910 C   0  0  0  0  0  1  0  0  0  0  0  0
  190.8920  176.5980  139.0650 C   0  0  0  0  0  0  0  0  0  0  0  0
  191.5610  177.3000  140.1140 N   0  0  0  0  0  0  0  0  0  0  0  0
  190.7350  177.7140  141.2470 C   0  0  0  0  0  2  0  0  0  0  0  0
  191.4480  177.5910  142.5790 C   0  0  0  0  0  2  0  0  0  0  0  0
  190.7460  178.1900  143.8000 C   0  0  0  0  0  2  0  0  0  0  0  0
  190.7590  177.1990  144.9820 C   0  0  0  0  0  2  0  0  0  0  0  0
  186.8190  177.3590  144.5230 C   0  0  1  0  0  3  0  0  0  0  0  0
  184.3060  178.8700  145.3450 C   0  0  0  0  0  2  0  0  0  0  0  0
  188.7500  177.6800  146.5910 N   0  0  0  0  0  2  0  0  0  0  0  0
  185.1980  178.1820  146.4730 C   0  0  0  0  0  2  0  0  0  0  0  0
  187.4920  178.2010  146.9270 C   0  0  0  0  0  2  0  0  0  0  0  0
  184.8130  178.6770  143.7940 C   0  0  0  0  0  3  0  0  0  0  0  0
  188.3900  177.1890  144.1760 C   0  0  0  0  0  2  0  0  0  0  0  0
  186.5700  178.0800  145.9620 C   0  0  1  0  0  3  0  0  0  0  0  0
  185.9700  178.0820  143.4710 N   0  0  0  0  0  0  0  0  0  0  0  0
  189.2760  177.0130  145.3310 C   0  0  1  0  0  3  0  0  0  0  0  0
  190.8360  176.8750  136.3260 C   0  0  0  0  0  2  0  0  0  0  0  0
  190.1050  175.7570  135.4790 C   0  0  1  0  0  3  0  0  0  0  0  0
  190.7650  175.0180  134.3880 O   0  0  0  0  0  1  0  0  0  0  0  0
  189.0730  174.8890  136.1930 C   0  0  0  0  0  2  0  0  0  0  0  0
  183.4840  175.0440  136.2290 C   0  0  0  0  0  0  0  0  0  0  0  0
  186.6010  175.2620  136.1220 C   0  0  0  0  0  0  0  0  0  0  0  0
  187.4800  176.9560  134.8140 C   0  0  0  0  0  3  0  0  0  0  0  0
  182.0720  174.3530  136.1600 C   0  0  0  0  0  0  0  0  0  0  0  0
  184.4480  173.0070  137.0780 C   0  0  0  0  0  0  0  0  0  0  0  0
  186.6360  174.0950  137.0420 N   0  0  0  0  0  2  0  0  0  0  0  0
  184.1360  174.1220  136.6990 C   0  0  0  0  0  3  0  0  0  0  0  0
  183.3760  176.9890  134.7740 O   0  0  0  0  0  1  0  0  0  0  0  0
  185.9140  172.7800  137.0650 C   0  0  0  0  0  2  0  0  0  0  0  0
  186.2040  177.1140  134.6720 N   0  0  0  0  0  0  0  0  0  0  0  0
  181.9980  172.7790  136.6810 C   0  0  0  0  0  3  0  0  0  0  0  0
  184.1430  176.0530  135.4750 N   0  0  0  0  0  0  0  0  0  0  0  0
  185.6350  176.1470  135.4970 C   0  0  0  0  0  0  0  0  0  0  0  0
  183.2230  172.1710  137.0370 C   0  0  0  0  0  0  0  0  0  0  0  0
  187.8610  175.8060  135.8190 C   0  0  2  0  0  3  0  0  0  0  0  0
  183.5710  170.8660  137.1210 F   0  0  0  0  0  0  0  0  0  0  0  0
  180.9060  175.3470  136.2800 C   0  0  0  0  0  2  0  0  0  0  0  0
  181.3980  176.2840  137.4190 C   0  0  1  0  0  3  0  0  0  0  0  0
  181.0590  177.6440  137.2110 O   0  0  0  0  0  1  0  0  0  0  0  0
  181.4820  176.7490  139.9960 C   0  0  0  0  0  1  0  0  0  0  0  0
  180.8790  175.9640  138.8270 C   0  0  0  0  0  2  0  0  0  0  0  0
  1 31  1  1  0  0  0
  1 12  1  0  0  0  0
  2  1  1  0  0  0  0
  2  3  1  0  0  0  0
  4  5  1  6  0  0  0
  4  3  1  0  0  0  0
  5  6  1  0  0  0  0
  7  8  1  1  0  0  0
  7  4  1  0  0  0  0
  7 10  1  0  0  0  0
  9 10  2  0  0  0  0
 10 11  1  0  0  0  0
 12 15  1  0  0  0  0
 15 13  2  0  0  0  0
 15 16  1  0  0  0  0
 16 14  1  0  0  0  0
 16 17  1  0  0  0  0
 17 18  1  0  0  0  0
 18 19  1  0  0  0  0
 19 20  1  0  0  0  0
 21 27  1  6  0  0  0
 21 28  1  0  0  0  0
 22 24  1  0  0  0  0
 23 25  1  0  0  0  0
 26 22  1  0  0  0  0
 27 30  1  0  0  0  0
 28 24  1  1  0  0  0
 28 25  1  0  0  0  0
 29 26  2  0  0  0  0
 29 21  1  0  0  0  0
 30 20  1  6  0  0  0
 30 23  1  0  0  0  0
 32 33  1  1  0  0  0
 32 34  1  0  0  0  0
 32 31  1  0  0  0  0
 35 41  1  0  0  0  0
 36 40  1  0  0  0  0
 37 49  1  0  0  0  0
 38 35  2  0  0  0  0
 38 51  1  0  0  0  0
 38 45  1  0  0  0  0
 40 43  1  0  0  0  0
 41 39  2  0  0  0  0
 42 46  1  0  0  0  0
 43 39  1  0  0  0  0
 44 37  2  0  0  0  0
 44 47  1  0  0  0  0
 45 48  2  0  0  0  0
 46 47  1  0  0  0  0
 46 35  1  0  0  0  0
 47 36  2  0  0  0  0
 48 39  1  0  0  0  0
 48 50  1  0  0  0  0
 49 36  1  0  0  0  0
 49 34  1  6  0  0  0
 51 52  1  0  0  0  0
 52 53  1  6  0  0  0
 52 55  1  0  0  0  0
 55 54  1  0  0  0  0
M  END
>  <MODEL>
6

>  <REMARK>
 VINA RESULT:      -6.6      2.734      9.464
  Name = 
  20 active torsions:
  status: ('A' for Active; 'I' for Inactive)
    1  A    between atoms: C_8  and  C_39
    2  A    between atoms: C_9  and  C_28
    3  A    between atoms: C_9  and  C_33
    4  A    between atoms: C_10  and  C_29
    5  A    between atoms: C_12  and  C_17
    6  A    between atoms: C_12  and  C_55
    7  A    between atoms: C_15  and  C_39
    8  A    between atoms: C_15  and  C_52
    9  A    between atoms: C_17  and  C_49
   10  A    between atoms: C_18  and  C_44
   11  A    between atoms: O_27  and  C_46
   12  A    between atoms: O_27  and  C_55
   13  A    between atoms: C_28  and  C_31
   14  A    between atoms: C_29  and  C_44
   15  A    between atoms: C_31  and  N_51
   16  A    between atoms: O_32  and  C_36
   17  A    between atoms: O_32  and  C_44
   18  A    between atoms: C_33  and  C_50
   19  A    between atoms: C_36  and  C_55
   20  A    between atoms: C_40  and  C_49
                            x       y       z     vdW  Elec       q    Type
                         _______ _______ _______ _____ _____    ______ ____

>  <TORSDO>
F 20

$$$$
=
 OpenBabel10232408443D

 55 59  0  0  1  0  0  0  0  0999 V2000
  192.6560  174.9470  135.8290 C   0  0  1  0  0  3  0  0  0  0  0  0
  194.0490  174.5400  135.9170 C   0  0  0  0  0  2  0  0  0  0  0  0
  194.0470  173.2110  136.3920 O   0  0  0  0  0  0  0  0  0  0  0  0
  195.0750  173.1260  137.3700 C   0  0  1  0  0  3  0  0  0  0  0  0
  195.7810  171.7520  137.3840 C   0  0  0  0  0  2  0  0  0  0  0  0
  195.3370  170.9900  138.4730 O   0  0  0  0  0  1  0  0  0  0  0  0
  196.2790  174.0200  136.9980 C   0  0  2  0  0  3  0  0  0  0  0  0
  197.1770  173.2750  135.9800 C   0  0  0  0  0  1  0  0  0  0  0  0
  196.7700  175.0320  139.3730 O   0  0  0  0  0  1  0  0  0  0  0  0
  197.2090  174.4410  138.1590 C   0  0  0  0  0  0  0  0  0  0  0  0
  198.4450  174.1840  138.0750 O   0  0  0  0  0  0  0  0  0  0  0  0
  192.5040  176.1460  136.5240 O   0  0  0  0  0  0  0  0  0  0  0  0
  193.8100  176.1930  138.4970 O   0  0  0  0  0  0  0  0  0  0  0  0
  190.2380  176.7160  137.8280 C   0  0  0  0  0  1  0  0  0  0  0  0
  192.6840  176.1160  137.9320 C   0  0  0  0  0  0  0  0  0  0  0  0
  191.4800  176.5470  138.5700 N   0  0  0  0  0  0  0  0  0  0  0  0
  191.6180  177.0730  139.9270 C   0  0  0  0  0  2  0  0  0  0  0  0
  190.3350  176.9960  140.7280 C   0  0  0  0  0  2  0  0  0  0  0  0
  190.3950  177.4640  142.1840 C   0  0  0  0  0  2  0  0  0  0  0  0
  190.6770  176.2800  143.1310 C   0  0  0  0  0  2  0  0  0  0  0  0
  187.0810  177.1340  144.5780 C   0  0  1  0  0  3  0  0  0  0  0  0
  185.5620  178.9870  146.4570 C   0  0  0  0  0  2  0  0  0  0  0  0
  189.7750  176.9800  145.4870 N   0  0  0  0  0  2  0  0  0  0  0  0
  186.7360  178.0820  147.0450 C   0  0  0  0  0  2  0  0  0  0  0  0
  188.9370  177.6820  146.3660 C   0  0  0  0  0  2  0  0  0  0  0  0
  185.2440  178.8190  144.8540 C   0  0  0  0  0  3  0  0  0  0  0  0
  188.2490  176.7250  143.5350 C   0  0  0  0  0  2  0  0  0  0  0  0
  187.6670  177.7850  145.9510 C   0  0  1  0  0  3  0  0  0  0  0  0
  185.9880  178.0610  144.0360 N   0  0  0  0  0  0  0  0  0  0  0  0
  189.5230  176.3230  144.1410 C   0  0  1  0  0  3  0  0  0  0  0  0
  191.8960  174.8020  134.5230 C   0  0  0  0  0  2  0  0  0  0  0  0
  190.9990  173.6490  135.1310 C   0  0  1  0  0  3  0  0  0  0  0  0
  190.9000  173.3890  136.5780 O   0  0  0  0  0  1  0  0  0  0  0  0
  189.6930  173.3180  134.4160 C   0  0  0  0  0  2  0  0  0  0  0  0
  185.0080  174.8610  137.0490 C   0  0  0  0  0  0  0  0  0  0  0  0
  187.7240  174.2980  135.6060 C   0  0  0  0  0  0  0  0  0  0  0  0
  188.7930  176.1190  134.6590 C   0  0  0  0  0  3  0  0  0  0  0  0
  183.4900  174.6680  137.4170 C   0  0  0  0  0  0  0  0  0  0  0  0
  185.2220  172.4930  136.6640 C   0  0  0  0  0  0  0  0  0  0  0  0
  187.5380  172.8720  135.9820 N   0  0  0  0  0  2  0  0  0  0  0  0
  185.3140  173.6940  136.8470 C   0  0  0  0  0  3  0  0  0  0  0  0
  185.2980  177.2140  136.5120 O   0  0  0  0  0  1  0  0  0  0  0  0
  186.3710  171.9320  135.9110 C   0  0  0  0  0  2  0  0  0  0  0  0
  187.7290  176.6440  135.1750 N   0  0  0  0  0  0  0  0  0  0  0  0
  182.9160  173.1110  137.3810 C   0  0  0  0  0  3  0  0  0  0  0  0
  185.7680  175.8980  136.4440 N   0  0  0  0  0  0  0  0  0  0  0  0
  187.0860  175.5860  135.8100 C   0  0  1  0  0  3  0  0  0  0  0  0
  183.8100  172.1170  136.9230 C   0  0  0  0  0  0  0  0  0  0  0  0
  188.9360  174.5780  134.9520 C   0  0  0  0  0  0  0  0  0  0  0  0
  183.5780  170.8840  136.4170 F   0  0  0  0  0  0  0  0  0  0  0  0
  182.9550  175.7530  138.3670 C   0  0  0  0  0  2  0  0  0  0  0  0
  182.0530  176.5930  137.4200 C   0  0  1  0  0  3  0  0  0  0  0  0
  180.6870  176.2200  137.4690 O   0  0  0  0  0  1  0  0  0  0  0  0
  180.9430  178.9270  136.9910 C   0  0  0  0  0  1  0  0  0  0  0  0
  182.0520  178.1090  137.6590 C   0  0  0  0  0  2  0  0  0  0  0  0
  1 31  1  6  0  0  0
  1  2  1  0  0  0  0
  1 12  1  0  0  0  0
  2  3  1  0  0  0  0
  3  4  1  0  0  0  0
  4  5  1  6  0  0  0
  5  6  1  0  0  0  0
  7  8  1  6  0  0  0
  7  4  1  0  0  0  0
  7 10  1  0  0  0  0
 10  9  1  0  0  0  0
 11 10  2  0  0  0  0
 12 15  1  0  0  0  0
 14 16  1  0  0  0  0
 15 13  2  0  0  0  0
 15 16  1  0  0  0  0
 16 17  1  0  0  0  0
 17 18  1  0  0  0  0
 18 19  1  0  0  0  0
 19 20  1  0  0  0  0
 21 27  1  6  0  0  0
 21 28  1  0  0  0  0
 22 24  1  0  0  0  0
 23 25  1  0  0  0  0
 26 22  1  0  0  0  0
 27 30  1  0  0  0  0
 28 25  1  1  0  0  0
 28 24  1  0  0  0  0
 29 21  1  0  0  0  0
 29 26  2  0  0  0  0
 30 20  1  6  0  0  0
 30 23  1  0  0  0  0
 31 32  1  0  0  0  0
 32 33  1  1  0  0  0
 34 49  1  0  0  0  0
 34 32  1  0  0  0  0
 35 38  1  0  0  0  0
 36 47  1  0  0  0  0
 36 40  1  0  0  0  0
 37 49  1  0  0  0  0
 37 44  2  0  0  0  0
 38 51  1  0  0  0  0
 39 41  1  0  0  0  0
 39 48  2  0  0  0  0
 41 35  2  0  0  0  0
 43 40  1  0  0  0  0
 43 39  1  0  0  0  0
 45 38  2  0  0  0  0
 46 42  1  0  0  0  0
 46 35  1  0  0  0  0
 47 44  1  6  0  0  0
 47 46  1  0  0  0  0
 48 45  1  0  0  0  0
 49 36  2  0  0  0  0
 50 48  1  0  0  0  0
 52 53  1  1  0  0  0
 52 55  1  0  0  0  0
 52 51  1  0  0  0  0
 54 55  1  0  0  0  0
M  END
>  <MODEL>
7

>  <REMARK>
 VINA RESULT:      -6.5      2.493      9.646
  Name = 
  20 active torsions:
  status: ('A' for Active; 'I' for Inactive)
    1  A    between atoms: C_8  and  C_39
    2  A    between atoms: C_9  and  C_28
    3  A    between atoms: C_9  and  C_33
    4  A    between atoms: C_10  and  C_29
    5  A    between atoms: C_12  and  C_17
    6  A    between atoms: C_12  and  C_55
    7  A    between atoms: C_15  and  C_39
    8  A    between atoms: C_15  and  C_52
    9  A    between atoms: C_17  and  C_49
   10  A    between atoms: C_18  and  C_44
   11  A    between atoms: O_27  and  C_46
   12  A    between atoms: O_27  and  C_55
   13  A    between atoms: C_28  and  C_31
   14  A    between atoms: C_29  and  C_44
   15  A    between atoms: C_31  and  N_51
   16  A    between atoms: O_32  and  C_36
   17  A    between atoms: O_32  and  C_44
   18  A    between atoms: C_33  and  C_50
   19  A    between atoms: C_36  and  C_55
   20  A    between atoms: C_40  and  C_49
                            x       y       z     vdW  Elec       q    Type
                         _______ _______ _______ _____ _____    ______ ____

>  <TORSDO>
F 20

$$$$
=
 OpenBabel10232408443D

 55 59  0  0  1  0  0  0  0  0999 V2000
  187.4750  177.7670  143.6100 C   0  0  1  0  0  3  0  0  0  0  0  0
  188.1000  176.9040  144.5980 C   0  0  0  0  0  2  0  0  0  0  0  0
  187.9290  177.5380  145.8470 O   0  0  0  0  0  0  0  0  0  0  0  0
  189.2280  177.8850  146.3090 C   0  0  1  0  0  3  0  0  0  0  0  0
  189.3660  177.7880  147.8450 C   0  0  0  0  0  2  0  0  0  0  0  0
  188.1020  177.8400  148.4480 O   0  0  0  0  0  1  0  0  0  0  0  0
  190.2720  176.8240  145.8990 C   0  0  2  0  0  3  0  0  0  0  0  0
  191.2140  176.5380  147.0950 C   0  0  0  0  0  1  0  0  0  0  0  0
  191.6400  178.4980  144.4050 O   0  0  0  0  0  1  0  0  0  0  0  0
  191.1910  177.1860  144.7100 C   0  0  0  0  0  0  0  0  0  0  0  0
  191.6480  176.2540  143.9850 O   0  0  0  0  0  0  0  0  0  0  0  0
  186.3230  178.3160  144.1720 O   0  0  0  0  0  0  0  0  0  0  0  0
  185.1390  178.0490  142.1410 O   0  0  0  0  0  0  0  0  0  0  0  0
  184.1080  178.8720  145.5670 C   0  0  0  0  0  1  0  0  0  0  0  0
  185.1940  178.4770  143.3270 C   0  0  0  0  0  0  0  0  0  0  0  0
  184.0250  178.6480  144.1300 N   0  0  0  0  0  0  0  0  0  0  0  0
  182.7500  178.3120  143.4990 C   0  0  0  0  0  2  0  0  0  0  0  0
  181.9300  179.5310  143.1280 C   0  0  0  0  0  2  0  0  0  0  0  0
  181.0440  179.4210  141.8850 C   0  0  0  0  0  2  0  0  0  0  0  0
  180.9070  177.9510  141.4370 C   0  0  0  0  0  2  0  0  0  0  0  0
  182.7420  176.4300  138.2620 C   0  0  1  0  0  3  0  0  0  0  0  0
  185.4230  176.2270  136.8330 C   0  0  0  0  0  2  0  0  0  0  0  0
  182.7430  178.8320  139.7910 N   0  0  0  0  0  2  0  0  0  0  0  0
  184.7850  177.6670  137.0790 C   0  0  0  0  0  2  0  0  0  0  0  0
  183.8680  178.7070  138.9620 C   0  0  0  0  0  2  0  0  0  0  0  0
  184.5460  174.9410  137.3580 C   0  0  0  0  0  3  0  0  0  0  0  0
  181.7580  176.5590  139.5400 C   0  0  0  0  0  2  0  0  0  0  0  0
  183.9010  177.5740  138.2460 C   0  0  1  0  0  3  0  0  0  0  0  0
  183.4120  175.0670  138.0620 N   0  0  0  0  0  0  0  0  0  0  0  0
  181.5550  177.9210  140.0460 C   0  0  1  0  0  3  0  0  0  0  0  0
  188.3230  178.6780  142.7400 C   0  0  0  0  0  2  0  0  0  0  0  0
  188.7610  177.4610  141.8290 C   0  0  1  0  0  3  0  0  0  0  0  0
  188.6050  176.0550  142.2410 O   0  0  0  0  0  1  0  0  0  0  0  0
  188.6100  177.6170  140.3190 C   0  0  0  0  0  2  0  0  0  0  0  0
  192.3350  175.1900  136.9280 C   0  0  0  0  0  0  0  0  0  0  0  0
  190.4930  176.7190  138.9390 C   0  0  0  0  0  0  0  0  0  0  0  0
  191.5260  177.6640  140.7810 C   0  0  0  0  0  3  0  0  0  0  0  0
  192.8150  174.0090  136.0050 C   0  0  0  0  0  0  0  0  0  0  0  0
  190.0400  174.6020  136.5000 C   0  0  0  0  0  0  0  0  0  0  0  0
  189.3590  176.3700  138.0440 N   0  0  0  0  0  2  0  0  0  0  0  0
  191.1250  175.0670  136.7990 C   0  0  0  0  0  3  0  0  0  0  0  0
  194.2300  175.7900  138.3280 O   0  0  0  0  0  1  0  0  0  0  0  0
  188.9390  175.1020  137.3600 C   0  0  0  0  0  2  0  0  0  0  0  0
  192.5120  177.1210  140.1440 N   0  0  0  0  0  0  0  0  0  0  0  0
  191.6220  173.1100  135.2830 C   0  0  0  0  0  3  0  0  0  0  0  0
  192.8530  175.8290  138.0880 N   0  0  0  0  0  0  0  0  0  0  0  0
  191.9380  176.5910  138.9920 C   0  0  0  0  0  0  0  0  0  0  0  0
  190.2900  173.4160  135.6440 C   0  0  0  0  0  0  0  0  0  0  0  0
  190.1470  177.5310  140.0330 C   0  0  2  0  0  3  0  0  0  0  0  0
  189.1600  172.6770  135.5640 F   0  0  0  0  0  0  0  0  0  0  0  0
  194.1960  174.2560  135.3770 C   0  0  0  0  0  2  0  0  0  0  0  0
  194.8780  172.8690  135.5460 C   0  0  1  0  0  3  0  0  0  0  0  0
  194.8870  172.0990  134.3560 O   0  0  0  0  0  1  0  0  0  0  0  0
  196.7740  174.0290  136.9330 C   0  0  0  0  0  1  0  0  0  0  0  0
  196.3410  172.8880  136.0080 C   0  0  0  0  0  2  0  0  0  0  0  0
  1 31  1  1  0  0  0
  1 12  1  0  0  0  0
  1  2  1  0  0  0  0
  2  3  1  0  0  0  0
  3  4  1  0  0  0  0
  4  5  1  1  0  0  0
  5  6  1  0  0  0  0
  7  4  1  0  0  0  0
  7  8  1  1  0  0  0
  9 10  1  0  0  0  0
 10  7  1  0  0  0  0
 11 10  2  0  0  0  0
 13 15  2  0  0  0  0
 15 16  1  0  0  0  0
 15 12  1  0  0  0  0
 16 14  1  0  0  0  0
 17 16  1  0  0  0  0
 18 17  1  0  0  0  0
 19 18  1  0  0  0  0
 20 19  1  0  0  0  0
 21 27  1  1  0  0  0
 22 24  1  0  0  0  0
 22 26  1  0  0  0  0
 23 30  1  0  0  0  0
 25 23  1  0  0  0  0
 26 29  2  0  0  0  0
 27 30  1  0  0  0  0
 28 24  1  6  0  0  0
 28 21  1  0  0  0  0
 28 25  1  0  0  0  0
 29 21  1  0  0  0  0
 30 20  1  1  0  0  0
 32 33  1  1  0  0  0
 32 31  1  0  0  0  0
 34 32  1  0  0  0  0
 35 46  1  0  0  0  0
 36 47  2  0  0  0  0
 36 49  1  0  0  0  0
 38 35  2  0  0  0  0
 39 41  2  0  0  0  0
 39 43  1  0  0  0  0
 40 36  1  0  0  0  0
 41 35  1  0  0  0  0
 43 40  1  0  0  0  0
 44 37  2  0  0  0  0
 45 48  2  0  0  0  0
 45 38  1  0  0  0  0
 46 42  1  0  0  0  0
 46 47  1  0  0  0  0
 47 44  1  0  0  0  0
 48 39  1  0  0  0  0
 49 34  1  1  0  0  0
 49 37  1  0  0  0  0
 50 48  1  0  0  0  0
 51 52  1  0  0  0  0
 51 38  1  0  0  0  0
 52 53  1  6  0  0  0
 52 55  1  0  0  0  0
 55 54  1  0  0  0  0
M  END
>  <MODEL>
8

>  <REMARK>
 VINA RESULT:      -6.5      2.492      6.663
  Name = 
  20 active torsions:
  status: ('A' for Active; 'I' for Inactive)
    1  A    between atoms: C_8  and  C_39
    2  A    between atoms: C_9  and  C_28
    3  A    between atoms: C_9  and  C_33
    4  A    between atoms: C_10  and  C_29
    5  A    between atoms: C_12  and  C_17
    6  A    between atoms: C_12  and  C_55
    7  A    between atoms: C_15  and  C_39
    8  A    between atoms: C_15  and  C_52
    9  A    between atoms: C_17  and  C_49
   10  A    between atoms: C_18  and  C_44
   11  A    between atoms: O_27  and  C_46
   12  A    between atoms: O_27  and  C_55
   13  A    between atoms: C_28  and  C_31
   14  A    between atoms: C_29  and  C_44
   15  A    between atoms: C_31  and  N_51
   16  A    between atoms: O_32  and  C_36
   17  A    between atoms: O_32  and  C_44
   18  A    between atoms: C_33  and  C_50
   19  A    between atoms: C_36  and  C_55
   20  A    between atoms: C_40  and  C_49
                            x       y       z     vdW  Elec       q    Type
                         _______ _______ _______ _____ _____    ______ ____

>  <TORSDO>
F 20

$$$$
=
 OpenBabel10232408443D

 55 59  0  0  1  0  0  0  0  0999 V2000
  187.0720  178.2320  137.3260 C   0  0  1  0  0  3  0  0  0  0  0  0
  186.6680  177.1760  136.4130 C   0  0  0  0  0  2  0  0  0  0  0  0
  185.6020  176.4940  137.0370 O   0  0  0  0  0  0  0  0  0  0  0  0
  184.9400  175.7550  136.0190 C   0  0  1  0  0  3  0  0  0  0  0  0
  185.6410  174.4180  135.6930 C   0  0  0  0  0  2  0  0  0  0  0  0
  185.9720  173.7430  136.8760 O   0  0  0  0  0  1  0  0  0  0  0  0
  183.5830  175.2080  136.5160 C   0  0  2  0  0  3  0  0  0  0  0  0
  183.0410  174.1730  135.4990 C   0  0  0  0  0  1  0  0  0  0  0  0
  182.6020  177.4840  137.3880 O   0  0  0  0  0  1  0  0  0  0  0  0
  182.4530  176.2450  136.7130 C   0  0  0  0  0  0  0  0  0  0  0  0
  181.3260  176.0270  136.1800 O   0  0  0  0  0  0  0  0  0  0  0  0
  186.6970  177.8620  138.6190 O   0  0  0  0  0  0  0  0  0  0  0  0
  184.7340  179.1220  139.0150 O   0  0  0  0  0  0  0  0  0  0  0  0
  187.5590  178.1250  141.1380 C   0  0  0  0  0  1  0  0  0  0  0  0
  185.8990  178.7740  139.3560 C   0  0  0  0  0  0  0  0  0  0  0  0
  186.3270  178.7800  140.7190 N   0  0  0  0  0  0  0  0  0  0  0  0
  185.3450  179.2250  141.7060 C   0  0  0  0  0  2  0  0  0  0  0  0
  185.2140  178.2810  142.8830 C   0  0  0  0  0  2  0  0  0  0  0  0
  185.4120  178.8780  144.2790 C   0  0  0  0  0  2  0  0  0  0  0  0
  185.6330  177.7680  145.3250 C   0  0  0  0  0  2  0  0  0  0  0  0
  189.5950  177.5260  145.2850 C   0  0  1  0  0  3  0  0  0  0  0  0
  191.9840  176.0950  146.5160 C   0  0  0  0  0  2  0  0  0  0  0  0
  187.4620  177.4530  147.1710 N   0  0  0  0  0  2  0  0  0  0  0  0
  190.9980  176.9120  147.4670 C   0  0  0  0  0  2  0  0  0  0  0  0
  188.6710  176.9610  147.6880 C   0  0  0  0  0  2  0  0  0  0  0  0
  191.6370  176.1190  144.9110 C   0  0  0  0  0  3  0  0  0  0  0  0
  188.0690  177.6700  144.7660 C   0  0  0  0  0  2  0  0  0  0  0  0
  189.6860  176.9670  146.8120 C   0  0  1  0  0  3  0  0  0  0  0  0
  190.5290  176.6840  144.4100 N   0  0  0  0  0  0  0  0  0  0  0  0
  187.0760  177.9800  145.8000 C   0  0  1  0  0  3  0  0  0  0  0  0
  188.4180  178.9140  137.1640 C   0  0  0  0  0  2  0  0  0  0  0  0
  189.1300  177.5270  136.8990 C   0  0  1  0  0  3  0  0  0  0  0  0
  189.7690  177.1870  135.6150 O   0  0  0  0  0  1  0  0  0  0  0  0
  189.8510  176.8660  138.0700 C   0  0  0  0  0  2  0  0  0  0  0  0
  193.1560  172.7870  136.1470 C   0  0  0  0  0  0  0  0  0  0  0  0
  191.0660  174.8650  137.1900 C   0  0  0  0  0  0  0  0  0  0  0  0
  188.8630  174.5190  136.5760 C   0  0  0  0  0  3  0  0  0  0  0  0
  194.4800  172.2700  135.4700 C   0  0  0  0  0  0  0  0  0  0  0  0
  194.3150  174.7440  136.9360 C   0  0  0  0  0  0  0  0  0  0  0  0
  192.2020  175.5540  137.8580 N   0  0  0  0  0  2  0  0  0  0  0  0
  193.5810  173.8130  136.6600 C   0  0  0  0  0  3  0  0  0  0  0  0
  191.3230  171.5900  135.0900 O   0  0  0  0  0  1  0  0  0  0  0  0
  193.5790  175.9430  137.4070 C   0  0  0  0  0  2  0  0  0  0  0  0
  189.4770  173.5260  136.0190 N   0  0  0  0  0  0  0  0  0  0  0  0
  195.8250  173.2220  135.6640 C   0  0  0  0  0  3  0  0  0  0  0  0
  191.7700  172.6730  135.8530 N   0  0  0  0  0  0  0  0  0  0  0  0
  190.8040  173.6650  136.4180 C   0  0  0  0  0  0  0  0  0  0  0  0
  195.6370  174.4570  136.3260 C   0  0  0  0  0  0  0  0  0  0  0  0
  189.8060  175.4300  137.4470 C   0  0  2  0  0  3  0  0  0  0  0  0
  196.3780  175.5900  136.3130 F   0  0  0  0  0  0  0  0  0  0  0  0
  194.5300  170.7400  135.3310 C   0  0  0  0  0  2  0  0  0  0  0  0
  194.2170  170.2740  136.7800 C   0  0  1  0  0  3  0  0  0  0  0  0
  193.5910  169.0040  136.8380 O   0  0  0  0  0  1  0  0  0  0  0  0
  195.6500  168.8110  138.4140 C   0  0  0  0  0  1  0  0  0  0  0  0
  195.4180  170.1600  137.7270 C   0  0  0  0  0  2  0  0  0  0  0  0
  1  2  1  6  0  0  0
  1 12  1  0  0  0  0
  2  3  1  0  0  0  0
  4  5  1  1  0  0  0
  4  7  1  0  0  0  0
  4  3  1  0  0  0  0
  5  6  1  0  0  0  0
  7  8  1  6  0  0  0
  7 10  1  0  0  0  0
 10  9  1  0  0  0  0
 11 10  2  0  0  0  0
 12 15  1  0  0  0  0
 13 15  2  0  0  0  0
 15 16  1  0  0  0  0
 16 14  1  0  0  0  0
 16 17  1  0  0  0  0
 17 18  1  0  0  0  0
 18 19  1  0  0  0  0
 19 20  1  0  0  0  0
 21 27  1  6  0  0  0
 21 28  1  0  0  0  0
 22 24  1  0  0  0  0
 23 25  1  0  0  0  0
 26 22  1  0  0  0  0
 27 30  1  0  0  0  0
 28 24  1  1  0  0  0
 28 25  1  0  0  0  0
 29 26  2  0  0  0  0
 29 21  1  0  0  0  0
 30 20  1  6  0  0  0
 30 23  1  0  0  0  0
 31  1  1  0  0  0  0
 32 33  1  6  0  0  0
 32 31  1  0  0  0  0
 32 34  1  0  0  0  0
 35 41  1  0  0  0  0
 36 49  1  0  0  0  0
 36 40  1  0  0  0  0
 37 49  1  0  0  0  0
 38 45  1  0  0  0  0
 38 35  2  0  0  0  0
 39 43  1  0  0  0  0
 41 39  2  0  0  0  0
 42 46  1  0  0  0  0
 43 40  1  0  0  0  0
 44 47  1  0  0  0  0
 44 37  2  0  0  0  0
 45 48  2  0  0  0  0
 46 35  1  0  0  0  0
 46 47  1  0  0  0  0
 47 36  2  0  0  0  0
 48 39  1  0  0  0  0
 49 34  1  6  0  0  0
 50 48  1  0  0  0  0
 51 38  1  0  0  0  0
 51 52  1  0  0  0  0
 52 53  1  6  0  0  0
 52 55  1  0  0  0  0
 55 54  1  0  0  0  0
M  END
>  <MODEL>
9

>  <REMARK>
 VINA RESULT:      -6.3      2.119      3.095
  Name = 
  20 active torsions:
  status: ('A' for Active; 'I' for Inactive)
    1  A    between atoms: C_8  and  C_39
    2  A    between atoms: C_9  and  C_28
    3  A    between atoms: C_9  and  C_33
    4  A    between atoms: C_10  and  C_29
    5  A    between atoms: C_12  and  C_17
    6  A    between atoms: C_12  and  C_55
    7  A    between atoms: C_15  and  C_39
    8  A    between atoms: C_15  and  C_52
    9  A    between atoms: C_17  and  C_49
   10  A    between atoms: C_18  and  C_44
   11  A    between atoms: O_27  and  C_46
   12  A    between atoms: O_27  and  C_55
   13  A    between atoms: C_28  and  C_31
   14  A    between atoms: C_29  and  C_44
   15  A    between atoms: C_31  and  N_51
   16  A    between atoms: O_32  and  C_36
   17  A    between atoms: O_32  and  C_44
   18  A    between atoms: C_33  and  C_50
   19  A    between atoms: C_36  and  C_55
   20  A    between atoms: C_40  and  C_49
                            x       y       z     vdW  Elec       q    Type
                         _______ _______ _______ _____ _____    ______ ____

>  <TORSDO>
F 20

$$$$
