=
 OpenBabel10232409133D

 57 59  0  0  1  0  0  0  0  0999 V2000
  188.6690  178.8860  140.5050 C   0  0  0  0  0  2  0  0  0  0  0  0
  189.4960  177.0160  142.0100 C   0  0  1  0  0  3  0  0  0  0  0  0
  189.8290  176.9050  139.4520 C   0  0  2  0  0  3  0  0  0  0  0  0
  189.4940  178.5280  141.7490 C   0  0  0  0  0  2  0  0  0  0  0  0
  187.9430  178.2370  138.1910 C   0  0  1  0  0  3  0  0  0  0  0  0
  189.7590  175.7870  138.4230 C   0  0  0  0  0  2  0  0  0  0  0  0
  190.2650  176.2410  137.0530 C   0  0  1  0  0  3  0  0  0  0  0  0
  189.2850  177.1590  136.3220 C   0  0  0  0  0  2  0  0  0  0  0  0
  190.1840  176.3050  140.8260 C   0  0  0  0  0  2  0  0  0  0  0  0
  188.5300  177.7220  139.5190 C   0  0  2  0  0  3  0  0  0  0  0  0
  188.9790  178.4530  137.0810 C   0  0  0  0  0  2  0  0  0  0  0  0
  192.7850  176.0970  136.9210 C   0  0  0  0  0  0  0  0  0  0  0  0
  192.7240  174.8560  136.6960 O   0  0  0  0  0  0  0  0  0  0  0  0
  191.5890  176.8460  137.1530 N   0  0  0  0  0  2  0  0  0  0  0  0
  194.0200  176.7530  136.9490 O   0  0  0  0  0  0  0  0  0  0  0  0
  196.5230  175.8320  134.5210 O   0  0  0  0  0  0  0  0  0  0  0  0
  194.8760  176.7810  135.8630 N   0  0  0  0  0  2  0  0  0  0  0  0
  195.8810  175.7880  135.6020 C   0  0  0  0  0  0  0  0  0  0  0  0
  196.2500  174.7630  136.6260 C   0  0  0  0  0  2  0  0  0  0  0  0
  194.8130  172.9620  134.9030 O   0  0  0  0  0  0  0  0  0  0  0  0
  196.0650  172.0690  137.0210 O   0  0  0  0  0  1  0  0  0  0  0  0
  196.1680  173.0930  135.9110 P   0  0  0  0  0  0  0  0  0  0  0  0
  197.5670  172.8010  135.0030 O   0  0  0  0  0  1  0  0  0  0  0  0
  190.1580  176.7080  143.2870 N   0  0  0  0  0  0  0  0  0  0  0  0
  190.6690  175.3410  143.2350 C   0  0  0  0  0  2  0  0  0  0  0  0
  191.9950  175.3170  143.6690 O   0  0  0  0  0  1  0  0  0  0  0  0
  189.1350  176.6970  144.3320 C   0  0  0  0  0  2  0  0  0  0  0  0
  189.6050  177.4990  145.5370 C   0  0  2  0  0  3  0  0  0  0  0  0
  189.2650  178.8320  145.3580 F   0  0  0  0  0  0  0  0  0  0  0  0
  190.9910  177.3870  145.6600 O   0  0  0  0  0  0  0  0  0  0  0  0
  192.0100  177.4660  148.2250 O   0  0  0  0  0  1  0  0  0  0  0  0
  192.1650  175.3090  146.7680 O   0  0  0  0  0  0  0  0  0  0  0  0
  191.2620  176.4830  147.0720 P   0  0  0  0  0  0  0  0  0  0  0  0
  189.7870  175.9190  147.6910 O   0  0  0  0  0  1  0  0  0  0  0  0
  186.8680  177.4490  137.7370 O   0  0  0  0  0  0  0  0  0  0  0  0
  185.7880  178.3210  137.5390 C   0  0  0  0  0  2  0  0  0  0  0  0
  184.9050  178.4020  138.7760 C   0  0  1  0  0  3  0  0  0  0  0  0
  184.6350  179.7480  139.0340 O   0  0  0  0  0  1  0  0  0  0  0  0
  183.6010  177.6340  138.5070 C   0  0  1  0  0  3  0  0  0  0  0  0
  182.4210  178.2560  139.2450 C   0  0  0  0  0  2  0  0  0  0  0  0
  182.4160  177.8400  140.6350 N   0  0  0  0  0  2  0  0  0  0  0  0
  180.5670  179.2030  141.3890 C   0  0  0  0  0  1  0  0  0  0  0  0
  182.0680  178.9940  141.4520 C   0  0  1  0  0  3  0  0  0  0  0  0
  182.4780  178.7490  142.9010 C   0  0  0  0  0  2  0  0  0  0  0  0
  183.8950  178.7670  143.0130 O   0  0  0  0  0  0  0  0  0  0  0  0
  185.7430  178.2380  144.3910 N   0  0  0  0  0  0  0  0  0  0  0  0
  184.5370  178.6660  144.2460 C   0  0  0  0  0  0  0  0  0  0  0  0
  184.9470  178.6880  146.5410 N   0  0  0  0  0  0  0  0  0  0  0  0
  183.9100  179.0100  145.5480 C   0  0  0  0  0  3  0  0  0  0  0  0
  186.0320  178.2520  145.7530 N   0  0  0  0  0  2  0  0  0  0  0  0
  183.2850  177.5950  137.0840 N   0  0  0  0  0  2  0  0  0  0  0  0
  181.1340  177.5910  136.1330 O   0  0  0  0  0  1  0  0  0  0  0  0
  182.0410  176.8450  136.9000 C   0  0  1  0  0  3  0  0  0  0  0  0
  182.3020  175.5030  136.2240 C   0  0  1  0  0  3  0  0  0  0  0  0
  183.7460  175.4050  135.7460 C   0  0  0  0  0  1  0  0  0  0  0  0
  181.9610  174.3510  137.1550 C   0  0  0  0  0  2  0  0  0  0  0  0
  181.1520  174.8470  138.3350 C   0  0  0  0  0  1  0  0  0  0  0  0
  1  4  1  0  0  0  0
  2 24  1  1  0  0  0
  3  6  1  6  0  0  0
  3 10  1  0  0  0  0
  3  9  1  0  0  0  0
  4  2  1  0  0  0  0
  5 35  1  6  0  0  0
  5 10  1  0  0  0  0
  7 14  1  1  0  0  0
  7  6  1  0  0  0  0
  8  7  1  0  0  0  0
  8 11  1  0  0  0  0
  9  2  1  0  0  0  0
 10  1  1  1  0  0  0
 11  5  1  0  0  0  0
 12 15  1  0  0  0  0
 12 14  1  0  0  0  0
 13 12  2  0  0  0  0
 16 18  2  0  0  0  0
 17 15  1  0  0  0  0
 18 17  1  0  0  0  0
 18 19  1  0  0  0  0
 20 22  2  0  0  0  0
 22 19  1  0  0  0  0
 22 21  1  0  0  0  0
 23 22  1  0  0  0  0
 24 27  1  0  0  0  0
 25 24  1  0  0  0  0
 25 26  1  0  0  0  0
 27 28  1  0  0  0  0
 28 29  1  6  0  0  0
 28 30  1  0  0  0  0
 30 33  1  0  0  0  0
 32 33  2  0  0  0  0
 33 34  1  0  0  0  0
 33 31  1  0  0  0  0
 36 35  1  0  0  0  0
 36 37  1  0  0  0  0
 37 38  1  6  0  0  0
 39 37  1  0  0  0  0
 39 40  1  1  0  0  0
 40 41  1  0  0  0  0
 41 43  1  0  0  0  0
 43 42  1  1  0  0  0
 43 44  1  0  0  0  0
 44 45  1  0  0  0  0
 45 47  1  0  0  0  0
 46 50  1  0  0  0  0
 47 46  2  0  0  0  0
 47 49  1  0  0  0  0
 49 48  2  0  0  0  0
 50 48  1  0  0  0  0
 51 39  1  0  0  0  0
 53 52  1  6  0  0  0
 53 51  1  0  0  0  0
 54 55  1  1  0  0  0
 54 53  1  0  0  0  0
 54 56  1  0  0  0  0
 56 57  1  0  0  0  0
M  END
>  <MODEL>
1

>  <REMARK>
 VINA RESULT:      -5.9      0.000      0.000
  Name = 
  25 active torsions:
  status: ('A' for Active; 'I' for Inactive)
    1  A    between atoms: C_1  and  C_47
    2  A    between atoms: C_1  and  O_52
    3  A    between atoms: C_2  and  P_48
    4  A    between atoms: C_2  and  C_56
    5  A    between atoms: C_5  and  C_24
    6  A    between atoms: C_5  and  C_43
    7  A    between atoms: C_6  and  N_57
    8  A    between atoms: C_7  and  N_57
    9  A    between atoms: N_9  and  C_15
   10  A    between atoms: N_9  and  C_37
   11  A    between atoms: N_11  and  O_22
   12  A    between atoms: C_15  and  C_21
   13  A    between atoms: N_16  and  C_17
   14  A    between atoms: N_16  and  C_43
   15  A    between atoms: C_17  and  C_18
   16  A    between atoms: C_17  and  C_37
   17  A    between atoms: C_18  and  C_45
   18  A    between atoms: C_21  and  O_39
   19  A    between atoms: O_22  and  C_31
   20  A    between atoms: O_26  and  C_28
   21  A    between atoms: O_26  and  C_45
   22  A    between atoms: C_29  and  O_39
   23  A    between atoms: C_33  and  N_53
   24  A    between atoms: P_34  and  O_52
   25  A    between atoms: C_47  and  N_57
                            x       y       z     vdW  Elec       q    Type
                         _______ _______ _______ _____ _____    ______ ____

>  <TORSDO>
F 25

$$$$
=
 OpenBabel10232409133D

 57 59  0  0  1  0  0  0  0  0999 V2000
  188.3520  178.8600  139.8350 C   0  0  0  0  0  2  0  0  0  0  0  0
  189.4550  177.1320  141.3320 C   0  0  1  0  0  3  0  0  0  0  0  0
  189.3230  176.7830  138.7770 C   0  0  2  0  0  3  0  0  0  0  0  0
  189.3910  178.6130  140.9380 C   0  0  0  0  0  2  0  0  0  0  0  0
  187.2260  178.0070  137.7600 C   0  0  1  0  0  3  0  0  0  0  0  0
  189.0790  175.5750  137.8840 C   0  0  0  0  0  2  0  0  0  0  0  0
  189.3250  175.8980  136.4100 C   0  0  1  0  0  3  0  0  0  0  0  0
  188.2200  176.7520  135.7860 C   0  0  0  0  0  2  0  0  0  0  0  0
  189.9250  176.3090  140.1130 C   0  0  0  0  0  2  0  0  0  0  0  0
  188.0490  177.6120  139.0020 C   0  0  2  0  0  3  0  0  0  0  0  0
  188.0430  178.1120  136.4660 C   0  0  0  0  0  2  0  0  0  0  0  0
  191.7790  175.7270  135.8260 C   0  0  0  0  0  0  0  0  0  0  0  0
  191.6870  174.4720  135.7180 O   0  0  0  0  0  0  0  0  0  0  0  0
  190.6390  176.5000  136.2130 N   0  0  0  0  0  2  0  0  0  0  0  0
  192.9920  176.3750  135.5710 O   0  0  0  0  0  0  0  0  0  0  0  0
  195.8310  174.4070  134.5370 O   0  0  0  0  0  0  0  0  0  0  0  0
  193.9940  175.8100  134.8050 N   0  0  0  0  0  2  0  0  0  0  0  0
  195.0420  174.9790  135.3320 C   0  0  0  0  0  0  0  0  0  0  0  0
  195.2750  174.8570  136.8040 C   0  0  0  0  0  2  0  0  0  0  0  0
  195.3450  172.9690  138.9730 O   0  0  0  0  0  1  0  0  0  0  0  0
  196.6900  172.5250  136.7730 O   0  0  0  0  0  1  0  0  0  0  0  0
  195.3920  173.1080  137.2860 P   0  0  0  0  0  0  0  0  0  0  0  0
  194.0890  172.2540  136.6210 O   0  0  0  0  0  0  0  0  0  0  0  0
  190.3390  176.9380  142.4910 N   0  0  0  0  0  0  0  0  0  0  0  0
  189.8660  175.7870  143.2570 C   0  0  0  0  0  2  0  0  0  0  0  0
  190.8020  174.7550  143.1800 O   0  0  0  0  0  1  0  0  0  0  0  0
  190.1730  178.0860  143.3810 C   0  0  0  0  0  2  0  0  0  0  0  0
  189.2240  177.7380  144.5180 C   0  0  2  0  0  3  0  0  0  0  0  0
  187.9210  178.0010  144.1210 F   0  0  0  0  0  0  0  0  0  0  0  0
  189.5320  178.5120  145.6360 O   0  0  0  0  0  0  0  0  0  0  0  0
  187.4020  177.1630  146.7640 O   0  0  0  0  0  0  0  0  0  0  0  0
  189.1260  178.4520  148.2360 O   0  0  0  0  0  1  0  0  0  0  0  0
  189.0170  177.6140  146.9820 P   0  0  0  0  0  0  0  0  0  0  0  0
  189.9680  176.2190  147.1470 O   0  0  0  0  0  1  0  0  0  0  0  0
  186.0950  177.1880  137.5810 O   0  0  0  0  0  0  0  0  0  0  0  0
  184.9830  178.0410  137.5640 C   0  0  0  0  0  2  0  0  0  0  0  0
  184.6910  178.6010  138.9500 C   0  0  1  0  0  3  0  0  0  0  0  0
  184.7550  179.9950  138.8800 O   0  0  0  0  0  1  0  0  0  0  0  0
  183.2880  178.1480  139.3840 C   0  0  1  0  0  3  0  0  0  0  0  0
  182.7090  177.1170  138.4230 C   0  0  0  0  0  2  0  0  0  0  0  0
  182.4860  175.8560  139.1060 N   0  0  0  0  0  2  0  0  0  0  0  0
  180.5330  174.8080  138.1410 C   0  0  0  0  0  1  0  0  0  0  0  0
  182.0480  174.8780  138.1200 C   0  0  1  0  0  3  0  0  0  0  0  0
  182.5100  175.2980  136.7280 C   0  0  0  0  0  2  0  0  0  0  0  0
  183.4780  174.3780  136.2420 O   0  0  0  0  0  0  0  0  0  0  0  0
  182.3200  172.4540  135.4980 N   0  0  0  0  0  0  0  0  0  0  0  0
  183.2380  173.0040  136.2130 C   0  0  0  0  0  0  0  0  0  0  0  0
  183.3420  170.7250  136.6920 N   0  0  0  0  0  0  0  0  0  0  0  0
  183.9880  172.0060  137.0190 C   0  0  0  0  0  3  0  0  0  0  0  0
  182.3610  171.0840  135.7450 N   0  0  0  0  0  2  0  0  0  0  0  0
  183.3010  177.5720  140.7240 N   0  0  0  0  0  2  0  0  0  0  0  0
  181.7950  178.6140  142.2000 O   0  0  0  0  0  1  0  0  0  0  0  0
  183.1060  178.6480  141.6980 C   0  0  1  0  0  3  0  0  0  0  0  0
  184.0990  178.5350  142.8500 C   0  0  1  0  0  3  0  0  0  0  0  0
  185.5100  178.8750  142.3880 C   0  0  0  0  0  1  0  0  0  0  0  0
  183.6830  179.4190  144.0130 C   0  0  0  0  0  2  0  0  0  0  0  0
  184.1260  178.8090  145.3260 C   0  0  0  0  0  1  0  0  0  0  0  0
  1  4  1  0  0  0  0
  2 24  1  1  0  0  0
  3  6  1  6  0  0  0
  3 10  1  0  0  0  0
  3  9  1  0  0  0  0
  4  2  1  0  0  0  0
  5 35  1  6  0  0  0
  5 10  1  0  0  0  0
  7 14  1  1  0  0  0
  7  6  1  0  0  0  0
  8  7  1  0  0  0  0
  8 11  1  0  0  0  0
  9  2  1  0  0  0  0
 10  1  1  6  0  0  0
 11  5  1  0  0  0  0
 12 14  1  0  0  0  0
 13 12  2  0  0  0  0
 15 12  1  0  0  0  0
 16 18  2  0  0  0  0
 17 18  1  0  0  0  0
 17 15  1  0  0  0  0
 18 19  1  0  0  0  0
 19 22  1  0  0  0  0
 21 22  1  0  0  0  0
 22 20  1  0  0  0  0
 23 22  2  0  0  0  0
 24 25  1  0  0  0  0
 24 27  1  0  0  0  0
 26 25  1  0  0  0  0
 27 28  1  0  0  0  0
 28 29  1  6  0  0  0
 28 30  1  0  0  0  0
 30 33  1  0  0  0  0
 31 33  2  0  0  0  0
 33 34  1  0  0  0  0
 33 32  1  0  0  0  0
 36 35  1  0  0  0  0
 36 37  1  0  0  0  0
 37 38  1  6  0  0  0
 37 39  1  0  0  0  0
 39 40  1  6  0  0  0
 39 51  1  0  0  0  0
 40 41  1  0  0  0  0
 43 42  1  6  0  0  0
 43 41  1  0  0  0  0
 44 43  1  0  0  0  0
 45 44  1  0  0  0  0
 46 50  1  0  0  0  0
 46 47  2  0  0  0  0
 47 45  1  0  0  0  0
 47 49  1  0  0  0  0
 48 49  2  0  0  0  0
 50 48  1  0  0  0  0
 51 53  1  0  0  0  0
 53 52  1  1  0  0  0
 53 54  1  0  0  0  0
 54 55  1  6  0  0  0
 54 56  1  0  0  0  0
 56 57  1  0  0  0  0
M  END
>  <MODEL>
2

>  <REMARK>
 VINA RESULT:      -5.9      2.116      4.830
  Name = 
  25 active torsions:
  status: ('A' for Active; 'I' for Inactive)
    1  A    between atoms: C_1  and  C_47
    2  A    between atoms: C_1  and  O_52
    3  A    between atoms: C_2  and  P_48
    4  A    between atoms: C_2  and  C_56
    5  A    between atoms: C_5  and  C_24
    6  A    between atoms: C_5  and  C_43
    7  A    between atoms: C_6  and  N_57
    8  A    between atoms: C_7  and  N_57
    9  A    between atoms: N_9  and  C_15
   10  A    between atoms: N_9  and  C_37
   11  A    between atoms: N_11  and  O_22
   12  A    between atoms: C_15  and  C_21
   13  A    between atoms: N_16  and  C_17
   14  A    between atoms: N_16  and  C_43
   15  A    between atoms: C_17  and  C_18
   16  A    between atoms: C_17  and  C_37
   17  A    between atoms: C_18  and  C_45
   18  A    between atoms: C_21  and  O_39
   19  A    between atoms: O_22  and  C_31
   20  A    between atoms: O_26  and  C_28
   21  A    between atoms: O_26  and  C_45
   22  A    between atoms: C_29  and  O_39
   23  A    between atoms: C_33  and  N_53
   24  A    between atoms: P_34  and  O_52
   25  A    between atoms: C_47  and  N_57
                            x       y       z     vdW  Elec       q    Type
                         _______ _______ _______ _____ _____    ______ ____

>  <TORSDO>
F 25

$$$$
=
 OpenBabel10232409133D

 57 59  0  0  1  0  0  0  0  0999 V2000
  188.7810  178.9210  140.9680 C   0  0  0  0  0  2  0  0  0  0  0  0
  189.6690  176.9610  142.3150 C   0  0  1  0  0  3  0  0  0  0  0  0
  189.7150  176.9260  139.7340 C   0  0  2  0  0  3  0  0  0  0  0  0
  189.7170  178.4790  142.1020 C   0  0  0  0  0  2  0  0  0  0  0  0
  187.7730  178.3920  138.7300 C   0  0  1  0  0  3  0  0  0  0  0  0
  189.4750  175.8500  138.6840 C   0  0  0  0  0  2  0  0  0  0  0  0
  189.8510  176.3280  137.2820 C   0  0  1  0  0  3  0  0  0  0  0  0
  188.8450  177.3190  136.6920 C   0  0  0  0  0  2  0  0  0  0  0  0
  190.1860  176.2600  141.0400 C   0  0  0  0  0  2  0  0  0  0  0  0
  188.4750  177.8010  139.9690 C   0  0  2  0  0  3  0  0  0  0  0  0
  188.6910  178.5970  137.5190 C   0  0  0  0  0  2  0  0  0  0  0  0
  192.3540  176.0240  137.0950 C   0  0  0  0  0  0  0  0  0  0  0  0
  192.2200  174.7690  137.0540 O   0  0  0  0  0  0  0  0  0  0  0  0
  191.2080  176.8650  137.2530 N   0  0  0  0  0  2  0  0  0  0  0  0
  193.6210  176.6060  136.9890 O   0  0  0  0  0  0  0  0  0  0  0  0
  195.9530  175.1320  134.6670 O   0  0  0  0  0  0  0  0  0  0  0  0
  194.4460  176.4080  135.8980 N   0  0  0  0  0  2  0  0  0  0  0  0
  195.3390  175.2920  135.7540 C   0  0  0  0  0  0  0  0  0  0  0  0
  195.6310  174.3730  136.8970 C   0  0  0  0  0  2  0  0  0  0  0  0
  197.2070  174.8620  139.2530 O   0  0  0  0  0  1  0  0  0  0  0  0
  197.8340  175.9800  136.9710 O   0  0  0  0  0  0  0  0  0  0  0  0
  197.2880  174.7010  137.5690 P   0  0  0  0  0  0  0  0  0  0  0  0
  198.3170  173.4130  137.1810 O   0  0  0  0  0  1  0  0  0  0  0  0
  190.4500  176.5760  143.5000 N   0  0  0  0  0  0  0  0  0  0  0  0
  190.7930  175.1600  143.3980 C   0  0  0  0  0  2  0  0  0  0  0  0
  191.9650  174.9080  144.1130 O   0  0  0  0  0  1  0  0  0  0  0  0
  189.5750  176.6760  144.6670 C   0  0  0  0  0  2  0  0  0  0  0  0
  190.1730  177.6260  145.6940 C   0  0  2  0  0  3  0  0  0  0  0  0
  190.0460  178.9290  145.2370 F   0  0  0  0  0  0  0  0  0  0  0  0
  191.5240  177.3280  145.8740 O   0  0  0  0  0  0  0  0  0  0  0  0
  192.9510  175.4160  147.2640 O   0  0  0  0  0  0  0  0  0  0  0  0
  190.3650  175.6330  147.5200 O   0  0  0  0  0  1  0  0  0  0  0  0
  191.6200  176.4550  147.3270 P   0  0  0  0  0  0  0  0  0  0  0  0
  191.8060  177.5220  148.6330 O   0  0  0  0  0  1  0  0  0  0  0  0
  186.6160  177.6720  138.3750 O   0  0  0  0  0  0  0  0  0  0  0  0
  185.6390  178.6240  138.0500 C   0  0  0  0  0  2  0  0  0  0  0  0
  184.9370  179.1470  139.2950 C   0  0  1  0  0  3  0  0  0  0  0  0
  184.2200  180.2940  138.9440 O   0  0  0  0  0  1  0  0  0  0  0  0
  183.9870  178.0610  139.8240 C   0  0  1  0  0  3  0  0  0  0  0  0
  183.9250  178.0630  141.3470 C   0  0  0  0  0  2  0  0  0  0  0  0
  185.2570  177.9330  141.9100 N   0  0  0  0  0  2  0  0  0  0  0  0
  183.9320  178.9020  143.6850 C   0  0  0  0  0  1  0  0  0  0  0  0
  185.3270  178.7600  143.1060 C   0  0  1  0  0  3  0  0  0  0  0  0
  186.2340  178.1020  144.1410 C   0  0  0  0  0  2  0  0  0  0  0  0
  185.5550  178.0020  145.3860 O   0  0  0  0  0  0  0  0  0  0  0  0
  185.8930  179.3730  147.2830 N   0  0  0  0  0  0  0  0  0  0  0  0
  186.1770  178.3250  146.5910 C   0  0  0  0  0  0  0  0  0  0  0  0
  187.6190  178.2870  148.4220 N   0  0  0  0  0  0  0  0  0  0  0  0
  187.2590  177.5230  147.2170 C   0  0  0  0  0  3  0  0  0  0  0  0
  186.7260  179.3770  148.3990 N   0  0  0  0  0  2  0  0  0  0  0  0
  182.6340  178.2330  139.3080 N   0  0  0  0  0  2  0  0  0  0  0  0
  180.9650  176.7510  140.0490 O   0  0  0  0  0  1  0  0  0  0  0  0
  182.0240  176.9120  139.1430 C   0  0  1  0  0  3  0  0  0  0  0  0
  181.5150  176.7140  137.7190 C   0  0  1  0  0  3  0  0  0  0  0  0
  181.6280  178.0040  136.9160 C   0  0  0  0  0  1  0  0  0  0  0  0
  182.2580  175.5820  137.0300 C   0  0  0  0  0  2  0  0  0  0  0  0
  183.4370  175.1360  137.8690 C   0  0  0  0  0  1  0  0  0  0  0  0
  1  4  1  0  0  0  0
  2 24  1  1  0  0  0
  3  6  1  6  0  0  0
  3 10  1  0  0  0  0
  3  9  1  0  0  0  0
  4  2  1  0  0  0  0
  5 35  1  6  0  0  0
  5 10  1  0  0  0  0
  7 14  1  1  0  0  0
  7  6  1  0  0  0  0
  8  7  1  0  0  0  0
  8 11  1  0  0  0  0
  9  2  1  0  0  0  0
 10  1  1  1  0  0  0
 11  5  1  0  0  0  0
 12 14  1  0  0  0  0
 13 12  2  0  0  0  0
 15 12  1  0  0  0  0
 16 18  2  0  0  0  0
 17 15  1  0  0  0  0
 18 17  1  0  0  0  0
 18 19  1  0  0  0  0
 19 22  1  0  0  0  0
 21 22  2  0  0  0  0
 22 20  1  0  0  0  0
 23 22  1  0  0  0  0
 24 27  1  0  0  0  0
 25 24  1  0  0  0  0
 25 26  1  0  0  0  0
 27 28  1  0  0  0  0
 28 29  1  6  0  0  0
 28 30  1  0  0  0  0
 30 33  1  0  0  0  0
 31 33  2  0  0  0  0
 33 32  1  0  0  0  0
 33 34  1  0  0  0  0
 36 35  1  0  0  0  0
 36 37  1  0  0  0  0
 37 38  1  6  0  0  0
 37 39  1  0  0  0  0
 39 40  1  1  0  0  0
 40 41  1  0  0  0  0
 41 43  1  0  0  0  0
 43 42  1  1  0  0  0
 43 44  1  0  0  0  0
 44 45  1  0  0  0  0
 45 47  1  0  0  0  0
 46 50  1  0  0  0  0
 47 49  1  0  0  0  0
 47 46  2  0  0  0  0
 49 48  2  0  0  0  0
 50 48  1  0  0  0  0
 51 39  1  0  0  0  0
 53 51  1  0  0  0  0
 53 52  1  1  0  0  0
 54 55  1  6  0  0  0
 54 53  1  0  0  0  0
 56 54  1  0  0  0  0
 56 57  1  0  0  0  0
M  END
>  <MODEL>
3

>  <REMARK>
 VINA RESULT:      -5.7      1.531      2.156
  Name = 
  25 active torsions:
  status: ('A' for Active; 'I' for Inactive)
    1  A    between atoms: C_1  and  C_47
    2  A    between atoms: C_1  and  O_52
    3  A    between atoms: C_2  and  P_48
    4  A    between atoms: C_2  and  C_56
    5  A    between atoms: C_5  and  C_24
    6  A    between atoms: C_5  and  C_43
    7  A    between atoms: C_6  and  N_57
    8  A    between atoms: C_7  and  N_57
    9  A    between atoms: N_9  and  C_15
   10  A    between atoms: N_9  and  C_37
   11  A    between atoms: N_11  and  O_22
   12  A    between atoms: C_15  and  C_21
   13  A    between atoms: N_16  and  C_17
   14  A    between atoms: N_16  and  C_43
   15  A    between atoms: C_17  and  C_18
   16  A    between atoms: C_17  and  C_37
   17  A    between atoms: C_18  and  C_45
   18  A    between atoms: C_21  and  O_39
   19  A    between atoms: O_22  and  C_31
   20  A    between atoms: O_26  and  C_28
   21  A    between atoms: O_26  and  C_45
   22  A    between atoms: C_29  and  O_39
   23  A    between atoms: C_33  and  N_53
   24  A    between atoms: P_34  and  O_52
   25  A    between atoms: C_47  and  N_57
                            x       y       z     vdW  Elec       q    Type
                         _______ _______ _______ _____ _____    ______ ____

>  <TORSDO>
F 25

$$$$
=
 OpenBabel10232409133D

 57 59  0  0  1  0  0  0  0  0999 V2000
  188.7800  174.2040  136.1160 C   0  0  0  0  0  2  0  0  0  0  0  0
  191.1310  174.9700  135.5420 C   0  0  1  0  0  3  0  0  0  0  0  0
  189.5290  176.4930  136.8750 C   0  0  2  0  0  3  0  0  0  0  0  0
  190.2750  173.8570  136.1580 C   0  0  0  0  0  2  0  0  0  0  0  0
  187.0180  175.9850  136.2740 C   0  0  1  0  0  3  0  0  0  0  0  0
  189.2490  177.9890  136.8790 C   0  0  0  0  0  2  0  0  0  0  0  0
  188.3400  178.3940  138.0400 C   0  0  1  0  0  3  0  0  0  0  0  0
  186.8810  177.9840  137.8370 C   0  0  0  0  0  2  0  0  0  0  0  0
  190.9700  176.2520  136.3860 C   0  0  0  0  0  2  0  0  0  0  0  0
  188.5140  175.7090  136.0290 C   0  0  2  0  0  3  0  0  0  0  0  0
  186.6870  176.4730  137.6900 C   0  0  0  0  0  2  0  0  0  0  0  0
  188.2780  178.2780  140.5650 C   0  0  0  0  0  0  0  0  0  0  0  0
  187.3330  179.1150  140.6010 O   0  0  0  0  0  0  0  0  0  0  0  0
  188.8600  177.9050  139.3130 N   0  0  0  0  0  2  0  0  0  0  0  0
  188.7670  177.7090  141.7450 O   0  0  0  0  0  0  0  0  0  0  0  0
  191.7620  176.1340  142.9920 O   0  0  0  0  0  0  0  0  0  0  0  0
  190.0830  177.3140  141.8940 N   0  0  0  0  0  2  0  0  0  0  0  0
  190.5760  176.5560  143.0110 C   0  0  0  0  0  0  0  0  0  0  0  0
  189.7460  176.3390  144.2360 C   0  0  0  0  0  2  0  0  0  0  0  0
  191.8210  177.0210  146.1080 O   0  0  0  0  0  1  0  0  0  0  0  0
  189.3010  177.3720  146.7210 O   0  0  0  0  0  1  0  0  0  0  0  0
  190.2760  177.4580  145.5680 P   0  0  0  0  0  0  0  0  0  0  0  0
  190.3200  179.0470  144.9830 O   0  0  0  0  0  0  0  0  0  0  0  0
  192.5400  174.5550  135.4500 N   0  0  0  0  0  0  0  0  0  0  0  0
  192.6050  173.2560  134.7850 C   0  0  0  0  0  2  0  0  0  0  0  0
  193.9210  172.9890  134.4020 O   0  0  0  0  0  1  0  0  0  0  0  0
  193.0280  174.3170  136.8070 C   0  0  0  0  0  2  0  0  0  0  0  0
  194.1250  175.3120  137.1540 C   0  0  2  0  0  3  0  0  0  0  0  0
  193.5800  176.3520  137.8930 F   0  0  0  0  0  0  0  0  0  0  0  0
  194.6810  175.8210  135.9800 O   0  0  0  0  0  0  0  0  0  0  0  0
  196.6760  174.6870  137.5180 O   0  0  0  0  0  1  0  0  0  0  0  0
  197.1650  176.6900  135.9200 O   0  0  0  0  0  1  0  0  0  0  0  0
  196.3330  175.4320  136.0390 P   0  0  0  0  0  0  0  0  0  0  0  0
  196.7240  174.3710  134.7760 O   0  0  0  0  0  0  0  0  0  0  0  0
  186.4610  176.8360  135.3010 O   0  0  0  0  0  0  0  0  0  0  0  0
  185.2350  176.2660  134.9270 C   0  0  0  0  0  2  0  0  0  0  0  0
  184.0620  177.0280  135.5300 C   0  0  1  0  0  3  0  0  0  0  0  0
  183.1860  177.3700  134.4970 O   0  0  0  0  0  1  0  0  0  0  0  0
  183.3580  176.1260  136.5560 C   0  0  1  0  0  3  0  0  0  0  0  0
  182.9150  176.9130  137.7840 C   0  0  0  0  0  2  0  0  0  0  0  0
  183.3430  178.2960  137.6810 N   0  0  0  0  0  2  0  0  0  0  0  0
  181.9900  179.7330  139.0780 C   0  0  0  0  0  1  0  0  0  0  0  0
  183.2540  178.8980  139.0040 C   0  0  1  0  0  3  0  0  0  0  0  0
  183.1960  177.8070  140.0690 C   0  0  0  0  0  2  0  0  0  0  0  0
  184.2650  177.9730  140.9900 O   0  0  0  0  0  0  0  0  0  0  0  0
  185.0430  178.9430  143.0030 N   0  0  0  0  0  0  0  0  0  0  0  0
  184.0780  178.5730  142.2350 C   0  0  0  0  0  0  0  0  0  0  0  0
  183.0690  179.4190  144.1590 N   0  0  0  0  0  0  0  0  0  0  0  0
  182.7490  178.8370  142.8460 C   0  0  0  0  0  3  0  0  0  0  0  0
  184.4780  179.4720  144.1610 N   0  0  0  0  0  2  0  0  0  0  0  0
  182.1880  175.4720  135.9810 N   0  0  0  0  0  2  0  0  0  0  0  0
  183.5540  173.6910  136.6850 O   0  0  0  0  0  1  0  0  0  0  0  0
  182.2540  174.0410  136.2860 C   0  0  1  0  0  3  0  0  0  0  0  0
  181.2630  173.6640  137.3810 C   0  0  1  0  0  3  0  0  0  0  0  0
  179.9900  174.4960  137.2740 C   0  0  0  0  0  1  0  0  0  0  0  0
  180.9420  172.1790  137.3350 C   0  0  0  0  0  2  0  0  0  0  0  0
  180.9220  171.6880  135.9030 C   0  0  0  0  0  1  0  0  0  0  0  0
  1  4  1  0  0  0  0
  2 24  1  1  0  0  0
  2  4  1  0  0  0  0
  2  9  1  0  0  0  0
  3  9  1  6  0  0  0
  3  6  1  0  0  0  0
  5 35  1  6  0  0  0
  5 11  1  0  0  0  0
  6  7  1  0  0  0  0
  7 14  1  1  0  0  0
  8  7  1  0  0  0  0
 10  1  1  1  0  0  0
 10  5  1  0  0  0  0
 10  3  1  0  0  0  0
 11  8  1  0  0  0  0
 12 13  2  0  0  0  0
 12 15  1  0  0  0  0
 14 12  1  0  0  0  0
 15 17  1  0  0  0  0
 16 18  2  0  0  0  0
 17 18  1  0  0  0  0
 18 19  1  0  0  0  0
 19 22  1  0  0  0  0
 22 20  1  0  0  0  0
 22 21  1  0  0  0  0
 23 22  2  0  0  0  0
 24 27  1  0  0  0  0
 25 24  1  0  0  0  0
 26 25  1  0  0  0  0
 27 28  1  0  0  0  0
 28 29  1  1  0  0  0
 30 33  1  0  0  0  0
 30 28  1  0  0  0  0
 32 33  1  0  0  0  0
 33 31  1  0  0  0  0
 34 33  2  0  0  0  0
 36 35  1  0  0  0  0
 36 37  1  0  0  0  0
 37 38  1  6  0  0  0
 37 39  1  0  0  0  0
 39 40  1  1  0  0  0
 41 40  1  0  0  0  0
 41 43  1  0  0  0  0
 43 42  1  6  0  0  0
 43 44  1  0  0  0  0
 44 45  1  0  0  0  0
 45 47  1  0  0  0  0
 46 50  1  0  0  0  0
 47 49  1  0  0  0  0
 47 46  2  0  0  0  0
 48 50  1  0  0  0  0
 49 48  2  0  0  0  0
 51 53  1  0  0  0  0
 51 39  1  0  0  0  0
 53 52  1  1  0  0  0
 53 54  1  0  0  0  0
 54 55  1  6  0  0  0
 56 54  1  0  0  0  0
 57 56  1  0  0  0  0
M  END
>  <MODEL>
4

>  <REMARK>
 VINA RESULT:      -5.2      2.391      7.109
  Name = 
  25 active torsions:
  status: ('A' for Active; 'I' for Inactive)
    1  A    between atoms: C_1  and  C_47
    2  A    between atoms: C_1  and  O_52
    3  A    between atoms: C_2  and  P_48
    4  A    between atoms: C_2  and  C_56
    5  A    between atoms: C_5  and  C_24
    6  A    between atoms: C_5  and  C_43
    7  A    between atoms: C_6  and  N_57
    8  A    between atoms: C_7  and  N_57
    9  A    between atoms: N_9  and  C_15
   10  A    between atoms: N_9  and  C_37
   11  A    between atoms: N_11  and  O_22
   12  A    between atoms: C_15  and  C_21
   13  A    between atoms: N_16  and  C_17
   14  A    between atoms: N_16  and  C_43
   15  A    between atoms: C_17  and  C_18
   16  A    between atoms: C_17  and  C_37
   17  A    between atoms: C_18  and  C_45
   18  A    between atoms: C_21  and  O_39
   19  A    between atoms: O_22  and  C_31
   20  A    between atoms: O_26  and  C_28
   21  A    between atoms: O_26  and  C_45
   22  A    between atoms: C_29  and  O_39
   23  A    between atoms: C_33  and  N_53
   24  A    between atoms: P_34  and  O_52
   25  A    between atoms: C_47  and  N_57
                            x       y       z     vdW  Elec       q    Type
                         _______ _______ _______ _____ _____    ______ ____

>  <TORSDO>
F 25

$$$$
=
 OpenBabel10232409133D

 57 59  0  0  1  0  0  0  0  0999 V2000
  189.4550  175.2800  137.7160 C   0  0  0  0  0  2  0  0  0  0  0  0
  191.9420  175.2910  137.2040 C   0  0  1  0  0  3  0  0  0  0  0  0
  191.0070  176.5300  139.2670 C   0  0  2  0  0  3  0  0  0  0  0  0
  190.6910  174.4250  137.3990 C   0  0  0  0  0  2  0  0  0  0  0  0
  188.5270  177.3130  138.8600 C   0  0  1  0  0  3  0  0  0  0  0  0
  191.3350  177.8510  139.9480 C   0  0  0  0  0  2  0  0  0  0  0  0
  190.6070  177.9990  141.2840 C   0  0  1  0  0  3  0  0  0  0  0  0
  189.1150  178.2950  141.1290 C   0  0  0  0  0  2  0  0  0  0  0  0
  192.2580  176.0190  138.5280 C   0  0  0  0  0  2  0  0  0  0  0  0
  189.8050  176.6450  138.3170 C   0  0  2  0  0  3  0  0  0  0  0  0
  188.3510  177.2010  140.3800 C   0  0  0  0  0  2  0  0  0  0  0  0
  191.6170  176.9210  143.3360 C   0  0  0  0  0  0  0  0  0  0  0  0
  192.2020  177.9980  143.6400 O   0  0  0  0  0  0  0  0  0  0  0  0
  190.8350  176.8400  142.1410 N   0  0  0  0  0  2  0  0  0  0  0  0
  191.7280  175.7960  144.1590 O   0  0  0  0  0  0  0  0  0  0  0  0
  191.2530  176.3820  147.6850 O   0  0  0  0  0  0  0  0  0  0  0  0
  191.9480  175.8850  145.5210 N   0  0  0  0  0  2  0  0  0  0  0  0
  191.0180  176.4640  146.4520 C   0  0  0  0  0  0  0  0  0  0  0  0
  189.8310  177.2450  145.9870 C   0  0  0  0  0  2  0  0  0  0  0  0
  189.3190  178.4900  148.5290 O   0  0  0  0  0  1  0  0  0  0  0  0
  188.3220  176.1360  147.9700 O   0  0  0  0  0  1  0  0  0  0  0  0
  188.6500  177.4760  147.3490 P   0  0  0  0  0  0  0  0  0  0  0  0
  187.2320  178.1810  146.7490 O   0  0  0  0  0  0  0  0  0  0  0  0
  193.0770  174.4730  136.7500 N   0  0  0  0  0  0  0  0  0  0  0  0
  192.5800  173.1590  136.3510 C   0  0  0  0  0  2  0  0  0  0  0  0
  193.1330  172.8010  135.1210 O   0  0  0  0  0  1  0  0  0  0  0  0
  193.9410  174.2230  137.9040 C   0  0  0  0  0  2  0  0  0  0  0  0
  195.3690  173.9660  137.4460 C   0  0  2  0  0  3  0  0  0  0  0  0
  196.0550  173.2970  138.4480 F   0  0  0  0  0  0  0  0  0  0  0  0
  196.0010  175.1810  137.1830 O   0  0  0  0  0  0  0  0  0  0  0  0
  198.5440  174.7790  138.1820 O   0  0  0  0  0  1  0  0  0  0  0  0
  198.1600  175.8310  135.8270 O   0  0  0  0  0  0  0  0  0  0  0  0
  197.6040  174.7950  136.7770 P   0  0  0  0  0  0  0  0  0  0  0  0
  197.6650  173.2650  136.0470 O   0  0  0  0  0  1  0  0  0  0  0  0
  188.3930  178.6470  138.4300 O   0  0  0  0  0  0  0  0  0  0  0  0
  188.3640  178.6130  137.0280 C   0  0  0  0  0  2  0  0  0  0  0  0
  186.9400  178.7170  136.5000 C   0  0  1  0  0  3  0  0  0  0  0  0
  186.9240  178.2360  135.1890 O   0  0  0  0  0  1  0  0  0  0  0  0
  186.0150  177.8750  137.3940 C   0  0  1  0  0  3  0  0  0  0  0  0
  185.2080  178.7490  138.3460 C   0  0  0  0  0  2  0  0  0  0  0  0
  184.1630  177.9710  138.9850 N   0  0  0  0  0  2  0  0  0  0  0  0
  182.2960  179.4390  138.5320 C   0  0  0  0  0  1  0  0  0  0  0  0
  183.2220  178.8950  139.6030 C   0  0  1  0  0  3  0  0  0  0  0  0
  182.3930  178.1670  140.6580 C   0  0  0  0  0  2  0  0  0  0  0  0
  182.4860  178.8490  141.9010 O   0  0  0  0  0  0  0  0  0  0  0  0
  183.8240  179.5270  143.7290 N   0  0  0  0  0  0  0  0  0  0  0  0
  183.6380  178.7980  142.6840 C   0  0  0  0  0  0  0  0  0  0  0  0
  185.7710  178.2630  143.4580 N   0  0  0  0  0  0  0  0  0  0  0  0
  184.8040  177.9220  142.4030 C   0  0  0  0  0  3  0  0  0  0  0  0
  185.0870  179.2230  144.2320 N   0  0  0  0  0  2  0  0  0  0  0  0
  185.0860  177.0770  136.6020 N   0  0  0  0  0  2  0  0  0  0  0  0
  184.4350  175.0220  137.5460 O   0  0  0  0  0  1  0  0  0  0  0  0
  185.4200  175.6610  136.7760 C   0  0  1  0  0  3  0  0  0  0  0  0
  185.5540  174.9570  135.4300 C   0  0  1  0  0  3  0  0  0  0  0  0
  184.7570  175.6850  134.3530 C   0  0  0  0  0  1  0  0  0  0  0  0
  187.0130  174.8280  135.0280 C   0  0  0  0  0  2  0  0  0  0  0  0
  187.2580  173.4980  134.3470 C   0  0  0  0  0  1  0  0  0  0  0  0
  2 24  1  1  0  0  0
  2  4  1  0  0  0  0
  2  9  1  0  0  0  0
  3  9  1  6  0  0  0
  3  6  1  0  0  0  0
  4  1  1  0  0  0  0
  5 35  1  1  0  0  0
  5 11  1  0  0  0  0
  6  7  1  0  0  0  0
  7 14  1  1  0  0  0
  8  7  1  0  0  0  0
 10  1  1  1  0  0  0
 10  5  1  0  0  0  0
 10  3  1  0  0  0  0
 11  8  1  0  0  0  0
 12 13  2  0  0  0  0
 12 15  1  0  0  0  0
 14 12  1  0  0  0  0
 15 17  1  0  0  0  0
 17 18  1  0  0  0  0
 18 16  2  0  0  0  0
 19 18  1  0  0  0  0
 19 22  1  0  0  0  0
 22 21  1  0  0  0  0
 22 20  1  0  0  0  0
 23 22  2  0  0  0  0
 24 27  1  0  0  0  0
 25 24  1  0  0  0  0
 26 25  1  0  0  0  0
 28 27  1  0  0  0  0
 28 29  1  1  0  0  0
 30 28  1  0  0  0  0
 32 33  2  0  0  0  0
 33 30  1  0  0  0  0
 33 31  1  0  0  0  0
 34 33  1  0  0  0  0
 36 35  1  0  0  0  0
 37 38  1  6  0  0  0
 37 36  1  0  0  0  0
 37 39  1  0  0  0  0
 39 40  1  1  0  0  0
 40 41  1  0  0  0  0
 41 43  1  0  0  0  0
 43 42  1  6  0  0  0
 43 44  1  0  0  0  0
 44 45  1  0  0  0  0
 45 47  1  0  0  0  0
 46 50  1  0  0  0  0
 47 46  2  0  0  0  0
 48 50  1  0  0  0  0
 49 47  1  0  0  0  0
 49 48  2  0  0  0  0
 51 53  1  0  0  0  0
 51 39  1  0  0  0  0
 53 52  1  1  0  0  0
 54 55  1  6  0  0  0
 54 53  1  0  0  0  0
 56 54  1  0  0  0  0
 57 56  1  0  0  0  0
M  END
>  <MODEL>
5

>  <REMARK>
 VINA RESULT:      -5.2      2.551      7.707
  Name = 
  25 active torsions:
  status: ('A' for Active; 'I' for Inactive)
    1  A    between atoms: C_1  and  C_47
    2  A    between atoms: C_1  and  O_52
    3  A    between atoms: C_2  and  P_48
    4  A    between atoms: C_2  and  C_56
    5  A    between atoms: C_5  and  C_24
    6  A    between atoms: C_5  and  C_43
    7  A    between atoms: C_6  and  N_57
    8  A    between atoms: C_7  and  N_57
    9  A    between atoms: N_9  and  C_15
   10  A    between atoms: N_9  and  C_37
   11  A    between atoms: N_11  and  O_22
   12  A    between atoms: C_15  and  C_21
   13  A    between atoms: N_16  and  C_17
   14  A    between atoms: N_16  and  C_43
   15  A    between atoms: C_17  and  C_18
   16  A    between atoms: C_17  and  C_37
   17  A    between atoms: C_18  and  C_45
   18  A    between atoms: C_21  and  O_39
   19  A    between atoms: O_22  and  C_31
   20  A    between atoms: O_26  and  C_28
   21  A    between atoms: O_26  and  C_45
   22  A    between atoms: C_29  and  O_39
   23  A    between atoms: C_33  and  N_53
   24  A    between atoms: P_34  and  O_52
   25  A    between atoms: C_47  and  N_57
                            x       y       z     vdW  Elec       q    Type
                         _______ _______ _______ _____ _____    ______ ____

>  <TORSDO>
F 25

$$$$
=
 OpenBabel10232409133D

 57 59  0  0  1  0  0  0  0  0999 V2000
  190.4310  175.8710  140.2610 C   0  0  0  0  0  2  0  0  0  0  0  0
  190.0990  177.9170  141.7270 C   0  0  1  0  0  3  0  0  0  0  0  0
  189.0120  177.7700  139.3900 C   0  0  2  0  0  3  0  0  0  0  0  0
  190.0200  176.3870  141.6470 C   0  0  0  0  0  2  0  0  0  0  0  0
  190.4300  176.2470  137.7780 C   0  0  1  0  0  3  0  0  0  0  0  0
  188.7720  178.7700  138.2690 C   0  0  0  0  0  2  0  0  0  0  0  0
  187.8770  178.1930  137.1720 C   0  0  1  0  0  3  0  0  0  0  0  0
  188.5900  177.1680  136.2880 C   0  0  0  0  0  2  0  0  0  0  0  0
  189.0880  178.5240  140.7310 C   0  0  0  0  0  2  0  0  0  0  0  0
  190.2700  176.9190  139.1560 C   0  0  2  0  0  3  0  0  0  0  0  0
  189.1080  175.9520  137.0590 C   0  0  0  0  0  2  0  0  0  0  0  0
  185.5730  177.1880  136.8990 C   0  0  0  0  0  0  0  0  0  0  0  0
  185.6440  177.3140  135.6450 O   0  0  0  0  0  0  0  0  0  0  0  0
  186.6430  177.6490  137.7290 N   0  0  0  0  0  2  0  0  0  0  0  0
  184.4510  176.5990  137.4910 O   0  0  0  0  0  0  0  0  0  0  0  0
  181.5050  178.6770  137.5500 O   0  0  0  0  0  0  0  0  0  0  0  0
  183.1670  177.0690  137.2910 N   0  0  0  0  0  2  0  0  0  0  0  0
  182.6420  178.2630  137.8950 C   0  0  0  0  0  0  0  0  0  0  0  0
  183.3710  178.9680  138.9940 C   0  0  0  0  0  2  0  0  0  0  0  0
  181.5630  179.0390  141.2300 O   0  0  0  0  0  1  0  0  0  0  0  0
  184.0840  178.4250  141.5710 O   0  0  0  0  0  1  0  0  0  0  0  0
  182.9290  178.2560  140.6080 P   0  0  0  0  0  0  0  0  0  0  0  0
  182.5880  176.6070  140.4200 O   0  0  0  0  0  0  0  0  0  0  0  0
  189.8520  178.3810  143.1010 N   0  0  0  0  0  0  0  0  0  0  0  0
  191.1030  178.8900  143.6580 C   0  0  0  0  0  2  0  0  0  0  0  0
  191.8900  177.8240  144.0970 O   0  0  0  0  0  1  0  0  0  0  0  0
  189.5150  177.2150  143.9160 C   0  0  0  0  0  2  0  0  0  0  0  0
  188.3160  177.5200  144.8010 C   0  0  2  0  0  3  0  0  0  0  0  0
  187.3600  178.1960  144.0570 F   0  0  0  0  0  0  0  0  0  0  0  0
  188.7180  178.3190  145.8720 O   0  0  0  0  0  0  0  0  0  0  0  0
  188.7610  176.1730  147.6090 O   0  0  0  0  0  1  0  0  0  0  0  0
  186.5340  177.3860  147.0040 O   0  0  0  0  0  0  0  0  0  0  0  0
  188.0030  177.6420  147.2550 P   0  0  0  0  0  0  0  0  0  0  0  0
  188.1790  178.6940  148.5730 O   0  0  0  0  0  1  0  0  0  0  0  0
  191.3200  176.9450  136.9390 O   0  0  0  0  0  0  0  0  0  0  0  0
  192.1510  175.9810  136.3490 C   0  0  0  0  0  2  0  0  0  0  0  0
  193.6160  176.3880  136.4270 C   0  0  1  0  0  3  0  0  0  0  0  0
  193.9980  176.3900  137.7710 O   0  0  0  0  0  1  0  0  0  0  0  0
  194.4550  175.3770  135.6300 C   0  0  1  0  0  3  0  0  0  0  0  0
  195.8530  175.2230  136.2170 C   0  0  0  0  0  2  0  0  0  0  0  0
  196.8240  174.9960  135.1620 N   0  0  0  0  0  2  0  0  0  0  0  0
  198.3040  173.2660  134.3460 C   0  0  0  0  0  1  0  0  0  0  0  0
  197.7030  173.9120  135.5800 C   0  0  1  0  0  3  0  0  0  0  0  0
  198.8260  174.4610  136.4550 C   0  0  0  0  0  2  0  0  0  0  0  0
  198.7100  173.9430  137.7730 O   0  0  0  0  0  0  0  0  0  0  0  0
  198.6010  175.7280  139.3210 N   0  0  0  0  0  0  0  0  0  0  0  0
  198.0970  174.6670  138.7950 C   0  0  0  0  0  0  0  0  0  0  0  0
  196.6100  175.3130  140.4700 N   0  0  0  0  0  0  0  0  0  0  0  0
  196.8040  174.2940  139.4260 C   0  0  0  0  0  3  0  0  0  0  0  0
  197.7300  176.1560  140.3190 N   0  0  0  0  0  2  0  0  0  0  0  0
  193.8230  174.0630  135.5960 N   0  0  0  0  0  2  0  0  0  0  0  0
  193.8660  173.2240  137.7930 O   0  0  0  0  0  1  0  0  0  0  0  0
  194.5110  173.1880  136.5470 C   0  0  1  0  0  3  0  0  0  0  0  0
  194.5600  171.7510  136.0380 C   0  0  1  0  0  3  0  0  0  0  0  0
  195.1900  170.8280  137.0730 C   0  0  0  0  0  1  0  0  0  0  0  0
  193.1740  171.2640  135.6520 C   0  0  0  0  0  2  0  0  0  0  0  0
  193.1040  169.7540  135.7300 C   0  0  0  0  0  1  0  0  0  0  0  0
  1  4  1  0  0  0  0
  2 24  1  1  0  0  0
  3  6  1  6  0  0  0
  3  9  1  0  0  0  0
  4  2  1  0  0  0  0
  5 35  1  6  0  0  0
  5 10  1  0  0  0  0
  7 14  1  1  0  0  0
  7  6  1  0  0  0  0
  8 11  1  0  0  0  0
  8  7  1  0  0  0  0
  9  2  1  0  0  0  0
 10  3  1  0  0  0  0
 10  1  1  1  0  0  0
 11  5  1  0  0  0  0
 12 15  1  0  0  0  0
 12 14  1  0  0  0  0
 13 12  2  0  0  0  0
 16 18  2  0  0  0  0
 17 15  1  0  0  0  0
 17 18  1  0  0  0  0
 18 19  1  0  0  0  0
 19 22  1  0  0  0  0
 22 20  1  0  0  0  0
 22 21  1  0  0  0  0
 23 22  2  0  0  0  0
 24 25  1  0  0  0  0
 24 27  1  0  0  0  0
 25 26  1  0  0  0  0
 27 28  1  0  0  0  0
 28 29  1  6  0  0  0
 28 30  1  0  0  0  0
 30 33  1  0  0  0  0
 32 33  2  0  0  0  0
 33 31  1  0  0  0  0
 33 34  1  0  0  0  0
 36 37  1  0  0  0  0
 36 35  1  0  0  0  0
 37 38  1  1  0  0  0
 39 40  1  1  0  0  0
 39 37  1  0  0  0  0
 41 43  1  0  0  0  0
 41 40  1  0  0  0  0
 43 42  1  6  0  0  0
 43 44  1  0  0  0  0
 44 45  1  0  0  0  0
 45 47  1  0  0  0  0
 46 50  1  0  0  0  0
 47 46  2  0  0  0  0
 47 49  1  0  0  0  0
 49 48  2  0  0  0  0
 50 48  1  0  0  0  0
 51 39  1  0  0  0  0
 51 53  1  0  0  0  0
 53 52  1  1  0  0  0
 54 53  1  0  0  0  0
 54 55  1  1  0  0  0
 56 57  1  0  0  0  0
 56 54  1  0  0  0  0
M  END
>  <MODEL>
6

>  <REMARK>
 VINA RESULT:      -4.9      3.260     10.562
  Name = 
  25 active torsions:
  status: ('A' for Active; 'I' for Inactive)
    1  A    between atoms: C_1  and  C_47
    2  A    between atoms: C_1  and  O_52
    3  A    between atoms: C_2  and  P_48
    4  A    between atoms: C_2  and  C_56
    5  A    between atoms: C_5  and  C_24
    6  A    between atoms: C_5  and  C_43
    7  A    between atoms: C_6  and  N_57
    8  A    between atoms: C_7  and  N_57
    9  A    between atoms: N_9  and  C_15
   10  A    between atoms: N_9  and  C_37
   11  A    between atoms: N_11  and  O_22
   12  A    between atoms: C_15  and  C_21
   13  A    between atoms: N_16  and  C_17
   14  A    between atoms: N_16  and  C_43
   15  A    between atoms: C_17  and  C_18
   16  A    between atoms: C_17  and  C_37
   17  A    between atoms: C_18  and  C_45
   18  A    between atoms: C_21  and  O_39
   19  A    between atoms: O_22  and  C_31
   20  A    between atoms: O_26  and  C_28
   21  A    between atoms: O_26  and  C_45
   22  A    between atoms: C_29  and  O_39
   23  A    between atoms: C_33  and  N_53
   24  A    between atoms: P_34  and  O_52
   25  A    between atoms: C_47  and  N_57
                            x       y       z     vdW  Elec       q    Type
                         _______ _______ _______ _____ _____    ______ ____

>  <TORSDO>
F 25

$$$$
=
 OpenBabel10232409133D

 57 59  0  0  1  0  0  0  0  0999 V2000
  187.2080  175.4940  137.9010 C   0  0  0  0  0  2  0  0  0  0  0  0
  186.3710  176.0790  135.5780 C   0  0  1  0  0  3  0  0  0  0  0  0
  188.8980  175.8860  136.0660 C   0  0  2  0  0  3  0  0  0  0  0  0
  186.2650  175.1020  136.7550 C   0  0  0  0  0  2  0  0  0  0  0  0
  189.4250  176.4570  138.5810 C   0  0  1  0  0  3  0  0  0  0  0  0
  190.1280  176.6580  135.6100 C   0  0  0  0  0  2  0  0  0  0  0  0
  191.4240  175.9730  136.0430 C   0  0  1  0  0  3  0  0  0  0  0  0
  191.7170  176.1220  137.5370 C   0  0  0  0  0  2  0  0  0  0  0  0
  187.7980  176.0100  134.9950 C   0  0  0  0  0  2  0  0  0  0  0  0
  188.3930  176.3480  137.4420 C   0  0  2  0  0  3  0  0  0  0  0  0
  190.6320  175.5220  138.4340 C   0  0  0  0  0  2  0  0  0  0  0  0
  192.6520  173.9060  135.2610 C   0  0  0  0  0  0  0  0  0  0  0  0
  193.7380  174.5470  135.2040 O   0  0  0  0  0  0  0  0  0  0  0  0
  191.4430  174.5720  135.6340 N   0  0  0  0  0  2  0  0  0  0  0  0
  192.6170  172.5400  134.9610 O   0  0  0  0  0  0  0  0  0  0  0  0
  195.4230  170.3550  134.3650 O   0  0  0  0  0  0  0  0  0  0  0  0
  193.6680  171.8830  134.3490 N   0  0  0  0  0  2  0  0  0  0  0  0
  194.5790  171.0060  135.0330 C   0  0  0  0  0  0  0  0  0  0  0  0
  194.6110  170.9230  136.5250 C   0  0  0  0  0  2  0  0  0  0  0  0
  193.7220  168.2270  136.0640 O   0  0  0  0  0  0  0  0  0  0  0  0
  194.2040  169.0760  138.4920 O   0  0  0  0  0  1  0  0  0  0  0  0
  194.6930  169.1880  137.0640 P   0  0  0  0  0  0  0  0  0  0  0  0
  196.2950  168.6470  136.9720 O   0  0  0  0  0  1  0  0  0  0  0  0
  185.3540  175.7800  134.5580 N   0  0  0  0  0  0  0  0  0  0  0  0
  184.5320  176.9690  134.3490 C   0  0  0  0  0  2  0  0  0  0  0  0
  184.4410  177.6930  135.5390 O   0  0  0  0  0  1  0  0  0  0  0  0
  184.4450  174.7770  135.1110 C   0  0  0  0  0  2  0  0  0  0  0  0
  185.1880  173.4730  135.3590 C   0  0  2  0  0  3  0  0  0  0  0  0
  186.1240  173.2830  134.3530 F   0  0  0  0  0  0  0  0  0  0  0  0
  184.2830  172.4110  135.3540 O   0  0  0  0  0  0  0  0  0  0  0  0
  184.9760  172.4590  138.0270 O   0  0  0  0  0  1  0  0  0  0  0  0
  183.0380  170.9490  137.1540 O   0  0  0  0  0  0  0  0  0  0  0  0
  183.6910  172.2960  136.9420 P   0  0  0  0  0  0  0  0  0  0  0  0
  182.5590  173.5260  137.2280 O   0  0  0  0  0  1  0  0  0  0  0  0
  189.8350  177.7840  138.8100 O   0  0  0  0  0  0  0  0  0  0  0  0
  189.4490  178.1010  140.1210 C   0  0  0  0  0  2  0  0  0  0  0  0
  190.2670  177.3230  141.1430 C   0  0  1  0  0  3  0  0  0  0  0  0
  191.6190  177.5880  140.9140 O   0  0  0  0  0  1  0  0  0  0  0  0
  189.8610  177.7790  142.5540 C   0  0  1  0  0  3  0  0  0  0  0  0
  188.4070  178.2340  142.6000 C   0  0  0  0  0  2  0  0  0  0  0  0
  187.6550  177.4360  143.5510 N   0  0  0  0  0  2  0  0  0  0  0  0
  185.6610  178.2390  144.6580 C   0  0  0  0  0  1  0  0  0  0  0  0
  186.2390  177.7150  143.3570 C   0  0  1  0  0  3  0  0  0  0  0  0
  186.0600  178.7690  142.2690 C   0  0  0  0  0  2  0  0  0  0  0  0
  184.6790  179.0540  142.0940 O   0  0  0  0  0  0  0  0  0  0  0  0
  184.5450  179.7160  139.8270 N   0  0  0  0  0  0  0  0  0  0  0  0
  184.0830  179.0590  140.8330 C   0  0  0  0  0  0  0  0  0  0  0  0
  182.5800  178.6880  139.0900 N   0  0  0  0  0  0  0  0  0  0  0  0
  182.8300  178.3350  140.4960 C   0  0  0  0  0  3  0  0  0  0  0  0
  183.6800  179.5050  138.7560 N   0  0  0  0  0  2  0  0  0  0  0  0
  190.0400  176.7130  143.5340 N   0  0  0  0  0  2  0  0  0  0  0  0
  191.2280  178.5330  144.4330 O   0  0  0  0  0  1  0  0  0  0  0  0
  191.0310  177.1470  144.5210 C   0  0  1  0  0  3  0  0  0  0  0  0
  190.5950  176.7810  145.9360 C   0  0  1  0  0  3  0  0  0  0  0  0
  191.8030  176.4920  146.8200 C   0  0  0  0  0  1  0  0  0  0  0  0
  189.7340  177.8770  146.5400 C   0  0  0  0  0  2  0  0  0  0  0  0
  188.5040  177.2830  147.1930 C   0  0  0  0  0  1  0  0  0  0  0  0
  2 24  1  6  0  0  0
  2  4  1  0  0  0  0
  3  9  1  6  0  0  0
  3 10  1  0  0  0  0
  4  1  1  0  0  0  0
  5 35  1  6  0  0  0
  6  7  1  0  0  0  0
  6  3  1  0  0  0  0
  7 14  1  1  0  0  0
  7  8  1  0  0  0  0
  8 11  1  0  0  0  0
  9  2  1  0  0  0  0
 10  1  1  1  0  0  0
 10  5  1  0  0  0  0
 11  5  1  0  0  0  0
 12 14  1  0  0  0  0
 13 12  2  0  0  0  0
 15 12  1  0  0  0  0
 16 18  2  0  0  0  0
 17 15  1  0  0  0  0
 17 18  1  0  0  0  0
 18 19  1  0  0  0  0
 19 22  1  0  0  0  0
 20 22  2  0  0  0  0
 22 21  1  0  0  0  0
 23 22  1  0  0  0  0
 24 27  1  0  0  0  0
 25 24  1  0  0  0  0
 25 26  1  0  0  0  0
 27 28  1  0  0  0  0
 28 29  1  6  0  0  0
 30 28  1  0  0  0  0
 30 33  1  0  0  0  0
 33 32  2  0  0  0  0
 33 34  1  0  0  0  0
 33 31  1  0  0  0  0
 35 36  1  0  0  0  0
 36 37  1  0  0  0  0
 37 38  1  6  0  0  0
 37 39  1  0  0  0  0
 39 40  1  6  0  0  0
 39 51  1  0  0  0  0
 40 41  1  0  0  0  0
 43 41  1  0  0  0  0
 43 42  1  1  0  0  0
 44 43  1  0  0  0  0
 45 44  1  0  0  0  0
 46 47  2  0  0  0  0
 47 45  1  0  0  0  0
 48 49  2  0  0  0  0
 49 47  1  0  0  0  0
 50 48  1  0  0  0  0
 50 46  1  0  0  0  0
 51 53  1  0  0  0  0
 53 52  1  1  0  0  0
 53 54  1  0  0  0  0
 54 56  1  0  0  0  0
 54 55  1  1  0  0  0
 56 57  1  0  0  0  0
M  END
>  <MODEL>
7

>  <REMARK>
 VINA RESULT:      -4.4      3.707      8.018
  Name = 
  25 active torsions:
  status: ('A' for Active; 'I' for Inactive)
    1  A    between atoms: C_1  and  C_47
    2  A    between atoms: C_1  and  O_52
    3  A    between atoms: C_2  and  P_48
    4  A    between atoms: C_2  and  C_56
    5  A    between atoms: C_5  and  C_24
    6  A    between atoms: C_5  and  C_43
    7  A    between atoms: C_6  and  N_57
    8  A    between atoms: C_7  and  N_57
    9  A    between atoms: N_9  and  C_15
   10  A    between atoms: N_9  and  C_37
   11  A    between atoms: N_11  and  O_22
   12  A    between atoms: C_15  and  C_21
   13  A    between atoms: N_16  and  C_17
   14  A    between atoms: N_16  and  C_43
   15  A    between atoms: C_17  and  C_18
   16  A    between atoms: C_17  and  C_37
   17  A    between atoms: C_18  and  C_45
   18  A    between atoms: C_21  and  O_39
   19  A    between atoms: O_22  and  C_31
   20  A    between atoms: O_26  and  C_28
   21  A    between atoms: O_26  and  C_45
   22  A    between atoms: C_29  and  O_39
   23  A    between atoms: C_33  and  N_53
   24  A    between atoms: P_34  and  O_52
   25  A    between atoms: C_47  and  N_57
                            x       y       z     vdW  Elec       q    Type
                         _______ _______ _______ _____ _____    ______ ____

>  <TORSDO>
F 25

$$$$
=
 OpenBabel10232409133D

 57 59  0  0  1  0  0  0  0  0999 V2000
  190.8620  175.8600  140.4320 C   0  0  0  0  0  2  0  0  0  0  0  0
  190.2910  177.9010  141.8280 C   0  0  1  0  0  3  0  0  0  0  0  0
  189.2440  177.5560  139.4940 C   0  0  2  0  0  3  0  0  0  0  0  0
  190.3850  176.3710  141.7990 C   0  0  0  0  0  2  0  0  0  0  0  0
  190.8350  176.1510  137.9390 C   0  0  1  0  0  3  0  0  0  0  0  0
  188.9000  178.4860  138.3390 C   0  0  0  0  0  2  0  0  0  0  0  0
  188.0840  177.7760  137.2600 C   0  0  1  0  0  3  0  0  0  0  0  0
  188.9140  176.8100  136.4130 C   0  0  0  0  0  2  0  0  0  0  0  0
  189.2250  178.3580  140.8090 C   0  0  0  0  0  2  0  0  0  0  0  0
  190.5910  176.8460  139.2920 C   0  0  2  0  0  3  0  0  0  0  0  0
  189.5600  175.6860  137.2260 C   0  0  0  0  0  2  0  0  0  0  0  0
  185.6600  177.0640  137.1450 C   0  0  0  0  0  0  0  0  0  0  0  0
  185.5130  177.6670  136.0460 O   0  0  0  0  0  0  0  0  0  0  0  0
  186.9150  177.1140  137.8310 N   0  0  0  0  0  2  0  0  0  0  0  0
  184.6020  176.3420  137.7070 O   0  0  0  0  0  0  0  0  0  0  0  0
  181.3050  177.5610  136.9000 O   0  0  0  0  0  0  0  0  0  0  0  0
  183.3070  176.4220  137.2290 N   0  0  0  0  0  2  0  0  0  0  0  0
  182.4180  177.5210  137.4850 C   0  0  0  0  0  0  0  0  0  0  0  0
  182.7430  178.5670  138.5040 C   0  0  0  0  0  2  0  0  0  0  0  0
  181.2790  176.6090  140.0190 O   0  0  0  0  0  0  0  0  0  0  0  0
  181.1160  179.1520  140.6150 O   0  0  0  0  0  1  0  0  0  0  0  0
  182.0840  178.0940  140.1320 P   0  0  0  0  0  0  0  0  0  0  0  0
  183.3610  177.9520  141.2350 O   0  0  0  0  0  1  0  0  0  0  0  0
  189.9840  178.3800  143.1850 N   0  0  0  0  0  0  0  0  0  0  0  0
  191.1970  178.9460  143.7700 C   0  0  0  0  0  2  0  0  0  0  0  0
  191.7240  178.0590  144.7100 O   0  0  0  0  0  1  0  0  0  0  0  0
  189.6670  177.2150  144.0110 C   0  0  0  0  0  2  0  0  0  0  0  0
  188.3540  177.4350  144.7480 C   0  0  2  0  0  3  0  0  0  0  0  0
  187.4170  177.9540  143.8670 F   0  0  0  0  0  0  0  0  0  0  0  0
  188.5520  178.3360  145.7950 O   0  0  0  0  0  0  0  0  0  0  0  0
  187.7070  178.8510  148.3740 O   0  0  0  0  0  1  0  0  0  0  0  0
  188.2260  176.4230  147.5730 O   0  0  0  0  0  1  0  0  0  0  0  0
  187.6470  177.7390  147.1020 P   0  0  0  0  0  0  0  0  0  0  0  0
  186.0330  177.5130  146.6340 O   0  0  0  0  0  0  0  0  0  0  0  0
  191.6470  176.9170  137.0800 O   0  0  0  0  0  0  0  0  0  0  0  0
  192.3910  176.0060  136.3170 C   0  0  0  0  0  2  0  0  0  0  0  0
  193.8870  176.2490  136.4650 C   0  0  1  0  0  3  0  0  0  0  0  0
  194.2230  176.0950  137.8120 O   0  0  0  0  0  1  0  0  0  0  0  0
  194.6450  175.2280  135.6020 C   0  0  1  0  0  3  0  0  0  0  0  0
  196.0170  174.9100  136.1840 C   0  0  0  0  0  2  0  0  0  0  0  0
  197.0550  175.6040  135.4430 N   0  0  0  0  0  2  0  0  0  0  0  0
  199.3370  175.1720  134.7710 C   0  0  0  0  0  1  0  0  0  0  0  0
  197.9320  174.6050  134.8480 C   0  0  1  0  0  3  0  0  0  0  0  0
  197.9480  173.3460  135.7110 C   0  0  0  0  0  2  0  0  0  0  0  0
  199.2880  172.9420  135.9510 O   0  0  0  0  0  0  0  0  0  0  0  0
  199.7150  171.2230  137.5190 N   0  0  0  0  0  0  0  0  0  0  0  0
  199.6090  171.6310  136.3030 C   0  0  0  0  0  0  0  0  0  0  0  0
  200.2300  169.3880  136.1670 N   0  0  0  0  0  0  0  0  0  0  0  0
  199.8960  170.5480  135.3260 C   0  0  0  0  0  3  0  0  0  0  0  0
  200.0700  169.8770  137.4800 N   0  0  0  0  0  2  0  0  0  0  0  0
  193.9010  173.9800  135.4710 N   0  0  0  0  0  2  0  0  0  0  0  0
  193.6730  172.9690  137.5830 O   0  0  0  0  0  1  0  0  0  0  0  0
  194.4510  173.0060  136.4150 C   0  0  1  0  0  3  0  0  0  0  0  0
  194.5120  171.6130  135.7970 C   0  0  1  0  0  3  0  0  0  0  0  0
  195.5170  170.7340  136.5330 C   0  0  0  0  0  1  0  0  0  0  0  0
  193.1380  170.9650  135.7810 C   0  0  0  0  0  2  0  0  0  0  0  0
  193.2650  169.4560  135.7770 C   0  0  0  0  0  1  0  0  0  0  0  0
  1  4  1  0  0  0  0
  2 24  1  1  0  0  0
  3  6  1  6  0  0  0
  3  9  1  0  0  0  0
  4  2  1  0  0  0  0
  5 35  1  6  0  0  0
  5 10  1  0  0  0  0
  7 14  1  1  0  0  0
  7  6  1  0  0  0  0
  8 11  1  0  0  0  0
  8  7  1  0  0  0  0
  9  2  1  0  0  0  0
 10  3  1  0  0  0  0
 10  1  1  1  0  0  0
 11  5  1  0  0  0  0
 12 15  1  0  0  0  0
 12 14  1  0  0  0  0
 13 12  2  0  0  0  0
 16 18  2  0  0  0  0
 17 18  1  0  0  0  0
 17 15  1  0  0  0  0
 18 19  1  0  0  0  0
 19 22  1  0  0  0  0
 20 22  2  0  0  0  0
 22 21  1  0  0  0  0
 22 23  1  0  0  0  0
 24 25  1  0  0  0  0
 24 27  1  0  0  0  0
 25 26  1  0  0  0  0
 27 28  1  0  0  0  0
 28 29  1  6  0  0  0
 28 30  1  0  0  0  0
 30 33  1  0  0  0  0
 33 32  1  0  0  0  0
 33 31  1  0  0  0  0
 34 33  2  0  0  0  0
 36 37  1  0  0  0  0
 36 35  1  0  0  0  0
 37 38  1  1  0  0  0
 39 40  1  1  0  0  0
 39 37  1  0  0  0  0
 41 40  1  0  0  0  0
 43 42  1  1  0  0  0
 43 41  1  0  0  0  0
 43 44  1  0  0  0  0
 44 45  1  0  0  0  0
 45 47  1  0  0  0  0
 47 46  2  0  0  0  0
 48 50  1  0  0  0  0
 49 48  2  0  0  0  0
 49 47  1  0  0  0  0
 50 46  1  0  0  0  0
 51 39  1  0  0  0  0
 51 53  1  0  0  0  0
 53 52  1  1  0  0  0
 54 53  1  0  0  0  0
 54 55  1  1  0  0  0
 56 54  1  0  0  0  0
 57 56  1  0  0  0  0
M  END
>  <MODEL>
8

>  <REMARK>
 VINA RESULT:      -4.3      3.542     11.365
  Name = 
  25 active torsions:
  status: ('A' for Active; 'I' for Inactive)
    1  A    between atoms: C_1  and  C_47
    2  A    between atoms: C_1  and  O_52
    3  A    between atoms: C_2  and  P_48
    4  A    between atoms: C_2  and  C_56
    5  A    between atoms: C_5  and  C_24
    6  A    between atoms: C_5  and  C_43
    7  A    between atoms: C_6  and  N_57
    8  A    between atoms: C_7  and  N_57
    9  A    between atoms: N_9  and  C_15
   10  A    between atoms: N_9  and  C_37
   11  A    between atoms: N_11  and  O_22
   12  A    between atoms: C_15  and  C_21
   13  A    between atoms: N_16  and  C_17
   14  A    between atoms: N_16  and  C_43
   15  A    between atoms: C_17  and  C_18
   16  A    between atoms: C_17  and  C_37
   17  A    between atoms: C_18  and  C_45
   18  A    between atoms: C_21  and  O_39
   19  A    between atoms: O_22  and  C_31
   20  A    between atoms: O_26  and  C_28
   21  A    between atoms: O_26  and  C_45
   22  A    between atoms: C_29  and  O_39
   23  A    between atoms: C_33  and  N_53
   24  A    between atoms: P_34  and  O_52
   25  A    between atoms: C_47  and  N_57
                            x       y       z     vdW  Elec       q    Type
                         _______ _______ _______ _____ _____    ______ ____

>  <TORSDO>
F 25

$$$$
=
 OpenBabel10232409133D

 57 59  0  0  1  0  0  0  0  0999 V2000
  189.3280  175.9660  139.6870 C   0  0  0  0  0  2  0  0  0  0  0  0
  189.7040  178.0270  141.1200 C   0  0  1  0  0  3  0  0  0  0  0  0
  187.7430  177.9170  139.4440 C   0  0  2  0  0  3  0  0  0  0  0  0
  189.5450  176.5020  141.1090 C   0  0  0  0  0  2  0  0  0  0  0  0
  188.3130  176.3330  137.4200 C   0  0  1  0  0  3  0  0  0  0  0  0
  187.0950  178.9220  138.5040 C   0  0  0  0  0  2  0  0  0  0  0  0
  185.8070  178.3770  137.8870 C   0  0  1  0  0  3  0  0  0  0  0  0
  186.0540  177.3230  136.8070 C   0  0  0  0  0  2  0  0  0  0  0  0
  188.3930  178.6710  140.6190 C   0  0  0  0  0  2  0  0  0  0  0  0
  188.7610  177.0160  138.7270 C   0  0  2  0  0  3  0  0  0  0  0  0
  186.8020  176.0890  137.3180 C   0  0  0  0  0  2  0  0  0  0  0  0
  183.4800  178.0640  138.8240 C   0  0  0  0  0  0  0  0  0  0  0  0
  182.9840  178.7320  137.8730 O   0  0  0  0  0  0  0  0  0  0  0  0
  184.8960  177.8850  138.9150 N   0  0  0  0  0  2  0  0  0  0  0  0
  182.6530  177.4950  139.7980 O   0  0  0  0  0  0  0  0  0  0  0  0
  182.0410  179.4870  142.7410 O   0  0  0  0  0  0  0  0  0  0  0  0
  182.0230  178.2440  140.7740 N   0  0  0  0  0  2  0  0  0  0  0  0
  182.6610  178.7030  141.9770 C   0  0  0  0  0  0  0  0  0  0  0  0
  184.0060  178.1950  142.3910 C   0  0  0  0  0  2  0  0  0  0  0  0
  185.7300  177.9130  144.6750 O   0  0  0  0  0  1  0  0  0  0  0  0
  183.2350  178.6470  144.9690 O   0  0  0  0  0  1  0  0  0  0  0  0
  184.4300  178.8000  144.0520 P   0  0  0  0  0  0  0  0  0  0  0  0
  184.8640  180.4340  143.9600 O   0  0  0  0  0  0  0  0  0  0  0  0
  190.0650  178.5050  142.4630 N   0  0  0  0  0  0  0  0  0  0  0  0
  191.3770  177.9700  142.8170 C   0  0  0  0  0  2  0  0  0  0  0  0
  192.1000  177.6940  141.6560 O   0  0  0  0  0  1  0  0  0  0  0  0
  189.1340  177.9050  143.4190 C   0  0  0  0  0  2  0  0  0  0  0  0
  189.8570  177.5610  144.7120 C   0  0  2  0  0  3  0  0  0  0  0  0
  189.5550  176.2560  145.0700 F   0  0  0  0  0  0  0  0  0  0  0  0
  189.4400  178.4260  145.7240 O   0  0  0  0  0  0  0  0  0  0  0  0
  188.0270  176.5320  147.1530 O   0  0  0  0  0  0  0  0  0  0  0  0
  189.3780  178.4110  148.3550 O   0  0  0  0  0  1  0  0  0  0  0  0
  189.4120  177.5010  147.1480 P   0  0  0  0  0  0  0  0  0  0  0  0
  190.7870  176.5100  147.2220 O   0  0  0  0  0  1  0  0  0  0  0  0
  188.7990  176.9930  136.2750 O   0  0  0  0  0  0  0  0  0  0  0  0
  189.2120  175.9920  135.3840 C   0  0  0  0  0  2  0  0  0  0  0  0
  190.7280  175.8530  135.3680 C   0  0  1  0  0  3  0  0  0  0  0  0
  191.2590  176.7460  136.3020 O   0  0  0  0  0  1  0  0  0  0  0  0
  191.0980  174.4070  135.7360 C   0  0  1  0  0  3  0  0  0  0  0  0
  192.1880  174.3610  136.8000 C   0  0  0  0  0  2  0  0  0  0  0  0
  193.3900  173.7450  136.2690 N   0  0  0  0  0  2  0  0  0  0  0  0
  194.1350  175.1500  138.0900 C   0  0  0  0  0  1  0  0  0  0  0  0
  194.5410  174.4610  136.8010 C   0  0  1  0  0  3  0  0  0  0  0  0
  195.6740  173.4810  137.0930 C   0  0  0  0  0  2  0  0  0  0  0  0
  196.9060  174.0130  136.6250 O   0  0  0  0  0  0  0  0  0  0  0  0
  197.7280  175.2410  138.4720 N   0  0  0  0  0  0  0  0  0  0  0  0
  197.9130  174.4160  137.5010 C   0  0  0  0  0  0  0  0  0  0  0  0
  200.0010  174.6990  138.5000 N   0  0  0  0  0  0  0  0  0  0  0  0
  199.3280  173.9700  137.4130 C   0  0  0  0  0  3  0  0  0  0  0  0
  198.9550  175.4240  139.1060 N   0  0  0  0  0  2  0  0  0  0  0  0
  189.9420  173.6670  136.2290 N   0  0  0  0  0  2  0  0  0  0  0  0
  190.6010  171.7720  135.0000 O   0  0  0  0  0  1  0  0  0  0  0  0
  189.5530  172.6800  135.2200 C   0  0  1  0  0  3  0  0  0  0  0  0
  188.3000  171.9220  135.6440 C   0  0  1  0  0  3  0  0  0  0  0  0
  187.8180  172.3900  137.0120 C   0  0  0  0  0  1  0  0  0  0  0  0
  187.2000  172.0680  134.6050 C   0  0  0  0  0  2  0  0  0  0  0  0
  186.0650  171.1100  134.8990 C   0  0  0  0  0  1  0  0  0  0  0  0
  1  4  1  0  0  0  0
  2 24  1  1  0  0  0
  3  6  1  6  0  0  0
  3  9  1  0  0  0  0
  4  2  1  0  0  0  0
  5 35  1  6  0  0  0
  5 10  1  0  0  0  0
  7  6  1  0  0  0  0
  7 14  1  1  0  0  0
  8 11  1  0  0  0  0
  8  7  1  0  0  0  0
  9  2  1  0  0  0  0
 10  3  1  0  0  0  0
 10  1  1  1  0  0  0
 11  5  1  0  0  0  0
 12 14  1  0  0  0  0
 12 15  1  0  0  0  0
 13 12  2  0  0  0  0
 15 17  1  0  0  0  0
 17 18  1  0  0  0  0
 18 19  1  0  0  0  0
 18 16  2  0  0  0  0
 19 22  1  0  0  0  0
 22 20  1  0  0  0  0
 22 21  1  0  0  0  0
 23 22  2  0  0  0  0
 24 25  1  0  0  0  0
 24 27  1  0  0  0  0
 26 25  1  0  0  0  0
 27 28  1  0  0  0  0
 28 29  1  1  0  0  0
 28 30  1  0  0  0  0
 30 33  1  0  0  0  0
 33 31  2  0  0  0  0
 33 34  1  0  0  0  0
 33 32  1  0  0  0  0
 36 35  1  0  0  0  0
 37 36  1  0  0  0  0
 37 39  1  0  0  0  0
 37 38  1  1  0  0  0
 39 51  1  0  0  0  0
 39 40  1  1  0  0  0
 41 40  1  0  0  0  0
 41 43  1  0  0  0  0
 43 44  1  0  0  0  0
 43 42  1  1  0  0  0
 45 44  1  0  0  0  0
 45 47  1  0  0  0  0
 46 50  1  0  0  0  0
 47 46  2  0  0  0  0
 48 50  1  0  0  0  0
 49 47  1  0  0  0  0
 49 48  2  0  0  0  0
 53 52  1  1  0  0  0
 53 54  1  0  0  0  0
 53 51  1  0  0  0  0
 54 55  1  1  0  0  0
 56 57  1  0  0  0  0
 56 54  1  0  0  0  0
M  END
>  <MODEL>
9

>  <REMARK>
 VINA RESULT:      -4.0      3.086      9.875
  Name = 
  25 active torsions:
  status: ('A' for Active; 'I' for Inactive)
    1  A    between atoms: C_1  and  C_47
    2  A    between atoms: C_1  and  O_52
    3  A    between atoms: C_2  and  P_48
    4  A    between atoms: C_2  and  C_56
    5  A    between atoms: C_5  and  C_24
    6  A    between atoms: C_5  and  C_43
    7  A    between atoms: C_6  and  N_57
    8  A    between atoms: C_7  and  N_57
    9  A    between atoms: N_9  and  C_15
   10  A    between atoms: N_9  and  C_37
   11  A    between atoms: N_11  and  O_22
   12  A    between atoms: C_15  and  C_21
   13  A    between atoms: N_16  and  C_17
   14  A    between atoms: N_16  and  C_43
   15  A    between atoms: C_17  and  C_18
   16  A    between atoms: C_17  and  C_37
   17  A    between atoms: C_18  and  C_45
   18  A    between atoms: C_21  and  O_39
   19  A    between atoms: O_22  and  C_31
   20  A    between atoms: O_26  and  C_28
   21  A    between atoms: O_26  and  C_45
   22  A    between atoms: C_29  and  O_39
   23  A    between atoms: C_33  and  N_53
   24  A    between atoms: P_34  and  O_52
   25  A    between atoms: C_47  and  N_57
                            x       y       z     vdW  Elec       q    Type
                         _______ _______ _______ _____ _____    ______ ____

>  <TORSDO>
F 25

$$$$
