=
 OpenBabel10222421553D

 40 44  0  0  1  0  0  0  0  0999 V2000
  189.3230  177.4100  134.7900 C   0  0  0  0  0  1  0  0  0  0  0  0
  185.0310  176.6310  136.9460 N   0  0  0  0  0  0  0  0  0  0  0  0
  182.8060  177.1920  138.5980 N   0  0  0  0  0  0  0  0  0  0  0  0
  182.8440  176.0370  137.7530 C   0  0  0  0  0  0  0  0  0  0  0  0
  183.4310  177.0960  139.8870 C   0  0  0  0  0  3  0  0  0  0  0  0
  187.4930  175.3060  134.3700 S   0  0  0  0  0  0  0  0  0  0  0  0
  181.2490  180.6490  138.8520 C   0  0  0  0  0  2  0  0  0  0  0  0
  182.2720  179.5550  139.0860 C   0  0  2  0  0  3  0  0  0  0  0  0
  181.8800  178.3000  138.2990 C   0  0  1  0  0  3  0  0  0  0  0  0
  182.8080  173.8770  136.0440 N   0  0  0  0  0  0  0  0  0  0  0  0
  181.8640  178.6350  136.8120 C   0  0  0  0  0  2  0  0  0  0  0  0
  185.0150  173.3310  134.3600 O   0  0  0  0  0  1  0  0  0  0  0  0
  181.7750  175.2010  137.6980 N   0  0  0  0  0  0  0  0  0  0  0  0
  186.0840  176.3880  136.1270 C   0  0  0  0  0  0  0  0  0  0  0  0
  183.9540  175.7850  136.9470 C   0  0  0  0  0  0  0  0  0  0  0  0
  188.0320  176.7410  135.1000 C   0  0  0  0  0  0  0  0  0  0  0  0
  186.0920  175.2860  135.2880 C   0  0  0  0  0  0  0  0  0  0  0  0
  182.3600  179.2220  140.5660 C   0  0  0  0  0  2  0  0  0  0  0  0
  183.2990  178.0580  140.8050 C   0  0  0  0  0  0  0  0  0  0  0  0
  183.9190  174.6610  136.0830 C   0  0  0  0  0  0  0  0  0  0  0  0
  187.1570  177.2110  136.0250 N   0  0  0  0  0  0  0  0  0  0  0  0
  181.7450  174.1380  136.8510 C   0  0  0  0  0  3  0  0  0  0  0  0
  181.2100  180.9880  137.3630 C   0  0  1  0  0  3  0  0  0  0  0  0
  185.0100  174.4080  135.2350 C   0  0  0  0  0  0  0  0  0  0  0  0
  180.8600  179.7480  136.5430 C   0  0  0  0  0  2  0  0  0  0  0  0
  183.9100  177.8680  142.0860 N   0  0  0  0  0  0  0  0  0  0  0  0
  185.0570  178.3660  142.4680 C   0  0  0  0  0  0  0  0  0  0  0  0
  185.1090  178.8190  144.8240 N   0  0  0  0  0  0  0  0  0  0  0  0
  185.5460  178.1180  143.8290 C   0  0  0  0  0  3  0  0  0  0  0  0
  186.8880  178.0320  146.4940 C   0  0  0  0  0  1  0  0  0  0  0  0
  184.7320  178.8200  147.1100 O   0  0  0  0  0  0  0  0  0  0  0  0
  185.5340  178.5930  146.1740 C   0  0  0  0  0  0  0  0  0  0  0  0
  185.9380  179.1170  141.5260 C   0  0  0  0  0  2  0  0  0  0  0  0
  187.2790  178.5620  141.5520 N   0  0  0  0  0  2  0  0  0  0  0  0
  188.0030  178.3140  140.3540 C   0  0  0  0  0  0  0  0  0  0  0  0
  187.4260  178.3880  139.2410 O   0  0  0  0  0  0  0  0  0  0  0  0
  189.3560  178.0050  140.4280 O   0  0  0  0  0  0  0  0  0  0  0  0
  189.8890  177.2150  141.4810 C   0  0  0  0  0  1  0  0  0  0  0  0
  179.9930  182.2980  137.0510 S   0  0  0  0  0  0  0  0  0  0  0  0
  181.2010  183.6030  137.3830 C   0  0  0  0  0  1  0  0  0  0  0  0
  1 16  1  0  0  0  0
  2 15  1  0  0  0  0
  3  5  1  0  0  0  0
  4  3  1  0  0  0  0
  5 19  2  0  0  0  0
  6 16  1  0  0  0  0
  6 17  1  0  0  0  0
  8  7  1  1  0  0  0
  8 18  1  0  0  0  0
  9 11  1  6  0  0  0
  9  3  1  0  0  0  0
  9  8  1  0  0  0  0
 10 20  2  0  0  0  0
 10 22  1  0  0  0  0
 12 24  1  0  0  0  0
 13  4  1  0  0  0  0
 14  2  2  0  0  0  0
 15  4  2  0  0  0  0
 16 21  2  0  0  0  0
 17 14  1  0  0  0  0
 18 19  1  0  0  0  0
 19 26  1  0  0  0  0
 20 15  1  0  0  0  0
 21 14  1  0  0  0  0
 22 13  2  0  0  0  0
 23 39  1  1  0  0  0
 23  7  1  0  0  0  0
 24 17  2  0  0  0  0
 24 20  1  0  0  0  0
 25 11  1  0  0  0  0
 25 23  1  0  0  0  0
 26 27  2  0  0  0  0
 27 29  1  0  0  0  0
 28 32  1  0  0  0  0
 29 28  2  0  0  0  0
 32 30  1  0  0  0  0
 32 31  2  0  0  0  0
 33 34  1  0  0  0  0
 33 27  1  0  0  0  0
 35 37  1  0  0  0  0
 35 34  1  0  0  0  0
 36 35  2  0  0  0  0
 37 38  1  0  0  0  0
 39 40  1  0  0  0  0
M  END
>  <MODEL>
1

>  <REMARK>
 VINA RESULT:      -7.2      0.000      0.000
  Name = 
  7 active torsions:
  status: ('A' for Active; 'I' for Inactive)
    1  A    between atoms: N_1  and  C_31
    2  A    between atoms: N_7  and  C_34
    3  A    between atoms: C_13  and  C_26
    4  A    between atoms: C_13  and  C_34
    5  A    between atoms: O_14  and  C_16
    6  A    between atoms: N_19  and  C_36
    7  A    between atoms: S_27  and  C_37
                            x       y       z     vdW  Elec       q    Type
                         _______ _______ _______ _____ _____    ______ ____

>  <TORSDO>
F 7

$$$$
=
 OpenBabel10222421553D

 40 44  0  0  1  0  0  0  0  0999 V2000
  191.0260  175.8590  143.9090 C   0  0  0  0  0  1  0  0  0  0  0  0
  189.9030  176.3910  139.2040 N   0  0  0  0  0  0  0  0  0  0  0  0
  189.8650  175.7620  136.4470 N   0  0  0  0  0  0  0  0  0  0  0  0
  189.0790  176.8310  136.9860 C   0  0  0  0  0  0  0  0  0  0  0  0
  191.2340  176.0430  136.1160 C   0  0  0  0  0  3  0  0  0  0  0  0
  189.2720  177.7140  142.7110 S   0  0  0  0  0  0  0  0  0  0  0  0
  189.5680  172.2030  135.1510 C   0  0  0  0  0  2  0  0  0  0  0  0
  190.2350  173.4130  135.7740 C   0  0  2  0  0  3  0  0  0  0  0  0
  189.2120  174.5410  135.9420 C   0  0  1  0  0  3  0  0  0  0  0  0
  187.4420  178.8040  137.9930 N   0  0  0  0  0  0  0  0  0  0  0  0
  188.1030  174.0680  136.8750 C   0  0  0  0  0  2  0  0  0  0  0  0
  187.4460  179.4140  140.7560 O   0  0  0  0  0  1  0  0  0  0  0  0
  188.2550  177.5430  136.1750 N   0  0  0  0  0  0  0  0  0  0  0  0
  189.8960  176.6640  140.5320 C   0  0  0  0  0  0  0  0  0  0  0  0
  189.1160  177.1180  138.3500 C   0  0  0  0  0  0  0  0  0  0  0  0
  190.3680  176.4170  142.6980 C   0  0  0  0  0  0  0  0  0  0  0  0
  189.1020  177.6760  141.0460 C   0  0  0  0  0  0  0  0  0  0  0  0
  191.3830  173.8920  134.9010 C   0  0  0  0  0  2  0  0  0  0  0  0
  191.9910  175.1640  135.4540 C   0  0  0  0  0  0  0  0  0  0  0  0
  188.2730  178.1460  138.8460 C   0  0  0  0  0  0  0  0  0  0  0  0
  190.5990  175.9500  141.4450 N   0  0  0  0  0  0  0  0  0  0  0  0
  187.4380  178.5130  136.6650 C   0  0  0  0  0  3  0  0  0  0  0  0
  188.4450  171.7230  136.0680 C   0  0  1  0  0  3  0  0  0  0  0  0
  188.2660  178.4290  140.2220 C   0  0  0  0  0  0  0  0  0  0  0  0
  187.4240  172.8370  136.2890 C   0  0  0  0  0  2  0  0  0  0  0  0
  193.3320  175.5360  135.1150 N   0  0  0  0  0  0  0  0  0  0  0  0
  194.4170  175.1070  135.7050 C   0  0  0  0  0  0  0  0  0  0  0  0
  196.8090  174.9390  135.6060 N   0  0  0  0  0  0  0  0  0  0  0  0
  195.7320  175.5460  135.2260 C   0  0  0  0  0  3  0  0  0  0  0  0
  199.3540  174.6270  135.6320 C   0  0  0  0  0  1  0  0  0  0  0  0
  198.2220  176.2740  134.3460 O   0  0  0  0  0  0  0  0  0  0  0  0
  198.1130  175.3130  135.1420 C   0  0  0  0  0  0  0  0  0  0  0  0
  194.3590  174.2410  136.9180 C   0  0  0  0  0  2  0  0  0  0  0  0
  194.6390  175.0300  138.1050 N   0  0  0  0  0  2  0  0  0  0  0  0
  195.5560  174.5820  139.0950 C   0  0  0  0  0  0  0  0  0  0  0  0
  195.9980  173.4080  139.0610 O   0  0  0  0  0  0  0  0  0  0  0  0
  195.9670  175.4630  140.0880 O   0  0  0  0  0  0  0  0  0  0  0  0
  197.2160  175.3190  140.7490 C   0  0  0  0  0  1  0  0  0  0  0  0
  187.6270  170.2700  135.3490 S   0  0  0  0  0  0  0  0  0  0  0  0
  186.4970  171.2940  134.3760 C   0  0  0  0  0  1  0  0  0  0  0  0
  2 14  2  0  0  0  0
  3  4  1  0  0  0  0
  4 15  1  0  0  0  0
  5  3  1  0  0  0  0
  7  8  1  0  0  0  0
  7 23  1  0  0  0  0
  8 18  1  6  0  0  0
  8  9  1  0  0  0  0
  9  3  1  0  0  0  0
  9 11  1  1  0  0  0
 10 20  1  0  0  0  0
 13 22  1  0  0  0  0
 13  4  2  0  0  0  0
 14 17  1  0  0  0  0
 14 21  1  0  0  0  0
 15 20  2  0  0  0  0
 15  2  1  0  0  0  0
 16  6  1  0  0  0  0
 16  1  1  0  0  0  0
 17  6  1  0  0  0  0
 18 19  1  0  0  0  0
 19  5  2  0  0  0  0
 20 24  1  0  0  0  0
 21 16  2  0  0  0  0
 22 10  2  0  0  0  0
 23 39  1  6  0  0  0
 23 25  1  0  0  0  0
 24 12  1  0  0  0  0
 24 17  2  0  0  0  0
 25 11  1  0  0  0  0
 26 19  1  0  0  0  0
 26 27  2  0  0  0  0
 27 33  1  0  0  0  0
 29 28  2  0  0  0  0
 29 27  1  0  0  0  0
 31 32  2  0  0  0  0
 32 28  1  0  0  0  0
 32 30  1  0  0  0  0
 33 34  1  0  0  0  0
 34 35  1  0  0  0  0
 35 37  1  0  0  0  0
 36 35  2  0  0  0  0
 37 38  1  0  0  0  0
 40 39  1  0  0  0  0
M  END
>  <MODEL>
2

>  <REMARK>
 VINA RESULT:      -6.6      5.420     10.368
  Name = 
  7 active torsions:
  status: ('A' for Active; 'I' for Inactive)
    1  A    between atoms: N_1  and  C_31
    2  A    between atoms: N_7  and  C_34
    3  A    between atoms: C_13  and  C_26
    4  A    between atoms: C_13  and  C_34
    5  A    between atoms: O_14  and  C_16
    6  A    between atoms: N_19  and  C_36
    7  A    between atoms: S_27  and  C_37
                            x       y       z     vdW  Elec       q    Type
                         _______ _______ _______ _____ _____    ______ ____

>  <TORSDO>
F 7

$$$$
=
 OpenBabel10222421553D

 40 44  0  0  1  0  0  0  0  0999 V2000
  184.3290  171.6100  136.8780 C   0  0  0  0  0  1  0  0  0  0  0  0
  186.9880  175.6460  137.4470 N   0  0  0  0  0  0  0  0  0  0  0  0
  189.1460  177.2390  138.3410 N   0  0  0  0  0  0  0  0  0  0  0  0
  188.1550  177.7500  137.4430 C   0  0  0  0  0  0  0  0  0  0  0  0
  188.8550  177.2740  139.7470 C   0  0  0  0  0  3  0  0  0  0  0  0
  183.9750  174.1410  135.6850 S   0  0  0  0  0  0  0  0  0  0  0  0
  192.7340  175.9890  138.4210 C   0  0  0  0  0  2  0  0  0  0  0  0
  191.2900  176.1260  138.8630 C   0  0  2  0  0  3  0  0  0  0  0  0
  190.5250  177.0080  137.8710 C   0  0  1  0  0  3  0  0  0  0  0  0
  186.3540  178.7380  135.6090 N   0  0  0  0  0  0  0  0  0  0  0  0
  190.5480  176.3450  136.4990 C   0  0  0  0  0  2  0  0  0  0  0  0
  184.2130  177.1370  134.6810 O   0  0  0  0  0  1  0  0  0  0  0  0
  188.2620  179.0170  136.9650 N   0  0  0  0  0  0  0  0  0  0  0  0
  185.9770  174.8660  136.9920 C   0  0  0  0  0  0  0  0  0  0  0  0
  187.1020  176.9420  137.0180 C   0  0  0  0  0  0  0  0  0  0  0  0
  184.7630  173.0200  136.6880 C   0  0  0  0  0  0  0  0  0  0  0  0
  185.0450  175.3620  136.0950 C   0  0  0  0  0  0  0  0  0  0  0  0
  191.2190  176.7380  140.2520 C   0  0  0  0  0  2  0  0  0  0  0  0
  189.7820  176.9800  140.6640 C   0  0  0  0  0  0  0  0  0  0  0  0
  186.1790  177.4740  136.0820 C   0  0  0  0  0  0  0  0  0  0  0  0
  185.8340  173.5590  137.3230 N   0  0  0  0  0  0  0  0  0  0  0  0
  187.3820  179.5090  136.0530 C   0  0  0  0  0  3  0  0  0  0  0  0
  192.7750  175.3370  137.0410 C   0  0  1  0  0  3  0  0  0  0  0  0
  185.1300  176.6670  135.6100 C   0  0  0  0  0  0  0  0  0  0  0  0
  191.9880  176.1720  136.0320 C   0  0  0  0  0  2  0  0  0  0  0  0
  189.4300  177.0880  142.0480 N   0  0  0  0  0  0  0  0  0  0  0  0
  188.3700  177.6860  142.5240 C   0  0  0  0  0  0  0  0  0  0  0  0
  189.0510  177.3600  144.8030 N   0  0  0  0  0  0  0  0  0  0  0  0
  188.1170  177.6860  143.9690 C   0  0  0  0  0  3  0  0  0  0  0  0
  189.9120  176.8750  147.1680 C   0  0  0  0  0  1  0  0  0  0  0  0
  187.7610  177.7640  146.6840 O   0  0  0  0  0  0  0  0  0  0  0  0
  188.8590  177.3740  146.2230 C   0  0  0  0  0  0  0  0  0  0  0  0
  187.4410  178.4530  141.6430 C   0  0  0  0  0  2  0  0  0  0  0  0
  186.1120  178.4790  142.2270 N   0  0  0  0  0  2  0  0  0  0  0  0
  184.9930  178.9770  141.5050 C   0  0  0  0  0  0  0  0  0  0  0  0
  185.1620  179.5840  140.4200 O   0  0  0  0  0  0  0  0  0  0  0  0
  183.7140  178.7710  142.0070 O   0  0  0  0  0  0  0  0  0  0  0  0
  183.4120  178.9350  143.3850 C   0  0  0  0  0  1  0  0  0  0  0  0
  194.4940  175.1580  136.4840 S   0  0  0  0  0  0  0  0  0  0  0  0
  194.9780  174.3110  138.0080 C   0  0  0  0  0  1  0  0  0  0  0  0
  3  5  1  0  0  0  0
  4  3  1  0  0  0  0
  5 19  2  0  0  0  0
  6 17  1  0  0  0  0
  6 16  1  0  0  0  0
  8  7  1  6  0  0  0
  8 18  1  0  0  0  0
  9 11  1  6  0  0  0
  9  3  1  0  0  0  0
  9  8  1  0  0  0  0
 10 22  2  0  0  0  0
 10 20  1  0  0  0  0
 12 24  1  0  0  0  0
 13  4  2  0  0  0  0
 14 21  1  0  0  0  0
 14  2  2  0  0  0  0
 15  4  1  0  0  0  0
 15  2  1  0  0  0  0
 16  1  1  0  0  0  0
 16 21  2  0  0  0  0
 17 14  1  0  0  0  0
 18 19  1  0  0  0  0
 19 26  1  0  0  0  0
 20 15  2  0  0  0  0
 22 13  1  0  0  0  0
 23 39  1  6  0  0  0
 23  7  1  0  0  0  0
 24 20  1  0  0  0  0
 24 17  2  0  0  0  0
 25 11  1  0  0  0  0
 25 23  1  0  0  0  0
 26 27  2  0  0  0  0
 27 29  1  0  0  0  0
 28 32  1  0  0  0  0
 29 28  2  0  0  0  0
 32 31  2  0  0  0  0
 32 30  1  0  0  0  0
 33 34  1  0  0  0  0
 33 27  1  0  0  0  0
 35 37  1  0  0  0  0
 35 34  1  0  0  0  0
 36 35  2  0  0  0  0
 37 38  1  0  0  0  0
 39 40  1  0  0  0  0
M  END
>  <MODEL>
3

>  <REMARK>
 VINA RESULT:      -6.4      3.548      7.095
  Name = 
  7 active torsions:
  status: ('A' for Active; 'I' for Inactive)
    1  A    between atoms: N_1  and  C_31
    2  A    between atoms: N_7  and  C_34
    3  A    between atoms: C_13  and  C_26
    4  A    between atoms: C_13  and  C_34
    5  A    between atoms: O_14  and  C_16
    6  A    between atoms: N_19  and  C_36
    7  A    between atoms: S_27  and  C_37
                            x       y       z     vdW  Elec       q    Type
                         _______ _______ _______ _____ _____    ______ ____

>  <TORSDO>
F 7

$$$$
=
 OpenBabel10222421553D

 40 44  0  0  1  0  0  0  0  0999 V2000
  196.8850  179.1880  134.6780 C   0  0  0  0  0  1  0  0  0  0  0  0
  193.3520  176.2100  136.2030 N   0  0  0  0  0  0  0  0  0  0  0  0
  190.8580  175.4850  137.3210 N   0  0  0  0  0  0  0  0  0  0  0  0
  191.7320  174.5130  136.7380 C   0  0  0  0  0  0  0  0  0  0  0  0
  191.0900  175.8540  138.6900 C   0  0  0  0  0  3  0  0  0  0  0  0
  196.6830  176.3910  134.3820 S   0  0  0  0  0  0  0  0  0  0  0  0
  187.6550  177.4080  136.6310 C   0  0  0  0  0  2  0  0  0  0  0  0
  189.0130  177.1280  137.2410 C   0  0  2  0  0  3  0  0  0  0  0  0
  189.5850  175.8300  136.6620 C   0  0  1  0  0  3  0  0  0  0  0  0
  193.3130  172.6250  135.5040 N   0  0  0  0  0  0  0  0  0  0  0  0
  189.7580  175.9950  135.1570 C   0  0  0  0  0  2  0  0  0  0  0  0
  195.7930  173.3500  134.3490 O   0  0  0  0  0  1  0  0  0  0  0  0
  191.3520  173.2110  136.6720 N   0  0  0  0  0  0  0  0  0  0  0  0
  194.5300  176.5690  135.6350 C   0  0  0  0  0  0  0  0  0  0  0  0
  192.9560  174.8990  136.1920 C   0  0  0  0  0  0  0  0  0  0  0  0
  196.1450  177.9170  134.8950 C   0  0  0  0  0  0  0  0  0  0  0  0
  195.3490  175.6230  135.0400 C   0  0  0  0  0  0  0  0  0  0  0  0
  188.9000  177.0060  138.7520 C   0  0  0  0  0  2  0  0  0  0  0  0
  190.2280  176.6190  139.3660 C   0  0  0  0  0  0  0  0  0  0  0  0
  193.7600  173.9080  135.5720 C   0  0  0  0  0  0  0  0  0  0  0  0
  194.9590  177.8520  135.5510 N   0  0  0  0  0  0  0  0  0  0  0  0
  192.1220  172.2750  136.0570 C   0  0  0  0  0  3  0  0  0  0  0  0
  187.8070  177.5640  135.1200 C   0  0  1  0  0  3  0  0  0  0  0  0
  194.9800  174.2790  134.9830 C   0  0  0  0  0  0  0  0  0  0  0  0
  188.4120  176.3000  134.5120 C   0  0  0  0  0  2  0  0  0  0  0  0
  190.5030  176.9030  140.7430 N   0  0  0  0  0  0  0  0  0  0  0  0
  189.7320  177.5800  141.5530 C   0  0  0  0  0  0  0  0  0  0  0  0
  189.8420  176.8630  143.8410 N   0  0  0  0  0  0  0  0  0  0  0  0
  190.1240  177.7620  142.9550 C   0  0  0  0  0  3  0  0  0  0  0  0
  189.2670  177.4320  146.2740 C   0  0  0  0  0  1  0  0  0  0  0  0
  191.4220  176.7590  145.5320 O   0  0  0  0  0  0  0  0  0  0  0  0
  190.2310  176.9830  145.2150 C   0  0  0  0  0  0  0  0  0  0  0  0
  188.4900  178.2540  141.0730 C   0  0  0  0  0  2  0  0  0  0  0  0
  187.4180  178.0610  142.0330 N   0  0  0  0  0  2  0  0  0  0  0  0
  186.1220  178.6030  141.8170 C   0  0  0  0  0  0  0  0  0  0  0  0
  185.9280  179.4240  140.8870 O   0  0  0  0  0  0  0  0  0  0  0  0
  185.0720  178.2030  142.6360 O   0  0  0  0  0  0  0  0  0  0  0  0
  184.4390  179.1000  143.5370 C   0  0  0  0  0  1  0  0  0  0  0  0
  186.1940  177.9030  134.3590 S   0  0  0  0  0  0  0  0  0  0  0  0
  185.3470  176.7440  135.4590 C   0  0  0  0  0  1  0  0  0  0  0  0
  1 16  1  0  0  0  0
  3  5  1  0  0  0  0
  4  3  1  0  0  0  0
  5 19  2  0  0  0  0
  6 16  1  0  0  0  0
  6 17  1  0  0  0  0
  8  7  1  6  0  0  0
  8 18  1  0  0  0  0
  9 11  1  6  0  0  0
  9  8  1  0  0  0  0
  9  3  1  0  0  0  0
 10 20  2  0  0  0  0
 10 22  1  0  0  0  0
 12 24  1  0  0  0  0
 13  4  1  0  0  0  0
 14  2  2  0  0  0  0
 15  2  1  0  0  0  0
 15  4  2  0  0  0  0
 16 21  2  0  0  0  0
 17 14  1  0  0  0  0
 18 19  1  0  0  0  0
 19 26  1  0  0  0  0
 20 15  1  0  0  0  0
 21 14  1  0  0  0  0
 22 13  2  0  0  0  0
 23 39  1  6  0  0  0
 23  7  1  0  0  0  0
 24 17  2  0  0  0  0
 24 20  1  0  0  0  0
 25 23  1  0  0  0  0
 25 11  1  0  0  0  0
 26 27  2  0  0  0  0
 27 29  1  0  0  0  0
 28 32  1  0  0  0  0
 29 28  2  0  0  0  0
 32 31  2  0  0  0  0
 32 30  1  0  0  0  0
 33 27  1  0  0  0  0
 33 34  1  0  0  0  0
 35 34  1  0  0  0  0
 35 37  1  0  0  0  0
 36 35  2  0  0  0  0
 37 38  1  0  0  0  0
 39 40  1  0  0  0  0
M  END
>  <MODEL>
4

>  <REMARK>
 VINA RESULT:      -6.0      4.695      7.640
  Name = 
  7 active torsions:
  status: ('A' for Active; 'I' for Inactive)
    1  A    between atoms: N_1  and  C_31
    2  A    between atoms: N_7  and  C_34
    3  A    between atoms: C_13  and  C_26
    4  A    between atoms: C_13  and  C_34
    5  A    between atoms: O_14  and  C_16
    6  A    between atoms: N_19  and  C_36
    7  A    between atoms: S_27  and  C_37
                            x       y       z     vdW  Elec       q    Type
                         _______ _______ _______ _____ _____    ______ ____

>  <TORSDO>
F 7

$$$$
=
 OpenBabel10222421553D

 40 44  0  0  1  0  0  0  0  0999 V2000
  190.9380  176.0680  143.9650 C   0  0  0  0  0  1  0  0  0  0  0  0
  189.1590  176.5890  139.4660 N   0  0  0  0  0  0  0  0  0  0  0  0
  188.8140  176.0160  136.7180 N   0  0  0  0  0  0  0  0  0  0  0  0
  188.0120  176.9940  137.3890 C   0  0  0  0  0  0  0  0  0  0  0  0
  190.0960  176.4320  136.2210 C   0  0  0  0  0  3  0  0  0  0  0  0
  188.8780  177.7720  143.0670 S   0  0  0  0  0  0  0  0  0  0  0  0
  188.6750  172.4730  135.3540 C   0  0  0  0  0  2  0  0  0  0  0  0
  189.3040  173.7280  135.9250 C   0  0  2  0  0  3  0  0  0  0  0  0
  188.2140  174.7500  136.2610 C   0  0  1  0  0  3  0  0  0  0  0  0
  186.3490  178.7820  138.6640 N   0  0  0  0  0  0  0  0  0  0  0  0
  187.2860  174.1540  137.3140 C   0  0  0  0  0  2  0  0  0  0  0  0
  186.6630  179.3310  141.4220 O   0  0  0  0  0  1  0  0  0  0  0  0
  187.0270  177.6410  136.7160 N   0  0  0  0  0  0  0  0  0  0  0  0
  189.3020  176.8320  140.7920 C   0  0  0  0  0  0  0  0  0  0  0  0
  188.2020  177.2550  138.7460 C   0  0  0  0  0  0  0  0  0  0  0  0
  190.0770  176.5860  142.8690 C   0  0  0  0  0  0  0  0  0  0  0  0
  188.4940  177.7530  141.4370 C   0  0  0  0  0  0  0  0  0  0  0  0
  190.2790  174.3310  134.9270 C   0  0  0  0  0  2  0  0  0  0  0  0
  190.8360  175.6430  135.4380 C   0  0  0  0  0  0  0  0  0  0  0  0
  187.3420  178.1880  139.3800 C   0  0  0  0  0  0  0  0  0  0  0  0
  190.1820  176.1690  141.5820 N   0  0  0  0  0  0  0  0  0  0  0  0
  186.1960  178.5180  137.3390 C   0  0  0  0  0  3  0  0  0  0  0  0
  187.7310  171.8690  136.3920 C   0  0  1  0  0  3  0  0  0  0  0  0
  187.4910  178.4410  140.7540 C   0  0  0  0  0  0  0  0  0  0  0  0
  186.6510  172.8760  136.7810 C   0  0  0  0  0  2  0  0  0  0  0  0
  192.0800  176.1480  134.9400 N   0  0  0  0  0  0  0  0  0  0  0  0
  193.2680  175.7000  135.2550 C   0  0  0  0  0  0  0  0  0  0  0  0
  195.2250  177.0880  135.3110 N   0  0  0  0  0  0  0  0  0  0  0  0
  194.4600  176.2910  134.6370 C   0  0  0  0  0  3  0  0  0  0  0  0
  196.4780  179.1060  134.3460 C   0  0  0  0  0  1  0  0  0  0  0  0
  197.4150  176.9330  134.5680 O   0  0  0  0  0  0  0  0  0  0  0  0
  196.4160  177.6650  134.7600 C   0  0  0  0  0  0  0  0  0  0  0  0
  193.4590  174.6510  136.2980 C   0  0  0  0  0  2  0  0  0  0  0  0
  193.3880  175.2470  137.6200 N   0  0  0  0  0  2  0  0  0  0  0  0
  194.5500  175.4170  138.4210 C   0  0  0  0  0  0  0  0  0  0  0  0
  195.6330  174.8800  138.0840 O   0  0  0  0  0  0  0  0  0  0  0  0
  194.4760  176.1950  139.5700 O   0  0  0  0  0  0  0  0  0  0  0  0
  193.3280  176.9730  139.8780 C   0  0  0  0  0  1  0  0  0  0  0  0
  186.9620  170.3610  135.7380 S   0  0  0  0  0  0  0  0  0  0  0  0
  188.1960  170.2120  134.4230 C   0  0  0  0  0  1  0  0  0  0  0  0
  2 14  2  0  0  0  0
  3  4  1  0  0  0  0
  4 15  1  0  0  0  0
  5  3  1  0  0  0  0
  7  8  1  0  0  0  0
  7 23  1  0  0  0  0
  8 18  1  6  0  0  0
  8  9  1  0  0  0  0
  9  3  1  0  0  0  0
  9 11  1  1  0  0  0
 10 20  1  0  0  0  0
 13 22  1  0  0  0  0
 13  4  2  0  0  0  0
 14 17  1  0  0  0  0
 14 21  1  0  0  0  0
 15 20  2  0  0  0  0
 15  2  1  0  0  0  0
 16  6  1  0  0  0  0
 16  1  1  0  0  0  0
 17  6  1  0  0  0  0
 18 19  1  0  0  0  0
 19  5  2  0  0  0  0
 20 24  1  0  0  0  0
 21 16  2  0  0  0  0
 22 10  2  0  0  0  0
 23 39  1  6  0  0  0
 23 25  1  0  0  0  0
 24 12  1  0  0  0  0
 24 17  2  0  0  0  0
 25 11  1  0  0  0  0
 26 27  2  0  0  0  0
 26 19  1  0  0  0  0
 27 33  1  0  0  0  0
 29 27  1  0  0  0  0
 29 28  2  0  0  0  0
 30 32  1  0  0  0  0
 31 32  2  0  0  0  0
 32 28  1  0  0  0  0
 33 34  1  0  0  0  0
 34 35  1  0  0  0  0
 35 37  1  0  0  0  0
 36 35  2  0  0  0  0
 37 38  1  0  0  0  0
 40 39  1  0  0  0  0
M  END
>  <MODEL>
5

>  <REMARK>
 VINA RESULT:      -5.7      4.740      9.721
  Name = 
  7 active torsions:
  status: ('A' for Active; 'I' for Inactive)
    1  A    between atoms: N_1  and  C_31
    2  A    between atoms: N_7  and  C_34
    3  A    between atoms: C_13  and  C_26
    4  A    between atoms: C_13  and  C_34
    5  A    between atoms: O_14  and  C_16
    6  A    between atoms: N_19  and  C_36
    7  A    between atoms: S_27  and  C_37
                            x       y       z     vdW  Elec       q    Type
                         _______ _______ _______ _____ _____    ______ ____

>  <TORSDO>
F 7

$$$$
=
 OpenBabel10222421553D

 40 44  0  0  1  0  0  0  0  0999 V2000
  185.1780  171.1700  136.5510 C   0  0  0  0  0  1  0  0  0  0  0  0
  186.9230  175.6270  137.4230 N   0  0  0  0  0  0  0  0  0  0  0  0
  187.1960  178.1020  138.7640 N   0  0  0  0  0  0  0  0  0  0  0  0
  188.0630  177.7300  137.6880 C   0  0  0  0  0  0  0  0  0  0  0  0
  185.9340  178.7000  138.4280 C   0  0  0  0  0  3  0  0  0  0  0  0
  187.3210  172.5040  135.2950 S   0  0  0  0  0  0  0  0  0  0  0  0
  187.1080  178.4130  142.5500 C   0  0  0  0  0  2  0  0  0  0  0  0
  186.5610  178.2210  141.1500 C   0  0  2  0  0  3  0  0  0  0  0  0
  187.7140  178.1820  140.1420 C   0  0  1  0  0  3  0  0  0  0  0  0
  189.8450  177.0040  135.7170 N   0  0  0  0  0  0  0  0  0  0  0  0
  188.6190  177.0010  140.4720 C   0  0  0  0  0  2  0  0  0  0  0  0
  189.6010  174.5130  134.3970 O   0  0  0  0  0  1  0  0  0  0  0  0
  189.0750  178.5550  137.3160 N   0  0  0  0  0  0  0  0  0  0  0  0
  186.8120  174.4240  136.8090 C   0  0  0  0  0  0  0  0  0  0  0  0
  187.9060  176.5020  137.0450 C   0  0  0  0  0  0  0  0  0  0  0  0
  186.0520  172.3640  136.4140 C   0  0  0  0  0  0  0  0  0  0  0  0
  187.6810  174.0610  135.7940 C   0  0  0  0  0  0  0  0  0  0  0  0
  185.6100  179.3510  140.7940 C   0  0  0  0  0  2  0  0  0  0  0  0
  185.1380  179.2320  139.3600 C   0  0  0  0  0  0  0  0  0  0  0  0
  188.8280  176.1530  136.0250 C   0  0  0  0  0  0  0  0  0  0  0  0
  185.9050  173.4820  137.1690 N   0  0  0  0  0  0  0  0  0  0  0  0
  189.9640  178.2010  136.3510 C   0  0  0  0  0  3  0  0  0  0  0  0
  188.0280  177.2440  142.8930 C   0  0  1  0  0  3  0  0  0  0  0  0
  188.7140  174.9060  135.3880 C   0  0  0  0  0  0  0  0  0  0  0  0
  189.1710  177.1510  141.8840 C   0  0  0  0  0  2  0  0  0  0  0  0
  183.9190  179.8560  138.9420 N   0  0  0  0  0  0  0  0  0  0  0  0
  182.7120  179.4120  139.1780 C   0  0  0  0  0  0  0  0  0  0  0  0
  181.6880  181.3760  138.2540 N   0  0  0  0  0  0  0  0  0  0  0  0
  181.5480  180.1770  138.7180 C   0  0  0  0  0  3  0  0  0  0  0  0
  180.1730  182.1190  136.3230 C   0  0  0  0  0  1  0  0  0  0  0  0
  179.9830  182.9150  138.5550 O   0  0  0  0  0  0  0  0  0  0  0  0
  180.5850  182.1500  137.7660 C   0  0  0  0  0  0  0  0  0  0  0  0
  182.4770  178.0920  139.8340 C   0  0  0  0  0  2  0  0  0  0  0  0
  181.3470  178.1840  140.7420 N   0  0  0  0  0  2  0  0  0  0  0  0
  181.5020  178.6520  142.0750 C   0  0  0  0  0  0  0  0  0  0  0  0
  182.6500  178.8130  142.5580 O   0  0  0  0  0  0  0  0  0  0  0  0
  180.3720  178.9430  142.8290 O   0  0  0  0  0  0  0  0  0  0  0  0
  180.2770  178.5990  144.2040 C   0  0  0  0  0  1  0  0  0  0  0  0
  188.6990  177.4450  144.5680 S   0  0  0  0  0  0  0  0  0  0  0  0
  187.0940  177.9550  145.2300 C   0  0  0  0  0  1  0  0  0  0  0  0
  3  9  1  0  0  0  0
  4  3  1  0  0  0  0
  5  3  1  0  0  0  0
  5 19  2  0  0  0  0
  6 17  1  0  0  0  0
  6 16  1  0  0  0  0
  7 23  1  0  0  0  0
  8 18  1  6  0  0  0
  8  7  1  0  0  0  0
  9 11  1  1  0  0  0
  9  8  1  0  0  0  0
 10 20  2  0  0  0  0
 10 22  1  0  0  0  0
 11 25  1  0  0  0  0
 12 24  1  0  0  0  0
 13  4  1  0  0  0  0
 14 21  1  0  0  0  0
 14  2  2  0  0  0  0
 15  2  1  0  0  0  0
 15  4  2  0  0  0  0
 16  1  1  0  0  0  0
 16 21  2  0  0  0  0
 17 14  1  0  0  0  0
 19 18  1  0  0  0  0
 20 15  1  0  0  0  0
 22 13  2  0  0  0  0
 23 39  1  1  0  0  0
 24 17  2  0  0  0  0
 24 20  1  0  0  0  0
 25 23  1  0  0  0  0
 26 27  2  0  0  0  0
 26 19  1  0  0  0  0
 27 33  1  0  0  0  0
 28 29  2  0  0  0  0
 29 27  1  0  0  0  0
 30 32  1  0  0  0  0
 32 28  1  0  0  0  0
 32 31  2  0  0  0  0
 33 34  1  0  0  0  0
 34 35  1  0  0  0  0
 35 36  2  0  0  0  0
 35 37  1  0  0  0  0
 37 38  1  0  0  0  0
 39 40  1  0  0  0  0
M  END
>  <MODEL>
6

>  <REMARK>
 VINA RESULT:      -5.1      3.509      7.054
  Name = 
  7 active torsions:
  status: ('A' for Active; 'I' for Inactive)
    1  A    between atoms: N_1  and  C_31
    2  A    between atoms: N_7  and  C_34
    3  A    between atoms: C_13  and  C_26
    4  A    between atoms: C_13  and  C_34
    5  A    between atoms: O_14  and  C_16
    6  A    between atoms: N_19  and  C_36
    7  A    between atoms: S_27  and  C_37
                            x       y       z     vdW  Elec       q    Type
                         _______ _______ _______ _____ _____    ______ ____

>  <TORSDO>
F 7

$$$$
=
 OpenBabel10222421553D

 40 44  0  0  1  0  0  0  0  0999 V2000
  185.2300  171.2600  136.5370 C   0  0  0  0  0  1  0  0  0  0  0  0
  186.9540  175.6880  137.5850 N   0  0  0  0  0  0  0  0  0  0  0  0
  187.2540  178.0870  139.0510 N   0  0  0  0  0  0  0  0  0  0  0  0
  188.0780  177.7890  137.9190 C   0  0  0  0  0  0  0  0  0  0  0  0
  185.9710  178.6830  138.8040 C   0  0  0  0  0  3  0  0  0  0  0  0
  187.2990  172.6940  135.2670 S   0  0  0  0  0  0  0  0  0  0  0  0
  187.3280  178.1840  142.8480 C   0  0  0  0  0  2  0  0  0  0  0  0
  186.7230  178.0620  141.4640 C   0  0  2  0  0  3  0  0  0  0  0  0
  187.8310  178.0980  140.4070 C   0  0  1  0  0  3  0  0  0  0  0  0
  189.7810  177.2020  135.8350 N   0  0  0  0  0  0  0  0  0  0  0  0
  188.7650  176.9140  140.6310 C   0  0  0  0  0  2  0  0  0  0  0  0
  189.5120  174.7850  134.3870 O   0  0  0  0  0  1  0  0  0  0  0  0
  189.0630  178.6490  137.5510 N   0  0  0  0  0  0  0  0  0  0  0  0
  186.8320  174.5190  136.9090 C   0  0  0  0  0  0  0  0  0  0  0  0
  187.9090  176.5970  137.2150 C   0  0  0  0  0  0  0  0  0  0  0  0
  186.0820  172.4730  136.4310 C   0  0  0  0  0  0  0  0  0  0  0  0
  187.6610  174.2270  135.8380 C   0  0  0  0  0  0  0  0  0  0  0  0
  185.7430  179.1960  141.2140 C   0  0  0  0  0  2  0  0  0  0  0  0
  185.2110  179.1510  139.7980 C   0  0  0  0  0  0  0  0  0  0  0  0
  188.7900  176.3200  136.1370 C   0  0  0  0  0  0  0  0  0  0  0  0
  185.9540  173.5450  137.2530 N   0  0  0  0  0  0  0  0  0  0  0  0
  189.9130  178.3630  136.5300 C   0  0  0  0  0  3  0  0  0  0  0  0
  188.2780  177.0120  143.0850 C   0  0  1  0  0  3  0  0  0  0  0  0
  188.6630  175.1090  135.4360 C   0  0  0  0  0  0  0  0  0  0  0  0
  189.3770  176.9930  142.0240 C   0  0  0  0  0  2  0  0  0  0  0  0
  183.9660  179.7780  139.4680 N   0  0  0  0  0  0  0  0  0  0  0  0
  182.7820  179.2350  139.5810 C   0  0  0  0  0  0  0  0  0  0  0  0
  181.6650  181.0320  138.4470 N   0  0  0  0  0  0  0  0  0  0  0  0
  181.5860  180.0120  139.2390 C   0  0  0  0  0  3  0  0  0  0  0  0
  179.9860  181.7780  136.6590 C   0  0  0  0  0  1  0  0  0  0  0  0
  179.9820  182.5570  138.9040 O   0  0  0  0  0  0  0  0  0  0  0  0
  180.5200  181.8020  138.0610 C   0  0  0  0  0  0  0  0  0  0  0  0
  182.6090  177.8050  139.9700 C   0  0  0  0  0  2  0  0  0  0  0  0
  182.3300  177.0010  138.7940 N   0  0  0  0  0  2  0  0  0  0  0  0
  181.5480  175.8170  138.8730 C   0  0  0  0  0  0  0  0  0  0  0  0
  181.2440  175.3350  139.9910 O   0  0  0  0  0  0  0  0  0  0  0  0
  181.1130  175.2100  137.7010 O   0  0  0  0  0  0  0  0  0  0  0  0
  181.9380  175.1250  136.5480 C   0  0  0  0  0  1  0  0  0  0  0  0
  189.0180  177.1290  144.7380 S   0  0  0  0  0  0  0  0  0  0  0  0
  190.5020  177.9420  144.0980 C   0  0  0  0  0  1  0  0  0  0  0  0
  3  9  1  0  0  0  0
  4  3  1  0  0  0  0
  5  3  1  0  0  0  0
  5 19  2  0  0  0  0
  6 17  1  0  0  0  0
  6 16  1  0  0  0  0
  7 23  1  0  0  0  0
  8 18  1  6  0  0  0
  8  7  1  0  0  0  0
  9 11  1  6  0  0  0
  9  8  1  0  0  0  0
 10 20  2  0  0  0  0
 10 22  1  0  0  0  0
 11 25  1  0  0  0  0
 12 24  1  0  0  0  0
 13  4  1  0  0  0  0
 14 21  1  0  0  0  0
 14  2  2  0  0  0  0
 15  2  1  0  0  0  0
 15  4  2  0  0  0  0
 16  1  1  0  0  0  0
 16 21  2  0  0  0  0
 17 14  1  0  0  0  0
 19 18  1  0  0  0  0
 20 15  1  0  0  0  0
 22 13  2  0  0  0  0
 23 39  1  1  0  0  0
 24 17  2  0  0  0  0
 24 20  1  0  0  0  0
 25 23  1  0  0  0  0
 26 27  2  0  0  0  0
 26 19  1  0  0  0  0
 27 33  1  0  0  0  0
 28 29  2  0  0  0  0
 29 27  1  0  0  0  0
 30 32  1  0  0  0  0
 32 28  1  0  0  0  0
 32 31  2  0  0  0  0
 34 35  1  0  0  0  0
 34 33  1  0  0  0  0
 35 36  2  0  0  0  0
 37 35  1  0  0  0  0
 38 37  1  0  0  0  0
 40 39  1  0  0  0  0
M  END
>  <MODEL>
7

>  <REMARK>
 VINA RESULT:      -5.1      3.574      7.119
  Name = 
  7 active torsions:
  status: ('A' for Active; 'I' for Inactive)
    1  A    between atoms: N_1  and  C_31
    2  A    between atoms: N_7  and  C_34
    3  A    between atoms: C_13  and  C_26
    4  A    between atoms: C_13  and  C_34
    5  A    between atoms: O_14  and  C_16
    6  A    between atoms: N_19  and  C_36
    7  A    between atoms: S_27  and  C_37
                            x       y       z     vdW  Elec       q    Type
                         _______ _______ _______ _____ _____    ______ ____

>  <TORSDO>
F 7

$$$$
=
 OpenBabel10222421553D

 40 44  0  0  1  0  0  0  0  0999 V2000
  184.5800  178.3110  146.0180 C   0  0  0  0  0  1  0  0  0  0  0  0
  184.6200  178.3010  141.1520 N   0  0  0  0  0  0  0  0  0  0  0  0
  183.5430  178.3210  138.5380 N   0  0  0  0  0  0  0  0  0  0  0  0
  184.9510  178.4310  138.7720 C   0  0  0  0  0  0  0  0  0  0  0  0
  182.9740  177.0030  138.5010 C   0  0  0  0  0  3  0  0  0  0  0  0
  186.7810  178.5360  144.2700 S   0  0  0  0  0  0  0  0  0  0  0  0
  180.5100  180.3980  137.5760 C   0  0  0  0  0  2  0  0  0  0  0  0
  181.2780  179.2540  138.2080 C   0  0  2  0  0  3  0  0  0  0  0  0
  182.7830  179.4750  138.0230 C   0  0  1  0  0  3  0  0  0  0  0  0
  187.6530  178.7850  139.1740 N   0  0  0  0  0  0  0  0  0  0  0  0
  183.1830  180.7690  138.7210 C   0  0  0  0  0  2  0  0  0  0  0  0
  188.7340  178.8060  141.7890 O   0  0  0  0  0  1  0  0  0  0  0  0
  185.8020  178.5920  137.7270 N   0  0  0  0  0  0  0  0  0  0  0  0
  185.1280  178.3300  142.4090 C   0  0  0  0  0  0  0  0  0  0  0  0
  185.4550  178.4200  140.0720 C   0  0  0  0  0  0  0  0  0  0  0  0
  185.1320  178.3720  144.6390 C   0  0  0  0  0  0  0  0  0  0  0  0
  186.4890  178.4750  142.6230 C   0  0  0  0  0  0  0  0  0  0  0  0
  180.8740  177.9330  137.5760 C   0  0  0  0  0  2  0  0  0  0  0  0
  181.7100  176.7940  138.1210 C   0  0  0  0  0  0  0  0  0  0  0  0
  186.8510  178.5920  140.2560 C   0  0  0  0  0  0  0  0  0  0  0  0
  184.3610  178.2810  143.5260 N   0  0  0  0  0  0  0  0  0  0  0  0
  187.1350  178.7770  137.9160 C   0  0  0  0  0  3  0  0  0  0  0  0
  180.9080  181.7050  138.2560 C   0  0  1  0  0  3  0  0  0  0  0  0
  187.3780  178.6220  141.5580 C   0  0  0  0  0  0  0  0  0  0  0  0
  182.4120  181.9390  138.1240 C   0  0  0  0  0  2  0  0  0  0  0  0
  181.2290  175.4460  138.0610 N   0  0  0  0  0  0  0  0  0  0  0  0
  181.1950  174.6920  136.9940 C   0  0  0  0  0  0  0  0  0  0  0  0
  181.0190  172.4400  136.1830 N   0  0  0  0  0  0  0  0  0  0  0  0
  180.7090  173.3120  137.0870 C   0  0  0  0  0  3  0  0  0  0  0  0
  180.8000  170.1250  135.1030 C   0  0  0  0  0  1  0  0  0  0  0  0
  179.9820  170.6740  137.2660 O   0  0  0  0  0  0  0  0  0  0  0  0
  180.5930  171.0730  136.2470 C   0  0  0  0  0  0  0  0  0  0  0  0
  181.5600  175.2240  135.6480 C   0  0  0  0  0  2  0  0  0  0  0  0
  183.0000  175.1720  135.4680 N   0  0  0  0  0  2  0  0  0  0  0  0
  183.7530  176.3390  135.1650 C   0  0  0  0  0  0  0  0  0  0  0  0
  183.1670  177.4050  134.8550 O   0  0  0  0  0  0  0  0  0  0  0  0
  185.1400  176.2890  135.2300 O   0  0  0  0  0  0  0  0  0  0  0  0
  185.9600  177.1390  134.4420 C   0  0  0  0  0  1  0  0  0  0  0  0
  180.0010  183.0960  137.5200 S   0  0  0  0  0  0  0  0  0  0  0  0
  181.5290  183.9660  137.0950 C   0  0  0  0  0  1  0  0  0  0  0  0
  2 14  2  0  0  0  0
  3  4  1  0  0  0  0
  4 15  1  0  0  0  0
  5  3  1  0  0  0  0
  6 16  1  0  0  0  0
  7 23  1  0  0  0  0
  8  7  1  6  0  0  0
  9  8  1  0  0  0  0
  9  3  1  0  0  0  0
  9 11  1  1  0  0  0
 10 20  1  0  0  0  0
 13 22  1  0  0  0  0
 13  4  2  0  0  0  0
 14 17  1  0  0  0  0
 14 21  1  0  0  0  0
 15 20  2  0  0  0  0
 15  2  1  0  0  0  0
 16  1  1  0  0  0  0
 17  6  1  0  0  0  0
 18 19  1  0  0  0  0
 18  8  1  0  0  0  0
 19  5  2  0  0  0  0
 20 24  1  0  0  0  0
 21 16  2  0  0  0  0
 22 10  2  0  0  0  0
 23 39  1  6  0  0  0
 24 12  1  0  0  0  0
 24 17  2  0  0  0  0
 25 23  1  0  0  0  0
 25 11  1  0  0  0  0
 26 19  1  0  0  0  0
 27 29  1  0  0  0  0
 27 26  2  0  0  0  0
 28 32  1  0  0  0  0
 28 29  2  0  0  0  0
 30 32  1  0  0  0  0
 32 31  2  0  0  0  0
 33 27  1  0  0  0  0
 34 33  1  0  0  0  0
 35 37  1  0  0  0  0
 35 34  1  0  0  0  0
 36 35  2  0  0  0  0
 38 37  1  0  0  0  0
 40 39  1  0  0  0  0
M  END
>  <MODEL>
8

>  <REMARK>
 VINA RESULT:      -4.3      2.688      7.456
  Name = 
  7 active torsions:
  status: ('A' for Active; 'I' for Inactive)
    1  A    between atoms: N_1  and  C_31
    2  A    between atoms: N_7  and  C_34
    3  A    between atoms: C_13  and  C_26
    4  A    between atoms: C_13  and  C_34
    5  A    between atoms: O_14  and  C_16
    6  A    between atoms: N_19  and  C_36
    7  A    between atoms: S_27  and  C_37
                            x       y       z     vdW  Elec       q    Type
                         _______ _______ _______ _____ _____    ______ ____

>  <TORSDO>
F 7

$$$$
