=
 OpenBabel10222421393D

 60 69  0  0  1  0  0  0  0  0999 V2000
  187.9420  176.3010  136.5380 C   0  0  0  0  0  3  0  0  0  0  0  0
  190.5370  176.1890  137.5990 C   0  0  0  0  0  0  0  0  0  0  0  0
  188.5120  175.0610  136.8440 C   0  0  0  0  0  0  0  0  0  0  0  0
  189.9450  177.4220  137.3010 C   0  0  0  0  0  3  0  0  0  0  0  0
  190.3690  173.7680  137.7080 O   0  0  0  0  0  1  0  0  0  0  0  0
  189.8130  175.0010  137.3770 C   0  0  0  0  0  0  0  0  0  0  0  0
  188.6490  177.4840  136.7780 C   0  0  0  0  0  0  0  0  0  0  0  0
  192.2270  174.2120  135.4610 C   0  0  0  0  0  3  0  0  0  0  0  0
  195.4900  174.5780  136.8540 C   0  0  0  0  0  0  0  0  0  0  0  0
  192.9800  175.5800  137.5510 N   0  0  0  0  0  0  0  0  0  0  0  0
  192.8660  173.4800  134.5950 N   0  0  0  0  0  0  0  0  0  0  0  0
  195.1620  172.5300  134.8470 C   0  0  0  0  0  3  0  0  0  0  0  0
  194.0220  175.8150  138.3740 C   0  0  0  0  0  0  0  0  0  0  0  0
  193.1750  174.9770  136.2610 C   0  0  0  0  0  0  0  0  0  0  0  0
  196.3900  173.5860  136.7450 C   0  0  0  0  0  0  0  0  0  0  0  0
  194.3840  174.6210  135.8830 C   0  0  0  0  0  0  0  0  0  0  0  0
  194.3010  173.7580  134.6850 C   0  0  2  0  0  3  0  0  0  0  0  0
  193.6920  176.4970  139.4860 N   0  0  0  0  0  0  0  0  0  0  0  0
  195.3420  175.3330  138.0740 N   0  0  0  0  0  2  0  0  0  0  0  0
  196.1570  172.4910  135.7510 C   0  0  0  0  0  3  0  0  0  0  0  0
  192.3580  176.7130  139.3350 C   0  0  0  0  0  0  0  0  0  0  0  0
  191.9130  176.1560  138.1400 C   0  0  0  0  0  0  0  0  0  0  0  0
  191.7830  176.8820  141.7300 C   0  0  1  0  0  3  0  0  0  0  0  0
  190.5250  176.4560  141.0070 C   0  0  0  0  0  2  0  0  0  0  0  0
  191.4970  177.4220  140.3410 C   0  0  2  0  0  3  0  0  0  0  0  0
  191.4110  177.9010  142.7880 C   0  0  0  0  0  2  0  0  0  0  0  0
  191.6970  176.6000  146.2320 C   0  0  0  0  0  2  0  0  0  0  0  0
  189.5600  177.4470  146.0200 C   0  0  0  0  0  2  0  0  0  0  0  0
  190.4380  178.1380  145.0060 C   0  0  2  0  0  3  0  0  0  0  0  0
  190.4380  176.7540  146.9460 N   0  0  0  0  0  2  0  0  0  0  0  0
  190.9860  177.1740  144.0560 C   0  0  2  0  0  3  0  0  0  0  0  0
  191.8010  177.6270  145.1990 N   0  0  2  0  0  0  0  0  0  0  0  0
  197.4510  173.4730  137.6980 N   0  0  0  0  0  2  0  0  0  0  0  0
  198.7280  174.1420  137.5090 C   0  0  0  0  0  2  0  0  0  0  0  0
  198.5490  175.8180  139.1890 O   0  0  0  0  0  1  0  0  0  0  0  0
  199.2490  174.6630  138.8350 C   0  0  0  0  0  2  0  0  0  0  0  0
  188.0320  178.8120  136.4900 C   0  0  0  0  0  2  0  0  0  0  0  0
  186.5270  178.6600  136.3310 C   0  0  0  0  0  2  0  0  0  0  0  0
  184.7910  178.3260  138.0950 C   0  0  0  0  0  0  0  0  0  0  0  0
  184.7910  177.0780  137.9110 O   0  0  0  0  0  0  0  0  0  0  0  0
  185.8440  179.1120  137.5290 N   0  0  0  0  0  2  0  0  0  0  0  0
  183.9360  178.6810  140.4540 C   0  0  2  0  0  3  0  0  0  0  0  0
  183.7140  178.9620  138.9460 C   0  0  2  0  0  3  0  0  0  0  0  0
  181.3360  178.1500  139.5420 C   0  0  1  0  0  0  0  0  0  0  0  0
  181.9490  177.1490  138.5960 C   0  0  0  0  0  2  0  0  0  0  0  0
  181.8420  178.0700  140.9770 C   0  0  0  0  0  2  0  0  0  0  0  0
  182.2820  178.6360  138.4440 C   0  0  2  0  0  3  0  0  0  0  0  0
  182.8050  179.0610  141.1990 O   0  0  0  0  0  0  0  0  0  0  0  0
  179.9820  178.3910  139.3130 O   0  0  0  0  0  1  0  0  0  0  0  0
  185.0440  179.4130  140.9020 O   0  0  0  0  0  0  0  0  0  0  0  0
  186.0510  178.4720  141.1570 C   0  0  1  0  0  3  0  0  0  0  0  0
  187.3010  179.0280  140.8660 O   0  0  0  0  0  1  0  0  0  0  0  0
  185.9870  178.0400  142.6230 C   0  0  2  0  0  3  0  0  0  0  0  0
  185.3890  179.0880  143.4390 N   0  0  0  0  0  1  0  0  0  0  0  0
  187.3810  177.7150  143.1360 C   0  0  0  0  0  2  0  0  0  0  0  0
  187.4540  176.3780  143.5250 O   0  0  0  0  0  1  0  0  0  0  0  0
  187.7130  173.8210  136.6360 C   0  0  0  0  0  2  0  0  0  0  0  0
  186.3930  173.9000  137.3780 C   0  0  0  0  0  2  0  0  0  0  0  0
  184.1130  172.9560  137.2540 C   0  0  0  0  0  1  0  0  0  0  0  0
  185.2760  173.4850  136.4490 C   0  0  0  0  0  2  0  0  0  0  0  0
  1  7  2  0  0  0  0
  1  3  1  0  0  0  0
  2 22  1  0  0  0  0
  3  6  2  0  0  0  0
  4  2  2  0  0  0  0
  6  2  1  0  0  0  0
  6  5  1  0  0  0  0
  7  4  1  0  0  0  0
  8 14  1  0  0  0  0
  9 19  1  0  0  0  0
 10 22  1  0  0  0  0
 10 13  1  0  0  0  0
 11 17  1  0  0  0  0
 11  8  2  0  0  0  0
 12 20  2  0  0  0  0
 13 18  2  0  0  0  0
 14 10  1  0  0  0  0
 15  9  2  0  0  0  0
 15 33  1  0  0  0  0
 16 14  2  0  0  0  0
 16  9  1  0  0  0  0
 17 12  1  1  0  0  0
 17 16  1  0  0  0  0
 19 13  1  0  0  0  0
 20 15  1  0  0  0  0
 21 18  1  0  0  0  0
 22 21  2  0  0  0  0
 23 26  1  1  0  0  0
 24 23  1  0  0  0  0
 25 21  1  6  0  0  0
 25 24  1  0  0  0  0
 25 23  1  0  0  0  0
 27 30  1  0  0  0  0
 28 30  1  0  0  0  0
 29 32  1  0  0  0  0
 29 28  1  1  0  0  0
 31 26  1  6  0  0  0
 31 29  1  0  0  0  0
 31 32  1  0  0  0  0
 32 27  1  1  0  0  0
 34 33  1  0  0  0  0
 34 36  1  0  0  0  0
 36 35  1  0  0  0  0
 37  7  1  0  0  0  0
 38 37  1  0  0  0  0
 38 41  1  0  0  0  0
 40 39  2  0  0  0  0
 41 39  1  0  0  0  0
 42 50  1  1  0  0  0
 42 48  1  0  0  0  0
 43 39  1  6  0  0  0
 43 42  1  0  0  0  0
 44 49  1  6  0  0  0
 44 46  1  0  0  0  0
 45 44  1  0  0  0  0
 46 48  1  0  0  0  0
 47 45  1  6  0  0  0
 47 43  1  0  0  0  0
 47 44  1  0  0  0  0
 50 51  1  0  0  0  0
 51 52  1  1  0  0  0
 51 53  1  0  0  0  0
 53 55  1  0  0  0  0
 53 54  1  1  0  0  0
 55 56  1  0  0  0  0
 57  3  1  0  0  0  0
 57 58  1  0  0  0  0
 60 59  1  0  0  0  0
 60 58  1  0  0  0  0
M  END
>  <MODEL>
1

>  <REMARK>
 VINA RESULT:      -7.1      0.000      0.000
  Name = 
  18 active torsions:
  status: ('A' for Active; 'I' for Inactive)
    1  A    between atoms: C_2  and  C_11
    2  A    between atoms: C_6  and  C_51
    3  A    between atoms: C_9  and  O_27
    4  A    between atoms: C_12  and  C_54
    5  A    between atoms: C_13  and  C_52
    6  A    between atoms: C_13  and  C_54
    7  A    between atoms: N_20  and  C_24
    8  A    between atoms: N_20  and  C_35
    9  A    between atoms: C_21  and  C_38
   10  A    between atoms: C_21  and  C_58
   11  A    between atoms: O_27  and  C_41
   12  A    between atoms: C_30  and  CA_49
   13  A    between atoms: C_31  and  C_33
   14  A    between atoms: C_33  and  C_45
   15  A    between atoms: C_35  and  C_44
   16  A    between atoms: C_36  and  C_47
   17  A    between atoms: C_38  and  N_57
   18  A    between atoms: C_41  and  CA_49
                            x       y       z     vdW  Elec       q    Type
                         _______ _______ _______ _____ _____    ______ ____

>  <TORSDO>
F 18

$$$$
=
 OpenBabel10222421393D

 60 69  0  0  1  0  0  0  0  0999 V2000
  187.0080  175.8710  136.8130 C   0  0  0  0  0  3  0  0  0  0  0  0
  189.6860  176.0800  137.6250 C   0  0  0  0  0  0  0  0  0  0  0  0
  187.7440  174.7110  137.0800 C   0  0  0  0  0  0  0  0  0  0  0  0
  188.9290  177.2300  137.3690 C   0  0  0  0  0  3  0  0  0  0  0  0
  189.8100  173.6600  137.7790 O   0  0  0  0  0  1  0  0  0  0  0  0
  189.0870  174.8130  137.4870 C   0  0  0  0  0  0  0  0  0  0  0  0
  187.5930  177.1320  136.9700 C   0  0  0  0  0  0  0  0  0  0  0  0
  191.3930  174.3110  135.3250 C   0  0  0  0  0  3  0  0  0  0  0  0
  194.7050  175.0780  136.4070 C   0  0  0  0  0  0  0  0  0  0  0  0
  192.1680  175.7720  137.3430 N   0  0  0  0  0  0  0  0  0  0  0  0
  192.0320  173.6580  134.3990 N   0  0  0  0  0  0  0  0  0  0  0  0
  194.4400  172.9950  134.4270 C   0  0  0  0  0  3  0  0  0  0  0  0
  193.2480  176.1360  138.0660 C   0  0  0  0  0  0  0  0  0  0  0  0
  192.3130  175.1900  136.0370 C   0  0  0  0  0  0  0  0  0  0  0  0
  195.7030  174.2020  136.2070 C   0  0  0  0  0  0  0  0  0  0  0  0
  193.5150  174.9810  135.5440 C   0  0  0  0  0  0  0  0  0  0  0  0
  193.4250  174.1090  134.3540 C   0  0  2  0  0  3  0  0  0  0  0  0
  192.9430  176.7790  139.2080 N   0  0  0  0  0  0  0  0  0  0  0  0
  194.5820  175.8160  137.6390 N   0  0  0  0  0  2  0  0  0  0  0  0
  195.5130  173.0820  135.2330 C   0  0  0  0  0  3  0  0  0  0  0  0
  191.5850  176.8310  139.1850 C   0  0  0  0  0  0  0  0  0  0  0  0
  191.1000  176.2180  138.0340 C   0  0  0  0  0  0  0  0  0  0  0  0
  191.3490  177.1150  141.6260 C   0  0  1  0  0  3  0  0  0  0  0  0
  190.1300  176.3560  141.1540 C   0  0  0  0  0  2  0  0  0  0  0  0
  190.7430  177.4360  140.2720 C   0  0  2  0  0  3  0  0  0  0  0  0
  190.9140  178.1320  142.6610 C   0  0  0  0  0  2  0  0  0  0  0  0
  191.3320  176.4500  145.9220 C   0  0  0  0  0  2  0  0  0  0  0  0
  189.4840  177.8190  146.1160 C   0  0  0  0  0  2  0  0  0  0  0  0
  190.3590  178.3710  145.0190 C   0  0  2  0  0  3  0  0  0  0  0  0
  190.2710  176.8370  146.8400 N   0  0  0  0  0  2  0  0  0  0  0  0
  190.4960  177.4050  143.9320 C   0  0  2  0  0  3  0  0  0  0  0  0
  191.5540  177.5200  144.9530 N   0  0  2  0  0  0  0  0  0  0  0  0
  196.8560  174.2230  137.0550 N   0  0  0  0  0  2  0  0  0  0  0  0
  197.9980  173.3540  136.8200 C   0  0  0  0  0  2  0  0  0  0  0  0
  198.9320  175.4170  136.0900 O   0  0  0  0  0  1  0  0  0  0  0  0
  199.2590  174.1790  136.6460 C   0  0  0  0  0  2  0  0  0  0  0  0
  186.8010  178.3740  136.7260 C   0  0  0  0  0  2  0  0  0  0  0  0
  186.5220  179.0790  138.0450 C   0  0  0  0  0  2  0  0  0  0  0  0
  184.5390  179.0520  139.5620 C   0  0  0  0  0  0  0  0  0  0  0  0
  184.1890  180.2040  139.1870 O   0  0  0  0  0  0  0  0  0  0  0  0
  185.5290  178.3460  138.8090 N   0  0  0  0  0  2  0  0  0  0  0  0
  182.5460  179.1290  141.1270 C   0  0  2  0  0  3  0  0  0  0  0  0
  183.8740  178.4170  140.7650 C   0  0  2  0  0  3  0  0  0  0  0  0
  184.2900  178.7480  143.2910 C   0  0  1  0  0  0  0  0  0  0  0  0
  185.2930  179.5850  142.5390 C   0  0  0  0  0  2  0  0  0  0  0  0
  182.8800  179.3230  143.3360 C   0  0  0  0  0  2  0  0  0  0  0  0
  184.8460  178.2380  141.9620 C   0  0  2  0  0  3  0  0  0  0  0  0
  182.0780  178.6910  142.3790 O   0  0  0  0  0  0  0  0  0  0  0  0
  184.8080  178.1320  144.4300 O   0  0  0  0  0  1  0  0  0  0  0  0
  181.5830  178.8340  140.1510 O   0  0  0  0  0  0  0  0  0  0  0  0
  181.2640  177.4800  140.3220 C   0  0  1  0  0  3  0  0  0  0  0  0
  180.1010  177.3650  141.0920 O   0  0  0  0  0  1  0  0  0  0  0  0
  181.0660  176.8260  138.9540 C   0  0  2  0  0  3  0  0  0  0  0  0
  180.6040  177.8050  137.9800 N   0  0  0  0  0  1  0  0  0  0  0  0
  180.0660  175.6850  139.0580 C   0  0  0  0  0  2  0  0  0  0  0  0
  180.5910  174.5270  138.4840 O   0  0  0  0  0  1  0  0  0  0  0  0
  187.0780  173.3840  136.9630 C   0  0  0  0  0  2  0  0  0  0  0  0
  185.6650  173.5340  136.4340 C   0  0  0  0  0  2  0  0  0  0  0  0
  183.7200  172.0620  136.8280 C   0  0  0  0  0  1  0  0  0  0  0  0
  184.6900  173.0260  137.4700 C   0  0  0  0  0  2  0  0  0  0  0  0
  1  7  2  0  0  0  0
  1  3  1  0  0  0  0
  2 22  1  0  0  0  0
  3  6  2  0  0  0  0
  4  2  2  0  0  0  0
  6  2  1  0  0  0  0
  6  5  1  0  0  0  0
  7  4  1  0  0  0  0
  8 14  1  0  0  0  0
  9 19  1  0  0  0  0
 10 22  1  0  0  0  0
 10 13  1  0  0  0  0
 11  8  2  0  0  0  0
 12 20  2  0  0  0  0
 13 18  2  0  0  0  0
 14 10  1  0  0  0  0
 15  9  2  0  0  0  0
 15 33  1  0  0  0  0
 16 14  2  0  0  0  0
 16  9  1  0  0  0  0
 17 11  1  0  0  0  0
 17 12  1  1  0  0  0
 17 16  1  0  0  0  0
 19 13  1  0  0  0  0
 20 15  1  0  0  0  0
 21 18  1  0  0  0  0
 22 21  2  0  0  0  0
 23 26  1  1  0  0  0
 24 23  1  0  0  0  0
 25 21  1  6  0  0  0
 25 24  1  0  0  0  0
 25 23  1  0  0  0  0
 27 30  1  0  0  0  0
 28 30  1  0  0  0  0
 29 28  1  1  0  0  0
 31 26  1  6  0  0  0
 31 32  1  0  0  0  0
 31 29  1  0  0  0  0
 32 29  1  0  0  0  0
 32 27  1  1  0  0  0
 34 33  1  0  0  0  0
 35 36  1  0  0  0  0
 36 34  1  0  0  0  0
 37  7  1  0  0  0  0
 37 38  1  0  0  0  0
 38 41  1  0  0  0  0
 40 39  2  0  0  0  0
 41 39  1  0  0  0  0
 42 50  1  6  0  0  0
 42 48  1  0  0  0  0
 43 39  1  6  0  0  0
 43 42  1  0  0  0  0
 43 47  1  0  0  0  0
 44 46  1  0  0  0  0
 44 49  1  1  0  0  0
 45 44  1  0  0  0  0
 47 45  1  6  0  0  0
 47 44  1  0  0  0  0
 48 46  1  0  0  0  0
 50 51  1  0  0  0  0
 51 52  1  1  0  0  0
 53 54  1  6  0  0  0
 53 55  1  0  0  0  0
 53 51  1  0  0  0  0
 56 55  1  0  0  0  0
 57  3  1  0  0  0  0
 58 57  1  0  0  0  0
 58 60  1  0  0  0  0
 59 60  1  0  0  0  0
M  END
>  <MODEL>
2

>  <REMARK>
 VINA RESULT:      -6.9      1.512      3.007
  Name = 
  18 active torsions:
  status: ('A' for Active; 'I' for Inactive)
    1  A    between atoms: C_2  and  C_11
    2  A    between atoms: C_6  and  C_51
    3  A    between atoms: C_9  and  O_27
    4  A    between atoms: C_12  and  C_54
    5  A    between atoms: C_13  and  C_52
    6  A    between atoms: C_13  and  C_54
    7  A    between atoms: N_20  and  C_24
    8  A    between atoms: N_20  and  C_35
    9  A    between atoms: C_21  and  C_38
   10  A    between atoms: C_21  and  C_58
   11  A    between atoms: O_27  and  C_41
   12  A    between atoms: C_30  and  CA_49
   13  A    between atoms: C_31  and  C_33
   14  A    between atoms: C_33  and  C_45
   15  A    between atoms: C_35  and  C_44
   16  A    between atoms: C_36  and  C_47
   17  A    between atoms: C_38  and  N_57
   18  A    between atoms: C_41  and  CA_49
                            x       y       z     vdW  Elec       q    Type
                         _______ _______ _______ _____ _____    ______ ____

>  <TORSDO>
F 18

$$$$
=
 OpenBabel10222421393D

 60 69  0  0  1  0  0  0  0  0999 V2000
  189.3870  177.8750  138.6160 C   0  0  0  0  0  3  0  0  0  0  0  0
  190.3940  175.7040  137.1510 C   0  0  0  0  0  0  0  0  0  0  0  0
  189.3050  177.8850  137.2200 C   0  0  0  0  0  0  0  0  0  0  0  0
  190.4530  175.7060  138.5500 C   0  0  0  0  0  3  0  0  0  0  0  0
  189.7010  176.7950  135.0940 O   0  0  0  0  0  1  0  0  0  0  0  0
  189.8090  176.7970  136.4820 C   0  0  0  0  0  0  0  0  0  0  0  0
  189.9480  176.7820  139.2860 C   0  0  0  0  0  0  0  0  0  0  0  0
  187.7680  173.6390  136.7280 C   0  0  0  0  0  3  0  0  0  0  0  0
  189.3440  171.1790  134.6810 C   0  0  0  0  0  0  0  0  0  0  0  0
  190.2400  173.5250  135.9000 N   0  0  0  0  0  0  0  0  0  0  0  0
  186.7280  172.8800  136.5410 N   0  0  0  0  0  0  0  0  0  0  0  0
  186.7260  170.5250  135.7070 C   0  0  0  0  0  3  0  0  0  0  0  0
  191.1380  172.7350  135.2760 C   0  0  0  0  0  0  0  0  0  0  0  0
  188.8300  173.2650  135.8020 C   0  0  0  0  0  0  0  0  0  0  0  0
  188.9280  169.9020  134.7140 C   0  0  0  0  0  0  0  0  0  0  0  0
  188.4030  172.2250  135.1170 C   0  0  2  0  0  3  0  0  0  0  0  0
  186.9740  171.9830  135.4090 C   0  0  0  0  0  0  0  0  0  0  0  0
  192.4040  173.1830  135.3600 N   0  0  0  0  0  0  0  0  0  0  0  0
  190.7440  171.5170  134.6240 N   0  0  0  0  0  2  0  0  0  0  0  0
  187.6000  169.5770  135.3250 C   0  0  0  0  0  3  0  0  0  0  0  0
  192.2810  174.3360  136.0700 C   0  0  0  0  0  0  0  0  0  0  0  0
  190.9470  174.5570  136.4020 C   0  0  0  0  0  0  0  0  0  0  0  0
  194.7370  174.4530  136.2980 C   0  0  1  0  0  3  0  0  0  0  0  0
  194.1590  174.6530  137.6800 C   0  0  0  0  0  2  0  0  0  0  0  0
  193.4350  175.2140  136.4640 C   0  0  2  0  0  3  0  0  0  0  0  0
  195.8970  175.4100  136.1150 C   0  0  0  0  0  2  0  0  0  0  0  0
  199.5190  174.8260  135.6980 C   0  0  0  0  0  2  0  0  0  0  0  0
  198.7650  173.2510  137.2070 C   0  0  0  0  0  2  0  0  0  0  0  0
  197.8150  174.4220  137.2420 C   0  0  2  0  0  3  0  0  0  0  0  0
  199.9490  173.6810  136.4860 N   0  0  0  0  0  2  0  0  0  0  0  0
  197.1810  174.6120  135.9390 C   0  0  2  0  0  3  0  0  0  0  0  0
  198.3460  175.4340  136.3190 N   0  0  2  0  0  0  0  0  0  0  0  0
  189.8240  168.8470  134.3520 N   0  0  0  0  0  2  0  0  0  0  0  0
  190.3970  167.9510  135.3440 C   0  0  0  0  0  2  0  0  0  0  0  0
  192.4740  168.8820  136.0380 O   0  0  0  0  0  1  0  0  0  0  0  0
  191.9080  167.9130  135.2070 C   0  0  0  0  0  2  0  0  0  0  0  0
  190.0020  176.7480  140.7770 C   0  0  0  0  0  2  0  0  0  0  0  0
  189.9690  178.1650  141.3290 C   0  0  0  0  0  2  0  0  0  0  0  0
  189.2940  177.5710  143.6590 C   0  0  0  0  0  0  0  0  0  0  0  0
  190.4900  177.3440  143.9880 O   0  0  0  0  0  0  0  0  0  0  0  0
  189.0280  178.2550  142.4300 N   0  0  0  0  0  2  0  0  0  0  0  0
  186.9810  178.1600  144.5110 C   0  0  2  0  0  3  0  0  0  0  0  0
  188.1680  177.1660  144.5850 C   0  0  2  0  0  3  0  0  0  0  0  0
  187.8390  177.5650  147.1150 C   0  0  1  0  0  0  0  0  0  0  0  0
  189.1830  178.1250  146.7240 C   0  0  0  0  0  2  0  0  0  0  0  0
  186.6450  178.4210  146.7140 C   0  0  0  0  0  2  0  0  0  0  0  0
  188.6560  176.8670  146.0280 C   0  0  2  0  0  3  0  0  0  0  0  0
  186.0630  177.9100  145.5480 O   0  0  0  0  0  0  0  0  0  0  0  0
  187.8300  176.9280  148.3560 O   0  0  0  0  0  1  0  0  0  0  0  0
  186.3290  178.0100  143.2790 O   0  0  0  0  0  0  0  0  0  0  0  0
  185.2390  178.8900  143.3090 C   0  0  1  0  0  3  0  0  0  0  0  0
  185.5410  180.0390  142.5700 O   0  0  0  0  0  1  0  0  0  0  0  0
  184.0040  178.1940  142.7340 C   0  0  2  0  0  3  0  0  0  0  0  0
  183.8500  178.5120  141.3220 N   0  0  0  0  0  1  0  0  0  0  0  0
  182.7600  178.6160  143.5010 C   0  0  0  0  0  2  0  0  0  0  0  0
  183.1160  179.2340  144.6990 O   0  0  0  0  0  1  0  0  0  0  0  0
  188.6480  179.0340  136.5360 C   0  0  0  0  0  2  0  0  0  0  0  0
  187.1450  178.9910  136.7340 C   0  0  0  0  0  2  0  0  0  0  0  0
  185.9100  177.1350  135.6690 C   0  0  0  0  0  1  0  0  0  0  0  0
  186.7050  177.5530  136.8830 C   0  0  0  0  0  2  0  0  0  0  0  0
  1  7  1  0  0  0  0
  2  4  1  0  0  0  0
  3  1  2  0  0  0  0
  4  7  2  0  0  0  0
  5  6  1  0  0  0  0
  6  2  2  0  0  0  0
  6  3  1  0  0  0  0
  7 37  1  0  0  0  0
  9 15  2  0  0  0  0
 10 22  1  0  0  0  0
 11  8  1  0  0  0  0
 13 18  2  0  0  0  0
 13 10  1  0  0  0  0
 14 10  1  0  0  0  0
 14  8  2  0  0  0  0
 15 20  1  0  0  0  0
 16  9  1  1  0  0  0
 16 17  1  0  0  0  0
 16 14  1  0  0  0  0
 17 12  1  0  0  0  0
 17 11  2  0  0  0  0
 18 21  1  0  0  0  0
 19  9  1  0  0  0  0
 19 13  1  0  0  0  0
 20 12  2  0  0  0  0
 21 22  2  0  0  0  0
 22  2  1  0  0  0  0
 23 26  1  1  0  0  0
 23 25  1  0  0  0  0
 23 24  1  0  0  0  0
 25 21  1  6  0  0  0
 25 24  1  0  0  0  0
 27 30  1  0  0  0  0
 29 28  1  6  0  0  0
 30 28  1  0  0  0  0
 31 26  1  1  0  0  0
 31 32  1  0  0  0  0
 31 29  1  0  0  0  0
 32 27  1  6  0  0  0
 32 29  1  0  0  0  0
 33 15  1  0  0  0  0
 33 34  1  0  0  0  0
 36 34  1  0  0  0  0
 36 35  1  0  0  0  0
 37 38  1  0  0  0  0
 38 41  1  0  0  0  0
 39 40  2  0  0  0  0
 41 39  1  0  0  0  0
 42 50  1  6  0  0  0
 42 43  1  0  0  0  0
 42 48  1  0  0  0  0
 43 39  1  6  0  0  0
 43 47  1  0  0  0  0
 44 49  1  1  0  0  0
 45 44  1  0  0  0  0
 46 44  1  0  0  0  0
 47 45  1  6  0  0  0
 47 44  1  0  0  0  0
 48 46  1  0  0  0  0
 50 51  1  0  0  0  0
 51 52  1  6  0  0  0
 53 54  1  6  0  0  0
 53 51  1  0  0  0  0
 53 55  1  0  0  0  0
 55 56  1  0  0  0  0
 57 58  1  0  0  0  0
 57  3  1  0  0  0  0
 58 60  1  0  0  0  0
 59 60  1  0  0  0  0
M  END
>  <MODEL>
3

>  <REMARK>
 VINA RESULT:      -6.6      2.961      7.309
  Name = 
  18 active torsions:
  status: ('A' for Active; 'I' for Inactive)
    1  A    between atoms: C_2  and  C_11
    2  A    between atoms: C_6  and  C_51
    3  A    between atoms: C_9  and  O_27
    4  A    between atoms: C_12  and  C_54
    5  A    between atoms: C_13  and  C_52
    6  A    between atoms: C_13  and  C_54
    7  A    between atoms: N_20  and  C_24
    8  A    between atoms: N_20  and  C_35
    9  A    between atoms: C_21  and  C_38
   10  A    between atoms: C_21  and  C_58
   11  A    between atoms: O_27  and  C_41
   12  A    between atoms: C_30  and  CA_49
   13  A    between atoms: C_31  and  C_33
   14  A    between atoms: C_33  and  C_45
   15  A    between atoms: C_35  and  C_44
   16  A    between atoms: C_36  and  C_47
   17  A    between atoms: C_38  and  N_57
   18  A    between atoms: C_41  and  CA_49
                            x       y       z     vdW  Elec       q    Type
                         _______ _______ _______ _____ _____    ______ ____

>  <TORSDO>
F 18

$$$$
=
 OpenBabel10222421393D

 60 69  0  0  1  0  0  0  0  0999 V2000
  189.6180  177.4110  141.1010 C   0  0  0  0  0  3  0  0  0  0  0  0
  186.9270  177.9310  141.7050 C   0  0  0  0  0  0  0  0  0  0  0  0
  189.0470  176.8590  142.2530 C   0  0  0  0  0  0  0  0  0  0  0  0
  187.5110  178.4620  140.5490 C   0  0  0  0  0  3  0  0  0  0  0  0
  187.1240  176.5440  143.6900 O   0  0  0  0  0  1  0  0  0  0  0  0
  187.6980  177.1180  142.5580 C   0  0  0  0  0  0  0  0  0  0  0  0
  188.8500  178.2020  140.2400 C   0  0  0  0  0  0  0  0  0  0  0  0
  185.3790  177.7730  138.7190 C   0  0  0  0  0  3  0  0  0  0  0  0
  182.0220  178.2480  139.8290 C   0  0  0  0  0  0  0  0  0  0  0  0
  184.4860  178.1720  141.1380 N   0  0  0  0  0  0  0  0  0  0  0  0
  184.7980  177.6630  137.5600 N   0  0  0  0  0  0  0  0  0  0  0  0
  182.4730  178.3680  136.9800 C   0  0  0  0  0  3  0  0  0  0  0  0
  183.3860  178.5000  141.8470 C   0  0  0  0  0  0  0  0  0  0  0  0
  184.3840  177.7070  139.7820 C   0  0  0  0  0  0  0  0  0  0  0  0
  181.1170  178.8290  139.0230 C   0  0  0  0  0  0  0  0  0  0  0  0
  183.2030  177.6230  139.2070 C   0  0  0  0  0  0  0  0  0  0  0  0
  183.3650  177.4280  137.7520 C   0  0  2  0  0  3  0  0  0  0  0  0
  183.6390  178.7950  143.1350 N   0  0  0  0  0  0  0  0  0  0  0  0
  182.0860  178.5530  141.2360 N   0  0  0  0  0  2  0  0  0  0  0  0
  181.4090  178.9520  137.5600 C   0  0  0  0  0  3  0  0  0  0  0  0
  184.9830  178.6240  143.2360 C   0  0  0  0  0  0  0  0  0  0  0  0
  185.5130  178.2340  142.0090 C   0  0  0  0  0  0  0  0  0  0  0  0
  184.8570  178.7780  145.6970 C   0  0  1  0  0  3  0  0  0  0  0  0
  185.3120  180.1300  145.1970 C   0  0  0  0  0  2  0  0  0  0  0  0
  185.7740  178.8620  144.4910 C   0  0  2  0  0  3  0  0  0  0  0  0
  185.6440  178.4340  146.9450 C   0  0  0  0  0  2  0  0  0  0  0  0
  189.1920  178.0480  145.9960 C   0  0  0  0  0  2  0  0  0  0  0  0
  188.7230  176.3630  147.5010 C   0  0  0  0  0  2  0  0  0  0  0  0
  187.7410  177.4830  147.7350 C   0  0  2  0  0  3  0  0  0  0  0  0
  189.7750  176.8860  146.6490 N   0  0  0  0  0  2  0  0  0  0  0  0
  186.9220  177.7100  146.5470 C   0  0  2  0  0  3  0  0  0  0  0  0
  188.0940  178.5660  146.8080 N   0  0  2  0  0  0  0  0  0  0  0  0
  179.9820  179.4960  139.5830 N   0  0  0  0  0  2  0  0  0  0  0  0
  180.0260  180.8990  139.9630 C   0  0  0  0  0  2  0  0  0  0  0  0
  181.5170  182.1540  138.5980 O   0  0  0  0  0  1  0  0  0  0  0  0
  180.1810  181.7720  138.7320 C   0  0  0  0  0  2  0  0  0  0  0  0
  189.4420  178.7610  138.9890 C   0  0  0  0  0  2  0  0  0  0  0  0
  188.3980  178.7780  137.8830 C   0  0  0  0  0  2  0  0  0  0  0  0
  188.9820  176.5440  136.9320 C   0  0  0  0  0  0  0  0  0  0  0  0
  188.2870  175.9510  137.8010 O   0  0  0  0  0  0  0  0  0  0  0  0
  188.8320  177.9580  136.7680 N   0  0  0  0  0  2  0  0  0  0  0  0
  189.4890  174.2670  135.9410 C   0  0  2  0  0  3  0  0  0  0  0  0
  189.9220  175.7520  136.0490 C   0  0  2  0  0  3  0  0  0  0  0  0
  192.1970  174.6480  136.5710 C   0  0  1  0  0  0  0  0  0  0  0  0
  191.7340  175.3720  137.8090 C   0  0  0  0  0  2  0  0  0  0  0  0
  191.4920  173.3240  136.3000 C   0  0  0  0  0  2  0  0  0  0  0  0
  191.4130  175.9520  136.4280 C   0  0  2  0  0  3  0  0  0  0  0  0
  190.5000  173.5030  135.3300 O   0  0  0  0  0  0  0  0  0  0  0  0
  193.5680  174.7470  136.3360 O   0  0  0  0  0  1  0  0  0  0  0  0
  188.3220  174.1820  135.1690 O   0  0  0  0  0  0  0  0  0  0  0  0
  187.5400  173.1820  135.7620 C   0  0  1  0  0  3  0  0  0  0  0  0
  188.0770  172.8410  137.0080 O   0  0  0  0  0  1  0  0  0  0  0  0
  186.1030  173.6840  135.9190 C   0  0  2  0  0  3  0  0  0  0  0  0
  185.9510  174.9970  135.3090 N   0  0  0  0  0  1  0  0  0  0  0  0
  185.7290  173.7490  137.3920 C   0  0  0  0  0  2  0  0  0  0  0  0
  184.8450  172.7190  137.7130 O   0  0  0  0  0  1  0  0  0  0  0  0
  189.8720  175.9720  143.1210 C   0  0  0  0  0  2  0  0  0  0  0  0
  191.2960  176.4850  143.2170 C   0  0  0  0  0  2  0  0  0  0  0  0
  191.7970  178.7310  144.1180 C   0  0  0  0  0  1  0  0  0  0  0  0
  191.3120  177.9640  142.9100 C   0  0  0  0  0  2  0  0  0  0  0  0
  1  3  1  0  0  0  0
  2 22  1  0  0  0  0
  2  6  1  0  0  0  0
  3  6  2  0  0  0  0
  3 57  1  0  0  0  0
  4  2  2  0  0  0  0
  6  5  1  0  0  0  0
  7  4  1  0  0  0  0
  7  1  2  0  0  0  0
  8 14  1  0  0  0  0
  9 19  1  0  0  0  0
 10 13  1  0  0  0  0
 10 22  1  0  0  0  0
 11 17  1  0  0  0  0
 11  8  2  0  0  0  0
 12 20  2  0  0  0  0
 13 18  2  0  0  0  0
 14 10  1  0  0  0  0
 15 33  1  0  0  0  0
 15  9  2  0  0  0  0
 16 14  2  0  0  0  0
 16  9  1  0  0  0  0
 17 12  1  6  0  0  0
 17 16  1  0  0  0  0
 18 21  1  0  0  0  0
 19 13  1  0  0  0  0
 20 15  1  0  0  0  0
 22 21  2  0  0  0  0
 23 26  1  1  0  0  0
 24 23  1  0  0  0  0
 25 21  1  6  0  0  0
 25 24  1  0  0  0  0
 25 23  1  0  0  0  0
 27 30  1  0  0  0  0
 29 28  1  6  0  0  0
 30 28  1  0  0  0  0
 31 32  1  0  0  0  0
 31 26  1  1  0  0  0
 31 29  1  0  0  0  0
 32 27  1  6  0  0  0
 32 29  1  0  0  0  0
 33 34  1  0  0  0  0
 35 36  1  0  0  0  0
 36 34  1  0  0  0  0
 37  7  1  0  0  0  0
 38 37  1  0  0  0  0
 39 40  2  0  0  0  0
 41 39  1  0  0  0  0
 41 38  1  0  0  0  0
 42 50  1  6  0  0  0
 42 43  1  0  0  0  0
 43 47  1  0  0  0  0
 43 39  1  1  0  0  0
 44 49  1  6  0  0  0
 44 45  1  0  0  0  0
 46 44  1  0  0  0  0
 47 44  1  0  0  0  0
 47 45  1  1  0  0  0
 48 42  1  0  0  0  0
 48 46  1  0  0  0  0
 50 51  1  0  0  0  0
 51 53  1  0  0  0  0
 51 52  1  1  0  0  0
 53 54  1  1  0  0  0
 53 55  1  0  0  0  0
 55 56  1  0  0  0  0
 57 58  1  0  0  0  0
 60 58  1  0  0  0  0
 60 59  1  0  0  0  0
M  END
>  <MODEL>
4

>  <REMARK>
 VINA RESULT:      -6.3      3.248      9.942
  Name = 
  18 active torsions:
  status: ('A' for Active; 'I' for Inactive)
    1  A    between atoms: C_2  and  C_11
    2  A    between atoms: C_6  and  C_51
    3  A    between atoms: C_9  and  O_27
    4  A    between atoms: C_12  and  C_54
    5  A    between atoms: C_13  and  C_52
    6  A    between atoms: C_13  and  C_54
    7  A    between atoms: N_20  and  C_24
    8  A    between atoms: N_20  and  C_35
    9  A    between atoms: C_21  and  C_38
   10  A    between atoms: C_21  and  C_58
   11  A    between atoms: O_27  and  C_41
   12  A    between atoms: C_30  and  CA_49
   13  A    between atoms: C_31  and  C_33
   14  A    between atoms: C_33  and  C_45
   15  A    between atoms: C_35  and  C_44
   16  A    between atoms: C_36  and  C_47
   17  A    between atoms: C_38  and  N_57
   18  A    between atoms: C_41  and  CA_49
                            x       y       z     vdW  Elec       q    Type
                         _______ _______ _______ _____ _____    ______ ____

>  <TORSDO>
F 18

$$$$
=
 OpenBabel10222421393D

 60 69  0  0  1  0  0  0  0  0999 V2000
  189.9150  177.0210  137.5270 C   0  0  0  0  0  3  0  0  0  0  0  0
  187.2440  176.2780  137.0940 C   0  0  0  0  0  0  0  0  0  0  0  0
  189.4830  176.7150  136.2330 C   0  0  0  0  0  0  0  0  0  0  0  0
  187.6910  176.6020  138.3800 C   0  0  0  0  0  3  0  0  0  0  0  0
  187.7080  176.0660  134.7190 O   0  0  0  0  0  1  0  0  0  0  0  0
  188.1440  176.3420  136.0120 C   0  0  0  0  0  0  0  0  0  0  0  0
  189.0200  176.9790  138.6020 C   0  0  0  0  0  0  0  0  0  0  0  0
  185.4570  178.6880  138.6220 C   0  0  0  0  0  3  0  0  0  0  0  0
  182.1860  177.5850  137.7200 C   0  0  0  0  0  0  0  0  0  0  0  0
  184.7500  176.5940  137.2350 N   0  0  0  0  0  0  0  0  0  0  0  0
  184.7900  179.6540  139.1820 N   0  0  0  0  0  0  0  0  0  0  0  0
  182.3460  179.6800  139.6990 C   0  0  0  0  0  3  0  0  0  0  0  0
  183.6880  175.8580  136.8480 C   0  0  0  0  0  0  0  0  0  0  0  0
  184.5850  177.9320  137.7310 C   0  0  0  0  0  0  0  0  0  0  0  0
  181.1390  177.8420  138.5210 C   0  0  0  0  0  0  0  0  0  0  0  0
  183.3780  178.4450  137.8390 C   0  0  2  0  0  3  0  0  0  0  0  0
  183.4270  179.6820  138.6460 C   0  0  0  0  0  0  0  0  0  0  0  0
  184.0190  174.6790  136.2910 N   0  0  0  0  0  0  0  0  0  0  0  0
  182.3410  176.3120  137.0620 N   0  0  0  0  0  2  0  0  0  0  0  0
  181.2720  178.8780  139.5940 C   0  0  0  0  0  3  0  0  0  0  0  0
  185.3770  174.6900  136.3200 C   0  0  0  0  0  0  0  0  0  0  0  0
  185.8370  175.8710  136.8950 C   0  0  0  0  0  0  0  0  0  0  0  0
  185.6230  172.2350  136.2210 C   0  0  1  0  0  3  0  0  0  0  0  0
  186.8100  172.7640  136.9950 C   0  0  0  0  0  2  0  0  0  0  0  0
  186.2430  173.5650  135.8300 C   0  0  2  0  0  3  0  0  0  0  0  0
  186.1000  171.1310  135.3000 C   0  0  0  0  0  2  0  0  0  0  0  0
  183.7260  168.3040  135.2090 C   0  0  0  0  0  2  0  0  0  0  0  0
  182.4680  170.2300  135.0230 C   0  0  0  0  0  2  0  0  0  0  0  0
  183.7640  170.5850  135.7090 C   0  0  2  0  0  3  0  0  0  0  0  0
  182.3640  168.7820  135.0240 N   0  0  0  0  0  2  0  0  0  0  0  0
  184.9020  170.3160  134.8340 C   0  0  2  0  0  3  0  0  0  0  0  0
  184.5210  169.3360  135.8690 N   0  0  2  0  0  0  0  0  0  0  0  0
  179.9820  177.0020  138.4790 N   0  0  0  0  0  2  0  0  0  0  0  0
  180.0660  175.5670  138.6990 C   0  0  0  0  0  2  0  0  0  0  0  0
  181.1000  174.5150  140.5660 O   0  0  0  0  0  1  0  0  0  0  0  0
  179.9820  175.2570  140.1810 C   0  0  0  0  0  2  0  0  0  0  0  0
  189.4650  177.3420  139.9790 C   0  0  0  0  0  2  0  0  0  0  0  0
  188.2560  177.5790  140.8700 C   0  0  0  0  0  2  0  0  0  0  0  0
  188.3230  177.4180  143.3610 C   0  0  0  0  0  0  0  0  0  0  0  0
  188.1370  176.1720  143.3230 O   0  0  0  0  0  0  0  0  0  0  0  0
  188.6730  178.1070  142.1560 N   0  0  0  0  0  2  0  0  0  0  0  0
  189.0780  177.4740  145.7810 C   0  0  2  0  0  3  0  0  0  0  0  0
  188.2250  178.1550  144.6800 C   0  0  2  0  0  3  0  0  0  0  0  0
  186.4390  178.0490  146.5410 C   0  0  1  0  0  0  0  0  0  0  0  0
  185.9930  177.1520  145.4140 C   0  0  0  0  0  2  0  0  0  0  0  0
  187.5450  177.4760  147.4180 C   0  0  0  0  0  2  0  0  0  0  0  0
  186.7590  178.4410  145.0990 C   0  0  2  0  0  3  0  0  0  0  0  0
  188.7800  178.0190  147.0430 O   0  0  0  0  0  0  0  0  0  0  0  0
  185.4020  178.7660  147.1380 O   0  0  0  0  0  1  0  0  0  0  0  0
  190.4370  177.6790  145.5040 O   0  0  0  0  0  0  0  0  0  0  0  0
  190.9680  176.4120  145.2250 C   0  0  1  0  0  3  0  0  0  0  0  0
  191.4490  176.3830  143.9120 O   0  0  0  0  0  1  0  0  0  0  0  0
  192.0940  176.1010  146.2130 C   0  0  2  0  0  3  0  0  0  0  0  0
  192.5130  174.7120  146.0900 N   0  0  0  0  0  1  0  0  0  0  0  0
  191.6350  176.3810  147.6360 C   0  0  0  0  0  2  0  0  0  0  0  0
  192.7360  176.5750  148.4700 O   0  0  0  0  0  1  0  0  0  0  0  0
  190.4420  176.8270  135.0990 C   0  0  0  0  0  2  0  0  0  0  0  0
  191.4440  175.6880  135.1270 C   0  0  0  0  0  2  0  0  0  0  0  0
  191.7430  173.3860  135.9720 C   0  0  0  0  0  1  0  0  0  0  0  0
  190.7340  174.4120  135.5130 C   0  0  0  0  0  2  0  0  0  0  0  0
  1  7  1  0  0  0  0
  2  4  1  0  0  0  0
  3  1  2  0  0  0  0
  4  7  2  0  0  0  0
  5  6  1  0  0  0  0
  6  3  1  0  0  0  0
  6  2  2  0  0  0  0
  7 37  1  0  0  0  0
  8 11  1  0  0  0  0
  9 15  2  0  0  0  0
 10 14  1  0  0  0  0
 13 19  1  0  0  0  0
 13 10  1  0  0  0  0
 14 16  1  0  0  0  0
 14  8  2  0  0  0  0
 15 20  1  0  0  0  0
 16  9  1  1  0  0  0
 16 17  1  0  0  0  0
 17 11  2  0  0  0  0
 17 12  1  0  0  0  0
 18 21  1  0  0  0  0
 18 13  2  0  0  0  0
 19  9  1  0  0  0  0
 20 12  2  0  0  0  0
 21 22  2  0  0  0  0
 22  2  1  0  0  0  0
 22 10  1  0  0  0  0
 23 26  1  6  0  0  0
 23 24  1  0  0  0  0
 25 23  1  0  0  0  0
 25 21  1  1  0  0  0
 25 24  1  0  0  0  0
 28 30  1  0  0  0  0
 29 28  1  6  0  0  0
 29 32  1  0  0  0  0
 30 27  1  0  0  0  0
 31 26  1  1  0  0  0
 31 29  1  0  0  0  0
 31 32  1  0  0  0  0
 32 27  1  6  0  0  0
 33 15  1  0  0  0  0
 33 34  1  0  0  0  0
 34 36  1  0  0  0  0
 36 35  1  0  0  0  0
 37 38  1  0  0  0  0
 38 41  1  0  0  0  0
 40 39  2  0  0  0  0
 41 39  1  0  0  0  0
 42 50  1  6  0  0  0
 42 48  1  0  0  0  0
 43 39  1  6  0  0  0
 43 47  1  0  0  0  0
 43 42  1  0  0  0  0
 44 49  1  1  0  0  0
 44 46  1  0  0  0  0
 45 44  1  0  0  0  0
 47 45  1  6  0  0  0
 47 44  1  0  0  0  0
 48 46  1  0  0  0  0
 51 52  1  6  0  0  0
 51 50  1  0  0  0  0
 51 53  1  0  0  0  0
 53 54  1  1  0  0  0
 53 55  1  0  0  0  0
 55 56  1  0  0  0  0
 57 58  1  0  0  0  0
 57  3  1  0  0  0  0
 58 60  1  0  0  0  0
 60 59  1  0  0  0  0
M  END
>  <MODEL>
5

>  <REMARK>
 VINA RESULT:      -5.9      3.856     10.295
  Name = 
  18 active torsions:
  status: ('A' for Active; 'I' for Inactive)
    1  A    between atoms: C_2  and  C_11
    2  A    between atoms: C_6  and  C_51
    3  A    between atoms: C_9  and  O_27
    4  A    between atoms: C_12  and  C_54
    5  A    between atoms: C_13  and  C_52
    6  A    between atoms: C_13  and  C_54
    7  A    between atoms: N_20  and  C_24
    8  A    between atoms: N_20  and  C_35
    9  A    between atoms: C_21  and  C_38
   10  A    between atoms: C_21  and  C_58
   11  A    between atoms: O_27  and  C_41
   12  A    between atoms: C_30  and  CA_49
   13  A    between atoms: C_31  and  C_33
   14  A    between atoms: C_33  and  C_45
   15  A    between atoms: C_35  and  C_44
   16  A    between atoms: C_36  and  C_47
   17  A    between atoms: C_38  and  N_57
   18  A    between atoms: C_41  and  CA_49
                            x       y       z     vdW  Elec       q    Type
                         _______ _______ _______ _____ _____    ______ ____

>  <TORSDO>
F 18

$$$$
=
 OpenBabel10222421393D

 60 69  0  0  1  0  0  0  0  0999 V2000
  186.8560  175.4590  136.0750 C   0  0  0  0  0  3  0  0  0  0  0  0
  189.3490  175.9900  137.2500 C   0  0  0  0  0  0  0  0  0  0  0  0
  187.6640  174.3970  136.4970 C   0  0  0  0  0  0  0  0  0  0  0  0
  188.5210  177.0400  136.8350 C   0  0  0  0  0  3  0  0  0  0  0  0
  189.7040  173.6030  137.5320 O   0  0  0  0  0  1  0  0  0  0  0  0
  188.9140  174.6600  137.0870 C   0  0  0  0  0  0  0  0  0  0  0  0
  187.2760  176.7820  136.2540 C   0  0  0  0  0  0  0  0  0  0  0  0
  191.5660  174.5230  135.1840 C   0  0  0  0  0  3  0  0  0  0  0  0
  194.5740  175.6780  136.7160 C   0  0  0  0  0  0  0  0  0  0  0  0
  191.8660  176.0120  137.3050 N   0  0  0  0  0  0  0  0  0  0  0  0
  192.4030  173.9840  134.3460 N   0  0  0  0  0  0  0  0  0  0  0  0
  194.8520  173.6360  134.6950 C   0  0  0  0  0  3  0  0  0  0  0  0
  192.7810  176.4900  138.1730 C   0  0  0  0  0  0  0  0  0  0  0  0
  192.2590  175.4920  136.0250 C   0  0  0  0  0  0  0  0  0  0  0  0
  195.6970  174.9440  136.6440 C   0  0  0  0  0  0  0  0  0  0  0  0
  193.5330  175.4530  135.6980 C   0  0  0  0  0  0  0  0  0  0  0  0
  193.7180  174.6120  134.4970 C   0  0  2  0  0  3  0  0  0  0  0  0
  192.2450  177.0550  139.2700 N   0  0  0  0  0  0  0  0  0  0  0  0
  194.1910  176.3570  137.9290 N   0  0  0  0  0  2  0  0  0  0  0  0
  195.7870  173.8370  135.6410 C   0  0  0  0  0  3  0  0  0  0  0  0
  190.9070  176.9330  139.0630 C   0  0  0  0  0  0  0  0  0  0  0  0
  190.6650  176.2960  137.8490 C   0  0  0  0  0  0  0  0  0  0  0  0
  190.3290  177.1510  141.4530 C   0  0  1  0  0  3  0  0  0  0  0  0
  189.3060  176.2220  140.8380 C   0  0  0  0  0  2  0  0  0  0  0  0
  189.8550  177.3920  140.0310 C   0  0  2  0  0  3  0  0  0  0  0  0
  189.6200  178.0790  142.4180 C   0  0  0  0  0  2  0  0  0  0  0  0
  189.9010  177.7190  146.0820 C   0  0  0  0  0  2  0  0  0  0  0  0
  191.6270  176.4930  145.1630 C   0  0  0  0  0  2  0  0  0  0  0  0
  190.5360  176.6090  144.1290 C   0  0  2  0  0  3  0  0  0  0  0  0
  191.0610  176.9130  146.4320 N   0  0  0  0  0  2  0  0  0  0  0  0
  190.3050  178.0080  143.7750 C   0  0  2  0  0  3  0  0  0  0  0  0
  189.4260  177.3410  144.7540 N   0  0  2  0  0  0  0  0  0  0  0  0
  196.7120  175.0880  137.6420 N   0  0  0  0  0  2  0  0  0  0  0  0
  197.9730  174.3680  137.5640 C   0  0  0  0  0  2  0  0  0  0  0  0
  198.4790  175.8830  139.3270 O   0  0  0  0  0  1  0  0  0  0  0  0
  198.8060  174.6310  138.8040 C   0  0  0  0  0  2  0  0  0  0  0  0
  186.4020  177.9190  135.8430 C   0  0  0  0  0  2  0  0  0  0  0  0
  185.2430  177.4060  135.0020 C   0  0  0  0  0  2  0  0  0  0  0  0
  183.2630  175.9240  135.3490 C   0  0  0  0  0  0  0  0  0  0  0  0
  183.6240  175.1590  134.4150 O   0  0  0  0  0  0  0  0  0  0  0  0
  184.1900  176.8890  135.8570 N   0  0  0  0  0  2  0  0  0  0  0  0
  181.7360  176.6060  137.2540 C   0  0  2  0  0  3  0  0  0  0  0  0
  181.8810  175.7790  135.9510 C   0  0  2  0  0  3  0  0  0  0  0  0
  180.8870  173.9410  137.4670 C   0  0  1  0  0  0  0  0  0  0  0  0
  182.2940  173.5380  137.1050 C   0  0  0  0  0  2  0  0  0  0  0  0
  180.7840  175.0260  138.5300 C   0  0  0  0  0  2  0  0  0  0  0  0
  181.4390  174.2980  136.0870 C   0  0  2  0  0  3  0  0  0  0  0  0
  180.5470  176.2650  137.9240 O   0  0  0  0  0  0  0  0  0  0  0  0
  179.9830  172.8790  137.4910 O   0  0  0  0  0  1  0  0  0  0  0  0
  181.7040  177.9710  136.9330 O   0  0  0  0  0  0  0  0  0  0  0  0
  181.0350  178.6000  137.9920 C   0  0  1  0  0  3  0  0  0  0  0  0
  181.8980  178.7260  139.0860 O   0  0  0  0  0  1  0  0  0  0  0  0
  180.5420  179.9750  137.5390 C   0  0  2  0  0  3  0  0  0  0  0  0
  180.7340  180.1410  136.1050 N   0  0  0  0  0  1  0  0  0  0  0  0
  181.2800  181.0710  138.2910 C   0  0  0  0  0  2  0  0  0  0  0  0
  180.4860  181.5700  139.3240 O   0  0  0  0  0  1  0  0  0  0  0  0
  187.1670  173.0010  136.3490 C   0  0  0  0  0  2  0  0  0  0  0  0
  185.6950  172.9120  136.7050 C   0  0  0  0  0  2  0  0  0  0  0  0
  185.5690  170.9170  135.2530 C   0  0  0  0  0  1  0  0  0  0  0  0
  184.9470  172.2570  135.5670 C   0  0  0  0  0  2  0  0  0  0  0  0
  1  7  2  0  0  0  0
  1  3  1  0  0  0  0
  2 22  1  0  0  0  0
  3  6  2  0  0  0  0
  4  2  2  0  0  0  0
  6  2  1  0  0  0  0
  6  5  1  0  0  0  0
  7  4  1  0  0  0  0
  8 14  1  0  0  0  0
  9 19  1  0  0  0  0
 10 22  1  0  0  0  0
 10 13  1  0  0  0  0
 11 17  1  0  0  0  0
 11  8  2  0  0  0  0
 12 20  2  0  0  0  0
 13 18  2  0  0  0  0
 14 10  1  0  0  0  0
 15  9  2  0  0  0  0
 15 33  1  0  0  0  0
 16 14  2  0  0  0  0
 16  9  1  0  0  0  0
 17 12  1  1  0  0  0
 17 16  1  0  0  0  0
 19 13  1  0  0  0  0
 20 15  1  0  0  0  0
 21 18  1  0  0  0  0
 22 21  2  0  0  0  0
 23 26  1  1  0  0  0
 24 23  1  0  0  0  0
 25 21  1  6  0  0  0
 25 24  1  0  0  0  0
 25 23  1  0  0  0  0
 27 30  1  0  0  0  0
 28 30  1  0  0  0  0
 29 32  1  0  0  0  0
 29 28  1  1  0  0  0
 31 26  1  6  0  0  0
 31 29  1  0  0  0  0
 31 32  1  0  0  0  0
 32 27  1  1  0  0  0
 34 33  1  0  0  0  0
 34 36  1  0  0  0  0
 36 35  1  0  0  0  0
 37  7  1  0  0  0  0
 38 37  1  0  0  0  0
 38 41  1  0  0  0  0
 39 41  1  0  0  0  0
 40 39  2  0  0  0  0
 42 50  1  6  0  0  0
 42 48  1  0  0  0  0
 43 39  1  1  0  0  0
 43 47  1  0  0  0  0
 43 42  1  0  0  0  0
 44 49  1  1  0  0  0
 44 46  1  0  0  0  0
 45 44  1  0  0  0  0
 47 45  1  1  0  0  0
 47 44  1  0  0  0  0
 48 46  1  0  0  0  0
 50 51  1  0  0  0  0
 51 52  1  1  0  0  0
 53 54  1  6  0  0  0
 53 51  1  0  0  0  0
 53 55  1  0  0  0  0
 55 56  1  0  0  0  0
 57  3  1  0  0  0  0
 57 58  1  0  0  0  0
 59 60  1  0  0  0  0
 60 58  1  0  0  0  0
M  END
>  <MODEL>
6

>  <REMARK>
 VINA RESULT:      -5.7      2.159      3.453
  Name = 
  18 active torsions:
  status: ('A' for Active; 'I' for Inactive)
    1  A    between atoms: C_2  and  C_11
    2  A    between atoms: C_6  and  C_51
    3  A    between atoms: C_9  and  O_27
    4  A    between atoms: C_12  and  C_54
    5  A    between atoms: C_13  and  C_52
    6  A    between atoms: C_13  and  C_54
    7  A    between atoms: N_20  and  C_24
    8  A    between atoms: N_20  and  C_35
    9  A    between atoms: C_21  and  C_38
   10  A    between atoms: C_21  and  C_58
   11  A    between atoms: O_27  and  C_41
   12  A    between atoms: C_30  and  CA_49
   13  A    between atoms: C_31  and  C_33
   14  A    between atoms: C_33  and  C_45
   15  A    between atoms: C_35  and  C_44
   16  A    between atoms: C_36  and  C_47
   17  A    between atoms: C_38  and  N_57
   18  A    between atoms: C_41  and  CA_49
                            x       y       z     vdW  Elec       q    Type
                         _______ _______ _______ _____ _____    ______ ____

>  <TORSDO>
F 18

$$$$
=
 OpenBabel10222421393D

 60 69  0  0  1  0  0  0  0  0999 V2000
  189.5540  177.3320  137.7900 C   0  0  0  0  0  3  0  0  0  0  0  0
  190.9950  175.2350  136.6070 C   0  0  0  0  0  0  0  0  0  0  0  0
  189.5340  177.1760  136.4000 C   0  0  0  0  0  0  0  0  0  0  0  0
  190.9910  175.3980  137.9970 C   0  0  0  0  0  3  0  0  0  0  0  0
  190.2120  175.9530  134.4230 O   0  0  0  0  0  1  0  0  0  0  0  0
  190.2550  176.1250  135.8040 C   0  0  0  0  0  0  0  0  0  0  0  0
  190.2700  176.4370  138.5930 C   0  0  0  0  0  0  0  0  0  0  0  0
  188.7430  172.7760  136.1340 C   0  0  0  0  0  3  0  0  0  0  0  0
  190.8460  170.4410  134.4440 C   0  0  0  0  0  0  0  0  0  0  0  0
  191.2750  172.9740  135.5340 N   0  0  0  0  0  0  0  0  0  0  0  0
  187.8450  171.8590  135.9220 N   0  0  0  0  0  0  0  0  0  0  0  0
  188.2600  169.4780  135.2920 C   0  0  0  0  0  3  0  0  0  0  0  0
  192.3330  172.2860  135.0590 C   0  0  0  0  0  0  0  0  0  0  0  0
  189.9330  172.5000  135.3370 C   0  0  0  0  0  0  0  0  0  0  0  0
  190.6140  169.1220  134.5480 C   0  0  0  0  0  0  0  0  0  0  0  0
  189.7270  171.3630  134.7080 C   0  0  2  0  0  3  0  0  0  0  0  0
  188.3260  170.9320  134.8950 C   0  0  0  0  0  0  0  0  0  0  0  0
  193.5090  172.9230  135.2140 N   0  0  0  0  0  0  0  0  0  0  0  0
  192.1820  170.9790  134.4800 N   0  0  0  0  0  2  0  0  0  0  0  0
  189.2930  168.6460  135.0670 C   0  0  0  0  0  3  0  0  0  0  0  0
  193.1540  174.0910  135.8120 C   0  0  0  0  0  0  0  0  0  0  0  0
  191.7770  174.1330  136.0070 C   0  0  0  0  0  0  0  0  0  0  0  0
  195.4690  174.5270  136.5530 C   0  0  1  0  0  3  0  0  0  0  0  0
  194.5580  174.9690  137.6770 C   0  0  0  0  0  2  0  0  0  0  0  0
  194.1270  175.1570  136.2280 C   0  0  2  0  0  3  0  0  0  0  0  0
  196.5850  175.5400  136.4090 C   0  0  0  0  0  2  0  0  0  0  0  0
  200.0190  174.2060  136.1510 C   0  0  0  0  0  2  0  0  0  0  0  0
  198.6320  172.6640  135.1370 C   0  0  0  0  0  2  0  0  0  0  0  0
  197.8080  173.4550  136.1220 C   0  0  2  0  0  3  0  0  0  0  0  0
  200.0280  172.9470  135.4210 N   0  0  0  0  0  2  0  0  0  0  0  0
  197.7880  174.8700  135.7600 C   0  0  2  0  0  3  0  0  0  0  0  0
  198.7210  174.3880  136.7960 N   0  0  2  0  0  0  0  0  0  0  0  0
  191.6830  168.1900  134.3540 N   0  0  0  0  0  2  0  0  0  0  0  0
  192.9310  168.2870  135.0940 C   0  0  0  0  0  2  0  0  0  0  0  0
  193.6610  168.5880  137.3380 O   0  0  0  0  0  1  0  0  0  0  0  0
  192.7040  167.9420  136.5540 C   0  0  0  0  0  2  0  0  0  0  0  0
  190.2630  176.5750  140.0790 C   0  0  0  0  0  2  0  0  0  0  0  0
  189.0860  177.4350  140.5150 C   0  0  0  0  0  2  0  0  0  0  0  0
  189.4400  177.5750  142.9830 C   0  0  0  0  0  0  0  0  0  0  0  0
  190.0840  178.6530  142.8670 O   0  0  0  0  0  0  0  0  0  0  0  0
  188.6850  177.0920  141.8670 N   0  0  0  0  0  2  0  0  0  0  0  0
  188.2730  177.3150  145.2190 C   0  0  2  0  0  3  0  0  0  0  0  0
  189.4320  176.8400  144.3060 C   0  0  2  0  0  3  0  0  0  0  0  0
  190.7840  177.2450  146.4680 C   0  0  1  0  0  0  0  0  0  0  0  0
  191.2480  178.2390  145.4330 C   0  0  0  0  0  2  0  0  0  0  0  0
  189.4430  177.5710  147.1150 C   0  0  0  0  0  2  0  0  0  0  0  0
  190.8220  176.8340  144.9970 C   0  0  2  0  0  3  0  0  0  0  0  0
  188.4310  176.8080  146.5210 O   0  0  0  0  0  0  0  0  0  0  0  0
  191.8110  176.7300  147.2580 O   0  0  0  0  0  1  0  0  0  0  0  0
  187.0560  176.8570  144.6950 O   0  0  0  0  0  0  0  0  0  0  0  0
  186.0560  177.5950  145.3420 C   0  0  1  0  0  3  0  0  0  0  0  0
  186.5240  178.0330  146.5850 O   0  0  0  0  0  1  0  0  0  0  0  0
  185.6550  178.7870  144.4720 C   0  0  2  0  0  3  0  0  0  0  0  0
  184.3330  179.2700  144.8420 N   0  0  0  0  0  1  0  0  0  0  0  0
  185.6720  178.3930  143.0030 C   0  0  0  0  0  2  0  0  0  0  0  0
  184.9850  179.3380  142.2410 O   0  0  0  0  0  1  0  0  0  0  0  0
  188.7140  178.1060  135.5740 C   0  0  0  0  0  2  0  0  0  0  0  0
  187.6530  177.3470  134.8010 C   0  0  0  0  0  2  0  0  0  0  0  0
  185.9890  176.3260  136.3140 C   0  0  0  0  0  1  0  0  0  0  0  0
  186.3150  177.5390  135.4750 C   0  0  0  0  0  2  0  0  0  0  0  0
  1  7  1  0  0  0  0
  2  4  1  0  0  0  0
  3  1  2  0  0  0  0
  4  7  2  0  0  0  0
  5  6  1  0  0  0  0
  6  3  1  0  0  0  0
  6  2  2  0  0  0  0
  7 37  1  0  0  0  0
  9 19  1  0  0  0  0
  9 15  2  0  0  0  0
 10 22  1  0  0  0  0
 11  8  1  0  0  0  0
 13 18  2  0  0  0  0
 13 10  1  0  0  0  0
 14 10  1  0  0  0  0
 14  8  2  0  0  0  0
 15 20  1  0  0  0  0
 16  9  1  1  0  0  0
 16 17  1  0  0  0  0
 16 14  1  0  0  0  0
 17 12  1  0  0  0  0
 17 11  2  0  0  0  0
 18 21  1  0  0  0  0
 19 13  1  0  0  0  0
 20 12  2  0  0  0  0
 21 22  2  0  0  0  0
 22  2  1  0  0  0  0
 23 26  1  6  0  0  0
 23 24  1  0  0  0  0
 25 21  1  1  0  0  0
 25 23  1  0  0  0  0
 25 24  1  0  0  0  0
 28 30  1  0  0  0  0
 29 28  1  6  0  0  0
 29 32  1  0  0  0  0
 30 27  1  0  0  0  0
 31 29  1  0  0  0  0
 31 26  1  1  0  0  0
 31 32  1  0  0  0  0
 32 27  1  6  0  0  0
 33 15  1  0  0  0  0
 33 34  1  0  0  0  0
 34 36  1  0  0  0  0
 36 35  1  0  0  0  0
 37 38  1  0  0  0  0
 38 41  1  0  0  0  0
 40 39  2  0  0  0  0
 41 39  1  0  0  0  0
 42 50  1  6  0  0  0
 42 48  1  0  0  0  0
 43 39  1  6  0  0  0
 43 47  1  0  0  0  0
 43 42  1  0  0  0  0
 44 46  1  0  0  0  0
 44 49  1  1  0  0  0
 45 44  1  0  0  0  0
 47 45  1  6  0  0  0
 47 44  1  0  0  0  0
 48 46  1  0  0  0  0
 50 51  1  0  0  0  0
 51 52  1  1  0  0  0
 53 54  1  1  0  0  0
 53 51  1  0  0  0  0
 55 53  1  0  0  0  0
 56 55  1  0  0  0  0
 57  3  1  0  0  0  0
 58 60  1  0  0  0  0
 58 57  1  0  0  0  0
 60 59  1  0  0  0  0
M  END
>  <MODEL>
7

>  <REMARK>
 VINA RESULT:      -5.7      3.057      7.434
  Name = 
  18 active torsions:
  status: ('A' for Active; 'I' for Inactive)
    1  A    between atoms: C_2  and  C_11
    2  A    between atoms: C_6  and  C_51
    3  A    between atoms: C_9  and  O_27
    4  A    between atoms: C_12  and  C_54
    5  A    between atoms: C_13  and  C_52
    6  A    between atoms: C_13  and  C_54
    7  A    between atoms: N_20  and  C_24
    8  A    between atoms: N_20  and  C_35
    9  A    between atoms: C_21  and  C_38
   10  A    between atoms: C_21  and  C_58
   11  A    between atoms: O_27  and  C_41
   12  A    between atoms: C_30  and  CA_49
   13  A    between atoms: C_31  and  C_33
   14  A    between atoms: C_33  and  C_45
   15  A    between atoms: C_35  and  C_44
   16  A    between atoms: C_36  and  C_47
   17  A    between atoms: C_38  and  N_57
   18  A    between atoms: C_41  and  CA_49
                            x       y       z     vdW  Elec       q    Type
                         _______ _______ _______ _____ _____    ______ ____

>  <TORSDO>
F 18

$$$$
=
 OpenBabel10222421393D

 60 69  0  0  1  0  0  0  0  0999 V2000
  187.8320  177.9200  138.1860 C   0  0  0  0  0  3  0  0  0  0  0  0
  189.0300  175.7720  136.8340 C   0  0  0  0  0  0  0  0  0  0  0  0
  187.4440  177.6230  136.8750 C   0  0  0  0  0  0  0  0  0  0  0  0
  189.3940  176.0740  138.1510 C   0  0  0  0  0  3  0  0  0  0  0  0
  187.6350  176.2350  134.9000 O   0  0  0  0  0  1  0  0  0  0  0  0
  188.0430  176.5460  136.1940 C   0  0  0  0  0  0  0  0  0  0  0  0
  188.7970  177.1390  138.8320 C   0  0  0  0  0  0  0  0  0  0  0  0
  186.6230  173.4320  136.5670 C   0  0  0  0  0  3  0  0  0  0  0  0
  188.4170  171.0340  134.6280 C   0  0  0  0  0  0  0  0  0  0  0  0
  189.0830  173.5220  135.7040 N   0  0  0  0  0  0  0  0  0  0  0  0
  185.6630  172.5630  136.4390 N   0  0  0  0  0  0  0  0  0  0  0  0
  185.8910  170.1780  135.7320 C   0  0  0  0  0  3  0  0  0  0  0  0
  190.0500  172.7940  135.1080 C   0  0  0  0  0  0  0  0  0  0  0  0
  187.7060  173.1160  135.6440 C   0  0  0  0  0  0  0  0  0  0  0  0
  188.1330  169.7260  134.7370 C   0  0  0  0  0  0  0  0  0  0  0  0
  187.3790  172.0030  135.0240 C   0  0  2  0  0  3  0  0  0  0  0  0
  185.9860  171.6350  135.3530 C   0  0  0  0  0  0  0  0  0  0  0  0
  191.2650  173.3720  135.1470 N   0  0  0  0  0  0  0  0  0  0  0  0
  189.7750  171.5080  134.5300 N   0  0  0  0  0  2  0  0  0  0  0  0
  186.8530  169.3030  135.3860 C   0  0  0  0  0  3  0  0  0  0  0  0
  191.0340  174.5430  135.7960 C   0  0  0  0  0  0  0  0  0  0  0  0
  189.6880  174.6470  136.1380 C   0  0  0  0  0  0  0  0  0  0  0  0
  193.4680  174.9280  135.9460 C   0  0  1  0  0  3  0  0  0  0  0  0
  192.9070  175.1220  137.3370 C   0  0  0  0  0  2  0  0  0  0  0  0
  192.0960  175.5540  136.1220 C   0  0  2  0  0  3  0  0  0  0  0  0
  194.5140  175.9940  135.6940 C   0  0  0  0  0  2  0  0  0  0  0  0
  198.1150  175.7580  134.9120 C   0  0  0  0  0  2  0  0  0  0  0  0
  197.6340  174.0140  136.3440 C   0  0  0  0  0  2  0  0  0  0  0  0
  196.6020  175.0930  136.5610 C   0  0  2  0  0  3  0  0  0  0  0  0
  198.7070  174.5980  135.5610 N   0  0  0  0  0  2  0  0  0  0  0  0
  195.8350  175.3260  135.3400 C   0  0  2  0  0  3  0  0  0  0  0  0
  196.9620  176.2140  135.6830 N   0  0  2  0  0  0  0  0  0  0  0  0
  189.1280  168.7480  134.4160 N   0  0  0  0  0  2  0  0  0  0  0  0
  190.0910  168.2820  135.4000 C   0  0  0  0  0  2  0  0  0  0  0  0
  192.3880  168.5180  135.9750 O   0  0  0  0  0  1  0  0  0  0  0  0
  191.5050  168.4970  134.8940 C   0  0  0  0  0  2  0  0  0  0  0  0
  189.1860  177.4260  140.2440 C   0  0  0  0  0  2  0  0  0  0  0  0
  188.2310  178.4420  140.8490 C   0  0  0  0  0  2  0  0  0  0  0  0
  185.8630  178.5040  141.6410 C   0  0  0  0  0  0  0  0  0  0  0  0
  185.6120  179.5130  140.9280 O   0  0  0  0  0  0  0  0  0  0  0  0
  187.0720  177.7730  141.4100 N   0  0  0  0  0  2  0  0  0  0  0  0
  183.4480  178.6120  142.4050 C   0  0  2  0  0  3  0  0  0  0  0  0
  184.8670  178.0530  142.6870 C   0  0  2  0  0  3  0  0  0  0  0  0
  184.3470  178.9920  145.0350 C   0  0  1  0  0  0  0  0  0  0  0  0
  185.4880  179.7890  144.4550 C   0  0  0  0  0  2  0  0  0  0  0  0
  182.9730  179.3360  144.4740 C   0  0  0  0  0  2  0  0  0  0  0  0
  185.3680  178.2960  144.1360 C   0  0  2  0  0  3  0  0  0  0  0  0
  182.6040  178.3920  143.5080 O   0  0  0  0  0  0  0  0  0  0  0  0
  184.4760  178.7290  146.3990 O   0  0  0  0  0  1  0  0  0  0  0  0
  182.9120  177.9630  141.2840 O   0  0  0  0  0  0  0  0  0  0  0  0
  181.8300  178.7490  140.8650 C   0  0  1  0  0  3  0  0  0  0  0  0
  182.3030  179.8890  140.2070 O   0  0  0  0  0  1  0  0  0  0  0  0
  180.9330  177.9300  139.9360 C   0  0  2  0  0  3  0  0  0  0  0  0
  181.5890  176.6870  139.5570 N   0  0  0  0  0  1  0  0  0  0  0  0
  180.5900  178.7360  138.6930 C   0  0  0  0  0  2  0  0  0  0  0  0
  181.3720  178.3210  137.6150 O   0  0  0  0  0  1  0  0  0  0  0  0
  186.3710  178.4330  136.2320 C   0  0  0  0  0  2  0  0  0  0  0  0
  185.0010  177.8840  136.5790 C   0  0  0  0  0  2  0  0  0  0  0  0
  184.2790  176.4970  134.6660 C   0  0  0  0  0  1  0  0  0  0  0  0
  184.8820  176.4740  136.0510 C   0  0  0  0  0  2  0  0  0  0  0  0
  1  7  1  0  0  0  0
  2  4  1  0  0  0  0
  3  1  2  0  0  0  0
  4  7  2  0  0  0  0
  5  6  1  0  0  0  0
  6  2  2  0  0  0  0
  6  3  1  0  0  0  0
  7 37  1  0  0  0  0
  9 15  2  0  0  0  0
 10 22  1  0  0  0  0
 11  8  1  0  0  0  0
 13 18  2  0  0  0  0
 13 10  1  0  0  0  0
 14 10  1  0  0  0  0
 14  8  2  0  0  0  0
 15 20  1  0  0  0  0
 16  9  1  1  0  0  0
 16 17  1  0  0  0  0
 16 14  1  0  0  0  0
 17 12  1  0  0  0  0
 17 11  2  0  0  0  0
 18 21  1  0  0  0  0
 19  9  1  0  0  0  0
 19 13  1  0  0  0  0
 20 12  2  0  0  0  0
 21 22  2  0  0  0  0
 22  2  1  0  0  0  0
 23 26  1  1  0  0  0
 23 25  1  0  0  0  0
 23 24  1  0  0  0  0
 25 21  1  6  0  0  0
 25 24  1  0  0  0  0
 27 30  1  0  0  0  0
 29 28  1  6  0  0  0
 30 28  1  0  0  0  0
 31 32  1  0  0  0  0
 31 26  1  1  0  0  0
 31 29  1  0  0  0  0
 32 27  1  6  0  0  0
 32 29  1  0  0  0  0
 33 15  1  0  0  0  0
 33 34  1  0  0  0  0
 36 34  1  0  0  0  0
 36 35  1  0  0  0  0
 37 38  1  0  0  0  0
 38 41  1  0  0  0  0
 40 39  2  0  0  0  0
 41 39  1  0  0  0  0
 42 50  1  6  0  0  0
 42 43  1  0  0  0  0
 42 48  1  0  0  0  0
 43 39  1  6  0  0  0
 43 47  1  0  0  0  0
 44 49  1  1  0  0  0
 45 44  1  0  0  0  0
 46 44  1  0  0  0  0
 47 45  1  6  0  0  0
 47 44  1  0  0  0  0
 48 46  1  0  0  0  0
 51 52  1  6  0  0  0
 51 50  1  0  0  0  0
 53 54  1  6  0  0  0
 53 51  1  0  0  0  0
 55 53  1  0  0  0  0
 56 55  1  0  0  0  0
 57 58  1  0  0  0  0
 57  3  1  0  0  0  0
 59 60  1  0  0  0  0
 60 58  1  0  0  0  0
M  END
>  <MODEL>
8

>  <REMARK>
 VINA RESULT:      -5.2      3.060      7.023
  Name = 
  18 active torsions:
  status: ('A' for Active; 'I' for Inactive)
    1  A    between atoms: C_2  and  C_11
    2  A    between atoms: C_6  and  C_51
    3  A    between atoms: C_9  and  O_27
    4  A    between atoms: C_12  and  C_54
    5  A    between atoms: C_13  and  C_52
    6  A    between atoms: C_13  and  C_54
    7  A    between atoms: N_20  and  C_24
    8  A    between atoms: N_20  and  C_35
    9  A    between atoms: C_21  and  C_38
   10  A    between atoms: C_21  and  C_58
   11  A    between atoms: O_27  and  C_41
   12  A    between atoms: C_30  and  CA_49
   13  A    between atoms: C_31  and  C_33
   14  A    between atoms: C_33  and  C_45
   15  A    between atoms: C_35  and  C_44
   16  A    between atoms: C_36  and  C_47
   17  A    between atoms: C_38  and  N_57
   18  A    between atoms: C_41  and  CA_49
                            x       y       z     vdW  Elec       q    Type
                         _______ _______ _______ _____ _____    ______ ____

>  <TORSDO>
F 18

$$$$
=
 OpenBabel10222421393D

 60 69  0  0  1  0  0  0  0  0999 V2000
  184.8800  178.2410  137.9930 C   0  0  0  0  0  3  0  0  0  0  0  0
  186.9920  177.9940  139.8250 C   0  0  0  0  0  0  0  0  0  0  0  0
  184.8920  179.0300  139.1480 C   0  0  0  0  0  0  0  0  0  0  0  0
  186.9720  177.2230  138.6560 C   0  0  0  0  0  3  0  0  0  0  0  0
  185.9740  179.7160  141.2030 O   0  0  0  0  0  1  0  0  0  0  0  0
  185.9490  178.9090  140.0680 C   0  0  0  0  0  0  0  0  0  0  0  0
  185.9250  177.3450  137.7370 C   0  0  0  0  0  0  0  0  0  0  0  0
  185.5020  177.9980  142.8440 C   0  0  0  0  0  3  0  0  0  0  0  0
  188.3660  177.3080  144.8570 C   0  0  0  0  0  0  0  0  0  0  0  0
  187.9850  177.6610  142.1140 N   0  0  0  0  0  0  0  0  0  0  0  0
  184.8980  177.9590  143.9960 N   0  0  0  0  0  0  0  0  0  0  0  0
  185.9640  178.0960  146.2500 C   0  0  0  0  0  3  0  0  0  0  0  0
  189.2430  177.5290  142.5820 C   0  0  0  0  0  0  0  0  0  0  0  0
  186.8500  177.4570  142.9730 C   0  0  0  0  0  0  0  0  0  0  0  0
  188.4330  177.7620  146.1190 C   0  0  0  0  0  0  0  0  0  0  0  0
  187.0350  177.1640  144.2420 C   0  0  2  0  0  3  0  0  0  0  0  0
  185.7630  177.3060  144.9810 C   0  0  0  0  0  0  0  0  0  0  0  0
  190.1880  177.6270  141.6290 N   0  0  0  0  0  0  0  0  0  0  0  0
  189.5100  177.3400  143.9810 N   0  0  0  0  0  2  0  0  0  0  0  0
  187.1860  178.2410  146.7940 C   0  0  0  0  0  3  0  0  0  0  0  0
  189.4680  177.8170  140.4920 C   0  0  0  0  0  0  0  0  0  0  0  0
  188.1060  177.8320  140.7830 C   0  0  0  0  0  0  0  0  0  0  0  0
  190.0550  176.7030  138.3680 C   0  0  1  0  0  3  0  0  0  0  0  0
  191.3480  177.2000  138.9740 C   0  0  0  0  0  2  0  0  0  0  0  0
  190.0710  178.0150  139.1310 C   0  0  2  0  0  3  0  0  0  0  0  0
  190.0940  176.9520  136.8750 C   0  0  0  0  0  2  0  0  0  0  0  0
  191.3920  174.1420  134.8600 C   0  0  0  0  0  2  0  0  0  0  0  0
  190.1490  173.2130  136.5690 C   0  0  0  0  0  2  0  0  0  0  0  0
  190.6100  174.5780  137.0170 C   0  0  2  0  0  3  0  0  0  0  0  0
  190.9120  172.8710  135.3820 N   0  0  0  0  0  2  0  0  0  0  0  0
  190.0700  175.6170  136.1440 C   0  0  2  0  0  3  0  0  0  0  0  0
  191.4450  175.1240  135.9400 N   0  0  2  0  0  0  0  0  0  0  0  0
  189.7060  177.9690  146.7400 N   0  0  0  0  0  2  0  0  0  0  0  0
  190.4530  176.8780  147.3440 C   0  0  0  0  0  2  0  0  0  0  0  0
  192.0900  175.2200  146.8640 O   0  0  0  0  0  1  0  0  0  0  0  0
  191.5850  176.4470  146.4310 C   0  0  0  0  0  2  0  0  0  0  0  0
  185.9390  176.5290  136.4880 C   0  0  0  0  0  2  0  0  0  0  0  0
  186.7200  175.2440  136.7170 C   0  0  0  0  0  2  0  0  0  0  0  0
  186.1760  172.8920  136.0770 C   0  0  0  0  0  0  0  0  0  0  0  0
  185.7880  172.6240  137.2460 O   0  0  0  0  0  0  0  0  0  0  0  0
  186.3770  174.2590  135.7070 N   0  0  0  0  0  2  0  0  0  0  0  0
  185.1930  170.7720  135.0940 C   0  0  2  0  0  3  0  0  0  0  0  0
  186.3750  171.7750  135.0750 C   0  0  2  0  0  3  0  0  0  0  0  0
  187.7310  169.5840  135.2380 C   0  0  1  0  0  0  0  0  0  0  0  0
  187.9460  170.3630  136.5110 C   0  0  0  0  0  2  0  0  0  0  0  0
  186.3870  168.8740  135.1380 C   0  0  0  0  0  2  0  0  0  0  0  0
  187.7730  171.1110  135.1860 C   0  0  2  0  0  3  0  0  0  0  0  0
  185.5100  169.6240  134.3460 O   0  0  0  0  0  0  0  0  0  0  0  0
  188.8760  168.9400  134.7690 O   0  0  0  0  0  1  0  0  0  0  0  0
  184.0610  171.3820  134.5360 O   0  0  0  0  0  0  0  0  0  0  0  0
  182.9790  170.9920  135.3370 C   0  0  1  0  0  3  0  0  0  0  0  0
  183.4530  170.4510  136.5370 O   0  0  0  0  0  1  0  0  0  0  0  0
  182.0850  172.2020  135.6120 C   0  0  2  0  0  3  0  0  0  0  0  0
  182.2640  173.2150  134.5820 N   0  0  0  0  0  1  0  0  0  0  0  0
  182.4030  172.7900  136.9780 C   0  0  0  0  0  2  0  0  0  0  0  0
  181.8610  174.0700  137.0930 O   0  0  0  0  0  1  0  0  0  0  0  0
  183.7980  180.0180  139.3650 C   0  0  0  0  0  2  0  0  0  0  0  0
  182.5890  179.6780  138.5150 C   0  0  0  0  0  2  0  0  0  0  0  0
  181.1870  178.0100  139.6800 C   0  0  0  0  0  1  0  0  0  0  0  0
  181.3900  179.4830  139.4130 C   0  0  0  0  0  2  0  0  0  0  0  0
  1  3  1  0  0  0  0
  2  6  1  0  0  0  0
  2 22  1  0  0  0  0
  3 57  1  0  0  0  0
  3  6  2  0  0  0  0
  4  2  2  0  0  0  0
  6  5  1  0  0  0  0
  7  1  2  0  0  0  0
  7  4  1  0  0  0  0
  8 14  2  0  0  0  0
  8 11  1  0  0  0  0
  9 15  2  0  0  0  0
 10 13  1  0  0  0  0
 10 14  1  0  0  0  0
 11 17  2  0  0  0  0
 12 20  2  0  0  0  0
 13 19  1  0  0  0  0
 15 33  1  0  0  0  0
 15 20  1  0  0  0  0
 16 14  1  6  0  0  0
 16  9  1  0  0  0  0
 16 17  1  0  0  0  0
 17 12  1  0  0  0  0
 18 13  2  0  0  0  0
 19  9  1  0  0  0  0
 21 22  2  0  0  0  0
 21 18  1  0  0  0  0
 22 10  1  0  0  0  0
 23 26  1  6  0  0  0
 23 24  1  0  0  0  0
 23 25  1  0  0  0  0
 24 25  1  0  0  0  0
 25 21  1  1  0  0  0
 27 30  1  0  0  0  0
 29 28  1  6  0  0  0
 30 28  1  0  0  0  0
 31 26  1  1  0  0  0
 31 29  1  0  0  0  0
 32 27  1  6  0  0  0
 32 31  1  0  0  0  0
 32 29  1  0  0  0  0
 33 34  1  0  0  0  0
 36 35  1  0  0  0  0
 36 34  1  0  0  0  0
 37 38  1  0  0  0  0
 37  7  1  0  0  0  0
 39 40  2  0  0  0  0
 41 39  1  0  0  0  0
 41 38  1  0  0  0  0
 42 50  1  6  0  0  0
 43 42  1  0  0  0  0
 43 47  1  0  0  0  0
 43 39  1  1  0  0  0
 44 49  1  6  0  0  0
 44 45  1  0  0  0  0
 46 44  1  0  0  0  0
 47 44  1  0  0  0  0
 47 45  1  1  0  0  0
 48 42  1  0  0  0  0
 48 46  1  0  0  0  0
 50 51  1  0  0  0  0
 51 53  1  0  0  0  0
 51 52  1  1  0  0  0
 53 54  1  6  0  0  0
 53 55  1  0  0  0  0
 55 56  1  0  0  0  0
 58 57  1  0  0  0  0
 58 60  1  0  0  0  0
 60 59  1  0  0  0  0
M  END
>  <MODEL>
9

>  <REMARK>
 VINA RESULT:      -5.1      3.327      9.216
  Name = 
  18 active torsions:
  status: ('A' for Active; 'I' for Inactive)
    1  A    between atoms: C_2  and  C_11
    2  A    between atoms: C_6  and  C_51
    3  A    between atoms: C_9  and  O_27
    4  A    between atoms: C_12  and  C_54
    5  A    between atoms: C_13  and  C_52
    6  A    between atoms: C_13  and  C_54
    7  A    between atoms: N_20  and  C_24
    8  A    between atoms: N_20  and  C_35
    9  A    between atoms: C_21  and  C_38
   10  A    between atoms: C_21  and  C_58
   11  A    between atoms: O_27  and  C_41
   12  A    between atoms: C_30  and  CA_49
   13  A    between atoms: C_31  and  C_33
   14  A    between atoms: C_33  and  C_45
   15  A    between atoms: C_35  and  C_44
   16  A    between atoms: C_36  and  C_47
   17  A    between atoms: C_38  and  N_57
   18  A    between atoms: C_41  and  CA_49
                            x       y       z     vdW  Elec       q    Type
                         _______ _______ _______ _____ _____    ______ ____

>  <TORSDO>
F 18

$$$$
