=
 OpenBabel10232407563D

 44 48  0  0  1  0  0  0  0  0999 V2000
  189.6460  177.5350  139.2750 C   0  0  0  0  0  0  0  0  0  0  0  0
  188.1710  178.2870  141.0530 C   0  0  0  0  0  3  0  0  0  0  0  0
  188.8230  177.4460  141.9650 C   0  0  0  0  0  0  0  0  0  0  0  0
  188.5780  178.3300  139.7180 C   0  0  0  0  0  3  0  0  0  0  0  0
  189.8920  176.6580  141.5240 C   0  0  0  0  0  3  0  0  0  0  0  0
  190.2980  176.6970  140.1860 C   0  0  0  0  0  3  0  0  0  0  0  0
  187.1460  177.5130  143.9310 C   0  0  0  0  0  0  0  0  0  0  0  0
  186.9850  177.5960  145.2200 N   0  0  0  0  0  0  0  0  0  0  0  0
  188.4570  177.3960  143.3510 N   0  0  0  0  0  2  0  0  0  0  0  0
  187.6420  178.1330  147.5070 C   0  0  0  0  0  3  0  0  0  0  0  0
  188.5890  178.2050  148.5320 C   0  0  0  0  0  3  0  0  0  0  0  0
  187.9950  177.6410  146.2460 C   0  0  0  0  0  0  0  0  0  0  0  0
  189.9010  177.7850  148.3020 C   0  0  0  0  0  3  0  0  0  0  0  0
  190.2760  177.2950  147.0470 C   0  0  0  0  0  0  0  0  0  0  0  0
  189.3190  177.2280  146.0230 C   0  0  0  0  0  3  0  0  0  0  0  0
  191.5940  176.8810  146.8430 O   0  0  0  0  0  0  0  0  0  0  0  0
  192.2210  175.9000  147.6560 C   0  0  0  0  0  1  0  0  0  0  0  0
  185.9200  177.4850  143.0780 C   0  0  0  0  0  2  0  0  0  0  0  0
  185.3700  178.8890  142.8700 C   0  0  1  0  0  3  0  0  0  0  0  0
  181.8220  178.8580  144.1070 C   0  0  0  0  0  3  0  0  0  0  0  0
  180.6200  178.6000  143.4370 C   0  0  0  0  0  3  0  0  0  0  0  0
  184.5780  178.9780  141.2160 S   0  0  0  0  0  0  0  0  0  0  0  0
  181.8030  178.5570  141.3110 C   0  0  0  0  0  3  0  0  0  0  0  0
  182.9910  178.8250  141.9940 C   0  0  0  0  0  0  0  0  0  0  0  0
  180.6110  178.4470  142.0400 C   0  0  0  0  0  3  0  0  0  0  0  0
  183.0040  178.9620  143.3670 C   0  0  0  0  0  0  0  0  0  0  0  0
  184.3370  179.2170  143.9560 C   0  0  0  0  0  2  0  0  0  0  0  0
  190.0910  177.5580  137.9130 N   0  0  0  0  0  2  0  0  0  0  0  0
  190.0490  176.4620  136.9830 C   0  0  0  0  0  0  0  0  0  0  0  0
  189.5340  175.3520  137.2980 O   0  0  0  0  0  0  0  0  0  0  0  0
  190.5980  176.6430  135.6080 C   0  0  0  0  0  2  0  0  0  0  0  0
  191.8000  175.7850  135.3740 C   0  0  0  0  0  0  0  0  0  0  0  0
  191.8420  175.0540  134.3480 O   0  0  0  0  0  0  0  0  0  0  0  0
  192.9120  175.8280  136.2750 N   0  0  0  0  0  2  0  0  0  0  0  0
  194.1150  175.0360  136.0700 C   0  0  1  0  0  3  0  0  0  0  0  0
  195.2450  175.8260  136.2930 O   0  0  0  0  0  1  0  0  0  0  0  0
  197.2070  171.8620  137.4260 C   0  0  0  0  0  1  0  0  0  0  0  0
  195.4580  173.5630  137.5210 N   0  0  0  0  0  0  0  0  0  0  0  0
  194.1140  173.8210  136.9950 C   0  0  2  0  0  3  0  0  0  0  0  0
  193.4510  172.3720  136.1090 S   0  0  0  0  0  0  0  0  0  0  0  0
  195.7100  172.1250  137.4920 C   0  0  1  0  0  3  0  0  0  0  0  0
  194.7940  170.0420  136.4890 C   0  0  0  0  0  1  0  0  0  0  0  0
  195.4500  173.9680  138.9180 C   0  0  0  0  0  1  0  0  0  0  0  0
  195.0310  171.5270  136.2850 C   0  0  1  0  0  3  0  0  0  0  0  0
  1  4  2  0  0  0  0
  1  6  1  0  0  0  0
  2  3  2  0  0  0  0
  3  9  1  0  0  0  0
  4  2  1  0  0  0  0
  5  3  1  0  0  0  0
  6  5  2  0  0  0  0
  7  8  2  0  0  0  0
  8 12  1  0  0  0  0
  9  7  1  0  0  0  0
 10 11  1  0  0  0  0
 12 10  2  0  0  0  0
 13 11  2  0  0  0  0
 14 13  1  0  0  0  0
 15 12  1  0  0  0  0
 15 14  2  0  0  0  0
 16 14  1  0  0  0  0
 16 17  1  0  0  0  0
 18  7  1  0  0  0  0
 19 18  1  1  0  0  0
 19 27  1  0  0  0  0
 21 20  1  0  0  0  0
 22 24  1  0  0  0  0
 22 19  1  0  0  0  0
 23 24  2  0  0  0  0
 23 25  1  0  0  0  0
 24 26  1  0  0  0  0
 25 21  2  0  0  0  0
 26 27  1  0  0  0  0
 26 20  2  0  0  0  0
 28  1  1  0  0  0  0
 29 30  2  0  0  0  0
 29 28  1  0  0  0  0
 31 29  1  0  0  0  0
 32 31  1  0  0  0  0
 32 34  1  0  0  0  0
 33 32  2  0  0  0  0
 35 34  1  0  0  0  0
 35 36  1  1  0  0  0
 38 43  1  0  0  0  0
 39 35  1  6  0  0  0
 39 38  1  0  0  0  0
 40 44  1  0  0  0  0
 40 39  1  0  0  0  0
 41 37  1  6  0  0  0
 41 38  1  0  0  0  0
 44 42  1  1  0  0  0
 44 41  1  0  0  0  0
M  END
>  <MODEL>
1

>  <REMARK>
 VINA RESULT:      -9.4      0.000      0.000
  Name = 
  10 active torsions:
  status: ('A' for Active; 'I' for Inactive)
    1  A    between atoms: C_2  and  C_13
    2  A    between atoms: C_2  and  N_26
    3  A    between atoms: C_3  and  N_32
    4  A    between atoms: C_4  and  C_36
    5  A    between atoms: C_11  and  C_12
    6  A    between atoms: C_11  and  C_41
    7  A    between atoms: C_17  and  C_36
    8  A    between atoms: C_18  and  N_29
    9  A    between atoms: N_20  and  C_23
   10  A    between atoms: C_37  and  O_40
                            x       y       z     vdW  Elec       q    Type
                         _______ _______ _______ _____ _____    ______ ____

>  <TORSDO>
F 10

$$$$
=
 OpenBabel10232407563D

 44 48  0  0  1  0  0  0  0  0999 V2000
  190.2450  177.5970  141.3110 C   0  0  0  0  0  0  0  0  0  0  0  0
  190.2580  176.7840  139.0220 C   0  0  0  0  0  3  0  0  0  0  0  0
  191.6590  176.7920  139.0150 C   0  0  0  0  0  0  0  0  0  0  0  0
  189.5550  177.1860  140.1610 C   0  0  0  0  0  3  0  0  0  0  0  0
  192.3460  177.1980  140.1650 C   0  0  0  0  0  3  0  0  0  0  0  0
  191.6440  177.6030  141.3050 C   0  0  0  0  0  3  0  0  0  0  0  0
  192.2360  175.1710  137.0870 C   0  0  0  0  0  0  0  0  0  0  0  0
  193.0970  174.8320  136.1710 N   0  0  0  0  0  0  0  0  0  0  0  0
  192.4180  176.3570  137.8780 N   0  0  0  0  0  2  0  0  0  0  0  0
  194.2880  176.5830  134.9610 C   0  0  0  0  0  3  0  0  0  0  0  0
  195.4630  177.2420  134.5880 C   0  0  0  0  0  3  0  0  0  0  0  0
  194.3340  175.4830  135.8240 C   0  0  0  0  0  0  0  0  0  0  0  0
  196.6960  176.8040  135.0760 C   0  0  0  0  0  3  0  0  0  0  0  0
  196.7640  175.7040  135.9360 C   0  0  0  0  0  0  0  0  0  0  0  0
  195.5800  175.0470  136.3040 C   0  0  0  0  0  3  0  0  0  0  0  0
  198.0090  175.2860  136.4110 O   0  0  0  0  0  0  0  0  0  0  0  0
  198.1510  174.4690  137.5640 C   0  0  0  0  0  1  0  0  0  0  0  0
  191.0200  174.3160  137.2470 C   0  0  0  0  0  2  0  0  0  0  0  0
  190.1720  174.3360  135.9840 C   0  0  1  0  0  3  0  0  0  0  0  0
  188.4850  177.6920  135.8650 C   0  0  0  0  0  3  0  0  0  0  0  0
  187.2440  178.1120  136.3590 C   0  0  0  0  0  3  0  0  0  0  0  0
  188.4860  173.7310  136.3900 S   0  0  0  0  0  0  0  0  0  0  0  0
  186.6760  175.8120  136.9170 C   0  0  0  0  0  3  0  0  0  0  0  0
  187.9140  175.4090  136.4100 C   0  0  0  0  0  0  0  0  0  0  0  0
  186.3410  177.1730  136.8870 C   0  0  0  0  0  3  0  0  0  0  0  0
  188.8060  176.3320  135.9040 C   0  0  0  0  0  0  0  0  0  0  0  0
  190.0870  175.7630  135.4280 C   0  0  0  0  0  2  0  0  0  0  0  0
  189.5560  178.0120  142.4970 N   0  0  0  0  0  2  0  0  0  0  0  0
  189.5010  177.3000  143.7460 C   0  0  0  0  0  0  0  0  0  0  0  0
  190.1410  176.2230  143.9170 O   0  0  0  0  0  0  0  0  0  0  0  0
  188.6970  177.8520  144.8740 C   0  0  0  0  0  2  0  0  0  0  0  0
  187.2350  177.5970  144.6890 C   0  0  0  0  0  0  0  0  0  0  0  0
  186.8460  176.4330  144.4030 O   0  0  0  0  0  0  0  0  0  0  0  0
  186.2830  178.6480  144.8860 N   0  0  0  0  0  2  0  0  0  0  0  0
  184.8490  178.4380  144.7490 C   0  0  1  0  0  3  0  0  0  0  0  0
  184.2010  178.8240  145.9250 O   0  0  0  0  0  1  0  0  0  0  0  0
  182.4560  177.4490  140.9060 C   0  0  0  0  0  1  0  0  0  0  0  0
  183.1420  178.5520  142.9730 N   0  0  0  0  0  0  0  0  0  0  0  0
  184.3100  179.2220  143.5540 C   0  0  2  0  0  3  0  0  0  0  0  0
  185.6330  179.4510  142.3200 S   0  0  0  0  0  0  0  0  0  0  0  0
  183.2450  178.5970  141.5170 C   0  0  1  0  0  3  0  0  0  0  0  0
  184.9110  179.0630  139.7310 C   0  0  0  0  0  1  0  0  0  0  0  0
  181.9770  179.3390  143.3450 C   0  0  0  0  0  1  0  0  0  0  0  0
  184.6970  178.4910  141.1200 C   0  0  1  0  0  3  0  0  0  0  0  0
  1 28  1  0  0  0  0
  2  4  1  0  0  0  0
  3  2  2  0  0  0  0
  3  5  1  0  0  0  0
  4  1  2  0  0  0  0
  5  6  2  0  0  0  0
  6  1  1  0  0  0  0
  7 18  1  0  0  0  0
  7  9  1  0  0  0  0
  8  7  2  0  0  0  0
  9  3  1  0  0  0  0
 10 12  1  0  0  0  0
 11 10  2  0  0  0  0
 11 13  1  0  0  0  0
 12  8  1  0  0  0  0
 12 15  2  0  0  0  0
 13 14  2  0  0  0  0
 14 15  1  0  0  0  0
 14 16  1  0  0  0  0
 16 17  1  0  0  0  0
 19 22  1  0  0  0  0
 19 18  1  1  0  0  0
 20 26  2  0  0  0  0
 20 21  1  0  0  0  0
 21 25  2  0  0  0  0
 22 24  1  0  0  0  0
 24 23  2  0  0  0  0
 25 23  1  0  0  0  0
 26 24  1  0  0  0  0
 27 26  1  0  0  0  0
 27 19  1  0  0  0  0
 28 29  1  0  0  0  0
 29 30  2  0  0  0  0
 29 31  1  0  0  0  0
 32 31  1  0  0  0  0
 32 34  1  0  0  0  0
 33 32  2  0  0  0  0
 35 34  1  0  0  0  0
 35 36  1  1  0  0  0
 38 43  1  0  0  0  0
 38 39  1  0  0  0  0
 39 35  1  1  0  0  0
 40 39  1  0  0  0  0
 41 37  1  6  0  0  0
 41 38  1  0  0  0  0
 44 42  1  6  0  0  0
 44 41  1  0  0  0  0
 44 40  1  0  0  0  0
M  END
>  <MODEL>
2

>  <REMARK>
 VINA RESULT:      -8.6      2.746     10.776
  Name = 
  10 active torsions:
  status: ('A' for Active; 'I' for Inactive)
    1  A    between atoms: C_2  and  C_13
    2  A    between atoms: C_2  and  N_26
    3  A    between atoms: C_3  and  N_32
    4  A    between atoms: C_4  and  C_36
    5  A    between atoms: C_11  and  C_12
    6  A    between atoms: C_11  and  C_41
    7  A    between atoms: C_17  and  C_36
    8  A    between atoms: C_18  and  N_29
    9  A    between atoms: N_20  and  C_23
   10  A    between atoms: C_37  and  O_40
                            x       y       z     vdW  Elec       q    Type
                         _______ _______ _______ _____ _____    ______ ____

>  <TORSDO>
F 10

$$$$
=
 OpenBabel10232407563D

 44 48  0  0  1  0  0  0  0  0999 V2000
  190.1780  177.3880  141.5750 C   0  0  0  0  0  0  0  0  0  0  0  0
  192.2780  177.3190  140.3550 C   0  0  0  0  0  3  0  0  0  0  0  0
  191.6180  176.8210  139.2240 C   0  0  0  0  0  0  0  0  0  0  0  0
  191.5640  177.5980  141.5230 C   0  0  0  0  0  3  0  0  0  0  0  0
  190.2340  176.6160  139.2750 C   0  0  0  0  0  3  0  0  0  0  0  0
  189.5180  176.8930  140.4450 C   0  0  0  0  0  3  0  0  0  0  0  0
  191.8000  175.9150  136.8100 C   0  0  0  0  0  0  0  0  0  0  0  0
  192.5880  175.6050  135.8220 N   0  0  0  0  0  0  0  0  0  0  0  0
  192.3080  176.5510  137.9960 N   0  0  0  0  0  2  0  0  0  0  0  0
  194.5220  176.8600  135.0250 C   0  0  0  0  0  3  0  0  0  0  0  0
  195.9010  177.0540  134.9040 C   0  0  0  0  0  3  0  0  0  0  0  0
  194.0170  175.7650  135.7340 C   0  0  0  0  0  0  0  0  0  0  0  0
  196.7870  176.1490  135.4930 C   0  0  0  0  0  3  0  0  0  0  0  0
  196.3040  175.0450  136.2010 C   0  0  0  0  0  0  0  0  0  0  0  0
  194.9170  174.8580  136.3160 C   0  0  0  0  0  3  0  0  0  0  0  0
  197.2110  174.1560  136.7810 O   0  0  0  0  0  0  0  0  0  0  0  0
  198.0660  174.5270  137.8520 C   0  0  0  0  0  1  0  0  0  0  0  0
  190.3400  175.6420  136.6460 C   0  0  0  0  0  2  0  0  0  0  0  0
  189.7050  176.6380  135.6860 C   0  0  1  0  0  3  0  0  0  0  0  0
  186.9520  178.3620  137.5750 C   0  0  0  0  0  3  0  0  0  0  0  0
  185.5910  178.0520  137.6970 C   0  0  0  0  0  3  0  0  0  0  0  0
  188.3150  175.8170  134.8120 S   0  0  0  0  0  0  0  0  0  0  0  0
  185.8260  176.3100  136.0150 C   0  0  0  0  0  3  0  0  0  0  0  0
  187.1780  176.6380  135.8980 C   0  0  0  0  0  0  0  0  0  0  0  0
  185.0300  177.0250  136.9190 C   0  0  0  0  0  3  0  0  0  0  0  0
  187.7340  177.6370  136.6710 C   0  0  0  0  0  0  0  0  0  0  0  0
  189.1820  177.8560  136.4590 C   0  0  0  0  0  2  0  0  0  0  0  0
  189.4150  177.6680  142.7550 N   0  0  0  0  0  2  0  0  0  0  0  0
  188.5250  176.7630  143.4310 C   0  0  0  0  0  0  0  0  0  0  0  0
  188.3860  175.5680  143.0450 O   0  0  0  0  0  0  0  0  0  0  0  0
  187.7690  177.2310  144.6280 C   0  0  0  0  0  2  0  0  0  0  0  0
  186.6130  178.1020  144.2490 C   0  0  0  0  0  0  0  0  0  0  0  0
  186.0450  178.7900  145.1390 O   0  0  0  0  0  0  0  0  0  0  0  0
  186.1880  178.1930  142.8850 N   0  0  0  0  0  2  0  0  0  0  0  0
  185.0910  179.0510  142.4640 C   0  0  1  0  0  3  0  0  0  0  0  0
  185.3620  179.5790  141.2000 O   0  0  0  0  0  1  0  0  0  0  0  0
  180.9380  179.5090  140.4580 C   0  0  0  0  0  1  0  0  0  0  0  0
  183.0350  178.5120  141.2130 N   0  0  0  0  0  0  0  0  0  0  0  0
  183.7800  178.2670  142.4530 C   0  0  2  0  0  3  0  0  0  0  0  0
  182.7920  178.6970  143.9240 S   0  0  0  0  0  0  0  0  0  0  0  0
  181.6200  178.6790  141.5350 C   0  0  1  0  0  3  0  0  0  0  0  0
  180.1380  179.0830  143.4900 C   0  0  0  0  0  1  0  0  0  0  0  0
  183.1520  177.3070  140.4070 C   0  0  0  0  0  1  0  0  0  0  0  0
  181.4940  179.3670  142.8710 C   0  0  1  0  0  3  0  0  0  0  0  0
  1 28  1  0  0  0  0
  2  4  2  0  0  0  0
  3  5  2  0  0  0  0
  3  2  1  0  0  0  0
  4  1  1  0  0  0  0
  5  6  1  0  0  0  0
  6  1  2  0  0  0  0
  7  9  1  0  0  0  0
  8  7  2  0  0  0  0
  9  3  1  0  0  0  0
 10 12  1  0  0  0  0
 11 10  2  0  0  0  0
 11 13  1  0  0  0  0
 12  8  1  0  0  0  0
 12 15  2  0  0  0  0
 13 14  2  0  0  0  0
 14 15  1  0  0  0  0
 14 16  1  0  0  0  0
 16 17  1  0  0  0  0
 18  7  1  0  0  0  0
 19 27  1  0  0  0  0
 19 18  1  1  0  0  0
 20 21  1  0  0  0  0
 22 19  1  0  0  0  0
 22 24  1  0  0  0  0
 23 25  1  0  0  0  0
 24 23  2  0  0  0  0
 24 26  1  0  0  0  0
 25 21  2  0  0  0  0
 26 20  2  0  0  0  0
 27 26  1  0  0  0  0
 28 29  1  0  0  0  0
 29 31  1  0  0  0  0
 30 29  2  0  0  0  0
 32 31  1  0  0  0  0
 32 33  2  0  0  0  0
 34 32  1  0  0  0  0
 35 36  1  6  0  0  0
 35 34  1  0  0  0  0
 38 41  1  0  0  0  0
 38 39  1  0  0  0  0
 39 35  1  6  0  0  0
 39 40  1  0  0  0  0
 41 37  1  6  0  0  0
 41 44  1  0  0  0  0
 43 38  1  0  0  0  0
 44 42  1  1  0  0  0
 44 40  1  0  0  0  0
M  END
>  <MODEL>
3

>  <REMARK>
 VINA RESULT:      -8.5      2.896     10.766
  Name = 
  10 active torsions:
  status: ('A' for Active; 'I' for Inactive)
    1  A    between atoms: C_2  and  C_13
    2  A    between atoms: C_2  and  N_26
    3  A    between atoms: C_3  and  N_32
    4  A    between atoms: C_4  and  C_36
    5  A    between atoms: C_11  and  C_12
    6  A    between atoms: C_11  and  C_41
    7  A    between atoms: C_17  and  C_36
    8  A    between atoms: C_18  and  N_29
    9  A    between atoms: N_20  and  C_23
   10  A    between atoms: C_37  and  O_40
                            x       y       z     vdW  Elec       q    Type
                         _______ _______ _______ _____ _____    ______ ____

>  <TORSDO>
F 10

$$$$
=
 OpenBabel10232407563D

 44 48  0  0  1  0  0  0  0  0999 V2000
  183.7790  178.4200  142.2120 C   0  0  0  0  0  0  0  0  0  0  0  0
  183.8890  179.0180  139.8590 C   0  0  0  0  0  3  0  0  0  0  0  0
  182.4900  179.0520  139.7900 C   0  0  0  0  0  0  0  0  0  0  0  0
  184.5290  178.7030  141.0600 C   0  0  0  0  0  3  0  0  0  0  0  0
  181.7430  178.7750  140.9410 C   0  0  0  0  0  3  0  0  0  0  0  0
  182.3820  178.4560  142.1440 C   0  0  0  0  0  3  0  0  0  0  0  0
  181.4560  178.5540  137.4740 C   0  0  0  0  0  0  0  0  0  0  0  0
  180.9510  179.0460  136.3800 N   0  0  0  0  0  0  0  0  0  0  0  0
  181.7940  179.4010  138.5860 N   0  0  0  0  0  2  0  0  0  0  0  0
  180.5350  180.7760  134.7120 C   0  0  0  0  0  3  0  0  0  0  0  0
  180.2950  182.1030  134.3460 C   0  0  0  0  0  3  0  0  0  0  0  0
  180.6970  180.4260  136.0560 C   0  0  0  0  0  0  0  0  0  0  0  0
  180.2180  183.0950  135.3270 C   0  0  0  0  0  3  0  0  0  0  0  0
  180.3820  182.7680  136.6760 C   0  0  0  0  0  0  0  0  0  0  0  0
  180.6240  181.4330  137.0340 C   0  0  0  0  0  3  0  0  0  0  0  0
  180.3000  183.7770  137.6370 O   0  0  0  0  0  0  0  0  0  0  0  0
  180.3970  185.1560  137.3080 C   0  0  0  0  0  1  0  0  0  0  0  0
  181.6190  177.0710  137.5580 C   0  0  0  0  0  2  0  0  0  0  0  0
  182.1810  176.5120  136.2580 C   0  0  1  0  0  3  0  0  0  0  0  0
  183.2100  172.9670  136.9580 C   0  0  0  0  0  3  0  0  0  0  0  0
  184.4350  172.4340  137.3800 C   0  0  0  0  0  3  0  0  0  0  0  0
  183.9920  176.8140  136.2150 S   0  0  0  0  0  0  0  0  0  0  0  0
  185.4870  174.6100  137.1060 C   0  0  0  0  0  3  0  0  0  0  0  0
  184.2610  175.1230  136.6770 C   0  0  0  0  0  0  0  0  0  0  0  0
  185.5720  173.2560  137.4560 C   0  0  0  0  0  3  0  0  0  0  0  0
  183.1410  174.3200  136.6150 C   0  0  0  0  0  0  0  0  0  0  0  0
  181.9070  175.0050  136.1700 C   0  0  0  0  0  2  0  0  0  0  0  0
  184.4040  178.0980  143.4600 N   0  0  0  0  0  2  0  0  0  0  0  0
  184.9620  179.0300  144.4010 C   0  0  0  0  0  0  0  0  0  0  0  0
  184.8880  180.2780  144.2140 O   0  0  0  0  0  0  0  0  0  0  0  0
  185.6200  178.5220  145.6400 C   0  0  0  0  0  2  0  0  0  0  0  0
  186.9790  177.9650  145.3570 C   0  0  0  0  0  0  0  0  0  0  0  0
  187.7460  177.7000  146.3220 O   0  0  0  0  0  0  0  0  0  0  0  0
  187.3860  177.6880  144.0130 N   0  0  0  0  0  2  0  0  0  0  0  0
  188.6850  177.1160  143.6930 C   0  0  1  0  0  3  0  0  0  0  0  0
  188.5280  175.7960  143.2640 O   0  0  0  0  0  1  0  0  0  0  0  0
  190.0350  176.4820  139.3050 C   0  0  0  0  0  1  0  0  0  0  0  0
  189.0160  177.4950  141.2790 N   0  0  0  0  0  0  0  0  0  0  0  0
  189.3840  177.9520  142.6230 C   0  0  2  0  0  3  0  0  0  0  0  0
  191.1880  177.8980  142.8780 S   0  0  0  0  0  0  0  0  0  0  0  0
  190.2110  177.4800  140.4400 C   0  0  1  0  0  3  0  0  0  0  0  0
  192.6870  177.5800  140.6360 C   0  0  0  0  0  1  0  0  0  0  0  0
  188.1160  178.4950  140.7250 C   0  0  0  0  0  1  0  0  0  0  0  0
  191.4020  177.0960  141.2810 C   0  0  1  0  0  3  0  0  0  0  0  0
  1 28  1  0  0  0  0
  2  4  1  0  0  0  0
  3  2  2  0  0  0  0
  3  5  1  0  0  0  0
  4  1  2  0  0  0  0
  5  6  2  0  0  0  0
  6  1  1  0  0  0  0
  7 18  1  0  0  0  0
  7  9  1  0  0  0  0
  8  7  2  0  0  0  0
  9  3  1  0  0  0  0
 10 12  1  0  0  0  0
 11 10  2  0  0  0  0
 11 13  1  0  0  0  0
 12  8  1  0  0  0  0
 12 15  2  0  0  0  0
 13 14  2  0  0  0  0
 14 15  1  0  0  0  0
 14 16  1  0  0  0  0
 17 16  1  0  0  0  0
 19 18  1  1  0  0  0
 20 21  1  0  0  0  0
 21 25  2  0  0  0  0
 22 19  1  0  0  0  0
 22 24  1  0  0  0  0
 23 25  1  0  0  0  0
 24 23  2  0  0  0  0
 26 24  1  0  0  0  0
 26 20  2  0  0  0  0
 27 19  1  0  0  0  0
 27 26  1  0  0  0  0
 28 29  1  0  0  0  0
 29 31  1  0  0  0  0
 30 29  2  0  0  0  0
 32 31  1  0  0  0  0
 32 33  2  0  0  0  0
 34 32  1  0  0  0  0
 35 36  1  6  0  0  0
 35 34  1  0  0  0  0
 38 39  1  0  0  0  0
 39 40  1  0  0  0  0
 39 35  1  1  0  0  0
 41 37  1  6  0  0  0
 41 38  1  0  0  0  0
 41 44  1  0  0  0  0
 43 38  1  0  0  0  0
 44 42  1  6  0  0  0
 44 40  1  0  0  0  0
M  END
>  <MODEL>
4

>  <REMARK>
 VINA RESULT:      -8.5      5.255     10.300
  Name = 
  10 active torsions:
  status: ('A' for Active; 'I' for Inactive)
    1  A    between atoms: C_2  and  C_13
    2  A    between atoms: C_2  and  N_26
    3  A    between atoms: C_3  and  N_32
    4  A    between atoms: C_4  and  C_36
    5  A    between atoms: C_11  and  C_12
    6  A    between atoms: C_11  and  C_41
    7  A    between atoms: C_17  and  C_36
    8  A    between atoms: C_18  and  N_29
    9  A    between atoms: N_20  and  C_23
   10  A    between atoms: C_37  and  O_40
                            x       y       z     vdW  Elec       q    Type
                         _______ _______ _______ _____ _____    ______ ____

>  <TORSDO>
F 10

$$$$
=
 OpenBabel10232407563D

 44 48  0  0  1  0  0  0  0  0999 V2000
  189.6690  177.7660  142.2820 C   0  0  0  0  0  0  0  0  0  0  0  0
  189.4280  177.2780  139.9140 C   0  0  0  0  0  3  0  0  0  0  0  0
  190.8150  177.1310  139.7910 C   0  0  0  0  0  0  0  0  0  0  0  0
  188.8580  177.5960  141.1490 C   0  0  0  0  0  3  0  0  0  0  0  0
  191.6230  177.2960  140.9230 C   0  0  0  0  0  3  0  0  0  0  0  0
  191.0540  177.6160  142.1600 C   0  0  0  0  0  3  0  0  0  0  0  0
  190.8170  176.5850  137.2650 C   0  0  0  0  0  0  0  0  0  0  0  0
  191.4910  176.1170  136.2540 N   0  0  0  0  0  0  0  0  0  0  0  0
  191.4370  176.7750  138.5490 N   0  0  0  0  0  2  0  0  0  0  0  0
  193.1550  174.3840  136.6690 C   0  0  0  0  0  3  0  0  0  0  0  0
  194.4710  173.9120  136.6660 C   0  0  0  0  0  3  0  0  0  0  0  0
  192.8610  175.6760  136.2210 C   0  0  0  0  0  0  0  0  0  0  0  0
  195.5060  174.7340  136.2130 C   0  0  0  0  0  3  0  0  0  0  0  0
  195.2350  176.0310  135.7660 C   0  0  0  0  0  0  0  0  0  0  0  0
  193.9110  176.4960  135.7750 C   0  0  0  0  0  3  0  0  0  0  0  0
  196.2870  176.8320  135.3190 O   0  0  0  0  0  0  0  0  0  0  0  0
  196.1150  178.2020  134.9850 C   0  0  0  0  0  1  0  0  0  0  0  0
  189.3940  176.9750  137.0310 C   0  0  0  0  0  2  0  0  0  0  0  0
  188.7740  176.1300  135.9260 C   0  0  1  0  0  3  0  0  0  0  0  0
  185.1610  177.1350  135.6900 C   0  0  0  0  0  3  0  0  0  0  0  0
  184.0240  176.6210  136.3250 C   0  0  0  0  0  3  0  0  0  0  0  0
  188.0880  174.5960  136.6650 S   0  0  0  0  0  0  0  0  0  0  0  0
  185.3440  174.7880  137.2290 C   0  0  0  0  0  3  0  0  0  0  0  0
  186.4670  175.3080  136.5810 C   0  0  0  0  0  0  0  0  0  0  0  0
  184.1160  175.4490  137.0960 C   0  0  0  0  0  3  0  0  0  0  0  0
  186.3800  176.4660  135.8350 C   0  0  0  0  0  0  0  0  0  0  0  0
  187.6540  176.9130  135.2290 C   0  0  0  0  0  2  0  0  0  0  0  0
  189.1170  178.0880  143.5650 N   0  0  0  0  0  2  0  0  0  0  0  0
  188.2340  177.2630  144.3450 C   0  0  0  0  0  0  0  0  0  0  0  0
  187.9080  176.1040  143.9620 O   0  0  0  0  0  0  0  0  0  0  0  0
  187.7130  177.7700  145.6470 C   0  0  0  0  0  2  0  0  0  0  0  0
  186.2400  178.0240  145.5930 C   0  0  0  0  0  0  0  0  0  0  0  0
  185.6020  178.1670  146.6710 O   0  0  0  0  0  0  0  0  0  0  0  0
  185.5700  178.1550  144.3350 N   0  0  0  0  0  2  0  0  0  0  0  0
  184.1460  178.4350  144.2340 C   0  0  1  0  0  3  0  0  0  0  0  0
  183.7450  179.2400  145.3040 O   0  0  0  0  0  1  0  0  0  0  0  0
  182.5040  177.1030  140.1100 C   0  0  0  0  0  1  0  0  0  0  0  0
  182.7930  178.3770  142.1730 N   0  0  0  0  0  0  0  0  0  0  0  0
  183.8320  179.1120  142.9020 C   0  0  2  0  0  3  0  0  0  0  0  0
  185.3580  179.2700  141.9160 S   0  0  0  0  0  0  0  0  0  0  0  0
  183.1620  178.3100  140.7610 C   0  0  1  0  0  3  0  0  0  0  0  0
  185.1250  178.6680  139.2780 C   0  0  0  0  0  1  0  0  0  0  0  0
  181.5760  179.1680  142.2610 C   0  0  0  0  0  1  0  0  0  0  0  0
  184.6620  178.2020  140.6450 C   0  0  1  0  0  3  0  0  0  0  0  0
  1 28  1  0  0  0  0
  2  4  1  0  0  0  0
  3  2  2  0  0  0  0
  3  5  1  0  0  0  0
  4  1  2  0  0  0  0
  5  6  2  0  0  0  0
  6  1  1  0  0  0  0
  7  9  1  0  0  0  0
  8  7  2  0  0  0  0
  9  3  1  0  0  0  0
 11 10  1  0  0  0  0
 12  8  1  0  0  0  0
 12 10  2  0  0  0  0
 13 11  2  0  0  0  0
 14 15  2  0  0  0  0
 14 13  1  0  0  0  0
 15 12  1  0  0  0  0
 16 14  1  0  0  0  0
 17 16  1  0  0  0  0
 18  7  1  0  0  0  0
 19 22  1  0  0  0  0
 19 18  1  1  0  0  0
 20 26  2  0  0  0  0
 20 21  1  0  0  0  0
 21 25  2  0  0  0  0
 24 22  1  0  0  0  0
 24 23  2  0  0  0  0
 25 23  1  0  0  0  0
 26 24  1  0  0  0  0
 27 26  1  0  0  0  0
 27 19  1  0  0  0  0
 28 29  1  0  0  0  0
 29 31  1  0  0  0  0
 30 29  2  0  0  0  0
 32 31  1  0  0  0  0
 32 33  2  0  0  0  0
 34 32  1  0  0  0  0
 35 34  1  0  0  0  0
 35 36  1  1  0  0  0
 38 43  1  0  0  0  0
 38 39  1  0  0  0  0
 39 35  1  1  0  0  0
 40 39  1  0  0  0  0
 41 37  1  1  0  0  0
 41 38  1  0  0  0  0
 44 42  1  6  0  0  0
 44 41  1  0  0  0  0
 44 40  1  0  0  0  0
M  END
>  <MODEL>
5

>  <REMARK>
 VINA RESULT:      -8.5      3.121     10.462
  Name = 
  10 active torsions:
  status: ('A' for Active; 'I' for Inactive)
    1  A    between atoms: C_2  and  C_13
    2  A    between atoms: C_2  and  N_26
    3  A    between atoms: C_3  and  N_32
    4  A    between atoms: C_4  and  C_36
    5  A    between atoms: C_11  and  C_12
    6  A    between atoms: C_11  and  C_41
    7  A    between atoms: C_17  and  C_36
    8  A    between atoms: C_18  and  N_29
    9  A    between atoms: N_20  and  C_23
   10  A    between atoms: C_37  and  O_40
                            x       y       z     vdW  Elec       q    Type
                         _______ _______ _______ _____ _____    ______ ____

>  <TORSDO>
F 10

$$$$
=
 OpenBabel10232407563D

 44 48  0  0  1  0  0  0  0  0999 V2000
  190.7460  177.6510  142.7870 C   0  0  0  0  0  0  0  0  0  0  0  0
  190.2710  176.5380  140.6800 C   0  0  0  0  0  3  0  0  0  0  0  0
  191.5240  176.9190  140.1830 C   0  0  0  0  0  0  0  0  0  0  0  0
  189.8830  176.9030  141.9720 C   0  0  0  0  0  3  0  0  0  0  0  0
  192.3860  177.6600  140.9990 C   0  0  0  0  0  3  0  0  0  0  0  0
  191.9980  178.0290  142.2910 C   0  0  0  0  0  3  0  0  0  0  0  0
  191.1820  176.1150  137.7510 C   0  0  0  0  0  0  0  0  0  0  0  0
  191.7410  175.6570  136.6680 N   0  0  0  0  0  0  0  0  0  0  0  0
  191.9720  176.5370  138.8750 N   0  0  0  0  0  2  0  0  0  0  0  0
  193.6490  174.1440  136.5250 C   0  0  0  0  0  3  0  0  0  0  0  0
  195.0030  173.8860  136.2910 C   0  0  0  0  0  3  0  0  0  0  0  0
  193.1410  175.4420  136.4080 C   0  0  0  0  0  0  0  0  0  0  0  0
  195.8620  174.9300  135.9400 C   0  0  0  0  0  3  0  0  0  0  0  0
  195.3770  176.2360  135.8240 C   0  0  0  0  0  0  0  0  0  0  0  0
  194.0160  176.4850  136.0610 C   0  0  0  0  0  3  0  0  0  0  0  0
  196.2560  177.2610  135.4710 O   0  0  0  0  0  0  0  0  0  0  0  0
  195.9200  178.2610  134.5200 C   0  0  0  0  0  1  0  0  0  0  0  0
  189.6930  176.2410  137.7630 C   0  0  0  0  0  2  0  0  0  0  0  0
  189.2520  177.5320  137.0870 C   0  0  1  0  0  3  0  0  0  0  0  0
  185.8570  178.3690  138.4620 C   0  0  0  0  0  3  0  0  0  0  0  0
  184.5750  178.0330  138.0080 C   0  0  0  0  0  3  0  0  0  0  0  0
  188.3090  177.1140  135.5680 S   0  0  0  0  0  0  0  0  0  0  0  0
  185.5310  177.0880  135.9800 C   0  0  0  0  0  3  0  0  0  0  0  0
  186.8010  177.4400  136.4430 C   0  0  0  0  0  0  0  0  0  0  0  0
  184.4130  177.3900  136.7690 C   0  0  0  0  0  3  0  0  0  0  0  0
  186.9630  178.0590  137.6650 C   0  0  0  0  0  0  0  0  0  0  0  0
  188.3650  178.3480  138.0360 C   0  0  0  0  0  2  0  0  0  0  0  0
  190.3820  178.0390  144.1180 N   0  0  0  0  0  2  0  0  0  0  0  0
  190.6280  177.2920  145.3220 C   0  0  0  0  0  0  0  0  0  0  0  0
  191.2720  176.2050  145.3010 O   0  0  0  0  0  0  0  0  0  0  0  0
  190.1410  177.8210  146.6280 C   0  0  0  0  0  2  0  0  0  0  0  0
  188.6760  177.5790  146.8130 C   0  0  0  0  0  0  0  0  0  0  0  0
  188.2990  176.5950  147.5040 O   0  0  0  0  0  0  0  0  0  0  0  0
  187.7150  178.4800  146.2550 N   0  0  0  0  0  2  0  0  0  0  0  0
  186.2820  178.3030  146.4360 C   0  0  1  0  0  3  0  0  0  0  0  0
  185.6830  179.5370  146.7020 O   0  0  0  0  0  1  0  0  0  0  0  0
  186.7280  178.7880  141.8490 C   0  0  0  0  0  1  0  0  0  0  0  0
  186.5810  177.7470  144.0520 N   0  0  0  0  0  0  0  0  0  0  0  0
  185.6660  177.6610  145.1950 C   0  0  2  0  0  3  0  0  0  0  0  0
  184.0610  178.4450  144.8270 S   0  0  0  0  0  0  0  0  0  0  0  0
  185.8190  178.1060  142.8600 C   0  0  1  0  0  3  0  0  0  0  0  0
  183.5920  179.0010  142.2100 C   0  0  0  0  0  1  0  0  0  0  0  0
  187.1120  176.4100  143.8360 C   0  0  0  0  0  1  0  0  0  0  0  0
  184.6960  179.0350  143.2500 C   0  0  1  0  0  3  0  0  0  0  0  0
  1 28  1  0  0  0  0
  2  4  1  0  0  0  0
  3  2  2  0  0  0  0
  3  5  1  0  0  0  0
  4  1  2  0  0  0  0
  5  6  2  0  0  0  0
  6  1  1  0  0  0  0
  7 18  1  0  0  0  0
  7  9  1  0  0  0  0
  8  7  2  0  0  0  0
  9  3  1  0  0  0  0
 11 10  2  0  0  0  0
 12 10  1  0  0  0  0
 12  8  1  0  0  0  0
 13 11  1  0  0  0  0
 14 13  2  0  0  0  0
 14 15  1  0  0  0  0
 15 12  2  0  0  0  0
 16 14  1  0  0  0  0
 17 16  1  0  0  0  0
 19 18  1  1  0  0  0
 19 27  1  0  0  0  0
 21 20  1  0  0  0  0
 22 24  1  0  0  0  0
 22 19  1  0  0  0  0
 23 24  2  0  0  0  0
 23 25  1  0  0  0  0
 24 26  1  0  0  0  0
 25 21  2  0  0  0  0
 26 27  1  0  0  0  0
 26 20  2  0  0  0  0
 28 29  1  0  0  0  0
 29 31  1  0  0  0  0
 30 29  2  0  0  0  0
 31 32  1  0  0  0  0
 32 33  2  0  0  0  0
 34 35  1  0  0  0  0
 34 32  1  0  0  0  0
 35 36  1  6  0  0  0
 38 39  1  0  0  0  0
 39 35  1  1  0  0  0
 40 39  1  0  0  0  0
 41 37  1  6  0  0  0
 41 44  1  0  0  0  0
 41 38  1  0  0  0  0
 43 38  1  0  0  0  0
 44 42  1  6  0  0  0
 44 40  1  0  0  0  0
M  END
>  <MODEL>
6

>  <REMARK>
 VINA RESULT:      -8.5      2.624     10.210
  Name = 
  10 active torsions:
  status: ('A' for Active; 'I' for Inactive)
    1  A    between atoms: C_2  and  C_13
    2  A    between atoms: C_2  and  N_26
    3  A    between atoms: C_3  and  N_32
    4  A    between atoms: C_4  and  C_36
    5  A    between atoms: C_11  and  C_12
    6  A    between atoms: C_11  and  C_41
    7  A    between atoms: C_17  and  C_36
    8  A    between atoms: C_18  and  N_29
    9  A    between atoms: N_20  and  C_23
   10  A    between atoms: C_37  and  O_40
                            x       y       z     vdW  Elec       q    Type
                         _______ _______ _______ _____ _____    ______ ____

>  <TORSDO>
F 10

$$$$
=
 OpenBabel10232407563D

 44 48  0  0  1  0  0  0  0  0999 V2000
  184.6340  178.5590  141.1890 C   0  0  0  0  0  0  0  0  0  0  0  0
  187.0620  178.5260  141.2720 C   0  0  0  0  0  3  0  0  0  0  0  0
  187.0220  178.0330  142.5830 C   0  0  0  0  0  0  0  0  0  0  0  0
  185.8780  178.7890  140.5810 C   0  0  0  0  0  3  0  0  0  0  0  0
  185.7820  177.7990  143.1870 C   0  0  0  0  0  3  0  0  0  0  0  0
  184.5940  178.0650  142.4970 C   0  0  0  0  0  3  0  0  0  0  0  0
  189.3680  176.9870  142.8690 C   0  0  0  0  0  0  0  0  0  0  0  0
  190.3170  176.6530  143.6960 N   0  0  0  0  0  0  0  0  0  0  0  0
  188.2150  177.7200  143.3160 N   0  0  0  0  0  2  0  0  0  0  0  0
  191.5550  176.5240  145.7930 C   0  0  0  0  0  3  0  0  0  0  0  0
  191.6630  176.7130  147.1740 C   0  0  0  0  0  3  0  0  0  0  0  0
  190.3820  176.8760  145.1170 C   0  0  0  0  0  0  0  0  0  0  0  0
  190.5940  177.2550  147.8910 C   0  0  0  0  0  3  0  0  0  0  0  0
  189.4100  177.6080  147.2360 C   0  0  0  0  0  0  0  0  0  0  0  0
  189.3110  177.4140  145.8490 C   0  0  0  0  0  3  0  0  0  0  0  0
  188.3570  178.1490  147.9750 O   0  0  0  0  0  0  0  0  0  0  0  0
  187.0260  178.2010  147.4820 C   0  0  0  0  0  1  0  0  0  0  0  0
  189.5470  176.6340  141.4280 C   0  0  0  0  0  2  0  0  0  0  0  0
  190.2730  177.7450  140.6830 C   0  0  1  0  0  3  0  0  0  0  0  0
  190.1310  176.8740  137.0310 C   0  0  0  0  0  3  0  0  0  0  0  0
  191.0180  176.1480  136.2260 C   0  0  0  0  0  3  0  0  0  0  0  0
  192.0440  177.2880  140.5140 S   0  0  0  0  0  0  0  0  0  0  0  0
  192.6280  176.0760  138.0490 C   0  0  0  0  0  3  0  0  0  0  0  0
  191.7350  176.8090  138.8340 C   0  0  0  0  0  0  0  0  0  0  0  0
  192.2640  175.7470  136.7360 C   0  0  0  0  0  3  0  0  0  0  0  0
  190.5050  177.1920  138.3390 C   0  0  0  0  0  0  0  0  0  0  0  0
  189.6560  177.9390  139.2920 C   0  0  0  0  0  2  0  0  0  0  0  0
  183.4000  178.8150  140.5070 N   0  0  0  0  0  2  0  0  0  0  0  0
  183.2120  179.6920  139.3830 C   0  0  0  0  0  0  0  0  0  0  0  0
  184.1860  180.2920  138.8480 O   0  0  0  0  0  0  0  0  0  0  0  0
  181.8450  179.8800  138.8170 C   0  0  0  0  0  2  0  0  0  0  0  0
  181.3840  178.6700  138.0680 C   0  0  0  0  0  0  0  0  0  0  0  0
  180.2240  178.2230  138.2760 O   0  0  0  0  0  0  0  0  0  0  0  0
  182.2290  178.0560  137.0890 N   0  0  0  0  0  2  0  0  0  0  0  0
  181.8110  176.8980  136.3120 C   0  0  1  0  0  3  0  0  0  0  0  0
  180.9640  177.3040  135.2780 O   0  0  0  0  0  1  0  0  0  0  0  0
  184.5660  173.4470  137.7170 C   0  0  0  0  0  1  0  0  0  0  0  0
  183.1150  174.8050  136.2990 N   0  0  0  0  0  0  0  0  0  0  0  0
  183.0300  176.1650  135.7560 C   0  0  2  0  0  3  0  0  0  0  0  0
  184.5400  177.1230  136.1100 S   0  0  0  0  0  0  0  0  0  0  0  0
  184.5060  174.5160  136.6370 C   0  0  1  0  0  3  0  0  0  0  0  0
  186.6760  175.6830  136.9710 C   0  0  0  0  0  1  0  0  0  0  0  0
  182.7370  173.8980  135.2270 C   0  0  0  0  0  1  0  0  0  0  0  0
  185.1700  175.7780  137.1280 C   0  0  1  0  0  3  0  0  0  0  0  0
  1  6  1  0  0  0  0
  2  3  2  0  0  0  0
  3  5  1  0  0  0  0
  3  9  1  0  0  0  0
  4  1  2  0  0  0  0
  4  2  1  0  0  0  0
  6  5  2  0  0  0  0
  7  9  1  0  0  0  0
  7  8  2  0  0  0  0
  8 12  1  0  0  0  0
 10 11  1  0  0  0  0
 11 13  2  0  0  0  0
 12 10  2  0  0  0  0
 12 15  1  0  0  0  0
 14 13  1  0  0  0  0
 14 16  1  0  0  0  0
 15 14  2  0  0  0  0
 17 16  1  0  0  0  0
 18  7  1  0  0  0  0
 19 18  1  6  0  0  0
 20 26  1  0  0  0  0
 21 25  1  0  0  0  0
 21 20  2  0  0  0  0
 22 19  1  0  0  0  0
 23 24  1  0  0  0  0
 24 22  1  0  0  0  0
 25 23  2  0  0  0  0
 26 24  2  0  0  0  0
 26 27  1  0  0  0  0
 27 19  1  0  0  0  0
 28  1  1  0  0  0  0
 29 28  1  0  0  0  0
 30 29  2  0  0  0  0
 31 29  1  0  0  0  0
 32 33  2  0  0  0  0
 32 31  1  0  0  0  0
 34 32  1  0  0  0  0
 35 36  1  6  0  0  0
 35 34  1  0  0  0  0
 38 41  1  0  0  0  0
 39 40  1  0  0  0  0
 39 38  1  0  0  0  0
 39 35  1  1  0  0  0
 40 44  1  0  0  0  0
 41 44  1  0  0  0  0
 41 37  1  1  0  0  0
 43 38  1  0  0  0  0
 44 42  1  6  0  0  0
M  END
>  <MODEL>
7

>  <REMARK>
 VINA RESULT:      -8.4      4.283      8.591
  Name = 
  10 active torsions:
  status: ('A' for Active; 'I' for Inactive)
    1  A    between atoms: C_2  and  C_13
    2  A    between atoms: C_2  and  N_26
    3  A    between atoms: C_3  and  N_32
    4  A    between atoms: C_4  and  C_36
    5  A    between atoms: C_11  and  C_12
    6  A    between atoms: C_11  and  C_41
    7  A    between atoms: C_17  and  C_36
    8  A    between atoms: C_18  and  N_29
    9  A    between atoms: N_20  and  C_23
   10  A    between atoms: C_37  and  O_40
                            x       y       z     vdW  Elec       q    Type
                         _______ _______ _______ _____ _____    ______ ____

>  <TORSDO>
F 10

$$$$
=
 OpenBabel10232407563D

 44 48  0  0  1  0  0  0  0  0999 V2000
  190.4790  176.5710  137.7330 C   0  0  0  0  0  0  0  0  0  0  0  0
  189.3650  178.2520  139.0870 C   0  0  0  0  0  3  0  0  0  0  0  0
  188.1210  177.6800  138.7950 C   0  0  0  0  0  0  0  0  0  0  0  0
  190.5360  177.7040  138.5590 C   0  0  0  0  0  3  0  0  0  0  0  0
  188.0650  176.5470  137.9750 C   0  0  0  0  0  3  0  0  0  0  0  0
  189.2370  175.9980  137.4420 C   0  0  0  0  0  3  0  0  0  0  0  0
  186.6200  178.5680  140.7030 C   0  0  0  0  0  0  0  0  0  0  0  0
  185.4150  178.8800  141.0830 N   0  0  0  0  0  0  0  0  0  0  0  0
  186.8980  178.1930  139.3430 N   0  0  0  0  0  2  0  0  0  0  0  0
  183.9710  179.9110  139.4090 C   0  0  0  0  0  3  0  0  0  0  0  0
  182.8050  179.9450  138.6400 C   0  0  0  0  0  3  0  0  0  0  0  0
  184.2010  178.8640  140.3070 C   0  0  0  0  0  0  0  0  0  0  0  0
  181.8550  178.9280  138.7660 C   0  0  0  0  0  3  0  0  0  0  0  0
  182.0630  177.8750  139.6620 C   0  0  0  0  0  0  0  0  0  0  0  0
  183.2370  177.8500  140.4310 C   0  0  0  0  0  3  0  0  0  0  0  0
  181.0990  176.8710  139.7690 O   0  0  0  0  0  0  0  0  0  0  0  0
  181.3230  175.5450  139.3110 C   0  0  0  0  0  1  0  0  0  0  0  0
  187.7150  178.6690  141.7140 C   0  0  0  0  0  2  0  0  0  0  0  0
  188.0560  177.2990  142.2840 C   0  0  1  0  0  3  0  0  0  0  0  0
  187.1810  177.3970  145.9370 C   0  0  0  0  0  3  0  0  0  0  0  0
  187.9520  177.7350  147.0560 C   0  0  0  0  0  3  0  0  0  0  0  0
  189.7830  177.3280  142.9070 S   0  0  0  0  0  0  0  0  0  0  0  0
  189.9430  177.8470  145.6620 C   0  0  0  0  0  3  0  0  0  0  0  0
  189.1610  177.4990  144.5580 C   0  0  0  0  0  0  0  0  0  0  0  0
  189.3320  177.9620  146.9180 C   0  0  0  0  0  3  0  0  0  0  0  0
  187.8040  177.2880  144.6900 C   0  0  0  0  0  0  0  0  0  0  0  0
  187.1000  176.9530  143.4330 C   0  0  0  0  0  2  0  0  0  0  0  0
  191.6610  175.9810  137.1770 N   0  0  0  0  0  2  0  0  0  0  0  0
  191.9420  175.7850  135.7800 C   0  0  0  0  0  0  0  0  0  0  0  0
  191.1480  176.1950  134.8870 O   0  0  0  0  0  0  0  0  0  0  0  0
  193.2080  175.1100  135.3720 C   0  0  0  0  0  2  0  0  0  0  0  0
  194.3620  175.5350  136.2220 C   0  0  0  0  0  0  0  0  0  0  0  0
  194.7100  176.7470  136.2240 O   0  0  0  0  0  0  0  0  0  0  0  0
  195.0330  174.5900  137.0620 N   0  0  0  0  0  2  0  0  0  0  0  0
  196.1400  174.9650  137.9300 C   0  0  1  0  0  3  0  0  0  0  0  0
  195.6980  175.0410  139.2530 O   0  0  0  0  0  1  0  0  0  0  0  0
  200.0720  174.6640  135.4950 C   0  0  0  0  0  1  0  0  0  0  0  0
  198.5190  174.6220  137.3790 N   0  0  0  0  0  0  0  0  0  0  0  0
  197.2810  173.9580  137.7980 C   0  0  2  0  0  3  0  0  0  0  0  0
  196.8040  172.6340  136.6380 S   0  0  0  0  0  0  0  0  0  0  0  0
  199.1820  173.7970  136.3730 C   0  0  1  0  0  3  0  0  0  0  0  0
  198.7170  171.8750  134.8660 C   0  0  0  0  0  1  0  0  0  0  0  0
  199.3910  174.6630  138.5420 C   0  0  0  0  0  1  0  0  0  0  0  0
  198.1380  173.1110  135.5270 C   0  0  1  0  0  3  0  0  0  0  0  0
  1  4  1  0  0  0  0
  3  2  1  0  0  0  0
  3  9  1  0  0  0  0
  4  2  2  0  0  0  0
  5  3  2  0  0  0  0
  6  1  2  0  0  0  0
  6  5  1  0  0  0  0
  7  8  2  0  0  0  0
  7 18  1  0  0  0  0
  9  7  1  0  0  0  0
 10 12  1  0  0  0  0
 11 13  1  0  0  0  0
 11 10  2  0  0  0  0
 12 15  2  0  0  0  0
 12  8  1  0  0  0  0
 13 14  2  0  0  0  0
 14 16  1  0  0  0  0
 14 15  1  0  0  0  0
 17 16  1  0  0  0  0
 19 18  1  1  0  0  0
 19 22  1  0  0  0  0
 19 27  1  0  0  0  0
 20 21  1  0  0  0  0
 22 24  1  0  0  0  0
 23 25  1  0  0  0  0
 24 26  1  0  0  0  0
 24 23  2  0  0  0  0
 25 21  2  0  0  0  0
 26 20  2  0  0  0  0
 27 26  1  0  0  0  0
 28  1  1  0  0  0  0
 29 28  1  0  0  0  0
 30 29  2  0  0  0  0
 31 29  1  0  0  0  0
 31 32  1  0  0  0  0
 32 33  2  0  0  0  0
 32 34  1  0  0  0  0
 34 35  1  0  0  0  0
 35 36  1  1  0  0  0
 38 39  1  0  0  0  0
 38 43  1  0  0  0  0
 39 35  1  6  0  0  0
 40 39  1  0  0  0  0
 41 37  1  6  0  0  0
 41 38  1  0  0  0  0
 44 42  1  1  0  0  0
 44 41  1  0  0  0  0
 44 40  1  0  0  0  0
M  END
>  <MODEL>
8

>  <REMARK>
 VINA RESULT:      -8.4      2.813      6.188
  Name = 
  10 active torsions:
  status: ('A' for Active; 'I' for Inactive)
    1  A    between atoms: C_2  and  C_13
    2  A    between atoms: C_2  and  N_26
    3  A    between atoms: C_3  and  N_32
    4  A    between atoms: C_4  and  C_36
    5  A    between atoms: C_11  and  C_12
    6  A    between atoms: C_11  and  C_41
    7  A    between atoms: C_17  and  C_36
    8  A    between atoms: C_18  and  N_29
    9  A    between atoms: N_20  and  C_23
   10  A    between atoms: C_37  and  O_40
                            x       y       z     vdW  Elec       q    Type
                         _______ _______ _______ _____ _____    ______ ____

>  <TORSDO>
F 10

$$$$
=
 OpenBabel10232407563D

 44 48  0  0  1  0  0  0  0  0999 V2000
  187.3850  176.0160  137.2670 C   0  0  0  0  0  0  0  0  0  0  0  0
  184.9970  176.4590  137.3130 C   0  0  0  0  0  3  0  0  0  0  0  0
  185.2280  177.7070  137.9060 C   0  0  0  0  0  0  0  0  0  0  0  0
  186.0670  175.6190  136.9970 C   0  0  0  0  0  3  0  0  0  0  0  0
  186.5440  178.1040  138.1700 C   0  0  0  0  0  3  0  0  0  0  0  0
  187.6160  177.2630  137.8580 C   0  0  0  0  0  3  0  0  0  0  0  0
  183.4440  178.7540  139.4560 C   0  0  0  0  0  0  0  0  0  0  0  0
  182.3960  179.5210  139.5460 N   0  0  0  0  0  0  0  0  0  0  0  0
  184.1600  178.6130  138.2170 N   0  0  0  0  0  2  0  0  0  0  0  0
  181.1160  179.5840  137.4700 C   0  0  0  0  0  3  0  0  0  0  0  0
  180.4860  180.2750  136.4320 C   0  0  0  0  0  3  0  0  0  0  0  0
  181.7530  180.2790  138.5040 C   0  0  0  0  0  0  0  0  0  0  0  0
  180.4890  181.6720  136.4190 C   0  0  0  0  0  3  0  0  0  0  0  0
  181.1250  182.3860  137.4400 C   0  0  0  0  0  0  0  0  0  0  0  0
  181.7560  181.6830  138.4770 C   0  0  0  0  0  3  0  0  0  0  0  0
  181.1140  183.7810  137.4040 O   0  0  0  0  0  0  0  0  0  0  0  0
  181.0470  184.5140  136.1890 C   0  0  0  0  0  1  0  0  0  0  0  0
  183.9130  178.0710  140.7000 C   0  0  0  0  0  2  0  0  0  0  0  0
  184.6520  179.0440  141.6080 C   0  0  1  0  0  3  0  0  0  0  0  0
  188.2230  177.8860  141.7630 C   0  0  0  0  0  3  0  0  0  0  0  0
  188.8670  177.0170  142.6530 C   0  0  0  0  0  3  0  0  0  0  0  0
  184.5870  178.4150  143.3320 S   0  0  0  0  0  0  0  0  0  0  0  0
  186.8740  176.9510  144.0470 C   0  0  0  0  0  3  0  0  0  0  0  0
  186.2500  177.8270  143.1550 C   0  0  0  0  0  0  0  0  0  0  0  0
  188.1920  176.5480  143.7930 C   0  0  0  0  0  3  0  0  0  0  0  0
  186.9070  178.2770  142.0290 C   0  0  0  0  0  0  0  0  0  0  0  0
  186.1140  179.1760  141.1620 C   0  0  0  0  0  2  0  0  0  0  0  0
  188.5060  175.1800  136.9520 N   0  0  0  0  0  2  0  0  0  0  0  0
  189.5210  175.4480  135.9690 C   0  0  0  0  0  0  0  0  0  0  0  0
  189.5320  176.5280  135.3140 O   0  0  0  0  0  0  0  0  0  0  0  0
  190.6000  174.4460  135.7340 C   0  0  0  0  0  2  0  0  0  0  0  0
  191.8290  174.7590  136.5260 C   0  0  0  0  0  0  0  0  0  0  0  0
  191.9720  174.2440  137.6680 O   0  0  0  0  0  0  0  0  0  0  0  0
  192.8560  175.5910  135.9760 N   0  0  0  0  0  2  0  0  0  0  0  0
  194.0830  175.8960  136.6970 C   0  0  1  0  0  3  0  0  0  0  0  0
  193.7910  176.1650  138.0360 O   0  0  0  0  0  1  0  0  0  0  0  0
  198.0990  174.7060  138.6810 C   0  0  0  0  0  1  0  0  0  0  0  0
  195.8150  174.5550  137.8320 N   0  0  0  0  0  0  0  0  0  0  0  0
  195.0680  174.7330  136.5820 C   0  0  2  0  0  3  0  0  0  0  0  0
  196.1850  175.0080  135.1670 S   0  0  0  0  0  0  0  0  0  0  0  0
  197.2160  174.2940  137.5130 C   0  0  1  0  0  3  0  0  0  0  0  0
  198.8060  174.4480  135.6080 C   0  0  0  0  0  1  0  0  0  0  0  0
  195.2900  173.3590  138.4710 C   0  0  0  0  0  1  0  0  0  0  0  0
  197.5980  175.0740  136.2800 C   0  0  1  0  0  3  0  0  0  0  0  0
  1  6  1  0  0  0  0
  2  3  2  0  0  0  0
  3  5  1  0  0  0  0
  3  9  1  0  0  0  0
  4  1  2  0  0  0  0
  4  2  1  0  0  0  0
  6  5  2  0  0  0  0
  7  8  2  0  0  0  0
  7 18  1  0  0  0  0
  9  7  1  0  0  0  0
 10 12  1  0  0  0  0
 11 10  2  0  0  0  0
 12  8  1  0  0  0  0
 13 11  1  0  0  0  0
 13 14  2  0  0  0  0
 14 15  1  0  0  0  0
 15 12  2  0  0  0  0
 16 14  1  0  0  0  0
 17 16  1  0  0  0  0
 19 18  1  6  0  0  0
 19 22  1  0  0  0  0
 20 26  2  0  0  0  0
 20 21  1  0  0  0  0
 21 25  2  0  0  0  0
 24 22  1  0  0  0  0
 24 23  2  0  0  0  0
 25 23  1  0  0  0  0
 26 24  1  0  0  0  0
 27 19  1  0  0  0  0
 27 26  1  0  0  0  0
 28  1  1  0  0  0  0
 29 28  1  0  0  0  0
 30 29  2  0  0  0  0
 31 29  1  0  0  0  0
 31 32  1  0  0  0  0
 32 33  2  0  0  0  0
 34 32  1  0  0  0  0
 34 35  1  0  0  0  0
 35 36  1  1  0  0  0
 38 43  1  0  0  0  0
 39 35  1  1  0  0  0
 39 38  1  0  0  0  0
 40 44  1  0  0  0  0
 40 39  1  0  0  0  0
 41 38  1  0  0  0  0
 41 37  1  1  0  0  0
 44 42  1  6  0  0  0
 44 41  1  0  0  0  0
M  END
>  <MODEL>
9

>  <REMARK>
 VINA RESULT:      -8.4      3.773      7.233
  Name = 
  10 active torsions:
  status: ('A' for Active; 'I' for Inactive)
    1  A    between atoms: C_2  and  C_13
    2  A    between atoms: C_2  and  N_26
    3  A    between atoms: C_3  and  N_32
    4  A    between atoms: C_4  and  C_36
    5  A    between atoms: C_11  and  C_12
    6  A    between atoms: C_11  and  C_41
    7  A    between atoms: C_17  and  C_36
    8  A    between atoms: C_18  and  N_29
    9  A    between atoms: N_20  and  C_23
   10  A    between atoms: C_37  and  O_40
                            x       y       z     vdW  Elec       q    Type
                         _______ _______ _______ _____ _____    ______ ____

>  <TORSDO>
F 10

$$$$
