=
 OpenBabel10232410433D

 64 71  0  0  1  0  0  0  0  0999 V2000
  186.3200  177.6620  142.5940 C   0  0  0  0  0  0  0  0  0  0  0  0
  186.9640  176.5480  143.1100 F   0  0  0  0  0  0  0  0  0  0  0  0
  185.5760  177.2620  141.4950 F   0  0  0  0  0  0  0  0  0  0  0  0
  186.7180  179.8750  141.7140 O   0  0  0  0  0  1  0  0  0  0  0  0
  187.3510  178.6970  142.1170 C   0  0  2  0  0  3  0  0  0  0  0  0
  189.0560  177.2000  141.2060 N   0  0  0  0  0  2  0  0  0  0  0  0
  189.2520  177.9720  139.1230 C   0  0  0  0  0  0  0  0  0  0  0  0
  188.2060  178.2030  141.0420 N   0  0  0  0  0  0  0  0  0  0  0  0
  190.5830  176.1740  139.8310 O   0  0  0  0  0  0  0  0  0  0  0  0
  188.3050  178.7210  139.7950 C   0  0  0  0  0  3  0  0  0  0  0  0
  189.6990  177.0470  140.0370 C   0  0  0  0  0  0  0  0  0  0  0  0
  189.7420  178.1910  137.7330 C   0  0  0  0  0  2  0  0  0  0  0  0
  187.3640  178.5390  136.5480 C   0  0  0  0  0  1  0  0  0  0  0  0
  188.5820  177.4860  136.5500 S   0  0  2  0  0  3  0  0  0  0  0  0
  187.9390  176.1470  137.3810 O   0  0  0  0  0  0  0  0  0  0  0  0
  187.9380  175.1110  136.4440 C   0  0  0  0  0  2  0  0  0  0  0  0
  188.8390  173.9750  136.9120 C   0  0  1  0  0  3  0  0  0  0  0  0
  188.1620  172.6530  136.7210 C   0  0  0  0  0  3  0  0  0  0  0  0
  187.3290  172.2620  137.5220 O   0  0  0  0  0  0  0  0  0  0  0  0
  190.1700  174.0260  136.1680 C   0  0  0  0  0  2  0  0  0  0  0  0
  191.2480  174.1030  137.0740 O   0  0  0  0  0  0  0  0  0  0  0  0
  193.3640  175.5800  136.2320 P   0  0  2  0  0  0  0  0  0  0  0  0
  195.0260  174.9760  136.5770 C   0  0  2  0  0  3  0  0  0  0  0  0
  192.9310  176.5940  137.2670 O   0  0  0  0  0  1  0  0  0  0  0  0
  195.3470  173.9340  135.6720 O   0  0  0  0  0  0  0  0  0  0  0  0
  194.8760  173.5470  136.9400 C   0  0  2  0  0  0  0  0  0  0  0  0
  192.4740  174.0100  136.3730 C   0  0  1  0  0  3  0  0  0  0  0  0
  193.4530  172.9620  136.9140 C   0  0  0  0  0  2  0  0  0  0  0  0
  193.2470  176.2210  134.6720 O   0  0  0  0  0  0  0  0  0  0  0  0
  195.9660  172.9440  137.8140 C   0  0  1  0  0  3  0  0  0  0  0  0
  195.6150  173.0660  139.1590 O   0  0  0  0  0  1  0  0  0  0  0  0
  196.1710  171.4800  137.4750 C   0  0  0  0  0  1  0  0  0  0  0  0
  185.3710  178.2670  143.6400 C   0  0  1  0  0  3  0  0  0  0  0  0
  183.3930  179.3910  139.9140 C   0  0  0  0  0  0  0  0  0  0  0  0
  183.9740  178.1560  143.2100 N   0  0  0  0  0  2  0  0  0  0  0  0
  183.4630  178.6100  141.9520 C   0  0  0  0  0  0  0  0  0  0  0  0
  181.9560  179.1100  140.1900 C   0  0  2  0  0  3  0  0  0  0  0  0
  184.2180  179.0900  141.0220 N   0  0  0  0  0  0  0  0  0  0  0  0
  182.0130  178.5280  141.6020 C   0  0  0  0  0  2  0  0  0  0  0  0
  183.8200  180.1280  138.8980 C   0  0  0  0  0  2  0  0  0  0  0  0
  181.4140  178.0460  139.2430 C   0  0  0  0  0  2  0  0  0  0  0  0
  182.5300  174.9500  137.6530 O   0  0  0  0  0  0  0  0  0  0  0  0
  183.0790  177.2390  137.4780 C   0  0  1  0  0  3  0  0  0  0  0  0
  182.0870  177.6700  136.5850 O   0  0  0  0  0  1  0  0  0  0  0  0
  182.4950  177.0260  138.8550 C   0  0  2  0  0  3  0  0  0  0  0  0
  183.6960  175.6020  135.6520 C   0  0  0  0  0  1  0  0  0  0  0  0
  182.0680  175.5450  138.8490 C   0  0  1  0  0  3  0  0  0  0  0  0
  183.5020  175.8240  137.1430 C   0  0  2  0  0  3  0  0  0  0  0  0
  180.2940  174.8280  140.3060 O   0  0  0  0  0  1  0  0  0  0  0  0
  180.5580  175.3150  139.0190 C   0  0  2  0  0  3  0  0  0  0  0  0
  180.0750  174.9190  136.6920 O   0  0  0  0  0  1  0  0  0  0  0  0
  179.9850  174.3570  137.9690 C   0  0  1  0  0  3  0  0  0  0  0  0
  180.7150  173.0550  137.9920 C   0  0  0  0  0  3  0  0  0  0  0  0
  180.1900  172.0480  137.5410 O   0  0  0  0  0  0  0  0  0  0  0  0
  185.5520  177.6620  144.8960 O   0  0  0  0  0  0  0  0  0  0  0  0
  187.8400  177.9890  145.8400 C   0  0  0  0  0  0  0  0  0  0  0  0
  186.1570  178.2240  147.0280 C   0  0  2  0  0  3  0  0  0  0  0  0
  188.4890  177.4600  148.1330 N   0  0  0  0  0  0  0  0  0  0  0  0
  186.4480  178.4700  145.6110 C   0  0  2  0  0  0  0  0  0  0  0  0
  189.7400  177.1670  147.6380 C   0  0  0  0  0  3  0  0  0  0  0  0
  185.9240  179.6010  146.4690 C   0  0  0  0  0  2  0  0  0  0  0  0
  187.5910  177.8660  147.2190 C   0  0  0  0  0  0  0  0  0  0  0  0
  189.0820  177.7160  145.2980 C   0  0  0  0  0  3  0  0  0  0  0  0
  190.0510  177.2880  146.2430 C   0  0  0  0  0  3  0  0  0  0  0  0
  1  2  1  0  0  0  0
  1 33  1  0  0  0  0
  3  1  1  0  0  0  0
  5  4  1  6  0  0  0
  5  1  1  0  0  0  0
  7 10  2  0  0  0  0
  7 11  1  0  0  0  0
  8  6  1  0  0  0  0
  8  5  1  0  0  0  0
  9 11  2  0  0  0  0
 10  8  1  0  0  0  0
 11  6  1  0  0  0  0
 12  7  1  0  0  0  0
 14 13  1  1  0  0  0
 14 15  1  0  0  0  0
 14 12  1  0  0  0  0
 16 17  1  0  0  0  0
 16 15  1  0  0  0  0
 17 20  1  6  0  0  0
 18 17  1  0  0  0  0
 18 19  2  0  0  0  0
 20 21  1  0  0  0  0
 22 29  2  6  0  0  0
 22 27  1  0  0  0  0
 22 23  1  0  0  0  0
 22 24  1  0  0  0  0
 23 25  1  6  0  0  0
 23 26  1  0  0  0  0
 25 26  1  0  0  0  0
 26 30  1  1  0  0  0
 27 28  1  0  0  0  0
 27 21  1  1  0  0  0
 28 26  1  0  0  0  0
 30 32  1  6  0  0  0
 30 31  1  0  0  0  0
 33 35  1  6  0  0  0
 33 55  1  0  0  0  0
 34 37  1  0  0  0  0
 34 38  1  0  0  0  0
 36 35  1  0  0  0  0
 37 41  1  6  0  0  0
 37 39  1  0  0  0  0
 38 36  2  0  0  0  0
 39 36  1  0  0  0  0
 40 34  2  0  0  0  0
 42 47  1  0  0  0  0
 43 44  1  6  0  0  0
 43 45  1  0  0  0  0
 45 41  1  6  0  0  0
 47 45  1  0  0  0  0
 47 50  1  6  0  0  0
 48 46  1  6  0  0  0
 48 43  1  0  0  0  0
 48 42  1  0  0  0  0
 50 49  1  1  0  0  0
 52 51  1  6  0  0  0
 52 53  1  0  0  0  0
 52 50  1  0  0  0  0
 54 53  2  0  0  0  0
 56 62  1  0  0  0  0
 57 61  1  1  0  0  0
 57 62  1  0  0  0  0
 59 55  1  6  0  0  0
 59 56  1  0  0  0  0
 59 61  1  0  0  0  0
 59 57  1  0  0  0  0
 60 58  1  0  0  0  0
 62 58  2  0  0  0  0
 63 56  2  0  0  0  0
 63 64  1  0  0  0  0
 64 60  2  0  0  0  0
M  END
>  <MODEL>
1

>  <REMARK>
 VINA RESULT:      -6.8      0.000      0.000
  Name = 
  21 active torsions:
  status: ('A' for Active; 'I' for Inactive)
    1  A    between atoms: C_4  and  C_35
    2  A    between atoms: O_6  and  C_28
    3  A    between atoms: O_6  and  C_30
    4  A    between atoms: C_7  and  C_9
    5  A    between atoms: C_7  and  N_20
    6  A    between atoms: C_9  and  C_28
    7  A    between atoms: C_11  and  C_17
    8  A    between atoms: C_11  and  S_36
    9  A    between atoms: C_13  and  O_16
   10  A    between atoms: C_13  and  C_56
   11  A    between atoms: N_15  and  C_28
   12  A    between atoms: O_16  and  S_36
   13  A    between atoms: C_23  and  C_42
   14  A    between atoms: C_25  and  C_56
   15  A    between atoms: C_27  and  C_34
   16  A    between atoms: C_33  and  C_34
   17  A    between atoms: C_42  and  C_49
   18  A    between atoms: O_43  and  C_44
   19  A    between atoms: O_43  and  C_47
   20  A    between atoms: C_47  and  C_56
   21  A    between atoms: C_48  and  C_49
                            x       y       z     vdW  Elec       q    Type
                         _______ _______ _______ _____ _____    ______ ____

>  <TORSDO>
F 21

$$$$
=
 OpenBabel10232410433D

 64 71  0  0  1  0  0  0  0  0999 V2000
  192.9530  176.8990  139.3210 C   0  0  0  0  0  0  0  0  0  0  0  0
  193.1960  178.2480  139.5300 F   0  0  0  0  0  0  0  0  0  0  0  0
  193.4380  176.1970  140.4140 F   0  0  0  0  0  0  0  0  0  0  0  0
  193.9130  177.4650  137.1780 O   0  0  0  0  0  1  0  0  0  0  0  0
  193.7070  176.4120  138.0720 C   0  0  2  0  0  3  0  0  0  0  0  0
  193.4790  174.0610  137.4370 N   0  0  0  0  0  2  0  0  0  0  0  0
  191.6760  174.1330  136.1270 C   0  0  0  0  0  0  0  0  0  0  0  0
  193.0360  175.3090  137.3910 N   0  0  0  0  0  0  0  0  0  0  0  0
  192.7750  172.0910  136.4910 O   0  0  0  0  0  0  0  0  0  0  0  0
  191.9510  175.4070  136.5860 C   0  0  0  0  0  3  0  0  0  0  0  0
  192.6530  173.3320  136.6710 C   0  0  0  0  0  0  0  0  0  0  0  0
  190.6020  173.7400  135.1720 C   0  0  0  0  0  2  0  0  0  0  0  0
  188.8630  171.7020  135.2440 C   0  0  0  0  0  1  0  0  0  0  0  0
  189.2030  173.0420  136.0680 S   0  0  2  0  0  3  0  0  0  0  0  0
  187.9190  174.0850  135.6640 O   0  0  0  0  0  0  0  0  0  0  0  0
  186.8310  173.2400  135.4320 C   0  0  0  0  0  2  0  0  0  0  0  0
  185.5730  173.8100  136.0730 C   0  0  1  0  0  3  0  0  0  0  0  0
  185.2360  173.0650  137.3270 C   0  0  0  0  0  3  0  0  0  0  0  0
  184.5280  172.0720  137.2880 O   0  0  0  0  0  0  0  0  0  0  0  0
  185.7560  175.2990  136.3480 C   0  0  0  0  0  2  0  0  0  0  0  0
  184.9720  175.7070  137.4470 O   0  0  0  0  0  0  0  0  0  0  0  0
  182.2990  175.9090  137.0170 P   0  0  2  0  0  0  0  0  0  0  0  0
  181.4210  177.3200  137.7120 C   0  0  2  0  0  3  0  0  0  0  0  0
  182.1720  174.6980  137.9140 O   0  0  0  0  0  1  0  0  0  0  0  0
  181.6720  178.4680  136.9200 O   0  0  0  0  0  0  0  0  0  0  0  0
  182.4600  178.3120  138.0750 C   0  0  2  0  0  0  0  0  0  0  0  0
  183.9700  176.6080  137.0150 C   0  0  1  0  0  3  0  0  0  0  0  0
  183.9230  177.9380  137.7730 C   0  0  0  0  0  2  0  0  0  0  0  0
  181.7720  175.5580  135.4500 O   0  0  0  0  0  0  0  0  0  0  0  0
  182.1060  179.3070  139.1700 C   0  0  1  0  0  3  0  0  0  0  0  0
  182.7580  178.9600  140.3530 O   0  0  0  0  0  1  0  0  0  0  0  0
  182.5080  180.7120  138.7630 C   0  0  0  0  0  1  0  0  0  0  0  0
  191.4450  176.6370  139.1940 C   0  0  1  0  0  3  0  0  0  0  0  0
  190.6680  178.0100  143.2660 C   0  0  0  0  0  0  0  0  0  0  0  0
  190.9310  175.9360  140.3740 N   0  0  0  0  0  2  0  0  0  0  0  0
  190.7640  176.5210  141.6700 C   0  0  0  0  0  0  0  0  0  0  0  0
  190.2680  176.7640  143.9770 C   0  0  2  0  0  3  0  0  0  0  0  0
  190.9710  177.7730  141.9040 N   0  0  0  0  0  0  0  0  0  0  0  0
  190.2980  175.7320  142.8500 C   0  0  0  0  0  2  0  0  0  0  0  0
  191.0160  179.1320  143.8790 C   0  0  0  0  0  2  0  0  0  0  0  0
  188.8420  176.8690  144.5060 C   0  0  0  0  0  2  0  0  0  0  0  0
  187.0690  178.5680  147.2140 O   0  0  0  0  0  0  0  0  0  0  0  0
  189.1890  177.5660  146.9420 C   0  0  1  0  0  3  0  0  0  0  0  0
  188.8700  176.2250  147.1970 O   0  0  0  0  0  1  0  0  0  0  0  0
  188.7090  177.9710  145.5680 C   0  0  2  0  0  3  0  0  0  0  0  0
  188.2310  177.9980  149.2420 C   0  0  0  0  0  1  0  0  0  0  0  0
  187.2880  178.5130  145.8190 C   0  0  1  0  0  3  0  0  0  0  0  0
  188.3390  178.4760  147.8040 C   0  0  2  0  0  3  0  0  0  0  0  0
  186.7130  176.5980  144.4820 O   0  0  0  0  0  1  0  0  0  0  0  0
  186.1700  177.7180  145.1260 C   0  0  2  0  0  3  0  0  0  0  0  0
  185.3270  177.9330  142.8800 O   0  0  0  0  0  1  0  0  0  0  0  0
  185.3770  178.5640  144.1260 C   0  0  1  0  0  3  0  0  0  0  0  0
  183.9870  178.7970  144.6200 C   0  0  0  0  0  3  0  0  0  0  0  0
  183.7940  179.1100  145.7850 O   0  0  0  0  0  0  0  0  0  0  0  0
  190.7400  177.8350  138.9850 O   0  0  0  0  0  0  0  0  0  0  0  0
  188.9890  177.5290  137.2320 C   0  0  0  0  0  0  0  0  0  0  0  0
  188.6150  178.6780  138.9170 C   0  0  2  0  0  3  0  0  0  0  0  0
  187.3280  179.2080  136.6140 N   0  0  0  0  0  0  0  0  0  0  0  0
  189.4230  177.4810  138.6570 C   0  0  2  0  0  0  0  0  0  0  0  0
  187.3810  178.6920  135.3390 C   0  0  0  0  0  3  0  0  0  0  0  0
  188.3620  177.4410  139.7350 C   0  0  0  0  0  2  0  0  0  0  0  0
  188.1260  178.6040  137.5130 C   0  0  0  0  0  0  0  0  0  0  0  0
  189.0690  176.9710  135.9700 C   0  0  0  0  0  3  0  0  0  0  0  0
  188.2350  177.5890  135.0030 C   0  0  0  0  0  3  0  0  0  0  0  0
  1  2  1  0  0  0  0
  1  3  1  0  0  0  0
  5  4  1  6  0  0  0
  5  1  1  0  0  0  0
  7 10  2  0  0  0  0
  7 11  1  0  0  0  0
  8  6  1  0  0  0  0
  8  5  1  0  0  0  0
  9 11  2  0  0  0  0
 10  8  1  0  0  0  0
 11  6  1  0  0  0  0
 12 14  1  0  0  0  0
 12  7  1  0  0  0  0
 14 13  1  6  0  0  0
 15 14  1  0  0  0  0
 16 15  1  0  0  0  0
 17 16  1  1  0  0  0
 17 20  1  0  0  0  0
 17 18  1  0  0  0  0
 19 18  2  0  0  0  0
 20 21  1  0  0  0  0
 22 29  2  6  0  0  0
 22 23  1  0  0  0  0
 22 24  1  0  0  0  0
 23 25  1  6  0  0  0
 23 26  1  0  0  0  0
 25 26  1  0  0  0  0
 26 30  1  1  0  0  0
 27 22  1  0  0  0  0
 27 21  1  1  0  0  0
 27 28  1  0  0  0  0
 28 26  1  0  0  0  0
 30 32  1  6  0  0  0
 30 31  1  0  0  0  0
 33 55  1  1  0  0  0
 33  1  1  0  0  0  0
 33 35  1  0  0  0  0
 34 40  2  0  0  0  0
 34 37  1  0  0  0  0
 35 36  1  0  0  0  0
 36 38  2  0  0  0  0
 36 39  1  0  0  0  0
 37 41  1  6  0  0  0
 38 34  1  0  0  0  0
 39 37  1  0  0  0  0
 42 48  1  0  0  0  0
 43 44  1  1  0  0  0
 43 48  1  0  0  0  0
 45 41  1  6  0  0  0
 45 47  1  0  0  0  0
 45 43  1  0  0  0  0
 47 50  1  6  0  0  0
 47 42  1  0  0  0  0
 48 46  1  1  0  0  0
 50 49  1  6  0  0  0
 52 51  1  6  0  0  0
 52 53  1  0  0  0  0
 52 50  1  0  0  0  0
 53 54  2  0  0  0  0
 56 62  1  0  0  0  0
 56 59  1  0  0  0  0
 57 61  1  1  0  0  0
 58 62  2  0  0  0  0
 59 57  1  0  0  0  0
 59 55  1  1  0  0  0
 59 61  1  0  0  0  0
 60 58  1  0  0  0  0
 62 57  1  0  0  0  0
 63 56  2  0  0  0  0
 64 60  2  0  0  0  0
 64 63  1  0  0  0  0
M  END
>  <MODEL>
2

>  <REMARK>
 VINA RESULT:      -6.6      3.182      9.355
  Name = 
  21 active torsions:
  status: ('A' for Active; 'I' for Inactive)
    1  A    between atoms: C_4  and  C_35
    2  A    between atoms: O_6  and  C_28
    3  A    between atoms: O_6  and  C_30
    4  A    between atoms: C_7  and  C_9
    5  A    between atoms: C_7  and  N_20
    6  A    between atoms: C_9  and  C_28
    7  A    between atoms: C_11  and  C_17
    8  A    between atoms: C_11  and  S_36
    9  A    between atoms: C_13  and  O_16
   10  A    between atoms: C_13  and  C_56
   11  A    between atoms: N_15  and  C_28
   12  A    between atoms: O_16  and  S_36
   13  A    between atoms: C_23  and  C_42
   14  A    between atoms: C_25  and  C_56
   15  A    between atoms: C_27  and  C_34
   16  A    between atoms: C_33  and  C_34
   17  A    between atoms: C_42  and  C_49
   18  A    between atoms: O_43  and  C_44
   19  A    between atoms: O_43  and  C_47
   20  A    between atoms: C_47  and  C_56
   21  A    between atoms: C_48  and  C_49
                            x       y       z     vdW  Elec       q    Type
                         _______ _______ _______ _____ _____    ______ ____

>  <TORSDO>
F 21

$$$$
=
 OpenBabel10232410433D

 64 71  0  0  1  0  0  0  0  0999 V2000
  188.9460  177.9250  139.8200 C   0  0  0  0  0  0  0  0  0  0  0  0
  187.6950  177.3310  139.8910 F   0  0  0  0  0  0  0  0  0  0  0  0
  188.8950  179.1280  140.5070 F   0  0  0  0  0  0  0  0  0  0  0  0
  189.0190  179.5590  138.0440 O   0  0  0  0  0  1  0  0  0  0  0  0
  189.3070  178.2290  138.3570 C   0  0  2  0  0  3  0  0  0  0  0  0
  189.0470  177.2050  136.1510 N   0  0  0  0  0  2  0  0  0  0  0  0
  187.2260  175.9550  136.4600 C   0  0  0  0  0  0  0  0  0  0  0  0
  188.6430  177.3420  137.4060 N   0  0  0  0  0  0  0  0  0  0  0  0
  188.2750  175.9930  134.3600 O   0  0  0  0  0  0  0  0  0  0  0  0
  187.5230  176.6160  137.6360 C   0  0  0  0  0  3  0  0  0  0  0  0
  188.1890  176.3560  135.5630 C   0  0  0  0  0  0  0  0  0  0  0  0
  186.0540  175.0710  136.2030 C   0  0  0  0  0  2  0  0  0  0  0  0
  184.8340  177.3090  135.3740 C   0  0  0  0  0  1  0  0  0  0  0  0
  185.0180  175.7780  134.9100 S   0  0  2  0  0  3  0  0  0  0  0  0
  183.4900  175.0920  135.2120 O   0  0  0  0  0  0  0  0  0  0  0  0
  183.2120  175.4080  136.5440 C   0  0  0  0  0  2  0  0  0  0  0  0
  181.7070  175.4520  136.7750 C   0  0  1  0  0  3  0  0  0  0  0  0
  181.1080  174.0900  136.6070 C   0  0  0  0  0  3  0  0  0  0  0  0
  180.4820  173.8090  135.5980 O   0  0  0  0  0  0  0  0  0  0  0  0
  181.4090  176.0190  138.1600 C   0  0  0  0  0  2  0  0  0  0  0  0
  181.8010  177.3700  138.2430 O   0  0  0  0  0  0  0  0  0  0  0  0
  183.6420  179.0900  139.2570 P   0  0  2  0  0  0  0  0  0  0  0  0
  183.5260  179.5480  140.9950 C   0  0  2  0  0  3  0  0  0  0  0  0
  182.9920  180.1350  138.3770 O   0  0  0  0  0  0  0  0  0  0  0  0
  184.0200  178.4890  141.7960 O   0  0  0  0  0  0  0  0  0  0  0  0
  182.6260  178.5520  141.6230 C   0  0  2  0  0  0  0  0  0  0  0  0
  182.7000  177.5450  139.3230 C   0  0  1  0  0  3  0  0  0  0  0  0
  182.0700  177.4390  140.7160 C   0  0  0  0  0  2  0  0  0  0  0  0
  185.2440  178.8200  138.7900 O   0  0  0  0  0  1  0  0  0  0  0  0
  181.8940  178.9870  142.8830 C   0  0  1  0  0  3  0  0  0  0  0  0
  180.7240  178.2420  143.0320 O   0  0  0  0  0  1  0  0  0  0  0  0
  182.7750  178.7960  144.1030 C   0  0  0  0  0  1  0  0  0  0  0  0
  190.0050  177.0260  140.4760 C   0  0  1  0  0  3  0  0  0  0  0  0
  191.0670  174.3330  137.2080 C   0  0  0  0  0  0  0  0  0  0  0  0
  191.2080  176.9360  139.6450 N   0  0  0  0  0  2  0  0  0  0  0  0
  191.4280  175.9600  138.6200 C   0  0  0  0  0  0  0  0  0  0  0  0
  192.4720  174.7180  136.8890 C   0  0  2  0  0  3  0  0  0  0  0  0
  190.5300  175.1040  138.2660 N   0  0  0  0  0  0  0  0  0  0  0  0
  192.7070  175.8810  137.8530 C   0  0  0  0  0  2  0  0  0  0  0  0
  190.4960  173.2120  136.7930 C   0  0  0  0  0  2  0  0  0  0  0  0
  192.5870  175.2340  135.4600 C   0  0  0  0  0  2  0  0  0  0  0  0
  195.8210  173.7750  134.5780 O   0  0  0  0  0  0  0  0  0  0  0  0
  193.6900  172.9460  135.1630 C   0  0  1  0  0  3  0  0  0  0  0  0
  193.7760  172.9910  136.5620 O   0  0  0  0  0  1  0  0  0  0  0  0
  193.4880  174.3330  134.6010 C   0  0  2  0  0  3  0  0  0  0  0  0
  195.7490  171.4840  135.3080 C   0  0  0  0  0  1  0  0  0  0  0  0
  194.9210  174.8400  134.3460 C   0  0  1  0  0  3  0  0  0  0  0  0
  195.0410  172.6080  134.5700 C   0  0  2  0  0  3  0  0  0  0  0  0
  195.2470  177.2230  134.3750 O   0  0  0  0  0  1  0  0  0  0  0  0
  195.3180  176.0730  135.1730 C   0  0  2  0  0  3  0  0  0  0  0  0
  196.6830  175.1320  136.9210 O   0  0  0  0  0  1  0  0  0  0  0  0
  196.7170  175.9470  135.7860 C   0  0  1  0  0  3  0  0  0  0  0  0
  197.6760  175.3780  134.7940 C   0  0  0  0  0  3  0  0  0  0  0  0
  198.7240  175.9570  134.5500 O   0  0  0  0  0  0  0  0  0  0  0  0
  190.3270  177.4830  141.7660 O   0  0  0  0  0  0  0  0  0  0  0  0
  188.5200  177.0060  143.4210 C   0  0  0  0  0  0  0  0  0  0  0  0
  190.5140  176.7210  143.9130 C   0  0  2  0  0  3  0  0  0  0  0  0
  188.7240  177.3140  145.8340 N   0  0  0  0  0  0  0  0  0  0  0  0
  189.7410  176.5890  142.6740 C   0  0  2  0  0  0  0  0  0  0  0  0
  187.3800  177.6100  145.8400 C   0  0  0  0  0  3  0  0  0  0  0  0
  190.5330  175.4050  143.1840 C   0  0  0  0  0  2  0  0  0  0  0  0
  189.2410  177.0160  144.6280 C   0  0  0  0  0  0  0  0  0  0  0  0
  187.1670  177.2850  143.3780 C   0  0  0  0  0  3  0  0  0  0  0  0
  186.5960  177.6010  144.6380 C   0  0  0  0  0  3  0  0  0  0  0  0
  1  2  1  0  0  0  0
  1 33  1  0  0  0  0
  1  3  1  0  0  0  0
  5  4  1  6  0  0  0
  5  1  1  0  0  0  0
  6  8  1  0  0  0  0
  7 10  2  0  0  0  0
  8 10  1  0  0  0  0
  8  5  1  0  0  0  0
  9 11  2  0  0  0  0
 11  6  1  0  0  0  0
 11  7  1  0  0  0  0
 12  7  1  0  0  0  0
 14 15  1  0  0  0  0
 14 13  1  1  0  0  0
 14 12  1  0  0  0  0
 15 16  1  0  0  0  0
 17 16  1  1  0  0  0
 17 20  1  0  0  0  0
 18 17  1  0  0  0  0
 19 18  2  0  0  0  0
 20 21  1  0  0  0  0
 22 24  2  6  0  0  0
 22 27  1  0  0  0  0
 22 23  1  0  0  0  0
 23 26  1  0  0  0  0
 23 25  1  1  0  0  0
 26 25  1  0  0  0  0
 26 30  1  1  0  0  0
 27 21  1  6  0  0  0
 27 28  1  0  0  0  0
 28 26  1  0  0  0  0
 29 22  1  0  0  0  0
 30 31  1  0  0  0  0
 30 32  1  1  0  0  0
 33 35  1  6  0  0  0
 33 55  1  0  0  0  0
 34 38  1  0  0  0  0
 36 35  1  0  0  0  0
 37 41  1  6  0  0  0
 37 34  1  0  0  0  0
 37 39  1  0  0  0  0
 38 36  2  0  0  0  0
 39 36  1  0  0  0  0
 40 34  2  0  0  0  0
 43 44  1  1  0  0  0
 45 43  1  0  0  0  0
 45 41  1  1  0  0  0
 47 42  1  0  0  0  0
 47 45  1  0  0  0  0
 47 50  1  1  0  0  0
 48 42  1  0  0  0  0
 48 43  1  0  0  0  0
 48 46  1  1  0  0  0
 50 49  1  6  0  0  0
 50 52  1  0  0  0  0
 52 51  1  1  0  0  0
 53 52  1  0  0  0  0
 54 53  2  0  0  0  0
 56 62  1  0  0  0  0
 57 61  1  1  0  0  0
 57 62  1  0  0  0  0
 58 60  1  0  0  0  0
 59 55  1  6  0  0  0
 59 61  1  0  0  0  0
 59 56  1  0  0  0  0
 59 57  1  0  0  0  0
 62 58  2  0  0  0  0
 63 56  2  0  0  0  0
 63 64  1  0  0  0  0
 64 60  2  0  0  0  0
M  END
>  <MODEL>
3

>  <REMARK>
 VINA RESULT:      -6.5      2.747     10.082
  Name = 
  21 active torsions:
  status: ('A' for Active; 'I' for Inactive)
    1  A    between atoms: C_4  and  C_35
    2  A    between atoms: O_6  and  C_28
    3  A    between atoms: O_6  and  C_30
    4  A    between atoms: C_7  and  C_9
    5  A    between atoms: C_7  and  N_20
    6  A    between atoms: C_9  and  C_28
    7  A    between atoms: C_11  and  C_17
    8  A    between atoms: C_11  and  S_36
    9  A    between atoms: C_13  and  O_16
   10  A    between atoms: C_13  and  C_56
   11  A    between atoms: N_15  and  C_28
   12  A    between atoms: O_16  and  S_36
   13  A    between atoms: C_23  and  C_42
   14  A    between atoms: C_25  and  C_56
   15  A    between atoms: C_27  and  C_34
   16  A    between atoms: C_33  and  C_34
   17  A    between atoms: C_42  and  C_49
   18  A    between atoms: O_43  and  C_44
   19  A    between atoms: O_43  and  C_47
   20  A    between atoms: C_47  and  C_56
   21  A    between atoms: C_48  and  C_49
                            x       y       z     vdW  Elec       q    Type
                         _______ _______ _______ _____ _____    ______ ____

>  <TORSDO>
F 21

$$$$
=
 OpenBabel10232410433D

 64 71  0  0  1  0  0  0  0  0999 V2000
  186.3120  177.6540  142.6440 C   0  0  0  0  0  0  0  0  0  0  0  0
  186.8470  176.5290  143.2530 F   0  0  0  0  0  0  0  0  0  0  0  0
  185.7000  177.2590  141.4650 F   0  0  0  0  0  0  0  0  0  0  0  0
  186.9730  179.6000  141.3750 O   0  0  0  0  0  1  0  0  0  0  0  0
  187.4300  178.6470  142.2890 C   0  0  2  0  0  3  0  0  0  0  0  0
  189.7910  178.0210  142.4050 N   0  0  0  0  0  2  0  0  0  0  0  0
  190.0540  176.9380  140.4730 C   0  0  0  0  0  0  0  0  0  0  0  0
  188.6300  177.9990  141.7680 N   0  0  0  0  0  0  0  0  0  0  0  0
  191.8800  177.1980  141.9250 O   0  0  0  0  0  0  0  0  0  0  0  0
  188.7450  177.3690  140.5750 C   0  0  0  0  0  3  0  0  0  0  0  0
  190.6700  177.3720  141.6250 C   0  0  0  0  0  0  0  0  0  0  0  0
  190.6770  176.2360  139.3160 C   0  0  0  0  0  2  0  0  0  0  0  0
  188.6290  176.4590  137.6020 C   0  0  0  0  0  1  0  0  0  0  0  0
  190.1380  176.9920  137.7720 S   0  0  2  0  0  3  0  0  0  0  0  0
  190.9960  176.1200  136.5880 O   0  0  0  0  0  0  0  0  0  0  0  0
  192.2490  176.7350  136.5280 C   0  0  0  0  0  2  0  0  0  0  0  0
  193.3410  175.6930  136.3340 C   0  0  1  0  0  3  0  0  0  0  0  0
  194.4880  176.2670  135.5620 C   0  0  0  0  0  3  0  0  0  0  0  0
  195.1650  177.1660  136.0340 O   0  0  0  0  0  0  0  0  0  0  0  0
  193.8000  175.1590  137.6880 C   0  0  0  0  0  2  0  0  0  0  0  0
  193.5600  173.7740  137.7880 O   0  0  0  0  0  0  0  0  0  0  0  0
  195.2110  172.1070  136.4220 P   0  0  2  0  0  0  0  0  0  0  0  0
  196.9610  172.5220  136.3200 C   0  0  2  0  0  3  0  0  0  0  0  0
  194.4730  172.5660  135.1840 O   0  0  0  0  0  0  0  0  0  0  0  0
  197.5930  172.2020  137.5470 O   0  0  0  0  0  0  0  0  0  0  0  0
  197.2020  173.5410  137.3690 C   0  0  2  0  0  0  0  0  0  0  0  0
  194.7890  173.0790  137.8900 C   0  0  1  0  0  3  0  0  0  0  0  0
  196.0000  173.9500  138.2400 C   0  0  0  0  0  2  0  0  0  0  0  0
  194.9780  170.4540  136.6850 O   0  0  0  0  0  1  0  0  0  0  0  0
  198.3830  174.4770  137.1570 C   0  0  1  0  0  3  0  0  0  0  0  0
  198.3820  175.4690  138.1380 O   0  0  0  0  0  1  0  0  0  0  0  0
  199.6890  173.7080  137.2150 C   0  0  0  0  0  1  0  0  0  0  0  0
  185.2590  178.3070  143.5530 C   0  0  1  0  0  3  0  0  0  0  0  0
  183.4980  179.5240  139.7470 C   0  0  0  0  0  0  0  0  0  0  0  0
  183.9100  178.1310  143.0070 N   0  0  0  0  0  2  0  0  0  0  0  0
  183.4660  178.6270  141.7390 C   0  0  0  0  0  0  0  0  0  0  0  0
  182.0670  179.1330  139.8910 C   0  0  2  0  0  3  0  0  0  0  0  0
  184.2550  179.2100  140.9010 N   0  0  0  0  0  0  0  0  0  0  0  0
  182.0570  178.4710  141.2690 C   0  0  0  0  0  2  0  0  0  0  0  0
  183.9490  180.3470  138.8120 C   0  0  0  0  0  2  0  0  0  0  0  0
  181.6750  178.0950  138.8460 C   0  0  0  0  0  2  0  0  0  0  0  0
  182.7540  174.7800  137.7480 O   0  0  0  0  0  0  0  0  0  0  0  0
  183.5760  176.9830  137.5470 C   0  0  1  0  0  3  0  0  0  0  0  0
  182.8480  177.4240  136.4320 O   0  0  0  0  0  1  0  0  0  0  0  0
  182.6940  176.9480  138.7730 C   0  0  2  0  0  3  0  0  0  0  0  0
  184.3800  175.1410  136.0120 C   0  0  0  0  0  1  0  0  0  0  0  0
  182.1180  175.5190  138.7720 C   0  0  1  0  0  3  0  0  0  0  0  0
  183.9010  175.5110  137.4060 C   0  0  2  0  0  3  0  0  0  0  0  0
  180.0010  175.2140  139.8710 O   0  0  0  0  0  1  0  0  0  0  0  0
  180.5900  175.4460  138.6220 C   0  0  2  0  0  3  0  0  0  0  0  0
  181.0750  174.2480  136.5890 O   0  0  0  0  0  1  0  0  0  0  0  0
  180.1450  174.3710  137.6250 C   0  0  1  0  0  3  0  0  0  0  0  0
  179.9870  173.0530  138.3100 C   0  0  0  0  0  3  0  0  0  0  0  0
  180.3270  172.0230  137.7480 O   0  0  0  0  0  0  0  0  0  0  0  0
  185.3340  177.7980  144.8600 O   0  0  0  0  0  0  0  0  0  0  0  0
  187.4970  178.1750  146.0480 C   0  0  0  0  0  0  0  0  0  0  0  0
  185.6900  178.5970  146.9730 C   0  0  2  0  0  3  0  0  0  0  0  0
  187.8320  177.9100  148.4520 N   0  0  0  0  0  0  0  0  0  0  0  0
  186.1660  178.6620  145.5870 C   0  0  2  0  0  0  0  0  0  0  0  0
  189.1210  177.5260  148.1610 C   0  0  0  0  0  3  0  0  0  0  0  0
  185.5870  179.9020  146.2320 C   0  0  0  0  0  2  0  0  0  0  0  0
  187.0720  178.2260  147.3880 C   0  0  0  0  0  0  0  0  0  0  0  0
  188.7850  177.8060  145.7070 C   0  0  0  0  0  3  0  0  0  0  0  0
  189.6090  177.4690  146.8120 C   0  0  0  0  0  3  0  0  0  0  0  0
  1  2  1  0  0  0  0
  1 33  1  0  0  0  0
  3  1  1  0  0  0  0
  5  4  1  6  0  0  0
  5  1  1  0  0  0  0
  7 10  2  0  0  0  0
  7 11  1  0  0  0  0
  8  5  1  0  0  0  0
  8  6  1  0  0  0  0
 10  8  1  0  0  0  0
 11  9  2  0  0  0  0
 11  6  1  0  0  0  0
 12  7  1  0  0  0  0
 14 13  1  6  0  0  0
 14 12  1  0  0  0  0
 15 14  1  0  0  0  0
 16 15  1  0  0  0  0
 17 18  1  1  0  0  0
 17 16  1  0  0  0  0
 17 20  1  0  0  0  0
 18 19  2  0  0  0  0
 20 21  1  0  0  0  0
 22 24  2  6  0  0  0
 22 29  1  0  0  0  0
 22 27  1  0  0  0  0
 23 22  1  0  0  0  0
 23 26  1  0  0  0  0
 23 25  1  1  0  0  0
 26 30  1  6  0  0  0
 26 25  1  0  0  0  0
 26 28  1  0  0  0  0
 27 21  1  6  0  0  0
 27 28  1  0  0  0  0
 30 32  1  1  0  0  0
 30 31  1  0  0  0  0
 33 35  1  6  0  0  0
 33 55  1  0  0  0  0
 34 37  1  0  0  0  0
 34 38  1  0  0  0  0
 36 35  1  0  0  0  0
 37 41  1  6  0  0  0
 37 39  1  0  0  0  0
 38 36  2  0  0  0  0
 39 36  1  0  0  0  0
 40 34  2  0  0  0  0
 42 47  1  0  0  0  0
 43 44  1  6  0  0  0
 43 45  1  0  0  0  0
 45 41  1  6  0  0  0
 47 50  1  6  0  0  0
 47 45  1  0  0  0  0
 48 46  1  6  0  0  0
 48 43  1  0  0  0  0
 48 42  1  0  0  0  0
 50 49  1  1  0  0  0
 52 51  1  6  0  0  0
 52 53  1  0  0  0  0
 52 50  1  0  0  0  0
 54 53  2  0  0  0  0
 56 62  1  0  0  0  0
 57 61  1  1  0  0  0
 57 62  1  0  0  0  0
 59 55  1  6  0  0  0
 59 56  1  0  0  0  0
 59 61  1  0  0  0  0
 59 57  1  0  0  0  0
 60 58  1  0  0  0  0
 62 58  2  0  0  0  0
 63 56  2  0  0  0  0
 63 64  1  0  0  0  0
 64 60  2  0  0  0  0
M  END
>  <MODEL>
4

>  <REMARK>
 VINA RESULT:      -6.3      1.622      2.599
  Name = 
  21 active torsions:
  status: ('A' for Active; 'I' for Inactive)
    1  A    between atoms: C_4  and  C_35
    2  A    between atoms: O_6  and  C_28
    3  A    between atoms: O_6  and  C_30
    4  A    between atoms: C_7  and  C_9
    5  A    between atoms: C_7  and  N_20
    6  A    between atoms: C_9  and  C_28
    7  A    between atoms: C_11  and  C_17
    8  A    between atoms: C_11  and  S_36
    9  A    between atoms: C_13  and  O_16
   10  A    between atoms: C_13  and  C_56
   11  A    between atoms: N_15  and  C_28
   12  A    between atoms: O_16  and  S_36
   13  A    between atoms: C_23  and  C_42
   14  A    between atoms: C_25  and  C_56
   15  A    between atoms: C_27  and  C_34
   16  A    between atoms: C_33  and  C_34
   17  A    between atoms: C_42  and  C_49
   18  A    between atoms: O_43  and  C_44
   19  A    between atoms: O_43  and  C_47
   20  A    between atoms: C_47  and  C_56
   21  A    between atoms: C_48  and  C_49
                            x       y       z     vdW  Elec       q    Type
                         _______ _______ _______ _____ _____    ______ ____

>  <TORSDO>
F 21

$$$$
=
 OpenBabel10232410433D

 64 71  0  0  1  0  0  0  0  0999 V2000
  189.1640  176.8540  138.2510 C   0  0  0  0  0  0  0  0  0  0  0  0
  188.5970  175.8210  138.9830 F   0  0  0  0  0  0  0  0  0  0  0  0
  188.4800  178.0220  138.5490 F   0  0  0  0  0  0  0  0  0  0  0  0
  189.5560  177.6300  135.9980 O   0  0  0  0  0  1  0  0  0  0  0  0
  189.0100  176.5840  136.7460 C   0  0  2  0  0  3  0  0  0  0  0  0
  186.7700  177.3480  136.1280 N   0  0  0  0  0  2  0  0  0  0  0  0
  185.7060  175.4090  135.8460 C   0  0  0  0  0  0  0  0  0  0  0  0
  187.6240  176.3590  136.3420 N   0  0  0  0  0  0  0  0  0  0  0  0
  184.5490  177.4300  135.5500 O   0  0  0  0  0  0  0  0  0  0  0  0
  187.0170  175.1570  136.2040 C   0  0  0  0  0  3  0  0  0  0  0  0
  185.5940  176.7800  135.8200 C   0  0  0  0  0  0  0  0  0  0  0  0
  184.6300  174.4020  135.6290 C   0  0  0  0  0  2  0  0  0  0  0  0
  184.7360  172.8410  137.8050 C   0  0  0  0  0  1  0  0  0  0  0  0
  183.8210  174.0150  137.1910 S   0  0  2  0  0  3  0  0  0  0  0  0
  182.4070  173.1980  136.7100 O   0  0  0  0  0  0  0  0  0  0  0  0
  181.3930  173.7390  137.5040 C   0  0  0  0  0  2  0  0  0  0  0  0
  181.2380  175.2270  137.2220 C   0  0  1  0  0  3  0  0  0  0  0  0
  180.7420  175.4510  135.8280 C   0  0  0  0  0  3  0  0  0  0  0  0
  181.4040  176.0960  135.0300 O   0  0  0  0  0  0  0  0  0  0  0  0
  180.3010  175.8570  138.2490 C   0  0  0  0  0  2  0  0  0  0  0  0
  181.0300  176.4020  139.3250 O   0  0  0  0  0  0  0  0  0  0  0  0
  181.7080  178.8420  138.3450 P   0  0  2  0  0  0  0  0  0  0  0  0
  183.1380  179.6840  139.0470 C   0  0  2  0  0  3  0  0  0  0  0  0
  180.4250  179.3330  138.9790 O   0  0  0  0  0  1  0  0  0  0  0  0
  184.3240  179.1070  138.5320 O   0  0  0  0  0  0  0  0  0  0  0  0
  183.8960  178.6530  139.7930 C   0  0  2  0  0  0  0  0  0  0  0  0
  182.1270  177.1500  138.8330 C   0  0  1  0  0  3  0  0  0  0  0  0
  183.3380  177.2180  139.7700 C   0  0  0  0  0  2  0  0  0  0  0  0
  181.6520  179.0070  136.6640 O   0  0  0  0  0  0  0  0  0  0  0  0
  184.7840  179.1400  140.9280 C   0  0  1  0  0  3  0  0  0  0  0  0
  184.2160  178.7910  142.1540 O   0  0  0  0  0  1  0  0  0  0  0  0
  186.1690  178.5330  140.8190 C   0  0  0  0  0  1  0  0  0  0  0  0
  190.6410  177.0340  138.6330 C   0  0  1  0  0  3  0  0  0  0  0  0
  188.8460  176.6950  142.5990 C   0  0  0  0  0  0  0  0  0  0  0  0
  190.7770  177.8620  139.8340 N   0  0  0  0  0  2  0  0  0  0  0  0
  190.0840  177.6410  141.0680 C   0  0  0  0  0  0  0  0  0  0  0  0
  189.3190  177.9240  143.2960 C   0  0  2  0  0  3  0  0  0  0  0  0
  189.3260  176.6170  141.2700 N   0  0  0  0  0  0  0  0  0  0  0  0
  190.2160  178.5630  142.2360 C   0  0  0  0  0  2  0  0  0  0  0  0
  187.8500  175.9360  143.0330 C   0  0  0  0  0  2  0  0  0  0  0  0
  190.1710  177.5710  144.5100 C   0  0  0  0  0  2  0  0  0  0  0  0
  189.6060  176.4640  147.9480 O   0  0  0  0  0  0  0  0  0  0  0  0
  188.4340  177.7790  146.3760 C   0  0  1  0  0  3  0  0  0  0  0  0
  189.0470  179.0240  146.5800 O   0  0  0  0  0  1  0  0  0  0  0  0
  189.3470  176.8620  145.5960 C   0  0  2  0  0  3  0  0  0  0  0  0
  187.8910  177.8930  148.8430 C   0  0  0  0  0  1  0  0  0  0  0  0
  190.1460  176.1220  146.6870 C   0  0  1  0  0  3  0  0  0  0  0  0
  188.3460  177.0220  147.6840 C   0  0  2  0  0  3  0  0  0  0  0  0
  192.2450  175.6690  145.6040 O   0  0  0  0  0  1  0  0  0  0  0  0
  191.6600  176.3830  146.6580 C   0  0  2  0  0  3  0  0  0  0  0  0
  193.4940  175.2610  147.7440 O   0  0  0  0  0  1  0  0  0  0  0  0
  192.3470  176.0230  147.9790 C   0  0  1  0  0  3  0  0  0  0  0  0
  192.7160  177.2580  148.7340 C   0  0  0  0  0  3  0  0  0  0  0  0
  193.2920  177.1730  149.8070 O   0  0  0  0  0  0  0  0  0  0  0  0
  191.2710  175.7910  138.8150 O   0  0  0  0  0  0  0  0  0  0  0  0
  192.0780  174.3100  136.9750 C   0  0  0  0  0  0  0  0  0  0  0  0
  193.4160  175.2020  138.2830 C   0  0  2  0  0  3  0  0  0  0  0  0
  194.0380  172.8610  137.1100 N   0  0  0  0  0  0  0  0  0  0  0  0
  192.1230  175.6020  137.7170 C   0  0  2  0  0  0  0  0  0  0  0  0
  193.3760  172.0010  136.2630 C   0  0  0  0  0  3  0  0  0  0  0  0
  193.3250  176.5010  137.5300 C   0  0  0  0  0  2  0  0  0  0  0  0
  193.3690  173.9840  137.4270 C   0  0  0  0  0  0  0  0  0  0  0  0
  191.3780  173.4840  136.1150 C   0  0  0  0  0  3  0  0  0  0  0  0
  192.0630  172.2920  135.7620 C   0  0  0  0  0  3  0  0  0  0  0  0
  1  3  1  0  0  0  0
  1 33  1  0  0  0  0
  1  2  1  0  0  0  0
  5  4  1  6  0  0  0
  5  1  1  0  0  0  0
  6  8  1  0  0  0  0
  7 10  2  0  0  0  0
  8  5  1  0  0  0  0
  9 11  2  0  0  0  0
 10  8  1  0  0  0  0
 11  7  1  0  0  0  0
 11  6  1  0  0  0  0
 12  7  1  0  0  0  0
 12 14  1  0  0  0  0
 14 13  1  1  0  0  0
 15 14  1  0  0  0  0
 15 16  1  0  0  0  0
 17 18  1  6  0  0  0
 17 16  1  0  0  0  0
 17 20  1  0  0  0  0
 19 18  2  0  0  0  0
 20 21  1  0  0  0  0
 22 29  2  6  0  0  0
 22 27  1  0  0  0  0
 22 24  1  0  0  0  0
 22 23  1  0  0  0  0
 23 25  1  6  0  0  0
 23 26  1  0  0  0  0
 25 26  1  0  0  0  0
 26 30  1  1  0  0  0
 27 21  1  1  0  0  0
 27 28  1  0  0  0  0
 28 26  1  0  0  0  0
 30 32  1  6  0  0  0
 30 31  1  0  0  0  0
 33 55  1  1  0  0  0
 33 35  1  0  0  0  0
 34 40  2  0  0  0  0
 34 37  1  0  0  0  0
 35 36  1  0  0  0  0
 36 38  2  0  0  0  0
 36 39  1  0  0  0  0
 37 41  1  1  0  0  0
 38 34  1  0  0  0  0
 39 37  1  0  0  0  0
 43 44  1  1  0  0  0
 43 48  1  0  0  0  0
 45 41  1  6  0  0  0
 45 43  1  0  0  0  0
 45 47  1  0  0  0  0
 47 50  1  1  0  0  0
 47 42  1  0  0  0  0
 48 42  1  0  0  0  0
 48 46  1  1  0  0  0
 50 49  1  6  0  0  0
 50 52  1  0  0  0  0
 52 51  1  6  0  0  0
 52 53  1  0  0  0  0
 53 54  2  0  0  0  0
 56 62  1  0  0  0  0
 56 59  1  0  0  0  0
 57 61  1  6  0  0  0
 58 62  2  0  0  0  0
 59 57  1  0  0  0  0
 59 55  1  1  0  0  0
 60 58  1  0  0  0  0
 61 59  1  0  0  0  0
 62 57  1  0  0  0  0
 63 56  2  0  0  0  0
 64 63  1  0  0  0  0
 64 60  2  0  0  0  0
M  END
>  <MODEL>
5

>  <REMARK>
 VINA RESULT:      -6.3      3.469     10.452
  Name = 
  21 active torsions:
  status: ('A' for Active; 'I' for Inactive)
    1  A    between atoms: C_4  and  C_35
    2  A    between atoms: O_6  and  C_28
    3  A    between atoms: O_6  and  C_30
    4  A    between atoms: C_7  and  C_9
    5  A    between atoms: C_7  and  N_20
    6  A    between atoms: C_9  and  C_28
    7  A    between atoms: C_11  and  C_17
    8  A    between atoms: C_11  and  S_36
    9  A    between atoms: C_13  and  O_16
   10  A    between atoms: C_13  and  C_56
   11  A    between atoms: N_15  and  C_28
   12  A    between atoms: O_16  and  S_36
   13  A    between atoms: C_23  and  C_42
   14  A    between atoms: C_25  and  C_56
   15  A    between atoms: C_27  and  C_34
   16  A    between atoms: C_33  and  C_34
   17  A    between atoms: C_42  and  C_49
   18  A    between atoms: O_43  and  C_44
   19  A    between atoms: O_43  and  C_47
   20  A    between atoms: C_47  and  C_56
   21  A    between atoms: C_48  and  C_49
                            x       y       z     vdW  Elec       q    Type
                         _______ _______ _______ _____ _____    ______ ____

>  <TORSDO>
F 21

$$$$
=
 OpenBabel10232410433D

 64 71  0  0  1  0  0  0  0  0999 V2000
  188.7200  176.8530  136.7580 C   0  0  0  0  0  0  0  0  0  0  0  0
  188.4190  176.6600  138.0980 F   0  0  0  0  0  0  0  0  0  0  0  0
  189.5690  177.9440  136.6570 F   0  0  0  0  0  0  0  0  0  0  0  0
  187.7080  178.0800  134.9410 O   0  0  0  0  0  1  0  0  0  0  0  0
  187.4410  177.1720  135.9680 C   0  0  2  0  0  3  0  0  0  0  0  0
  186.5240  178.6720  137.6680 N   0  0  0  0  0  2  0  0  0  0  0  0
  184.4250  177.9350  137.8190 C   0  0  0  0  0  0  0  0  0  0  0  0
  186.3590  177.6790  136.8070 N   0  0  0  0  0  0  0  0  0  0  0  0
  185.1400  179.7100  139.1780 O   0  0  0  0  0  0  0  0  0  0  0  0
  185.1010  177.1820  136.8780 C   0  0  0  0  0  3  0  0  0  0  0  0
  185.3470  178.8400  138.2910 C   0  0  0  0  0  0  0  0  0  0  0  0
  183.0230  177.7360  138.2820 C   0  0  0  0  0  2  0  0  0  0  0  0
  181.4470  176.8400  140.2560 C   0  0  0  0  0  1  0  0  0  0  0  0
  183.0130  177.0510  139.9480 S   0  0  2  0  0  3  0  0  0  0  0  0
  183.4270  178.3840  140.9230 O   0  0  0  0  0  0  0  0  0  0  0  0
  184.4620  177.9230  141.7390 C   0  0  0  0  0  2  0  0  0  0  0  0
  185.1710  179.0930  142.4080 C   0  0  1  0  0  3  0  0  0  0  0  0
  184.5490  179.3980  143.7350 C   0  0  0  0  0  3  0  0  0  0  0  0
  183.7440  178.6280  144.2340 O   0  0  0  0  0  0  0  0  0  0  0  0
  186.6590  178.7880  142.5530 C   0  0  0  0  0  2  0  0  0  0  0  0
  187.0120  177.6480  141.8020 O   0  0  0  0  0  0  0  0  0  0  0  0
  189.6530  177.0920  142.1000 P   0  0  2  0  0  0  0  0  0  0  0  0
  190.3520  177.0990  143.7610 C   0  0  2  0  0  3  0  0  0  0  0  0
  189.8990  178.4130  141.4040 O   0  0  0  0  0  1  0  0  0  0  0  0
  189.9880  175.9050  144.4300 O   0  0  0  0  0  0  0  0  0  0  0  0
  189.2000  177.0410  144.6910 C   0  0  2  0  0  0  0  0  0  0  0  0
  187.9140  176.8460  142.5420 C   0  0  1  0  0  3  0  0  0  0  0  0
  187.7950  176.9700  144.0640 C   0  0  0  0  0  2  0  0  0  0  0  0
  190.2480  175.8050  141.1800 O   0  0  0  0  0  0  0  0  0  0  0  0
  189.4170  177.6020  146.0880 C   0  0  1  0  0  3  0  0  0  0  0  0
  188.3030  177.3320  146.8840 O   0  0  0  0  0  1  0  0  0  0  0  0
  190.6530  176.9910  146.7210 C   0  0  0  0  0  1  0  0  0  0  0  0
  189.4320  175.6180  136.1850 C   0  0  1  0  0  3  0  0  0  0  0  0
  185.9780  173.1190  137.1260 C   0  0  0  0  0  0  0  0  0  0  0  0
  188.5320  174.8420  135.3270 N   0  0  0  0  0  2  0  0  0  0  0  0
  187.4490  174.0300  135.7940 C   0  0  0  0  0  0  0  0  0  0  0  0
  185.6030  172.5400  135.8050 C   0  0  2  0  0  3  0  0  0  0  0  0
  187.1010  173.9740  137.0350 N   0  0  0  0  0  0  0  0  0  0  0  0
  186.6090  173.2100  134.8700 C   0  0  0  0  0  2  0  0  0  0  0  0
  185.5390  172.6560  138.2880 C   0  0  0  0  0  2  0  0  0  0  0  0
  184.1970  172.9680  135.3990 C   0  0  0  0  0  2  0  0  0  0  0  0
  180.8260  171.6000  135.7590 O   0  0  0  0  0  0  0  0  0  0  0  0
  183.0190  170.7260  135.7530 C   0  0  1  0  0  3  0  0  0  0  0  0
  183.2320  170.5850  134.3740 O   0  0  0  0  0  1  0  0  0  0  0  0
  183.1210  172.1770  136.1590 C   0  0  2  0  0  3  0  0  0  0  0  0
  181.0140  169.2340  135.3680 C   0  0  0  0  0  1  0  0  0  0  0  0
  181.6740  172.6970  136.0340 C   0  0  1  0  0  3  0  0  0  0  0  0
  181.5670  170.4540  136.0850 C   0  0  2  0  0  3  0  0  0  0  0  0
  182.6650  174.5440  134.8560 O   0  0  0  0  0  1  0  0  0  0  0  0
  181.4820  173.8050  134.9880 C   0  0  2  0  0  3  0  0  0  0  0  0
  180.2860  175.0110  136.6960 O   0  0  0  0  0  1  0  0  0  0  0  0
  180.3160  174.7400  135.3250 C   0  0  1  0  0  3  0  0  0  0  0  0
  180.4320  176.0210  134.5670 C   0  0  0  0  0  3  0  0  0  0  0  0
  180.5760  177.0770  135.1640 O   0  0  0  0  0  0  0  0  0  0  0  0
  190.5920  175.9850  135.4820 O   0  0  0  0  0  0  0  0  0  0  0  0
  192.6880  174.9740  136.3860 C   0  0  0  0  0  0  0  0  0  0  0  0
  192.3160  175.0010  134.3470 C   0  0  2  0  0  3  0  0  0  0  0  0
  194.8500  175.0020  135.2540 N   0  0  0  0  0  0  0  0  0  0  0  0
  191.4660  174.8890  135.5370 C   0  0  2  0  0  0  0  0  0  0  0  0
  195.4270  175.0420  136.5030 C   0  0  0  0  0  3  0  0  0  0  0  0
  191.3980  173.8160  134.4730 C   0  0  0  0  0  2  0  0  0  0  0  0
  193.5060  174.9620  135.2430 C   0  0  0  0  0  0  0  0  0  0  0  0
  193.2210  175.0030  137.6620 C   0  0  0  0  0  3  0  0  0  0  0  0
  194.6380  175.0430  137.7020 C   0  0  0  0  0  3  0  0  0  0  0  0
  1  2  1  0  0  0  0
  3  1  1  0  0  0  0
  5  4  1  6  0  0  0
  5  1  1  0  0  0  0
  5  8  1  0  0  0  0
  6 11  1  0  0  0  0
  7 12  1  0  0  0  0
  7 11  1  0  0  0  0
  8 10  1  0  0  0  0
  8  6  1  0  0  0  0
 10  7  2  0  0  0  0
 11  9  2  0  0  0  0
 12 14  1  0  0  0  0
 14 13  1  1  0  0  0
 14 15  1  0  0  0  0
 15 16  1  0  0  0  0
 17 16  1  1  0  0  0
 17 20  1  0  0  0  0
 17 18  1  0  0  0  0
 18 19  2  0  0  0  0
 21 20  1  0  0  0  0
 22 29  2  6  0  0  0
 22 27  1  0  0  0  0
 22 23  1  0  0  0  0
 23 25  1  6  0  0  0
 23 26  1  0  0  0  0
 24 22  1  0  0  0  0
 25 26  1  0  0  0  0
 26 30  1  1  0  0  0
 27 21  1  6  0  0  0
 27 28  1  0  0  0  0
 28 26  1  0  0  0  0
 30 32  1  1  0  0  0
 30 31  1  0  0  0  0
 33 35  1  6  0  0  0
 33  1  1  0  0  0  0
 34 40  2  0  0  0  0
 35 36  1  0  0  0  0
 36 38  2  0  0  0  0
 37 41  1  6  0  0  0
 37 34  1  0  0  0  0
 38 34  1  0  0  0  0
 39 36  1  0  0  0  0
 39 37  1  0  0  0  0
 42 47  1  0  0  0  0
 42 48  1  0  0  0  0
 43 44  1  6  0  0  0
 43 48  1  0  0  0  0
 43 45  1  0  0  0  0
 45 41  1  6  0  0  0
 47 50  1  6  0  0  0
 47 45  1  0  0  0  0
 48 46  1  6  0  0  0
 50 49  1  1  0  0  0
 50 52  1  0  0  0  0
 52 51  1  1  0  0  0
 53 54  2  0  0  0  0
 53 52  1  0  0  0  0
 55 33  1  0  0  0  0
 56 63  1  0  0  0  0
 57 61  1  6  0  0  0
 57 62  1  0  0  0  0
 57 59  1  0  0  0  0
 58 60  2  0  0  0  0
 59 55  1  1  0  0  0
 59 56  1  0  0  0  0
 60 64  1  0  0  0  0
 61 59  1  0  0  0  0
 62 58  1  0  0  0  0
 62 56  2  0  0  0  0
 63 64  2  0  0  0  0
M  END
>  <MODEL>
6

>  <REMARK>
 VINA RESULT:      -5.5      3.274      8.398
  Name = 
  21 active torsions:
  status: ('A' for Active; 'I' for Inactive)
    1  A    between atoms: C_4  and  C_35
    2  A    between atoms: O_6  and  C_28
    3  A    between atoms: O_6  and  C_30
    4  A    between atoms: C_7  and  C_9
    5  A    between atoms: C_7  and  N_20
    6  A    between atoms: C_9  and  C_28
    7  A    between atoms: C_11  and  C_17
    8  A    between atoms: C_11  and  S_36
    9  A    between atoms: C_13  and  O_16
   10  A    between atoms: C_13  and  C_56
   11  A    between atoms: N_15  and  C_28
   12  A    between atoms: O_16  and  S_36
   13  A    between atoms: C_23  and  C_42
   14  A    between atoms: C_25  and  C_56
   15  A    between atoms: C_27  and  C_34
   16  A    between atoms: C_33  and  C_34
   17  A    between atoms: C_42  and  C_49
   18  A    between atoms: O_43  and  C_44
   19  A    between atoms: O_43  and  C_47
   20  A    between atoms: C_47  and  C_56
   21  A    between atoms: C_48  and  C_49
                            x       y       z     vdW  Elec       q    Type
                         _______ _______ _______ _____ _____    ______ ____

>  <TORSDO>
F 21

$$$$
=
 OpenBabel10232410433D

 64 71  0  0  1  0  0  0  0  0999 V2000
  186.6020  177.5750  142.5310 C   0  0  0  0  0  0  0  0  0  0  0  0
  187.0090  176.4000  143.1440 F   0  0  0  0  0  0  0  0  0  0  0  0
  186.0540  177.2530  141.2990 F   0  0  0  0  0  0  0  0  0  0  0  0
  187.4180  179.6640  141.6350 O   0  0  0  0  0  1  0  0  0  0  0  0
  187.8100  178.4930  142.2880 C   0  0  2  0  0  3  0  0  0  0  0  0
  190.1580  177.9350  141.8890 N   0  0  0  0  0  2  0  0  0  0  0  0
  190.0120  176.7450  140.0080 C   0  0  0  0  0  0  0  0  0  0  0  0
  188.8830  177.8450  141.5390 N   0  0  0  0  0  0  0  0  0  0  0  0
  192.1110  177.1380  140.9830 O   0  0  0  0  0  0  0  0  0  0  0  0
  188.7460  177.1480  140.3860 C   0  0  0  0  0  3  0  0  0  0  0  0
  190.8580  177.2630  140.9620 C   0  0  0  0  0  0  0  0  0  0  0  0
  190.3790  175.9910  138.7770 C   0  0  0  0  0  2  0  0  0  0  0  0
  189.3800  177.6240  136.9020 C   0  0  0  0  0  1  0  0  0  0  0  0
  190.8110  177.1370  137.4560 S   0  0  2  0  0  3  0  0  0  0  0  0
  191.3800  176.1140  136.2190 O   0  0  0  0  0  0  0  0  0  0  0  0
  192.7330  176.4350  136.0840 C   0  0  0  0  0  2  0  0  0  0  0  0
  193.5830  175.1720  136.1210 C   0  0  1  0  0  3  0  0  0  0  0  0
  192.7410  173.9620  135.8620 C   0  0  0  0  0  3  0  0  0  0  0  0
  193.1900  172.8430  136.0490 O   0  0  0  0  0  0  0  0  0  0  0  0
  194.7210  175.2800  135.1110 C   0  0  0  0  0  2  0  0  0  0  0  0
  195.8450  175.9060  135.6870 O   0  0  0  0  0  0  0  0  0  0  0  0
  197.2760  174.3620  137.4020 P   0  0  2  0  0  0  0  0  0  0  0  0
  197.5560  172.6350  136.9760 C   0  0  2  0  0  3  0  0  0  0  0  0
  196.0990  174.5040  138.3420 O   0  0  0  0  0  1  0  0  0  0  0  0
  198.5730  172.5500  135.9940 O   0  0  0  0  0  0  0  0  0  0  0  0
  197.2450  172.5130  135.5320 C   0  0  2  0  0  0  0  0  0  0  0  0
  196.9280  174.9960  135.7420 C   0  0  1  0  0  3  0  0  0  0  0  0
  196.8150  173.7950  134.7960 C   0  0  0  0  0  2  0  0  0  0  0  0
  198.6620  175.0730  138.0590 O   0  0  0  0  0  0  0  0  0  0  0  0
  196.8320  171.1360  135.0330 C   0  0  1  0  0  3  0  0  0  0  0  0
  197.9670  170.3890  134.7170 O   0  0  0  0  0  1  0  0  0  0  0  0
  196.0230  170.4070  136.0890 C   0  0  0  0  0  1  0  0  0  0  0  0
  185.5320  178.2800  143.3790 C   0  0  1  0  0  3  0  0  0  0  0  0
  184.1090  179.5430  139.4490 C   0  0  0  0  0  0  0  0  0  0  0  0
  184.2130  178.1850  142.7470 N   0  0  0  0  0  2  0  0  0  0  0  0
  183.8870  178.6860  141.4450 C   0  0  0  0  0  0  0  0  0  0  0  0
  182.6490  179.2520  139.5030 C   0  0  2  0  0  3  0  0  0  0  0  0
  184.7660  179.2000  140.6540 N   0  0  0  0  0  0  0  0  0  0  0  0
  182.5040  178.6170  140.8860 C   0  0  0  0  0  2  0  0  0  0  0  0
  184.6750  180.3170  138.5340 C   0  0  0  0  0  2  0  0  0  0  0  0
  182.2560  178.2240  138.4480 C   0  0  0  0  0  2  0  0  0  0  0  0
  183.5620  175.0070  137.3040 O   0  0  0  0  0  0  0  0  0  0  0  0
  183.8810  177.2720  136.7190 C   0  0  1  0  0  3  0  0  0  0  0  0
  182.8010  177.4620  135.8440 O   0  0  0  0  0  1  0  0  0  0  0  0
  183.4030  177.2470  138.1510 C   0  0  2  0  0  3  0  0  0  0  0  0
  184.5380  175.4070  135.1420 C   0  0  0  0  0  1  0  0  0  0  0  0
  183.1180  175.7550  138.4190 C   0  0  1  0  0  3  0  0  0  0  0  0
  184.4150  175.8610  136.5870 C   0  0  2  0  0  3  0  0  0  0  0  0
  181.5380  174.9850  140.0590 O   0  0  0  0  0  1  0  0  0  0  0  0
  181.6500  175.4320  138.7360 C   0  0  2  0  0  3  0  0  0  0  0  0
  180.5250  173.3160  138.4950 O   0  0  0  0  0  1  0  0  0  0  0  0
  181.0540  174.3940  137.7800 C   0  0  1  0  0  3  0  0  0  0  0  0
  179.9820  175.0080  136.9410 C   0  0  0  0  0  3  0  0  0  0  0  0
  180.2670  175.8380  136.0900 O   0  0  0  0  0  0  0  0  0  0  0  0
  185.4950  177.7570  144.6820 O   0  0  0  0  0  0  0  0  0  0  0  0
  187.6660  178.1550  145.8500 C   0  0  0  0  0  0  0  0  0  0  0  0
  185.8660  178.3440  146.8610 C   0  0  2  0  0  3  0  0  0  0  0  0
  188.0970  177.6540  148.2000 N   0  0  0  0  0  0  0  0  0  0  0  0
  186.2900  178.5940  145.4800 C   0  0  2  0  0  0  0  0  0  0  0  0
  189.3990  177.3970  147.8350 C   0  0  0  0  0  3  0  0  0  0  0  0
  185.6490  179.7110  146.2730 C   0  0  0  0  0  2  0  0  0  0  0  0
  187.2830  178.0300  147.1970 C   0  0  0  0  0  0  0  0  0  0  0  0
  188.9640  177.9190  145.4370 C   0  0  0  0  0  3  0  0  0  0  0  0
  189.8440  177.5220  146.4770 C   0  0  0  0  0  3  0  0  0  0  0  0
  1  2  1  0  0  0  0
  1 33  1  0  0  0  0
  3  1  1  0  0  0  0
  5  4  1  6  0  0  0
  5  1  1  0  0  0  0
  7 10  2  0  0  0  0
  7 11  1  0  0  0  0
  8  6  1  0  0  0  0
  8  5  1  0  0  0  0
 10  8  1  0  0  0  0
 11  9  2  0  0  0  0
 11  6  1  0  0  0  0
 12  7  1  0  0  0  0
 14 13  1  6  0  0  0
 14 12  1  0  0  0  0
 15 14  1  0  0  0  0
 16 17  1  0  0  0  0
 16 15  1  0  0  0  0
 17 20  1  6  0  0  0
 18 19  2  0  0  0  0
 18 17  1  0  0  0  0
 20 21  1  0  0  0  0
 22 29  2  1  0  0  0
 22 24  1  0  0  0  0
 23 25  1  6  0  0  0
 23 22  1  0  0  0  0
 26 30  1  6  0  0  0
 26 25  1  0  0  0  0
 26 23  1  0  0  0  0
 27 21  1  1  0  0  0
 27 22  1  0  0  0  0
 28 26  1  0  0  0  0
 28 27  1  0  0  0  0
 30 32  1  1  0  0  0
 31 30  1  0  0  0  0
 33 35  1  6  0  0  0
 33 55  1  0  0  0  0
 34 37  1  0  0  0  0
 34 38  1  0  0  0  0
 36 35  1  0  0  0  0
 37 41  1  6  0  0  0
 37 39  1  0  0  0  0
 38 36  2  0  0  0  0
 39 36  1  0  0  0  0
 40 34  2  0  0  0  0
 42 47  1  0  0  0  0
 43 44  1  6  0  0  0
 43 45  1  0  0  0  0
 45 47  1  0  0  0  0
 45 41  1  6  0  0  0
 47 50  1  6  0  0  0
 48 46  1  6  0  0  0
 48 43  1  0  0  0  0
 48 42  1  0  0  0  0
 50 49  1  1  0  0  0
 52 51  1  1  0  0  0
 52 50  1  0  0  0  0
 53 52  1  0  0  0  0
 54 53  2  0  0  0  0
 56 62  1  0  0  0  0
 57 61  1  1  0  0  0
 57 62  1  0  0  0  0
 59 55  1  6  0  0  0
 59 56  1  0  0  0  0
 59 61  1  0  0  0  0
 59 57  1  0  0  0  0
 60 58  1  0  0  0  0
 62 58  2  0  0  0  0
 63 56  2  0  0  0  0
 63 64  1  0  0  0  0
 64 60  2  0  0  0  0
M  END
>  <MODEL>
7

>  <REMARK>
 VINA RESULT:      -5.4      1.702      2.647
  Name = 
  21 active torsions:
  status: ('A' for Active; 'I' for Inactive)
    1  A    between atoms: C_4  and  C_35
    2  A    between atoms: O_6  and  C_28
    3  A    between atoms: O_6  and  C_30
    4  A    between atoms: C_7  and  C_9
    5  A    between atoms: C_7  and  N_20
    6  A    between atoms: C_9  and  C_28
    7  A    between atoms: C_11  and  C_17
    8  A    between atoms: C_11  and  S_36
    9  A    between atoms: C_13  and  O_16
   10  A    between atoms: C_13  and  C_56
   11  A    between atoms: N_15  and  C_28
   12  A    between atoms: O_16  and  S_36
   13  A    between atoms: C_23  and  C_42
   14  A    between atoms: C_25  and  C_56
   15  A    between atoms: C_27  and  C_34
   16  A    between atoms: C_33  and  C_34
   17  A    between atoms: C_42  and  C_49
   18  A    between atoms: O_43  and  C_44
   19  A    between atoms: O_43  and  C_47
   20  A    between atoms: C_47  and  C_56
   21  A    between atoms: C_48  and  C_49
                            x       y       z     vdW  Elec       q    Type
                         _______ _______ _______ _____ _____    ______ ____

>  <TORSDO>
F 21

$$$$
=
 OpenBabel10232410433D

 64 71  0  0  1  0  0  0  0  0999 V2000
  188.0270  178.2070  141.9160 C   0  0  0  0  0  0  0  0  0  0  0  0
  188.8960  178.9700  142.6800 F   0  0  0  0  0  0  0  0  0  0  0  0
  188.4610  176.8910  141.9510 F   0  0  0  0  0  0  0  0  0  0  0  0
  186.7960  178.5370  139.8650 O   0  0  0  0  0  1  0  0  0  0  0  0
  188.0550  178.6770  140.4530 C   0  0  2  0  0  3  0  0  0  0  0  0
  190.2370  177.6200  140.1270 N   0  0  0  0  0  2  0  0  0  0  0  0
  190.1430  177.0750  137.9670 C   0  0  0  0  0  0  0  0  0  0  0  0
  189.0580  177.9860  139.6470 N   0  0  0  0  0  0  0  0  0  0  0  0
  192.0730  176.5900  139.2120 O   0  0  0  0  0  0  0  0  0  0  0  0
  188.9620  177.6940  138.3280 C   0  0  0  0  0  3  0  0  0  0  0  0
  190.9080  177.0580  139.1100 C   0  0  0  0  0  0  0  0  0  0  0  0
  190.5290  176.6120  136.6050 C   0  0  0  0  0  2  0  0  0  0  0  0
  190.4130  174.0710  137.4490 C   0  0  0  0  0  1  0  0  0  0  0  0
  189.8100  174.9940  136.2750 S   0  0  2  0  0  3  0  0  0  0  0  0
  190.6520  174.4650  134.8920 O   0  0  0  0  0  0  0  0  0  0  0  0
  191.9080  174.0780  135.3640 C   0  0  0  0  0  2  0  0  0  0  0  0
  193.0040  174.8620  134.6550 C   0  0  1  0  0  3  0  0  0  0  0  0
  193.4320  176.0350  135.4800 C   0  0  0  0  0  3  0  0  0  0  0  0
  194.1710  176.8860  135.0120 O   0  0  0  0  0  0  0  0  0  0  0  0
  194.1840  173.9450  134.3460 C   0  0  0  0  0  2  0  0  0  0  0  0
  195.0120  173.7940  135.4780 O   0  0  0  0  0  0  0  0  0  0  0  0
  197.1520  172.5300  136.5680 P   0  0  2  0  0  0  0  0  0  0  0  0
  197.0500  170.7540  136.8510 C   0  0  2  0  0  3  0  0  0  0  0  0
  196.8280  173.2980  137.8300 O   0  0  0  0  0  1  0  0  0  0  0  0
  197.2250  170.0690  135.6230 O   0  0  0  0  0  0  0  0  0  0  0  0
  195.9000  170.2760  136.0480 C   0  0  2  0  0  0  0  0  0  0  0  0
  195.8620  172.6750  135.3070 C   0  0  1  0  0  3  0  0  0  0  0  0
  195.1450  171.3240  135.2110 C   0  0  0  0  0  2  0  0  0  0  0  0
  198.6650  172.9770  135.9620 O   0  0  0  0  0  0  0  0  0  0  0  0
  195.2240  168.9950  136.5120 C   0  0  1  0  0  3  0  0  0  0  0  0
  194.0100  169.2980  137.1290 O   0  0  0  0  0  1  0  0  0  0  0  0
  194.9780  168.0660  135.3380 C   0  0  0  0  0  1  0  0  0  0  0  0
  186.6040  178.2740  142.4920 C   0  0  1  0  0  3  0  0  0  0  0  0
  182.2900  178.9350  142.3750 C   0  0  0  0  0  0  0  0  0  0  0  0
  185.6050  177.9800  141.4620 N   0  0  0  0  0  2  0  0  0  0  0  0
  184.1990  178.2250  141.5870 C   0  0  0  0  0  0  0  0  0  0  0  0
  181.8810  178.3000  141.0910 C   0  0  2  0  0  3  0  0  0  0  0  0
  183.6810  178.8230  142.6060 N   0  0  0  0  0  0  0  0  0  0  0  0
  183.2230  177.8390  140.5240 C   0  0  0  0  0  2  0  0  0  0  0  0
  181.4420  179.2710  143.3370 C   0  0  0  0  0  2  0  0  0  0  0  0
  181.2740  179.3260  140.1410 C   0  0  0  0  0  2  0  0  0  0  0  0
  180.0650  178.5510  136.7800 O   0  0  0  0  0  0  0  0  0  0  0  0
  180.6840  177.3070  138.6880 C   0  0  1  0  0  3  0  0  0  0  0  0
  182.0730  177.2400  138.5080 O   0  0  0  0  0  1  0  0  0  0  0  0
  180.2780  178.6810  139.1660 C   0  0  2  0  0  3  0  0  0  0  0  0
  180.5620  176.2270  136.4040 C   0  0  0  0  0  1  0  0  0  0  0  0
  179.9950  179.4560  137.8640 C   0  0  1  0  0  3  0  0  0  0  0  0
  179.9830  177.2700  137.3460 C   0  0  2  0  0  3  0  0  0  0  0  0
  181.5550  181.0160  138.8200 O   0  0  0  0  0  1  0  0  0  0  0  0
  180.9190  180.6600  137.6240 C   0  0  2  0  0  3  0  0  0  0  0  0
  180.1610  182.9210  137.9640 O   0  0  0  0  0  1  0  0  0  0  0  0
  180.1750  181.8680  137.0450 C   0  0  1  0  0  3  0  0  0  0  0  0
  180.8190  182.3240  135.7770 C   0  0  0  0  0  3  0  0  0  0  0  0
  180.8070  183.5070  135.4720 O   0  0  0  0  0  0  0  0  0  0  0  0
  186.4600  177.4030  143.5850 O   0  0  0  0  0  0  0  0  0  0  0  0
  188.0700  177.8470  145.4410 C   0  0  0  0  0  0  0  0  0  0  0  0
  186.0670  177.4870  145.8360 C   0  0  2  0  0  3  0  0  0  0  0  0
  187.9340  176.8590  147.6690 N   0  0  0  0  0  0  0  0  0  0  0  0
  186.7890  178.1350  144.7360 C   0  0  2  0  0  0  0  0  0  0  0  0
  189.3090  176.9130  147.7030 C   0  0  0  0  0  3  0  0  0  0  0  0
  185.7140  178.9040  145.4730 C   0  0  0  0  0  2  0  0  0  0  0  0
  187.3670  177.3330  146.5460 C   0  0  0  0  0  0  0  0  0  0  0  0
  189.4490  177.9320  145.4320 C   0  0  0  0  0  3  0  0  0  0  0  0
  190.0730  177.4390  146.6080 C   0  0  0  0  0  3  0  0  0  0  0  0
  1  3  1  0  0  0  0
  1 33  1  0  0  0  0
  1  2  1  0  0  0  0
  5  4  1  6  0  0  0
  5  1  1  0  0  0  0
  7 10  2  0  0  0  0
  7 11  1  0  0  0  0
  8  6  1  0  0  0  0
  8  5  1  0  0  0  0
 10  8  1  0  0  0  0
 11  9  2  0  0  0  0
 11  6  1  0  0  0  0
 12  7  1  0  0  0  0
 14 12  1  0  0  0  0
 14 13  1  1  0  0  0
 15 16  1  0  0  0  0
 15 14  1  0  0  0  0
 17 20  1  1  0  0  0
 17 16  1  0  0  0  0
 17 18  1  0  0  0  0
 19 18  2  0  0  0  0
 20 21  1  0  0  0  0
 22 29  2  6  0  0  0
 22 23  1  0  0  0  0
 22 24  1  0  0  0  0
 23 25  1  6  0  0  0
 25 26  1  0  0  0  0
 26 30  1  1  0  0  0
 26 23  1  0  0  0  0
 27 21  1  1  0  0  0
 27 22  1  0  0  0  0
 28 27  1  0  0  0  0
 28 26  1  0  0  0  0
 30 32  1  6  0  0  0
 30 31  1  0  0  0  0
 33 35  1  6  0  0  0
 33 55  1  0  0  0  0
 34 38  1  0  0  0  0
 34 40  2  0  0  0  0
 35 36  1  0  0  0  0
 36 38  2  0  0  0  0
 37 41  1  6  0  0  0
 37 34  1  0  0  0  0
 39 37  1  0  0  0  0
 39 36  1  0  0  0  0
 42 48  1  0  0  0  0
 42 47  1  0  0  0  0
 43 44  1  6  0  0  0
 43 45  1  0  0  0  0
 45 41  1  6  0  0  0
 47 50  1  6  0  0  0
 47 45  1  0  0  0  0
 48 46  1  6  0  0  0
 48 43  1  0  0  0  0
 50 49  1  1  0  0  0
 52 50  1  0  0  0  0
 52 51  1  1  0  0  0
 53 52  1  0  0  0  0
 54 53  2  0  0  0  0
 56 62  1  0  0  0  0
 57 61  1  1  0  0  0
 57 62  1  0  0  0  0
 58 60  1  0  0  0  0
 59 55  1  6  0  0  0
 59 56  1  0  0  0  0
 59 61  1  0  0  0  0
 59 57  1  0  0  0  0
 62 58  2  0  0  0  0
 63 56  2  0  0  0  0
 63 64  1  0  0  0  0
 64 60  2  0  0  0  0
M  END
>  <MODEL>
8

>  <REMARK>
 VINA RESULT:      -5.2      2.443      4.132
  Name = 
  21 active torsions:
  status: ('A' for Active; 'I' for Inactive)
    1  A    between atoms: C_4  and  C_35
    2  A    between atoms: O_6  and  C_28
    3  A    between atoms: O_6  and  C_30
    4  A    between atoms: C_7  and  C_9
    5  A    between atoms: C_7  and  N_20
    6  A    between atoms: C_9  and  C_28
    7  A    between atoms: C_11  and  C_17
    8  A    between atoms: C_11  and  S_36
    9  A    between atoms: C_13  and  O_16
   10  A    between atoms: C_13  and  C_56
   11  A    between atoms: N_15  and  C_28
   12  A    between atoms: O_16  and  S_36
   13  A    between atoms: C_23  and  C_42
   14  A    between atoms: C_25  and  C_56
   15  A    between atoms: C_27  and  C_34
   16  A    between atoms: C_33  and  C_34
   17  A    between atoms: C_42  and  C_49
   18  A    between atoms: O_43  and  C_44
   19  A    between atoms: O_43  and  C_47
   20  A    between atoms: C_47  and  C_56
   21  A    between atoms: C_48  and  C_49
                            x       y       z     vdW  Elec       q    Type
                         _______ _______ _______ _____ _____    ______ ____

>  <TORSDO>
F 21

$$$$
=
 OpenBabel10232410433D

 64 71  0  0  1  0  0  0  0  0999 V2000
  190.7570  177.0010  142.0850 C   0  0  0  0  0  0  0  0  0  0  0  0
  191.2940  176.5810  143.2920 F   0  0  0  0  0  0  0  0  0  0  0  0
  190.0140  175.9580  141.5540 F   0  0  0  0  0  0  0  0  0  0  0  0
  191.9920  178.7160  140.9160 O   0  0  0  0  0  1  0  0  0  0  0  0
  191.8830  177.3350  141.0920 C   0  0  2  0  0  3  0  0  0  0  0  0
  190.8000  175.7530  139.5730 N   0  0  0  0  0  2  0  0  0  0  0  0
  192.0060  176.0300  137.7180 C   0  0  0  0  0  0  0  0  0  0  0  0
  191.7180  176.6820  139.7960 N   0  0  0  0  0  0  0  0  0  0  0  0
  190.2530  174.4700  137.7490 O   0  0  0  0  0  0  0  0  0  0  0  0
  192.4910  176.8700  138.7010 C   0  0  0  0  0  3  0  0  0  0  0  0
  190.9640  175.3490  138.3030 C   0  0  0  0  0  0  0  0  0  0  0  0
  192.5610  175.8440  136.3470 C   0  0  0  0  0  2  0  0  0  0  0  0
  189.9830  176.4930  136.0030 C   0  0  0  0  0  1  0  0  0  0  0  0
  191.2840  176.1580  135.1160 S   0  0  2  0  0  3  0  0  0  0  0  0
  190.9460  174.6090  134.4970 O   0  0  0  0  0  0  0  0  0  0  0  0
  192.1920  173.9870  134.3880 C   0  0  0  0  0  2  0  0  0  0  0  0
  192.1820  172.6510  135.1190 C   0  0  1  0  0  3  0  0  0  0  0  0
  191.1010  171.7650  134.5840 C   0  0  0  0  0  3  0  0  0  0  0  0
  190.9270  170.6500  135.0480 O   0  0  0  0  0  0  0  0  0  0  0  0
  193.5500  171.9840  135.0040 C   0  0  0  0  0  2  0  0  0  0  0  0
  194.2230  172.0040  136.2430 O   0  0  0  0  0  0  0  0  0  0  0  0
  196.2730  173.3000  137.4640 P   0  0  2  0  0  0  0  0  0  0  0  0
  197.8930  172.5140  137.4910 C   0  0  2  0  0  3  0  0  0  0  0  0
  195.5250  173.0440  138.7530 O   0  0  0  0  0  1  0  0  0  0  0  0
  198.5090  172.6580  136.2240 O   0  0  0  0  0  0  0  0  0  0  0  0
  197.8460  171.4420  136.4690 C   0  0  2  0  0  0  0  0  0  0  0  0
  195.5660  172.4090  136.0540 C   0  0  1  0  0  3  0  0  0  0  0  0
  196.5360  171.2860  135.6750 C   0  0  0  0  0  2  0  0  0  0  0  0
  196.3900  174.9580  137.1540 O   0  0  0  0  0  0  0  0  0  0  0  0
  198.8050  170.2750  136.6540 C   0  0  1  0  0  3  0  0  0  0  0  0
  198.0840  169.0890  136.7970 O   0  0  0  0  0  1  0  0  0  0  0  0
  199.7400  170.1600  135.4660 C   0  0  0  0  0  1  0  0  0  0  0  0
  189.8320  178.2080  142.2990 C   0  0  1  0  0  3  0  0  0  0  0  0
  188.1340  178.6730  138.3030 C   0  0  0  0  0  0  0  0  0  0  0  0
  188.4880  177.9410  141.7780 N   0  0  0  0  0  2  0  0  0  0  0  0
  188.0670  178.1830  140.4310 C   0  0  0  0  0  0  0  0  0  0  0  0
  186.6970  178.3310  138.4990 C   0  0  2  0  0  3  0  0  0  0  0  0
  188.8730  178.5840  139.5070 N   0  0  0  0  0  0  0  0  0  0  0  0
  186.6620  177.9510  139.9790 C   0  0  0  0  0  2  0  0  0  0  0  0
  188.6070  179.2930  137.2320 C   0  0  0  0  0  2  0  0  0  0  0  0
  186.3070  177.1120  137.6710 C   0  0  0  0  0  2  0  0  0  0  0  0
  183.5360  176.2200  135.4590 O   0  0  0  0  0  0  0  0  0  0  0  0
  183.8720  177.7520  137.2240 C   0  0  1  0  0  3  0  0  0  0  0  0
  183.6250  176.9240  138.3290 O   0  0  0  0  0  1  0  0  0  0  0  0
  185.2280  177.4530  136.6310 C   0  0  2  0  0  3  0  0  0  0  0  0
  181.5440  177.0880  136.4910 C   0  0  0  0  0  1  0  0  0  0  0  0
  184.9370  176.3750  135.5680 C   0  0  1  0  0  3  0  0  0  0  0  0
  182.9790  177.3550  136.0670 C   0  0  2  0  0  3  0  0  0  0  0  0
  186.7910  174.9220  135.0810 O   0  0  0  0  0  1  0  0  0  0  0  0
  185.6120  175.0200  135.8320 C   0  0  2  0  0  3  0  0  0  0  0  0
  185.1600  173.1300  134.4080 O   0  0  0  0  0  1  0  0  0  0  0  0
  184.6940  173.8330  135.5230 C   0  0  1  0  0  3  0  0  0  0  0  0
  184.6140  172.9110  136.6940 C   0  0  0  0  0  3  0  0  0  0  0  0
  184.5550  171.7030  136.5230 O   0  0  0  0  0  0  0  0  0  0  0  0
  189.7740  178.5650  143.6570 O   0  0  0  0  0  0  0  0  0  0  0  0
  187.4750  178.0540  144.4840 C   0  0  0  0  0  0  0  0  0  0  0  0
  189.1230  177.8230  145.7200 C   0  0  2  0  0  3  0  0  0  0  0  0
  186.7140  178.3840  146.7800 N   0  0  0  0  0  0  0  0  0  0  0  0
  188.8980  177.6630  144.2790 C   0  0  2  0  0  0  0  0  0  0  0  0
  185.4680  178.6460  146.2570 C   0  0  0  0  0  3  0  0  0  0  0  0
  189.4520  176.5030  145.0760 C   0  0  0  0  0  2  0  0  0  0  0  0
  187.6670  178.0910  145.8770 C   0  0  0  0  0  0  0  0  0  0  0  0
  186.2400  178.2990  143.9130 C   0  0  0  0  0  3  0  0  0  0  0  0
  185.2160  178.6090  144.8450 C   0  0  0  0  0  3  0  0  0  0  0  0
  1 33  1  0  0  0  0
  1  2  1  0  0  0  0
  3  1  1  0  0  0  0
  5  4  1  6  0  0  0
  5  1  1  0  0  0  0
  6  8  1  0  0  0  0
  7 11  1  0  0  0  0
  7 10  2  0  0  0  0
  8  5  1  0  0  0  0
  9 11  2  0  0  0  0
 10  8  1  0  0  0  0
 11  6  1  0  0  0  0
 12  7  1  0  0  0  0
 14 13  1  1  0  0  0
 14 12  1  0  0  0  0
 15 14  1  0  0  0  0
 16 15  1  0  0  0  0
 17 16  1  6  0  0  0
 18 19  2  0  0  0  0
 18 17  1  0  0  0  0
 20 17  1  0  0  0  0
 20 21  1  0  0  0  0
 22 29  2  6  0  0  0
 22 23  1  0  0  0  0
 22 24  1  0  0  0  0
 23 25  1  6  0  0  0
 25 26  1  0  0  0  0
 26 30  1  1  0  0  0
 26 23  1  0  0  0  0
 27 21  1  1  0  0  0
 27 22  1  0  0  0  0
 28 27  1  0  0  0  0
 28 26  1  0  0  0  0
 30 32  1  6  0  0  0
 30 31  1  0  0  0  0
 33 35  1  1  0  0  0
 33 55  1  0  0  0  0
 34 37  1  0  0  0  0
 34 38  1  0  0  0  0
 36 35  1  0  0  0  0
 37 41  1  6  0  0  0
 37 39  1  0  0  0  0
 38 36  2  0  0  0  0
 39 36  1  0  0  0  0
 40 34  2  0  0  0  0
 42 47  1  0  0  0  0
 42 48  1  0  0  0  0
 43 44  1  1  0  0  0
 45 43  1  0  0  0  0
 45 41  1  1  0  0  0
 47 50  1  1  0  0  0
 47 45  1  0  0  0  0
 48 46  1  1  0  0  0
 48 43  1  0  0  0  0
 50 49  1  6  0  0  0
 52 51  1  6  0  0  0
 52 50  1  0  0  0  0
 52 53  1  0  0  0  0
 54 53  2  0  0  0  0
 56 62  1  0  0  0  0
 57 61  1  1  0  0  0
 57 62  1  0  0  0  0
 59 55  1  6  0  0  0
 59 56  1  0  0  0  0
 59 61  1  0  0  0  0
 59 57  1  0  0  0  0
 60 58  1  0  0  0  0
 62 58  2  0  0  0  0
 63 56  2  0  0  0  0
 63 64  1  0  0  0  0
 64 60  2  0  0  0  0
M  END
>  <MODEL>
9

>  <REMARK>
 VINA RESULT:      -5.2      2.740      4.245
  Name = 
  21 active torsions:
  status: ('A' for Active; 'I' for Inactive)
    1  A    between atoms: C_4  and  C_35
    2  A    between atoms: O_6  and  C_28
    3  A    between atoms: O_6  and  C_30
    4  A    between atoms: C_7  and  C_9
    5  A    between atoms: C_7  and  N_20
    6  A    between atoms: C_9  and  C_28
    7  A    between atoms: C_11  and  C_17
    8  A    between atoms: C_11  and  S_36
    9  A    between atoms: C_13  and  O_16
   10  A    between atoms: C_13  and  C_56
   11  A    between atoms: N_15  and  C_28
   12  A    between atoms: O_16  and  S_36
   13  A    between atoms: C_23  and  C_42
   14  A    between atoms: C_25  and  C_56
   15  A    between atoms: C_27  and  C_34
   16  A    between atoms: C_33  and  C_34
   17  A    between atoms: C_42  and  C_49
   18  A    between atoms: O_43  and  C_44
   19  A    between atoms: O_43  and  C_47
   20  A    between atoms: C_47  and  C_56
   21  A    between atoms: C_48  and  C_49
                            x       y       z     vdW  Elec       q    Type
                         _______ _______ _______ _____ _____    ______ ____

>  <TORSDO>
F 21

$$$$
