=
 OpenBabel10232412433D

 45 50  0  0  1  0  0  0  0  0999 V2000
  189.8030  177.8050  140.1470 C   0  0  0  0  0  0  0  0  0  0  0  0
  191.4000  177.4250  140.5070 S   0  0  0  0  0  0  0  0  0  0  0  0
  189.0750  177.9400  141.2390 N   0  0  0  0  0  0  0  0  0  0  0  0
  189.0280  177.9630  139.0170 C   0  0  0  0  0  0  0  0  0  0  0  0
  189.6970  177.7560  142.3960 N   0  0  0  0  0  0  0  0  0  0  0  0
  186.5200  178.3810  138.6610 C   0  0  0  0  0  1  0  0  0  0  0  0
  187.7340  178.1960  139.5070 C   0  0  0  0  0  0  0  0  0  0  0  0
  187.7920  178.1810  140.9140 C   0  0  0  0  0  0  0  0  0  0  0  0
  191.0110  177.4770  142.1760 C   0  0  0  0  0  0  0  0  0  0  0  0
  184.4820  179.2120  142.4430 C   0  0  0  0  0  3  0  0  0  0  0  0
  184.5810  178.6700  143.7290 C   0  0  0  0  0  0  0  0  0  0  0  0
  186.7730  177.7970  143.1770 C   0  0  0  0  0  3  0  0  0  0  0  0
  185.5280  179.0490  141.5320 C   0  0  0  0  0  3  0  0  0  0  0  0
  183.4640  178.8640  144.6930 C   0  0  0  0  0  1  0  0  0  0  0  0
  185.7310  177.9590  144.0960 C   0  0  0  0  0  0  0  0  0  0  0  0
  185.8500  177.4330  145.3410 F   0  0  0  0  0  0  0  0  0  0  0  0
  186.6830  178.3400  141.8870 C   0  0  0  0  0  0  0  0  0  0  0  0
  191.9300  175.6860  143.6210 C   0  0  0  0  0  2  0  0  0  0  0  0
  191.4600  175.6430  144.9980 N   0  0  0  0  0  0  0  0  0  0  0  0
  191.5870  177.8560  144.4870 N   0  0  0  0  0  2  0  0  0  0  0  0
  191.9850  177.1760  143.2670 C   0  0  2  0  0  3  0  0  0  0  0  0
  191.2850  176.8420  145.4260 C   0  0  0  0  0  0  0  0  0  0  0  0
  190.6730  177.1970  147.0740 S   0  0  0  0  0  0  0  0  0  0  0  0
  188.0730  177.7790  147.7610 C   0  0  0  0  0  1  0  0  0  0  0  0
  188.9580  177.5430  146.5510 C   0  0  0  0  0  0  0  0  0  0  0  0
  188.4630  176.4870  145.8100 F   0  0  0  0  0  0  0  0  0  0  0  0
  188.9500  178.6780  145.7680 F   0  0  0  0  0  0  0  0  0  0  0  0
  189.4140  177.7410  137.5860 C   0  0  0  0  0  2  0  0  0  0  0  0
  189.8020  176.3230  137.3150 C   0  0  0  0  0  0  0  0  0  0  0  0
  191.1410  175.9650  137.0810 C   0  0  0  0  0  0  0  0  0  0  0  0
  188.8050  175.3410  137.2990 C   0  0  0  0  0  3  0  0  0  0  0  0
  189.1340  174.0090  137.0420 C   0  0  0  0  0  3  0  0  0  0  0  0
  190.4630  173.6530  136.8060 C   0  0  0  0  0  3  0  0  0  0  0  0
  191.4730  174.6260  136.8260 C   0  0  0  0  0  0  0  0  0  0  0  0
  192.1130  176.9150  137.0900 F   0  0  0  0  0  0  0  0  0  0  0  0
  192.8400  174.2740  136.5700 N   0  0  0  0  0  2  0  0  0  0  0  0
  194.1060  172.2320  136.1490 C   0  0  2  0  0  3  0  0  0  0  0  0
  196.3950  171.3810  137.0190 C   0  0  0  0  0  1  0  0  0  0  0  0
  195.4480  175.1050  137.6150 O   0  0  0  0  0  0  0  0  0  0  0  0
  196.2680  173.2920  135.3930 C   0  0  0  0  0  1  0  0  0  0  0  0
  193.5090  173.1530  137.2160 C   0  0  1  0  0  3  0  0  0  0  0  0
  195.4020  173.1650  139.2180 O   0  0  0  0  0  0  0  0  0  0  0  0
  193.7730  170.9070  136.4420 O   0  0  0  0  0  1  0  0  0  0  0  0
  195.5660  172.5570  136.5190 C   0  0  0  0  0  0  0  0  0  0  0  0
  195.0990  173.6560  137.8310 S   0  0  0  0  0  0  0  0  0  0  0  0
  1  2  1  0  0  0  0
  1  3  1  0  0  0  0
  2  9  1  0  0  0  0
  3  5  1  0  0  0  0
  4  7  1  0  0  0  0
  4  1  2  0  0  0  0
  6  7  1  0  0  0  0
  7  8  2  0  0  0  0
  8  3  1  0  0  0  0
  8 17  1  0  0  0  0
  9  5  2  0  0  0  0
 10 11  1  0  0  0  0
 11 15  2  0  0  0  0
 11 14  1  0  0  0  0
 12 15  1  0  0  0  0
 13 17  1  0  0  0  0
 13 10  2  0  0  0  0
 15 16  1  0  0  0  0
 17 12  2  0  0  0  0
 18 19  1  0  0  0  0
 19 22  2  0  0  0  0
 20 22  1  0  0  0  0
 21  9  1  6  0  0  0
 21 18  1  0  0  0  0
 21 20  1  0  0  0  0
 22 23  1  0  0  0  0
 25 23  1  0  0  0  0
 25 24  1  0  0  0  0
 26 25  1  0  0  0  0
 27 25  1  0  0  0  0
 28  4  1  0  0  0  0
 29 28  1  0  0  0  0
 30 35  1  0  0  0  0
 30 29  2  0  0  0  0
 31 29  1  0  0  0  0
 32 31  2  0  0  0  0
 33 34  2  0  0  0  0
 33 32  1  0  0  0  0
 34 30  1  0  0  0  0
 36 34  1  0  0  0  0
 37 43  1  1  0  0  0
 37 44  1  0  0  0  0
 37 41  1  0  0  0  0
 39 45  2  0  0  0  0
 40 44  1  0  0  0  0
 41 36  1  6  0  0  0
 41 45  1  0  0  0  0
 44 38  1  0  0  0  0
 44 45  1  0  0  0  0
 45 42  2  0  0  0  0
M  END
>  <MODEL>
1

>  <REMARK>
 VINA RESULT:      -9.7      0.000      0.000
  Name = 
  8 active torsions:
  status: ('A' for Active; 'I' for Inactive)
    1  A    between atoms: C_6  and  C_32
    2  A    between atoms: C_9  and  N_18
    3  A    between atoms: C_15  and  S_16
    4  A    between atoms: S_16  and  C_36
    5  A    between atoms: C_17  and  C_32
    6  A    between atoms: N_18  and  C_37
    7  A    between atoms: C_28  and  C_34
    8  A    between atoms: C_31  and  C_40
                            x       y       z     vdW  Elec       q    Type
                         _______ _______ _______ _____ _____    ______ ____

>  <TORSDO>
F 8

$$$$
=
 OpenBabel10232412433D

 45 50  0  0  1  0  0  0  0  0999 V2000
  184.6990  178.7130  140.9870 C   0  0  0  0  0  0  0  0  0  0  0  0
  185.3630  178.7020  139.4430 S   0  0  0  0  0  0  0  0  0  0  0  0
  185.6260  178.5970  141.9180 N   0  0  0  0  0  0  0  0  0  0  0  0
  183.4410  178.7590  141.5490 C   0  0  0  0  0  0  0  0  0  0  0  0
  186.8810  178.4880  141.5000 N   0  0  0  0  0  0  0  0  0  0  0  0
  182.6000  178.5890  143.9690 C   0  0  0  0  0  1  0  0  0  0  0  0
  183.6670  178.6420  142.9290 C   0  0  0  0  0  0  0  0  0  0  0  0
  185.0560  178.5450  143.1350 C   0  0  0  0  0  0  0  0  0  0  0  0
  186.9220  178.5450  140.1400 C   0  0  0  0  0  0  0  0  0  0  0  0
  185.9920  178.7890  146.8000 C   0  0  0  0  0  3  0  0  0  0  0  0
  187.1860  178.0620  146.8380 C   0  0  0  0  0  0  0  0  0  0  0  0
  186.9880  177.6370  144.4600 C   0  0  0  0  0  3  0  0  0  0  0  0
  185.3030  178.9420  145.5940 C   0  0  0  0  0  3  0  0  0  0  0  0
  187.9160  177.9190  148.1270 C   0  0  0  0  0  1  0  0  0  0  0  0
  187.6850  177.4830  145.6630 C   0  0  0  0  0  0  0  0  0  0  0  0
  188.8450  176.7810  145.6770 F   0  0  0  0  0  0  0  0  0  0  0  0
  185.7920  178.3690  144.4120 C   0  0  0  0  0  0  0  0  0  0  0  0
  188.3600  176.9580  138.8950 C   0  0  0  0  0  2  0  0  0  0  0  0
  189.5730  176.5060  139.5600 N   0  0  0  0  0  0  0  0  0  0  0  0
  189.3300  178.6770  140.1920 N   0  0  0  0  0  2  0  0  0  0  0  0
  188.1790  178.4120  139.3460 C   0  0  2  0  0  3  0  0  0  0  0  0
  190.0640  177.4700  140.2540 C   0  0  0  0  0  0  0  0  0  0  0  0
  191.5440  177.2840  141.2490 S   0  0  0  0  0  0  0  0  0  0  0  0
  191.5610  176.4410  143.8690 C   0  0  0  0  0  1  0  0  0  0  0  0
  190.6620  177.0980  142.8380 C   0  0  0  0  0  0  0  0  0  0  0  0
  189.5200  176.3400  142.6640 F   0  0  0  0  0  0  0  0  0  0  0  0
  190.3000  178.3480  143.2970 F   0  0  0  0  0  0  0  0  0  0  0  0
  182.1120  178.7340  140.8580 C   0  0  0  0  0  2  0  0  0  0  0  0
  182.1970  178.1580  139.4810 C   0  0  0  0  0  0  0  0  0  0  0  0
  182.4590  176.7920  139.2770 C   0  0  0  0  0  0  0  0  0  0  0  0
  182.0100  179.0030  138.3820 C   0  0  0  0  0  3  0  0  0  0  0  0
  182.0910  178.4970  137.0840 C   0  0  0  0  0  3  0  0  0  0  0  0
  182.3540  177.1420  136.8800 C   0  0  0  0  0  3  0  0  0  0  0  0
  182.5370  176.2810  137.9730 C   0  0  0  0  0  0  0  0  0  0  0  0
  182.6470  175.9650  140.3410 F   0  0  0  0  0  0  0  0  0  0  0  0
  182.8220  174.8900  137.7740 N   0  0  0  0  0  2  0  0  0  0  0  0
  184.4700  173.0920  137.7190 C   0  0  2  0  0  3  0  0  0  0  0  0
  185.3080  171.5430  135.8180 C   0  0  0  0  0  1  0  0  0  0  0  0
  182.1010  173.6570  135.2160 O   0  0  0  0  0  0  0  0  0  0  0  0
  182.9990  171.2750  136.7700 C   0  0  0  0  0  1  0  0  0  0  0  0
  184.0130  174.4090  137.0870 C   0  0  1  0  0  3  0  0  0  0  0  0
  184.4490  174.0380  134.3920 O   0  0  0  0  0  0  0  0  0  0  0  0
  185.8460  173.1450  137.9560 O   0  0  0  0  0  1  0  0  0  0  0  0
  184.1290  172.2440  136.4790 C   0  0  0  0  0  0  0  0  0  0  0  0
  183.5700  173.6450  135.5460 S   0  0  0  0  0  0  0  0  0  0  0  0
  1  4  2  0  0  0  0
  1  3  1  0  0  0  0
  2  9  1  0  0  0  0
  2  1  1  0  0  0  0
  3  8  1  0  0  0  0
  4  7  1  0  0  0  0
  5  3  1  0  0  0  0
  7  8  2  0  0  0  0
  7  6  1  0  0  0  0
  8 17  1  0  0  0  0
  9  5  2  0  0  0  0
 10 11  1  0  0  0  0
 11 14  1  0  0  0  0
 12 15  1  0  0  0  0
 13 10  2  0  0  0  0
 15 16  1  0  0  0  0
 15 11  2  0  0  0  0
 17 12  2  0  0  0  0
 17 13  1  0  0  0  0
 18 21  1  0  0  0  0
 18 19  1  0  0  0  0
 19 22  2  0  0  0  0
 20 22  1  0  0  0  0
 21  9  1  1  0  0  0
 21 20  1  0  0  0  0
 22 23  1  0  0  0  0
 23 25  1  0  0  0  0
 25 27  1  0  0  0  0
 25 24  1  0  0  0  0
 26 25  1  0  0  0  0
 28  4  1  0  0  0  0
 29 28  1  0  0  0  0
 30 29  1  0  0  0  0
 30 35  1  0  0  0  0
 31 29  2  0  0  0  0
 32 31  1  0  0  0  0
 33 32  2  0  0  0  0
 33 34  1  0  0  0  0
 34 30  2  0  0  0  0
 36 34  1  0  0  0  0
 37 43  1  6  0  0  0
 38 44  1  0  0  0  0
 39 45  2  0  0  0  0
 41 37  1  0  0  0  0
 41 36  1  1  0  0  0
 42 45  2  0  0  0  0
 44 40  1  0  0  0  0
 44 37  1  0  0  0  0
 45 44  1  0  0  0  0
 45 41  1  0  0  0  0
M  END
>  <MODEL>
2

>  <REMARK>
 VINA RESULT:      -9.6      4.496      7.411
  Name = 
  8 active torsions:
  status: ('A' for Active; 'I' for Inactive)
    1  A    between atoms: C_6  and  C_32
    2  A    between atoms: C_9  and  N_18
    3  A    between atoms: C_15  and  S_16
    4  A    between atoms: S_16  and  C_36
    5  A    between atoms: C_17  and  C_32
    6  A    between atoms: N_18  and  C_37
    7  A    between atoms: C_28  and  C_34
    8  A    between atoms: C_31  and  C_40
                            x       y       z     vdW  Elec       q    Type
                         _______ _______ _______ _____ _____    ______ ____

>  <TORSDO>
F 8

$$$$
=
 OpenBabel10232412433D

 45 50  0  0  1  0  0  0  0  0999 V2000
  189.6860  177.9340  140.3390 C   0  0  0  0  0  0  0  0  0  0  0  0
  191.2900  177.5380  140.6490 S   0  0  0  0  0  0  0  0  0  0  0  0
  188.9830  178.0330  141.4510 N   0  0  0  0  0  0  0  0  0  0  0  0
  188.8870  178.1340  139.2340 C   0  0  0  0  0  0  0  0  0  0  0  0
  189.6310  177.8070  142.5870 N   0  0  0  0  0  0  0  0  0  0  0  0
  186.3720  178.5690  138.9490 C   0  0  0  0  0  1  0  0  0  0  0  0
  187.6040  178.3510  139.7610 C   0  0  0  0  0  0  0  0  0  0  0  0
  187.6940  178.2870  141.1640 C   0  0  0  0  0  0  0  0  0  0  0  0
  190.9390  177.5320  142.3270 C   0  0  0  0  0  0  0  0  0  0  0  0
  184.3980  179.2210  142.7840 C   0  0  0  0  0  3  0  0  0  0  0  0
  184.5490  178.6840  144.0660 C   0  0  0  0  0  0  0  0  0  0  0  0
  186.7490  177.8750  143.4550 C   0  0  0  0  0  3  0  0  0  0  0  0
  185.4230  179.0880  141.8440 C   0  0  0  0  0  3  0  0  0  0  0  0
  183.4530  178.8460  145.0610 C   0  0  0  0  0  1  0  0  0  0  0  0
  185.7280  178.0070  144.4020 C   0  0  0  0  0  0  0  0  0  0  0  0
  185.8970  177.4860  145.6430 F   0  0  0  0  0  0  0  0  0  0  0  0
  186.6080  178.4140  142.1670 C   0  0  0  0  0  0  0  0  0  0  0  0
  191.8990  175.6870  143.6730 C   0  0  0  0  0  2  0  0  0  0  0  0
  191.4570  175.5790  145.0550 N   0  0  0  0  0  0  0  0  0  0  0  0
  191.5580  177.8130  144.6410 N   0  0  0  0  0  2  0  0  0  0  0  0
  191.9370  177.1920  143.3840 C   0  0  2  0  0  3  0  0  0  0  0  0
  191.2820  176.7560  145.5400 C   0  0  0  0  0  0  0  0  0  0  0  0
  190.7010  177.0330  147.2140 S   0  0  0  0  0  0  0  0  0  0  0  0
  188.2290  177.9950  147.9460 C   0  0  0  0  0  1  0  0  0  0  0  0
  189.0170  177.5500  146.7290 C   0  0  0  0  0  0  0  0  0  0  0  0
  188.3600  176.5080  146.1030 F   0  0  0  0  0  0  0  0  0  0  0  0
  189.1110  178.6080  145.8490 F   0  0  0  0  0  0  0  0  0  0  0  0
  189.2390  177.9610  137.7870 C   0  0  0  0  0  2  0  0  0  0  0  0
  189.0480  176.5540  137.3190 C   0  0  0  0  0  0  0  0  0  0  0  0
  187.9520  176.1950  136.5160 C   0  0  0  0  0  0  0  0  0  0  0  0
  189.9850  175.5840  137.6940 C   0  0  0  0  0  3  0  0  0  0  0  0
  189.8310  174.2610  137.2790 C   0  0  0  0  0  3  0  0  0  0  0  0
  188.7420  173.9020  136.4840 C   0  0  0  0  0  3  0  0  0  0  0  0
  187.7990  174.8650  136.0950 C   0  0  0  0  0  0  0  0  0  0  0  0
  187.0350  177.1310  136.1530 F   0  0  0  0  0  0  0  0  0  0  0  0
  186.6670  174.5050  135.2910 N   0  0  0  0  0  2  0  0  0  0  0  0
  185.2860  174.1350  137.2670 C   0  0  2  0  0  3  0  0  0  0  0  0
  182.7250  174.2220  137.6550 C   0  0  0  0  0  1  0  0  0  0  0  0
  184.1560  175.6830  134.3470 O   0  0  0  0  0  0  0  0  0  0  0  0
  184.0370  176.3280  137.2570 C   0  0  0  0  0  1  0  0  0  0  0  0
  185.5290  173.7550  135.8040 C   0  0  1  0  0  3  0  0  0  0  0  0
  182.9940  173.4880  134.7580 O   0  0  0  0  0  0  0  0  0  0  0  0
  185.1190  172.9730  138.0260 O   0  0  0  0  0  1  0  0  0  0  0  0
  183.9460  174.8390  136.9830 C   0  0  0  0  0  0  0  0  0  0  0  0
  184.0080  174.4840  135.2460 S   0  0  0  0  0  0  0  0  0  0  0  0
  1  2  1  0  0  0  0
  1  3  1  0  0  0  0
  2  9  1  0  0  0  0
  3  5  1  0  0  0  0
  4  7  1  0  0  0  0
  4  1  2  0  0  0  0
  6  7  1  0  0  0  0
  7  8  2  0  0  0  0
  8  3  1  0  0  0  0
  8 17  1  0  0  0  0
  9  5  2  0  0  0  0
 10 11  1  0  0  0  0
 11 15  2  0  0  0  0
 11 14  1  0  0  0  0
 12 15  1  0  0  0  0
 13 17  1  0  0  0  0
 13 10  2  0  0  0  0
 15 16  1  0  0  0  0
 17 12  2  0  0  0  0
 18 19  1  0  0  0  0
 19 22  2  0  0  0  0
 20 22  1  0  0  0  0
 21  9  1  6  0  0  0
 21 18  1  0  0  0  0
 21 20  1  0  0  0  0
 22 23  1  0  0  0  0
 25 23  1  0  0  0  0
 25 24  1  0  0  0  0
 26 25  1  0  0  0  0
 27 25  1  0  0  0  0
 28  4  1  0  0  0  0
 29 31  1  0  0  0  0
 29 28  1  0  0  0  0
 30 29  2  0  0  0  0
 32 31  2  0  0  0  0
 33 32  1  0  0  0  0
 34 33  2  0  0  0  0
 34 30  1  0  0  0  0
 35 30  1  0  0  0  0
 36 34  1  0  0  0  0
 37 43  1  1  0  0  0
 39 45  2  0  0  0  0
 41 36  1  6  0  0  0
 41 37  1  0  0  0  0
 42 45  2  0  0  0  0
 44 40  1  0  0  0  0
 44 37  1  0  0  0  0
 44 38  1  0  0  0  0
 45 41  1  0  0  0  0
 45 44  1  0  0  0  0
M  END
>  <MODEL>
3

>  <REMARK>
 VINA RESULT:      -9.4      3.618      5.313
  Name = 
  8 active torsions:
  status: ('A' for Active; 'I' for Inactive)
    1  A    between atoms: C_6  and  C_32
    2  A    between atoms: C_9  and  N_18
    3  A    between atoms: C_15  and  S_16
    4  A    between atoms: S_16  and  C_36
    5  A    between atoms: C_17  and  C_32
    6  A    between atoms: N_18  and  C_37
    7  A    between atoms: C_28  and  C_34
    8  A    between atoms: C_31  and  C_40
                            x       y       z     vdW  Elec       q    Type
                         _______ _______ _______ _____ _____    ______ ____

>  <TORSDO>
F 8

$$$$
=
 OpenBabel10232412433D

 45 50  0  0  1  0  0  0  0  0999 V2000
  188.2600  178.0350  140.6440 C   0  0  0  0  0  0  0  0  0  0  0  0
  186.6570  178.4980  140.4440 S   0  0  0  0  0  0  0  0  0  0  0  0
  188.5070  177.6540  141.8830 N   0  0  0  0  0  0  0  0  0  0  0  0
  189.4060  177.9930  139.8800 C   0  0  0  0  0  0  0  0  0  0  0  0
  187.4920  177.7020  142.7360 N   0  0  0  0  0  0  0  0  0  0  0  0
  191.8480  177.4070  140.4180 C   0  0  0  0  0  1  0  0  0  0  0  0
  190.4060  177.5630  140.7660 C   0  0  0  0  0  0  0  0  0  0  0  0
  189.8100  177.3520  142.0240 C   0  0  0  0  0  0  0  0  0  0  0  0
  186.3710  178.1360  142.0960 C   0  0  0  0  0  0  0  0  0  0  0  0
  190.8930  177.3110  145.6550 C   0  0  0  0  0  3  0  0  0  0  0  0
  191.6870  176.1600  145.7030 C   0  0  0  0  0  0  0  0  0  0  0  0
  191.2480  175.7770  143.3500 C   0  0  0  0  0  3  0  0  0  0  0  0
  190.2850  177.6930  144.4570 C   0  0  0  0  0  3  0  0  0  0  0  0
  192.3390  175.7740  146.9830 C   0  0  0  0  0  1  0  0  0  0  0  0
  191.8630  175.3900  144.5460 C   0  0  0  0  0  0  0  0  0  0  0  0
  192.6360  174.2750  144.5690 F   0  0  0  0  0  0  0  0  0  0  0  0
  190.4540  176.9320  143.2930 C   0  0  0  0  0  0  0  0  0  0  0  0
  184.8600  179.8300  143.0890 C   0  0  0  0  0  2  0  0  0  0  0  0
  184.8220  179.9100  144.5410 N   0  0  0  0  0  0  0  0  0  0  0  0
  185.0700  177.6960  144.0790 N   0  0  0  0  0  2  0  0  0  0  0  0
  185.0590  178.3420  142.7780 C   0  0  2  0  0  3  0  0  0  0  0  0
  184.9420  178.7300  145.0360 C   0  0  0  0  0  0  0  0  0  0  0  0
  184.9770  178.4250  146.8030 S   0  0  0  0  0  0  0  0  0  0  0  0
  187.3320  178.4300  148.2270 C   0  0  0  0  0  1  0  0  0  0  0  0
  186.7610  178.0400  146.8760 C   0  0  0  0  0  0  0  0  0  0  0  0
  187.4350  178.7110  145.8740 F   0  0  0  0  0  0  0  0  0  0  0  0
  186.9330  176.6840  146.6970 F   0  0  0  0  0  0  0  0  0  0  0  0
  189.6070  178.4830  138.4780 C   0  0  0  0  0  2  0  0  0  0  0  0
  189.3260  177.4250  137.4590 C   0  0  0  0  0  0  0  0  0  0  0  0
  188.0790  177.3470  136.8150 C   0  0  0  0  0  0  0  0  0  0  0  0
  190.3300  176.5020  137.1490 C   0  0  0  0  0  3  0  0  0  0  0  0
  190.0960  175.4980  136.2080 C   0  0  0  0  0  3  0  0  0  0  0  0
  188.8570  175.4180  135.5690 C   0  0  0  0  0  3  0  0  0  0  0  0
  187.8440  176.3410  135.8660 C   0  0  0  0  0  0  0  0  0  0  0  0
  187.0970  178.2380  137.1160 F   0  0  0  0  0  0  0  0  0  0  0  0
  186.5620  176.2580  135.2270 N   0  0  0  0  0  2  0  0  0  0  0  0
  185.4120  175.0050  136.9740 C   0  0  2  0  0  3  0  0  0  0  0  0
  182.9110  174.4600  137.3810 C   0  0  0  0  0  1  0  0  0  0  0  0
  183.8190  177.1640  134.7380 O   0  0  0  0  0  0  0  0  0  0  0  0
  183.7850  176.7940  137.6980 C   0  0  0  0  0  1  0  0  0  0  0  0
  185.6190  175.1750  135.4670 C   0  0  1  0  0  3  0  0  0  0  0  0
  183.1100  174.7720  134.4030 O   0  0  0  0  0  0  0  0  0  0  0  0
  185.5130  173.6510  137.3060 O   0  0  0  0  0  1  0  0  0  0  0  0
  183.9490  175.4870  136.9460 C   0  0  0  0  0  0  0  0  0  0  0  0
  183.9550  175.7340  135.1900 S   0  0  0  0  0  0  0  0  0  0  0  0
  1  3  1  0  0  0  0
  2  1  1  0  0  0  0
  2  9  1  0  0  0  0
  3  8  1  0  0  0  0
  3  5  1  0  0  0  0
  4  1  2  0  0  0  0
  4  7  1  0  0  0  0
  6  7  1  0  0  0  0
  7  8  2  0  0  0  0
  8 17  1  0  0  0  0
  9  5  2  0  0  0  0
 10 11  1  0  0  0  0
 11 14  1  0  0  0  0
 12 15  1  0  0  0  0
 13 10  2  0  0  0  0
 15 16  1  0  0  0  0
 15 11  2  0  0  0  0
 17 12  2  0  0  0  0
 17 13  1  0  0  0  0
 18 19  1  0  0  0  0
 19 22  2  0  0  0  0
 20 22  1  0  0  0  0
 21  9  1  1  0  0  0
 21 18  1  0  0  0  0
 21 20  1  0  0  0  0
 22 23  1  0  0  0  0
 23 25  1  0  0  0  0
 25 24  1  0  0  0  0
 26 25  1  0  0  0  0
 27 25  1  0  0  0  0
 28  4  1  0  0  0  0
 29 28  1  0  0  0  0
 30 35  1  0  0  0  0
 30 29  2  0  0  0  0
 31 29  1  0  0  0  0
 32 31  2  0  0  0  0
 33 34  2  0  0  0  0
 33 32  1  0  0  0  0
 34 30  1  0  0  0  0
 36 34  1  0  0  0  0
 37 43  1  6  0  0  0
 39 45  2  0  0  0  0
 41 36  1  1  0  0  0
 41 37  1  0  0  0  0
 42 45  2  0  0  0  0
 44 37  1  0  0  0  0
 44 38  1  0  0  0  0
 44 40  1  0  0  0  0
 45 41  1  0  0  0  0
 45 44  1  0  0  0  0
M  END
>  <MODEL>
4

>  <REMARK>
 VINA RESULT:      -9.1      4.193      6.874
  Name = 
  8 active torsions:
  status: ('A' for Active; 'I' for Inactive)
    1  A    between atoms: C_6  and  C_32
    2  A    between atoms: C_9  and  N_18
    3  A    between atoms: C_15  and  S_16
    4  A    between atoms: S_16  and  C_36
    5  A    between atoms: C_17  and  C_32
    6  A    between atoms: N_18  and  C_37
    7  A    between atoms: C_28  and  C_34
    8  A    between atoms: C_31  and  C_40
                            x       y       z     vdW  Elec       q    Type
                         _______ _______ _______ _____ _____    ______ ____

>  <TORSDO>
F 8

$$$$
=
 OpenBabel10232412433D

 45 50  0  0  1  0  0  0  0  0999 V2000
  188.9170  177.6750  140.7100 C   0  0  0  0  0  0  0  0  0  0  0  0
  187.3370  178.1100  140.3410 S   0  0  0  0  0  0  0  0  0  0  0  0
  189.0530  177.3620  141.9850 N   0  0  0  0  0  0  0  0  0  0  0  0
  190.1290  177.6050  140.0560 C   0  0  0  0  0  0  0  0  0  0  0  0
  187.9640  177.4430  142.7380 N   0  0  0  0  0  0  0  0  0  0  0  0
  192.5140  177.0740  140.8440 C   0  0  0  0  0  1  0  0  0  0  0  0
  191.0460  177.2330  141.0510 C   0  0  0  0  0  0  0  0  0  0  0  0
  190.3390  177.0810  142.2590 C   0  0  0  0  0  0  0  0  0  0  0  0
  186.9030  177.8310  141.9770 C   0  0  0  0  0  0  0  0  0  0  0  0
  191.1930  177.3020  145.9440 C   0  0  0  0  0  3  0  0  0  0  0  0
  191.8810  176.1020  146.1500 C   0  0  0  0  0  0  0  0  0  0  0  0
  191.5540  175.5310  143.8180 C   0  0  0  0  0  3  0  0  0  0  0  0
  190.6940  177.6150  144.6780 C   0  0  0  0  0  3  0  0  0  0  0  0
  192.4190  175.7890  147.5020 C   0  0  0  0  0  1  0  0  0  0  0  0
  192.0600  175.2120  145.0830 C   0  0  0  0  0  0  0  0  0  0  0  0
  192.7310  174.0460  145.2590 F   0  0  0  0  0  0  0  0  0  0  0  0
  190.8670  176.7340  143.6020 C   0  0  0  0  0  0  0  0  0  0  0  0
  185.2310  179.5610  142.5690 C   0  0  0  0  0  2  0  0  0  0  0  0
  185.0770  179.8730  143.9820 N   0  0  0  0  0  0  0  0  0  0  0  0
  185.4780  177.6350  143.9120 N   0  0  0  0  0  2  0  0  0  0  0  0
  185.5330  178.0590  142.5240 C   0  0  2  0  0  3  0  0  0  0  0  0
  185.2210  178.7990  144.6740 C   0  0  0  0  0  0  0  0  0  0  0  0
  185.1360  178.7870  146.4650 S   0  0  0  0  0  0  0  0  0  0  0  0
  187.3250  178.4120  148.0900 C   0  0  0  0  0  1  0  0  0  0  0  0
  186.7940  178.0620  146.7120 C   0  0  0  0  0  0  0  0  0  0  0  0
  187.6660  178.5240  145.7450 F   0  0  0  0  0  0  0  0  0  0  0  0
  186.7020  176.6900  146.6070 F   0  0  0  0  0  0  0  0  0  0  0  0
  190.4550  178.0240  138.6540 C   0  0  0  0  0  2  0  0  0  0  0  0
  190.7430  176.8570  137.7650 C   0  0  0  0  0  0  0  0  0  0  0  0
  192.0580  176.5330  137.3900 C   0  0  0  0  0  0  0  0  0  0  0  0
  189.6750  176.0790  137.3030 C   0  0  0  0  0  3  0  0  0  0  0  0
  189.9110  174.9880  136.4660 C   0  0  0  0  0  3  0  0  0  0  0  0
  191.2160  174.6670  136.0910 C   0  0  0  0  0  3  0  0  0  0  0  0
  192.2960  175.4340  136.5510 C   0  0  0  0  0  0  0  0  0  0  0  0
  193.1000  177.2880  137.8310 F   0  0  0  0  0  0  0  0  0  0  0  0
  193.6410  175.1220  136.1600 N   0  0  0  0  0  2  0  0  0  0  0  0
  195.4950  173.6690  135.5290 C   0  0  2  0  0  3  0  0  0  0  0  0
  197.3630  172.5170  136.9070 C   0  0  0  0  0  1  0  0  0  0  0  0
  195.2320  175.2840  138.6150 O   0  0  0  0  0  0  0  0  0  0  0  0
  197.3740  175.0050  136.5570 C   0  0  0  0  0  1  0  0  0  0  0  0
  194.2770  173.8420  136.4390 C   0  0  1  0  0  3  0  0  0  0  0  0
  195.0910  172.7810  138.8480 O   0  0  0  0  0  0  0  0  0  0  0  0
  195.4660  172.3960  134.9530 O   0  0  0  0  0  1  0  0  0  0  0  0
  196.5140  173.7610  136.6810 C   0  0  0  0  0  0  0  0  0  0  0  0
  195.2570  173.9490  137.9170 S   0  0  0  0  0  0  0  0  0  0  0  0
  1  3  1  0  0  0  0
  2  1  1  0  0  0  0
  2  9  1  0  0  0  0
  3  8  1  0  0  0  0
  3  5  1  0  0  0  0
  4  1  2  0  0  0  0
  4  7  1  0  0  0  0
  6  7  1  0  0  0  0
  7  8  2  0  0  0  0
  8 17  1  0  0  0  0
  9  5  2  0  0  0  0
 10 11  1  0  0  0  0
 11 14  1  0  0  0  0
 12 15  1  0  0  0  0
 13 10  2  0  0  0  0
 15 16  1  0  0  0  0
 15 11  2  0  0  0  0
 17 12  2  0  0  0  0
 17 13  1  0  0  0  0
 18 19  1  0  0  0  0
 19 22  2  0  0  0  0
 20 22  1  0  0  0  0
 21  9  1  1  0  0  0
 21 18  1  0  0  0  0
 21 20  1  0  0  0  0
 22 23  1  0  0  0  0
 23 25  1  0  0  0  0
 25 24  1  0  0  0  0
 26 25  1  0  0  0  0
 27 25  1  0  0  0  0
 28  4  1  0  0  0  0
 29 28  1  0  0  0  0
 30 29  1  0  0  0  0
 30 35  1  0  0  0  0
 31 29  2  0  0  0  0
 32 31  1  0  0  0  0
 33 32  2  0  0  0  0
 33 34  1  0  0  0  0
 34 30  2  0  0  0  0
 36 34  1  0  0  0  0
 37 43  1  1  0  0  0
 37 41  1  0  0  0  0
 37 44  1  0  0  0  0
 40 44  1  0  0  0  0
 41 36  1  6  0  0  0
 41 45  1  0  0  0  0
 44 38  1  0  0  0  0
 44 45  1  0  0  0  0
 45 39  2  0  0  0  0
 45 42  2  0  0  0  0
M  END
>  <MODEL>
5

>  <REMARK>
 VINA RESULT:      -9.0      2.074      4.387
  Name = 
  8 active torsions:
  status: ('A' for Active; 'I' for Inactive)
    1  A    between atoms: C_6  and  C_32
    2  A    between atoms: C_9  and  N_18
    3  A    between atoms: C_15  and  S_16
    4  A    between atoms: S_16  and  C_36
    5  A    between atoms: C_17  and  C_32
    6  A    between atoms: N_18  and  C_37
    7  A    between atoms: C_28  and  C_34
    8  A    between atoms: C_31  and  C_40
                            x       y       z     vdW  Elec       q    Type
                         _______ _______ _______ _____ _____    ______ ____

>  <TORSDO>
F 8

$$$$
=
 OpenBabel10232412433D

 45 50  0  0  1  0  0  0  0  0999 V2000
  188.0980  178.0870  139.9630 C   0  0  0  0  0  0  0  0  0  0  0  0
  186.8420  178.5330  138.9390 S   0  0  0  0  0  0  0  0  0  0  0  0
  187.7190  178.0780  141.2260 N   0  0  0  0  0  0  0  0  0  0  0  0
  189.4360  177.7750  139.8490 C   0  0  0  0  0  0  0  0  0  0  0  0
  186.4600  178.4160  141.4730 N   0  0  0  0  0  0  0  0  0  0  0  0
  191.2690  177.2780  141.5780 C   0  0  0  0  0  1  0  0  0  0  0  0
  189.8670  177.5870  141.1710 C   0  0  0  0  0  0  0  0  0  0  0  0
  188.7620  177.7800  142.0210 C   0  0  0  0  0  0  0  0  0  0  0  0
  185.8150  178.6860  140.3040 C   0  0  0  0  0  0  0  0  0  0  0  0
  189.8190  177.9910  145.6540 C   0  0  0  0  0  3  0  0  0  0  0  0
  188.6460  177.6110  146.3150 C   0  0  0  0  0  0  0  0  0  0  0  0
  187.5400  177.3520  144.1740 C   0  0  0  0  0  3  0  0  0  0  0  0
  189.8510  178.0450  144.2590 C   0  0  0  0  0  3  0  0  0  0  0  0
  188.6320  177.5450  147.8020 C   0  0  0  0  0  1  0  0  0  0  0  0
  187.5020  177.2920  145.5710 C   0  0  0  0  0  0  0  0  0  0  0  0
  186.3570  176.9140  146.1920 F   0  0  0  0  0  0  0  0  0  0  0  0
  188.7140  177.7270  143.5040 C   0  0  0  0  0  0  0  0  0  0  0  0
  183.5340  178.3180  141.1980 C   0  0  0  0  0  2  0  0  0  0  0  0
  182.6040  177.5860  140.3520 N   0  0  0  0  0  0  0  0  0  0  0  0
  183.8490  178.8370  138.9160 N   0  0  0  0  0  2  0  0  0  0  0  0
  184.3940  179.1370  140.2290 C   0  0  2  0  0  3  0  0  0  0  0  0
  182.8120  177.8970  139.1220 C   0  0  0  0  0  0  0  0  0  0  0  0
  181.8820  177.1680  137.7730 S   0  0  0  0  0  0  0  0  0  0  0  0
  182.5460  174.9000  136.3630 C   0  0  0  0  0  1  0  0  0  0  0  0
  183.0430  175.7860  137.4900 C   0  0  0  0  0  0  0  0  0  0  0  0
  183.1850  175.0380  138.6430 F   0  0  0  0  0  0  0  0  0  0  0  0
  184.2730  176.3010  137.1400 F   0  0  0  0  0  0  0  0  0  0  0  0
  190.3020  177.8220  138.6270 C   0  0  0  0  0  2  0  0  0  0  0  0
  190.5790  176.4610  138.0750 C   0  0  0  0  0  0  0  0  0  0  0  0
  191.8660  175.8970  138.1360 C   0  0  0  0  0  0  0  0  0  0  0  0
  189.5310  175.7430  137.4890 C   0  0  0  0  0  3  0  0  0  0  0  0
  189.7590  174.4720  136.9570 C   0  0  0  0  0  3  0  0  0  0  0  0
  191.0370  173.9130  137.0150 C   0  0  0  0  0  3  0  0  0  0  0  0
  192.0950  174.6190  137.6050 C   0  0  0  0  0  0  0  0  0  0  0  0
  192.8900  176.5910  138.6990 F   0  0  0  0  0  0  0  0  0  0  0  0
  193.4150  174.0590  137.6560 N   0  0  0  0  0  2  0  0  0  0  0  0
  195.5430  174.1370  138.8460 C   0  0  2  0  0  3  0  0  0  0  0  0
  197.9820  174.5030  138.0490 C   0  0  0  0  0  1  0  0  0  0  0  0
  195.2440  173.7810  135.3840 O   0  0  0  0  0  0  0  0  0  0  0  0
  196.7660  172.3680  137.5250 C   0  0  0  0  0  1  0  0  0  0  0  0
  194.6140  174.8590  137.8670 C   0  0  1  0  0  3  0  0  0  0  0  0
  196.3290  175.9630  136.0150 O   0  0  0  0  0  0  0  0  0  0  0  0
  195.9800  175.0380  139.8200 O   0  0  0  0  0  1  0  0  0  0  0  0
  196.6280  173.8550  137.7890 C   0  0  0  0  0  0  0  0  0  0  0  0
  195.7290  174.6730  136.4970 S   0  0  0  0  0  0  0  0  0  0  0  0
  1  3  1  0  0  0  0
  2  1  1  0  0  0  0
  2  9  1  0  0  0  0
  3  5  1  0  0  0  0
  3  8  1  0  0  0  0
  4  1  2  0  0  0  0
  4  7  1  0  0  0  0
  7  6  1  0  0  0  0
  7  8  2  0  0  0  0
  8 17  1  0  0  0  0
  9  5  2  0  0  0  0
 10 11  1  0  0  0  0
 11 14  1  0  0  0  0
 12 15  1  0  0  0  0
 13 10  2  0  0  0  0
 15 16  1  0  0  0  0
 15 11  2  0  0  0  0
 17 12  2  0  0  0  0
 17 13  1  0  0  0  0
 19 18  1  0  0  0  0
 20 22  1  0  0  0  0
 20 21  1  0  0  0  0
 21  9  1  6  0  0  0
 21 18  1  0  0  0  0
 22 19  2  0  0  0  0
 23 22  1  0  0  0  0
 24 25  1  0  0  0  0
 25 23  1  0  0  0  0
 25 26  1  0  0  0  0
 27 25  1  0  0  0  0
 28  4  1  0  0  0  0
 29 30  1  0  0  0  0
 29 28  1  0  0  0  0
 30 35  1  0  0  0  0
 31 29  2  0  0  0  0
 32 33  2  0  0  0  0
 32 31  1  0  0  0  0
 33 34  1  0  0  0  0
 34 36  1  0  0  0  0
 34 30  2  0  0  0  0
 37 43  1  1  0  0  0
 39 45  2  0  0  0  0
 40 44  1  0  0  0  0
 41 36  1  6  0  0  0
 41 37  1  0  0  0  0
 42 45  2  0  0  0  0
 44 38  1  0  0  0  0
 44 37  1  0  0  0  0
 45 44  1  0  0  0  0
 45 41  1  0  0  0  0
M  END
>  <MODEL>
6

>  <REMARK>
 VINA RESULT:      -8.8      3.281      5.727
  Name = 
  8 active torsions:
  status: ('A' for Active; 'I' for Inactive)
    1  A    between atoms: C_6  and  C_32
    2  A    between atoms: C_9  and  N_18
    3  A    between atoms: C_15  and  S_16
    4  A    between atoms: S_16  and  C_36
    5  A    between atoms: C_17  and  C_32
    6  A    between atoms: N_18  and  C_37
    7  A    between atoms: C_28  and  C_34
    8  A    between atoms: C_31  and  C_40
                            x       y       z     vdW  Elec       q    Type
                         _______ _______ _______ _____ _____    ______ ____

>  <TORSDO>
F 8

$$$$
=
 OpenBabel10232412433D

 45 50  0  0  1  0  0  0  0  0999 V2000
  189.4660  177.5730  138.6220 C   0  0  0  0  0  0  0  0  0  0  0  0
  188.9890  178.2030  140.1050 S   0  0  0  0  0  0  0  0  0  0  0  0
  190.4900  176.7510  138.7460 N   0  0  0  0  0  0  0  0  0  0  0  0
  189.1130  177.7200  137.2970 C   0  0  0  0  0  0  0  0  0  0  0  0
  190.9620  176.5670  139.9730 N   0  0  0  0  0  0  0  0  0  0  0  0
  190.0880  176.7880  135.1130 C   0  0  0  0  0  1  0  0  0  0  0  0
  190.0290  176.9210  136.5970 C   0  0  0  0  0  0  0  0  0  0  0  0
  190.8850  176.3160  137.5360 C   0  0  0  0  0  0  0  0  0  0  0  0
  190.2280  177.2900  140.8630 C   0  0  0  0  0  0  0  0  0  0  0  0
  194.4410  175.0440  137.2230 C   0  0  0  0  0  3  0  0  0  0  0  0
  194.2360  173.7240  136.8080 C   0  0  0  0  0  0  0  0  0  0  0  0
  191.8420  174.0880  136.8790 C   0  0  0  0  0  3  0  0  0  0  0  0
  193.3490  175.8820  137.4590 C   0  0  0  0  0  3  0  0  0  0  0  0
  195.4110  172.8480  136.5480 C   0  0  0  0  0  1  0  0  0  0  0  0
  192.9310  173.2440  136.6380 C   0  0  0  0  0  0  0  0  0  0  0  0
  192.7110  171.9700  136.2280 F   0  0  0  0  0  0  0  0  0  0  0  0
  192.0380  175.4140  137.2910 C   0  0  0  0  0  0  0  0  0  0  0  0
  190.4880  175.9240  142.9140 C   0  0  0  0  0  2  0  0  0  0  0  0
  189.3800  175.9310  143.8560 N   0  0  0  0  0  0  0  0  0  0  0  0
  189.4560  178.0450  143.0200 N   0  0  0  0  0  2  0  0  0  0  0  0
  190.5200  177.3390  142.3270 C   0  0  2  0  0  3  0  0  0  0  0  0
  188.8480  177.1010  143.8790 C   0  0  0  0  0  0  0  0  0  0  0  0
  187.4250  177.4930  144.8980 S   0  0  0  0  0  0  0  0  0  0  0  0
  187.5190  178.3430  147.5140 C   0  0  0  0  0  1  0  0  0  0  0  0
  188.3690  177.6710  146.4520 C   0  0  0  0  0  0  0  0  0  0  0  0
  189.5130  178.4130  146.2330 F   0  0  0  0  0  0  0  0  0  0  0  0
  188.7310  176.4180  146.9000 F   0  0  0  0  0  0  0  0  0  0  0  0
  188.1170  178.6670  136.7000 C   0  0  0  0  0  2  0  0  0  0  0  0
  186.7670  178.0450  136.5360 C   0  0  0  0  0  0  0  0  0  0  0  0
  185.8760  177.9440  137.6180 C   0  0  0  0  0  0  0  0  0  0  0  0
  186.3950  177.5600  135.2780 C   0  0  0  0  0  3  0  0  0  0  0  0
  185.1440  176.9670  135.0950 C   0  0  0  0  0  3  0  0  0  0  0  0
  184.2590  176.8630  136.1690 C   0  0  0  0  0  3  0  0  0  0  0  0
  184.6170  177.3520  137.4340 C   0  0  0  0  0  0  0  0  0  0  0  0
  186.2330  178.4090  138.8450 F   0  0  0  0  0  0  0  0  0  0  0  0
  183.7210  177.2360  138.5480 N   0  0  0  0  0  2  0  0  0  0  0  0
  181.6510  177.3890  139.8290 C   0  0  2  0  0  3  0  0  0  0  0  0
  180.3030  179.4040  140.7440 C   0  0  0  0  0  1  0  0  0  0  0  0
  183.9120  180.0210  139.4370 O   0  0  0  0  0  0  0  0  0  0  0  0
  182.5140  178.7710  141.7560 C   0  0  0  0  0  1  0  0  0  0  0  0
  182.4010  177.8520  138.5780 C   0  0  1  0  0  3  0  0  0  0  0  0
  181.7030  180.5060  138.3310 O   0  0  0  0  0  0  0  0  0  0  0  0
  180.3580  176.9930  139.4740 O   0  0  0  0  0  1  0  0  0  0  0  0
  181.6690  178.7770  140.4960 C   0  0  0  0  0  0  0  0  0  0  0  0
  182.5190  179.5350  139.1370 S   0  0  0  0  0  0  0  0  0  0  0  0
  1  3  1  0  0  0  0
  1  2  1  0  0  0  0
  2  9  1  0  0  0  0
  3  5  1  0  0  0  0
  4  1  2  0  0  0  0
  5  9  2  0  0  0  0
  6  7  1  0  0  0  0
  7  4  1  0  0  0  0
  7  8  2  0  0  0  0
  8  3  1  0  0  0  0
 10 13  1  0  0  0  0
 11 10  2  0  0  0  0
 12 17  1  0  0  0  0
 14 11  1  0  0  0  0
 15 11  1  0  0  0  0
 15 12  2  0  0  0  0
 16 15  1  0  0  0  0
 17 13  2  0  0  0  0
 17  8  1  0  0  0  0
 18 19  1  0  0  0  0
 19 22  2  0  0  0  0
 20 22  1  0  0  0  0
 21  9  1  6  0  0  0
 21 18  1  0  0  0  0
 21 20  1  0  0  0  0
 22 23  1  0  0  0  0
 23 25  1  0  0  0  0
 25 27  1  0  0  0  0
 25 24  1  0  0  0  0
 26 25  1  0  0  0  0
 28  4  1  0  0  0  0
 29 28  1  0  0  0  0
 29 30  1  0  0  0  0
 30 35  1  0  0  0  0
 31 29  2  0  0  0  0
 32 31  1  0  0  0  0
 32 33  2  0  0  0  0
 33 34  1  0  0  0  0
 34 30  2  0  0  0  0
 34 36  1  0  0  0  0
 37 43  1  6  0  0  0
 37 44  1  0  0  0  0
 41 36  1  1  0  0  0
 41 45  1  0  0  0  0
 41 37  1  0  0  0  0
 42 45  2  0  0  0  0
 44 38  1  0  0  0  0
 44 40  1  0  0  0  0
 45 39  2  0  0  0  0
 45 44  1  0  0  0  0
M  END
>  <MODEL>
7

>  <REMARK>
 VINA RESULT:      -8.6      4.713      8.902
  Name = 
  8 active torsions:
  status: ('A' for Active; 'I' for Inactive)
    1  A    between atoms: C_6  and  C_32
    2  A    between atoms: C_9  and  N_18
    3  A    between atoms: C_15  and  S_16
    4  A    between atoms: S_16  and  C_36
    5  A    between atoms: C_17  and  C_32
    6  A    between atoms: N_18  and  C_37
    7  A    between atoms: C_28  and  C_34
    8  A    between atoms: C_31  and  C_40
                            x       y       z     vdW  Elec       q    Type
                         _______ _______ _______ _____ _____    ______ ____

>  <TORSDO>
F 8

$$$$
=
 OpenBabel10232412433D

 45 50  0  0  1  0  0  0  0  0999 V2000
  188.7000  177.9160  140.0580 C   0  0  0  0  0  0  0  0  0  0  0  0
  187.2500  178.5080  139.4460 S   0  0  0  0  0  0  0  0  0  0  0  0
  188.6770  177.8330  141.3740 N   0  0  0  0  0  0  0  0  0  0  0  0
  189.9310  177.5410  139.5630 C   0  0  0  0  0  0  0  0  0  0  0  0
  187.5600  178.2200  141.9770 N   0  0  0  0  0  0  0  0  0  0  0  0
  192.1210  176.8140  140.6900 C   0  0  0  0  0  1  0  0  0  0  0  0
  190.6880  177.2290  140.7030 C   0  0  0  0  0  0  0  0  0  0  0  0
  189.8710  177.4180  141.8330 C   0  0  0  0  0  0  0  0  0  0  0  0
  186.6450  178.6130  141.0480 C   0  0  0  0  0  0  0  0  0  0  0  0
  191.6090  176.2460  144.9900 C   0  0  0  0  0  3  0  0  0  0  0  0
  190.8860  176.9190  145.9800 C   0  0  0  0  0  0  0  0  0  0  0  0
  189.5050  177.9310  144.2650 C   0  0  0  0  0  3  0  0  0  0  0  0
  191.2750  176.4120  143.6440 C   0  0  0  0  0  3  0  0  0  0  0  0
  191.2450  176.7220  147.4110 C   0  0  0  0  0  1  0  0  0  0  0  0
  189.8320  177.7670  145.6150 C   0  0  0  0  0  0  0  0  0  0  0  0
  189.1130  178.4230  146.5610 F   0  0  0  0  0  0  0  0  0  0  0  0
  190.2220  177.2550  143.2660 C   0  0  0  0  0  0  0  0  0  0  0  0
  184.4290  178.0290  141.9910 C   0  0  0  0  0  2  0  0  0  0  0  0
  183.3370  177.8510  141.0460 N   0  0  0  0  0  0  0  0  0  0  0  0
  184.5930  179.5390  140.1830 N   0  0  0  0  0  2  0  0  0  0  0  0
  185.2940  179.1450  141.3930 C   0  0  2  0  0  3  0  0  0  0  0  0
  183.4670  178.6890  140.0800 C   0  0  0  0  0  0  0  0  0  0  0  0
  182.3280  178.7510  138.6970 S   0  0  0  0  0  0  0  0  0  0  0  0
  182.5840  177.4050  136.3100 C   0  0  0  0  0  1  0  0  0  0  0  0
  183.2290  177.5320  137.6770 C   0  0  0  0  0  0  0  0  0  0  0  0
  183.2400  176.3010  138.3030 F   0  0  0  0  0  0  0  0  0  0  0  0
  184.5300  177.9590  137.5160 F   0  0  0  0  0  0  0  0  0  0  0  0
  190.4350  177.6330  138.1550 C   0  0  0  0  0  2  0  0  0  0  0  0
  190.7680  176.2930  137.5820 C   0  0  0  0  0  0  0  0  0  0  0  0
  192.0720  175.9860  137.1570 C   0  0  0  0  0  0  0  0  0  0  0  0
  189.7550  175.3340  137.4720 C   0  0  0  0  0  3  0  0  0  0  0  0
  190.0330  174.0760  136.9350 C   0  0  0  0  0  3  0  0  0  0  0  0
  191.3260  173.7710  136.5100 C   0  0  0  0  0  3  0  0  0  0  0  0
  192.3530  174.7200  136.6200 C   0  0  0  0  0  0  0  0  0  0  0  0
  193.0600  176.9140  137.2560 F   0  0  0  0  0  0  0  0  0  0  0  0
  193.6830  174.4220  136.1730 N   0  0  0  0  0  2  0  0  0  0  0  0
  195.7000  173.1030  135.7950 C   0  0  2  0  0  3  0  0  0  0  0  0
  197.6690  172.4340  137.3410 C   0  0  0  0  0  1  0  0  0  0  0  0
  195.2120  175.1950  138.5490 O   0  0  0  0  0  0  0  0  0  0  0  0
  197.3990  174.8060  136.5580 C   0  0  0  0  0  1  0  0  0  0  0  0
  194.4570  173.2920  136.6690 C   0  0  1  0  0  3  0  0  0  0  0  0
  195.3550  172.7730  139.2210 O   0  0  0  0  0  0  0  0  0  0  0  0
  195.8250  171.7540  135.4530 O   0  0  0  0  0  1  0  0  0  0  0  0
  196.6860  173.5130  136.9050 C   0  0  0  0  0  0  0  0  0  0  0  0
  195.3990  173.7700  138.0980 S   0  0  0  0  0  0  0  0  0  0  0  0
  1  3  1  0  0  0  0
  2  1  1  0  0  0  0
  2  9  1  0  0  0  0
  3  8  1  0  0  0  0
  3  5  1  0  0  0  0
  4  1  2  0  0  0  0
  4  7  1  0  0  0  0
  6  7  1  0  0  0  0
  7  8  2  0  0  0  0
  8 17  1  0  0  0  0
  9  5  2  0  0  0  0
 10 11  1  0  0  0  0
 11 14  1  0  0  0  0
 12 15  1  0  0  0  0
 13 10  2  0  0  0  0
 15 11  2  0  0  0  0
 15 16  1  0  0  0  0
 17 13  1  0  0  0  0
 17 12  2  0  0  0  0
 19 18  1  0  0  0  0
 20 21  1  0  0  0  0
 21  9  1  6  0  0  0
 21 18  1  0  0  0  0
 22 20  1  0  0  0  0
 22 19  2  0  0  0  0
 23 22  1  0  0  0  0
 24 25  1  0  0  0  0
 25 26  1  0  0  0  0
 25 23  1  0  0  0  0
 27 25  1  0  0  0  0
 28  4  1  0  0  0  0
 29 28  1  0  0  0  0
 30 35  1  0  0  0  0
 30 29  2  0  0  0  0
 31 29  1  0  0  0  0
 32 31  2  0  0  0  0
 33 34  2  0  0  0  0
 33 32  1  0  0  0  0
 34 30  1  0  0  0  0
 36 34  1  0  0  0  0
 37 43  1  1  0  0  0
 37 41  1  0  0  0  0
 37 44  1  0  0  0  0
 40 44  1  0  0  0  0
 41 36  1  6  0  0  0
 41 45  1  0  0  0  0
 44 38  1  0  0  0  0
 44 45  1  0  0  0  0
 45 39  2  0  0  0  0
 45 42  2  0  0  0  0
M  END
>  <MODEL>
8

>  <REMARK>
 VINA RESULT:      -8.5      2.896      5.527
  Name = 
  8 active torsions:
  status: ('A' for Active; 'I' for Inactive)
    1  A    between atoms: C_6  and  C_32
    2  A    between atoms: C_9  and  N_18
    3  A    between atoms: C_15  and  S_16
    4  A    between atoms: S_16  and  C_36
    5  A    between atoms: C_17  and  C_32
    6  A    between atoms: N_18  and  C_37
    7  A    between atoms: C_28  and  C_34
    8  A    between atoms: C_31  and  C_40
                            x       y       z     vdW  Elec       q    Type
                         _______ _______ _______ _____ _____    ______ ____

>  <TORSDO>
F 8

$$$$
=
 OpenBabel10232412433D

 45 50  0  0  1  0  0  0  0  0999 V2000
  185.2650  177.5910  137.8510 C   0  0  0  0  0  0  0  0  0  0  0  0
  186.6890  178.1920  137.1910 S   0  0  0  0  0  0  0  0  0  0  0  0
  184.8080  176.5580  137.1690 N   0  0  0  0  0  0  0  0  0  0  0  0
  184.4100  177.9130  138.8840 C   0  0  0  0  0  0  0  0  0  0  0  0
  185.5160  176.1810  136.1120 N   0  0  0  0  0  0  0  0  0  0  0  0
  182.1500  176.9630  139.6470 C   0  0  0  0  0  1  0  0  0  0  0  0
  183.3590  176.9900  138.7740 C   0  0  0  0  0  0  0  0  0  0  0  0
  183.6380  176.1420  137.6850 C   0  0  0  0  0  0  0  0  0  0  0  0
  186.6150  176.9760  135.9840 C   0  0  0  0  0  0  0  0  0  0  0  0
  180.8080  174.2660  136.0020 C   0  0  0  0  0  3  0  0  0  0  0  0
  181.2310  172.9390  136.1280 C   0  0  0  0  0  0  0  0  0  0  0  0
  183.2340  173.7000  137.2610 C   0  0  0  0  0  3  0  0  0  0  0  0
  181.5940  175.3030  136.5090 C   0  0  0  0  0  3  0  0  0  0  0  0
  180.3760  171.8440  135.5950 C   0  0  0  0  0  1  0  0  0  0  0  0
  182.4500  172.6560  136.7580 C   0  0  0  0  0  0  0  0  0  0  0  0
  182.8750  171.3750  136.8980 F   0  0  0  0  0  0  0  0  0  0  0  0
  182.8140  175.0330  137.1430 C   0  0  0  0  0  0  0  0  0  0  0  0
  187.6830  175.3880  134.4110 C   0  0  0  0  0  2  0  0  0  0  0  0
  189.0420  174.9690  134.7180 N   0  0  0  0  0  0  0  0  0  0  0  0
  188.9380  177.1490  135.3600 N   0  0  0  0  0  2  0  0  0  0  0  0
  187.6030  176.8470  134.8730 C   0  0  2  0  0  3  0  0  0  0  0  0
  189.6860  175.9550  135.2330 C   0  0  0  0  0  0  0  0  0  0  0  0
  191.3890  175.8150  135.7780 S   0  0  0  0  0  0  0  0  0  0  0  0
  190.9810  176.8210  138.3070 C   0  0  0  0  0  1  0  0  0  0  0  0
  190.9840  175.5150  137.5340 C   0  0  0  0  0  0  0  0  0  0  0  0
  191.9000  174.6450  138.0920 F   0  0  0  0  0  0  0  0  0  0  0  0
  189.7290  174.9500  137.6120 F   0  0  0  0  0  0  0  0  0  0  0  0
  184.4640  179.0980  139.8010 C   0  0  0  0  0  2  0  0  0  0  0  0
  185.0130  178.7520  141.1470 C   0  0  0  0  0  0  0  0  0  0  0  0
  186.3700  178.4290  141.3200 C   0  0  0  0  0  0  0  0  0  0  0  0
  184.1510  178.7530  142.2490 C   0  0  0  0  0  3  0  0  0  0  0  0
  184.6310  178.4270  143.5180 C   0  0  0  0  0  3  0  0  0  0  0  0
  185.9780  178.1030  143.6910 C   0  0  0  0  0  3  0  0  0  0  0  0
  186.8550  178.1050  142.5960 C   0  0  0  0  0  0  0  0  0  0  0  0
  187.2130  178.4210  140.2530 F   0  0  0  0  0  0  0  0  0  0  0  0
  188.2370  177.7590  142.7610 N   0  0  0  0  0  2  0  0  0  0  0  0
  189.2130  176.8430  144.8000 C   0  0  2  0  0  3  0  0  0  0  0  0
  191.6090  176.9270  145.7850 C   0  0  0  0  0  1  0  0  0  0  0  0
  191.0780  178.0240  142.0930 O   0  0  0  0  0  0  0  0  0  0  0  0
  191.1050  175.5440  143.7490 C   0  0  0  0  0  1  0  0  0  0  0  0
  189.0090  178.0980  143.9480 C   0  0  1  0  0  3  0  0  0  0  0  0
  191.4090  179.4350  144.1520 O   0  0  0  0  0  0  0  0  0  0  0  0
  188.9130  177.1340  146.1330 O   0  0  0  0  0  1  0  0  0  0  0  0
  190.7310  176.7780  144.5490 C   0  0  0  0  0  0  0  0  0  0  0  0
  190.7340  178.2390  143.5440 S   0  0  0  0  0  0  0  0  0  0  0  0
  1  4  2  0  0  0  0
  2  1  1  0  0  0  0
  3  8  1  0  0  0  0
  3  1  1  0  0  0  0
  4 28  1  0  0  0  0
  5  3  1  0  0  0  0
  7  4  1  0  0  0  0
  7  6  1  0  0  0  0
  8  7  2  0  0  0  0
  9  5  2  0  0  0  0
  9  2  1  0  0  0  0
 10 11  2  0  0  0  0
 10 13  1  0  0  0  0
 11 15  1  0  0  0  0
 13 17  2  0  0  0  0
 14 11  1  0  0  0  0
 15 16  1  0  0  0  0
 15 12  2  0  0  0  0
 17 12  1  0  0  0  0
 17  8  1  0  0  0  0
 18 19  1  0  0  0  0
 18 21  1  0  0  0  0
 19 22  2  0  0  0  0
 21 20  1  0  0  0  0
 21  9  1  1  0  0  0
 22 20  1  0  0  0  0
 22 23  1  0  0  0  0
 23 25  1  0  0  0  0
 25 27  1  0  0  0  0
 25 26  1  0  0  0  0
 25 24  1  0  0  0  0
 28 29  1  0  0  0  0
 29 30  2  0  0  0  0
 29 31  1  0  0  0  0
 30 34  1  0  0  0  0
 31 32  2  0  0  0  0
 32 33  1  0  0  0  0
 34 36  1  0  0  0  0
 34 33  2  0  0  0  0
 35 30  1  0  0  0  0
 37 43  1  1  0  0  0
 39 45  2  0  0  0  0
 40 44  1  0  0  0  0
 41 36  1  6  0  0  0
 41 37  1  0  0  0  0
 44 37  1  0  0  0  0
 44 38  1  0  0  0  0
 45 41  1  0  0  0  0
 45 42  2  0  0  0  0
 45 44  1  0  0  0  0
M  END
>  <MODEL>
9

>  <REMARK>
 VINA RESULT:      -8.4      4.803      8.710
  Name = 
  8 active torsions:
  status: ('A' for Active; 'I' for Inactive)
    1  A    between atoms: C_6  and  C_32
    2  A    between atoms: C_9  and  N_18
    3  A    between atoms: C_15  and  S_16
    4  A    between atoms: S_16  and  C_36
    5  A    between atoms: C_17  and  C_32
    6  A    between atoms: N_18  and  C_37
    7  A    between atoms: C_28  and  C_34
    8  A    between atoms: C_31  and  C_40
                            x       y       z     vdW  Elec       q    Type
                         _______ _______ _______ _____ _____    ______ ____

>  <TORSDO>
F 8

$$$$
