=
 OpenBabel10232407543D

 26 29  0  0  0  0  0  0  0  0999 V2000
  191.4780  178.1710  143.5440 C   0  0  0  0  0  3  0  0  0  0  0  0
  189.2780  177.8620  144.5440 C   0  0  0  0  0  0  0  0  0  0  0  0
  187.9460  177.8500  147.8770 C   0  0  0  0  0  0  0  0  0  0  0  0
  189.1510  176.8270  140.8810 C   0  0  0  0  0  1  0  0  0  0  0  0
  184.0550  179.2700  144.0670 C   0  0  0  0  0  3  0  0  0  0  0  0
  188.4720  177.8580  145.7360 N   0  0  0  0  0  0  0  0  0  0  0  0
  188.0720  177.7660  149.2570 O   0  0  0  0  0  1  0  0  0  0  0  0
  189.6580  177.3200  142.1970 C   0  0  0  0  0  0  0  0  0  0  0  0
  191.8610  177.6470  141.2330 O   0  0  0  0  0  1  0  0  0  0  0  0
  184.2100  178.7120  142.7990 C   0  0  0  0  0  0  0  0  0  0  0  0
  190.6280  178.2360  144.6460 C   0  0  0  0  0  3  0  0  0  0  0  0
  185.3570  177.9600  142.5160 C   0  0  0  0  0  3  0  0  0  0  0  0
  187.1410  178.0730  145.8640 C   0  0  0  0  0  0  0  0  0  0  0  0
  190.9980  177.7120  142.3210 C   0  0  0  0  0  0  0  0  0  0  0  0
  188.7860  177.4080  143.3000 C   0  0  0  0  0  0  0  0  0  0  0  0
  185.0330  179.0740  145.0420 C   0  0  0  0  0  3  0  0  0  0  0  0
  188.9780  177.7260  146.9800 C   0  0  0  0  0  3  0  0  0  0  0  0
  186.1930  178.3330  144.7640 C   0  0  0  0  0  0  0  0  0  0  0  0
  186.3550  177.7760  143.4800 C   0  0  0  0  0  0  0  0  0  0  0  0
  187.4600  177.0080  143.1200 O   0  0  0  0  0  0  0  0  0  0  0  0
  186.7690  178.0790  147.2020 C   0  0  0  0  0  3  0  0  0  0  0  0
  183.1930  178.9140  141.8160 N   0  0  0  0  0  2  0  0  0  0  0  0
  183.2600  178.3400  140.4800 C   0  0  0  0  0  2  0  0  0  0  0  0
  183.3940  179.4450  139.4500 C   0  0  0  0  0  2  0  0  0  0  0  0
  184.7420  179.7430  139.2440 O   0  0  0  0  0  0  0  0  0  0  0  0
  185.2930  178.5550  138.7670 C   0  0  0  0  0  1  0  0  0  0  0  0
  1 11  1  0  0  0  0
  2 11  2  0  0  0  0
  2  6  1  0  0  0  0
  3  7  1  0  0  0  0
  4  8  1  0  0  0  0
  5 16  1  0  0  0  0
  6 13  1  0  0  0  0
  6 17  1  0  0  0  0
  8 14  1  0  0  0  0
  8 15  2  0  0  0  0
  9 14  1  0  0  0  0
 10  5  2  0  0  0  0
 12 10  1  0  0  0  0
 12 19  2  0  0  0  0
 13 21  2  0  0  0  0
 14  1  2  0  0  0  0
 15  2  1  0  0  0  0
 17  3  2  0  0  0  0
 18 16  2  0  0  0  0
 18 13  1  0  0  0  0
 19 18  1  0  0  0  0
 20 15  1  0  0  0  0
 20 19  1  0  0  0  0
 21  3  1  0  0  0  0
 22 10  1  0  0  0  0
 23 22  1  0  0  0  0
 24 23  1  0  0  0  0
 25 24  1  0  0  0  0
 26 25  1  0  0  0  0
M  END
>  <MODEL>
1

>  <REMARK>
 VINA RESULT:      -8.9      0.000      0.000
  Name = 
  4 active torsions:
  status: ('A' for Active; 'I' for Inactive)
    1  A    between atoms: C_8  and  O_12
    2  A    between atoms: C_8  and  C_18
    3  A    between atoms: C_11  and  N_20
    4  A    between atoms: C_18  and  N_20
                            x       y       z     vdW  Elec       q    Type
                         _______ _______ _______ _____ _____    ______ ____

>  <TORSDO>
F 4

$$$$
=
 OpenBabel10232407543D

 26 29  0  0  0  0  0  0  0  0999 V2000
  191.8540  177.6570  141.8360 C   0  0  0  0  0  3  0  0  0  0  0  0
  190.6430  177.1070  143.8770 C   0  0  0  0  0  0  0  0  0  0  0  0
  191.5370  176.2060  147.2340 C   0  0  0  0  0  0  0  0  0  0  0  0
  188.2200  177.1000  140.9380 C   0  0  0  0  0  1  0  0  0  0  0  0
  186.4660  178.6350  146.9930 C   0  0  0  0  0  3  0  0  0  0  0  0
  190.7010  176.7890  145.2790 N   0  0  0  0  0  0  0  0  0  0  0  0
  192.4310  175.7520  148.1950 O   0  0  0  0  0  1  0  0  0  0  0  0
  189.4770  177.2160  141.7390 C   0  0  0  0  0  0  0  0  0  0  0  0
  190.7140  177.7730  139.7250 O   0  0  0  0  0  1  0  0  0  0  0  0
  185.7510  178.4380  145.8130 C   0  0  0  0  0  0  0  0  0  0  0  0
  191.8360  177.4290  143.2100 C   0  0  0  0  0  3  0  0  0  0  0  0
  186.3650  177.7810  144.7390 C   0  0  0  0  0  3  0  0  0  0  0  0
  189.7580  176.9710  146.2340 C   0  0  0  0  0  0  0  0  0  0  0  0
  190.6790  177.5490  141.0970 C   0  0  0  0  0  0  0  0  0  0  0  0
  189.4470  177.0100  143.1310 C   0  0  0  0  0  0  0  0  0  0  0  0
  187.7780  178.1750  147.1000 C   0  0  0  0  0  3  0  0  0  0  0  0
  191.8080  176.3210  145.8940 C   0  0  0  0  0  3  0  0  0  0  0  0
  188.4080  177.5260  146.0260 C   0  0  0  0  0  0  0  0  0  0  0  0
  187.6890  177.3360  144.8290 C   0  0  0  0  0  0  0  0  0  0  0  0
  188.2230  176.6840  143.7190 O   0  0  0  0  0  0  0  0  0  0  0  0
  190.2480  176.6190  147.4850 C   0  0  0  0  0  3  0  0  0  0  0  0
  184.4040  178.9070  145.7230 N   0  0  0  0  0  2  0  0  0  0  0  0
  183.8610  179.5280  144.5230 C   0  0  0  0  0  2  0  0  0  0  0  0
  182.6030  178.7980  144.0900 C   0  0  0  0  0  2  0  0  0  0  0  0
  182.4560  178.8870  142.7050 O   0  0  0  0  0  0  0  0  0  0  0  0
  183.7250  178.6070  142.2010 C   0  0  0  0  0  1  0  0  0  0  0  0
  1 11  1  0  0  0  0
  2  6  1  0  0  0  0
  3 21  1  0  0  0  0
  3  7  1  0  0  0  0
  4  8  1  0  0  0  0
  5 16  1  0  0  0  0
  6 17  1  0  0  0  0
  6 13  1  0  0  0  0
  8 15  2  0  0  0  0
  9 14  1  0  0  0  0
 10  5  2  0  0  0  0
 11  2  2  0  0  0  0
 12 19  2  0  0  0  0
 12 10  1  0  0  0  0
 13 21  2  0  0  0  0
 14  8  1  0  0  0  0
 14  1  2  0  0  0  0
 15 20  1  0  0  0  0
 15  2  1  0  0  0  0
 17  3  2  0  0  0  0
 18 13  1  0  0  0  0
 18 16  2  0  0  0  0
 19 18  1  0  0  0  0
 20 19  1  0  0  0  0
 22 10  1  0  0  0  0
 23 22  1  0  0  0  0
 24 23  1  0  0  0  0
 25 24  1  0  0  0  0
 26 25  1  0  0  0  0
M  END
>  <MODEL>
2

>  <REMARK>
 VINA RESULT:      -8.8      2.110      3.064
  Name = 
  4 active torsions:
  status: ('A' for Active; 'I' for Inactive)
    1  A    between atoms: C_8  and  O_12
    2  A    between atoms: C_8  and  C_18
    3  A    between atoms: C_11  and  N_20
    4  A    between atoms: C_18  and  N_20
                            x       y       z     vdW  Elec       q    Type
                         _______ _______ _______ _____ _____    ______ ____

>  <TORSDO>
F 4

$$$$
=
 OpenBabel10232407543D

 26 29  0  0  0  0  0  0  0  0999 V2000
  186.6850  179.0870  147.9330 C   0  0  0  0  0  3  0  0  0  0  0  0
  186.0910  178.4570  145.6560 C   0  0  0  0  0  0  0  0  0  0  0  0
  183.1910  178.7930  143.5680 C   0  0  0  0  0  0  0  0  0  0  0  0
  189.3240  176.7020  146.6430 C   0  0  0  0  0  1  0  0  0  0  0  0
  187.9230  178.4130  140.5440 C   0  0  0  0  0  3  0  0  0  0  0  0
  185.1190  178.4970  144.5960 N   0  0  0  0  0  0  0  0  0  0  0  0
  181.8380  179.0250  143.3610 O   0  0  0  0  0  1  0  0  0  0  0  0
  188.1030  177.5610  146.7030 C   0  0  0  0  0  0  0  0  0  0  0  0
  188.6670  178.2160  148.9710 O   0  0  0  0  0  1  0  0  0  0  0  0
  188.9520  177.6650  141.1130 C   0  0  0  0  0  0  0  0  0  0  0  0
  185.8250  179.1640  146.8410 C   0  0  0  0  0  3  0  0  0  0  0  0
  188.8050  177.1760  142.4170 C   0  0  0  0  0  3  0  0  0  0  0  0
  185.3120  178.4000  143.2590 C   0  0  0  0  0  0  0  0  0  0  0  0
  187.8220  178.2860  147.8690 C   0  0  0  0  0  0  0  0  0  0  0  0
  187.2510  177.6540  145.5850 C   0  0  0  0  0  0  0  0  0  0  0  0
  186.7580  178.6650  141.2690 C   0  0  0  0  0  3  0  0  0  0  0  0
  183.8070  178.7480  144.7940 C   0  0  0  0  0  3  0  0  0  0  0  0
  186.6060  178.1900  142.5810 C   0  0  0  0  0  0  0  0  0  0  0  0
  187.6500  177.4420  143.1610 C   0  0  0  0  0  0  0  0  0  0  0  0
  187.5800  176.9130  144.4480 O   0  0  0  0  0  0  0  0  0  0  0  0
  184.1190  178.5850  142.5730 C   0  0  0  0  0  3  0  0  0  0  0  0
  190.1340  177.4080  140.3520 N   0  0  0  0  0  2  0  0  0  0  0  0
  190.1270  177.2670  138.9030 C   0  0  0  0  0  2  0  0  0  0  0  0
  191.2740  176.3760  138.4670 C   0  0  0  0  0  2  0  0  0  0  0  0
  190.8570  175.0440  138.4390 O   0  0  0  0  0  0  0  0  0  0  0  0
  189.9940  174.9720  137.3460 C   0  0  0  0  0  1  0  0  0  0  0  0
  2 11  1  0  0  0  0
  3 17  2  0  0  0  0
  4  8  1  0  0  0  0
  5 10  2  0  0  0  0
  5 16  1  0  0  0  0
  6 17  1  0  0  0  0
  6  2  1  0  0  0  0
  7  3  1  0  0  0  0
  8 14  2  0  0  0  0
 10 12  1  0  0  0  0
 11  1  2  0  0  0  0
 12 19  2  0  0  0  0
 13  6  1  0  0  0  0
 14  1  1  0  0  0  0
 14  9  1  0  0  0  0
 15  2  2  0  0  0  0
 15  8  1  0  0  0  0
 16 18  2  0  0  0  0
 18 19  1  0  0  0  0
 18 13  1  0  0  0  0
 19 20  1  0  0  0  0
 20 15  1  0  0  0  0
 21 13  2  0  0  0  0
 21  3  1  0  0  0  0
 22 10  1  0  0  0  0
 23 22  1  0  0  0  0
 24 23  1  0  0  0  0
 25 24  1  0  0  0  0
 26 25  1  0  0  0  0
M  END
>  <MODEL>
3

>  <REMARK>
 VINA RESULT:      -8.7      2.336      5.638
  Name = 
  4 active torsions:
  status: ('A' for Active; 'I' for Inactive)
    1  A    between atoms: C_8  and  O_12
    2  A    between atoms: C_8  and  C_18
    3  A    between atoms: C_11  and  N_20
    4  A    between atoms: C_18  and  N_20
                            x       y       z     vdW  Elec       q    Type
                         _______ _______ _______ _____ _____    ______ ____

>  <TORSDO>
F 4

$$$$
=
 OpenBabel10232407543D

 26 29  0  0  0  0  0  0  0  0999 V2000
  186.5360  179.1450  147.8520 C   0  0  0  0  0  3  0  0  0  0  0  0
  185.8520  178.5260  145.5970 C   0  0  0  0  0  0  0  0  0  0  0  0
  182.8580  178.8360  143.6420 C   0  0  0  0  0  0  0  0  0  0  0  0
  189.1530  176.8140  146.4230 C   0  0  0  0  0  1  0  0  0  0  0  0
  187.4570  178.5610  140.4090 C   0  0  0  0  0  3  0  0  0  0  0  0
  184.8340  178.5610  144.5820 N   0  0  0  0  0  0  0  0  0  0  0  0
  181.4940  179.0470  143.4980 O   0  0  0  0  0  1  0  0  0  0  0  0
  187.9220  177.6530  146.5450 C   0  0  0  0  0  0  0  0  0  0  0  0
  188.5760  178.2960  148.7930 O   0  0  0  0  0  1  0  0  0  0  0  0
  188.5220  177.8240  140.9250 C   0  0  0  0  0  0  0  0  0  0  0  0
  185.6280  179.2170  146.8000 C   0  0  0  0  0  3  0  0  0  0  0  0
  188.4410  177.3200  142.2290 C   0  0  0  0  0  3  0  0  0  0  0  0
  184.9700  178.4790  143.2360 C   0  0  0  0  0  0  0  0  0  0  0  0
  187.6820  178.3630  147.7310 C   0  0  0  0  0  0  0  0  0  0  0  0
  187.0200  177.7430  145.4670 C   0  0  0  0  0  0  0  0  0  0  0  0
  186.3220  178.7870  141.1880 C   0  0  0  0  0  3  0  0  0  0  0  0
  183.5290  178.7880  144.8390 C   0  0  0  0  0  3  0  0  0  0  0  0
  186.2350  178.2970  142.5010 C   0  0  0  0  0  0  0  0  0  0  0  0
  187.3150  177.5610  143.0260 C   0  0  0  0  0  0  0  0  0  0  0  0
  187.3100  177.0180  144.3090 O   0  0  0  0  0  0  0  0  0  0  0  0
  183.7450  178.6520  142.6050 C   0  0  0  0  0  3  0  0  0  0  0  0
  189.6730  177.5930  140.1110 N   0  0  0  0  0  2  0  0  0  0  0  0
  190.8170  176.8130  140.5620 C   0  0  0  0  0  2  0  0  0  0  0  0
  191.7020  177.6640  141.4530 C   0  0  0  0  0  2  0  0  0  0  0  0
  191.9040  177.0200  142.6750 O   0  0  0  0  0  0  0  0  0  0  0  0
  191.6090  177.9890  143.6330 C   0  0  0  0  0  1  0  0  0  0  0  0
  2 11  1  0  0  0  0
  3 17  2  0  0  0  0
  4  8  1  0  0  0  0
  5 10  2  0  0  0  0
  5 16  1  0  0  0  0
  6 17  1  0  0  0  0
  6  2  1  0  0  0  0
  7  3  1  0  0  0  0
  8 14  2  0  0  0  0
 10 12  1  0  0  0  0
 11  1  2  0  0  0  0
 12 19  2  0  0  0  0
 13  6  1  0  0  0  0
 14  1  1  0  0  0  0
 14  9  1  0  0  0  0
 15  2  2  0  0  0  0
 15  8  1  0  0  0  0
 16 18  2  0  0  0  0
 18 19  1  0  0  0  0
 18 13  1  0  0  0  0
 19 20  1  0  0  0  0
 20 15  1  0  0  0  0
 21 13  2  0  0  0  0
 21  3  1  0  0  0  0
 22 23  1  0  0  0  0
 22 10  1  0  0  0  0
 23 24  1  0  0  0  0
 24 25  1  0  0  0  0
 25 26  1  0  0  0  0
M  END
>  <MODEL>
4

>  <REMARK>
 VINA RESULT:      -8.6      2.039      5.793
  Name = 
  4 active torsions:
  status: ('A' for Active; 'I' for Inactive)
    1  A    between atoms: C_8  and  O_12
    2  A    between atoms: C_8  and  C_18
    3  A    between atoms: C_11  and  N_20
    4  A    between atoms: C_18  and  N_20
                            x       y       z     vdW  Elec       q    Type
                         _______ _______ _______ _____ _____    ______ ____

>  <TORSDO>
F 4

$$$$
=
 OpenBabel10232407543D

 26 29  0  0  0  0  0  0  0  0999 V2000
  190.1030  177.7250  147.7630 C   0  0  0  0  0  3  0  0  0  0  0  0
  188.5120  177.5900  145.9230 C   0  0  0  0  0  0  0  0  0  0  0  0
  185.0470  178.3990  145.4540 C   0  0  0  0  0  0  0  0  0  0  0  0
  191.6430  175.6160  145.0250 C   0  0  0  0  0  1  0  0  0  0  0  0
  187.9170  178.5770  140.6160 C   0  0  0  0  0  3  0  0  0  0  0  0
  187.1860  177.8650  145.4370 N   0  0  0  0  0  0  0  0  0  0  0  0
  183.7720  178.6910  145.9220 O   0  0  0  0  0  1  0  0  0  0  0  0
  190.6700  176.4640  145.7780 C   0  0  0  0  0  0  0  0  0  0  0  0
  192.2330  176.6250  147.6280 O   0  0  0  0  0  1  0  0  0  0  0  0
  189.0040  177.7100  140.5200 C   0  0  0  0  0  0  0  0  0  0  0  0
  188.8660  178.0400  147.2060 C   0  0  0  0  0  3  0  0  0  0  0  0
  189.3890  176.9640  141.6410 C   0  0  0  0  0  3  0  0  0  0  0  0
  186.7660  178.0440  144.1620 C   0  0  0  0  0  0  0  0  0  0  0  0
  191.0060  176.9360  147.0550 C   0  0  0  0  0  0  0  0  0  0  0  0
  189.4320  176.8000  145.1970 C   0  0  0  0  0  0  0  0  0  0  0  0
  187.2190  178.6920  141.8180 C   0  0  0  0  0  3  0  0  0  0  0  0
  186.1270  178.0910  146.2430 C   0  0  0  0  0  3  0  0  0  0  0  0
  187.6040  177.9580  142.9520 C   0  0  0  0  0  0  0  0  0  0  0  0
  188.7090  177.0890  142.8580 C   0  0  0  0  0  0  0  0  0  0  0  0
  189.1500  176.3050  143.9220 O   0  0  0  0  0  0  0  0  0  0  0  0
  185.4200  178.3870  144.1290 C   0  0  0  0  0  3  0  0  0  0  0  0
  189.7020  177.5970  139.2780 N   0  0  0  0  0  2  0  0  0  0  0  0
  189.0240  177.3850  138.0070 C   0  0  0  0  0  2  0  0  0  0  0  0
  189.1660  178.6190  137.1350 C   0  0  0  0  0  2  0  0  0  0  0  0
  187.9730  179.3430  137.1400 O   0  0  0  0  0  0  0  0  0  0  0  0
  186.9810  178.3840  136.9380 C   0  0  0  0  0  1  0  0  0  0  0  0
  2 11  2  0  0  0  0
  3  7  1  0  0  0  0
  3 17  2  0  0  0  0
  4  8  1  0  0  0  0
  5 16  1  0  0  0  0
  6  2  1  0  0  0  0
  6 17  1  0  0  0  0
  8 14  1  0  0  0  0
 10  5  2  0  0  0  0
 10 12  1  0  0  0  0
 11  1  1  0  0  0  0
 12 19  2  0  0  0  0
 13  6  1  0  0  0  0
 14  9  1  0  0  0  0
 14  1  2  0  0  0  0
 15  8  2  0  0  0  0
 15  2  1  0  0  0  0
 16 18  2  0  0  0  0
 18 13  1  0  0  0  0
 19 18  1  0  0  0  0
 19 20  1  0  0  0  0
 20 15  1  0  0  0  0
 21 13  2  0  0  0  0
 21  3  1  0  0  0  0
 22 10  1  0  0  0  0
 23 22  1  0  0  0  0
 24 25  1  0  0  0  0
 24 23  1  0  0  0  0
 26 25  1  0  0  0  0
M  END
>  <MODEL>
5

>  <REMARK>
 VINA RESULT:      -8.4      2.631      4.243
  Name = 
  4 active torsions:
  status: ('A' for Active; 'I' for Inactive)
    1  A    between atoms: C_8  and  O_12
    2  A    between atoms: C_8  and  C_18
    3  A    between atoms: C_11  and  N_20
    4  A    between atoms: C_18  and  N_20
                            x       y       z     vdW  Elec       q    Type
                         _______ _______ _______ _____ _____    ______ ____

>  <TORSDO>
F 4

$$$$
=
 OpenBabel10232407543D

 26 29  0  0  0  0  0  0  0  0999 V2000
  190.0250  177.8220  147.8570 C   0  0  0  0  0  3  0  0  0  0  0  0
  188.4630  177.6530  145.9950 C   0  0  0  0  0  0  0  0  0  0  0  0
  185.0070  178.4560  145.4570 C   0  0  0  0  0  0  0  0  0  0  0  0
  191.6050  175.6580  145.1860 C   0  0  0  0  0  1  0  0  0  0  0  0
  187.9520  178.5350  140.6610 C   0  0  0  0  0  3  0  0  0  0  0  0
  187.1450  177.9190  145.4840 N   0  0  0  0  0  0  0  0  0  0  0  0
  183.7260  178.7580  145.8980 O   0  0  0  0  0  1  0  0  0  0  0  0
  190.6210  176.5220  145.9070 C   0  0  0  0  0  0  0  0  0  0  0  0
  192.1560  176.7180  147.7780 O   0  0  0  0  0  1  0  0  0  0  0  0
  189.0400  177.6650  140.5990 C   0  0  0  0  0  0  0  0  0  0  0  0
  188.7980  178.1280  147.2750 C   0  0  0  0  0  3  0  0  0  0  0  0
  189.4060  176.9410  141.7410 C   0  0  0  0  0  3  0  0  0  0  0  0
  186.7450  178.0730  144.1990 C   0  0  0  0  0  0  0  0  0  0  0  0
  190.9380  177.0190  147.1790 C   0  0  0  0  0  0  0  0  0  0  0  0
  189.3930  176.8480  145.3000 C   0  0  0  0  0  0  0  0  0  0  0  0
  187.2360  178.6750  141.8500 C   0  0  0  0  0  3  0  0  0  0  0  0
  186.0740  178.1620  146.2690 C   0  0  0  0  0  3  0  0  0  0  0  0
  187.6020  177.9630  143.0040 C   0  0  0  0  0  0  0  0  0  0  0  0
  188.7070  177.0910  142.9440 C   0  0  0  0  0  0  0  0  0  0  0  0
  189.1310  176.3280  144.0310 O   0  0  0  0  0  0  0  0  0  0  0  0
  185.4010  178.4170  144.1380 C   0  0  0  0  0  3  0  0  0  0  0  0
  189.7570  177.5270  139.3710 N   0  0  0  0  0  2  0  0  0  0  0  0
  191.0690  176.9030  139.2870 C   0  0  0  0  0  2  0  0  0  0  0  0
  191.2210  176.1980  137.9520 C   0  0  0  0  0  2  0  0  0  0  0  0
  190.9010  174.8470  138.0890 O   0  0  0  0  0  0  0  0  0  0  0  0
  191.7520  174.1950  137.1970 C   0  0  0  0  0  1  0  0  0  0  0  0
  2 11  2  0  0  0  0
  3  7  1  0  0  0  0
  3 17  2  0  0  0  0
  4  8  1  0  0  0  0
  5 16  1  0  0  0  0
  6  2  1  0  0  0  0
  6 17  1  0  0  0  0
  8 14  1  0  0  0  0
 10  5  2  0  0  0  0
 10 12  1  0  0  0  0
 11  1  1  0  0  0  0
 12 19  2  0  0  0  0
 13  6  1  0  0  0  0
 14  9  1  0  0  0  0
 14  1  2  0  0  0  0
 15  8  2  0  0  0  0
 15  2  1  0  0  0  0
 16 18  2  0  0  0  0
 18 13  1  0  0  0  0
 19 18  1  0  0  0  0
 19 20  1  0  0  0  0
 20 15  1  0  0  0  0
 21 13  2  0  0  0  0
 21  3  1  0  0  0  0
 22 10  1  0  0  0  0
 23 22  1  0  0  0  0
 24 25  1  0  0  0  0
 24 23  1  0  0  0  0
 26 25  1  0  0  0  0
M  END
>  <MODEL>
6

>  <REMARK>
 VINA RESULT:      -8.3      2.795      4.963
  Name = 
  4 active torsions:
  status: ('A' for Active; 'I' for Inactive)
    1  A    between atoms: C_8  and  O_12
    2  A    between atoms: C_8  and  C_18
    3  A    between atoms: C_11  and  N_20
    4  A    between atoms: C_18  and  N_20
                            x       y       z     vdW  Elec       q    Type
                         _______ _______ _______ _____ _____    ______ ____

>  <TORSDO>
F 4

$$$$
=
 OpenBabel10232407543D

 26 29  0  0  0  0  0  0  0  0999 V2000
  184.5100  179.5780  143.4380 C   0  0  0  0  0  3  0  0  0  0  0  0
  186.5680  178.4630  142.7610 C   0  0  0  0  0  0  0  0  0  0  0  0
  188.3800  178.0530  139.6900 C   0  0  0  0  0  0  0  0  0  0  0  0
  185.6170  177.3230  146.2680 C   0  0  0  0  0  1  0  0  0  0  0  0
  191.7500  177.6750  144.1810 C   0  0  0  0  0  3  0  0  0  0  0  0
  187.5150  178.1870  141.7140 N   0  0  0  0  0  0  0  0  0  0  0  0
  188.4860  178.0780  138.3050 O   0  0  0  0  0  1  0  0  0  0  0  0
  185.5870  178.0270  144.9500 C   0  0  0  0  0  0  0  0  0  0  0  0
  183.5400  179.1600  145.5940 O   0  0  0  0  0  1  0  0  0  0  0  0
  191.1640  177.1750  145.3430 C   0  0  0  0  0  0  0  0  0  0  0  0
  185.5060  179.3440  142.4940 C   0  0  0  0  0  3  0  0  0  0  0  0
  189.7860  176.9270  145.3650 C   0  0  0  0  0  3  0  0  0  0  0  0
  188.8260  177.8630  141.8140 C   0  0  0  0  0  0  0  0  0  0  0  0
  184.5460  178.9210  144.6650 C   0  0  0  0  0  0  0  0  0  0  0  0
  186.6120  177.8050  144.0100 C   0  0  0  0  0  0  0  0  0  0  0  0
  190.9670  177.9190  143.0530 C   0  0  0  0  0  3  0  0  0  0  0  0
  187.2330  178.3130  140.3990 C   0  0  0  0  0  3  0  0  0  0  0  0
  189.5830  177.6850  143.0680 C   0  0  0  0  0  0  0  0  0  0  0  0
  188.9880  177.1890  144.2450 C   0  0  0  0  0  0  0  0  0  0  0  0
  187.6280  176.9070  144.3470 O   0  0  0  0  0  0  0  0  0  0  0  0
  189.4100  177.7720  140.5580 C   0  0  0  0  0  3  0  0  0  0  0  0
  191.9820  176.9220  146.4870 N   0  0  0  0  0  2  0  0  0  0  0  0
  191.7660  175.7920  147.3790 C   0  0  0  0  0  2  0  0  0  0  0  0
  192.8200  175.7890  148.4710 C   0  0  0  0  0  2  0  0  0  0  0  0
  192.9610  177.0730  148.9980 O   0  0  0  0  0  0  0  0  0  0  0  0
  193.8390  176.9160  150.0690 C   0  0  0  0  0  1  0  0  0  0  0  0
  1 14  1  0  0  0  0
  2 15  2  0  0  0  0
  3 17  2  0  0  0  0
  3 21  1  0  0  0  0
  5 10  1  0  0  0  0
  6 13  1  0  0  0  0
  6  2  1  0  0  0  0
  7  3  1  0  0  0  0
  8  4  1  0  0  0  0
 10 12  2  0  0  0  0
 10 22  1  0  0  0  0
 11  2  1  0  0  0  0
 11  1  2  0  0  0  0
 13 18  1  0  0  0  0
 14  8  2  0  0  0  0
 14  9  1  0  0  0  0
 15 20  1  0  0  0  0
 15  8  1  0  0  0  0
 16 18  1  0  0  0  0
 16  5  2  0  0  0  0
 17  6  1  0  0  0  0
 18 19  2  0  0  0  0
 19 20  1  0  0  0  0
 19 12  1  0  0  0  0
 21 13  2  0  0  0  0
 22 23  1  0  0  0  0
 23 24  1  0  0  0  0
 24 25  1  0  0  0  0
 25 26  1  0  0  0  0
M  END
>  <MODEL>
7

>  <REMARK>
 VINA RESULT:      -8.2      2.724      7.906
  Name = 
  4 active torsions:
  status: ('A' for Active; 'I' for Inactive)
    1  A    between atoms: C_8  and  O_12
    2  A    between atoms: C_8  and  C_18
    3  A    between atoms: C_11  and  N_20
    4  A    between atoms: C_18  and  N_20
                            x       y       z     vdW  Elec       q    Type
                         _______ _______ _______ _____ _____    ______ ____

>  <TORSDO>
F 4

$$$$
=
 OpenBabel10232407543D

 26 29  0  0  0  0  0  0  0  0999 V2000
  182.3210  178.4780  141.4130 C   0  0  0  0  0  3  0  0  0  0  0  0
  184.4140  178.5120  142.6590 C   0  0  0  0  0  0  0  0  0  0  0  0
  185.3440  178.5760  146.1240 C   0  0  0  0  0  0  0  0  0  0  0  0
  185.1260  179.2190  138.9840 C   0  0  0  0  0  1  0  0  0  0  0  0
  189.3470  176.2550  142.9210 C   0  0  0  0  0  3  0  0  0  0  0  0
  185.0700  178.4810  143.9390 N   0  0  0  0  0  0  0  0  0  0  0  0
  185.0790  178.7880  147.4710 O   0  0  0  0  0  1  0  0  0  0  0  0
  184.3980  178.9180  140.2550 C   0  0  0  0  0  0  0  0  0  0  0  0
  182.2940  178.8720  139.0450 O   0  0  0  0  0  1  0  0  0  0  0  0
  189.4320  176.7290  141.6120 C   0  0  0  0  0  0  0  0  0  0  0  0
  183.0180  178.3670  142.6140 C   0  0  0  0  0  3  0  0  0  0  0  0
  188.4670  177.6290  141.1440 C   0  0  0  0  0  3  0  0  0  0  0  0
  186.3230  178.0680  144.2450 C   0  0  0  0  0  0  0  0  0  0  0  0
  183.0060  178.7560  140.2330 C   0  0  0  0  0  0  0  0  0  0  0  0
  185.1120  178.7810  141.4610 C   0  0  0  0  0  0  0  0  0  0  0  0
  188.3120  176.6820  143.7520 C   0  0  0  0  0  3  0  0  0  0  0  0
  184.4560  178.7910  145.1000 C   0  0  0  0  0  3  0  0  0  0  0  0
  187.3320  177.5740  143.2890 C   0  0  0  0  0  0  0  0  0  0  0  0
  187.4120  178.0450  141.9630 C   0  0  0  0  0  0  0  0  0  0  0  0
  186.4990  178.9490  141.4230 O   0  0  0  0  0  0  0  0  0  0  0  0
  186.5350  178.1100  145.6160 C   0  0  0  0  0  3  0  0  0  0  0  0
  190.5050  176.2890  140.7770 N   0  0  0  0  0  2  0  0  0  0  0  0
  191.0300  177.0880  139.6790 C   0  0  0  0  0  2  0  0  0  0  0  0
  190.7060  176.4210  138.3550 C   0  0  0  0  0  2  0  0  0  0  0  0
  190.8570  175.0390  138.4710 O   0  0  0  0  0  0  0  0  0  0  0  0
  191.8960  174.7260  137.5950 C   0  0  0  0  0  1  0  0  0  0  0  0
  1 11  1  0  0  0  0
  2  6  1  0  0  0  0
  3  7  1  0  0  0  0
  4  8  1  0  0  0  0
  5 16  1  0  0  0  0
  6 13  1  0  0  0  0
  6 17  1  0  0  0  0
  8 15  2  0  0  0  0
  9 14  1  0  0  0  0
 10  5  2  0  0  0  0
 11  2  2  0  0  0  0
 12 10  1  0  0  0  0
 12 19  2  0  0  0  0
 13 21  2  0  0  0  0
 14  8  1  0  0  0  0
 14  1  2  0  0  0  0
 15  2  1  0  0  0  0
 17  3  2  0  0  0  0
 18 16  2  0  0  0  0
 18 13  1  0  0  0  0
 19 18  1  0  0  0  0
 20 15  1  0  0  0  0
 20 19  1  0  0  0  0
 21  3  1  0  0  0  0
 22 10  1  0  0  0  0
 23 22  1  0  0  0  0
 24 25  1  0  0  0  0
 24 23  1  0  0  0  0
 26 25  1  0  0  0  0
M  END
>  <MODEL>
8

>  <REMARK>
 VINA RESULT:      -7.9      2.310      5.938
  Name = 
  4 active torsions:
  status: ('A' for Active; 'I' for Inactive)
    1  A    between atoms: C_8  and  O_12
    2  A    between atoms: C_8  and  C_18
    3  A    between atoms: C_11  and  N_20
    4  A    between atoms: C_18  and  N_20
                            x       y       z     vdW  Elec       q    Type
                         _______ _______ _______ _____ _____    ______ ____

>  <TORSDO>
F 4

$$$$
=
 OpenBabel10232407543D

 26 29  0  0  0  0  0  0  0  0999 V2000
  183.3050  178.4140  144.4780 C   0  0  0  0  0  3  0  0  0  0  0  0
  185.7180  178.3210  144.7980 C   0  0  0  0  0  0  0  0  0  0  0  0
  187.9330  178.1070  147.6140 C   0  0  0  0  0  0  0  0  0  0  0  0
  184.9640  179.2980  141.1940 C   0  0  0  0  0  1  0  0  0  0  0  0
  190.2570  175.9820  142.9500 C   0  0  0  0  0  3  0  0  0  0  0  0
  186.8200  178.1830  145.7120 N   0  0  0  0  0  0  0  0  0  0  0  0
  188.2250  178.2180  148.9670 O   0  0  0  0  0  1  0  0  0  0  0  0
  184.7790  178.9120  142.6260 C   0  0  0  0  0  0  0  0  0  0  0  0
  182.3700  178.9880  142.3420 O   0  0  0  0  0  1  0  0  0  0  0  0
  189.8430  176.5530  141.7470 C   0  0  0  0  0  0  0  0  0  0  0  0
  184.4100  178.2000  145.2970 C   0  0  0  0  0  3  0  0  0  0  0  0
  188.8120  177.5000  141.7560 C   0  0  0  0  0  3  0  0  0  0  0  0
  188.0740  177.7300  145.4720 C   0  0  0  0  0  0  0  0  0  0  0  0
  183.4840  178.7720  143.1440 C   0  0  0  0  0  0  0  0  0  0  0  0
  185.9020  178.6720  143.4420 C   0  0  0  0  0  0  0  0  0  0  0  0
  189.6490  176.3580  144.1480 C   0  0  0  0  0  3  0  0  0  0  0  0
  186.7240  178.4120  147.0390 C   0  0  0  0  0  3  0  0  0  0  0  0
  188.6060  177.2970  144.1660 C   0  0  0  0  0  0  0  0  0  0  0  0
  188.1810  177.8680  142.9500 C   0  0  0  0  0  0  0  0  0  0  0  0
  187.1690  178.8230  142.8730 O   0  0  0  0  0  0  0  0  0  0  0  0
  188.8080  177.6630  146.6490 C   0  0  0  0  0  3  0  0  0  0  0  0
  190.4830  176.1640  140.5300 N   0  0  0  0  0  2  0  0  0  0  0  0
  190.9290  177.1230  139.5300 C   0  0  0  0  0  2  0  0  0  0  0  0
  190.8800  176.4900  138.1520 C   0  0  0  0  0  2  0  0  0  0  0  0
  190.8630  175.1000  138.2680 O   0  0  0  0  0  0  0  0  0  0  0  0
  191.9960  174.6780  137.5720 C   0  0  0  0  0  1  0  0  0  0  0  0
  1 11  1  0  0  0  0
  2 11  2  0  0  0  0
  2  6  1  0  0  0  0
  3  7  1  0  0  0  0
  4  8  1  0  0  0  0
  5 16  1  0  0  0  0
  6 17  1  0  0  0  0
  8 14  1  0  0  0  0
  8 15  2  0  0  0  0
  9 14  1  0  0  0  0
 10 12  1  0  0  0  0
 10  5  2  0  0  0  0
 12 19  2  0  0  0  0
 13  6  1  0  0  0  0
 13 21  2  0  0  0  0
 14  1  2  0  0  0  0
 15  2  1  0  0  0  0
 16 18  2  0  0  0  0
 17  3  2  0  0  0  0
 18 13  1  0  0  0  0
 19 18  1  0  0  0  0
 20 19  1  0  0  0  0
 20 15  1  0  0  0  0
 21  3  1  0  0  0  0
 22 10  1  0  0  0  0
 23 22  1  0  0  0  0
 24 25  1  0  0  0  0
 24 23  1  0  0  0  0
 26 25  1  0  0  0  0
M  END
>  <MODEL>
9

>  <REMARK>
 VINA RESULT:      -7.8      2.240      5.554
  Name = 
  4 active torsions:
  status: ('A' for Active; 'I' for Inactive)
    1  A    between atoms: C_8  and  O_12
    2  A    between atoms: C_8  and  C_18
    3  A    between atoms: C_11  and  N_20
    4  A    between atoms: C_18  and  N_20
                            x       y       z     vdW  Elec       q    Type
                         _______ _______ _______ _____ _____    ______ ____

>  <TORSDO>
F 4

$$$$
