=
 OpenBabel10232407463D

 25 28  0  0  1  0  0  0  0  0999 V2000
  184.1820  178.6700  144.8950 C   0  0  0  0  0  0  0  0  0  0  0  0
  184.0420  178.7810  146.2460 N   0  0  0  0  0  2  0  0  0  0  0  0
  187.6170  177.9390  144.4680 C   0  0  0  0  0  0  0  0  0  0  0  0
  186.3410  178.3370  146.6830 C   0  0  0  0  0  0  0  0  0  0  0  0
  183.0090  178.8540  143.9980 C   0  0  0  0  0  1  0  0  0  0  0  0
  189.8260  177.4310  143.6480 C   0  0  0  0  0  0  0  0  0  0  0  0
  185.8030  178.2250  143.1050 N   0  0  0  0  0  0  0  0  0  0  0  0
  185.0700  178.6230  147.0940 N   0  0  0  0  0  0  0  0  0  0  0  0
  186.5500  178.2090  145.3030 C   0  0  0  0  0  0  0  0  0  0  0  0
  189.3190  177.4520  142.3210 C   0  0  0  0  0  0  0  0  0  0  0  0
  187.1270  177.9580  143.1720 C   0  0  0  0  0  0  0  0  0  0  0  0
  188.9570  177.6750  144.7320 C   0  0  0  0  0  3  0  0  0  0  0  0
  185.4420  178.3810  144.3960 C   0  0  0  0  0  0  0  0  0  0  0  0
  187.9570  177.7140  142.0840 C   0  0  0  0  0  3  0  0  0  0  0  0
  191.6490  177.4070  145.2250 O   0  0  0  0  0  0  0  0  0  0  0  0
  191.9090  176.0480  145.4700 C   0  0  0  0  0  2  0  0  0  0  0  0
  191.2800  177.1190  143.9000 C   0  0  1  0  0  3  0  0  0  0  0  0
  191.5080  175.6430  144.0780 C   0  0  0  0  0  2  0  0  0  0  0  0
  187.3800  178.1880  147.7150 C   0  0  0  0  0  3  0  0  0  0  0  0
  187.9240  177.0870  147.9870 O   0  0  0  0  0  0  0  0  0  0  0  0
  190.1990  177.1640  141.1510 C   0  0  0  0  0  2  0  0  0  0  0  0
  189.3880  176.9510  139.9650 N   0  0  0  0  0  2  0  0  0  0  0  0
  189.9210  177.8200  138.9330 C   0  0  0  0  0  2  0  0  0  0  0  0
  189.0070  179.1140  137.2280 C   0  0  0  0  0  1  0  0  0  0  0  0
  188.9740  178.8840  138.6590 N   0  0  0  0  0  2  0  0  0  0  0  0
  1  2  1  0  0  0  0
  2  8  1  0  0  0  0
  3 12  1  0  0  0  0
  3  9  2  0  0  0  0
  4  8  2  0  0  0  0
  4 19  1  0  0  0  0
  5  1  1  0  0  0  0
  6 12  2  0  0  0  0
  7 11  2  0  0  0  0
  7 13  1  0  0  0  0
  9  4  1  0  0  0  0
 10  6  1  0  0  0  0
 11  3  1  0  0  0  0
 13  1  2  0  0  0  0
 13  9  1  0  0  0  0
 14 10  2  0  0  0  0
 14 11  1  0  0  0  0
 15 16  1  0  0  0  0
 17  6  1  1  0  0  0
 17 18  1  0  0  0  0
 17 15  1  0  0  0  0
 18 16  1  0  0  0  0
 19 20  2  0  0  0  0
 21 10  1  0  0  0  0
 22 21  1  0  0  0  0
 23 22  1  0  0  0  0
 24 25  1  0  0  0  0
 25 23  1  0  0  0  0
M  END
>  <MODEL>
1

>  <REMARK>
 VINA RESULT:      -8.5      0.000      0.000
  Name = 
  6 active torsions:
  status: ('A' for Active; 'I' for Inactive)
    1  A    between atoms: C_6  and  N_11
    2  A    between atoms: C_6  and  C_18
    3  A    between atoms: C_7  and  C_8
    4  A    between atoms: N_11  and  C_16
    5  A    between atoms: C_12  and  C_20
    6  A    between atoms: C_16  and  N_24
                            x       y       z     vdW  Elec       q    Type
                         _______ _______ _______ _____ _____    ______ ____

>  <TORSDO>
F 6

$$$$
=
 OpenBabel10232407463D

 25 28  0  0  1  0  0  0  0  0999 V2000
  188.4800  178.1600  139.4000 C   0  0  0  0  0  0  0  0  0  0  0  0
  187.3590  178.5450  138.7280 N   0  0  0  0  0  0  0  0  0  0  0  0
  187.4090  177.9520  142.7640 C   0  0  0  0  0  0  0  0  0  0  0  0
  186.0100  178.6090  140.6900 C   0  0  0  0  0  0  0  0  0  0  0  0
  189.7580  177.9370  138.6690 C   0  0  0  0  0  1  0  0  0  0  0  0
  187.1950  177.6590  145.1480 C   0  0  0  0  0  0  0  0  0  0  0  0
  189.3620  177.6120  141.6250 N   0  0  0  0  0  0  0  0  0  0  0  0
  186.1860  178.7580  139.3430 N   0  0  0  0  0  0  0  0  0  0  0  0
  187.1280  178.2150  141.4380 C   0  0  0  0  0  0  0  0  0  0  0  0
  188.5680  177.2970  145.2090 C   0  0  0  0  0  0  0  0  0  0  0  0
  188.7470  177.5980  142.8290 C   0  0  2  0  0  3  0  0  0  0  0  0
  186.6120  177.9870  143.9050 C   0  0  0  0  0  3  0  0  0  0  0  0
  188.3860  177.9880  140.7710 C   0  0  0  0  0  0  0  0  0  0  0  0
  189.3470  177.2620  144.0380 C   0  0  0  0  0  3  0  0  0  0  0  0
  186.8310  178.5960  147.3400 O   0  0  0  0  0  0  0  0  0  0  0  0
  185.6480  179.3450  147.2310 C   0  0  0  0  0  2  0  0  0  0  0  0
  186.3550  177.6660  146.4010 C   0  0  1  0  0  3  0  0  0  0  0  0
  185.0660  178.4160  146.2000 C   0  0  0  0  0  2  0  0  0  0  0  0
  184.6720  178.8740  141.2420 C   0  0  0  0  0  3  0  0  0  0  0  0
  183.9430  177.9760  141.7350 O   0  0  0  0  0  0  0  0  0  0  0  0
  189.2100  176.9100  146.4990 C   0  0  0  0  0  2  0  0  0  0  0  0
  190.6550  176.9880  146.3730 N   0  0  0  0  0  2  0  0  0  0  0  0
  191.1890  177.0470  147.7200 C   0  0  0  0  0  2  0  0  0  0  0  0
  192.3760  175.3500  146.6600 C   0  0  0  0  0  1  0  0  0  0  0  0
  192.3970  176.2480  147.7980 N   0  0  0  0  0  2  0  0  0  0  0  0
  1 13  1  0  0  0  0
  2  8  1  0  0  0  0
  2  1  2  0  0  0  0
  3 11  1  0  0  0  0
  3 12  1  0  0  0  0
  4 19  1  0  0  0  0
  4  9  1  0  0  0  0
  5  1  1  0  0  0  0
  6 10  1  0  0  0  0
  7 11  1  0  0  0  0
  8  4  2  0  0  0  0
  9  3  2  0  0  0  0
 10 21  1  0  0  0  0
 11 14  1  6  0  0  0
 12  6  2  0  0  0  0
 13  9  1  0  0  0  0
 13  7  2  0  0  0  0
 14 10  2  0  0  0  0
 16 15  1  0  0  0  0
 17  6  1  6  0  0  0
 17 15  1  0  0  0  0
 18 17  1  0  0  0  0
 18 16  1  0  0  0  0
 19 20  2  0  0  0  0
 22 21  1  0  0  0  0
 22 23  1  0  0  0  0
 23 25  1  0  0  0  0
 24 25  1  0  0  0  0
M  END
>  <MODEL>
2

>  <REMARK>
 VINA RESULT:      -7.9      2.903      6.381
  Name = 
  6 active torsions:
  status: ('A' for Active; 'I' for Inactive)
    1  A    between atoms: C_6  and  N_11
    2  A    between atoms: C_6  and  C_18
    3  A    between atoms: C_7  and  C_8
    4  A    between atoms: N_11  and  C_16
    5  A    between atoms: C_12  and  C_20
    6  A    between atoms: C_16  and  N_24
                            x       y       z     vdW  Elec       q    Type
                         _______ _______ _______ _____ _____    ______ ____

>  <TORSDO>
F 6

$$$$
=
 OpenBabel10232407463D

 25 28  0  0  1  0  0  0  0  0999 V2000
  189.4350  177.7240  140.1640 C   0  0  0  0  0  0  0  0  0  0  0  0
  190.7480  177.3580  140.1900 N   0  0  0  0  0  0  0  0  0  0  0  0
  188.4530  177.5490  143.5570 C   0  0  0  0  0  0  0  0  0  0  0  0
  190.7800  177.0390  142.5500 C   0  0  0  0  0  0  0  0  0  0  0  0
  188.7760  178.0760  138.8770 C   0  0  0  0  0  1  0  0  0  0  0  0
  187.3010  177.5950  145.6750 C   0  0  0  0  0  0  0  0  0  0  0  0
  187.4560  178.0880  141.5710 N   0  0  0  0  0  0  0  0  0  0  0  0
  191.3850  177.0320  141.3250 N   0  0  0  0  0  0  0  0  0  0  0  0
  189.4280  177.4070  142.5890 C   0  0  0  0  0  0  0  0  0  0  0  0
  186.1200  178.0100  145.0030 C   0  0  0  0  0  0  0  0  0  0  0  0
  187.2990  177.9560  142.9070 C   0  0  2  0  0  3  0  0  0  0  0  0
  188.4810  177.3660  144.9370 C   0  0  0  0  0  3  0  0  0  0  0  0
  188.7480  177.7550  141.3670 C   0  0  0  0  0  0  0  0  0  0  0  0
  186.1220  178.1960  143.6090 C   0  0  0  0  0  3  0  0  0  0  0  0
  188.4870  176.8190  147.6250 O   0  0  0  0  0  0  0  0  0  0  0  0
  188.8400  177.9810  148.3310 C   0  0  0  0  0  2  0  0  0  0  0  0
  187.3030  177.4270  147.1740 C   0  0  1  0  0  3  0  0  0  0  0  0
  187.6120  178.7210  147.8760 C   0  0  0  0  0  2  0  0  0  0  0  0
  191.5900  176.6610  143.7180 C   0  0  0  0  0  3  0  0  0  0  0  0
  191.9100  175.4730  143.9760 O   0  0  0  0  0  0  0  0  0  0  0  0
  184.8620  178.2960  145.7540 C   0  0  0  0  0  2  0  0  0  0  0  0
  184.1590  179.4050  145.1330 N   0  0  0  0  0  2  0  0  0  0  0  0
  182.8390  178.9180  144.7810 C   0  0  0  0  0  2  0  0  0  0  0  0
  181.2340  179.2330  143.1250 C   0  0  0  0  0  1  0  0  0  0  0  0
  182.6510  179.0220  143.3470 N   0  0  0  0  0  2  0  0  0  0  0  0
  1  2  2  0  0  0  0
  1 13  1  0  0  0  0
  2  8  1  0  0  0  0
  3 12  1  0  0  0  0
  4  9  1  0  0  0  0
  4 19  1  0  0  0  0
  5  1  1  0  0  0  0
  7 11  1  0  0  0  0
  8  4  2  0  0  0  0
  9  3  2  0  0  0  0
 10  6  1  0  0  0  0
 10 21  1  0  0  0  0
 11  3  1  0  0  0  0
 11 14  1  1  0  0  0
 12  6  2  0  0  0  0
 13  7  2  0  0  0  0
 13  9  1  0  0  0  0
 14 10  2  0  0  0  0
 15 16  1  0  0  0  0
 17  6  1  6  0  0  0
 17 15  1  0  0  0  0
 17 18  1  0  0  0  0
 18 16  1  0  0  0  0
 19 20  2  0  0  0  0
 22 21  1  0  0  0  0
 23 22  1  0  0  0  0
 24 25  1  0  0  0  0
 25 23  1  0  0  0  0
M  END
>  <MODEL>
3

>  <REMARK>
 VINA RESULT:      -7.8      1.445      6.048
  Name = 
  6 active torsions:
  status: ('A' for Active; 'I' for Inactive)
    1  A    between atoms: C_6  and  N_11
    2  A    between atoms: C_6  and  C_18
    3  A    between atoms: C_7  and  C_8
    4  A    between atoms: N_11  and  C_16
    5  A    between atoms: C_12  and  C_20
    6  A    between atoms: C_16  and  N_24
                            x       y       z     vdW  Elec       q    Type
                         _______ _______ _______ _____ _____    ______ ____

>  <TORSDO>
F 6

$$$$
=
 OpenBabel10232407463D

 25 28  0  0  1  0  0  0  0  0999 V2000
  184.2750  178.6420  144.4220 C   0  0  0  0  0  0  0  0  0  0  0  0
  183.3240  178.9580  143.4980 N   0  0  0  0  0  0  0  0  0  0  0  0
  187.1700  178.0580  142.4770 C   0  0  0  0  0  0  0  0  0  0  0  0
  184.8110  178.7250  141.6520 C   0  0  0  0  0  0  0  0  0  0  0  0
  183.9370  178.6140  145.8720 C   0  0  0  0  0  1  0  0  0  0  0  0
  189.3760  177.5670  141.6370 C   0  0  0  0  0  0  0  0  0  0  0  0
  186.6340  178.0210  144.7000 N   0  0  0  0  0  0  0  0  0  0  0  0
  183.5810  178.9960  142.1820 N   0  0  0  0  0  0  0  0  0  0  0  0
  185.8330  178.3930  142.5530 C   0  0  0  0  0  0  0  0  0  0  0  0
  189.8160  177.3500  142.9700 C   0  0  0  0  0  0  0  0  0  0  0  0
  187.6050  177.8460  143.7760 C   0  0  2  0  0  3  0  0  0  0  0  0
  188.0340  177.9290  141.3940 C   0  0  0  0  0  3  0  0  0  0  0  0
  185.5500  178.3530  143.9660 C   0  0  0  0  0  0  0  0  0  0  0  0
  188.9240  177.4960  144.0470 C   0  0  0  0  0  3  0  0  0  0  0  0
  190.4260  176.1170  140.0210 O   0  0  0  0  0  0  0  0  0  0  0  0
  189.8910  176.4980  138.7790 C   0  0  0  0  0  2  0  0  0  0  0  0
  190.3440  177.4400  140.4870 C   0  0  1  0  0  3  0  0  0  0  0  0
  189.7430  177.9350  139.1990 C   0  0  0  0  0  2  0  0  0  0  0  0
  184.9620  178.8020  140.1900 C   0  0  0  0  0  3  0  0  0  0  0  0
  184.7670  179.8570  139.5350 O   0  0  0  0  0  0  0  0  0  0  0  0
  191.2360  177.0010  143.2690 C   0  0  0  0  0  2  0  0  0  0  0  0
  191.6000  177.4990  144.5840 N   0  0  0  0  0  2  0  0  0  0  0  0
  191.7450  176.3400  145.4440 C   0  0  0  0  0  2  0  0  0  0  0  0
  192.4220  175.6990  147.5770 C   0  0  0  0  0  1  0  0  0  0  0  0
  191.7860  176.7670  146.8290 N   0  0  0  0  0  2  0  0  0  0  0  0
  1  5  1  0  0  0  0
  2  1  2  0  0  0  0
  3  9  2  0  0  0  0
  3 11  1  0  0  0  0
  4  8  2  0  0  0  0
  4  9  1  0  0  0  0
  6 10  1  0  0  0  0
  8  2  1  0  0  0  0
  9 13  1  0  0  0  0
 10 21  1  0  0  0  0
 10 14  2  0  0  0  0
 11 14  1  1  0  0  0
 11  7  1  0  0  0  0
 12  6  2  0  0  0  0
 12  3  1  0  0  0  0
 13  1  1  0  0  0  0
 13  7  2  0  0  0  0
 15 17  1  0  0  0  0
 16 18  1  0  0  0  0
 16 15  1  0  0  0  0
 17  6  1  1  0  0  0
 18 17  1  0  0  0  0
 19  4  1  0  0  0  0
 20 19  2  0  0  0  0
 21 22  1  0  0  0  0
 22 23  1  0  0  0  0
 23 25  1  0  0  0  0
 25 24  1  0  0  0  0
M  END
>  <MODEL>
4

>  <REMARK>
 VINA RESULT:      -7.8      3.123      5.180
  Name = 
  6 active torsions:
  status: ('A' for Active; 'I' for Inactive)
    1  A    between atoms: C_6  and  N_11
    2  A    between atoms: C_6  and  C_18
    3  A    between atoms: C_7  and  C_8
    4  A    between atoms: N_11  and  C_16
    5  A    between atoms: C_12  and  C_20
    6  A    between atoms: C_16  and  N_24
                            x       y       z     vdW  Elec       q    Type
                         _______ _______ _______ _____ _____    ______ ____

>  <TORSDO>
F 6

$$$$
=
 OpenBabel10232407463D

 25 28  0  0  1  0  0  0  0  0999 V2000
  189.9810  176.9540  146.5840 C   0  0  0  0  0  0  0  0  0  0  0  0
  189.2950  177.0690  147.7560 N   0  0  0  0  0  2  0  0  0  0  0  0
  187.6160  177.9080  144.1330 C   0  0  0  0  0  0  0  0  0  0  0  0
  187.2870  177.7890  146.6960 C   0  0  0  0  0  0  0  0  0  0  0  0
  191.4020  176.5100  146.5830 C   0  0  0  0  0  1  0  0  0  0  0  0
  186.4160  178.4630  142.1180 C   0  0  0  0  0  0  0  0  0  0  0  0
  189.7980  177.2240  144.1510 N   0  0  0  0  0  0  0  0  0  0  0  0
  188.0140  177.4650  147.8070 N   0  0  0  0  0  0  0  0  0  0  0  0
  187.9390  177.6920  145.4590 C   0  0  0  0  0  0  0  0  0  0  0  0
  187.5810  178.1640  141.3620 C   0  0  0  0  0  0  0  0  0  0  0  0
  188.7500  177.6180  143.3920 C   0  0  0  0  0  0  0  0  0  0  0  0
  186.4410  178.3350  143.5230 C   0  0  0  0  0  3  0  0  0  0  0  0
  189.3150  177.2640  145.4100 C   0  0  0  0  0  0  0  0  0  0  0  0
  188.7580  177.7430  142.0070 C   0  0  0  0  0  3  0  0  0  0  0  0
  184.5660  177.9240  140.6680 O   0  0  0  0  0  0  0  0  0  0  0  0
  183.4290  177.9480  141.4930 C   0  0  0  0  0  2  0  0  0  0  0  0
  185.1650  178.9450  141.4260 C   0  0  1  0  0  3  0  0  0  0  0  0
  184.0010  179.0240  142.3770 C   0  0  0  0  0  2  0  0  0  0  0  0
  185.8900  178.2100  146.8880 C   0  0  0  0  0  3  0  0  0  0  0  0
  185.5360  179.4160  146.9260 O   0  0  0  0  0  0  0  0  0  0  0  0
  187.6040  178.3220  139.8780 C   0  0  0  0  0  2  0  0  0  0  0  0
  188.9190  178.7670  139.4500 N   0  0  0  0  0  2  0  0  0  0  0  0
  189.0590  178.3790  138.0600 C   0  0  0  0  0  2  0  0  0  0  0  0
  187.6560  178.4120  136.2030 C   0  0  0  0  0  1  0  0  0  0  0  0
  188.2470  179.2480  137.2310 N   0  0  0  0  0  2  0  0  0  0  0  0
  1  2  1  0  0  0  0
  2  8  1  0  0  0  0
  3  9  2  0  0  0  0
  4 19  1  0  0  0  0
  4  8  2  0  0  0  0
  5  1  1  0  0  0  0
  6 12  2  0  0  0  0
  7 13  1  0  0  0  0
  9  4  1  0  0  0  0
 10 14  2  0  0  0  0
 10  6  1  0  0  0  0
 11  3  1  0  0  0  0
 11  7  2  0  0  0  0
 12  3  1  0  0  0  0
 13  9  1  0  0  0  0
 13  1  2  0  0  0  0
 14 11  1  0  0  0  0
 15 17  1  0  0  0  0
 15 16  1  0  0  0  0
 16 18  1  0  0  0  0
 17  6  1  1  0  0  0
 17 18  1  0  0  0  0
 19 20  2  0  0  0  0
 21 10  1  0  0  0  0
 22 21  1  0  0  0  0
 23 22  1  0  0  0  0
 24 25  1  0  0  0  0
 25 23  1  0  0  0  0
M  END
>  <MODEL>
5

>  <REMARK>
 VINA RESULT:      -7.6      2.640      4.699
  Name = 
  6 active torsions:
  status: ('A' for Active; 'I' for Inactive)
    1  A    between atoms: C_6  and  N_11
    2  A    between atoms: C_6  and  C_18
    3  A    between atoms: C_7  and  C_8
    4  A    between atoms: N_11  and  C_16
    5  A    between atoms: C_12  and  C_20
    6  A    between atoms: C_16  and  N_24
                            x       y       z     vdW  Elec       q    Type
                         _______ _______ _______ _____ _____    ______ ____

>  <TORSDO>
F 6

$$$$
=
 OpenBabel10232407463D

 25 28  0  0  1  0  0  0  0  0999 V2000
  189.2070  178.0730  139.4320 C   0  0  0  0  0  0  0  0  0  0  0  0
  190.4530  177.5560  139.6240 N   0  0  0  0  0  0  0  0  0  0  0  0
  187.7070  177.8470  142.6270 C   0  0  0  0  0  0  0  0  0  0  0  0
  190.0920  177.1190  141.9370 C   0  0  0  0  0  0  0  0  0  0  0  0
  188.7930  178.5630  138.0890 C   0  0  0  0  0  1  0  0  0  0  0  0
  186.2580  177.9220  144.5530 C   0  0  0  0  0  0  0  0  0  0  0  0
  187.0880  178.5960  140.5570 N   0  0  0  0  0  0  0  0  0  0  0  0
  190.8710  177.1030  140.8160 N   0  0  0  0  0  0  0  0  0  0  0  0
  188.7970  177.6400  141.8040 C   0  0  0  0  0  0  0  0  0  0  0  0
  185.2450  178.5050  143.7460 C   0  0  0  0  0  0  0  0  0  0  0  0
  186.7160  178.4170  141.8450 C   0  0  0  0  0  0  0  0  0  0  0  0
  187.5060  177.5940  143.9810 C   0  0  0  0  0  2  0  0  0  0  0  0
  188.3530  178.1250  140.5210 C   0  0  0  0  0  0  0  0  0  0  0  0
  185.4790  178.7580  142.3820 C   0  0  0  0  0  3  0  0  0  0  0  0
  187.1800  177.2460  146.6760 O   0  0  0  0  0  0  0  0  0  0  0  0
  187.2010  178.4120  147.4590 C   0  0  0  0  0  2  0  0  0  0  0  0
  186.0150  177.6800  146.0220 C   0  0  1  0  0  3  0  0  0  0  0  0
  185.9710  178.9700  146.7950 C   0  0  0  0  0  2  0  0  0  0  0  0
  190.6690  176.5920  143.1840 C   0  0  0  0  0  3  0  0  0  0  0  0
  191.6070  177.1600  143.7990 O   0  0  0  0  0  0  0  0  0  0  0  0
  183.9260  178.8980  144.3230 C   0  0  0  0  0  2  0  0  0  0  0  0
  182.9790  179.1620  143.2540 N   0  0  0  0  0  2  0  0  0  0  0  0
  181.6700  178.7890  143.7540 C   0  0  0  0  0  2  0  0  0  0  0  0
  181.5200  178.7880  141.4310 C   0  0  0  0  0  1  0  0  0  0  0  0
  180.7350  178.7040  142.6480 N   0  0  0  0  0  2  0  0  0  0  0  0
  1  2  2  0  0  0  0
  1 13  1  0  0  0  0
  2  8  1  0  0  0  0
  3 12  1  0  0  0  0
  4 19  1  0  0  0  0
  5  1  1  0  0  0  0
  7 11  1  0  0  0  0
  8  4  2  0  0  0  0
  9  4  1  0  0  0  0
  9  3  2  0  0  0  0
 10 21  1  0  0  0  0
 10  6  2  0  0  0  0
 11 14  2  0  0  0  0
 11  3  1  0  0  0  0
 12  6  1  0  0  0  0
 13  7  2  0  0  0  0
 13  9  1  0  0  0  0
 14 10  1  0  0  0  0
 15 16  1  0  0  0  0
 17  6  1  6  0  0  0
 17 15  1  0  0  0  0
 17 18  1  0  0  0  0
 18 16  1  0  0  0  0
 19 20  2  0  0  0  0
 22 23  1  0  0  0  0
 22 21  1  0  0  0  0
 24 25  1  0  0  0  0
 25 23  1  0  0  0  0
M  END
>  <MODEL>
6

>  <REMARK>
 VINA RESULT:      -7.6      1.753      6.267
  Name = 
  6 active torsions:
  status: ('A' for Active; 'I' for Inactive)
    1  A    between atoms: C_6  and  N_11
    2  A    between atoms: C_6  and  C_18
    3  A    between atoms: C_7  and  C_8
    4  A    between atoms: N_11  and  C_16
    5  A    between atoms: C_12  and  C_20
    6  A    between atoms: C_16  and  N_24
                            x       y       z     vdW  Elec       q    Type
                         _______ _______ _______ _____ _____    ______ ____

>  <TORSDO>
F 6

$$$$
=
 OpenBabel10232407463D

 25 28  0  0  1  0  0  0  0  0999 V2000
  188.6020  177.2920  146.6960 C   0  0  0  0  0  0  0  0  0  0  0  0
  189.7350  176.9140  146.0400 N   0  0  0  0  0  2  0  0  0  0  0  0
  186.3600  178.1130  144.0860 C   0  0  0  0  0  0  0  0  0  0  0  0
  188.8000  177.2760  143.8800 C   0  0  0  0  0  0  0  0  0  0  0  0
  188.5530  177.2800  148.1840 C   0  0  0  0  0  1  0  0  0  0  0  0
  184.4900  178.7770  142.7190 C   0  0  0  0  0  0  0  0  0  0  0  0
  186.3020  178.0880  146.3720 N   0  0  0  0  0  0  0  0  0  0  0  0
  189.8270  176.9080  144.7020 N   0  0  0  0  0  0  0  0  0  0  0  0
  187.6050  177.6760  144.4960 C   0  0  0  0  0  0  0  0  0  0  0  0
  183.7340  179.0140  143.8990 C   0  0  0  0  0  0  0  0  0  0  0  0
  185.6190  178.3450  145.2340 C   0  0  0  0  0  0  0  0  0  0  0  0
  185.8190  178.3170  142.8210 C   0  0  0  0  0  3  0  0  0  0  0  0
  187.5130  177.6820  145.9350 C   0  0  0  0  0  0  0  0  0  0  0  0
  184.3040  178.7910  145.1650 C   0  0  0  0  0  3  0  0  0  0  0  0
  184.7810  179.5400  140.4500 O   0  0  0  0  0  0  0  0  0  0  0  0
  184.7250  178.3790  139.6590 C   0  0  0  0  0  2  0  0  0  0  0  0
  183.8650  178.9880  141.3620 C   0  0  1  0  0  3  0  0  0  0  0  0
  183.7620  177.6990  140.5940 C   0  0  0  0  0  2  0  0  0  0  0  0
  189.0290  177.2250  142.4280 C   0  0  0  0  0  3  0  0  0  0  0  0
  189.7820  176.3790  141.8820 O   0  0  0  0  0  0  0  0  0  0  0  0
  182.3140  179.4670  143.8300 C   0  0  0  0  0  2  0  0  0  0  0  0
  181.4290  178.3160  143.8390 N   0  0  0  0  0  2  0  0  0  0  0  0
  180.0980  178.8100  143.5410 C   0  0  0  0  0  2  0  0  0  0  0  0
  180.0090  177.7690  141.4610 C   0  0  0  0  0  1  0  0  0  0  0  0
  179.9820  179.0620  142.1180 N   0  0  0  0  0  2  0  0  0  0  0  0
  1  5  1  0  0  0  0
  2  1  1  0  0  0  0
  3  9  2  0  0  0  0
  3 11  1  0  0  0  0
  4  9  1  0  0  0  0
  4  8  2  0  0  0  0
  6 12  2  0  0  0  0
  6 10  1  0  0  0  0
  8  2  1  0  0  0  0
  9 13  1  0  0  0  0
 10 14  2  0  0  0  0
 11  7  2  0  0  0  0
 12  3  1  0  0  0  0
 13  7  1  0  0  0  0
 13  1  2  0  0  0  0
 14 11  1  0  0  0  0
 15 17  1  0  0  0  0
 16 15  1  0  0  0  0
 16 18  1  0  0  0  0
 17  6  1  1  0  0  0
 18 17  1  0  0  0  0
 19  4  1  0  0  0  0
 20 19  2  0  0  0  0
 21 22  1  0  0  0  0
 21 10  1  0  0  0  0
 23 22  1  0  0  0  0
 24 25  1  0  0  0  0
 25 23  1  0  0  0  0
M  END
>  <MODEL>
7

>  <REMARK>
 VINA RESULT:      -7.4      3.252      6.747
  Name = 
  6 active torsions:
  status: ('A' for Active; 'I' for Inactive)
    1  A    between atoms: C_6  and  N_11
    2  A    between atoms: C_6  and  C_18
    3  A    between atoms: C_7  and  C_8
    4  A    between atoms: N_11  and  C_16
    5  A    between atoms: C_12  and  C_20
    6  A    between atoms: C_16  and  N_24
                            x       y       z     vdW  Elec       q    Type
                         _______ _______ _______ _____ _____    ______ ____

>  <TORSDO>
F 6

$$$$
=
 OpenBabel10232407463D

 25 28  0  0  1  0  0  0  0  0999 V2000
  188.8120  177.3880  147.3610 C   0  0  0  0  0  0  0  0  0  0  0  0
  190.0970  176.9580  147.5060 N   0  0  0  0  0  2  0  0  0  0  0  0
  188.4080  177.6470  143.8570 C   0  0  0  0  0  0  0  0  0  0  0  0
  190.5140  176.9040  145.1620 C   0  0  0  0  0  0  0  0  0  0  0  0
  187.9580  177.6270  148.5560 C   0  0  0  0  0  1  0  0  0  0  0  0
  187.6270  177.9800  141.6010 C   0  0  0  0  0  0  0  0  0  0  0  0
  187.1090  178.0080  145.7040 N   0  0  0  0  0  0  0  0  0  0  0  0
  190.9050  176.7290  146.4590 N   0  0  0  0  0  0  0  0  0  0  0  0
  189.2010  177.3460  144.9470 C   0  0  0  0  0  0  0  0  0  0  0  0
  186.3640  178.3770  142.1150 C   0  0  0  0  0  0  0  0  0  0  0  0
  187.1740  178.0340  144.3540 C   0  0  0  0  0  0  0  0  0  0  0  0
  188.6580  177.6070  142.4880 C   0  0  0  0  0  3  0  0  0  0  0  0
  188.3390  177.5910  146.0750 C   0  0  0  0  0  0  0  0  0  0  0  0
  186.1360  178.4000  143.5030 C   0  0  0  0  0  3  0  0  0  0  0  0
  188.5610  179.0540  139.6550 O   0  0  0  0  0  0  0  0  0  0  0  0
  189.6470  178.2490  139.2720 C   0  0  0  0  0  2  0  0  0  0  0  0
  187.8580  177.9270  140.1100 C   0  0  1  0  0  3  0  0  0  0  0  0
  188.9810  176.9900  139.7570 C   0  0  0  0  0  2  0  0  0  0  0  0
  191.4970  176.6180  144.1040 C   0  0  0  0  0  3  0  0  0  0  0  0
  191.9360  175.4630  143.8700 O   0  0  0  0  0  0  0  0  0  0  0  0
  185.2380  178.7440  141.2060 C   0  0  0  0  0  2  0  0  0  0  0  0
  184.0370  178.0270  141.5960 N   0  0  0  0  0  2  0  0  0  0  0  0
  182.9160  178.7480  141.0250 C   0  0  0  0  0  2  0  0  0  0  0  0
  182.2470  179.0230  143.2370 C   0  0  0  0  0  1  0  0  0  0  0  0
  181.7750  178.6560  141.9160 N   0  0  0  0  0  2  0  0  0  0  0  0
  1  2  1  0  0  0  0
  1  5  1  0  0  0  0
  3 11  1  0  0  0  0
  3  9  2  0  0  0  0
  4  8  2  0  0  0  0
  6 10  1  0  0  0  0
  6 12  2  0  0  0  0
  7 13  1  0  0  0  0
  8  2  1  0  0  0  0
  9  4  1  0  0  0  0
  9 13  1  0  0  0  0
 10 14  2  0  0  0  0
 11  7  2  0  0  0  0
 12  3  1  0  0  0  0
 13  1  2  0  0  0  0
 14 11  1  0  0  0  0
 15 17  1  0  0  0  0
 16 15  1  0  0  0  0
 16 18  1  0  0  0  0
 17  6  1  1  0  0  0
 18 17  1  0  0  0  0
 19  4  1  0  0  0  0
 20 19  2  0  0  0  0
 21 22  1  0  0  0  0
 21 10  1  0  0  0  0
 23 22  1  0  0  0  0
 23 25  1  0  0  0  0
 25 24  1  0  0  0  0
M  END
>  <MODEL>
8

>  <REMARK>
 VINA RESULT:      -7.4      2.714      5.327
  Name = 
  6 active torsions:
  status: ('A' for Active; 'I' for Inactive)
    1  A    between atoms: C_6  and  N_11
    2  A    between atoms: C_6  and  C_18
    3  A    between atoms: C_7  and  C_8
    4  A    between atoms: N_11  and  C_16
    5  A    between atoms: C_12  and  C_20
    6  A    between atoms: C_16  and  N_24
                            x       y       z     vdW  Elec       q    Type
                         _______ _______ _______ _____ _____    ______ ____

>  <TORSDO>
F 6

$$$$
=
 OpenBabel10232407463D

 25 28  0  0  1  0  0  0  0  0999 V2000
  182.8440  178.7090  143.1000 C   0  0  0  0  0  0  0  0  0  0  0  0
  182.3750  178.8920  141.8340 N   0  0  0  0  0  0  0  0  0  0  0  0
  186.3030  178.1380  142.6350 C   0  0  0  0  0  0  0  0  0  0  0  0
  184.5120  178.5960  140.8260 C   0  0  0  0  0  0  0  0  0  0  0  0
  181.9190  178.7800  144.2640 C   0  0  0  0  0  1  0  0  0  0  0  0
  188.6650  177.7110  142.8630 C   0  0  0  0  0  0  0  0  0  0  0  0
  184.8680  178.2520  144.4120 N   0  0  0  0  0  0  0  0  0  0  0  0
  183.1690  178.8370  140.7540 N   0  0  0  0  0  0  0  0  0  0  0  0
  185.0560  178.3990  142.1030 C   0  0  0  0  0  0  0  0  0  0  0  0
  188.4970  177.6300  144.2710 C   0  0  0  0  0  0  0  0  0  0  0  0
  186.1450  178.0600  144.0090 C   0  0  2  0  0  3  0  0  0  0  0  0
  187.5500  177.9720  142.0390 C   0  0  0  0  0  3  0  0  0  0  0  0
  184.1970  178.4580  143.2590 C   0  0  0  0  0  0  0  0  0  0  0  0
  187.2270  177.8110  144.8480 C   0  0  0  0  0  3  0  0  0  0  0  0
  190.2940  176.2080  141.9120 O   0  0  0  0  0  0  0  0  0  0  0  0
  190.3550  176.5420  140.5490 C   0  0  0  0  0  2  0  0  0  0  0  0
  190.0340  177.5470  142.2510 C   0  0  1  0  0  3  0  0  0  0  0  0
  190.0550  177.9930  140.8140 C   0  0  0  0  0  2  0  0  0  0  0  0
  185.2720  178.5610  139.5660 C   0  0  0  0  0  3  0  0  0  0  0  0
  185.2310  179.4840  138.7140 O   0  0  0  0  0  0  0  0  0  0  0  0
  189.6580  177.3910  145.1770 C   0  0  0  0  0  2  0  0  0  0  0  0
  189.1840  177.0320  146.5020 N   0  0  0  0  0  2  0  0  0  0  0  0
  190.3470  176.9990  147.3680 C   0  0  0  0  0  2  0  0  0  0  0  0
  192.3130  175.7540  147.3090 C   0  0  0  0  0  1  0  0  0  0  0  0
  191.5320  176.7330  146.5760 N   0  0  0  0  0  2  0  0  0  0  0  0
  1 13  1  0  0  0  0
  1  5  1  0  0  0  0
  2  1  2  0  0  0  0
  3 11  1  0  0  0  0
  4  9  1  0  0  0  0
  6 10  1  0  0  0  0
  8  4  2  0  0  0  0
  8  2  1  0  0  0  0
  9  3  2  0  0  0  0
  9 13  1  0  0  0  0
 10 14  2  0  0  0  0
 10 21  1  0  0  0  0
 11  7  1  0  0  0  0
 11 14  1  1  0  0  0
 12  3  1  0  0  0  0
 12  6  2  0  0  0  0
 13  7  2  0  0  0  0
 15 17  1  0  0  0  0
 16 18  1  0  0  0  0
 16 15  1  0  0  0  0
 17  6  1  6  0  0  0
 18 17  1  0  0  0  0
 19  4  1  0  0  0  0
 20 19  2  0  0  0  0
 21 22  1  0  0  0  0
 22 23  1  0  0  0  0
 25 24  1  0  0  0  0
 25 23  1  0  0  0  0
M  END
>  <MODEL>
9

>  <REMARK>
 VINA RESULT:      -7.4      3.163      5.373
  Name = 
  6 active torsions:
  status: ('A' for Active; 'I' for Inactive)
    1  A    between atoms: C_6  and  N_11
    2  A    between atoms: C_6  and  C_18
    3  A    between atoms: C_7  and  C_8
    4  A    between atoms: N_11  and  C_16
    5  A    between atoms: C_12  and  C_20
    6  A    between atoms: C_16  and  N_24
                            x       y       z     vdW  Elec       q    Type
                         _______ _______ _______ _____ _____    ______ ____

>  <TORSDO>
F 6

$$$$
