=
 OpenBabel10232410363D

 50 53  0  0  1  0  0  0  0  0999 V2000
  189.3920  178.0040  142.1110 C   0  0  1  0  0  3  0  0  0  0  0  0
  190.0030  178.9310  143.1650 C   0  0  0  0  0  2  0  0  0  0  0  0
  191.2160  178.2870  143.8240 C   0  0  0  0  0  2  0  0  0  0  0  0
  190.9010  177.8960  145.1910 N   0  0  0  0  0  2  0  0  0  0  0  0
  191.7810  175.7410  144.9990 O   0  0  0  0  0  0  0  0  0  0  0  0
  191.2640  176.6240  145.7340 C   0  0  0  0  0  0  0  0  0  0  0  0
  191.0720  176.3470  147.1950 C   0  0  2  0  0  3  0  0  0  0  0  0
  188.8340  177.2660  147.9390 C   0  0  0  0  0  0  0  0  0  0  0  0
  188.0500  178.3850  148.5240 C   0  0  0  0  0  1  0  0  0  0  0  0
  188.2370  176.2240  147.5550 O   0  0  0  0  0  0  0  0  0  0  0  0
  190.2530  177.3820  147.8170 N   0  0  0  0  0  2  0  0  0  0  0  0
  192.7410  177.1580  148.8790 O   0  0  0  0  0  1  0  0  0  0  0  0
  192.3900  176.2470  147.8900 C   0  0  0  0  0  0  0  0  0  0  0  0
  193.1880  175.3260  147.5840 O   0  0  0  0  0  0  0  0  0  0  0  0
  190.3700  177.4240  141.2420 O   0  0  0  0  0  0  0  0  0  0  0  0
  189.3580  177.9780  139.1690 N   0  0  0  0  0  0  0  0  0  0  0  0
  188.1420  177.0380  136.9420 S   0  0  0  0  0  0  0  0  0  0  0  0
  191.3500  176.7460  139.0170 C   0  0  0  0  0  2  0  0  0  0  0  0
  190.3140  177.4220  139.8430 C   0  0  0  0  0  0  0  0  0  0  0  0
  191.1110  176.2600  136.5590 C   0  0  0  0  0  0  0  0  0  0  0  0
  189.5730  177.8300  137.7410 C   0  0  2  0  0  3  0  0  0  0  0  0
  190.2920  176.4110  135.3360 C   0  0  0  0  0  3  0  0  0  0  0  0
  189.0170  176.8190  135.3800 C   0  0  0  0  0  3  0  0  0  0  0  0
  190.7490  176.9160  137.6690 C   0  0  0  0  0  0  0  0  0  0  0  0
  191.3200  173.3840  137.1570 O   0  0  0  0  0  0  0  0  0  0  0  0
  192.2930  175.4430  136.5790 N   0  0  0  0  0  2  0  0  0  0  0  0
  192.3600  174.0390  136.8710 C   0  0  0  0  0  0  0  0  0  0  0  0
  193.8050  172.3200  136.1380 O   0  0  0  0  0  0  0  0  0  0  0  0
  193.6570  173.3570  136.8410 C   0  0  0  0  0  0  0  0  0  0  0  0
  194.7240  173.8650  137.5870 O   0  0  0  0  0  0  0  0  0  0  0  0
  196.0700  173.4730  137.3370 C   0  0  1  0  0  3  0  0  0  0  0  0
  196.9040  174.6930  137.0130 C   0  0  1  0  0  3  0  0  0  0  0  0
  197.0300  174.0450  138.3770 C   0  0  1  0  0  3  0  0  0  0  0  0
  198.0850  174.2900  136.1570 C   0  0  0  0  0  2  0  0  0  0  0  0
  198.7120  175.4340  135.6510 O   0  0  0  0  0  1  0  0  0  0  0  0
  196.3570  174.8130  139.3300 O   0  0  0  0  0  0  0  0  0  0  0  0
  197.3160  175.0920  140.3060 C   0  0  0  0  0  2  0  0  0  0  0  0
  197.0950  176.3660  140.8220 O   0  0  0  0  0  1  0  0  0  0  0  0
  188.3990  176.9750  142.6580 C   0  0  0  0  0  2  0  0  0  0  0  0
  188.0210  177.2180  144.1100 C   0  0  0  0  0  2  0  0  0  0  0  0
  186.1040  178.0180  145.3930 C   0  0  0  0  0  3  0  0  0  0  0  0
  186.6270  177.7380  144.1940 C   0  0  0  0  0  0  0  0  0  0  0  0
  183.9010  178.6770  144.3110 C   0  0  0  0  0  0  0  0  0  0  0  0
  185.8720  177.9940  142.9100 C   0  0  0  0  0  2  0  0  0  0  0  0
  184.7330  178.5280  145.5150 C   0  0  0  0  0  0  0  0  0  0  0  0
  184.4320  178.4080  143.1090 C   0  0  0  0  0  3  0  0  0  0  0  0
  184.2700  178.8140  146.6490 O   0  0  0  0  0  0  0  0  0  0  0  0
  182.5700  179.0930  144.4500 O   0  0  0  0  0  0  0  0  0  0  0  0
  180.3020  178.4740  143.9090 C   0  0  0  0  0  1  0  0  0  0  0  0
  181.6170  179.0290  143.3930 C   0  0  0  0  0  2  0  0  0  0  0  0
  1 39  1  1  0  0  0
  1  2  1  0  0  0  0
  2  3  1  0  0  0  0
  3  4  1  0  0  0  0
  4  6  1  0  0  0  0
  5  6  2  0  0  0  0
  7  6  1  6  0  0  0
  7 11  1  0  0  0  0
  7 13  1  0  0  0  0
  8  9  1  0  0  0  0
 10  8  2  0  0  0  0
 11  8  1  0  0  0  0
 13 12  1  0  0  0  0
 14 13  2  0  0  0  0
 15  1  1  0  0  0  0
 16 19  2  0  0  0  0
 18 19  1  0  0  0  0
 19 15  1  0  0  0  0
 20 26  1  0  0  0  0
 20 24  2  0  0  0  0
 21 17  1  6  0  0  0
 21 16  1  0  0  0  0
 22 23  2  0  0  0  0
 22 20  1  0  0  0  0
 23 17  1  0  0  0  0
 24 21  1  0  0  0  0
 24 18  1  0  0  0  0
 26 27  1  0  0  0  0
 27 25  2  0  0  0  0
 28 29  2  0  0  0  0
 29 27  1  0  0  0  0
 29 30  1  0  0  0  0
 31 30  1  1  0  0  0
 31 33  1  0  0  0  0
 32 34  1  6  0  0  0
 32 31  1  0  0  0  0
 32 33  1  0  0  0  0
 33 36  1  1  0  0  0
 35 34  1  0  0  0  0
 36 37  1  0  0  0  0
 37 38  1  0  0  0  0
 39 40  1  0  0  0  0
 40 42  1  0  0  0  0
 41 45  1  0  0  0  0
 42 41  2  0  0  0  0
 43 48  1  0  0  0  0
 43 45  1  0  0  0  0
 44 46  1  0  0  0  0
 44 42  1  0  0  0  0
 45 47  2  0  0  0  0
 46 43  2  0  0  0  0
 50 49  1  0  0  0  0
 50 48  1  0  0  0  0
M  END
>  <MODEL>
1

>  <REMARK>
 VINA RESULT:      -8.3      0.000      0.000
  Name = 
  20 active torsions:
  status: ('A' for Active; 'I' for Inactive)
    1  A    between atoms: C_2  and  C_7
    2  A    between atoms: C_2  and  O_8
    3  A    between atoms: C_2  and  C_35
    4  A    between atoms: N_3  and  C_18
    5  A    between atoms: O_4  and  C_9
    6  A    between atoms: O_4  and  C_40
    7  A    between atoms: C_6  and  C_7
    8  A    between atoms: C_6  and  C_15
    9  A    between atoms: O_8  and  C_23
   10  A    between atoms: C_11  and  C_36
   11  A    between atoms: C_18  and  C_35
   12  A    between atoms: C_22  and  CA_50
   13  A    between atoms: C_25  and  CA_50
   14  A    between atoms: N_26  and  C_28
   15  A    between atoms: C_30  and  C_37
   16  A    between atoms: C_30  and  O_48
   17  A    between atoms: C_33  and  O_48
   18  A    between atoms: O_38  and  C_39
   19  A    between atoms: O_38  and  C_42
   20  A    between atoms: N_47  and  CA_50
                            x       y       z     vdW  Elec       q    Type
                         _______ _______ _______ _____ _____    ______ ____

>  <TORSDO>
F 20

$$$$
=
 OpenBabel10232410363D

 50 53  0  0  1  0  0  0  0  0999 V2000
  189.9020  177.7990  138.6320 C   0  0  1  0  0  3  0  0  0  0  0  0
  188.9530  178.9080  138.1690 C   0  0  0  0  0  2  0  0  0  0  0  0
  188.1040  178.4460  136.9920 C   0  0  0  0  0  2  0  0  0  0  0  0
  187.0340  177.5720  137.4520 N   0  0  0  0  0  2  0  0  0  0  0  0
  186.7080  176.5360  135.3840 O   0  0  0  0  0  0  0  0  0  0  0  0
  186.4160  176.5970  136.6070 C   0  0  0  0  0  0  0  0  0  0  0  0
  185.4470  175.6080  137.1830 C   0  0  2  0  0  3  0  0  0  0  0  0
  185.5060  173.0970  136.8660 C   0  0  0  0  0  0  0  0  0  0  0  0
  185.4690  171.9310  135.9460 C   0  0  0  0  0  1  0  0  0  0  0  0
  185.6690  172.9080  138.1030 O   0  0  0  0  0  0  0  0  0  0  0  0
  185.3570  174.4180  136.3430 N   0  0  0  0  0  2  0  0  0  0  0  0
  183.7230  177.3250  136.5870 O   0  0  0  0  0  0  0  0  0  0  0  0
  184.0970  176.2250  137.3470 C   0  0  0  0  0  0  0  0  0  0  0  0
  183.2880  175.7390  138.1760 O   0  0  0  0  0  1  0  0  0  0  0  0
  189.4060  177.0730  139.7600 O   0  0  0  0  0  0  0  0  0  0  0  0
  190.9450  177.0370  141.5650 N   0  0  0  0  0  0  0  0  0  0  0  0
  191.5630  175.9570  143.9670 S   0  0  0  0  0  0  0  0  0  0  0  0
  188.7990  177.8330  142.0890 C   0  0  0  0  0  2  0  0  0  0  0  0
  189.7660  177.2970  141.0940 C   0  0  0  0  0  0  0  0  0  0  0  0
  189.1730  177.8230  144.5790 C   0  0  0  0  0  0  0  0  0  0  0  0
  191.0310  177.3850  142.9720 C   0  0  2  0  0  3  0  0  0  0  0  0
  190.0950  177.5240  145.6960 C   0  0  0  0  0  3  0  0  0  0  0  0
  191.2030  176.7910  145.5260 C   0  0  0  0  0  3  0  0  0  0  0  0
  189.6250  177.7360  143.3210 C   0  0  0  0  0  0  0  0  0  0  0  0
  187.5590  177.4410  147.0120 O   0  0  0  0  0  0  0  0  0  0  0  0
  187.8110  178.2200  144.8100 N   0  0  0  0  0  2  0  0  0  0  0  0
  187.0530  178.0220  146.0130 C   0  0  0  0  0  0  0  0  0  0  0  0
  185.0200  178.3970  147.1570 O   0  0  0  0  0  0  0  0  0  0  0  0
  185.6690  178.4990  146.0790 C   0  0  0  0  0  0  0  0  0  0  0  0
  185.0770  179.0690  144.9490 O   0  0  0  0  0  0  0  0  0  0  0  0
  183.9870  178.4480  144.2760 C   0  0  1  0  0  3  0  0  0  0  0  0
  183.1270  179.5040  143.6160 C   0  0  1  0  0  3  0  0  0  0  0  0
  184.0560  178.6620  142.7660 C   0  0  1  0  0  3  0  0  0  0  0  0
  181.7120  178.9890  143.4700 C   0  0  0  0  0  2  0  0  0  0  0  0
  180.9250  179.9510  142.8260 O   0  0  0  0  0  1  0  0  0  0  0  0
  185.1770  179.4130  142.4040 O   0  0  0  0  0  0  0  0  0  0  0  0
  185.4430  179.0450  141.0830 C   0  0  0  0  0  2  0  0  0  0  0  0
  184.4770  179.5970  140.2460 O   0  0  0  0  0  1  0  0  0  0  0  0
  190.4160  176.8850  137.5160 C   0  0  0  0  0  2  0  0  0  0  0  0
  190.4210  175.4140  137.8990 C   0  0  0  0  0  2  0  0  0  0  0  0
  192.8550  175.2850  137.7690 C   0  0  0  0  0  3  0  0  0  0  0  0
  191.6730  174.7660  137.4190 C   0  0  0  0  0  0  0  0  0  0  0  0
  194.0690  173.5150  136.4090 C   0  0  0  0  0  0  0  0  0  0  0  0
  191.5640  173.4980  136.6030 C   0  0  0  0  0  2  0  0  0  0  0  0
  194.1100  174.6760  137.3120 C   0  0  0  0  0  0  0  0  0  0  0  0
  192.8830  172.9880  136.0690 C   0  0  0  0  0  3  0  0  0  0  0  0
  195.2110  175.1620  137.6760 O   0  0  0  0  0  0  0  0  0  0  0  0
  195.2730  172.9890  135.9200 O   0  0  0  0  0  0  0  0  0  0  0  0
  195.5860  171.6600  137.9080 C   0  0  0  0  0  1  0  0  0  0  0  0
  195.8650  171.7950  136.4220 C   0  0  0  0  0  2  0  0  0  0  0  0
  1 39  1  6  0  0  0
  1 15  1  0  0  0  0
  2  1  1  0  0  0  0
  3  4  1  0  0  0  0
  3  2  1  0  0  0  0
  5  6  2  0  0  0  0
  6  7  1  0  0  0  0
  6  4  1  0  0  0  0
  7 11  1  6  0  0  0
  7 13  1  0  0  0  0
  8 10  2  0  0  0  0
  9  8  1  0  0  0  0
 11  8  1  0  0  0  0
 12 13  2  0  0  0  0
 13 14  1  0  0  0  0
 15 19  1  0  0  0  0
 17 23  1  0  0  0  0
 18 24  1  0  0  0  0
 19 16  2  0  0  0  0
 19 18  1  0  0  0  0
 20 26  1  0  0  0  0
 20 22  1  0  0  0  0
 21 16  1  6  0  0  0
 21 24  1  0  0  0  0
 21 17  1  0  0  0  0
 23 22  2  0  0  0  0
 24 20  2  0  0  0  0
 26 27  1  0  0  0  0
 27 29  1  0  0  0  0
 27 25  2  0  0  0  0
 29 28  2  0  0  0  0
 30 29  1  0  0  0  0
 31 30  1  1  0  0  0
 32 34  1  6  0  0  0
 32 31  1  0  0  0  0
 33 36  1  1  0  0  0
 33 32  1  0  0  0  0
 33 31  1  0  0  0  0
 35 34  1  0  0  0  0
 37 36  1  0  0  0  0
 38 37  1  0  0  0  0
 39 40  1  0  0  0  0
 42 41  2  0  0  0  0
 42 40  1  0  0  0  0
 43 45  1  0  0  0  0
 44 42  1  0  0  0  0
 45 47  2  0  0  0  0
 45 41  1  0  0  0  0
 46 43  2  0  0  0  0
 46 44  1  0  0  0  0
 48 43  1  0  0  0  0
 48 50  1  0  0  0  0
 50 49  1  0  0  0  0
M  END
>  <MODEL>
2

>  <REMARK>
 VINA RESULT:      -7.4      3.245     11.845
  Name = 
  20 active torsions:
  status: ('A' for Active; 'I' for Inactive)
    1  A    between atoms: C_2  and  C_7
    2  A    between atoms: C_2  and  O_8
    3  A    between atoms: C_2  and  C_35
    4  A    between atoms: N_3  and  C_18
    5  A    between atoms: O_4  and  C_9
    6  A    between atoms: O_4  and  C_40
    7  A    between atoms: C_6  and  C_7
    8  A    between atoms: C_6  and  C_15
    9  A    between atoms: O_8  and  C_23
   10  A    between atoms: C_11  and  C_36
   11  A    between atoms: C_18  and  C_35
   12  A    between atoms: C_22  and  CA_50
   13  A    between atoms: C_25  and  CA_50
   14  A    between atoms: N_26  and  C_28
   15  A    between atoms: C_30  and  C_37
   16  A    between atoms: C_30  and  O_48
   17  A    between atoms: C_33  and  O_48
   18  A    between atoms: O_38  and  C_39
   19  A    between atoms: O_38  and  C_42
   20  A    between atoms: N_47  and  CA_50
                            x       y       z     vdW  Elec       q    Type
                         _______ _______ _______ _____ _____    ______ ____

>  <TORSDO>
F 20

$$$$
=
 OpenBabel10232410363D

 50 53  0  0  1  0  0  0  0  0999 V2000
  190.5520  177.1280  139.3160 C   0  0  1  0  0  3  0  0  0  0  0  0
  189.6510  178.2490  138.7920 C   0  0  0  0  0  2  0  0  0  0  0  0
  188.1870  177.9650  139.1020 C   0  0  0  0  0  2  0  0  0  0  0  0
  187.6120  177.0990  138.0830 N   0  0  0  0  0  2  0  0  0  0  0  0
  185.5410  178.1780  138.0380 O   0  0  0  0  0  0  0  0  0  0  0  0
  186.2990  177.2970  137.5530 C   0  0  0  0  0  0  0  0  0  0  0  0
  185.8300  176.4860  136.3820 C   0  0  2  0  0  3  0  0  0  0  0  0
  184.8960  174.3490  137.3670 C   0  0  0  0  0  0  0  0  0  0  0  0
  185.0800  172.9090  137.6850 C   0  0  0  0  0  1  0  0  0  0  0  0
  183.8340  174.9320  137.7180 O   0  0  0  0  0  0  0  0  0  0  0  0
  185.9220  175.0580  136.6680 N   0  0  0  0  0  2  0  0  0  0  0  0
  186.8150  178.1360  134.7740 O   0  0  0  0  0  1  0  0  0  0  0  0
  186.6230  176.8160  135.1600 C   0  0  0  0  0  0  0  0  0  0  0  0
  187.1270  175.8900  134.4760 O   0  0  0  0  0  0  0  0  0  0  0  0
  190.0020  176.4520  140.4510 O   0  0  0  0  0  0  0  0  0  0  0  0
  191.3060  176.7360  142.4120 N   0  0  0  0  0  0  0  0  0  0  0  0
  191.7200  175.9480  144.9670 S   0  0  0  0  0  0  0  0  0  0  0  0
  189.0500  177.3580  142.6060 C   0  0  0  0  0  2  0  0  0  0  0  0
  190.1760  176.8330  141.7870 C   0  0  0  0  0  0  0  0  0  0  0  0
  189.1170  177.6140  145.1100 C   0  0  0  0  0  0  0  0  0  0  0  0
  191.1890  177.2180  143.7760 C   0  0  2  0  0  3  0  0  0  0  0  0
  189.9190  177.5120  146.3490 C   0  0  0  0  0  3  0  0  0  0  0  0
  191.1000  176.8810  146.3810 C   0  0  0  0  0  3  0  0  0  0  0  0
  189.7250  177.4570  143.9270 C   0  0  0  0  0  0  0  0  0  0  0  0
  187.3900  177.9490  147.4720 O   0  0  0  0  0  0  0  0  0  0  0  0
  187.7080  177.8930  145.1450 N   0  0  0  0  0  2  0  0  0  0  0  0
  186.8940  178.0540  146.3160 C   0  0  0  0  0  0  0  0  0  0  0  0
  184.8270  178.8660  147.1220 O   0  0  0  0  0  0  0  0  0  0  0  0
  185.4650  178.3430  146.1670 C   0  0  0  0  0  0  0  0  0  0  0  0
  184.8190  178.0420  144.9650 O   0  0  0  0  0  0  0  0  0  0  0  0
  184.8340  178.9370  143.8580 C   0  0  1  0  0  3  0  0  0  0  0  0
  184.2020  178.2710  142.6550 C   0  0  1  0  0  3  0  0  0  0  0  0
  183.4230  179.3210  143.4200 C   0  0  1  0  0  3  0  0  0  0  0  0
  184.7530  178.8830  141.3870 C   0  0  0  0  0  2  0  0  0  0  0  0
  185.8180  179.7370  141.7000 O   0  0  0  0  0  1  0  0  0  0  0  0
  182.4520  178.7050  144.2150 O   0  0  0  0  0  0  0  0  0  0  0  0
  181.2520  178.9010  143.5280 C   0  0  0  0  0  2  0  0  0  0  0  0
  180.2520  178.1300  144.1140 O   0  0  0  0  0  1  0  0  0  0  0  0
  191.0700  176.1640  138.2440 C   0  0  0  0  0  2  0  0  0  0  0  0
  192.5060  176.4420  137.8310 C   0  0  0  0  0  2  0  0  0  0  0  0
  194.3340  174.9330  138.4150 C   0  0  0  0  0  3  0  0  0  0  0  0
  193.2470  175.1600  137.6690 C   0  0  0  0  0  0  0  0  0  0  0  0
  194.6890  172.6930  137.2690 C   0  0  0  0  0  0  0  0  0  0  0  0
  192.7050  174.1280  136.7060 C   0  0  0  0  0  2  0  0  0  0  0  0
  195.0910  173.6830  138.2800 C   0  0  0  0  0  0  0  0  0  0  0  0
  193.5920  172.9170  136.5300 C   0  0  0  0  0  3  0  0  0  0  0  0
  196.0930  173.4760  139.0120 O   0  0  0  0  0  0  0  0  0  0  0  0
  195.4660  171.5380  137.0990 O   0  0  0  0  0  0  0  0  0  0  0  0
  195.8290  169.1550  137.0240 C   0  0  0  0  0  1  0  0  0  0  0  0
  195.2050  170.3150  137.7790 C   0  0  0  0  0  2  0  0  0  0  0  0
  1 39  1  6  0  0  0
  1 15  1  0  0  0  0
  2  3  1  0  0  0  0
  2  1  1  0  0  0  0
  4  3  1  0  0  0  0
  6  5  2  0  0  0  0
  6  4  1  0  0  0  0
  7 13  1  6  0  0  0
  7 11  1  0  0  0  0
  7  6  1  0  0  0  0
  8  9  1  0  0  0  0
  8 10  2  0  0  0  0
 11  8  1  0  0  0  0
 12 13  1  0  0  0  0
 14 13  2  0  0  0  0
 15 19  1  0  0  0  0
 17 23  1  0  0  0  0
 18 24  1  0  0  0  0
 19 16  2  0  0  0  0
 19 18  1  0  0  0  0
 20 26  1  0  0  0  0
 20 22  1  0  0  0  0
 21 16  1  6  0  0  0
 21 24  1  0  0  0  0
 21 17  1  0  0  0  0
 22 23  2  0  0  0  0
 24 20  2  0  0  0  0
 26 27  1  0  0  0  0
 27 25  2  0  0  0  0
 29 27  1  0  0  0  0
 29 28  2  0  0  0  0
 30 29  1  0  0  0  0
 31 30  1  1  0  0  0
 32 34  1  6  0  0  0
 32 33  1  0  0  0  0
 32 31  1  0  0  0  0
 33 31  1  0  0  0  0
 33 36  1  1  0  0  0
 34 35  1  0  0  0  0
 37 38  1  0  0  0  0
 37 36  1  0  0  0  0
 40 39  1  0  0  0  0
 42 40  1  0  0  0  0
 42 41  2  0  0  0  0
 43 45  1  0  0  0  0
 44 42  1  0  0  0  0
 45 41  1  0  0  0  0
 45 47  2  0  0  0  0
 46 44  1  0  0  0  0
 46 43  2  0  0  0  0
 48 43  1  0  0  0  0
 48 50  1  0  0  0  0
 49 50  1  0  0  0  0
M  END
>  <MODEL>
3

>  <REMARK>
 VINA RESULT:      -7.4      3.183     11.976
  Name = 
  20 active torsions:
  status: ('A' for Active; 'I' for Inactive)
    1  A    between atoms: C_2  and  C_7
    2  A    between atoms: C_2  and  O_8
    3  A    between atoms: C_2  and  C_35
    4  A    between atoms: N_3  and  C_18
    5  A    between atoms: O_4  and  C_9
    6  A    between atoms: O_4  and  C_40
    7  A    between atoms: C_6  and  C_7
    8  A    between atoms: C_6  and  C_15
    9  A    between atoms: O_8  and  C_23
   10  A    between atoms: C_11  and  C_36
   11  A    between atoms: C_18  and  C_35
   12  A    between atoms: C_22  and  CA_50
   13  A    between atoms: C_25  and  CA_50
   14  A    between atoms: N_26  and  C_28
   15  A    between atoms: C_30  and  C_37
   16  A    between atoms: C_30  and  O_48
   17  A    between atoms: C_33  and  O_48
   18  A    between atoms: O_38  and  C_39
   19  A    between atoms: O_38  and  C_42
   20  A    between atoms: N_47  and  CA_50
                            x       y       z     vdW  Elec       q    Type
                         _______ _______ _______ _____ _____    ______ ____

>  <TORSDO>
F 20

$$$$
=
 OpenBabel10232410363D

 50 53  0  0  1  0  0  0  0  0999 V2000
  190.7770  176.9330  139.5540 C   0  0  1  0  0  3  0  0  0  0  0  0
  189.9140  178.0150  138.9000 C   0  0  0  0  0  2  0  0  0  0  0  0
  188.4320  177.7390  139.1160 C   0  0  0  0  0  2  0  0  0  0  0  0
  187.9790  176.6810  138.2230 N   0  0  0  0  0  2  0  0  0  0  0  0
  186.1750  177.8920  137.3650 O   0  0  0  0  0  0  0  0  0  0  0  0
  186.8740  176.8450  137.3300 C   0  0  0  0  0  0  0  0  0  0  0  0
  186.5680  175.7890  136.3110 C   0  0  2  0  0  3  0  0  0  0  0  0
  185.1060  173.7260  136.4400 C   0  0  0  0  0  0  0  0  0  0  0  0
  184.6890  172.5070  137.1820 C   0  0  0  0  0  1  0  0  0  0  0  0
  184.5280  174.0230  135.3590 O   0  0  0  0  0  0  0  0  0  0  0  0
  186.1550  174.5470  136.9570 N   0  0  0  0  0  2  0  0  0  0  0  0
  188.3690  176.5910  134.7650 O   0  0  0  0  0  0  0  0  0  0  0  0
  187.7500  175.5430  135.4330 C   0  0  0  0  0  0  0  0  0  0  0  0
  188.1960  174.3750  135.3030 O   0  0  0  0  0  1  0  0  0  0  0  0
  190.1500  176.3270  140.6880 O   0  0  0  0  0  0  0  0  0  0  0  0
  191.4050  176.6360  142.6780 N   0  0  0  0  0  0  0  0  0  0  0  0
  191.7230  175.9140  145.2660 S   0  0  0  0  0  0  0  0  0  0  0  0
  189.1630  177.3240  142.7870 C   0  0  0  0  0  2  0  0  0  0  0  0
  190.2960  176.7430  142.0170 C   0  0  0  0  0  0  0  0  0  0  0  0
  189.1650  177.6540  145.2830 C   0  0  0  0  0  0  0  0  0  0  0  0
  191.2620  177.1610  144.0230 C   0  0  2  0  0  3  0  0  0  0  0  0
  189.9280  177.5670  146.5470 C   0  0  0  0  0  3  0  0  0  0  0  0
  191.0900  176.9060  146.6330 C   0  0  0  0  0  3  0  0  0  0  0  0
  189.8020  177.4440  144.1230 C   0  0  0  0  0  0  0  0  0  0  0  0
  187.3920  178.1570  147.5800 O   0  0  0  0  0  0  0  0  0  0  0  0
  187.7640  177.9710  145.2680 N   0  0  0  0  0  2  0  0  0  0  0  0
  186.9270  178.2160  146.4090 C   0  0  0  0  0  0  0  0  0  0  0  0
  184.6910  178.3670  147.1540 O   0  0  0  0  0  0  0  0  0  0  0  0
  185.5110  178.5340  146.2090 C   0  0  0  0  0  0  0  0  0  0  0  0
  185.0780  179.0260  144.9750 O   0  0  0  0  0  0  0  0  0  0  0  0
  183.9910  178.4360  144.2690 C   0  0  1  0  0  3  0  0  0  0  0  0
  183.1110  179.5220  143.6890 C   0  0  1  0  0  3  0  0  0  0  0  0
  184.0450  178.7530  142.7770 C   0  0  1  0  0  3  0  0  0  0  0  0
  181.7020  178.9970  143.5180 C   0  0  0  0  0  2  0  0  0  0  0  0
  180.9760  179.8600  142.6880 O   0  0  0  0  0  1  0  0  0  0  0  0
  185.1520  179.5440  142.4590 O   0  0  0  0  0  0  0  0  0  0  0  0
  185.6490  179.0020  141.2710 C   0  0  0  0  0  2  0  0  0  0  0  0
  185.0180  179.6080  140.1870 O   0  0  0  0  0  1  0  0  0  0  0  0
  191.3670  175.9070  138.5830 C   0  0  0  0  0  2  0  0  0  0  0  0
  191.9250  176.5330  137.3150 C   0  0  0  0  0  2  0  0  0  0  0  0
  193.9250  176.3760  135.9230 C   0  0  0  0  0  3  0  0  0  0  0  0
  193.2580  175.9470  137.0010 C   0  0  0  0  0  0  0  0  0  0  0  0
  195.8050  174.7340  136.3950 C   0  0  0  0  0  0  0  0  0  0  0  0
  193.8430  174.9290  137.9530 C   0  0  0  0  0  2  0  0  0  0  0  0
  195.2390  175.8200  135.5810 C   0  0  0  0  0  0  0  0  0  0  0  0
  195.1420  174.3130  137.4830 C   0  0  0  0  0  3  0  0  0  0  0  0
  195.8630  176.2580  134.5800 O   0  0  0  0  0  0  0  0  0  0  0  0
  197.0270  174.1600  136.0130 O   0  0  0  0  0  0  0  0  0  0  0  0
  198.5420  172.5450  135.0580 C   0  0  0  0  0  1  0  0  0  0  0  0
  197.1660  172.7900  135.6520 C   0  0  0  0  0  2  0  0  0  0  0  0
  1 39  1  6  0  0  0
  1 15  1  0  0  0  0
  2  3  1  0  0  0  0
  2  1  1  0  0  0  0
  4  3  1  0  0  0  0
  6  5  2  0  0  0  0
  6  4  1  0  0  0  0
  7 13  1  1  0  0  0
  7 11  1  0  0  0  0
  7  6  1  0  0  0  0
  8 11  1  0  0  0  0
  8  9  1  0  0  0  0
 10  8  2  0  0  0  0
 12 13  2  0  0  0  0
 14 13  1  0  0  0  0
 15 19  1  0  0  0  0
 17 23  1  0  0  0  0
 18 24  1  0  0  0  0
 19 16  2  0  0  0  0
 19 18  1  0  0  0  0
 20 22  1  0  0  0  0
 21 16  1  6  0  0  0
 21 24  1  0  0  0  0
 21 17  1  0  0  0  0
 22 23  2  0  0  0  0
 24 20  2  0  0  0  0
 26 20  1  0  0  0  0
 26 27  1  0  0  0  0
 27 25  2  0  0  0  0
 29 27  1  0  0  0  0
 29 28  2  0  0  0  0
 30 29  1  0  0  0  0
 31 30  1  1  0  0  0
 32 34  1  6  0  0  0
 32 31  1  0  0  0  0
 33 36  1  1  0  0  0
 33 32  1  0  0  0  0
 33 31  1  0  0  0  0
 35 34  1  0  0  0  0
 37 36  1  0  0  0  0
 38 37  1  0  0  0  0
 40 39  1  0  0  0  0
 41 42  2  0  0  0  0
 42 40  1  0  0  0  0
 42 44  1  0  0  0  0
 43 46  2  0  0  0  0
 45 41  1  0  0  0  0
 45 43  1  0  0  0  0
 46 44  1  0  0  0  0
 47 45  2  0  0  0  0
 48 43  1  0  0  0  0
 49 50  1  0  0  0  0
 50 48  1  0  0  0  0
M  END
>  <MODEL>
4

>  <REMARK>
 VINA RESULT:      -7.2      3.067     12.240
  Name = 
  20 active torsions:
  status: ('A' for Active; 'I' for Inactive)
    1  A    between atoms: C_2  and  C_7
    2  A    between atoms: C_2  and  O_8
    3  A    between atoms: C_2  and  C_35
    4  A    between atoms: N_3  and  C_18
    5  A    between atoms: O_4  and  C_9
    6  A    between atoms: O_4  and  C_40
    7  A    between atoms: C_6  and  C_7
    8  A    between atoms: C_6  and  C_15
    9  A    between atoms: O_8  and  C_23
   10  A    between atoms: C_11  and  C_36
   11  A    between atoms: C_18  and  C_35
   12  A    between atoms: C_22  and  CA_50
   13  A    between atoms: C_25  and  CA_50
   14  A    between atoms: N_26  and  C_28
   15  A    between atoms: C_30  and  C_37
   16  A    between atoms: C_30  and  O_48
   17  A    between atoms: C_33  and  O_48
   18  A    between atoms: O_38  and  C_39
   19  A    between atoms: O_38  and  C_42
   20  A    between atoms: N_47  and  CA_50
                            x       y       z     vdW  Elec       q    Type
                         _______ _______ _______ _____ _____    ______ ____

>  <TORSDO>
F 20

$$$$
=
 OpenBabel10232410363D

 50 53  0  0  1  0  0  0  0  0999 V2000
  186.5870  178.3630  140.1110 C   0  0  1  0  0  3  0  0  0  0  0  0
  185.1590  178.8240  140.4120 C   0  0  0  0  0  2  0  0  0  0  0  0
  184.3840  179.0830  139.1260 C   0  0  0  0  0  2  0  0  0  0  0  0
  183.1450  179.7910  139.4150 N   0  0  0  0  0  2  0  0  0  0  0  0
  181.7570  178.1870  138.4370 O   0  0  0  0  0  0  0  0  0  0  0  0
  181.8580  179.2580  139.0930 C   0  0  0  0  0  0  0  0  0  0  0  0
  180.6160  179.9470  139.5730 C   0  0  2  0  0  3  0  0  0  0  0  0
  180.4450  181.8260  137.8850 C   0  0  0  0  0  0  0  0  0  0  0  0
  180.5460  183.2780  137.5850 C   0  0  0  0  0  1  0  0  0  0  0  0
  180.1880  181.0150  136.9540 O   0  0  0  0  0  0  0  0  0  0  0  0
  180.6390  181.3640  139.2240 N   0  0  0  0  0  2  0  0  0  0  0  0
  180.7700  178.5810  141.6680 O   0  0  0  0  0  0  0  0  0  0  0  0
  180.4610  179.7850  141.0500 C   0  0  0  0  0  0  0  0  0  0  0  0
  180.0520  180.7510  141.7420 O   0  0  0  0  0  1  0  0  0  0  0  0
  187.0380  178.7520  138.8100 O   0  0  0  0  0  0  0  0  0  0  0  0
  186.7840  177.1600  137.0700 N   0  0  0  0  0  0  0  0  0  0  0  0
  187.1920  174.6020  136.2900 S   0  0  0  0  0  0  0  0  0  0  0  0
  189.0010  177.7110  137.6120 C   0  0  0  0  0  2  0  0  0  0  0  0
  187.5400  177.8850  137.8320 C   0  0  0  0  0  0  0  0  0  0  0  0
  190.0190  175.8580  136.2450 C   0  0  0  0  0  0  0  0  0  0  0  0
  187.5790  176.3740  136.1440 C   0  0  2  0  0  3  0  0  0  0  0  0
  189.7870  174.6910  135.3660 C   0  0  0  0  0  3  0  0  0  0  0  0
  188.5830  174.1170  135.2480 C   0  0  0  0  0  3  0  0  0  0  0  0
  188.9750  176.6160  136.6070 C   0  0  0  0  0  0  0  0  0  0  0  0
  191.2540  175.2460  138.8480 O   0  0  0  0  0  0  0  0  0  0  0  0
  191.3340  176.2070  136.7050 N   0  0  0  0  0  2  0  0  0  0  0  0
  191.9090  175.8880  137.9820 C   0  0  0  0  0  0  0  0  0  0  0  0
  193.4800  177.1610  139.2040 O   0  0  0  0  0  0  0  0  0  0  0  0
  193.2760  176.3200  138.2850 C   0  0  0  0  0  0  0  0  0  0  0  0
  194.3470  175.7940  137.5570 O   0  0  0  0  0  0  0  0  0  0  0  0
  195.0070  174.5950  137.9510 C   0  0  1  0  0  3  0  0  0  0  0  0
  195.2710  173.7350  136.7340 C   0  0  1  0  0  3  0  0  0  0  0  0
  196.4140  174.5030  137.3660 C   0  0  1  0  0  3  0  0  0  0  0  0
  195.3560  172.2820  137.1460 C   0  0  0  0  0  2  0  0  0  0  0  0
  195.3610  172.1890  138.5440 O   0  0  0  0  0  1  0  0  0  0  0  0
  196.7200  175.6210  136.5870 O   0  0  0  0  0  0  0  0  0  0  0  0
  197.7530  175.1980  135.7470 C   0  0  0  0  0  2  0  0  0  0  0  0
  198.8720  174.8810  136.5130 O   0  0  0  0  0  1  0  0  0  0  0  0
  187.6080  178.6730  141.2110 C   0  0  0  0  0  2  0  0  0  0  0  0
  188.6870  177.6110  141.3430 C   0  0  0  0  0  2  0  0  0  0  0  0
  188.0560  177.4910  143.6980 C   0  0  0  0  0  3  0  0  0  0  0  0
  189.0240  177.4020  142.7790 C   0  0  0  0  0  0  0  0  0  0  0  0
  189.7370  177.0560  145.5530 C   0  0  0  0  0  0  0  0  0  0  0  0
  190.4440  177.0290  143.1420 C   0  0  0  0  0  2  0  0  0  0  0  0
  188.3510  177.2950  145.1220 C   0  0  0  0  0  0  0  0  0  0  0  0
  190.7040  176.9540  144.6290 C   0  0  0  0  0  3  0  0  0  0  0  0
  187.4220  177.3540  145.9680 O   0  0  0  0  0  0  0  0  0  0  0  0
  190.0160  176.9450  146.9230 O   0  0  0  0  0  0  0  0  0  0  0  0
  191.8790  175.5380  147.5250 C   0  0  0  0  0  1  0  0  0  0  0  0
  191.3370  176.9540  147.4540 C   0  0  0  0  0  2  0  0  0  0  0  0
  1  2  1  1  0  0  0
  1 39  1  0  0  0  0
  3  4  1  0  0  0  0
  3  2  1  0  0  0  0
  5  6  2  0  0  0  0
  6  4  1  0  0  0  0
  7  6  1  1  0  0  0
  7 13  1  0  0  0  0
  8 11  1  0  0  0  0
  9  8  1  0  0  0  0
 10  8  2  0  0  0  0
 11  7  1  0  0  0  0
 13 12  2  0  0  0  0
 13 14  1  0  0  0  0
 15  1  1  0  0  0  0
 16 19  2  0  0  0  0
 18 19  1  0  0  0  0
 19 15  1  0  0  0  0
 20 24  2  0  0  0  0
 20 26  1  0  0  0  0
 21 17  1  1  0  0  0
 21 24  1  0  0  0  0
 21 16  1  0  0  0  0
 22 20  1  0  0  0  0
 23 22  2  0  0  0  0
 23 17  1  0  0  0  0
 24 18  1  0  0  0  0
 26 27  1  0  0  0  0
 27 29  1  0  0  0  0
 27 25  2  0  0  0  0
 29 28  2  0  0  0  0
 30 29  1  0  0  0  0
 31 30  1  6  0  0  0
 32 34  1  1  0  0  0
 32 33  1  0  0  0  0
 32 31  1  0  0  0  0
 33 36  1  6  0  0  0
 33 31  1  0  0  0  0
 34 35  1  0  0  0  0
 37 38  1  0  0  0  0
 37 36  1  0  0  0  0
 39 40  1  0  0  0  0
 40 42  1  0  0  0  0
 41 45  1  0  0  0  0
 42 44  1  0  0  0  0
 42 41  2  0  0  0  0
 43 48  1  0  0  0  0
 44 46  1  0  0  0  0
 45 43  1  0  0  0  0
 45 47  2  0  0  0  0
 46 43  2  0  0  0  0
 48 50  1  0  0  0  0
 50 49  1  0  0  0  0
M  END
>  <MODEL>
5

>  <REMARK>
 VINA RESULT:      -7.1      3.346      7.527
  Name = 
  20 active torsions:
  status: ('A' for Active; 'I' for Inactive)
    1  A    between atoms: C_2  and  C_7
    2  A    between atoms: C_2  and  O_8
    3  A    between atoms: C_2  and  C_35
    4  A    between atoms: N_3  and  C_18
    5  A    between atoms: O_4  and  C_9
    6  A    between atoms: O_4  and  C_40
    7  A    between atoms: C_6  and  C_7
    8  A    between atoms: C_6  and  C_15
    9  A    between atoms: O_8  and  C_23
   10  A    between atoms: C_11  and  C_36
   11  A    between atoms: C_18  and  C_35
   12  A    between atoms: C_22  and  CA_50
   13  A    between atoms: C_25  and  CA_50
   14  A    between atoms: N_26  and  C_28
   15  A    between atoms: C_30  and  C_37
   16  A    between atoms: C_30  and  O_48
   17  A    between atoms: C_33  and  O_48
   18  A    between atoms: O_38  and  C_39
   19  A    between atoms: O_38  and  C_42
   20  A    between atoms: N_47  and  CA_50
                            x       y       z     vdW  Elec       q    Type
                         _______ _______ _______ _____ _____    ______ ____

>  <TORSDO>
F 20

$$$$
=
 OpenBabel10232410363D

 50 53  0  0  1  0  0  0  0  0999 V2000
  188.3990  178.1600  141.7240 C   0  0  1  0  0  3  0  0  0  0  0  0
  189.4890  178.6000  142.7060 C   0  0  0  0  0  2  0  0  0  0  0  0
  190.6020  177.5640  142.7890 C   0  0  0  0  0  2  0  0  0  0  0  0
  190.4760  176.7820  144.0110 N   0  0  0  0  0  2  0  0  0  0  0  0
  191.9700  178.0840  145.2460 O   0  0  0  0  0  0  0  0  0  0  0  0
  191.1460  177.1320  145.2240 C   0  0  0  0  0  0  0  0  0  0  0  0
  190.8390  176.3950  146.4930 C   0  0  2  0  0  3  0  0  0  0  0  0
  188.8120  177.5250  147.5070 C   0  0  0  0  0  0  0  0  0  0  0  0
  188.2530  178.4910  148.4880 C   0  0  0  0  0  1  0  0  0  0  0  0
  188.0360  176.9270  146.7120 O   0  0  0  0  0  0  0  0  0  0  0  0
  190.2200  177.2830  147.4730 N   0  0  0  0  0  2  0  0  0  0  0  0
  192.7320  174.7570  146.3980 O   0  0  0  0  0  0  0  0  0  0  0  0
  192.0770  175.7850  147.0630 C   0  0  0  0  0  0  0  0  0  0  0  0
  192.5360  176.2100  148.1530 O   0  0  0  0  0  1  0  0  0  0  0  0
  188.8090  177.0790  140.8820 O   0  0  0  0  0  0  0  0  0  0  0  0
  188.4870  177.8390  138.6580 N   0  0  0  0  0  0  0  0  0  0  0  0
  187.9980  177.1330  136.0920 S   0  0  0  0  0  0  0  0  0  0  0  0
  190.4150  176.5460  139.0080 C   0  0  0  0  0  2  0  0  0  0  0  0
  189.1840  177.1920  139.5380 C   0  0  0  0  0  0  0  0  0  0  0  0
  190.9330  176.2720  136.5600 C   0  0  0  0  0  0  0  0  0  0  0  0
  189.1270  177.7990  137.3560 C   0  0  2  0  0  3  0  0  0  0  0  0
  190.5290  176.5530  135.1650 C   0  0  0  0  0  3  0  0  0  0  0  0
  189.3070  177.0070  134.8570 C   0  0  0  0  0  3  0  0  0  0  0  0
  190.2560  176.8480  137.5620 C   0  0  0  0  0  0  0  0  0  0  0  0
  193.7560  177.0120  136.9510 O   0  0  0  0  0  0  0  0  0  0  0  0
  192.0410  175.4090  136.8640 N   0  0  0  0  0  2  0  0  0  0  0  0
  193.4080  175.8040  137.0540 C   0  0  0  0  0  0  0  0  0  0  0  0
  194.0530  173.6520  137.7860 O   0  0  0  0  0  0  0  0  0  0  0  0
  194.4150  174.7860  137.3660 C   0  0  0  0  0  0  0  0  0  0  0  0
  195.7710  175.0750  137.1920 O   0  0  0  0  0  0  0  0  0  0  0  0
  196.7430  174.0490  137.0160 C   0  0  1  0  0  3  0  0  0  0  0  0
  198.1100  174.6690  136.8260 C   0  0  1  0  0  3  0  0  0  0  0  0
  197.7600  174.0310  138.1540 C   0  0  1  0  0  3  0  0  0  0  0  0
  198.9900  173.7260  136.0350 C   0  0  0  0  0  2  0  0  0  0  0  0
  198.5210  173.6390  134.7180 O   0  0  0  0  0  1  0  0  0  0  0  0
  197.4920  175.0240  139.1000 O   0  0  0  0  0  0  0  0  0  0  0  0
  198.6330  175.0700  139.9030 C   0  0  0  0  0  2  0  0  0  0  0  0
  198.2580  175.0300  141.2430 O   0  0  0  0  0  1  0  0  0  0  0  0
  187.0210  177.9340  142.3520 C   0  0  0  0  0  2  0  0  0  0  0  0
  186.1040  179.1410  142.2360 C   0  0  0  0  0  2  0  0  0  0  0  0
  183.7470  178.6770  141.8020 C   0  0  0  0  0  3  0  0  0  0  0  0
  184.9790  178.8400  141.3070 C   0  0  0  0  0  0  0  0  0  0  0  0
  182.8450  178.1900  139.4770 C   0  0  0  0  0  0  0  0  0  0  0  0
  185.2600  178.7940  139.8220 C   0  0  0  0  0  2  0  0  0  0  0  0
  182.6150  178.3750  140.9180 C   0  0  0  0  0  0  0  0  0  0  0  0
  184.0790  178.3670  138.9800 C   0  0  0  0  0  3  0  0  0  0  0  0
  181.4590  178.2550  141.4000 O   0  0  0  0  0  0  0  0  0  0  0  0
  181.7670  177.8290  138.6560 O   0  0  0  0  0  0  0  0  0  0  0  0
  181.1700  179.2250  136.7820 C   0  0  0  0  0  1  0  0  0  0  0  0
  181.8030  177.9220  137.2350 C   0  0  0  0  0  2  0  0  0  0  0  0
  1 39  1  1  0  0  0
  1  2  1  0  0  0  0
  2  3  1  0  0  0  0
  3  4  1  0  0  0  0
  4  6  1  0  0  0  0
  6  5  2  0  0  0  0
  7  6  1  6  0  0  0
  7 13  1  0  0  0  0
  7 11  1  0  0  0  0
  8  9  1  0  0  0  0
 10  8  2  0  0  0  0
 11  8  1  0  0  0  0
 12 13  2  0  0  0  0
 13 14  1  0  0  0  0
 15  1  1  0  0  0  0
 16 19  2  0  0  0  0
 18 19  1  0  0  0  0
 19 15  1  0  0  0  0
 20 26  1  0  0  0  0
 20 24  2  0  0  0  0
 21 17  1  6  0  0  0
 21 24  1  0  0  0  0
 21 16  1  0  0  0  0
 22 20  1  0  0  0  0
 23 22  2  0  0  0  0
 23 17  1  0  0  0  0
 24 18  1  0  0  0  0
 25 27  2  0  0  0  0
 26 27  1  0  0  0  0
 27 29  1  0  0  0  0
 29 28  2  0  0  0  0
 30 29  1  0  0  0  0
 31 30  1  1  0  0  0
 31 33  1  0  0  0  0
 32 34  1  6  0  0  0
 32 31  1  0  0  0  0
 32 33  1  0  0  0  0
 33 36  1  1  0  0  0
 35 34  1  0  0  0  0
 36 37  1  0  0  0  0
 37 38  1  0  0  0  0
 40 39  1  0  0  0  0
 42 41  2  0  0  0  0
 42 40  1  0  0  0  0
 43 45  1  0  0  0  0
 44 42  1  0  0  0  0
 45 47  2  0  0  0  0
 45 41  1  0  0  0  0
 46 43  2  0  0  0  0
 46 44  1  0  0  0  0
 48 43  1  0  0  0  0
 49 50  1  0  0  0  0
 50 48  1  0  0  0  0
M  END
>  <MODEL>
6

>  <REMARK>
 VINA RESULT:      -7.0      2.250      2.727
  Name = 
  20 active torsions:
  status: ('A' for Active; 'I' for Inactive)
    1  A    between atoms: C_2  and  C_7
    2  A    between atoms: C_2  and  O_8
    3  A    between atoms: C_2  and  C_35
    4  A    between atoms: N_3  and  C_18
    5  A    between atoms: O_4  and  C_9
    6  A    between atoms: O_4  and  C_40
    7  A    between atoms: C_6  and  C_7
    8  A    between atoms: C_6  and  C_15
    9  A    between atoms: O_8  and  C_23
   10  A    between atoms: C_11  and  C_36
   11  A    between atoms: C_18  and  C_35
   12  A    between atoms: C_22  and  CA_50
   13  A    between atoms: C_25  and  CA_50
   14  A    between atoms: N_26  and  C_28
   15  A    between atoms: C_30  and  C_37
   16  A    between atoms: C_30  and  O_48
   17  A    between atoms: C_33  and  O_48
   18  A    between atoms: O_38  and  C_39
   19  A    between atoms: O_38  and  C_42
   20  A    between atoms: N_47  and  CA_50
                            x       y       z     vdW  Elec       q    Type
                         _______ _______ _______ _____ _____    ______ ____

>  <TORSDO>
F 20

$$$$
=
 OpenBabel10232410363D

 50 53  0  0  1  0  0  0  0  0999 V2000
  184.9530  179.0690  142.5880 C   0  0  1  0  0  3  0  0  0  0  0  0
  186.0680  178.2490  141.9350 C   0  0  0  0  0  2  0  0  0  0  0  0
  187.2200  179.1440  141.4950 C   0  0  0  0  0  2  0  0  0  0  0  0
  188.4930  178.4620  141.6890 N   0  0  0  0  0  2  0  0  0  0  0  0
  188.8480  178.0380  139.4200 O   0  0  0  0  0  0  0  0  0  0  0  0
  189.2850  177.9830  140.6000 C   0  0  0  0  0  0  0  0  0  0  0  0
  190.6640  177.4510  140.8500 C   0  0  2  0  0  3  0  0  0  0  0  0
  192.4140  176.5440  139.2600 C   0  0  0  0  0  0  0  0  0  0  0  0
  192.7560  175.6550  138.1190 C   0  0  0  0  0  1  0  0  0  0  0  0
  193.3060  177.2810  139.7630 O   0  0  0  0  0  0  0  0  0  0  0  0
  191.0800  176.5560  139.7740 N   0  0  0  0  0  2  0  0  0  0  0  0
  190.2700  175.4340  142.2830 O   0  0  0  0  0  0  0  0  0  0  0  0
  190.7260  176.7400  142.1620 C   0  0  0  0  0  0  0  0  0  0  0  0
  191.2030  177.3260  143.1660 O   0  0  0  0  0  1  0  0  0  0  0  0
  183.6680  178.4490  142.4830 O   0  0  0  0  0  0  0  0  0  0  0  0
  181.6130  178.2380  141.3170 N   0  0  0  0  0  0  0  0  0  0  0  0
  180.0940  176.6820  139.7070 S   0  0  0  0  0  0  0  0  0  0  0  0
  183.5270  178.3650  139.9630 C   0  0  0  0  0  2  0  0  0  0  0  0
  182.9030  178.3580  141.3140 C   0  0  0  0  0  0  0  0  0  0  0  0
  182.3280  177.7300  137.8420 C   0  0  0  0  0  0  0  0  0  0  0  0
  181.0920  178.1820  139.9630 C   0  0  2  0  0  3  0  0  0  0  0  0
  181.0530  177.3340  137.2070 C   0  0  0  0  0  3  0  0  0  0  0  0
  179.9930  176.9400  137.9250 C   0  0  0  0  0  3  0  0  0  0  0  0
  182.3250  178.1040  139.1290 C   0  0  0  0  0  0  0  0  0  0  0  0
  184.1740  175.4840  137.3700 O   0  0  0  0  0  0  0  0  0  0  0  0
  183.5650  177.7380  137.1110 N   0  0  0  0  0  2  0  0  0  0  0  0
  184.4410  176.6220  136.8950 C   0  0  0  0  0  0  0  0  0  0  0  0
  186.2950  177.9020  136.1830 O   0  0  0  0  0  0  0  0  0  0  0  0
  185.6670  176.8090  136.1140 C   0  0  0  0  0  0  0  0  0  0  0  0
  186.1380  175.7730  135.3020 O   0  0  0  0  0  0  0  0  0  0  0  0
  187.5220  175.6180  135.0070 C   0  0  1  0  0  3  0  0  0  0  0  0
  188.3080  175.5130  136.2960 C   0  0  1  0  0  3  0  0  0  0  0  0
  188.0530  174.2650  135.4750 C   0  0  1  0  0  3  0  0  0  0  0  0
  189.7280  175.9820  136.0650 C   0  0  0  0  0  2  0  0  0  0  0  0
  189.8190  177.3540  136.3280 O   0  0  0  0  0  1  0  0  0  0  0  0
  187.0510  173.5000  136.0770 O   0  0  0  0  0  0  0  0  0  0  0  0
  187.1830  172.2300  135.5100 C   0  0  0  0  0  2  0  0  0  0  0  0
  188.2650  171.5740  136.0910 O   0  0  0  0  0  1  0  0  0  0  0  0
  185.2610  179.5610  144.0050 C   0  0  0  0  0  2  0  0  0  0  0  0
  184.9890  178.5150  145.0750 C   0  0  0  0  0  2  0  0  0  0  0  0
  186.4420  178.3380  147.0280 C   0  0  0  0  0  3  0  0  0  0  0  0
  186.2650  178.1040  145.7230 C   0  0  0  0  0  0  0  0  0  0  0  0
  188.7820  177.3530  146.9180 C   0  0  0  0  0  0  0  0  0  0  0  0
  187.2960  177.3750  144.8910 C   0  0  0  0  0  2  0  0  0  0  0  0
  187.6880  177.9500  147.7000 C   0  0  0  0  0  0  0  0  0  0  0  0
  188.5980  177.1070  145.6120 C   0  0  0  0  0  3  0  0  0  0  0  0
  187.8230  178.1510  148.9340 O   0  0  0  0  0  0  0  0  0  0  0  0
  189.9940  177.0560  147.5580 O   0  0  0  0  0  0  0  0  0  0  0  0
  192.2070  176.1540  147.8810 C   0  0  0  0  0  1  0  0  0  0  0  0
  191.1170  176.4980  146.8830 C   0  0  0  0  0  2  0  0  0  0  0  0
  1  2  1  1  0  0  0
  1 39  1  0  0  0  0
  3  4  1  0  0  0  0
  3  2  1  0  0  0  0
  5  6  2  0  0  0  0
  6  7  1  0  0  0  0
  6  4  1  0  0  0  0
  7 11  1  6  0  0  0
  7 13  1  0  0  0  0
  8 10  2  0  0  0  0
  8 11  1  0  0  0  0
  9  8  1  0  0  0  0
 13 12  2  0  0  0  0
 13 14  1  0  0  0  0
 15  1  1  0  0  0  0
 17 21  1  0  0  0  0
 18 19  1  0  0  0  0
 19 16  2  0  0  0  0
 19 15  1  0  0  0  0
 20 24  2  0  0  0  0
 21 24  1  6  0  0  0
 21 16  1  0  0  0  0
 22 20  1  0  0  0  0
 22 23  2  0  0  0  0
 23 17  1  0  0  0  0
 24 18  1  0  0  0  0
 26 20  1  0  0  0  0
 27 26  1  0  0  0  0
 27 25  2  0  0  0  0
 29 28  2  0  0  0  0
 29 27  1  0  0  0  0
 30 29  1  0  0  0  0
 31 30  1  1  0  0  0
 31 33  1  0  0  0  0
 31 32  1  0  0  0  0
 32 34  1  6  0  0  0
 33 36  1  1  0  0  0
 33 32  1  0  0  0  0
 34 35  1  0  0  0  0
 37 36  1  0  0  0  0
 37 38  1  0  0  0  0
 39 40  1  0  0  0  0
 40 42  1  0  0  0  0
 41 45  1  0  0  0  0
 42 41  2  0  0  0  0
 43 48  1  0  0  0  0
 43 45  1  0  0  0  0
 44 46  1  0  0  0  0
 44 42  1  0  0  0  0
 45 47  2  0  0  0  0
 46 43  2  0  0  0  0
 50 48  1  0  0  0  0
 50 49  1  0  0  0  0
M  END
>  <MODEL>
7

>  <REMARK>
 VINA RESULT:      -7.0      3.688      7.869
  Name = 
  20 active torsions:
  status: ('A' for Active; 'I' for Inactive)
    1  A    between atoms: C_2  and  C_7
    2  A    between atoms: C_2  and  O_8
    3  A    between atoms: C_2  and  C_35
    4  A    between atoms: N_3  and  C_18
    5  A    between atoms: O_4  and  C_9
    6  A    between atoms: O_4  and  C_40
    7  A    between atoms: C_6  and  C_7
    8  A    between atoms: C_6  and  C_15
    9  A    between atoms: O_8  and  C_23
   10  A    between atoms: C_11  and  C_36
   11  A    between atoms: C_18  and  C_35
   12  A    between atoms: C_22  and  CA_50
   13  A    between atoms: C_25  and  CA_50
   14  A    between atoms: N_26  and  C_28
   15  A    between atoms: C_30  and  C_37
   16  A    between atoms: C_30  and  O_48
   17  A    between atoms: C_33  and  O_48
   18  A    between atoms: O_38  and  C_39
   19  A    between atoms: O_38  and  C_42
   20  A    between atoms: N_47  and  CA_50
                            x       y       z     vdW  Elec       q    Type
                         _______ _______ _______ _____ _____    ______ ____

>  <TORSDO>
F 20

$$$$
=
 OpenBabel10232410363D

 50 53  0  0  1  0  0  0  0  0999 V2000
  186.4170  178.4760  140.6520 C   0  0  1  0  0  3  0  0  0  0  0  0
  185.5630  179.1620  141.7210 C   0  0  0  0  0  2  0  0  0  0  0  0
  184.4830  178.2240  142.2440 C   0  0  0  0  0  2  0  0  0  0  0  0
  183.1650  178.8120  142.0500 N   0  0  0  0  0  2  0  0  0  0  0  0
  182.6710  177.5850  140.1240 O   0  0  0  0  0  0  0  0  0  0  0  0
  182.2840  178.4050  140.9990 C   0  0  0  0  0  0  0  0  0  0  0  0
  180.8760  178.9170  140.9570 C   0  0  2  0  0  3  0  0  0  0  0  0
  180.5630  180.1360  138.7600 C   0  0  0  0  0  0  0  0  0  0  0  0
  180.5540  181.4180  138.0070 C   0  0  0  0  0  1  0  0  0  0  0  0
  180.3690  179.0520  138.1440 O   0  0  0  0  0  0  0  0  0  0  0  0
  180.7920  180.1440  140.1710 N   0  0  0  0  0  2  0  0  0  0  0  0
  179.9820  178.0920  143.1470 O   0  0  0  0  0  1  0  0  0  0  0  0
  180.3590  179.1560  142.3370 C   0  0  0  0  0  0  0  0  0  0  0  0
  180.2710  180.3300  142.7750 O   0  0  0  0  0  0  0  0  0  0  0  0
  186.0000  178.7860  139.3190 O   0  0  0  0  0  0  0  0  0  0  0  0
  185.4540  177.5220  137.3870 N   0  0  0  0  0  0  0  0  0  0  0  0
  185.5670  175.1030  136.1810 S   0  0  0  0  0  0  0  0  0  0  0  0
  187.7500  177.8150  137.7810 C   0  0  0  0  0  2  0  0  0  0  0  0
  186.3350  178.0560  138.1720 C   0  0  0  0  0  0  0  0  0  0  0  0
  188.4770  176.1410  136.0470 C   0  0  0  0  0  0  0  0  0  0  0  0
  186.0930  176.8420  136.2750 C   0  0  2  0  0  3  0  0  0  0  0  0
  188.0680  175.1530  135.0250 C   0  0  0  0  0  3  0  0  0  0  0  0
  186.8120  174.6950  134.9420 C   0  0  0  0  0  3  0  0  0  0  0  0
  187.5400  176.9040  136.6260 C   0  0  0  0  0  0  0  0  0  0  0  0
  190.1390  174.3800  137.7220 O   0  0  0  0  0  0  0  0  0  0  0  0
  189.8540  176.3140  136.4200 N   0  0  0  0  0  2  0  0  0  0  0  0
  190.6380  175.4320  137.2370 C   0  0  0  0  0  0  0  0  0  0  0  0
  192.3210  176.5860  138.4280 O   0  0  0  0  0  0  0  0  0  0  0  0
  192.0390  175.7620  137.5150 C   0  0  0  0  0  0  0  0  0  0  0  0
  193.0550  175.1560  136.7700 O   0  0  0  0  0  0  0  0  0  0  0  0
  194.3890  175.0590  137.2580 C   0  0  1  0  0  3  0  0  0  0  0  0
  194.6330  173.6670  137.8000 C   0  0  1  0  0  3  0  0  0  0  0  0
  195.2150  174.0560  136.4560 C   0  0  1  0  0  3  0  0  0  0  0  0
  195.7230  173.7140  138.8490 C   0  0  0  0  0  2  0  0  0  0  0  0
  195.9300  175.0380  139.2540 O   0  0  0  0  0  1  0  0  0  0  0  0
  194.4640  173.4760  135.4310 O   0  0  0  0  0  0  0  0  0  0  0  0
  194.5640  172.1000  135.6500 C   0  0  0  0  0  2  0  0  0  0  0  0
  193.7740  171.4250  134.7230 O   0  0  0  0  0  1  0  0  0  0  0  0
  187.9300  178.6180  140.8480 C   0  0  0  0  0  2  0  0  0  0  0  0
  188.6050  177.3210  141.2630 C   0  0  0  0  0  2  0  0  0  0  0  0
  190.1230  177.6900  143.1390 C   0  0  0  0  0  3  0  0  0  0  0  0
  188.9000  177.3430  142.7230 C   0  0  0  0  0  0  0  0  0  0  0  0
  189.4430  177.3040  145.5560 C   0  0  0  0  0  0  0  0  0  0  0  0
  187.7810  177.0330  143.6910 C   0  0  0  0  0  2  0  0  0  0  0  0
  190.4510  177.7190  144.5690 C   0  0  0  0  0  0  0  0  0  0  0  0
  188.2130  176.9680  145.1390 C   0  0  0  0  0  3  0  0  0  0  0  0
  191.5980  178.0780  144.9410 O   0  0  0  0  0  0  0  0  0  0  0  0
  189.7930  177.2650  146.9140 O   0  0  0  0  0  0  0  0  0  0  0  0
  188.2320  178.3150  148.4230 C   0  0  0  0  0  1  0  0  0  0  0  0
  188.8560  177.0120  147.9550 C   0  0  0  0  0  2  0  0  0  0  0  0
  1 39  1  6  0  0  0
  1  2  1  0  0  0  0
  2  3  1  0  0  0  0
  4  3  1  0  0  0  0
  5  6  2  0  0  0  0
  6  4  1  0  0  0  0
  7 11  1  6  0  0  0
  7  6  1  0  0  0  0
  7 13  1  0  0  0  0
  8 11  1  0  0  0  0
  9  8  1  0  0  0  0
 10  8  2  0  0  0  0
 13 14  2  0  0  0  0
 13 12  1  0  0  0  0
 15  1  1  0  0  0  0
 16 19  2  0  0  0  0
 18 19  1  0  0  0  0
 19 15  1  0  0  0  0
 20 26  1  0  0  0  0
 20 24  2  0  0  0  0
 21 17  1  1  0  0  0
 21 24  1  0  0  0  0
 21 16  1  0  0  0  0
 22 20  1  0  0  0  0
 23 22  2  0  0  0  0
 23 17  1  0  0  0  0
 24 18  1  0  0  0  0
 26 27  1  0  0  0  0
 27 29  1  0  0  0  0
 27 25  2  0  0  0  0
 29 28  2  0  0  0  0
 30 29  1  0  0  0  0
 31 30  1  6  0  0  0
 31 32  1  0  0  0  0
 32 34  1  1  0  0  0
 33 36  1  6  0  0  0
 33 31  1  0  0  0  0
 33 32  1  0  0  0  0
 34 35  1  0  0  0  0
 36 37  1  0  0  0  0
 38 37  1  0  0  0  0
 39 40  1  0  0  0  0
 40 42  1  0  0  0  0
 41 45  1  0  0  0  0
 42 41  2  0  0  0  0
 42 44  1  0  0  0  0
 43 48  1  0  0  0  0
 44 46  1  0  0  0  0
 45 47  2  0  0  0  0
 45 43  1  0  0  0  0
 46 43  2  0  0  0  0
 48 50  1  0  0  0  0
 50 49  1  0  0  0  0
M  END
>  <MODEL>
8

>  <REMARK>
 VINA RESULT:      -6.9      3.049      7.153
  Name = 
  20 active torsions:
  status: ('A' for Active; 'I' for Inactive)
    1  A    between atoms: C_2  and  C_7
    2  A    between atoms: C_2  and  O_8
    3  A    between atoms: C_2  and  C_35
    4  A    between atoms: N_3  and  C_18
    5  A    between atoms: O_4  and  C_9
    6  A    between atoms: O_4  and  C_40
    7  A    between atoms: C_6  and  C_7
    8  A    between atoms: C_6  and  C_15
    9  A    between atoms: O_8  and  C_23
   10  A    between atoms: C_11  and  C_36
   11  A    between atoms: C_18  and  C_35
   12  A    between atoms: C_22  and  CA_50
   13  A    between atoms: C_25  and  CA_50
   14  A    between atoms: N_26  and  C_28
   15  A    between atoms: C_30  and  C_37
   16  A    between atoms: C_30  and  O_48
   17  A    between atoms: C_33  and  O_48
   18  A    between atoms: O_38  and  C_39
   19  A    between atoms: O_38  and  C_42
   20  A    between atoms: N_47  and  CA_50
                            x       y       z     vdW  Elec       q    Type
                         _______ _______ _______ _____ _____    ______ ____

>  <TORSDO>
F 20

$$$$
=
 OpenBabel10232410363D

 50 53  0  0  1  0  0  0  0  0999 V2000
  190.5660  177.2570  140.4350 C   0  0  1  0  0  3  0  0  0  0  0  0
  189.1130  177.6630  140.1760 C   0  0  0  0  0  2  0  0  0  0  0  0
  188.5340  178.4180  141.3650 C   0  0  0  0  0  2  0  0  0  0  0  0
  187.0890  178.5390  141.2330 N   0  0  0  0  0  2  0  0  0  0  0  0
  186.6080  177.5360  143.2880 O   0  0  0  0  0  0  0  0  0  0  0  0
  186.1830  178.1280  142.2600 C   0  0  0  0  0  0  0  0  0  0  0  0
  184.7210  178.4410  142.1430 C   0  0  2  0  0  3  0  0  0  0  0  0
  183.2750  178.8940  140.1140 C   0  0  0  0  0  0  0  0  0  0  0  0
  183.0810  179.6080  138.8250 C   0  0  0  0  0  1  0  0  0  0  0  0
  182.4080  178.0640  140.5020 O   0  0  0  0  0  0  0  0  0  0  0  0
  184.4400  179.1540  140.9010 N   0  0  0  0  0  2  0  0  0  0  0  0
  183.0730  178.9300  143.9650 O   0  0  0  0  0  1  0  0  0  0  0  0
  184.2580  179.2450  143.3120 C   0  0  0  0  0  0  0  0  0  0  0  0
  184.9490  180.2140  143.7150 O   0  0  0  0  0  0  0  0  0  0  0  0
  191.4260  177.5120  139.3200 O   0  0  0  0  0  0  0  0  0  0  0  0
  193.3130  176.6080  138.2020 N   0  0  0  0  0  0  0  0  0  0  0  0
  194.4070  175.9510  135.8170 S   0  0  0  0  0  0  0  0  0  0  0  0
  191.3430  175.3400  138.0360 C   0  0  0  0  0  2  0  0  0  0  0  0
  192.0660  176.5360  138.5470 C   0  0  0  0  0  0  0  0  0  0  0  0
  192.2380  173.7910  136.2650 C   0  0  0  0  0  0  0  0  0  0  0  0
  193.7030  175.4500  137.4190 C   0  0  2  0  0  3  0  0  0  0  0  0
  193.3720  173.4330  135.3840 C   0  0  0  0  0  3  0  0  0  0  0  0
  194.4040  174.2620  135.1820 C   0  0  0  0  0  3  0  0  0  0  0  0
  192.4100  174.7430  137.1920 C   0  0  0  0  0  0  0  0  0  0  0  0
  190.0580  174.3420  134.3630 O   0  0  0  0  0  0  0  0  0  0  0  0
  190.9650  173.1330  136.1610 N   0  0  0  0  0  2  0  0  0  0  0  0
  189.9230  173.4240  135.2170 C   0  0  0  0  0  0  0  0  0  0  0  0
  188.7150  171.4040  135.0180 O   0  0  0  0  0  0  0  0  0  0  0  0
  188.6830  172.6440  135.2500 C   0  0  0  0  0  0  0  0  0  0  0  0
  187.4730  173.2780  135.5450 O   0  0  0  0  0  0  0  0  0  0  0  0
  187.3780  174.2920  136.5390 C   0  0  1  0  0  3  0  0  0  0  0  0
  186.6750  175.5030  135.9650 C   0  0  1  0  0  3  0  0  0  0  0  0
  185.9270  174.5870  136.9120 C   0  0  1  0  0  3  0  0  0  0  0  0
  187.1110  176.7450  136.7110 C   0  0  0  0  0  2  0  0  0  0  0  0
  186.1780  177.7690  136.5060 O   0  0  0  0  0  1  0  0  0  0  0  0
  185.0380  173.7860  136.1900 O   0  0  0  0  0  0  0  0  0  0  0  0
  183.8790  174.5570  136.0720 C   0  0  0  0  0  2  0  0  0  0  0  0
  182.8750  173.7950  135.4800 O   0  0  0  0  0  1  0  0  0  0  0  0
  191.1480  177.7600  141.7600 C   0  0  0  0  0  2  0  0  0  0  0  0
  191.6060  176.6380  142.6780 C   0  0  0  0  0  2  0  0  0  0  0  0
  191.7440  176.2480  145.0830 C   0  0  0  0  0  3  0  0  0  0  0  0
  191.1650  176.9080  144.0740 C   0  0  0  0  0  0  0  0  0  0  0  0
  190.2280  177.4160  146.7550 C   0  0  0  0  0  0  0  0  0  0  0  0
  190.1170  177.9730  144.3080 C   0  0  0  0  0  2  0  0  0  0  0  0
  191.3320  176.4860  146.4720 C   0  0  0  0  0  0  0  0  0  0  0  0
  189.6570  178.0870  145.7440 C   0  0  0  0  0  3  0  0  0  0  0  0
  191.9090  175.8770  147.4090 O   0  0  0  0  0  0  0  0  0  0  0  0
  189.7950  177.5770  148.0800 O   0  0  0  0  0  0  0  0  0  0  0  0
  187.5330  177.6460  148.9120 C   0  0  0  0  0  1  0  0  0  0  0  0
  188.7360  178.4510  148.4540 C   0  0  0  0  0  2  0  0  0  0  0  0
  1  2  1  6  0  0  0
  1 39  1  0  0  0  0
  2  3  1  0  0  0  0
  4  3  1  0  0  0  0
  4  6  1  0  0  0  0
  6  5  2  0  0  0  0
  7 11  1  6  0  0  0
  7  6  1  0  0  0  0
  7 13  1  0  0  0  0
  8 10  2  0  0  0  0
  8 11  1  0  0  0  0
  9  8  1  0  0  0  0
 13 14  2  0  0  0  0
 13 12  1  0  0  0  0
 15  1  1  0  0  0  0
 16 19  2  0  0  0  0
 18 19  1  0  0  0  0
 19 15  1  0  0  0  0
 20 24  2  0  0  0  0
 21 17  1  6  0  0  0
 21 16  1  0  0  0  0
 22 20  1  0  0  0  0
 23 22  2  0  0  0  0
 23 17  1  0  0  0  0
 24 21  1  0  0  0  0
 24 18  1  0  0  0  0
 25 27  2  0  0  0  0
 26 20  1  0  0  0  0
 27 29  1  0  0  0  0
 27 26  1  0  0  0  0
 28 29  2  0  0  0  0
 29 30  1  0  0  0  0
 31 30  1  6  0  0  0
 31 33  1  0  0  0  0
 32 31  1  0  0  0  0
 32 34  1  1  0  0  0
 32 33  1  0  0  0  0
 33 36  1  6  0  0  0
 35 34  1  0  0  0  0
 37 36  1  0  0  0  0
 38 37  1  0  0  0  0
 39 40  1  0  0  0  0
 40 42  1  0  0  0  0
 41 45  1  0  0  0  0
 42 44  1  0  0  0  0
 42 41  2  0  0  0  0
 43 48  1  0  0  0  0
 44 46  1  0  0  0  0
 45 43  1  0  0  0  0
 45 47  2  0  0  0  0
 46 43  2  0  0  0  0
 48 50  1  0  0  0  0
 50 49  1  0  0  0  0
M  END
>  <MODEL>
9

>  <REMARK>
 VINA RESULT:      -6.9      3.266      7.634
  Name = 
  20 active torsions:
  status: ('A' for Active; 'I' for Inactive)
    1  A    between atoms: C_2  and  C_7
    2  A    between atoms: C_2  and  O_8
    3  A    between atoms: C_2  and  C_35
    4  A    between atoms: N_3  and  C_18
    5  A    between atoms: O_4  and  C_9
    6  A    between atoms: O_4  and  C_40
    7  A    between atoms: C_6  and  C_7
    8  A    between atoms: C_6  and  C_15
    9  A    between atoms: O_8  and  C_23
   10  A    between atoms: C_11  and  C_36
   11  A    between atoms: C_18  and  C_35
   12  A    between atoms: C_22  and  CA_50
   13  A    between atoms: C_25  and  CA_50
   14  A    between atoms: N_26  and  C_28
   15  A    between atoms: C_30  and  C_37
   16  A    between atoms: C_30  and  O_48
   17  A    between atoms: C_33  and  O_48
   18  A    between atoms: O_38  and  C_39
   19  A    between atoms: O_38  and  C_42
   20  A    between atoms: N_47  and  CA_50
                            x       y       z     vdW  Elec       q    Type
                         _______ _______ _______ _____ _____    ______ ____

>  <TORSDO>
F 20

$$$$
