=
 OpenBabel10232408473D

 55 62  0  0  1  0  0  0  0  0999 V2000
  187.2020  178.2860  140.7490 C   0  0  0  0  0  3  0  0  0  0  0  0
  191.5860  176.7300  140.5950 C   0  0  0  0  0  2  0  0  0  0  0  0
  191.9790  176.9570  143.6850 O   0  0  0  0  0  1  0  0  0  0  0  0
  189.7520  177.5490  146.3370 C   0  0  0  0  0  3  0  0  0  0  0  0
  189.5630  177.3970  147.7180 C   0  0  0  0  0  3  0  0  0  0  0  0
  187.3500  177.6210  146.0160 C   0  0  0  0  0  0  0  0  0  0  0  0
  187.1630  177.4660  147.3860 C   0  0  0  0  0  3  0  0  0  0  0  0
  190.0710  178.2870  143.5970 N   0  0  0  0  0  2  0  0  0  0  0  0
  188.2680  177.3520  148.2380 C   0  0  0  0  0  3  0  0  0  0  0  0
  186.4010  178.1290  138.4140 C   0  0  0  0  0  3  0  0  0  0  0  0
  188.6470  177.6680  145.4810 C   0  0  0  0  0  0  0  0  0  0  0  0
  188.5140  176.4690  137.6960 C   0  0  0  0  0  0  0  0  0  0  0  0
  187.7040  177.6610  141.8130 C   0  0  0  0  0  3  0  0  0  0  0  0
  188.4040  176.9230  139.0160 C   0  0  0  0  0  3  0  0  0  0  0  0
  186.2750  178.0160  143.8810 C   0  0  0  0  0  0  0  0  0  0  0  0
  191.6230  177.3150  139.1900 C   0  0  0  0  0  2  0  0  0  0  0  0
  186.2150  177.7620  145.1550 N   0  0  0  0  0  0  0  0  0  0  0  0
  191.3380  177.8540  141.5800 C   0  0  0  0  0  2  0  0  0  0  0  0
  190.8640  177.2820  142.9040 C   0  0  1  0  0  3  0  0  0  0  0  0
  186.5140  177.6670  137.1380 N   0  0  0  0  0  0  0  0  0  0  0  0
  191.9060  176.2480  138.1430 C   0  0  1  0  0  3  0  0  0  0  0  0
  187.3340  177.7570  139.3870 C   0  0  0  0  0  0  0  0  0  0  0  0
  188.8200  177.6460  143.9860 C   0  0  1  0  0  3  0  0  0  0  0  0
  187.6340  178.2460  143.2000 C   0  0  1  0  0  3  0  0  0  0  0  0
  190.8910  176.4260  137.0110 C   0  0  0  0  0  2  0  0  0  0  0  0
  189.6440  175.5880  137.2800 C   0  0  0  0  0  2  0  0  0  0  0  0
  187.5440  176.8540  136.7640 C   0  0  0  0  0  3  0  0  0  0  0  0
  183.9240  178.8450  143.9390 C   0  0  0  0  0  3  0  0  0  0  0  0
  182.5500  178.9650  141.9350 C   0  0  0  0  0  0  0  0  0  0  0  0
  184.8410  178.1440  141.8120 C   0  0  0  0  0  3  0  0  0  0  0  0
  183.6310  178.4640  141.1900 C   0  0  0  0  0  3  0  0  0  0  0  0
  182.7120  179.1600  143.3150 C   0  0  0  0  0  3  0  0  0  0  0  0
  184.9930  178.3090  143.1960 C   0  0  0  0  0  0  0  0  0  0  0  0
  181.2970  179.2780  141.2930 N   0  0  0  0  0  0  0  0  0  0  0  0
  180.2070  179.8690  142.0310 C   0  0  0  0  0  1  0  0  0  0  0  0
  181.0720  178.9620  139.8900 C   0  0  0  0  0  1  0  0  0  0  0  0
  193.6290  175.9680  135.9320 S   0  0  0  0  0  0  0  0  0  0  0  0
  193.3390  176.4730  137.6600 C   0  0  2  0  0  3  0  0  0  0  0  0
  194.6970  175.0200  137.0620 C   0  0  2  0  0  0  0  0  0  0  0  0
  194.2130  175.5590  138.2730 O   0  0  0  0  0  0  0  0  0  0  0  0
  196.0300  175.3610  136.8880 F   0  0  0  0  0  0  0  0  0  0  0  0
  195.1980  171.2690  138.0160 O   0  0  0  0  0  0  0  0  0  0  0  0
  194.4630  173.4880  136.9730 C   0  0  1  0  0  0  0  0  0  0  0  0
  195.8830  173.2930  139.0920 O   0  0  0  0  0  1  0  0  0  0  0  0
  195.1310  172.6810  138.0900 C   0  0  1  0  0  0  0  0  0  0  0  0
  195.9940  171.9550  137.0840 C   0  0  2  0  0  0  0  0  0  0  0  0
  193.1000  173.1590  136.9330 O   0  0  0  0  0  1  0  0  0  0  0  0
  195.2580  172.6610  135.9350 C   0  0  2  0  0  3  0  0  0  0  0  0
  198.0990  173.3050  137.5130 N   0  0  0  0  0  2  0  0  0  0  0  0
  199.4310  173.4250  137.6710 O   0  0  0  0  0  1  0  0  0  0  0  0
  197.4750  172.0260  137.3920 C   0  0  0  0  0  0  0  0  0  0  0  0
  198.1700  170.9840  137.4820 O   0  0  0  0  0  0  0  0  0  0  0  0
  196.1450  173.3370  134.9030 C   0  0  0  0  0  0  0  0  0  0  0  0
  195.8130  174.4510  134.3980 O   0  0  0  0  0  1  0  0  0  0  0  0
  197.2220  172.6300  134.3460 O   0  0  0  0  0  0  0  0  0  0  0  0
  1 13  2  0  0  0  0
  2 18  1  0  0  0  0
  4  5  1  0  0  0  0
  5  9  2  0  0  0  0
  6  7  2  0  0  0  0
  7  9  1  0  0  0  0
 10 22  1  0  0  0  0
 11  6  1  0  0  0  0
 11  4  2  0  0  0  0
 12 14  1  0  0  0  0
 14 22  2  0  0  0  0
 15 17  2  0  0  0  0
 16  2  1  0  0  0  0
 17  6  1  0  0  0  0
 18 19  1  0  0  0  0
 19  8  1  0  0  0  0
 19  3  1  1  0  0  0
 20 10  2  0  0  0  0
 21 25  1  6  0  0  0
 21 16  1  0  0  0  0
 22  1  1  0  0  0  0
 23  8  1  1  0  0  0
 23 11  1  0  0  0  0
 24 13  1  6  0  0  0
 24 15  1  0  0  0  0
 24 23  1  0  0  0  0
 25 26  1  0  0  0  0
 26 12  1  0  0  0  0
 27 20  1  0  0  0  0
 27 12  2  0  0  0  0
 29 32  2  0  0  0  0
 30 33  1  0  0  0  0
 31 30  2  0  0  0  0
 31 29  1  0  0  0  0
 32 28  1  0  0  0  0
 33 15  1  0  0  0  0
 33 28  2  0  0  0  0
 34 29  1  0  0  0  0
 34 35  1  0  0  0  0
 36 34  1  0  0  0  0
 37 39  1  0  0  0  0
 38 37  1  6  0  0  0
 38 21  1  0  0  0  0
 38 40  1  0  0  0  0
 39 41  1  6  0  0  0
 39 40  1  0  0  0  0
 42 45  1  0  0  0  0
 43 47  1  6  0  0  0
 43 39  1  0  0  0  0
 43 45  1  0  0  0  0
 45 44  1  1  0  0  0
 46 51  1  1  0  0  0
 46 42  1  0  0  0  0
 46 45  1  0  0  0  0
 48 53  1  6  0  0  0
 48 43  1  0  0  0  0
 48 46  1  0  0  0  0
 49 50  1  0  0  0  0
 51 52  2  0  0  0  0
 51 49  1  0  0  0  0
 54 53  1  0  0  0  0
 55 53  2  0  0  0  0
M  END
>  <MODEL>
1

>  <REMARK>
 VINA RESULT:     -11.4      0.000      0.000
  Name = 
  6 active torsions:
  status: ('A' for Active; 'I' for Inactive)
    1  A    between atoms: C_1  and  C_53
    2  A    between atoms: C_6  and  C_20
    3  A    between atoms: C_8  and  C_43
    4  A    between atoms: N_10  and  C_32
    5  A    between atoms: C_29  and  C_38
    6  A    between atoms: C_33  and  C_52
                            x       y       z     vdW  Elec       q    Type
                         _______ _______ _______ _____ _____    ______ ____

>  <TORSDO>
F 6

$$$$
=
 OpenBabel10232408473D

 55 62  0  0  1  0  0  0  0  0999 V2000
  186.5010  178.2090  138.3560 C   0  0  0  0  0  3  0  0  0  0  0  0
  190.8230  176.4830  138.2770 C   0  0  0  0  0  2  0  0  0  0  0  0
  191.2590  176.9180  141.3390 O   0  0  0  0  0  1  0  0  0  0  0  0
  189.0860  177.7830  143.9600 C   0  0  0  0  0  3  0  0  0  0  0  0
  188.9070  177.7380  145.3500 C   0  0  0  0  0  3  0  0  0  0  0  0
  186.6840  177.9210  143.6560 C   0  0  0  0  0  0  0  0  0  0  0  0
  186.5070  177.8720  145.0350 C   0  0  0  0  0  3  0  0  0  0  0  0
  189.4000  178.3080  141.1710 N   0  0  0  0  0  2  0  0  0  0  0  0
  187.6160  177.7790  145.8830 C   0  0  0  0  0  3  0  0  0  0  0  0
  185.6680  177.9150  136.0450 C   0  0  0  0  0  3  0  0  0  0  0  0
  187.9760  177.8810  143.1070 C   0  0  0  0  0  0  0  0  0  0  0  0
  187.7100  176.1280  135.4320 C   0  0  0  0  0  0  0  0  0  0  0  0
  186.9920  177.6450  139.4580 C   0  0  0  0  0  3  0  0  0  0  0  0
  187.6320  176.6810  136.7160 C   0  0  0  0  0  3  0  0  0  0  0  0
  185.6000  178.2010  141.5070 C   0  0  0  0  0  0  0  0  0  0  0  0
  190.8650  176.9630  136.8330 C   0  0  0  0  0  2  0  0  0  0  0  0
  185.5450  178.0430  142.7970 N   0  0  0  0  0  0  0  0  0  0  0  0
  190.6270  177.6840  139.1800 C   0  0  0  0  0  2  0  0  0  0  0  0
  190.1480  177.2260  140.5460 C   0  0  1  0  0  3  0  0  0  0  0  0
  185.7500  177.3570  134.8050 N   0  0  0  0  0  0  0  0  0  0  0  0
  191.0970  175.8130  135.8640 C   0  0  1  0  0  3  0  0  0  0  0  0
  186.5980  177.5790  137.0350 C   0  0  0  0  0  0  0  0  0  0  0  0
  188.1310  177.7440  141.6170 C   0  0  1  0  0  3  0  0  0  0  0  0
  186.9590  178.3310  140.8000 C   0  0  1  0  0  3  0  0  0  0  0  0
  190.0760  175.9470  134.7310 C   0  0  0  0  0  2  0  0  0  0  0  0
  188.8020  175.1780  135.0710 C   0  0  0  0  0  2  0  0  0  0  0  0
  186.7440  176.4810  134.4820 C   0  0  0  0  0  3  0  0  0  0  0  0
  184.2780  179.5220  139.8550 C   0  0  0  0  0  3  0  0  0  0  0  0
  181.9380  179.0420  139.3990 C   0  0  0  0  0  0  0  0  0  0  0  0
  183.1740  177.7140  141.0260 C   0  0  0  0  0  3  0  0  0  0  0  0
  181.9940  177.9910  140.3300 C   0  0  0  0  0  3  0  0  0  0  0  0
  183.0950  179.8000  139.1640 C   0  0  0  0  0  3  0  0  0  0  0  0
  184.3220  178.4920  140.8140 C   0  0  0  0  0  0  0  0  0  0  0  0
  180.7140  179.3360  138.6950 N   0  0  0  0  0  0  0  0  0  0  0  0
  180.0440  180.6030  138.8600 C   0  0  0  0  0  1  0  0  0  0  0  0
  180.0860  178.3450  137.8340 C   0  0  0  0  0  1  0  0  0  0  0  0
  193.1540  174.4730  134.4820 S   0  0  0  0  0  0  0  0  0  0  0  0
  192.5310  175.9490  135.3540 C   0  0  2  0  0  3  0  0  0  0  0  0
  194.1780  174.8290  135.9450 C   0  0  2  0  0  0  0  0  0  0  0  0
  193.4390  175.9300  136.4270 O   0  0  0  0  0  0  0  0  0  0  0  0
  195.4500  175.2360  135.5730 F   0  0  0  0  0  0  0  0  0  0  0  0
  195.5490  172.7290  138.9350 O   0  0  0  0  0  0  0  0  0  0  0  0
  194.2060  173.6580  136.9630 C   0  0  1  0  0  0  0  0  0  0  0  0
  196.0930  174.9210  138.1430 O   0  0  0  0  0  1  0  0  0  0  0  0
  195.2500  173.8120  138.0740 C   0  0  1  0  0  0  0  0  0  0  0  0
  195.9700  172.5690  137.6050 C   0  0  2  0  0  0  0  0  0  0  0  0
  192.9530  173.4320  137.5510 O   0  0  0  0  0  1  0  0  0  0  0  0
  194.8720  172.3210  136.5590 C   0  0  2  0  0  3  0  0  0  0  0  0
  198.3170  171.6560  137.2970 N   0  0  0  0  0  2  0  0  0  0  0  0
  199.6510  171.8030  137.1770 O   0  0  0  0  0  1  0  0  0  0  0  0
  197.4450  172.7860  137.3370 C   0  0  0  0  0  0  0  0  0  0  0  0
  197.9170  173.9430  137.2100 O   0  0  0  0  0  0  0  0  0  0  0  0
  195.3580  172.0820  135.1400 C   0  0  0  0  0  0  0  0  0  0  0  0
  194.8750  171.1400  134.4420 O   0  0  0  0  0  0  0  0  0  0  0  0
  196.4950  172.7610  134.6730 O   0  0  0  0  0  1  0  0  0  0  0  0
  1 13  2  0  0  0  0
  2 18  1  0  0  0  0
  4  5  1  0  0  0  0
  5  9  2  0  0  0  0
  6  7  2  0  0  0  0
  7  9  1  0  0  0  0
 10 22  1  0  0  0  0
 11  6  1  0  0  0  0
 11  4  2  0  0  0  0
 12 14  1  0  0  0  0
 14 22  2  0  0  0  0
 15 17  2  0  0  0  0
 16  2  1  0  0  0  0
 17  6  1  0  0  0  0
 18 19  1  0  0  0  0
 19  8  1  0  0  0  0
 19  3  1  1  0  0  0
 20 10  2  0  0  0  0
 21 25  1  6  0  0  0
 21 16  1  0  0  0  0
 22  1  1  0  0  0  0
 23  8  1  6  0  0  0
 23 11  1  0  0  0  0
 24 13  1  6  0  0  0
 24 15  1  0  0  0  0
 24 23  1  0  0  0  0
 25 26  1  0  0  0  0
 26 12  1  0  0  0  0
 27 20  1  0  0  0  0
 27 12  2  0  0  0  0
 28 33  1  0  0  0  0
 29 31  2  0  0  0  0
 31 30  1  0  0  0  0
 32 29  1  0  0  0  0
 32 28  2  0  0  0  0
 33 30  2  0  0  0  0
 33 15  1  0  0  0  0
 34 35  1  0  0  0  0
 34 29  1  0  0  0  0
 36 34  1  0  0  0  0
 37 39  1  0  0  0  0
 38 37  1  6  0  0  0
 38 21  1  0  0  0  0
 38 40  1  0  0  0  0
 39 41  1  6  0  0  0
 39 40  1  0  0  0  0
 39 43  1  0  0  0  0
 43 47  1  1  0  0  0
 43 45  1  0  0  0  0
 45 44  1  1  0  0  0
 45 42  1  0  0  0  0
 46 51  1  6  0  0  0
 46 45  1  0  0  0  0
 46 42  1  0  0  0  0
 48 53  1  6  0  0  0
 48 43  1  0  0  0  0
 48 46  1  0  0  0  0
 49 51  1  0  0  0  0
 50 49  1  0  0  0  0
 52 51  2  0  0  0  0
 54 53  2  0  0  0  0
 55 53  1  0  0  0  0
M  END
>  <MODEL>
2

>  <REMARK>
 VINA RESULT:      -9.6      1.617      2.342
  Name = 
  6 active torsions:
  status: ('A' for Active; 'I' for Inactive)
    1  A    between atoms: C_1  and  C_53
    2  A    between atoms: C_6  and  C_20
    3  A    between atoms: C_8  and  C_43
    4  A    between atoms: N_10  and  C_32
    5  A    between atoms: C_29  and  C_38
    6  A    between atoms: C_33  and  C_52
                            x       y       z     vdW  Elec       q    Type
                         _______ _______ _______ _____ _____    ______ ____

>  <TORSDO>
F 6

$$$$
