=
 OpenBabel10232411063D

 39 42  0  0  1  0  0  0  0  0999 V2000
  189.1600  178.4730  142.1140 C   0  0  0  0  0  3  0  0  0  0  0  0
  188.0250  178.1990  139.7800 C   0  0  0  0  0  0  0  0  0  0  0  0
  188.5940  178.3390  140.9470 C   0  0  0  0  0  0  0  0  0  0  0  0
  190.1460  177.0550  146.4430 C   0  0  0  0  0  1  0  0  0  0  0  0
  191.5740  177.9760  144.5240 C   0  0  0  0  0  3  0  0  0  0  0  0
  188.4440  176.3530  144.1480 O   0  0  0  0  0  0  0  0  0  0  0  0
  190.0390  177.3960  142.6590 C   0  0  1  0  0  3  0  0  0  0  0  0
  191.4280  177.9660  142.9940 C   0  0  0  0  0  3  0  0  0  0  0  0
  189.5360  176.9580  143.9770 C   0  0  0  0  0  0  0  0  0  0  0  0
  190.4130  177.2770  145.0330 N   0  0  0  0  0  0  0  0  0  0  0  0
  184.5340  178.6090  138.6480 C   0  0  0  0  0  2  0  0  0  0  0  0
  186.5870  178.4740  139.6260 C   0  0  0  0  0  0  0  0  0  0  0  0
  185.8620  178.9630  140.5720 N   0  0  0  0  0  0  0  0  0  0  0  0
  185.8840  178.2310  138.4630 O   0  0  0  0  0  0  0  0  0  0  0  0
  184.4930  179.1080  140.0990 C   0  0  2  0  0  3  0  0  0  0  0  0
  183.5710  178.2340  140.9390 C   0  0  0  0  0  2  0  0  0  0  0  0
  184.3550  178.7910  145.1270 C   0  0  0  0  0  0  0  0  0  0  0  0
  185.0950  178.0990  142.9230 C   0  0  0  0  0  3  0  0  0  0  0  0
  183.8380  178.4120  142.3950 C   0  0  0  0  0  0  0  0  0  0  0  0
  182.8410  178.9250  143.2300 C   0  0  0  0  0  3  0  0  0  0  0  0
  183.0950  179.1120  144.5910 C   0  0  0  0  0  3  0  0  0  0  0  0
  185.3510  178.2840  144.2840 C   0  0  0  0  0  3  0  0  0  0  0  0
  184.6400  178.9620  146.4840 O   0  0  0  0  0  0  0  0  0  0  0  0
  185.9480  178.8170  147.0170 C   0  0  0  0  0  1  0  0  0  0  0  0
  188.8730  177.8590  138.5980 C   0  0  0  0  0  2  0  0  0  0  0  0
  189.7090  176.6230  138.8900 C   0  0  0  0  0  2  0  0  0  0  0  0
  191.0640  176.7230  138.2130 C   0  0  0  0  0  2  0  0  0  0  0  0
  192.2880  174.6500  137.7670 C   0  0  1  0  0  3  0  0  0  0  0  0
  191.2640  175.5770  137.2380 C   0  0  1  0  0  3  0  0  0  0  0  0
  190.9130  174.3720  137.8720 O   0  0  0  0  0  0  0  0  0  0  0  0
  192.8690  173.8330  136.6290 C   0  0  0  0  0  2  0  0  0  0  0  0
  194.3240  173.4670  136.9120 C   0  0  0  0  0  2  0  0  0  0  0  0
  195.1160  174.5890  137.5910 C   0  0  1  0  0  3  0  0  0  0  0  0
  195.7690  174.1320  138.8900 C   0  0  0  0  0  2  0  0  0  0  0  0
  196.8270  174.9820  139.2140 O   0  0  0  0  0  1  0  0  0  0  0  0
  196.1180  175.1330  136.6810 N   0  0  0  0  0  2  0  0  0  0  0  0
  196.4510  176.6940  134.8580 C   0  0  0  0  0  1  0  0  0  0  0  0
  194.6240  176.8930  136.3630 O   0  0  0  0  0  1  0  0  0  0  0  0
  195.4300  175.9620  135.7030 C   0  0  2  0  0  3  0  0  0  0  0  0
  2  3  2  0  0  0  0
  3  1  2  0  0  0  0
  5 10  1  0  0  0  0
  7  1  1  1  0  0  0
  7  8  1  0  0  0  0
  7  9  1  0  0  0  0
  8  5  2  0  0  0  0
  9  6  2  0  0  0  0
  9 10  1  0  0  0  0
 10  4  1  0  0  0  0
 11 15  1  0  0  0  0
 12  2  1  0  0  0  0
 12 13  2  0  0  0  0
 14 11  1  0  0  0  0
 14 12  1  0  0  0  0
 15 13  1  0  0  0  0
 15 16  1  1  0  0  0
 16 19  1  0  0  0  0
 17 23  1  0  0  0  0
 18 22  1  0  0  0  0
 19 18  2  0  0  0  0
 19 20  1  0  0  0  0
 20 21  2  0  0  0  0
 21 17  1  0  0  0  0
 22 17  2  0  0  0  0
 23 24  1  0  0  0  0
 25 26  1  0  0  0  0
 25  2  1  0  0  0  0
 27 26  1  0  0  0  0
 28 31  1  6  0  0  0
 28 30  1  0  0  0  0
 29 28  1  0  0  0  0
 29 30  1  0  0  0  0
 29 27  1  1  0  0  0
 31 32  1  0  0  0  0
 33 32  1  6  0  0  0
 33 34  1  0  0  0  0
 34 35  1  0  0  0  0
 36 33  1  0  0  0  0
 39 37  1  1  0  0  0
 39 38  1  0  0  0  0
 39 36  1  0  0  0  0
M  END
>  <MODEL>
1

>  <REMARK>
 VINA RESULT:      -8.0      0.000      0.000
  Name = 
  15 active torsions:
  status: ('A' for Active; 'I' for Inactive)
    1  A    between atoms: C_1  and  C_24
    2  A    between atoms: C_2  and  C_15
    3  A    between atoms: C_2  and  C_17
    4  A    between atoms: C_4  and  CA_30
    5  A    between atoms: C_4  and  C_32
    6  A    between atoms: C_5  and  O_7
    7  A    between atoms: C_6  and  C_32
    8  A    between atoms: C_8  and  C_21
    9  A    between atoms: C_8  and  C_39
   10  A    between atoms: C_11  and  C_15
   11  A    between atoms: C_11  and  C_35
   12  A    between atoms: C_14  and  CA_30
   13  A    between atoms: C_18  and  C_35
   14  A    between atoms: C_22  and  N_27
   15  A    between atoms: N_27  and  CA_30
                            x       y       z     vdW  Elec       q    Type
                         _______ _______ _______ _____ _____    ______ ____

>  <TORSDO>
F 15

$$$$
=
 OpenBabel10232411063D

 39 42  0  0  1  0  0  0  0  0999 V2000
  185.4930  177.9320  141.7970 C   0  0  0  0  0  3  0  0  0  0  0  0
  183.5400  179.1090  143.0660 C   0  0  0  0  0  0  0  0  0  0  0  0
  184.5170  178.5180  142.4330 C   0  0  0  0  0  0  0  0  0  0  0  0
  189.1160  177.0340  139.0060 C   0  0  0  0  0  1  0  0  0  0  0  0
  188.8900  177.4140  141.5300 C   0  0  0  0  0  3  0  0  0  0  0  0
  186.6260  178.5980  139.0730 O   0  0  0  0  0  0  0  0  0  0  0  0
  186.7510  178.6750  141.4870 C   0  0  1  0  0  3  0  0  0  0  0  0
  187.8890  178.1910  142.4010 C   0  0  0  0  0  3  0  0  0  0  0  0
  187.2310  178.3080  140.1390 C   0  0  0  0  0  0  0  0  0  0  0  0
  188.4510  177.6030  140.1650 N   0  0  0  0  0  0  0  0  0  0  0  0
  179.9860  179.5570  142.1660 C   0  0  0  0  0  2  0  0  0  0  0  0
  182.1640  179.0100  142.5510 C   0  0  0  0  0  0  0  0  0  0  0  0
  181.7590  178.0300  141.8200 N   0  0  0  0  0  0  0  0  0  0  0  0
  181.1880  179.9550  142.7970 O   0  0  0  0  0  0  0  0  0  0  0  0
  180.3590  178.2370  141.4770 C   0  0  2  0  0  3  0  0  0  0  0  0
  180.2210  178.3650  139.9660 C   0  0  0  0  0  2  0  0  0  0  0  0
  183.5470  176.5900  137.9050 C   0  0  0  0  0  0  0  0  0  0  0  0
  181.6080  176.3730  139.3460 C   0  0  0  0  0  3  0  0  0  0  0  0
  181.3850  177.7510  139.2640 C   0  0  0  0  0  0  0  0  0  0  0  0
  182.2360  178.5500  138.4940 C   0  0  0  0  0  3  0  0  0  0  0  0
  183.3150  177.9750  137.8190 C   0  0  0  0  0  3  0  0  0  0  0  0
  182.6880  175.7960  138.6720 C   0  0  0  0  0  3  0  0  0  0  0  0
  184.6200  175.9840  137.2450 O   0  0  0  0  0  0  0  0  0  0  0  0
  184.6130  175.7240  135.8500 C   0  0  0  0  0  1  0  0  0  0  0  0
  183.8270  179.7910  144.3630 C   0  0  0  0  0  2  0  0  0  0  0  0
  184.1980  178.7680  145.4250 C   0  0  0  0  0  2  0  0  0  0  0  0
  185.5260  179.1230  146.0690 C   0  0  0  0  0  2  0  0  0  0  0  0
  187.7880  178.2340  146.3650 C   0  0  1  0  0  3  0  0  0  0  0  0
  186.3530  177.8750  146.3180 C   0  0  1  0  0  3  0  0  0  0  0  0
  187.0400  178.0180  147.5370 O   0  0  0  0  0  0  0  0  0  0  0  0
  188.6280  177.0030  146.0850 C   0  0  0  0  0  2  0  0  0  0  0  0
  189.8710  176.9830  146.9710 C   0  0  0  0  0  2  0  0  0  0  0  0
  191.1840  176.9430  146.1820 C   0  0  1  0  0  3  0  0  0  0  0  0
  192.0850  175.7920  146.6160 C   0  0  0  0  0  2  0  0  0  0  0  0
  192.7360  176.1210  147.8060 O   0  0  0  0  0  1  0  0  0  0  0  0
  190.9210  176.8710  144.7490 N   0  0  0  0  0  2  0  0  0  0  0  0
  191.1520  179.1740  144.0340 C   0  0  0  0  0  1  0  0  0  0  0  0
  192.0670  177.3740  142.7840 O   0  0  0  0  0  1  0  0  0  0  0  0
  191.8110  177.8110  144.0850 C   0  0  2  0  0  3  0  0  0  0  0  0
  1  3  2  0  0  0  0
  2 25  1  0  0  0  0
  3  2  2  0  0  0  0
  4 10  1  0  0  0  0
  5  8  2  0  0  0  0
  6  9  2  0  0  0  0
  7  1  1  1  0  0  0
  7  8  1  0  0  0  0
  9 10  1  0  0  0  0
  9  7  1  0  0  0  0
 10  5  1  0  0  0  0
 11 14  1  0  0  0  0
 12 14  1  0  0  0  0
 12  2  1  0  0  0  0
 13 12  2  0  0  0  0
 15 16  1  6  0  0  0
 15 13  1  0  0  0  0
 15 11  1  0  0  0  0
 17 22  1  0  0  0  0
 19 18  1  0  0  0  0
 19 16  1  0  0  0  0
 20 19  2  0  0  0  0
 21 17  2  0  0  0  0
 21 20  1  0  0  0  0
 22 18  2  0  0  0  0
 23 17  1  0  0  0  0
 24 23  1  0  0  0  0
 25 26  1  0  0  0  0
 26 27  1  0  0  0  0
 28 31  1  6  0  0  0
 28 30  1  0  0  0  0
 29 27  1  1  0  0  0
 29 28  1  0  0  0  0
 29 30  1  0  0  0  0
 31 32  1  0  0  0  0
 33 34  1  1  0  0  0
 33 32  1  0  0  0  0
 34 35  1  0  0  0  0
 36 33  1  0  0  0  0
 38 39  1  0  0  0  0
 39 37  1  6  0  0  0
 39 36  1  0  0  0  0
M  END
>  <MODEL>
2

>  <REMARK>
 VINA RESULT:      -7.9      3.902      7.667
  Name = 
  15 active torsions:
  status: ('A' for Active; 'I' for Inactive)
    1  A    between atoms: C_1  and  C_24
    2  A    between atoms: C_2  and  C_15
    3  A    between atoms: C_2  and  C_17
    4  A    between atoms: C_4  and  CA_30
    5  A    between atoms: C_4  and  C_32
    6  A    between atoms: C_5  and  O_7
    7  A    between atoms: C_6  and  C_32
    8  A    between atoms: C_8  and  C_21
    9  A    between atoms: C_8  and  C_39
   10  A    between atoms: C_11  and  C_15
   11  A    between atoms: C_11  and  C_35
   12  A    between atoms: C_14  and  CA_30
   13  A    between atoms: C_18  and  C_35
   14  A    between atoms: C_22  and  N_27
   15  A    between atoms: N_27  and  CA_30
                            x       y       z     vdW  Elec       q    Type
                         _______ _______ _______ _____ _____    ______ ____

>  <TORSDO>
F 15

$$$$
=
 OpenBabel10232411063D

 39 42  0  0  1  0  0  0  0  0999 V2000
  184.4030  178.5990  145.1730 C   0  0  0  0  0  3  0  0  0  0  0  0
  186.7960  177.5800  144.9600 C   0  0  0  0  0  0  0  0  0  0  0  0
  185.5980  178.0870  145.0670 C   0  0  0  0  0  0  0  0  0  0  0  0
  181.9130  178.0410  141.2730 C   0  0  0  0  0  1  0  0  0  0  0  0
  184.2460  178.9880  141.7520 C   0  0  0  0  0  3  0  0  0  0  0  0
  181.5880  178.8180  144.0920 O   0  0  0  0  0  0  0  0  0  0  0  0
  183.8920  179.5520  144.1450 C   0  0  1  0  0  3  0  0  0  0  0  0
  184.8880  179.6570  142.9780 C   0  0  0  0  0  3  0  0  0  0  0  0
  182.6860  178.9950  143.4990 C   0  0  0  0  0  0  0  0  0  0  0  0
  182.8850  178.6860  142.1390 N   0  0  0  0  0  0  0  0  0  0  0  0
  188.4870  177.1940  148.2210 C   0  0  0  0  0  2  0  0  0  0  0  0
  187.7050  177.5930  146.1190 C   0  0  0  0  0  0  0  0  0  0  0  0
  188.8590  178.1650  146.0970 N   0  0  0  0  0  0  0  0  0  0  0  0
  187.4090  176.9930  147.3270 O   0  0  0  0  0  0  0  0  0  0  0  0
  189.5020  177.9920  147.3920 C   0  0  2  0  0  3  0  0  0  0  0  0
  190.7900  177.1970  147.2160 C   0  0  0  0  0  2  0  0  0  0  0  0
  191.7840  176.8250  143.0520 C   0  0  0  0  0  0  0  0  0  0  0  0
  191.3000  175.8020  145.1980 C   0  0  0  0  0  3  0  0  0  0  0  0
  191.1510  177.0680  145.7750 C   0  0  0  0  0  0  0  0  0  0  0  0
  191.3080  178.2140  144.9890 C   0  0  0  0  0  3  0  0  0  0  0  0
  191.6260  178.0960  143.6340 C   0  0  0  0  0  3  0  0  0  0  0  0
  191.6190  175.6820  143.8430 C   0  0  0  0  0  3  0  0  0  0  0  0
  192.1060  176.6720  141.7010 O   0  0  0  0  0  0  0  0  0  0  0  0
  192.3470  177.7760  140.8400 C   0  0  0  0  0  1  0  0  0  0  0  0
  187.1840  176.9030  143.6870 C   0  0  0  0  0  2  0  0  0  0  0  0
  187.9880  177.8520  142.8120 C   0  0  0  0  0  2  0  0  0  0  0  0
  188.5420  177.1230  141.6010 C   0  0  0  0  0  2  0  0  0  0  0  0
  188.5630  177.4730  139.1780 C   0  0  1  0  0  3  0  0  0  0  0  0
  188.8600  178.1000  140.4840 C   0  0  1  0  0  3  0  0  0  0  0  0
  187.6780  178.3880  139.7780 O   0  0  0  0  0  0  0  0  0  0  0  0
  189.3380  178.1840  138.0850 C   0  0  0  0  0  2  0  0  0  0  0  0
  190.1980  177.1970  137.3000 C   0  0  0  0  0  2  0  0  0  0  0  0
  190.2610  175.8030  137.9330 C   0  0  1  0  0  3  0  0  0  0  0  0
  189.5250  174.7570  137.1040 C   0  0  0  0  0  2  0  0  0  0  0  0
  190.0550  173.4910  137.3580 O   0  0  0  0  0  1  0  0  0  0  0  0
  191.6460  175.3990  138.1480 N   0  0  0  0  0  2  0  0  0  0  0  0
  193.0650  175.0060  136.2240 C   0  0  0  0  0  1  0  0  0  0  0  0
  193.4900  176.7700  137.7570 O   0  0  0  0  0  1  0  0  0  0  0  0
  192.4630  176.0540  137.1380 C   0  0  2  0  0  3  0  0  0  0  0  0
  2  3  2  0  0  0  0
  2 12  1  0  0  0  0
  3  1  2  0  0  0  0
  4 10  1  0  0  0  0
  5 10  1  0  0  0  0
  5  8  2  0  0  0  0
  7  1  1  1  0  0  0
  8  7  1  0  0  0  0
  9  6  2  0  0  0  0
  9  7  1  0  0  0  0
 10  9  1  0  0  0  0
 12 14  1  0  0  0  0
 13 12  2  0  0  0  0
 13 15  1  0  0  0  0
 14 11  1  0  0  0  0
 15 16  1  6  0  0  0
 15 11  1  0  0  0  0
 17 21  2  0  0  0  0
 17 22  1  0  0  0  0
 18 19  1  0  0  0  0
 19 16  1  0  0  0  0
 20 19  2  0  0  0  0
 21 20  1  0  0  0  0
 22 18  2  0  0  0  0
 23 17  1  0  0  0  0
 24 23  1  0  0  0  0
 25  2  1  0  0  0  0
 26 25  1  0  0  0  0
 27 26  1  0  0  0  0
 28 31  1  6  0  0  0
 28 30  1  0  0  0  0
 28 29  1  0  0  0  0
 29 27  1  1  0  0  0
 30 29  1  0  0  0  0
 32 33  1  0  0  0  0
 32 31  1  0  0  0  0
 33 34  1  6  0  0  0
 33 36  1  0  0  0  0
 34 35  1  0  0  0  0
 39 37  1  6  0  0  0
 39 38  1  0  0  0  0
 39 36  1  0  0  0  0
M  END
>  <MODEL>
3

>  <REMARK>
 VINA RESULT:      -7.9      2.204      6.933
  Name = 
  15 active torsions:
  status: ('A' for Active; 'I' for Inactive)
    1  A    between atoms: C_1  and  C_24
    2  A    between atoms: C_2  and  C_15
    3  A    between atoms: C_2  and  C_17
    4  A    between atoms: C_4  and  CA_30
    5  A    between atoms: C_4  and  C_32
    6  A    between atoms: C_5  and  O_7
    7  A    between atoms: C_6  and  C_32
    8  A    between atoms: C_8  and  C_21
    9  A    between atoms: C_8  and  C_39
   10  A    between atoms: C_11  and  C_15
   11  A    between atoms: C_11  and  C_35
   12  A    between atoms: C_14  and  CA_30
   13  A    between atoms: C_18  and  C_35
   14  A    between atoms: C_22  and  N_27
   15  A    between atoms: N_27  and  CA_30
                            x       y       z     vdW  Elec       q    Type
                         _______ _______ _______ _____ _____    ______ ____

>  <TORSDO>
F 15

$$$$
=
 OpenBabel10232411063D

 39 42  0  0  1  0  0  0  0  0999 V2000
  188.0700  178.4440  141.8020 C   0  0  0  0  0  3  0  0  0  0  0  0
  185.4890  178.2590  142.1420 C   0  0  0  0  0  0  0  0  0  0  0  0
  186.7800  178.3540  141.9700 C   0  0  0  0  0  0  0  0  0  0  0  0
  191.4390  175.6850  143.4640 C   0  0  0  0  0  1  0  0  0  0  0  0
  191.3090  177.3090  141.4850 C   0  0  0  0  0  3  0  0  0  0  0  0
  188.5340  175.7080  143.0020 O   0  0  0  0  0  0  0  0  0  0  0  0
  188.8400  177.3080  141.2150 C   0  0  1  0  0  3  0  0  0  0  0  0
  190.1560  177.8200  140.6060 C   0  0  0  0  0  3  0  0  0  0  0  0
  189.3030  176.4070  142.2900 C   0  0  0  0  0  0  0  0  0  0  0  0
  190.7040  176.3990  142.4340 N   0  0  0  0  0  0  0  0  0  0  0  0
  183.2900  179.0840  144.9920 C   0  0  0  0  0  2  0  0  0  0  0  0
  184.8900  178.6310  143.4340 C   0  0  0  0  0  0  0  0  0  0  0  0
  185.5930  178.9300  144.4720 N   0  0  0  0  0  0  0  0  0  0  0  0
  183.5280  178.6910  143.6540 O   0  0  0  0  0  0  0  0  0  0  0  0
  184.7000  179.2450  145.5780 C   0  0  2  0  0  3  0  0  0  0  0  0
  184.9250  178.2500  146.7100 C   0  0  0  0  0  2  0  0  0  0  0  0
  189.1060  177.6010  147.4550 C   0  0  0  0  0  0  0  0  0  0  0  0
  186.9730  178.5430  148.1230 C   0  0  0  0  0  3  0  0  0  0  0  0
  186.3800  178.0390  146.9610 C   0  0  0  0  0  0  0  0  0  0  0  0
  187.1460  177.3060  146.0490 C   0  0  0  0  0  3  0  0  0  0  0  0
  188.5040  177.0890  146.2920 C   0  0  0  0  0  3  0  0  0  0  0  0
  188.3320  178.3280  148.3670 C   0  0  0  0  0  3  0  0  0  0  0  0
  190.4630  177.4050  147.7260 O   0  0  0  0  0  0  0  0  0  0  0  0
  191.3410  176.7580  146.8160 C   0  0  0  0  0  1  0  0  0  0  0  0
  184.6330  177.8670  140.9830 C   0  0  0  0  0  2  0  0  0  0  0  0
  184.5280  179.0180  139.9950 C   0  0  0  0  0  2  0  0  0  0  0  0
  184.9040  178.5590  138.5970 C   0  0  0  0  0  2  0  0  0  0  0  0
  186.6950  177.3500  137.4460 C   0  0  1  0  0  3  0  0  0  0  0  0
  186.4050  178.3650  138.4820 C   0  0  1  0  0  3  0  0  0  0  0  0
  186.8150  178.7270  137.1860 O   0  0  0  0  0  0  0  0  0  0  0  0
  188.0780  176.7710  137.6740 C   0  0  0  0  0  2  0  0  0  0  0  0
  188.3850  175.6820  136.6500 C   0  0  0  0  0  2  0  0  0  0  0  0
  189.8840  175.4280  136.4580 C   0  0  1  0  0  3  0  0  0  0  0  0
  190.2510  175.2090  134.9950 C   0  0  0  0  0  2  0  0  0  0  0  0
  190.4610  176.4390  134.3690 O   0  0  0  0  0  1  0  0  0  0  0  0
  190.6670  176.5230  137.0210 N   0  0  0  0  0  2  0  0  0  0  0  0
  193.0470  176.2540  137.3840 C   0  0  0  0  0  1  0  0  0  0  0  0
  191.4890  174.5620  137.9750 O   0  0  0  0  0  1  0  0  0  0  0  0
  191.6610  175.9460  137.9130 C   0  0  2  0  0  3  0  0  0  0  0  0
  1  3  2  0  0  0  0
  2 12  1  0  0  0  0
  3  2  2  0  0  0  0
  5 10  1  0  0  0  0
  7  1  1  1  0  0  0
  7  9  1  0  0  0  0
  8  7  1  0  0  0  0
  8  5  2  0  0  0  0
  9 10  1  0  0  0  0
  9  6  2  0  0  0  0
 10  4  1  0  0  0  0
 11 15  1  0  0  0  0
 12 14  1  0  0  0  0
 12 13  2  0  0  0  0
 13 15  1  0  0  0  0
 14 11  1  0  0  0  0
 15 16  1  1  0  0  0
 16 19  1  0  0  0  0
 17 23  1  0  0  0  0
 17 22  1  0  0  0  0
 18 22  2  0  0  0  0
 19 18  1  0  0  0  0
 20 21  1  0  0  0  0
 20 19  2  0  0  0  0
 21 17  2  0  0  0  0
 24 23  1  0  0  0  0
 25  2  1  0  0  0  0
 26 25  1  0  0  0  0
 27 26  1  0  0  0  0
 28 31  1  1  0  0  0
 28 29  1  0  0  0  0
 29 27  1  6  0  0  0
 30 28  1  0  0  0  0
 30 29  1  0  0  0  0
 32 31  1  0  0  0  0
 33 34  1  6  0  0  0
 33 32  1  0  0  0  0
 33 36  1  0  0  0  0
 35 34  1  0  0  0  0
 36 39  1  0  0  0  0
 39 37  1  6  0  0  0
 39 38  1  0  0  0  0
M  END
>  <MODEL>
4

>  <REMARK>
 VINA RESULT:      -7.9      2.400      5.050
  Name = 
  15 active torsions:
  status: ('A' for Active; 'I' for Inactive)
    1  A    between atoms: C_1  and  C_24
    2  A    between atoms: C_2  and  C_15
    3  A    between atoms: C_2  and  C_17
    4  A    between atoms: C_4  and  CA_30
    5  A    between atoms: C_4  and  C_32
    6  A    between atoms: C_5  and  O_7
    7  A    between atoms: C_6  and  C_32
    8  A    between atoms: C_8  and  C_21
    9  A    between atoms: C_8  and  C_39
   10  A    between atoms: C_11  and  C_15
   11  A    between atoms: C_11  and  C_35
   12  A    between atoms: C_14  and  CA_30
   13  A    between atoms: C_18  and  C_35
   14  A    between atoms: C_22  and  N_27
   15  A    between atoms: N_27  and  CA_30
                            x       y       z     vdW  Elec       q    Type
                         _______ _______ _______ _____ _____    ______ ____

>  <TORSDO>
F 15

$$$$
=
 OpenBabel10232411063D

 39 42  0  0  1  0  0  0  0  0999 V2000
  186.4340  178.0210  142.0960 C   0  0  0  0  0  3  0  0  0  0  0  0
  188.4620  177.9340  140.4550 C   0  0  0  0  0  0  0  0  0  0  0  0
  187.4470  177.9750  141.2750 C   0  0  0  0  0  0  0  0  0  0  0  0
  182.2540  178.7550  144.0210 C   0  0  0  0  0  1  0  0  0  0  0  0
  183.0940  178.7120  141.6000 C   0  0  0  0  0  3  0  0  0  0  0  0
  185.0990  179.3710  144.4490 O   0  0  0  0  0  0  0  0  0  0  0  0
  185.4880  179.1760  142.0700 C   0  0  1  0  0  3  0  0  0  0  0  0
  184.4570  178.9890  140.9450 C   0  0  0  0  0  3  0  0  0  0  0  0
  184.6530  179.1670  143.2880 C   0  0  0  0  0  0  0  0  0  0  0  0
  183.2930  178.9150  143.0190 N   0  0  0  0  0  0  0  0  0  0  0  0
  192.0790  177.4600  141.0320 C   0  0  0  0  0  2  0  0  0  0  0  0
  189.8080  177.6240  140.9670 C   0  0  0  0  0  0  0  0  0  0  0  0
  190.0120  177.0900  142.1210 N   0  0  0  0  0  0  0  0  0  0  0  0
  190.9680  177.8800  140.2640 O   0  0  0  0  0  0  0  0  0  0  0  0
  191.4450  176.9210  142.3220 C   0  0  2  0  0  3  0  0  0  0  0  0
  191.8900  177.7470  143.5220 C   0  0  0  0  0  2  0  0  0  0  0  0
  189.3000  177.1740  146.9020 C   0  0  0  0  0  0  0  0  0  0  0  0
  191.4390  176.8320  145.8100 C   0  0  0  0  0  3  0  0  0  0  0  0
  190.9860  177.5340  144.6880 C   0  0  0  0  0  0  0  0  0  0  0  0
  189.6920  178.0660  144.6750 C   0  0  0  0  0  3  0  0  0  0  0  0
  188.8500  177.8850  145.7750 C   0  0  0  0  0  3  0  0  0  0  0  0
  190.5970  176.6500  146.9110 C   0  0  0  0  0  3  0  0  0  0  0  0
  188.4810  176.9720  148.0160 O   0  0  0  0  0  0  0  0  0  0  0  0
  188.0610  178.0330  148.8610 C   0  0  0  0  0  1  0  0  0  0  0  0
  188.2180  178.1050  138.9920 C   0  0  0  0  0  2  0  0  0  0  0  0
  188.1990  176.7510  138.3010 C   0  0  0  0  0  2  0  0  0  0  0  0
  189.4090  176.5960  137.3970 C   0  0  0  0  0  2  0  0  0  0  0  0
  191.3980  175.1840  137.1930 C   0  0  1  0  0  3  0  0  0  0  0  0
  189.9420  175.1760  137.4510 C   0  0  1  0  0  3  0  0  0  0  0  0
  190.8780  175.0790  138.4960 O   0  0  0  0  0  0  0  0  0  0  0  0
  191.8390  173.8090  136.7280 C   0  0  0  0  0  2  0  0  0  0  0  0
  193.3470  173.7750  136.4910 C   0  0  0  0  0  2  0  0  0  0  0  0
  194.1710  174.0340  137.7550 C   0  0  1  0  0  3  0  0  0  0  0  0
  195.1080  172.8750  138.0820 C   0  0  0  0  0  2  0  0  0  0  0  0
  194.7510  171.7520  137.3360 O   0  0  0  0  0  1  0  0  0  0  0  0
  194.9240  175.2770  137.6330 N   0  0  0  0  0  2  0  0  0  0  0  0
  196.5060  175.4130  135.8020 C   0  0  0  0  0  1  0  0  0  0  0  0
  194.6590  176.8960  135.9770 O   0  0  0  0  0  1  0  0  0  0  0  0
  195.0580  175.5790  136.2160 C   0  0  2  0  0  3  0  0  0  0  0  0
  2 12  1  0  0  0  0
  2  3  2  0  0  0  0
  3  1  2  0  0  0  0
  5 10  1  0  0  0  0
  7  1  1  1  0  0  0
  7  9  1  0  0  0  0
  8  5  2  0  0  0  0
  8  7  1  0  0  0  0
  9  6  2  0  0  0  0
 10  9  1  0  0  0  0
 10  4  1  0  0  0  0
 11 15  1  0  0  0  0
 12 13  2  0  0  0  0
 13 15  1  0  0  0  0
 14 12  1  0  0  0  0
 14 11  1  0  0  0  0
 15 16  1  1  0  0  0
 16 19  1  0  0  0  0
 17 22  1  0  0  0  0
 17 23  1  0  0  0  0
 18 22  2  0  0  0  0
 19 18  1  0  0  0  0
 20 19  2  0  0  0  0
 20 21  1  0  0  0  0
 21 17  2  0  0  0  0
 23 24  1  0  0  0  0
 25  2  1  0  0  0  0
 26 25  1  0  0  0  0
 27 26  1  0  0  0  0
 28 31  1  6  0  0  0
 28 29  1  0  0  0  0
 28 30  1  0  0  0  0
 29 27  1  1  0  0  0
 29 30  1  0  0  0  0
 32 31  1  0  0  0  0
 33 32  1  6  0  0  0
 33 34  1  0  0  0  0
 35 34  1  0  0  0  0
 36 33  1  0  0  0  0
 38 39  1  0  0  0  0
 39 37  1  1  0  0  0
 39 36  1  0  0  0  0
M  END
>  <MODEL>
5

>  <REMARK>
 VINA RESULT:      -7.7      1.942      4.913
  Name = 
  15 active torsions:
  status: ('A' for Active; 'I' for Inactive)
    1  A    between atoms: C_1  and  C_24
    2  A    between atoms: C_2  and  C_15
    3  A    between atoms: C_2  and  C_17
    4  A    between atoms: C_4  and  CA_30
    5  A    between atoms: C_4  and  C_32
    6  A    between atoms: C_5  and  O_7
    7  A    between atoms: C_6  and  C_32
    8  A    between atoms: C_8  and  C_21
    9  A    between atoms: C_8  and  C_39
   10  A    between atoms: C_11  and  C_15
   11  A    between atoms: C_11  and  C_35
   12  A    between atoms: C_14  and  CA_30
   13  A    between atoms: C_18  and  C_35
   14  A    between atoms: C_22  and  N_27
   15  A    between atoms: N_27  and  CA_30
                            x       y       z     vdW  Elec       q    Type
                         _______ _______ _______ _____ _____    ______ ____

>  <TORSDO>
F 15

$$$$
=
 OpenBabel10232411063D

 39 42  0  0  1  0  0  0  0  0999 V2000
  181.3080  177.9650  140.9630 C   0  0  0  0  0  3  0  0  0  0  0  0
  183.7280  178.8680  141.3370 C   0  0  0  0  0  0  0  0  0  0  0  0
  182.5190  178.4140  141.1490 C   0  0  0  0  0  0  0  0  0  0  0  0
  181.2190  179.3340  136.5090 C   0  0  0  0  0  1  0  0  0  0  0  0
  181.1860  180.5960  138.7400 C   0  0  0  0  0  3  0  0  0  0  0  0
  180.1360  177.2430  138.2710 O   0  0  0  0  0  0  0  0  0  0  0  0
  180.3250  178.7460  140.1560 C   0  0  1  0  0  3  0  0  0  0  0  0
  180.7060  180.2360  140.1550 C   0  0  0  0  0  3  0  0  0  0  0  0
  180.4400  178.3760  138.7300 C   0  0  0  0  0  0  0  0  0  0  0  0
  180.9170  179.4300  137.9260 N   0  0  0  0  0  0  0  0  0  0  0  0
  184.4450  179.1990  144.9450 C   0  0  0  0  0  2  0  0  0  0  0  0
  184.3030  178.8880  142.6930 C   0  0  0  0  0  0  0  0  0  0  0  0
  185.5110  178.5180  142.9470 N   0  0  0  0  0  0  0  0  0  0  0  0
  183.6050  179.2970  143.8110 O   0  0  0  0  0  0  0  0  0  0  0  0
  185.7610  178.6550  144.3750 C   0  0  2  0  0  3  0  0  0  0  0  0
  186.0750  177.2870  144.9670 C   0  0  0  0  0  2  0  0  0  0  0  0
  189.9500  177.3000  146.8250 C   0  0  0  0  0  0  0  0  0  0  0  0
  188.5630  177.0070  144.8570 C   0  0  0  0  0  3  0  0  0  0  0  0
  187.4180  177.2760  145.6150 C   0  0  0  0  0  0  0  0  0  0  0  0
  187.5390  177.5680  146.9780 C   0  0  0  0  0  3  0  0  0  0  0  0
  188.7980  177.5780  147.5830 C   0  0  0  0  0  3  0  0  0  0  0  0
  189.8230  177.0150  145.4610 C   0  0  0  0  0  3  0  0  0  0  0  0
  191.2230  177.2980  147.4010 O   0  0  0  0  0  0  0  0  0  0  0  0
  192.0170  176.1260  147.5010 C   0  0  0  0  0  1  0  0  0  0  0  0
  184.5440  179.2660  140.1510 C   0  0  0  0  0  2  0  0  0  0  0  0
  184.2380  178.3540  138.9730 C   0  0  0  0  0  2  0  0  0  0  0  0
  185.3650  178.3970  137.9570 C   0  0  0  0  0  2  0  0  0  0  0  0
  187.6020  177.4930  137.5390 C   0  0  1  0  0  3  0  0  0  0  0  0
  186.6760  177.9670  138.5910 C   0  0  1  0  0  3  0  0  0  0  0  0
  187.7110  178.7800  138.0950 O   0  0  0  0  0  0  0  0  0  0  0  0
  188.6590  176.5990  138.1580 C   0  0  0  0  0  2  0  0  0  0  0  0
  190.0570  177.1560  137.9030 C   0  0  0  0  0  2  0  0  0  0  0  0
  191.1030  176.6680  138.9100 C   0  0  1  0  0  3  0  0  0  0  0  0
  192.4490  176.3820  138.2520 C   0  0  0  0  0  2  0  0  0  0  0  0
  193.4670  177.0260  138.9570 O   0  0  0  0  0  1  0  0  0  0  0  0
  191.2610  177.6300  139.9950 N   0  0  0  0  0  2  0  0  0  0  0  0
  189.6630  176.6600  141.5360 C   0  0  0  0  0  1  0  0  0  0  0  0
  191.6770  177.6690  142.2880 O   0  0  0  0  0  1  0  0  0  0  0  0
  191.1300  176.9090  141.2520 C   0  0  2  0  0  3  0  0  0  0  0  0
  1  3  2  0  0  0  0
  2 12  1  0  0  0  0
  3  2  2  0  0  0  0
  4 10  1  0  0  0  0
  5  8  2  0  0  0  0
  6  9  2  0  0  0  0
  7  1  1  1  0  0  0
  8  7  1  0  0  0  0
  9  7  1  0  0  0  0
 10  9  1  0  0  0  0
 10  5  1  0  0  0  0
 12 13  2  0  0  0  0
 12 14  1  0  0  0  0
 13 15  1  0  0  0  0
 14 11  1  0  0  0  0
 15 11  1  0  0  0  0
 15 16  1  1  0  0  0
 16 19  1  0  0  0  0
 17 23  1  0  0  0  0
 17 21  1  0  0  0  0
 18 22  1  0  0  0  0
 18 19  2  0  0  0  0
 19 20  1  0  0  0  0
 20 21  2  0  0  0  0
 22 17  2  0  0  0  0
 23 24  1  0  0  0  0
 25  2  1  0  0  0  0
 26 25  1  0  0  0  0
 27 26  1  0  0  0  0
 28 30  1  0  0  0  0
 28 31  1  1  0  0  0
 28 29  1  0  0  0  0
 29 27  1  6  0  0  0
 30 29  1  0  0  0  0
 32 31  1  0  0  0  0
 33 32  1  6  0  0  0
 33 36  1  0  0  0  0
 34 33  1  0  0  0  0
 34 35  1  0  0  0  0
 36 39  1  0  0  0  0
 39 37  1  1  0  0  0
 39 38  1  0  0  0  0
M  END
>  <MODEL>
6

>  <REMARK>
 VINA RESULT:      -7.5      2.681      7.124
  Name = 
  15 active torsions:
  status: ('A' for Active; 'I' for Inactive)
    1  A    between atoms: C_1  and  C_24
    2  A    between atoms: C_2  and  C_15
    3  A    between atoms: C_2  and  C_17
    4  A    between atoms: C_4  and  CA_30
    5  A    between atoms: C_4  and  C_32
    6  A    between atoms: C_5  and  O_7
    7  A    between atoms: C_6  and  C_32
    8  A    between atoms: C_8  and  C_21
    9  A    between atoms: C_8  and  C_39
   10  A    between atoms: C_11  and  C_15
   11  A    between atoms: C_11  and  C_35
   12  A    between atoms: C_14  and  CA_30
   13  A    between atoms: C_18  and  C_35
   14  A    between atoms: C_22  and  N_27
   15  A    between atoms: N_27  and  CA_30
                            x       y       z     vdW  Elec       q    Type
                         _______ _______ _______ _____ _____    ______ ____

>  <TORSDO>
F 15

$$$$
=
 OpenBabel10232411063D

 39 42  0  0  1  0  0  0  0  0999 V2000
  185.6750  178.0230  141.3780 C   0  0  0  0  0  3  0  0  0  0  0  0
  184.0150  178.9770  143.1520 C   0  0  0  0  0  0  0  0  0  0  0  0
  184.8460  178.4980  142.2670 C   0  0  0  0  0  0  0  0  0  0  0  0
  189.1230  177.2090  138.3510 C   0  0  0  0  0  1  0  0  0  0  0  0
  189.0690  177.7140  140.8630 C   0  0  0  0  0  3  0  0  0  0  0  0
  186.5420  178.6080  138.5420 O   0  0  0  0  0  0  0  0  0  0  0  0
  186.8500  178.8280  140.9300 C   0  0  1  0  0  3  0  0  0  0  0  0
  188.0870  178.4720  141.7720 C   0  0  0  0  0  3  0  0  0  0  0  0
  187.2480  178.4180  139.5680 C   0  0  0  0  0  0  0  0  0  0  0  0
  188.5120  177.7970  139.5300 N   0  0  0  0  0  0  0  0  0  0  0  0
  180.3320  178.7720  143.3420 C   0  0  0  0  0  2  0  0  0  0  0  0
  182.5640  178.9170  142.9080 C   0  0  0  0  0  0  0  0  0  0  0  0
  182.0510  178.9610  141.7270 N   0  0  0  0  0  0  0  0  0  0  0  0
  181.6250  178.8120  143.9150 O   0  0  0  0  0  0  0  0  0  0  0  0
  180.6000  178.8830  141.8350 C   0  0  2  0  0  3  0  0  0  0  0  0
  179.9820  180.1580  141.2750 C   0  0  0  0  0  2  0  0  0  0  0  0
  180.7310  180.5480  137.0620 C   0  0  0  0  0  0  0  0  0  0  0  0
  180.5910  179.1710  139.0540 C   0  0  0  0  0  3  0  0  0  0  0  0
  180.2580  180.2950  139.8160 C   0  0  0  0  0  0  0  0  0  0  0  0
  180.1510  181.5470  139.2000 C   0  0  0  0  0  3  0  0  0  0  0  0
  180.3890  181.6750  137.8300 C   0  0  0  0  0  3  0  0  0  0  0  0
  180.8310  179.2980  137.6830 C   0  0  0  0  0  3  0  0  0  0  0  0
  180.9800  180.6430  135.6900 O   0  0  0  0  0  0  0  0  0  0  0  0
  180.7980  179.5510  134.8010 C   0  0  0  0  0  1  0  0  0  0  0  0
  184.5550  179.4890  144.4470 C   0  0  0  0  0  2  0  0  0  0  0  0
  184.3670  178.4510  145.5420 C   0  0  0  0  0  2  0  0  0  0  0  0
  185.3430  178.6910  146.6790 C   0  0  0  0  0  2  0  0  0  0  0  0
  187.7470  178.2290  146.6390 C   0  0  1  0  0  3  0  0  0  0  0  0
  186.4060  177.6090  146.7130 C   0  0  1  0  0  3  0  0  0  0  0  0
  187.2030  177.7860  147.8580 O   0  0  0  0  0  0  0  0  0  0  0  0
  188.7540  177.2060  146.1500 C   0  0  0  0  0  2  0  0  0  0  0  0
  190.0220  177.2440  146.9990 C   0  0  0  0  0  2  0  0  0  0  0  0
  191.2950  176.9140  146.2140 C   0  0  1  0  0  3  0  0  0  0  0  0
  192.0310  175.7070  146.7860 C   0  0  0  0  0  2  0  0  0  0  0  0
  192.7610  176.0880  147.9130 O   0  0  0  0  0  1  0  0  0  0  0  0
  190.9880  176.7000  144.8040 N   0  0  0  0  0  2  0  0  0  0  0  0
  190.9940  179.0180  144.0980 C   0  0  0  0  0  1  0  0  0  0  0  0
  191.8090  177.2790  142.7010 O   0  0  0  0  0  1  0  0  0  0  0  0
  191.7220  177.6910  144.0330 C   0  0  2  0  0  3  0  0  0  0  0  0
  1  3  2  0  0  0  0
  2 25  1  0  0  0  0
  3  2  2  0  0  0  0
  4 10  1  0  0  0  0
  5  8  2  0  0  0  0
  6  9  2  0  0  0  0
  7  1  1  1  0  0  0
  7  8  1  0  0  0  0
  9  7  1  0  0  0  0
 10  9  1  0  0  0  0
 10  5  1  0  0  0  0
 11 14  1  0  0  0  0
 12  2  1  0  0  0  0
 12 14  1  0  0  0  0
 13 15  1  0  0  0  0
 13 12  2  0  0  0  0
 15 16  1  1  0  0  0
 15 11  1  0  0  0  0
 17 22  2  0  0  0  0
 17 21  1  0  0  0  0
 18 19  2  0  0  0  0
 19 16  1  0  0  0  0
 20 19  1  0  0  0  0
 21 20  2  0  0  0  0
 22 18  1  0  0  0  0
 23 17  1  0  0  0  0
 24 23  1  0  0  0  0
 25 26  1  0  0  0  0
 26 27  1  0  0  0  0
 28 31  1  6  0  0  0
 28 29  1  0  0  0  0
 28 30  1  0  0  0  0
 29 27  1  1  0  0  0
 29 30  1  0  0  0  0
 31 32  1  0  0  0  0
 33 34  1  1  0  0  0
 33 32  1  0  0  0  0
 34 35  1  0  0  0  0
 36 33  1  0  0  0  0
 38 39  1  0  0  0  0
 39 37  1  6  0  0  0
 39 36  1  0  0  0  0
M  END
>  <MODEL>
7

>  <REMARK>
 VINA RESULT:      -7.5      3.867      8.018
  Name = 
  15 active torsions:
  status: ('A' for Active; 'I' for Inactive)
    1  A    between atoms: C_1  and  C_24
    2  A    between atoms: C_2  and  C_15
    3  A    between atoms: C_2  and  C_17
    4  A    between atoms: C_4  and  CA_30
    5  A    between atoms: C_4  and  C_32
    6  A    between atoms: C_5  and  O_7
    7  A    between atoms: C_6  and  C_32
    8  A    between atoms: C_8  and  C_21
    9  A    between atoms: C_8  and  C_39
   10  A    between atoms: C_11  and  C_15
   11  A    between atoms: C_11  and  C_35
   12  A    between atoms: C_14  and  CA_30
   13  A    between atoms: C_18  and  C_35
   14  A    between atoms: C_22  and  N_27
   15  A    between atoms: N_27  and  CA_30
                            x       y       z     vdW  Elec       q    Type
                         _______ _______ _______ _____ _____    ______ ____

>  <TORSDO>
F 15

$$$$
=
 OpenBabel10232411063D

 39 42  0  0  1  0  0  0  0  0999 V2000
  183.6460  178.0940  140.1670 C   0  0  0  0  0  3  0  0  0  0  0  0
  185.3700  178.8860  141.9580 C   0  0  0  0  0  0  0  0  0  0  0  0
  184.5090  178.4870  141.0620 C   0  0  0  0  0  0  0  0  0  0  0  0
  179.9820  178.8800  137.3960 C   0  0  0  0  0  1  0  0  0  0  0  0
  182.2530  177.7480  137.0330 C   0  0  0  0  0  3  0  0  0  0  0  0
  181.5510  180.1760  139.5190 O   0  0  0  0  0  0  0  0  0  0  0  0
  183.4750  178.8520  138.8920 C   0  0  1  0  0  3  0  0  0  0  0  0
  183.6340  177.9070  137.6890 C   0  0  0  0  0  3  0  0  0  0  0  0
  182.0780  179.3140  138.7660 C   0  0  0  0  0  0  0  0  0  0  0  0
  181.3890  178.6960  137.7040 N   0  0  0  0  0  0  0  0  0  0  0  0
  183.6070  179.1390  145.1930 C   0  0  0  0  0  2  0  0  0  0  0  0
  184.9650  178.9990  143.3690 C   0  0  0  0  0  0  0  0  0  0  0  0
  185.8110  179.0880  144.3360 N   0  0  0  0  0  0  0  0  0  0  0  0
  183.6480  179.0160  143.7840 O   0  0  0  0  0  0  0  0  0  0  0  0
  185.0870  179.1810  145.5960 C   0  0  2  0  0  3  0  0  0  0  0  0
  185.4370  177.9830  146.4700 C   0  0  0  0  0  2  0  0  0  0  0  0
  189.6850  177.3450  146.5310 C   0  0  0  0  0  0  0  0  0  0  0  0
  187.5700  177.3050  145.3450 C   0  0  0  0  0  3  0  0  0  0  0  0
  186.9090  177.7460  146.4960 C   0  0  0  0  0  0  0  0  0  0  0  0
  187.6360  177.9980  147.6640 C   0  0  0  0  0  3  0  0  0  0  0  0
  189.0180  177.7960  147.6840 C   0  0  0  0  0  3  0  0  0  0  0  0
  188.9520  177.1010  145.3640 C   0  0  0  0  0  3  0  0  0  0  0  0
  191.0660  177.1290  146.5200 O   0  0  0  0  0  0  0  0  0  0  0  0
  191.6970  176.1560  147.3390 C   0  0  0  0  0  1  0  0  0  0  0  0
  186.7860  179.1250  141.5440 C   0  0  0  0  0  2  0  0  0  0  0  0
  187.5880  177.8380  141.6530 C   0  0  0  0  0  2  0  0  0  0  0  0
  189.0770  178.1310  141.5990 C   0  0  0  0  0  2  0  0  0  0  0  0
  190.4870  177.3890  139.7390 C   0  0  1  0  0  3  0  0  0  0  0  0
  189.8330  176.9610  140.9950 C   0  0  1  0  0  3  0  0  0  0  0  0
  191.2020  177.2780  140.9460 O   0  0  0  0  0  0  0  0  0  0  0  0
  190.7820  176.1740  138.8810 C   0  0  0  0  0  2  0  0  0  0  0  0
  191.0170  176.5820  137.4290 C   0  0  0  0  0  2  0  0  0  0  0  0
  189.7300  176.6750  136.6030 C   0  0  1  0  0  3  0  0  0  0  0  0
  189.9540  176.3100  135.1400 C   0  0  0  0  0  2  0  0  0  0  0  0
  189.8990  174.9240  134.9830 O   0  0  0  0  0  1  0  0  0  0  0  0
  188.6860  175.8370  137.1820 N   0  0  0  0  0  2  0  0  0  0  0  0
  187.3410  177.7500  137.8200 C   0  0  0  0  0  1  0  0  0  0  0  0
  186.3680  175.6420  137.3190 O   0  0  0  0  0  1  0  0  0  0  0  0
  187.4100  176.5010  136.9640 C   0  0  2  0  0  3  0  0  0  0  0  0
  1  3  2  0  0  0  0
  2 12  1  0  0  0  0
  3  2  2  0  0  0  0
  4 10  1  0  0  0  0
  5  8  2  0  0  0  0
  5 10  1  0  0  0  0
  7  1  1  1  0  0  0
  8  7  1  0  0  0  0
  9  7  1  0  0  0  0
  9  6  2  0  0  0  0
 10  9  1  0  0  0  0
 11 15  1  0  0  0  0
 12 14  1  0  0  0  0
 12 13  2  0  0  0  0
 13 15  1  0  0  0  0
 14 11  1  0  0  0  0
 15 16  1  1  0  0  0
 16 19  1  0  0  0  0
 17 21  1  0  0  0  0
 18 22  1  0  0  0  0
 18 19  2  0  0  0  0
 19 20  1  0  0  0  0
 20 21  2  0  0  0  0
 22 17  2  0  0  0  0
 23 17  1  0  0  0  0
 23 24  1  0  0  0  0
 25 26  1  0  0  0  0
 25  2  1  0  0  0  0
 27 26  1  0  0  0  0
 28 31  1  6  0  0  0
 28 30  1  0  0  0  0
 28 29  1  0  0  0  0
 29 27  1  1  0  0  0
 30 29  1  0  0  0  0
 32 31  1  0  0  0  0
 33 34  1  6  0  0  0
 33 36  1  0  0  0  0
 33 32  1  0  0  0  0
 35 34  1  0  0  0  0
 39 36  1  0  0  0  0
 39 38  1  0  0  0  0
 39 37  1  1  0  0  0
M  END
>  <MODEL>
8

>  <REMARK>
 VINA RESULT:      -7.4      3.203      6.904
  Name = 
  15 active torsions:
  status: ('A' for Active; 'I' for Inactive)
    1  A    between atoms: C_1  and  C_24
    2  A    between atoms: C_2  and  C_15
    3  A    between atoms: C_2  and  C_17
    4  A    between atoms: C_4  and  CA_30
    5  A    between atoms: C_4  and  C_32
    6  A    between atoms: C_5  and  O_7
    7  A    between atoms: C_6  and  C_32
    8  A    between atoms: C_8  and  C_21
    9  A    between atoms: C_8  and  C_39
   10  A    between atoms: C_11  and  C_15
   11  A    between atoms: C_11  and  C_35
   12  A    between atoms: C_14  and  CA_30
   13  A    between atoms: C_18  and  C_35
   14  A    between atoms: C_22  and  N_27
   15  A    between atoms: N_27  and  CA_30
                            x       y       z     vdW  Elec       q    Type
                         _______ _______ _______ _____ _____    ______ ____

>  <TORSDO>
F 15

$$$$
=
 OpenBabel10232411063D

 39 42  0  0  1  0  0  0  0  0999 V2000
  186.5830  178.0390  142.3390 C   0  0  0  0  0  3  0  0  0  0  0  0
  188.5660  177.6500  140.6890 C   0  0  0  0  0  0  0  0  0  0  0  0
  187.5730  177.8420  141.5140 C   0  0  0  0  0  0  0  0  0  0  0  0
  182.1900  178.7890  143.7040 C   0  0  0  0  0  1  0  0  0  0  0  0
  183.3120  178.6020  141.4070 C   0  0  0  0  0  3  0  0  0  0  0  0
  184.9510  179.5100  144.4170 O   0  0  0  0  0  0  0  0  0  0  0  0
  185.6240  179.1630  142.1200 C   0  0  1  0  0  3  0  0  0  0  0  0
  184.7380  178.8710  140.8980 C   0  0  0  0  0  3  0  0  0  0  0  0
  184.6510  179.2150  143.2290 C   0  0  0  0  0  0  0  0  0  0  0  0
  183.3370  178.9080  142.8210 N   0  0  0  0  0  0  0  0  0  0  0  0
  192.2050  177.4600  141.2910 C   0  0  0  0  0  2  0  0  0  0  0  0
  189.9280  177.4510  141.2120 C   0  0  0  0  0  0  0  0  0  0  0  0
  190.1660  176.9490  142.3740 N   0  0  0  0  0  0  0  0  0  0  0  0
  191.0700  177.7840  140.5110 O   0  0  0  0  0  0  0  0  0  0  0  0
  191.6060  176.8920  142.5850 C   0  0  2  0  0  3  0  0  0  0  0  0
  191.9790  177.7660  143.7750 C   0  0  0  0  0  2  0  0  0  0  0  0
  189.3380  177.1400  147.1060 C   0  0  0  0  0  0  0  0  0  0  0  0
  191.4720  176.7650  146.0160 C   0  0  0  0  0  3  0  0  0  0  0  0
  191.0570  177.5350  144.9240 C   0  0  0  0  0  0  0  0  0  0  0  0
  189.7850  178.1170  144.9270 C   0  0  0  0  0  3  0  0  0  0  0  0
  188.9270  177.9190  146.0110 C   0  0  0  0  0  3  0  0  0  0  0  0
  190.6140  176.5650  147.1010 C   0  0  0  0  0  3  0  0  0  0  0  0
  188.5020  176.9190  148.2040 O   0  0  0  0  0  0  0  0  0  0  0  0
  187.8560  177.9740  148.9000 C   0  0  0  0  0  1  0  0  0  0  0  0
  188.2810  177.5360  139.2270 C   0  0  0  0  0  2  0  0  0  0  0  0
  188.7470  178.7890  138.5020 C   0  0  0  0  0  2  0  0  0  0  0  0
  188.9800  178.4980  137.0300 C   0  0  0  0  0  2  0  0  0  0  0  0
  187.9480  176.8270  135.5680 C   0  0  1  0  0  3  0  0  0  0  0  0
  188.8260  177.0160  136.7440 C   0  0  1  0  0  3  0  0  0  0  0  0
  189.3490  176.7400  135.4680 O   0  0  0  0  0  0  0  0  0  0  0  0
  187.3690  175.4260  135.5860 C   0  0  0  0  0  2  0  0  0  0  0  0
  185.8610  175.4610  135.3530 C   0  0  0  0  0  2  0  0  0  0  0  0
  185.0400  175.1890  136.6180 C   0  0  1  0  0  3  0  0  0  0  0  0
  184.3000  176.4300  137.1050 C   0  0  0  0  0  2  0  0  0  0  0  0
  185.1960  177.3050  137.7220 O   0  0  0  0  0  1  0  0  0  0  0  0
  184.1030  174.0920  136.3970 N   0  0  0  0  0  2  0  0  0  0  0  0
  183.7350  171.7670  136.9710 C   0  0  0  0  0  1  0  0  0  0  0  0
  185.4740  173.0440  137.9630 O   0  0  0  0  0  1  0  0  0  0  0  0
  184.7700  172.8550  136.7720 C   0  0  2  0  0  3  0  0  0  0  0  0
  2 12  1  0  0  0  0
  2  3  2  0  0  0  0
  3  1  2  0  0  0  0
  5 10  1  0  0  0  0
  7  1  1  1  0  0  0
  7  9  1  0  0  0  0
  8  5  2  0  0  0  0
  8  7  1  0  0  0  0
  9  6  2  0  0  0  0
 10  9  1  0  0  0  0
 10  4  1  0  0  0  0
 11 15  1  0  0  0  0
 12 13  2  0  0  0  0
 13 15  1  0  0  0  0
 14 12  1  0  0  0  0
 14 11  1  0  0  0  0
 15 16  1  1  0  0  0
 16 19  1  0  0  0  0
 17 23  1  0  0  0  0
 18 22  2  0  0  0  0
 19 20  2  0  0  0  0
 19 18  1  0  0  0  0
 20 21  1  0  0  0  0
 21 17  2  0  0  0  0
 22 17  1  0  0  0  0
 23 24  1  0  0  0  0
 25  2  1  0  0  0  0
 26 25  1  0  0  0  0
 27 26  1  0  0  0  0
 28 31  1  1  0  0  0
 28 29  1  0  0  0  0
 29 27  1  6  0  0  0
 30 28  1  0  0  0  0
 30 29  1  0  0  0  0
 32 31  1  0  0  0  0
 33 32  1  6  0  0  0
 33 34  1  0  0  0  0
 34 35  1  0  0  0  0
 36 33  1  0  0  0  0
 36 39  1  0  0  0  0
 39 37  1  1  0  0  0
 39 38  1  0  0  0  0
M  END
>  <MODEL>
9

>  <REMARK>
 VINA RESULT:      -7.4      3.604      7.249
  Name = 
  15 active torsions:
  status: ('A' for Active; 'I' for Inactive)
    1  A    between atoms: C_1  and  C_24
    2  A    between atoms: C_2  and  C_15
    3  A    between atoms: C_2  and  C_17
    4  A    between atoms: C_4  and  CA_30
    5  A    between atoms: C_4  and  C_32
    6  A    between atoms: C_5  and  O_7
    7  A    between atoms: C_6  and  C_32
    8  A    between atoms: C_8  and  C_21
    9  A    between atoms: C_8  and  C_39
   10  A    between atoms: C_11  and  C_15
   11  A    between atoms: C_11  and  C_35
   12  A    between atoms: C_14  and  CA_30
   13  A    between atoms: C_18  and  C_35
   14  A    between atoms: C_22  and  N_27
   15  A    between atoms: N_27  and  CA_30
                            x       y       z     vdW  Elec       q    Type
                         _______ _______ _______ _____ _____    ______ ____

>  <TORSDO>
F 15

$$$$
