=
 OpenBabel10232412313D

 29 30  0  0  1  0  0  0  0  0999 V2000
  190.1590  176.5620  141.3190 C   0  0  0  0  0  3  0  0  0  0  0  0
  190.7230  175.8150  142.3030 N   0  0  0  0  0  0  0  0  0  0  0  0
  190.4480  176.0350  143.5900 N   0  0  0  0  0  0  0  0  0  0  0  0
  189.2690  177.5860  141.6510 C   0  0  0  0  0  0  0  0  0  0  0  0
  189.5880  177.0150  143.9810 C   0  0  0  0  0  0  0  0  0  0  0  0
  188.9890  177.8120  143.0000 C   0  0  0  0  0  3  0  0  0  0  0  0
  190.3670  177.2720  146.3570 C   0  0  0  0  0  0  0  0  0  0  0  0
  188.8000  177.6360  148.1660 C   0  0  0  0  0  3  0  0  0  0  0  0
  190.1070  177.4740  147.7150 C   0  0  0  0  0  3  0  0  0  0  0  0
  187.9780  177.3930  145.8910 C   0  0  0  0  0  0  0  0  0  0  0  0
  191.6890  177.1340  145.9480 O   0  0  0  0  0  1  0  0  0  0  0  0
  189.3060  177.2330  145.4240 C   0  0  0  0  0  0  0  0  0  0  0  0
  187.7430  177.5970  147.2600 C   0  0  0  0  0  3  0  0  0  0  0  0
  186.9060  177.3310  144.9920 O   0  0  0  0  0  0  0  0  0  0  0  0
  185.7090  178.0800  145.1560 C   0  0  0  0  0  2  0  0  0  0  0  0
  185.3560  178.7680  143.8520 C   0  0  1  0  0  3  0  0  0  0  0  0
  185.2230  177.8160  142.8400 O   0  0  0  0  0  1  0  0  0  0  0  0
  184.0500  179.5210  144.0220 C   0  0  0  0  0  2  0  0  0  0  0  0
  183.4380  179.1690  145.2910 N   0  0  0  0  0  1  0  0  0  0  0  0
  187.7540  179.2610  140.9210 O   0  0  0  0  0  0  0  0  0  0  0  0
  188.6320  178.4130  140.6070 C   0  0  0  0  0  0  0  0  0  0  0  0
  188.9850  178.2420  139.1640 C   0  0  0  0  0  2  0  0  0  0  0  0
  186.6260  178.2900  138.2710 N   0  0  0  0  0  2  0  0  0  0  0  0
  187.8610  177.5930  138.4310 C   0  0  0  0  0  0  0  0  0  0  0  0
  188.0210  176.4450  137.9350 O   0  0  0  0  0  0  0  0  0  0  0  0
  185.5020  177.7120  137.5520 C   0  0  0  0  0  2  0  0  0  0  0  0
  184.1940  178.1550  138.1870 C   0  0  0  0  0  2  0  0  0  0  0  0
  184.1970  180.3690  139.0860 O   0  0  0  0  0  1  0  0  0  0  0  0
  184.4490  179.0330  139.4020 C   0  0  0  0  0  2  0  0  0  0  0  0
  1  4  2  0  0  0  0
  1  2  1  0  0  0  0
  2  3  2  0  0  0  0
  3  5  1  0  0  0  0
  4  6  1  0  0  0  0
  5 12  1  0  0  0  0
  6  5  2  0  0  0  0
  7  9  1  0  0  0  0
  9  8  2  0  0  0  0
 10 13  2  0  0  0  0
 11  7  1  0  0  0  0
 12 10  1  0  0  0  0
 12  7  2  0  0  0  0
 13  8  1  0  0  0  0
 14 15  1  0  0  0  0
 14 10  1  0  0  0  0
 16 17  1  6  0  0  0
 16 18  1  0  0  0  0
 16 15  1  0  0  0  0
 18 19  1  0  0  0  0
 21 20  2  0  0  0  0
 21  4  1  0  0  0  0
 22 21  1  0  0  0  0
 23 24  1  0  0  0  0
 24 22  1  0  0  0  0
 25 24  2  0  0  0  0
 26 27  1  0  0  0  0
 26 23  1  0  0  0  0
 27 29  1  0  0  0  0
 28 29  1  0  0  0  0
M  END
>  <MODEL>
1

>  <REMARK>
 VINA RESULT:      -7.6      0.000      0.000
  Name = 
  11 active torsions:
  status: ('A' for Active; 'I' for Inactive)
    1  A    between atoms: C_3  and  C_19
    2  A    between atoms: C_5  and  O_6
    3  A    between atoms: C_5  and  C_9
    4  A    between atoms: O_6  and  C_14
    5  A    between atoms: C_9  and  C_25
    6  A    between atoms: C_11  and  C_18
    7  A    between atoms: C_11  and  C_24
    8  A    between atoms: C_13  and  N_17
    9  A    between atoms: C_13  and  C_19
   10  A    between atoms: C_15  and  C_24
   11  A    between atoms: C_20  and  C_22
                            x       y       z     vdW  Elec       q    Type
                         _______ _______ _______ _____ _____    ______ ____

>  <TORSDO>
F 11

$$$$
=
 OpenBabel10232412313D

 29 30  0  0  1  0  0  0  0  0999 V2000
  189.9280  177.2380  146.1010 C   0  0  0  0  0  3  0  0  0  0  0  0
  188.8430  176.9120  146.8490 N   0  0  0  0  0  0  0  0  0  0  0  0
  187.6080  177.2350  146.4630 N   0  0  0  0  0  0  0  0  0  0  0  0
  189.7580  177.9290  144.8980 C   0  0  0  0  0  0  0  0  0  0  0  0
  187.3720  177.9060  145.3020 C   0  0  0  0  0  0  0  0  0  0  0  0
  188.4620  178.2670  144.5040 C   0  0  0  0  0  3  0  0  0  0  0  0
  185.0360  178.6270  145.8840 C   0  0  0  0  0  0  0  0  0  0  0  0
  183.3390  178.9040  144.1800 C   0  0  0  0  0  3  0  0  0  0  0  0
  183.7280  178.9500  145.5160 C   0  0  0  0  0  3  0  0  0  0  0  0
  185.5790  178.2010  143.5460 C   0  0  0  0  0  0  0  0  0  0  0  0
  185.3850  178.7050  147.2280 O   0  0  0  0  0  1  0  0  0  0  0  0
  185.9820  178.2510  144.9040 C   0  0  0  0  0  0  0  0  0  0  0  0
  184.2590  178.5330  143.2020 C   0  0  0  0  0  3  0  0  0  0  0  0
  186.4890  177.8050  142.5590 O   0  0  0  0  0  0  0  0  0  0  0  0
  186.9200  178.6630  141.5110 C   0  0  0  0  0  2  0  0  0  0  0  0
  186.0850  178.4120  140.2700 C   0  0  1  0  0  3  0  0  0  0  0  0
  185.2870  179.5280  140.0080 O   0  0  0  0  0  1  0  0  0  0  0  0
  187.0040  178.1520  139.0920 C   0  0  0  0  0  2  0  0  0  0  0  0
  186.4340  178.7240  137.8850 N   0  0  0  0  0  1  0  0  0  0  0  0
  191.2430  179.5040  143.9240 O   0  0  0  0  0  0  0  0  0  0  0  0
  190.9150  178.2940  144.0570 C   0  0  0  0  0  0  0  0  0  0  0  0
  191.6970  177.2520  143.3230 C   0  0  0  0  0  2  0  0  0  0  0  0
  191.1630  177.3740  140.8610 N   0  0  0  0  0  2  0  0  0  0  0  0
  190.9330  176.7750  142.1360 C   0  0  0  0  0  0  0  0  0  0  0  0
  190.1110  175.8280  142.2620 O   0  0  0  0  0  0  0  0  0  0  0  0
  190.4590  176.9380  139.6660 C   0  0  0  0  0  2  0  0  0  0  0  0
  191.4400  176.3390  138.6720 C   0  0  0  0  0  2  0  0  0  0  0  0
  193.5900  176.9070  137.7960 O   0  0  0  0  0  1  0  0  0  0  0  0
  192.8630  176.7790  138.9800 C   0  0  0  0  0  2  0  0  0  0  0  0
  1  2  1  0  0  0  0
  3  2  2  0  0  0  0
  4  1  2  0  0  0  0
  5  3  1  0  0  0  0
  6  4  1  0  0  0  0
  6  5  2  0  0  0  0
  7 11  1  0  0  0  0
  8  9  2  0  0  0  0
  9  7  1  0  0  0  0
 10 12  1  0  0  0  0
 12  5  1  0  0  0  0
 12  7  2  0  0  0  0
 13 10  2  0  0  0  0
 13  8  1  0  0  0  0
 14 10  1  0  0  0  0
 15 14  1  0  0  0  0
 16 17  1  6  0  0  0
 16 15  1  0  0  0  0
 18 16  1  0  0  0  0
 19 18  1  0  0  0  0
 20 21  2  0  0  0  0
 21  4  1  0  0  0  0
 22 21  1  0  0  0  0
 23 24  1  0  0  0  0
 24 25  2  0  0  0  0
 24 22  1  0  0  0  0
 26 23  1  0  0  0  0
 27 29  1  0  0  0  0
 27 26  1  0  0  0  0
 28 29  1  0  0  0  0
M  END
>  <MODEL>
2

>  <REMARK>
 VINA RESULT:      -7.5      2.383      5.441
  Name = 
  11 active torsions:
  status: ('A' for Active; 'I' for Inactive)
    1  A    between atoms: C_3  and  C_19
    2  A    between atoms: C_5  and  O_6
    3  A    between atoms: C_5  and  C_9
    4  A    between atoms: O_6  and  C_14
    5  A    between atoms: C_9  and  C_25
    6  A    between atoms: C_11  and  C_18
    7  A    between atoms: C_11  and  C_24
    8  A    between atoms: C_13  and  N_17
    9  A    between atoms: C_13  and  C_19
   10  A    between atoms: C_15  and  C_24
   11  A    between atoms: C_20  and  C_22
                            x       y       z     vdW  Elec       q    Type
                         _______ _______ _______ _____ _____    ______ ____

>  <TORSDO>
F 11

$$$$
=
 OpenBabel10232412313D

 29 30  0  0  1  0  0  0  0  0999 V2000
  184.0220  178.9330  139.5620 C   0  0  0  0  0  3  0  0  0  0  0  0
  185.0220  179.6840  140.0910 N   0  0  0  0  0  0  0  0  0  0  0  0
  185.4420  179.5010  141.3440 N   0  0  0  0  0  0  0  0  0  0  0  0
  183.4110  177.9450  140.3380 C   0  0  0  0  0  0  0  0  0  0  0  0
  184.8910  178.5540  142.1540 C   0  0  0  0  0  0  0  0  0  0  0  0
  183.8540  177.7630  141.6500 C   0  0  0  0  0  3  0  0  0  0  0  0
  184.6630  178.9350  144.6280 C   0  0  0  0  0  0  0  0  0  0  0  0
  186.2960  178.0710  146.1930 C   0  0  0  0  0  3  0  0  0  0  0  0
  185.1230  178.7770  145.9370 C   0  0  0  0  0  3  0  0  0  0  0  0
  186.5790  177.6680  143.8120 C   0  0  0  0  0  0  0  0  0  0  0  0
  183.4770  179.6310  144.4210 O   0  0  0  0  0  1  0  0  0  0  0  0
  185.3820  178.3800  143.5460 C   0  0  0  0  0  0  0  0  0  0  0  0
  187.0180  177.5200  145.1370 C   0  0  0  0  0  3  0  0  0  0  0  0
  187.3250  177.1310  142.7560 O   0  0  0  0  0  0  0  0  0  0  0  0
  188.6500  177.5440  142.4520 C   0  0  0  0  0  2  0  0  0  0  0  0
  188.9030  177.3960  140.9640 C   0  0  1  0  0  3  0  0  0  0  0  0
  188.5190  178.5660  140.3050 O   0  0  0  0  0  1  0  0  0  0  0  0
  190.3790  177.1370  140.7310 C   0  0  0  0  0  2  0  0  0  0  0  0
  190.5500  176.2380  139.6020 N   0  0  0  0  0  1  0  0  0  0  0  0
  181.1280  177.4950  139.8680 O   0  0  0  0  0  0  0  0  0  0  0  0
  182.3250  177.1070  139.7920 C   0  0  0  0  0  0  0  0  0  0  0  0
  182.6130  175.7770  139.1730 C   0  0  0  0  0  2  0  0  0  0  0  0
  184.5260  175.7720  137.5290 N   0  0  0  0  0  2  0  0  0  0  0  0
  183.1350  175.9530  137.7890 C   0  0  0  0  0  0  0  0  0  0  0  0
  182.3380  176.2350  136.8530 O   0  0  0  0  0  0  0  0  0  0  0  0
  185.0880  175.9160  136.1950 C   0  0  0  0  0  2  0  0  0  0  0  0
  185.7460  177.2780  136.0520 C   0  0  0  0  0  2  0  0  0  0  0  0
  186.9270  178.9100  137.3380 O   0  0  0  0  0  1  0  0  0  0  0  0
  186.7130  177.5390  137.1960 C   0  0  0  0  0  2  0  0  0  0  0  0
  1  2  2  0  0  0  0
  1  4  1  0  0  0  0
  2  3  1  0  0  0  0
  3  5  2  0  0  0  0
  4  6  2  0  0  0  0
  5 12  1  0  0  0  0
  6  5  1  0  0  0  0
  7  9  1  0  0  0  0
  9  8  2  0  0  0  0
 10 13  2  0  0  0  0
 11  7  1  0  0  0  0
 12 10  1  0  0  0  0
 12  7  2  0  0  0  0
 13  8  1  0  0  0  0
 14 10  1  0  0  0  0
 15 14  1  0  0  0  0
 16 17  1  6  0  0  0
 16 15  1  0  0  0  0
 18 16  1  0  0  0  0
 19 18  1  0  0  0  0
 21 20  2  0  0  0  0
 21  4  1  0  0  0  0
 22 21  1  0  0  0  0
 23 24  1  0  0  0  0
 24 22  1  0  0  0  0
 25 24  2  0  0  0  0
 26 23  1  0  0  0  0
 27 26  1  0  0  0  0
 27 29  1  0  0  0  0
 29 28  1  0  0  0  0
M  END
>  <MODEL>
3

>  <REMARK>
 VINA RESULT:      -7.4      2.507      5.491
  Name = 
  11 active torsions:
  status: ('A' for Active; 'I' for Inactive)
    1  A    between atoms: C_3  and  C_19
    2  A    between atoms: C_5  and  O_6
    3  A    between atoms: C_5  and  C_9
    4  A    between atoms: O_6  and  C_14
    5  A    between atoms: C_9  and  C_25
    6  A    between atoms: C_11  and  C_18
    7  A    between atoms: C_11  and  C_24
    8  A    between atoms: C_13  and  N_17
    9  A    between atoms: C_13  and  C_19
   10  A    between atoms: C_15  and  C_24
   11  A    between atoms: C_20  and  C_22
                            x       y       z     vdW  Elec       q    Type
                         _______ _______ _______ _____ _____    ______ ____

>  <TORSDO>
F 11

$$$$
=
 OpenBabel10232412313D

 29 30  0  0  1  0  0  0  0  0999 V2000
  184.4620  178.8390  145.9460 C   0  0  0  0  0  3  0  0  0  0  0  0
  185.2130  178.7890  147.0760 N   0  0  0  0  0  0  0  0  0  0  0  0
  186.4830  178.3800  147.0520 N   0  0  0  0  0  0  0  0  0  0  0  0
  185.0220  178.4540  144.7250 C   0  0  0  0  0  0  0  0  0  0  0  0
  187.0890  177.9940  145.8950 C   0  0  0  0  0  0  0  0  0  0  0  0
  186.3500  178.0250  144.7090 C   0  0  0  0  0  3  0  0  0  0  0  0
  189.1650  177.3020  147.1330 C   0  0  0  0  0  0  0  0  0  0  0  0
  191.1910  176.6920  145.9560 C   0  0  0  0  0  3  0  0  0  0  0  0
  190.4960  176.8800  147.1490 C   0  0  0  0  0  3  0  0  0  0  0  0
  189.2190  177.3530  144.6970 C   0  0  0  0  0  0  0  0  0  0  0  0
  188.5050  177.4590  148.3470 O   0  0  0  0  0  1  0  0  0  0  0  0
  188.5050  177.5420  145.9070 C   0  0  0  0  0  0  0  0  0  0  0  0
  190.5550  176.9260  144.7390 C   0  0  0  0  0  3  0  0  0  0  0  0
  188.5980  177.6100  143.4680 O   0  0  0  0  0  0  0  0  0  0  0  0
  189.2590  178.2410  142.3800 C   0  0  0  0  0  2  0  0  0  0  0  0
  189.1650  177.3630  141.1480 C   0  0  1  0  0  3  0  0  0  0  0  0
  188.5490  178.0700  140.1130 O   0  0  0  0  0  1  0  0  0  0  0  0
  190.5600  176.9460  140.7230 C   0  0  0  0  0  2  0  0  0  0  0  0
  190.4970  176.2030  139.4770 N   0  0  0  0  0  1  0  0  0  0  0  0
  183.1070  179.0630  143.4620 O   0  0  0  0  0  0  0  0  0  0  0  0
  184.2360  178.5020  143.4760 C   0  0  0  0  0  0  0  0  0  0  0  0
  184.7390  177.8640  142.2210 C   0  0  0  0  0  2  0  0  0  0  0  0
  183.7170  178.8250  140.1250 N   0  0  0  0  0  2  0  0  0  0  0  0
  184.7510  178.8540  141.1070 C   0  0  0  0  0  0  0  0  0  0  0  0
  185.6600  179.7260  141.0580 O   0  0  0  0  0  0  0  0  0  0  0  0
  183.6700  179.7760  139.0260 C   0  0  0  0  0  2  0  0  0  0  0  0
  182.3020  179.7390  138.3630 C   0  0  0  0  0  2  0  0  0  0  0  0
  181.1590  181.6620  137.5220 O   0  0  0  0  0  1  0  0  0  0  0  0
  181.5020  180.9890  138.6950 C   0  0  0  0  0  2  0  0  0  0  0  0
  1  2  1  0  0  0  0
  3  2  2  0  0  0  0
  4  1  2  0  0  0  0
  5 12  1  0  0  0  0
  5  3  1  0  0  0  0
  6  4  1  0  0  0  0
  6  5  2  0  0  0  0
  7  9  1  0  0  0  0
  7 11  1  0  0  0  0
  8  9  2  0  0  0  0
 10 13  2  0  0  0  0
 10 12  1  0  0  0  0
 12  7  2  0  0  0  0
 13  8  1  0  0  0  0
 14 10  1  0  0  0  0
 15 14  1  0  0  0  0
 16 17  1  6  0  0  0
 16 15  1  0  0  0  0
 18 16  1  0  0  0  0
 19 18  1  0  0  0  0
 20 21  2  0  0  0  0
 21  4  1  0  0  0  0
 22 21  1  0  0  0  0
 23 24  1  0  0  0  0
 24 22  1  0  0  0  0
 25 24  2  0  0  0  0
 26 23  1  0  0  0  0
 27 29  1  0  0  0  0
 27 26  1  0  0  0  0
 28 29  1  0  0  0  0
M  END
>  <MODEL>
4

>  <REMARK>
 VINA RESULT:      -7.3      2.115      4.752
  Name = 
  11 active torsions:
  status: ('A' for Active; 'I' for Inactive)
    1  A    between atoms: C_3  and  C_19
    2  A    between atoms: C_5  and  O_6
    3  A    between atoms: C_5  and  C_9
    4  A    between atoms: O_6  and  C_14
    5  A    between atoms: C_9  and  C_25
    6  A    between atoms: C_11  and  C_18
    7  A    between atoms: C_11  and  C_24
    8  A    between atoms: C_13  and  N_17
    9  A    between atoms: C_13  and  C_19
   10  A    between atoms: C_15  and  C_24
   11  A    between atoms: C_20  and  C_22
                            x       y       z     vdW  Elec       q    Type
                         _______ _______ _______ _____ _____    ______ ____

>  <TORSDO>
F 11

$$$$
=
 OpenBabel10232412313D

 29 30  0  0  1  0  0  0  0  0999 V2000
  184.7880  178.4820  142.2320 C   0  0  0  0  0  3  0  0  0  0  0  0
  184.2360  178.3660  143.4670 N   0  0  0  0  0  0  0  0  0  0  0  0
  184.9910  178.2100  144.5560 N   0  0  0  0  0  0  0  0  0  0  0  0
  186.1770  178.4360  142.0870 C   0  0  0  0  0  0  0  0  0  0  0  0
  186.3490  178.1600  144.4850 C   0  0  0  0  0  0  0  0  0  0  0  0
  186.9590  178.2690  143.2310 C   0  0  0  0  0  3  0  0  0  0  0  0
  186.7060  178.5130  146.9480 C   0  0  0  0  0  0  0  0  0  0  0  0
  188.6750  177.6650  148.0720 C   0  0  0  0  0  3  0  0  0  0  0  0
  187.4630  178.3510  148.1100 C   0  0  0  0  0  3  0  0  0  0  0  0
  188.3950  177.2890  145.6870 C   0  0  0  0  0  0  0  0  0  0  0  0
  185.4930  179.1880  147.0360 O   0  0  0  0  0  1  0  0  0  0  0  0
  187.1580  177.9820  145.7190 C   0  0  0  0  0  0  0  0  0  0  0  0
  189.1360  177.1380  146.8690 C   0  0  0  0  0  3  0  0  0  0  0  0
  188.8790  176.7760  144.4770 O   0  0  0  0  0  0  0  0  0  0  0  0
  190.2650  176.6420  144.1900 C   0  0  0  0  0  2  0  0  0  0  0  0
  190.7410  177.8470  143.4030 C   0  0  1  0  0  3  0  0  0  0  0  0
  191.7410  178.5090  144.1180 O   0  0  0  0  0  1  0  0  0  0  0  0
  191.2880  177.3870  142.0650 C   0  0  0  0  0  2  0  0  0  0  0  0
  190.6320  176.1560  141.6590 N   0  0  0  0  0  1  0  0  0  0  0  0
  186.1040  178.7980  139.7420 O   0  0  0  0  0  0  0  0  0  0  0  0
  186.8110  178.5660  140.7600 C   0  0  0  0  0  0  0  0  0  0  0  0
  188.2860  178.3920  140.5880 C   0  0  0  0  0  2  0  0  0  0  0  0
  188.5670  177.2050  138.3790 N   0  0  0  0  0  2  0  0  0  0  0  0
  188.6420  178.4100  139.1410 C   0  0  0  0  0  0  0  0  0  0  0  0
  188.9800  179.4950  138.5950 O   0  0  0  0  0  0  0  0  0  0  0  0
  188.8870  177.1680  136.9610 C   0  0  0  0  0  2  0  0  0  0  0  0
  189.9530  176.1180  136.6960 C   0  0  0  0  0  2  0  0  0  0  0  0
  191.2180  174.6520  138.0960 O   0  0  0  0  0  1  0  0  0  0  0  0
  190.9010  175.9930  137.8780 C   0  0  0  0  0  2  0  0  0  0  0  0
  1  2  1  0  0  0  0
  2  3  2  0  0  0  0
  4  1  2  0  0  0  0
  4  6  1  0  0  0  0
  5  3  1  0  0  0  0
  5 12  1  0  0  0  0
  6  5  2  0  0  0  0
  7 11  1  0  0  0  0
  7  9  1  0  0  0  0
  8  9  2  0  0  0  0
 10 12  1  0  0  0  0
 10 13  2  0  0  0  0
 12  7  2  0  0  0  0
 13  8  1  0  0  0  0
 14 10  1  0  0  0  0
 15 14  1  0  0  0  0
 16 17  1  1  0  0  0
 16 15  1  0  0  0  0
 18 16  1  0  0  0  0
 19 18  1  0  0  0  0
 20 21  2  0  0  0  0
 21  4  1  0  0  0  0
 22 21  1  0  0  0  0
 23 24  1  0  0  0  0
 24 22  1  0  0  0  0
 25 24  2  0  0  0  0
 26 23  1  0  0  0  0
 27 26  1  0  0  0  0
 27 29  1  0  0  0  0
 29 28  1  0  0  0  0
M  END
>  <MODEL>
5

>  <REMARK>
 VINA RESULT:      -7.2      1.981      4.819
  Name = 
  11 active torsions:
  status: ('A' for Active; 'I' for Inactive)
    1  A    between atoms: C_3  and  C_19
    2  A    between atoms: C_5  and  O_6
    3  A    between atoms: C_5  and  C_9
    4  A    between atoms: O_6  and  C_14
    5  A    between atoms: C_9  and  C_25
    6  A    between atoms: C_11  and  C_18
    7  A    between atoms: C_11  and  C_24
    8  A    between atoms: C_13  and  N_17
    9  A    between atoms: C_13  and  C_19
   10  A    between atoms: C_15  and  C_24
   11  A    between atoms: C_20  and  C_22
                            x       y       z     vdW  Elec       q    Type
                         _______ _______ _______ _____ _____    ______ ____

>  <TORSDO>
F 11

$$$$
=
 OpenBabel10232412313D

 29 30  0  0  1  0  0  0  0  0999 V2000
  184.0070  179.1020  139.8400 C   0  0  0  0  0  3  0  0  0  0  0  0
  185.1740  179.6380  140.2800 N   0  0  0  0  0  0  0  0  0  0  0  0
  185.6230  179.4110  141.5160 N   0  0  0  0  0  0  0  0  0  0  0  0
  183.2500  178.2950  140.6930 C   0  0  0  0  0  0  0  0  0  0  0  0
  184.9350  178.6320  142.3960 C   0  0  0  0  0  0  0  0  0  0  0  0
  183.7250  178.0650  141.9850 C   0  0  0  0  0  3  0  0  0  0  0  0
  184.7570  178.8840  144.8910 C   0  0  0  0  0  0  0  0  0  0  0  0
  186.4490  177.9890  146.3730 C   0  0  0  0  0  3  0  0  0  0  0  0
  185.2510  178.6740  146.1800 C   0  0  0  0  0  3  0  0  0  0  0  0
  186.6850  177.7120  143.9690 C   0  0  0  0  0  0  0  0  0  0  0  0
  183.5480  179.5560  144.7460 O   0  0  0  0  0  1  0  0  0  0  0  0
  185.4640  178.4030  143.7660 C   0  0  0  0  0  0  0  0  0  0  0  0
  187.1590  177.5110  145.2750 C   0  0  0  0  0  3  0  0  0  0  0  0
  187.4200  177.2480  142.8710 O   0  0  0  0  0  0  0  0  0  0  0  0
  188.5970  177.8880  142.3980 C   0  0  0  0  0  2  0  0  0  0  0  0
  189.7720  176.9360  142.5010 C   0  0  1  0  0  3  0  0  0  0  0  0
  189.3280  175.6890  142.9440 O   0  0  0  0  0  1  0  0  0  0  0  0
  190.4200  176.7920  141.1370 C   0  0  0  0  0  2  0  0  0  0  0  0
  189.4940  177.2180  140.1020 N   0  0  0  0  0  1  0  0  0  0  0  0
  181.9830  176.8010  139.3510 O   0  0  0  0  0  0  0  0  0  0  0  0
  181.9800  177.6910  140.2440 C   0  0  0  0  0  0  0  0  0  0  0  0
  180.6690  178.1410  140.8070 C   0  0  0  0  0  2  0  0  0  0  0  0
  180.5650  180.1720  139.3160 N   0  0  0  0  0  2  0  0  0  0  0  0
  180.5060  179.6110  140.6260 C   0  0  0  0  0  0  0  0  0  0  0  0
  180.2900  180.3420  141.6300 O   0  0  0  0  0  0  0  0  0  0  0  0
  180.3970  181.5970  139.0790 C   0  0  0  0  0  2  0  0  0  0  0  0
  181.0420  181.9850  137.7590 C   0  0  0  0  0  2  0  0  0  0  0  0
  181.8150  184.2280  137.4740 O   0  0  0  0  0  1  0  0  0  0  0  0
  180.6870  183.4140  137.3770 C   0  0  0  0  0  2  0  0  0  0  0  0
  1  2  2  0  0  0  0
  1  4  1  0  0  0  0
  2  3  1  0  0  0  0
  3  5  2  0  0  0  0
  4  6  2  0  0  0  0
  5 12  1  0  0  0  0
  6  5  1  0  0  0  0
  7  9  1  0  0  0  0
  9  8  2  0  0  0  0
 10 13  2  0  0  0  0
 11  7  1  0  0  0  0
 12 10  1  0  0  0  0
 12  7  2  0  0  0  0
 13  8  1  0  0  0  0
 14 10  1  0  0  0  0
 15 16  1  0  0  0  0
 15 14  1  0  0  0  0
 16 17  1  6  0  0  0
 18 16  1  0  0  0  0
 19 18  1  0  0  0  0
 20 21  2  0  0  0  0
 21  4  1  0  0  0  0
 21 22  1  0  0  0  0
 23 24  1  0  0  0  0
 24 22  1  0  0  0  0
 24 25  2  0  0  0  0
 26 23  1  0  0  0  0
 27 26  1  0  0  0  0
 29 28  1  0  0  0  0
 29 27  1  0  0  0  0
M  END
>  <MODEL>
6

>  <REMARK>
 VINA RESULT:      -7.2      3.271      6.085
  Name = 
  11 active torsions:
  status: ('A' for Active; 'I' for Inactive)
    1  A    between atoms: C_3  and  C_19
    2  A    between atoms: C_5  and  O_6
    3  A    between atoms: C_5  and  C_9
    4  A    between atoms: O_6  and  C_14
    5  A    between atoms: C_9  and  C_25
    6  A    between atoms: C_11  and  C_18
    7  A    between atoms: C_11  and  C_24
    8  A    between atoms: C_13  and  N_17
    9  A    between atoms: C_13  and  C_19
   10  A    between atoms: C_15  and  C_24
   11  A    between atoms: C_20  and  C_22
                            x       y       z     vdW  Elec       q    Type
                         _______ _______ _______ _____ _____    ______ ____

>  <TORSDO>
F 11

$$$$
=
 OpenBabel10232412313D

 29 30  0  0  1  0  0  0  0  0999 V2000
  183.5410  179.2150  143.8490 C   0  0  0  0  0  3  0  0  0  0  0  0
  183.4620  179.0900  145.1990 N   0  0  0  0  0  0  0  0  0  0  0  0
  184.5340  178.7860  145.9340 N   0  0  0  0  0  0  0  0  0  0  0  0
  184.7670  179.0240  143.2060 C   0  0  0  0  0  0  0  0  0  0  0  0
  185.7570  178.5890  145.3700 C   0  0  0  0  0  0  0  0  0  0  0  0
  185.8820  178.7030  143.9820 C   0  0  0  0  0  3  0  0  0  0  0  0
  187.0030  178.7260  147.5490 C   0  0  0  0  0  0  0  0  0  0  0  0
  189.1390  177.6280  147.8520 C   0  0  0  0  0  3  0  0  0  0  0  0
  188.1030  178.4120  148.3510 C   0  0  0  0  0  3  0  0  0  0  0  0
  187.9890  177.4560  145.7160 C   0  0  0  0  0  0  0  0  0  0  0  0
  185.9820  179.4960  148.0950 O   0  0  0  0  0  1  0  0  0  0  0  0
  186.9280  178.2500  146.2210 C   0  0  0  0  0  0  0  0  0  0  0  0
  189.0820  177.1530  146.5430 C   0  0  0  0  0  3  0  0  0  0  0  0
  187.9530  176.9940  144.3950 O   0  0  0  0  0  0  0  0  0  0  0  0
  189.0970  176.4980  143.7140 C   0  0  0  0  0  2  0  0  0  0  0  0
  189.5670  177.5180  142.6950 C   0  0  1  0  0  3  0  0  0  0  0  0
  190.3700  178.4720  143.3220 O   0  0  0  0  0  1  0  0  0  0  0  0
  190.3600  176.8130  141.6110 C   0  0  0  0  0  2  0  0  0  0  0  0
  189.9170  177.2610  140.3030 N   0  0  0  0  0  1  0  0  0  0  0  0
  185.9770  179.5400  141.2300 O   0  0  0  0  0  0  0  0  0  0  0  0
  184.8890  179.1590  141.7410 C   0  0  0  0  0  0  0  0  0  0  0  0
  183.7280  178.8860  140.8390 C   0  0  0  0  0  2  0  0  0  0  0  0
  184.3470  177.6980  138.7020 N   0  0  0  0  0  2  0  0  0  0  0  0
  184.1610  178.9200  139.4140 C   0  0  0  0  0  0  0  0  0  0  0  0
  184.3340  180.0300  138.8420 O   0  0  0  0  0  0  0  0  0  0  0  0
  184.7540  177.6730  137.3050 C   0  0  0  0  0  2  0  0  0  0  0  0
  186.1930  177.1980  137.1910 C   0  0  0  0  0  2  0  0  0  0  0  0
  187.6400  178.7880  138.2350 O   0  0  0  0  0  1  0  0  0  0  0  0
  187.1400  178.3720  137.0010 C   0  0  0  0  0  2  0  0  0  0  0  0
  1  2  1  0  0  0  0
  2  3  2  0  0  0  0
  4  1  2  0  0  0  0
  4  6  1  0  0  0  0
  5  3  1  0  0  0  0
  5 12  1  0  0  0  0
  6  5  2  0  0  0  0
  7 11  1  0  0  0  0
  7  9  1  0  0  0  0
  8  9  2  0  0  0  0
 10 12  1  0  0  0  0
 10 13  2  0  0  0  0
 12  7  2  0  0  0  0
 13  8  1  0  0  0  0
 14 10  1  0  0  0  0
 15 14  1  0  0  0  0
 16 17  1  1  0  0  0
 16 15  1  0  0  0  0
 18 16  1  0  0  0  0
 19 18  1  0  0  0  0
 20 21  2  0  0  0  0
 21  4  1  0  0  0  0
 22 21  1  0  0  0  0
 23 24  1  0  0  0  0
 24 22  1  0  0  0  0
 25 24  2  0  0  0  0
 26 23  1  0  0  0  0
 27 26  1  0  0  0  0
 29 27  1  0  0  0  0
 29 28  1  0  0  0  0
M  END
>  <MODEL>
7

>  <REMARK>
 VINA RESULT:      -7.2      1.675      4.656
  Name = 
  11 active torsions:
  status: ('A' for Active; 'I' for Inactive)
    1  A    between atoms: C_3  and  C_19
    2  A    between atoms: C_5  and  O_6
    3  A    between atoms: C_5  and  C_9
    4  A    between atoms: O_6  and  C_14
    5  A    between atoms: C_9  and  C_25
    6  A    between atoms: C_11  and  C_18
    7  A    between atoms: C_11  and  C_24
    8  A    between atoms: C_13  and  N_17
    9  A    between atoms: C_13  and  C_19
   10  A    between atoms: C_15  and  C_24
   11  A    between atoms: C_20  and  C_22
                            x       y       z     vdW  Elec       q    Type
                         _______ _______ _______ _____ _____    ______ ____

>  <TORSDO>
F 11

$$$$
=
 OpenBabel10232412313D

 29 30  0  0  1  0  0  0  0  0999 V2000
  189.8550  176.5460  141.3540 C   0  0  0  0  0  3  0  0  0  0  0  0
  190.3990  175.8250  142.3670 N   0  0  0  0  0  0  0  0  0  0  0  0
  190.1140  176.0920  143.6430 N   0  0  0  0  0  0  0  0  0  0  0  0
  188.9770  177.5940  141.6420 C   0  0  0  0  0  0  0  0  0  0  0  0
  189.2650  177.0970  143.9930 C   0  0  0  0  0  0  0  0  0  0  0  0
  188.6870  177.8690  142.9800 C   0  0  0  0  0  3  0  0  0  0  0  0
  190.0110  177.3240  146.3830 C   0  0  0  0  0  0  0  0  0  0  0  0
  188.4460  177.8680  148.1470 C   0  0  0  0  0  3  0  0  0  0  0  0
  189.7420  177.5740  147.7300 C   0  0  0  0  0  3  0  0  0  0  0  0
  187.6560  177.6620  145.8570 C   0  0  0  0  0  0  0  0  0  0  0  0
  191.3230  177.0530  146.0080 O   0  0  0  0  0  1  0  0  0  0  0  0
  188.9730  177.3670  145.4250 C   0  0  0  0  0  0  0  0  0  0  0  0
  187.4110  177.9120  147.2160 C   0  0  0  0  0  3  0  0  0  0  0  0
  186.6040  177.6850  144.9330 O   0  0  0  0  0  0  0  0  0  0  0  0
  185.4820  178.5500  145.0540 C   0  0  0  0  0  2  0  0  0  0  0  0
  184.8890  178.8100  143.6840 C   0  0  1  0  0  3  0  0  0  0  0  0
  185.1350  177.7180  142.8500 O   0  0  0  0  0  1  0  0  0  0  0  0
  183.3930  179.0250  143.8190 C   0  0  0  0  0  2  0  0  0  0  0  0
  183.0370  179.1610  145.2200 N   0  0  0  0  0  1  0  0  0  0  0  0
  187.1700  178.7890  140.6710 O   0  0  0  0  0  0  0  0  0  0  0  0
  188.3630  178.3940  140.5640 C   0  0  0  0  0  0  0  0  0  0  0  0
  189.1210  178.7230  139.3180 C   0  0  0  0  0  2  0  0  0  0  0  0
  188.5110  176.7450  137.8750 N   0  0  0  0  0  2  0  0  0  0  0  0
  188.4320  178.1470  138.1280 C   0  0  0  0  0  0  0  0  0  0  0  0
  187.7640  178.9000  137.3700 O   0  0  0  0  0  0  0  0  0  0  0  0
  187.8460  176.1280  136.7390 C   0  0  0  0  0  2  0  0  0  0  0  0
  187.6700  174.6380  136.9850 C   0  0  0  0  0  2  0  0  0  0  0  0
  189.7620  173.5380  137.3340 O   0  0  0  0  0  1  0  0  0  0  0  0
  188.8090  173.8450  136.3630 C   0  0  0  0  0  2  0  0  0  0  0  0
  1  4  2  0  0  0  0
  1  2  1  0  0  0  0
  2  3  2  0  0  0  0
  3  5  1  0  0  0  0
  4  6  1  0  0  0  0
  5 12  1  0  0  0  0
  6  5  2  0  0  0  0
  7  9  1  0  0  0  0
  9  8  2  0  0  0  0
 10 13  2  0  0  0  0
 11  7  1  0  0  0  0
 12 10  1  0  0  0  0
 12  7  2  0  0  0  0
 13  8  1  0  0  0  0
 14 15  1  0  0  0  0
 14 10  1  0  0  0  0
 16 17  1  6  0  0  0
 16 18  1  0  0  0  0
 16 15  1  0  0  0  0
 18 19  1  0  0  0  0
 21 20  2  0  0  0  0
 21  4  1  0  0  0  0
 22 21  1  0  0  0  0
 23 24  1  0  0  0  0
 24 22  1  0  0  0  0
 25 24  2  0  0  0  0
 26 27  1  0  0  0  0
 26 23  1  0  0  0  0
 29 27  1  0  0  0  0
 29 28  1  0  0  0  0
M  END
>  <MODEL>
8

>  <REMARK>
 VINA RESULT:      -7.2      1.610      2.546
  Name = 
  11 active torsions:
  status: ('A' for Active; 'I' for Inactive)
    1  A    between atoms: C_3  and  C_19
    2  A    between atoms: C_5  and  O_6
    3  A    between atoms: C_5  and  C_9
    4  A    between atoms: O_6  and  C_14
    5  A    between atoms: C_9  and  C_25
    6  A    between atoms: C_11  and  C_18
    7  A    between atoms: C_11  and  C_24
    8  A    between atoms: C_13  and  N_17
    9  A    between atoms: C_13  and  C_19
   10  A    between atoms: C_15  and  C_24
   11  A    between atoms: C_20  and  C_22
                            x       y       z     vdW  Elec       q    Type
                         _______ _______ _______ _____ _____    ______ ____

>  <TORSDO>
F 11

$$$$
=
 OpenBabel10232412313D

 29 30  0  0  1  0  0  0  0  0999 V2000
  190.8840  177.2130  142.4420 C   0  0  0  0  0  3  0  0  0  0  0  0
  191.8350  177.4740  141.5080 N   0  0  0  0  0  0  0  0  0  0  0  0
  191.5620  177.4240  140.2030 N   0  0  0  0  0  0  0  0  0  0  0  0
  189.5890  176.8820  142.0380 C   0  0  0  0  0  0  0  0  0  0  0  0
  190.3200  177.1100  139.7430 C   0  0  0  0  0  0  0  0  0  0  0  0
  189.3130  176.8280  140.6700 C   0  0  0  0  0  3  0  0  0  0  0  0
  189.3230  178.0970  137.6570 C   0  0  0  0  0  0  0  0  0  0  0  0
  189.5280  176.9890  135.5140 C   0  0  0  0  0  3  0  0  0  0  0  0
  189.0670  178.0550  136.2840 C   0  0  0  0  0  3  0  0  0  0  0  0
  190.5140  175.9770  137.4930 C   0  0  0  0  0  0  0  0  0  0  0  0
  188.8610  179.1900  138.3830 O   0  0  0  0  0  1  0  0  0  0  0  0
  190.0530  177.0610  138.2810 C   0  0  0  0  0  0  0  0  0  0  0  0
  190.2470  175.9580  136.1150 C   0  0  0  0  0  3  0  0  0  0  0  0
  191.2160  174.9240  138.0910 O   0  0  0  0  0  0  0  0  0  0  0  0
  192.4750  174.4620  137.6190 C   0  0  0  0  0  2  0  0  0  0  0  0
  193.4160  175.6380  137.4430 C   0  0  1  0  0  3  0  0  0  0  0  0
  194.2840  175.7120  138.5350 O   0  0  0  0  0  1  0  0  0  0  0  0
  194.2140  175.4540  136.1670 C   0  0  0  0  0  2  0  0  0  0  0  0
  195.6100  175.7750  136.4060 N   0  0  0  0  0  1  0  0  0  0  0  0
  188.2060  175.4080  143.2820 O   0  0  0  0  0  0  0  0  0  0  0  0
  188.5300  176.5990  143.0270 C   0  0  0  0  0  0  0  0  0  0  0  0
  187.8000  177.7070  143.7160 C   0  0  0  0  0  2  0  0  0  0  0  0
  189.2000  177.2550  145.7650 N   0  0  0  0  0  2  0  0  0  0  0  0
  187.9310  177.5710  145.1940 C   0  0  0  0  0  0  0  0  0  0  0  0
  186.9250  177.7620  145.9300 O   0  0  0  0  0  0  0  0  0  0  0  0
  189.3890  177.1260  147.2010 C   0  0  0  0  0  2  0  0  0  0  0  0
  190.8610  176.9160  147.5160 C   0  0  0  0  0  2  0  0  0  0  0  0
  192.2240  175.3630  146.3170 O   0  0  0  0  0  1  0  0  0  0  0  0
  191.6540  176.6340  146.2500 C   0  0  0  0  0  2  0  0  0  0  0  0
  2  1  2  0  0  0  0
  3  2  1  0  0  0  0
  4  1  1  0  0  0  0
  4 21  1  0  0  0  0
  5  3  2  0  0  0  0
  5  6  1  0  0  0  0
  6  4  2  0  0  0  0
  7 12  1  0  0  0  0
  7 11  1  0  0  0  0
  8 13  2  0  0  0  0
  8  9  1  0  0  0  0
  9  7  2  0  0  0  0
 10 14  1  0  0  0  0
 10 12  2  0  0  0  0
 12  5  1  0  0  0  0
 13 10  1  0  0  0  0
 15 14  1  0  0  0  0
 16 15  1  0  0  0  0
 16 17  1  1  0  0  0
 18 19  1  0  0  0  0
 18 16  1  0  0  0  0
 21 20  2  0  0  0  0
 21 22  1  0  0  0  0
 22 24  1  0  0  0  0
 23 26  1  0  0  0  0
 24 23  1  0  0  0  0
 24 25  2  0  0  0  0
 26 27  1  0  0  0  0
 29 28  1  0  0  0  0
 29 27  1  0  0  0  0
M  END
>  <MODEL>
9

>  <REMARK>
 VINA RESULT:      -7.1      3.263      8.899
  Name = 
  11 active torsions:
  status: ('A' for Active; 'I' for Inactive)
    1  A    between atoms: C_3  and  C_19
    2  A    between atoms: C_5  and  O_6
    3  A    between atoms: C_5  and  C_9
    4  A    between atoms: O_6  and  C_14
    5  A    between atoms: C_9  and  C_25
    6  A    between atoms: C_11  and  C_18
    7  A    between atoms: C_11  and  C_24
    8  A    between atoms: C_13  and  N_17
    9  A    between atoms: C_13  and  C_19
   10  A    between atoms: C_15  and  C_24
   11  A    between atoms: C_20  and  C_22
                            x       y       z     vdW  Elec       q    Type
                         _______ _______ _______ _____ _____    ______ ____

>  <TORSDO>
F 11

$$$$
