=
 OpenBabel10232408573D

 56 64  0  0  1  0  0  0  0  0999 V2000
  184.6550  179.3840  141.4830 C   0  0  1  0  0  3  0  0  0  0  0  0
  188.3850  177.8410  137.3960 C   0  0  2  0  0  3  0  0  0  0  0  0
  188.1700  177.9390  142.6700 C   0  0  1  0  0  3  0  0  0  0  0  0
  188.8950  177.2580  140.5720 C   0  0  2  0  0  3  0  0  0  0  0  0
  189.1970  178.0710  141.6900 O   0  0  0  0  0  0  0  0  0  0  0  0
  189.9380  175.5550  138.6080 S   0  0  0  0  0  0  0  0  0  0  0  0
  190.1800  176.9110  139.8150 C   0  0  0  0  0  2  0  0  0  0  0  0
  185.5630  178.9590  143.0230 S   0  0  0  0  0  0  0  0  0  0  0  0
  187.6940  177.8490  139.7550 C   0  0  1  0  0  3  0  0  0  0  0  0
  186.8070  178.6520  140.7030 C   0  0  2  0  0  3  0  0  0  0  0  0
  186.7540  177.9970  142.0570 C   0  0  1  0  0  3  0  0  0  0  0  0
  190.4000  176.5200  137.0890 C   0  0  1  0  0  3  0  0  0  0  0  0
  189.8870  177.9520  137.2300 C   0  0  1  0  0  3  0  0  0  0  0  0
  188.9590  178.4930  136.1610 C   0  0  0  0  0  2  0  0  0  0  0  0
  185.3730  178.7990  140.2720 C   0  0  0  0  0  2  0  0  0  0  0  0
  188.0750  178.7390  138.5680 C   0  0  0  0  0  2  0  0  0  0  0  0
  186.5070  175.9030  144.7460 O   0  0  0  0  0  0  0  0  0  0  0  0
  190.1660  177.2220  145.2860 N   0  0  0  0  0  0  0  0  0  0  0  0
  187.6860  177.6190  145.8460 C   0  0  0  0  0  2  0  0  0  0  0  0
  189.1470  177.7310  146.1790 C   0  0  0  0  0  0  0  0  0  0  0  0
  190.6860  175.9480  143.2930 C   0  0  0  0  0  2  0  0  0  0  0  0
  188.3770  176.6790  143.5350 C   0  0  2  0  0  3  0  0  0  0  0  0
  189.4730  178.3890  147.2840 C   0  0  0  0  0  2  0  0  0  0  0  0
  187.4570  176.6690  144.7170 C   0  0  0  0  0  0  0  0  0  0  0  0
  189.7900  176.5920  144.0370 C   0  0  0  0  0  0  0  0  0  0  0  0
  191.5740  177.2630  145.6890 C   0  0  0  0  0  2  0  0  0  0  0  0
  191.8580  176.1710  146.7070 C   0  0  0  0  0  1  0  0  0  0  0  0
  191.9310  176.5370  136.8900 C   0  0  1  0  0  3  0  0  0  0  0  0
  194.0530  175.3380  137.0570 C   0  0  2  0  0  3  0  0  0  0  0  0
  192.7570  175.6310  137.8350 C   0  0  2  0  0  3  0  0  0  0  0  0
  193.6280  175.5330  135.6530 C   0  0  0  0  0  0  0  0  0  0  0  0
  192.0670  174.4360  138.0810 O   0  0  0  0  0  1  0  0  0  0  0  0
  192.3790  176.1920  135.5430 N   0  0  0  0  0  0  0  0  0  0  0  0
  194.3030  175.1600  134.6580 O   0  0  0  0  0  0  0  0  0  0  0  0
  190.7660  174.8050  134.3480 C   0  0  0  0  0  1  0  0  0  0  0  0
  191.5430  176.1090  134.3470 C   0  0  0  0  0  2  0  0  0  0  0  0
  194.4970  174.0280  137.2680 O   0  0  0  0  0  0  0  0  0  0  0  0
  195.8030  175.0000  139.3130 O   0  0  0  0  0  1  0  0  0  0  0  0
  197.1120  174.9490  137.0550 O   0  0  0  0  0  0  0  0  0  0  0  0
  196.5680  172.6430  138.4800 O   0  0  0  0  0  1  0  0  0  0  0  0
  195.9900  174.1780  138.0600 P   0  0  0  0  0  0  0  0  0  0  0  0
  183.1910  178.9600  141.5420 C   0  0  0  0  0  2  0  0  0  0  0  0
  182.5730  178.8200  140.1580 C   0  0  0  0  0  2  0  0  0  0  0  0
  182.3250  177.4470  139.8880 O   0  0  0  0  0  0  0  0  0  0  0  0
  181.9930  174.9090  137.1090 N   0  0  1  0  0  0  0  0  0  0  0  0
  184.9440  176.3390  137.5700 C   0  0  0  0  0  1  0  0  0  0  0  0
  182.2120  176.9510  138.5890 C   0  0  0  0  0  0  0  0  0  0  0  0
  181.2380  175.8250  136.2350 C   0  0  0  0  0  2  0  0  0  0  0  0
  183.3750  174.7990  136.6320 C   0  0  2  0  0  3  0  0  0  0  0  0
  181.8580  177.7320  137.6120 N   0  0  0  0  0  0  0  0  0  0  0  0
  182.5250  175.4860  138.3480 C   0  0  2  0  0  3  0  0  0  0  0  0
  184.2130  173.7990  137.4330 C   0  0  0  0  0  0  0  0  0  0  0  0
  181.7850  177.2500  136.2440 C   0  0  2  0  0  3  0  0  0  0  0  0
  183.9440  175.2360  137.8820 C   0  0  2  0  0  0  0  0  0  0  0  0
  180.9630  178.0780  135.5040 F   0  0  0  0  0  0  0  0  0  0  0  0
  184.7030  172.6930  137.5980 O   0  0  0  0  0  0  0  0  0  0  0  0
  1 42  1  1  0  0  0
  1  8  1  0  0  0  0
  2 14  1  6  0  0  0
  2 16  1  0  0  0  0
  3  5  1  6  0  0  0
  3 22  1  0  0  0  0
  4  7  1  6  0  0  0
  4  5  1  0  0  0  0
  6  7  1  0  0  0  0
  9 16  1  6  0  0  0
  9  4  1  0  0  0  0
  9 10  1  0  0  0  0
 10 15  1  6  0  0  0
 10 11  1  0  0  0  0
 11  3  1  0  0  0  0
 11  8  1  1  0  0  0
 12 13  1  0  0  0  0
 12  6  1  1  0  0  0
 13 14  1  6  0  0  0
 13  2  1  0  0  0  0
 15  1  1  0  0  0  0
 18 26  1  0  0  0  0
 18 20  1  0  0  0  0
 19 20  1  0  0  0  0
 20 23  2  0  0  0  0
 21 25  2  0  0  0  0
 22 25  1  1  0  0  0
 22 24  1  0  0  0  0
 24 17  2  0  0  0  0
 24 19  1  0  0  0  0
 25 18  1  0  0  0  0
 26 27  1  0  0  0  0
 28 33  1  6  0  0  0
 28 12  1  0  0  0  0
 28 30  1  0  0  0  0
 29 37  1  6  0  0  0
 29 30  1  0  0  0  0
 30 32  1  6  0  0  0
 31 29  1  0  0  0  0
 33 31  1  0  0  0  0
 34 31  2  0  0  0  0
 36 35  1  0  0  0  0
 36 33  1  0  0  0  0
 37 41  1  0  0  0  0
 39 41  2  0  0  0  0
 41 40  1  0  0  0  0
 41 38  1  0  0  0  0
 43 42  1  0  0  0  0
 44 43  1  0  0  0  0
 45 48  1  6  0  0  0
 45 51  1  0  0  0  0
 47 44  1  0  0  0  0
 48 53  1  0  0  0  0
 49 45  1  0  0  0  0
 49 52  1  1  0  0  0
 49 54  1  0  0  0  0
 50 47  2  0  0  0  0
 51 47  1  6  0  0  0
 52 56  2  0  0  0  0
 52 54  1  0  0  0  0
 53 55  1  6  0  0  0
 53 50  1  0  0  0  0
 54 46  1  1  0  0  0
 54 51  1  0  0  0  0
M  END
>  <MODEL>
1

>  <REMARK>
 VINA RESULT:      -6.7      0.000      0.000
  Name = 
  10 active torsions:
  status: ('A' for Active; 'I' for Inactive)
    1  A    between atoms: C_1  and  C_54
    2  A    between atoms: C_4  and  C_44
    3  A    between atoms: C_5  and  C_34
    4  A    between atoms: N_11  and  C_19
    5  A    between atoms: C_13  and  O_23
    6  A    between atoms: C_17  and  N_55
    7  A    between atoms: C_18  and  O_25
    8  A    between atoms: O_23  and  C_40
    9  A    between atoms: O_25  and  P_41
   10  A    between atoms: C_40  and  C_54
                            x       y       z     vdW  Elec       q    Type
                         _______ _______ _______ _____ _____    ______ ____

>  <TORSDO>
F 10

$$$$
=
 OpenBabel10232408573D

 56 64  0  0  1  0  0  0  0  0999 V2000
  192.7980  175.5170  136.0830 C   0  0  1  0  0  3  0  0  0  0  0  0
  187.1550  176.2360  135.2890 C   0  0  2  0  0  3  0  0  0  0  0  0
  190.5920  176.3350  139.2950 C   0  0  1  0  0  3  0  0  0  0  0  0
  188.6290  176.8110  138.1490 C   0  0  2  0  0  3  0  0  0  0  0  0
  189.2170  175.9900  139.1400 O   0  0  0  0  0  0  0  0  0  0  0  0
  186.3400  178.2370  137.3950 S   0  0  0  0  0  0  0  0  0  0  0  0
  187.1160  176.8970  138.3710 C   0  0  0  0  0  2  0  0  0  0  0  0
  192.9810  175.8160  137.8870 S   0  0  0  0  0  0  0  0  0  0  0  0
  189.1440  176.4240  136.7200 C   0  0  1  0  0  3  0  0  0  0  0  0
  190.5420  175.8230  136.8510 C   0  0  2  0  0  3  0  0  0  0  0  0
  191.3130  176.5170  137.9420 C   0  0  1  0  0  3  0  0  0  0  0  0
  185.2020  177.1600  136.3970 C   0  0  1  0  0  3  0  0  0  0  0  0
  185.9140  175.8490  136.0670 C   0  0  1  0  0  3  0  0  0  0  0  0
  186.0550  175.4550  134.6110 C   0  0  0  0  0  2  0  0  0  0  0  0
  191.4040  175.9260  135.6220 C   0  0  0  0  0  2  0  0  0  0  0  0
  188.2620  175.4440  135.9400 C   0  0  0  0  0  2  0  0  0  0  0  0
  192.9530  178.4020  140.4650 O   0  0  0  0  0  0  0  0  0  0  0  0
  190.0020  176.8870  142.5640 N   0  0  0  0  0  0  0  0  0  0  0  0
  192.4730  176.6030  141.9050 C   0  0  0  0  0  2  0  0  0  0  0  0
  191.3340  176.4090  142.8650 C   0  0  0  0  0  0  0  0  0  0  0  0
  188.5800  178.1810  141.0910 C   0  0  0  0  0  2  0  0  0  0  0  0
  190.7630  177.5620  140.2130 C   0  0  2  0  0  3  0  0  0  0  0  0
  191.5760  175.7080  143.9660 C   0  0  0  0  0  2  0  0  0  0  0  0
  192.1240  177.5900  140.8400 C   0  0  0  0  0  0  0  0  0  0  0  0
  189.7390  177.5640  141.3120 C   0  0  0  0  0  0  0  0  0  0  0  0
  188.9400  176.7640  143.5660 C   0  0  0  0  0  2  0  0  0  0  0  0
  189.0900  177.8480  144.6210 C   0  0  0  0  0  1  0  0  0  0  0  0
  183.9020  176.8590  137.1760 C   0  0  1  0  0  3  0  0  0  0  0  0
  182.1350  177.6830  138.6470 C   0  0  2  0  0  3  0  0  0  0  0  0
  183.6620  177.6900  138.4590 C   0  0  2  0  0  3  0  0  0  0  0  0
  181.6490  177.4390  137.2710 C   0  0  0  0  0  0  0  0  0  0  0  0
  184.1150  179.0040  138.2750 O   0  0  0  0  0  1  0  0  0  0  0  0
  182.6740  176.9990  136.3970 N   0  0  0  0  0  0  0  0  0  0  0  0
  180.4530  177.5980  136.9100 O   0  0  0  0  0  0  0  0  0  0  0  0
  182.0930  175.8090  134.3480 C   0  0  0  0  0  1  0  0  0  0  0  0
  182.5790  177.1180  134.9430 C   0  0  0  0  0  2  0  0  0  0  0  0
  181.6670  178.9090  139.1320 O   0  0  0  0  0  0  0  0  0  0  0  0
  180.2040  179.6890  141.1520 O   0  0  0  0  0  1  0  0  0  0  0  0
  182.4950  178.6020  141.7680 O   0  0  0  0  0  1  0  0  0  0  0  0
  180.3820  177.1060  140.7980 O   0  0  0  0  0  0  0  0  0  0  0  0
  181.1640  178.6060  140.7230 P   0  0  0  0  0  0  0  0  0  0  0  0
  193.8950  176.2010  135.2720 C   0  0  0  0  0  2  0  0  0  0  0  0
  195.1220  175.3170  135.0990 C   0  0  0  0  0  2  0  0  0  0  0  0
  196.1220  175.7100  136.0280 O   0  0  0  0  0  0  0  0  0  0  0  0
  198.1430  172.5410  136.4120 N   0  0  1  0  0  0  0  0  0  0  0  0
  195.4720  172.9290  138.3310 C   0  0  0  0  0  1  0  0  0  0  0  0
  197.0130  174.7980  136.5960 C   0  0  0  0  0  0  0  0  0  0  0  0
  199.2450  173.2170  137.1200 C   0  0  0  0  0  2  0  0  0  0  0  0
  197.3350  171.7800  137.3700 C   0  0  2  0  0  3  0  0  0  0  0  0
  197.8610  175.1810  137.5020 N   0  0  0  0  0  0  0  0  0  0  0  0
  196.9530  173.3540  136.1380 C   0  0  2  0  0  3  0  0  0  0  0  0
  196.2130  170.9750  136.7090 C   0  0  0  0  0  0  0  0  0  0  0  0
  198.7610  174.2400  138.1450 C   0  0  2  0  0  3  0  0  0  0  0  0
  196.1120  172.4660  137.0310 C   0  0  2  0  0  0  0  0  0  0  0  0
  199.8380  174.9190  138.6810 F   0  0  0  0  0  0  0  0  0  0  0  0
  195.7560  169.9380  136.2520 O   0  0  0  0  0  0  0  0  0  0  0  0
  1 42  1  6  0  0  0
  1  8  1  0  0  0  0
  2 14  1  6  0  0  0
  2 16  1  0  0  0  0
  2 13  1  0  0  0  0
  3  5  1  6  0  0  0
  3 22  1  0  0  0  0
  4  7  1  6  0  0  0
  4  5  1  0  0  0  0
  6  7  1  0  0  0  0
  9 16  1  1  0  0  0
  9 10  1  0  0  0  0
  9  4  1  0  0  0  0
 10 15  1  6  0  0  0
 10 11  1  0  0  0  0
 11  8  1  1  0  0  0
 11  3  1  0  0  0  0
 12 28  1  0  0  0  0
 12  6  1  1  0  0  0
 13 14  1  6  0  0  0
 13 12  1  0  0  0  0
 15  1  1  0  0  0  0
 17 24  2  0  0  0  0
 18 20  1  0  0  0  0
 18 26  1  0  0  0  0
 19 20  1  0  0  0  0
 20 23  2  0  0  0  0
 21 25  2  0  0  0  0
 22 24  1  1  0  0  0
 22 25  1  0  0  0  0
 24 19  1  0  0  0  0
 25 18  1  0  0  0  0
 26 27  1  0  0  0  0
 28 33  1  6  0  0  0
 28 30  1  0  0  0  0
 29 37  1  6  0  0  0
 30 32  1  6  0  0  0
 30 29  1  0  0  0  0
 31 29  1  0  0  0  0
 33 31  1  0  0  0  0
 34 31  2  0  0  0  0
 35 36  1  0  0  0  0
 36 33  1  0  0  0  0
 37 41  1  0  0  0  0
 41 40  2  0  0  0  0
 41 38  1  0  0  0  0
 41 39  1  0  0  0  0
 43 42  1  0  0  0  0
 43 44  1  0  0  0  0
 44 47  1  0  0  0  0
 45 48  1  1  0  0  0
 45 49  1  0  0  0  0
 47 50  2  0  0  0  0
 48 53  1  0  0  0  0
 49 52  1  6  0  0  0
 50 53  1  0  0  0  0
 51 45  1  0  0  0  0
 51 47  1  1  0  0  0
 51 54  1  0  0  0  0
 52 54  1  0  0  0  0
 53 55  1  6  0  0  0
 54 49  1  0  0  0  0
 54 46  1  1  0  0  0
 56 52  2  0  0  0  0
M  END
>  <MODEL>
2

>  <REMARK>
 VINA RESULT:      -6.0      4.350     10.635
  Name = 
  10 active torsions:
  status: ('A' for Active; 'I' for Inactive)
    1  A    between atoms: C_1  and  C_54
    2  A    between atoms: C_4  and  C_44
    3  A    between atoms: C_5  and  C_34
    4  A    between atoms: N_11  and  C_19
    5  A    between atoms: C_13  and  O_23
    6  A    between atoms: C_17  and  N_55
    7  A    between atoms: C_18  and  O_25
    8  A    between atoms: O_23  and  C_40
    9  A    between atoms: O_25  and  P_41
   10  A    between atoms: C_40  and  C_54
                            x       y       z     vdW  Elec       q    Type
                         _______ _______ _______ _____ _____    ______ ____

>  <TORSDO>
F 10

$$$$
=
 OpenBabel10232408573D

 56 64  0  0  1  0  0  0  0  0999 V2000
  194.0210  174.2400  135.6560 C   0  0  1  0  0  3  0  0  0  0  0  0
  188.3710  173.7000  134.7720 C   0  0  2  0  0  3  0  0  0  0  0  0
  191.5890  175.6870  138.4560 C   0  0  1  0  0  3  0  0  0  0  0  0
  189.6200  175.4230  137.2530 C   0  0  2  0  0  3  0  0  0  0  0  0
  190.2960  175.0860  138.4490 O   0  0  0  0  0  0  0  0  0  0  0  0
  187.1580  176.1170  136.1120 S   0  0  0  0  0  0  0  0  0  0  0  0
  188.1060  175.3220  137.4620 C   0  0  0  0  0  2  0  0  0  0  0  0
  194.0830  175.1420  137.2550 S   0  0  0  0  0  0  0  0  0  0  0  0
  190.2460  174.6790  136.0240 C   0  0  1  0  0  3  0  0  0  0  0  0
  191.7180  174.3990  136.3210 C   0  0  2  0  0  3  0  0  0  0  0  0
  192.3220  175.5320  137.1050 C   0  0  1  0  0  3  0  0  0  0  0  0
  186.2520  174.5960  135.5480 C   0  0  1  0  0  3  0  0  0  0  0  0
  187.1820  173.3890  135.6570 C   0  0  1  0  0  3  0  0  0  0  0  0
  187.4420  172.5660  134.4120 C   0  0  0  0  0  2  0  0  0  0  0  0
  192.5970  174.2350  135.1110 C   0  0  0  0  0  2  0  0  0  0  0  0
  189.5670  173.3650  135.6280 C   0  0  0  0  0  2  0  0  0  0  0  0
  193.5200  178.1100  139.7270 O   0  0  0  0  0  0  0  0  0  0  0  0
  189.8470  177.2960  140.8470 N   0  0  0  0  0  0  0  0  0  0  0  0
  192.3360  176.8920  141.3560 C   0  0  0  0  0  2  0  0  0  0  0  0
  190.9020  176.9960  141.7900 C   0  0  0  0  0  0  0  0  0  0  0  0
  189.2460  177.9610  138.5970 C   0  0  0  0  0  2  0  0  0  0  0  0
  191.5210  177.1580  138.9130 C   0  0  2  0  0  3  0  0  0  0  0  0
  190.6260  176.7190  143.0590 C   0  0  0  0  0  2  0  0  0  0  0  0
  192.5300  177.4460  139.9830 C   0  0  0  0  0  0  0  0  0  0  0  0
  190.1590  177.4980  139.4470 C   0  0  0  0  0  0  0  0  0  0  0  0
  188.4740  177.4830  141.3240 C   0  0  0  0  0  2  0  0  0  0  0  0
  188.2780  178.9130  141.8010 C   0  0  0  0  0  1  0  0  0  0  0  0
  184.9900  174.3550  136.4060 C   0  0  1  0  0  3  0  0  0  0  0  0
  182.9290  175.2600  137.3540 C   0  0  2  0  0  3  0  0  0  0  0  0
  184.4190  175.5860  137.1490 C   0  0  2  0  0  3  0  0  0  0  0  0
  182.6670  174.2900  136.2680 C   0  0  0  0  0  0  0  0  0  0  0  0
  184.5530  176.7340  136.3550 O   0  0  0  0  0  1  0  0  0  0  0  0
  183.8550  173.7880  135.6820 N   0  0  0  0  0  0  0  0  0  0  0  0
  181.5140  173.9400  135.9030 O   0  0  0  0  0  0  0  0  0  0  0  0
  183.8070  171.6800  134.4530 C   0  0  0  0  0  1  0  0  0  0  0  0
  183.8890  173.1920  134.3480 C   0  0  0  0  0  2  0  0  0  0  0  0
  182.1270  176.3980  137.2120 O   0  0  0  0  0  0  0  0  0  0  0  0
  181.2840  175.4990  139.5170 O   0  0  0  0  0  1  0  0  0  0  0  0
  180.2020  177.7330  138.7090 O   0  0  0  0  0  0  0  0  0  0  0  0
  182.8150  177.6150  139.6050 O   0  0  0  0  0  1  0  0  0  0  0  0
  181.5980  176.7780  138.7780 P   0  0  0  0  0  0  0  0  0  0  0  0
  195.0210  174.7920  134.6440 C   0  0  0  0  0  2  0  0  0  0  0  0
  195.8730  175.9120  135.2250 C   0  0  0  0  0  2  0  0  0  0  0  0
  197.2460  175.5650  135.1170 O   0  0  0  0  0  0  0  0  0  0  0  0
  199.8970  173.4770  136.8170 N   0  0  1  0  0  0  0  0  0  0  0  0
  196.8670  172.1820  136.4860 C   0  0  0  0  0  1  0  0  0  0  0  0
  197.9420  174.9410  136.1540 C   0  0  0  0  0  0  0  0  0  0  0  0
  199.8580  174.2700  138.0590 C   0  0  0  0  0  2  0  0  0  0  0  0
  199.1970  172.2060  137.0220 C   0  0  2  0  0  3  0  0  0  0  0  0
  197.7700  175.3190  137.3850 N   0  0  0  0  0  0  0  0  0  0  0  0
  198.8870  173.8080  135.8060 C   0  0  2  0  0  3  0  0  0  0  0  0
  199.2590  171.2790  135.8050 C   0  0  0  0  0  0  0  0  0  0  0  0
  198.4420  174.6500  138.4850 C   0  0  2  0  0  3  0  0  0  0  0  0
  198.2660  172.4330  135.9440 C   0  0  2  0  0  0  0  0  0  0  0  0
  198.4860  175.4890  139.5810 F   0  0  0  0  0  0  0  0  0  0  0  0
  199.7450  170.3450  135.1860 O   0  0  0  0  0  0  0  0  0  0  0  0
  1 42  1  6  0  0  0
  1  8  1  0  0  0  0
  2 14  1  6  0  0  0
  2 16  1  0  0  0  0
  2 13  1  0  0  0  0
  3  5  1  6  0  0  0
  3 22  1  0  0  0  0
  4  7  1  1  0  0  0
  4  5  1  0  0  0  0
  6  7  1  0  0  0  0
  9 16  1  1  0  0  0
  9 10  1  0  0  0  0
  9  4  1  0  0  0  0
 10 15  1  6  0  0  0
 10 11  1  0  0  0  0
 11  8  1  1  0  0  0
 11  3  1  0  0  0  0
 12 13  1  0  0  0  0
 12  6  1  1  0  0  0
 12 28  1  0  0  0  0
 13 14  1  6  0  0  0
 15  1  1  0  0  0  0
 17 24  2  0  0  0  0
 18 26  1  0  0  0  0
 18 20  1  0  0  0  0
 19 20  1  0  0  0  0
 20 23  2  0  0  0  0
 21 25  2  0  0  0  0
 22 25  1  1  0  0  0
 22 24  1  0  0  0  0
 24 19  1  0  0  0  0
 25 18  1  0  0  0  0
 26 27  1  0  0  0  0
 28 33  1  6  0  0  0
 28 30  1  0  0  0  0
 29 37  1  6  0  0  0
 30 32  1  6  0  0  0
 30 29  1  0  0  0  0
 31 29  1  0  0  0  0
 33 31  1  0  0  0  0
 34 31  2  0  0  0  0
 36 35  1  0  0  0  0
 36 33  1  0  0  0  0
 37 41  1  0  0  0  0
 39 41  2  0  0  0  0
 41 38  1  0  0  0  0
 41 40  1  0  0  0  0
 42 43  1  0  0  0  0
 44 43  1  0  0  0  0
 44 47  1  0  0  0  0
 45 49  1  0  0  0  0
 45 48  1  1  0  0  0
 47 50  2  0  0  0  0
 48 53  1  0  0  0  0
 49 52  1  6  0  0  0
 50 53  1  0  0  0  0
 51 54  1  0  0  0  0
 51 47  1  1  0  0  0
 51 45  1  0  0  0  0
 52 54  1  0  0  0  0
 53 55  1  1  0  0  0
 54 46  1  1  0  0  0
 54 49  1  0  0  0  0
 56 52  2  0  0  0  0
M  END
>  <MODEL>
3

>  <REMARK>
 VINA RESULT:      -5.7      4.561     11.121
  Name = 
  10 active torsions:
  status: ('A' for Active; 'I' for Inactive)
    1  A    between atoms: C_1  and  C_54
    2  A    between atoms: C_4  and  C_44
    3  A    between atoms: C_5  and  C_34
    4  A    between atoms: N_11  and  C_19
    5  A    between atoms: C_13  and  O_23
    6  A    between atoms: C_17  and  N_55
    7  A    between atoms: C_18  and  O_25
    8  A    between atoms: O_23  and  C_40
    9  A    between atoms: O_25  and  P_41
   10  A    between atoms: C_40  and  C_54
                            x       y       z     vdW  Elec       q    Type
                         _______ _______ _______ _____ _____    ______ ____

>  <TORSDO>
F 10

$$$$
=
 OpenBabel10232408573D

 56 64  0  0  1  0  0  0  0  0999 V2000
  183.6540  179.3040  143.0900 C   0  0  1  0  0  3  0  0  0  0  0  0
  186.7530  178.1140  138.4030 C   0  0  2  0  0  3  0  0  0  0  0  0
  187.4140  178.1170  143.6410 C   0  0  1  0  0  3  0  0  0  0  0  0
  187.8270  177.5240  141.4330 C   0  0  2  0  0  3  0  0  0  0  0  0
  188.2510  178.3410  142.5080 O   0  0  0  0  0  0  0  0  0  0  0  0
  188.6500  175.9360  139.2780 S   0  0  0  0  0  0  0  0  0  0  0  0
  188.9900  177.2890  140.4650 C   0  0  0  0  0  2  0  0  0  0  0  0
  184.8360  178.9270  144.4470 S   0  0  0  0  0  0  0  0  0  0  0  0
  186.4670  178.0330  140.8430 C   0  0  1  0  0  3  0  0  0  0  0  0
  185.6940  178.7510  141.9460 C   0  0  2  0  0  3  0  0  0  0  0  0
  185.9160  178.0740  143.2710 C   0  0  1  0  0  3  0  0  0  0  0  0
  188.7800  176.9560  137.7310 C   0  0  1  0  0  3  0  0  0  0  0  0
  188.1940  178.3430  137.9940 C   0  0  1  0  0  3  0  0  0  0  0  0
  187.0640  178.8260  137.1080 C   0  0  0  0  0  2  0  0  0  0  0  0
  184.2010  178.7940  141.7620 C   0  0  0  0  0  2  0  0  0  0  0  0
  186.5770  178.9680  139.6340 C   0  0  0  0  0  2  0  0  0  0  0  0
  186.2800  175.9360  145.9160 O   0  0  0  0  0  0  0  0  0  0  0  0
  189.8760  177.5120  145.8580 N   0  0  0  0  0  0  0  0  0  0  0  0
  187.5080  177.7180  146.8430 C   0  0  0  0  0  2  0  0  0  0  0  0
  188.9930  177.9320  146.9240 C   0  0  0  0  0  0  0  0  0  0  0  0
  190.1330  176.3060  143.7720 C   0  0  0  0  0  2  0  0  0  0  0  0
  187.8550  176.8630  144.4230 C   0  0  2  0  0  3  0  0  0  0  0  0
  189.4570  178.5980  147.9740 C   0  0  0  0  0  2  0  0  0  0  0  0
  187.1550  176.7690  145.7450 C   0  0  0  0  0  0  0  0  0  0  0  0
  189.3360  176.8730  144.6750 C   0  0  0  0  0  0  0  0  0  0  0  0
  191.3260  177.6510  146.0150 C   0  0  0  0  0  2  0  0  0  0  0  0
  191.8970  176.4180  146.6970 C   0  0  0  0  0  1  0  0  0  0  0  0
  190.2510  177.0950  137.2820 C   0  0  1  0  0  3  0  0  0  0  0  0
  192.4060  176.0120  136.8940 C   0  0  2  0  0  3  0  0  0  0  0  0
  191.2580  176.1050  137.9160 C   0  0  2  0  0  3  0  0  0  0  0  0
  191.7350  176.3930  135.6320 C   0  0  0  0  0  0  0  0  0  0  0  0
  190.6610  174.8480  138.0800 O   0  0  0  0  0  1  0  0  0  0  0  0
  190.4660  176.9850  135.8410 N   0  0  0  0  0  0  0  0  0  0  0  0
  192.2360  176.2160  134.4900 O   0  0  0  0  0  0  0  0  0  0  0  0
  188.7620  175.6830  134.6780 C   0  0  0  0  0  1  0  0  0  0  0  0
  189.4350  177.0370  134.8050 C   0  0  0  0  0  2  0  0  0  0  0  0
  192.9220  174.7140  136.8140 O   0  0  0  0  0  0  0  0  0  0  0  0
  195.1220  176.0010  136.2390 O   0  0  0  0  0  0  0  0  0  0  0  0
  195.3880  173.4400  136.6640 O   0  0  0  0  0  1  0  0  0  0  0  0
  194.8710  175.2150  138.7190 O   0  0  0  0  0  1  0  0  0  0  0  0
  194.5890  174.8710  137.0860 P   0  0  0  0  0  0  0  0  0  0  0  0
  182.2550  178.7680  143.3790 C   0  0  0  0  0  2  0  0  0  0  0  0
  181.1720  179.5670  142.6680 C   0  0  0  0  0  2  0  0  0  0  0  0
  180.4420  178.7080  141.8040 O   0  0  0  0  0  0  0  0  0  0  0  0
  179.9820  177.6900  138.1950 N   0  0  1  0  0  0  0  0  0  0  0  0
  182.6310  176.5390  139.8130 C   0  0  0  0  0  1  0  0  0  0  0  0
  180.6530  178.6810  140.4250 C   0  0  0  0  0  0  0  0  0  0  0  0
  180.3750  179.0120  137.6740 C   0  0  0  0  0  2  0  0  0  0  0  0
  181.0800  176.7380  138.0050 C   0  0  2  0  0  3  0  0  0  0  0  0
  181.2900  179.6480  139.8360 N   0  0  0  0  0  0  0  0  0  0  0  0
  180.1320  177.4930  139.6400 C   0  0  2  0  0  3  0  0  0  0  0  0
  180.7270  175.3140  138.4420 C   0  0  0  0  0  0  0  0  0  0  0  0
  181.5680  179.6170  138.4110 C   0  0  2  0  0  3  0  0  0  0  0  0
  181.1700  176.4150  139.4080 C   0  0  2  0  0  0  0  0  0  0  0  0
  181.8060  180.8990  137.9550 F   0  0  0  0  0  0  0  0  0  0  0  0
  180.3550  174.1760  138.2050 O   0  0  0  0  0  0  0  0  0  0  0  0
  1 42  1  1  0  0  0
  1  8  1  0  0  0  0
  2 14  1  6  0  0  0
  2 16  1  0  0  0  0
  3  5  1  6  0  0  0
  3 22  1  0  0  0  0
  4  7  1  6  0  0  0
  4  5  1  0  0  0  0
  6  7  1  0  0  0  0
  9 16  1  6  0  0  0
  9  4  1  0  0  0  0
  9 10  1  0  0  0  0
 10 15  1  6  0  0  0
 10 11  1  0  0  0  0
 11  3  1  0  0  0  0
 11  8  1  1  0  0  0
 12 13  1  0  0  0  0
 12  6  1  1  0  0  0
 13 14  1  6  0  0  0
 13  2  1  0  0  0  0
 15  1  1  0  0  0  0
 18 26  1  0  0  0  0
 18 20  1  0  0  0  0
 19 20  1  0  0  0  0
 20 23  2  0  0  0  0
 21 25  2  0  0  0  0
 22 25  1  1  0  0  0
 22 24  1  0  0  0  0
 24 17  2  0  0  0  0
 24 19  1  0  0  0  0
 25 18  1  0  0  0  0
 26 27  1  0  0  0  0
 28 33  1  6  0  0  0
 28 12  1  0  0  0  0
 28 30  1  0  0  0  0
 29 37  1  6  0  0  0
 29 30  1  0  0  0  0
 30 32  1  6  0  0  0
 31 33  1  0  0  0  0
 31 29  1  0  0  0  0
 34 31  2  0  0  0  0
 35 36  1  0  0  0  0
 36 33  1  0  0  0  0
 37 41  1  0  0  0  0
 38 41  2  0  0  0  0
 39 41  1  0  0  0  0
 41 40  1  0  0  0  0
 43 42  1  0  0  0  0
 44 43  1  0  0  0  0
 45 48  1  1  0  0  0
 45 51  1  0  0  0  0
 47 44  1  0  0  0  0
 48 53  1  0  0  0  0
 49 45  1  0  0  0  0
 49 52  1  6  0  0  0
 49 54  1  0  0  0  0
 50 47  2  0  0  0  0
 51 47  1  1  0  0  0
 52 54  1  0  0  0  0
 53 55  1  6  0  0  0
 53 50  1  0  0  0  0
 54 51  1  0  0  0  0
 54 46  1  1  0  0  0
 56 52  2  0  0  0  0
M  END
>  <MODEL>
4

>  <REMARK>
 VINA RESULT:      -5.4      1.852      2.288
  Name = 
  10 active torsions:
  status: ('A' for Active; 'I' for Inactive)
    1  A    between atoms: C_1  and  C_54
    2  A    between atoms: C_4  and  C_44
    3  A    between atoms: C_5  and  C_34
    4  A    between atoms: N_11  and  C_19
    5  A    between atoms: C_13  and  O_23
    6  A    between atoms: C_17  and  N_55
    7  A    between atoms: C_18  and  O_25
    8  A    between atoms: O_23  and  C_40
    9  A    between atoms: O_25  and  P_41
   10  A    between atoms: C_40  and  C_54
                            x       y       z     vdW  Elec       q    Type
                         _______ _______ _______ _____ _____    ______ ____

>  <TORSDO>
F 10

$$$$
=
 OpenBabel10232408573D

 56 64  0  0  1  0  0  0  0  0999 V2000
  193.7120  176.3090  137.6120 C   0  0  1  0  0  3  0  0  0  0  0  0
  191.6110  177.2420  142.8760 C   0  0  2  0  0  3  0  0  0  0  0  0
  189.8110  177.0440  137.9170 C   0  0  1  0  0  3  0  0  0  0  0  0
  189.7070  176.9490  140.2350 C   0  0  2  0  0  3  0  0  0  0  0  0
  189.4590  177.7570  139.1010 O   0  0  0  0  0  0  0  0  0  0  0  0
  188.7880  176.1810  142.7670 S   0  0  0  0  0  0  0  0  0  0  0  0
  188.8280  177.4030  141.4040 C   0  0  0  0  0  2  0  0  0  0  0  0
  192.2060  176.4190  136.5640 S   0  0  0  0  0  0  0  0  0  0  0  0
  191.2460  176.7910  140.4870 C   0  0  1  0  0  3  0  0  0  0  0  0
  191.9770  176.9310  139.1540 C   0  0  2  0  0  3  0  0  0  0  0  0
  191.1670  176.3180  138.0430 C   0  0  1  0  0  3  0  0  0  0  0  0
  189.5020  177.2840  144.0800 C   0  0  1  0  0  3  0  0  0  0  0  0
  190.5720  178.1800  143.4550 C   0  0  1  0  0  3  0  0  0  0  0  0
  191.9710  178.1400  144.0350 C   0  0  0  0  0  2  0  0  0  0  0  0
  193.3230  176.2630  139.0850 C   0  0  0  0  0  2  0  0  0  0  0  0
  191.8590  177.7770  141.4870 C   0  0  0  0  0  2  0  0  0  0  0  0
  189.1800  174.5800  135.7390 O   0  0  0  0  0  0  0  0  0  0  0  0
  186.7390  177.5250  136.6220 N   0  0  0  0  0  0  0  0  0  0  0  0
  188.5350  176.7090  134.9700 C   0  0  0  0  0  2  0  0  0  0  0  0
  187.3200  177.5290  135.2970 C   0  0  0  0  0  0  0  0  0  0  0  0
  186.7140  176.5490  138.8390 C   0  0  0  0  0  2  0  0  0  0  0  0
  188.6800  176.0900  137.4800 C   0  0  2  0  0  3  0  0  0  0  0  0
  186.8460  178.3240  134.3460 C   0  0  0  0  0  2  0  0  0  0  0  0
  188.8160  175.7040  136.0390 C   0  0  0  0  0  0  0  0  0  0  0  0
  187.3320  176.7230  137.6730 C   0  0  0  0  0  0  0  0  0  0  0  0
  185.4990  178.2620  136.8770 C   0  0  0  0  0  2  0  0  0  0  0  0
  184.2990  177.3560  136.6560 C   0  0  0  0  0  1  0  0  0  0  0  0
  188.4050  178.1620  144.7210 C   0  0  1  0  0  3  0  0  0  0  0  0
  186.0240  178.5310  145.1250 C   0  0  2  0  0  3  0  0  0  0  0  0
  187.0270  178.1620  144.0170 C   0  0  2  0  0  3  0  0  0  0  0  0
  186.7420  178.1150  146.3500 C   0  0  0  0  0  0  0  0  0  0  0  0
  186.7400  176.8840  143.5180 O   0  0  0  0  0  1  0  0  0  0  0  0
  188.1170  177.8590  146.1210 N   0  0  0  0  0  0  0  0  0  0  0  0
  186.1970  178.0040  147.4800 O   0  0  0  0  0  0  0  0  0  0  0  0
  189.5570  177.8940  148.0900 C   0  0  0  0  0  1  0  0  0  0  0  0
  188.9270  177.0310  147.0120 C   0  0  0  0  0  2  0  0  0  0  0  0
  184.8210  177.8290  144.9880 O   0  0  0  0  0  0  0  0  0  0  0  0
  183.9120  178.2940  142.5820 O   0  0  0  0  0  0  0  0  0  0  0  0
  184.3710  180.4050  144.0470 O   0  0  0  0  0  1  0  0  0  0  0  0
  182.2360  178.7200  144.5420 O   0  0  0  0  0  1  0  0  0  0  0  0
  183.8390  178.7990  144.0030 P   0  0  0  0  0  0  0  0  0  0  0  0
  194.6040  175.1370  137.2160 C   0  0  0  0  0  2  0  0  0  0  0  0
  194.2670  173.8680  137.9860 C   0  0  0  0  0  2  0  0  0  0  0  0
  193.8960  172.8450  137.0720 O   0  0  0  0  0  0  0  0  0  0  0  0
  196.5970  170.2870  137.7290 N   0  0  1  0  0  0  0  0  0  0  0  0
  196.8430  172.1470  135.0010 C   0  0  0  0  0  1  0  0  0  0  0  0
  194.6290  171.6660  136.9350 C   0  0  0  0  0  0  0  0  0  0  0  0
  195.7390  169.1470  137.3590 C   0  0  0  0  0  2  0  0  0  0  0  0
  197.5460  170.5620  136.6460 C   0  0  2  0  0  3  0  0  0  0  0  0
  194.1180  170.6370  136.3270 N   0  0  0  0  0  0  0  0  0  0  0  0
  196.0350  171.6220  137.5020 C   0  0  2  0  0  3  0  0  0  0  0  0
  198.5360  171.6800  136.9800 C   0  0  0  0  0  0  0  0  0  0  0  0
  194.8800  169.4180  136.1260 C   0  0  2  0  0  3  0  0  0  0  0  0
  197.1120  171.9270  136.4820 C   0  0  2  0  0  0  0  0  0  0  0  0
  194.0170  168.3610  135.9090 F   0  0  0  0  0  0  0  0  0  0  0  0
  199.6250  172.0750  137.3690 O   0  0  0  0  0  0  0  0  0  0  0  0
  1 42  1  6  0  0  0
  1 15  1  0  0  0  0
  2 16  1  6  0  0  0
  2 13  1  0  0  0  0
  2 14  1  0  0  0  0
  3 11  1  0  0  0  0
  3  5  1  1  0  0  0
  4  9  1  0  0  0  0
  4  7  1  1  0  0  0
  5  4  1  0  0  0  0
  7  6  1  0  0  0  0
  8  1  1  0  0  0  0
  9 16  1  1  0  0  0
 10 15  1  1  0  0  0
 10  9  1  0  0  0  0
 11  8  1  6  0  0  0
 11 10  1  0  0  0  0
 12  6  1  6  0  0  0
 12 28  1  0  0  0  0
 13 14  1  1  0  0  0
 13 12  1  0  0  0  0
 17 24  2  0  0  0  0
 18 26  1  0  0  0  0
 18 25  1  0  0  0  0
 19 20  1  0  0  0  0
 19 24  1  0  0  0  0
 20 18  1  0  0  0  0
 22 24  1  6  0  0  0
 22 25  1  0  0  0  0
 22  3  1  0  0  0  0
 23 20  2  0  0  0  0
 25 21  2  0  0  0  0
 27 26  1  0  0  0  0
 28 33  1  1  0  0  0
 29 37  1  6  0  0  0
 29 31  1  0  0  0  0
 30 32  1  1  0  0  0
 30 28  1  0  0  0  0
 30 29  1  0  0  0  0
 31 34  2  0  0  0  0
 33 31  1  0  0  0  0
 33 36  1  0  0  0  0
 36 35  1  0  0  0  0
 38 41  2  0  0  0  0
 41 39  1  0  0  0  0
 41 40  1  0  0  0  0
 41 37  1  0  0  0  0
 42 43  1  0  0  0  0
 44 43  1  0  0  0  0
 45 48  1  6  0  0  0
 47 44  1  0  0  0  0
 49 52  1  1  0  0  0
 49 45  1  0  0  0  0
 50 47  2  0  0  0  0
 51 47  1  6  0  0  0
 51 45  1  0  0  0  0
 52 56  2  0  0  0  0
 53 55  1  1  0  0  0
 53 50  1  0  0  0  0
 53 48  1  0  0  0  0
 54 46  1  6  0  0  0
 54 49  1  0  0  0  0
 54 52  1  0  0  0  0
 54 51  1  0  0  0  0
M  END
>  <MODEL>
5

>  <REMARK>
 VINA RESULT:      -5.3      4.305     11.255
  Name = 
  10 active torsions:
  status: ('A' for Active; 'I' for Inactive)
    1  A    between atoms: C_1  and  C_54
    2  A    between atoms: C_4  and  C_44
    3  A    between atoms: C_5  and  C_34
    4  A    between atoms: N_11  and  C_19
    5  A    between atoms: C_13  and  O_23
    6  A    between atoms: C_17  and  N_55
    7  A    between atoms: C_18  and  O_25
    8  A    between atoms: O_23  and  C_40
    9  A    between atoms: O_25  and  P_41
   10  A    between atoms: C_40  and  C_54
                            x       y       z     vdW  Elec       q    Type
                         _______ _______ _______ _____ _____    ______ ____

>  <TORSDO>
F 10

$$$$
=
 OpenBabel10232408573D

 56 64  0  0  1  0  0  0  0  0999 V2000
  190.6260  176.4020  135.2840 C   0  0  1  0  0  3  0  0  0  0  0  0
  191.5320  177.0320  140.9210 C   0  0  2  0  0  3  0  0  0  0  0  0
  187.4690  177.2470  137.5570 C   0  0  1  0  0  3  0  0  0  0  0  0
  188.5420  176.9920  139.6010 C   0  0  2  0  0  3  0  0  0  0  0  0
  187.8100  177.8860  138.7850 O   0  0  0  0  0  0  0  0  0  0  0  0
  188.9770  176.0790  142.2130 S   0  0  0  0  0  0  0  0  0  0  0  0
  188.4040  177.3920  141.0720 C   0  0  0  0  0  2  0  0  0  0  0  0
  188.8080  176.6370  135.1510 S   0  0  0  0  0  0  0  0  0  0  0  0
  189.9840  176.7630  139.0300 C   0  0  1  0  0  3  0  0  0  0  0  0
  189.9500  176.9720  137.5180 C   0  0  2  0  0  3  0  0  0  0  0  0
  188.6530  176.4670  136.9460 C   0  0  1  0  0  3  0  0  0  0  0  0
  190.3260  177.0620  143.0290 C   0  0  1  0  0  3  0  0  0  0  0  0
  190.9900  177.9620  141.9880 C   0  0  1  0  0  3  0  0  0  0  0  0
  192.4850  177.8330  141.7750 C   0  0  0  0  0  2  0  0  0  0  0  0
  191.0310  176.2650  136.7470 C   0  0  0  0  0  2  0  0  0  0  0  0
  191.0800  177.6540  139.6230 C   0  0  0  0  0  2  0  0  0  0  0  0
  186.2310  174.2850  136.6010 O   0  0  0  0  0  0  0  0  0  0  0  0
  184.2280  177.6600  136.7380 N   0  0  0  0  0  0  0  0  0  0  0  0
  185.5730  176.0760  135.2210 C   0  0  0  0  0  2  0  0  0  0  0  0
  184.5100  177.1170  135.4270 C   0  0  0  0  0  0  0  0  0  0  0  0
  184.6160  177.5400  139.1260 C   0  0  0  0  0  2  0  0  0  0  0  0
  186.2130  176.3660  137.7130 C   0  0  2  0  0  3  0  0  0  0  0  0
  183.8960  177.5840  134.3470 C   0  0  0  0  0  2  0  0  0  0  0  0
  186.0120  175.4820  136.5200 C   0  0  0  0  0  0  0  0  0  0  0  0
  184.9800  177.2050  137.8900 C   0  0  0  0  0  0  0  0  0  0  0  0
  183.1200  178.6030  136.9140 C   0  0  0  0  0  2  0  0  0  0  0  0
  181.8210  177.8450  137.1350 C   0  0  0  0  0  1  0  0  0  0  0  0
  189.7610  177.9290  144.1750 C   0  0  1  0  0  3  0  0  0  0  0  0
  188.0430  178.2360  145.8840 C   0  0  2  0  0  3  0  0  0  0  0  0
  188.2330  177.8540  144.4050 C   0  0  2  0  0  3  0  0  0  0  0  0
  189.3590  177.8960  146.4680 C   0  0  0  0  0  0  0  0  0  0  0  0
  187.7760  176.5470  144.1860 O   0  0  0  0  0  1  0  0  0  0  0  0
  190.3560  177.6760  145.4860 N   0  0  0  0  0  0  0  0  0  0  0  0
  189.5780  177.8150  147.7060 O   0  0  0  0  0  0  0  0  0  0  0  0
  191.4410  176.1640  147.0640 C   0  0  0  0  0  1  0  0  0  0  0  0
  191.5750  176.9140  145.7510 C   0  0  0  0  0  2  0  0  0  0  0  0
  187.0220  177.4890  146.4830 O   0  0  0  0  0  0  0  0  0  0  0  0
  186.1220  179.8470  147.1630 O   0  0  0  0  0  1  0  0  0  0  0  0
  184.4760  177.8560  147.5350 O   0  0  0  0  0  1  0  0  0  0  0  0
  185.0780  178.8000  145.0080 O   0  0  0  0  0  0  0  0  0  0  0  0
  185.6860  178.5310  146.5640 P   0  0  0  0  0  0  0  0  0  0  0  0
  191.1190  175.2300  134.4400 C   0  0  0  0  0  2  0  0  0  0  0  0
  191.7700  174.1440  135.2830 C   0  0  0  0  0  2  0  0  0  0  0  0
  193.1730  174.1520  135.0640 O   0  0  0  0  0  0  0  0  0  0  0  0
  194.8520  172.4250  137.9750 N   0  0  1  0  0  0  0  0  0  0  0  0
  196.5450  174.7740  136.3690 C   0  0  0  0  0  1  0  0  0  0  0  0
  194.0390  173.2910  135.7400 C   0  0  0  0  0  0  0  0  0  0  0  0
  195.0870  171.1790  137.2230 C   0  0  0  0  0  2  0  0  0  0  0  0
  196.1060  173.1750  138.0900 C   0  0  2  0  0  3  0  0  0  0  0  0
  194.6030  172.2990  135.1180 N   0  0  0  0  0  0  0  0  0  0  0  0
  194.3120  173.5530  137.2090 C   0  0  2  0  0  3  0  0  0  0  0  0
  195.9750  174.4470  138.9320 C   0  0  0  0  0  0  0  0  0  0  0  0
  195.5470  171.4230  135.7870 C   0  0  2  0  0  3  0  0  0  0  0  0
  195.5710  174.3560  137.4600 C   0  0  2  0  0  0  0  0  0  0  0  0
  195.6310  170.2230  135.1070 F   0  0  0  0  0  0  0  0  0  0  0  0
  196.0860  175.0600  139.9820 O   0  0  0  0  0  0  0  0  0  0  0  0
  1 42  1  6  0  0  0
  1 15  1  0  0  0  0
  2 16  1  6  0  0  0
  2 14  1  0  0  0  0
  2 13  1  0  0  0  0
  3 22  1  0  0  0  0
  3  5  1  1  0  0  0
  4  7  1  1  0  0  0
  5  4  1  0  0  0  0
  7  6  1  0  0  0  0
  8  1  1  0  0  0  0
  9  4  1  0  0  0  0
  9 16  1  1  0  0  0
 10 15  1  6  0  0  0
 10  9  1  0  0  0  0
 11  8  1  6  0  0  0
 11 10  1  0  0  0  0
 11  3  1  0  0  0  0
 12  6  1  6  0  0  0
 12 28  1  0  0  0  0
 13 14  1  1  0  0  0
 13 12  1  0  0  0  0
 18 26  1  0  0  0  0
 18 25  1  0  0  0  0
 19 20  1  0  0  0  0
 19 24  1  0  0  0  0
 20 18  1  0  0  0  0
 22 24  1  6  0  0  0
 22 25  1  0  0  0  0
 23 20  2  0  0  0  0
 24 17  2  0  0  0  0
 25 21  2  0  0  0  0
 26 27  1  0  0  0  0
 28 30  1  0  0  0  0
 28 33  1  1  0  0  0
 29 31  1  0  0  0  0
 29 37  1  1  0  0  0
 30 32  1  1  0  0  0
 30 29  1  0  0  0  0
 31 34  2  0  0  0  0
 33 36  1  0  0  0  0
 33 31  1  0  0  0  0
 36 35  1  0  0  0  0
 37 41  1  0  0  0  0
 40 41  2  0  0  0  0
 41 38  1  0  0  0  0
 41 39  1  0  0  0  0
 42 43  1  0  0  0  0
 44 43  1  0  0  0  0
 44 47  1  0  0  0  0
 45 48  1  6  0  0  0
 45 49  1  0  0  0  0
 49 52  1  1  0  0  0
 50 47  2  0  0  0  0
 50 53  1  0  0  0  0
 51 47  1  6  0  0  0
 51 54  1  0  0  0  0
 51 45  1  0  0  0  0
 52 56  2  0  0  0  0
 53 55  1  6  0  0  0
 53 48  1  0  0  0  0
 54 46  1  6  0  0  0
 54 49  1  0  0  0  0
 54 52  1  0  0  0  0
M  END
>  <MODEL>
6

>  <REMARK>
 VINA RESULT:      -5.3      3.776     10.581
  Name = 
  10 active torsions:
  status: ('A' for Active; 'I' for Inactive)
    1  A    between atoms: C_1  and  C_54
    2  A    between atoms: C_4  and  C_44
    3  A    between atoms: C_5  and  C_34
    4  A    between atoms: N_11  and  C_19
    5  A    between atoms: C_13  and  O_23
    6  A    between atoms: C_17  and  N_55
    7  A    between atoms: C_18  and  O_25
    8  A    between atoms: O_23  and  C_40
    9  A    between atoms: O_25  and  P_41
   10  A    between atoms: C_40  and  C_54
                            x       y       z     vdW  Elec       q    Type
                         _______ _______ _______ _____ _____    ______ ____

>  <TORSDO>
F 10

$$$$
=
 OpenBabel10232408573D

 56 64  0  0  1  0  0  0  0  0999 V2000
  193.7710  176.2700  137.8150 C   0  0  1  0  0  3  0  0  0  0  0  0
  191.5770  177.1980  143.0420 C   0  0  2  0  0  3  0  0  0  0  0  0
  189.8800  177.0810  138.0430 C   0  0  1  0  0  3  0  0  0  0  0  0
  189.7250  176.9670  140.3580 C   0  0  2  0  0  3  0  0  0  0  0  0
  189.5180  177.7910  139.2260 O   0  0  0  0  0  0  0  0  0  0  0  0
  188.7360  176.1960  142.8620 S   0  0  0  0  0  0  0  0  0  0  0  0
  188.8300  177.4290  141.5120 C   0  0  0  0  0  2  0  0  0  0  0  0
  192.2910  176.4200  136.7360 S   0  0  0  0  0  0  0  0  0  0  0  0
  191.2550  176.7760  140.6420 C   0  0  1  0  0  3  0  0  0  0  0  0
  192.0160  176.9130  139.3250 C   0  0  2  0  0  3  0  0  0  0  0  0
  191.2190  176.3260  138.1920 C   0  0  1  0  0  3  0  0  0  0  0  0
  189.4440  177.2720  144.2010 C   0  0  1  0  0  3  0  0  0  0  0  0
  190.5440  178.1510  143.6070 C   0  0  1  0  0  3  0  0  0  0  0  0
  191.9290  178.0780  144.2160 C   0  0  0  0  0  2  0  0  0  0  0  0
  193.3500  176.2180  139.2800 C   0  0  0  0  0  2  0  0  0  0  0  0
  191.8650  177.7400  141.6640 C   0  0  0  0  0  2  0  0  0  0  0  0
  189.2610  174.6140  135.8650 O   0  0  0  0  0  0  0  0  0  0  0  0
  186.8720  177.6330  136.6330 N   0  0  0  0  0  0  0  0  0  0  0  0
  188.7040  176.7530  135.0550 C   0  0  0  0  0  2  0  0  0  0  0  0
  187.5000  177.6090  135.3300 C   0  0  0  0  0  0  0  0  0  0  0  0
  186.7400  176.6790  138.8560 C   0  0  0  0  0  2  0  0  0  0  0  0
  188.7410  176.1540  137.5740 C   0  0  2  0  0  3  0  0  0  0  0  0
  187.0840  178.4080  134.3560 C   0  0  0  0  0  2  0  0  0  0  0  0
  188.9180  175.7510  136.1420 C   0  0  0  0  0  0  0  0  0  0  0  0
  187.4040  176.8250  137.7110 C   0  0  0  0  0  0  0  0  0  0  0  0
  185.6440  178.4060  136.8360 C   0  0  0  0  0  2  0  0  0  0  0  0
  184.4290  177.5070  136.6770 C   0  0  0  0  0  1  0  0  0  0  0  0
  188.3510  178.1660  144.8260 C   0  0  1  0  0  3  0  0  0  0  0  0
  185.9700  178.5710  145.1940 C   0  0  2  0  0  3  0  0  0  0  0  0
  186.9840  178.1890  144.1010 C   0  0  2  0  0  3  0  0  0  0  0  0
  186.6630  178.1430  146.4300 C   0  0  0  0  0  0  0  0  0  0  0  0
  186.6840  176.9160  143.5960 O   0  0  0  0  0  1  0  0  0  0  0  0
  188.0370  177.8660  146.2210 N   0  0  0  0  0  0  0  0  0  0  0  0
  186.0990  178.0390  147.5510 O   0  0  0  0  0  0  0  0  0  0  0  0
  189.6060  177.8920  148.0890 C   0  0  0  0  0  1  0  0  0  0  0  0
  188.8200  177.0240  147.1230 C   0  0  0  0  0  2  0  0  0  0  0  0
  184.7590  177.8880  145.0380 O   0  0  0  0  0  0  0  0  0  0  0  0
  184.2790  180.2950  144.1390 O   0  0  0  0  0  1  0  0  0  0  0  0
  182.1860  178.7680  144.4600 O   0  0  0  0  0  1  0  0  0  0  0  0
  183.9990  178.3510  142.4140 O   0  0  0  0  0  0  0  0  0  0  0  0
  183.8170  178.8620  144.0180 P   0  0  0  0  0  0  0  0  0  0  0  0
  194.6490  175.0840  137.4280 C   0  0  0  0  0  2  0  0  0  0  0  0
  194.2900  174.5220  136.0590 C   0  0  0  0  0  2  0  0  0  0  0  0
  195.4800  174.2370  135.3380 O   0  0  0  0  0  0  0  0  0  0  0  0
  197.7790  171.2700  135.7730 N   0  0  1  0  0  0  0  0  0  0  0  0
  195.3560  171.7010  137.9870 C   0  0  0  0  0  1  0  0  0  0  0  0
  196.5060  173.4550  135.8720 C   0  0  0  0  0  0  0  0  0  0  0  0
  198.9060  172.0930  136.2480 C   0  0  0  0  0  2  0  0  0  0  0  0
  197.1650  170.5730  136.9060 C   0  0  2  0  0  3  0  0  0  0  0  0
  197.4320  173.9940  136.6090 N   0  0  0  0  0  0  0  0  0  0  0  0
  196.5040  171.9670  135.5800 C   0  0  2  0  0  3  0  0  0  0  0  0
  196.0350  169.6260  136.4930 C   0  0  0  0  0  0  0  0  0  0  0  0
  198.4780  173.1930  137.2170 C   0  0  2  0  0  3  0  0  0  0  0  0
  195.8580  171.1350  136.6680 C   0  0  2  0  0  0  0  0  0  0  0  0
  199.5580  173.9980  137.5270 F   0  0  0  0  0  0  0  0  0  0  0  0
  195.6070  168.5170  136.2140 O   0  0  0  0  0  0  0  0  0  0  0  0
  1 42  1  6  0  0  0
  1 15  1  0  0  0  0
  2 16  1  6  0  0  0
  2 13  1  0  0  0  0
  2 14  1  0  0  0  0
  3 11  1  0  0  0  0
  3  5  1  1  0  0  0
  4  9  1  0  0  0  0
  4  7  1  1  0  0  0
  5  4  1  0  0  0  0
  7  6  1  0  0  0  0
  8  1  1  0  0  0  0
  9 16  1  1  0  0  0
 10 15  1  1  0  0  0
 10  9  1  0  0  0  0
 11  8  1  6  0  0  0
 11 10  1  0  0  0  0
 12  6  1  6  0  0  0
 12 28  1  0  0  0  0
 13 12  1  0  0  0  0
 13 14  1  1  0  0  0
 17 24  2  0  0  0  0
 18 26  1  0  0  0  0
 18 25  1  0  0  0  0
 19 20  1  0  0  0  0
 19 24  1  0  0  0  0
 20 18  1  0  0  0  0
 22 24  1  6  0  0  0
 22 25  1  0  0  0  0
 22  3  1  0  0  0  0
 23 20  2  0  0  0  0
 25 21  2  0  0  0  0
 27 26  1  0  0  0  0
 28 33  1  1  0  0  0
 29 37  1  6  0  0  0
 29 31  1  0  0  0  0
 30 32  1  1  0  0  0
 30 28  1  0  0  0  0
 30 29  1  0  0  0  0
 31 34  2  0  0  0  0
 33 31  1  0  0  0  0
 33 36  1  0  0  0  0
 36 35  1  0  0  0  0
 40 41  2  0  0  0  0
 41 38  1  0  0  0  0
 41 39  1  0  0  0  0
 41 37  1  0  0  0  0
 43 42  1  0  0  0  0
 44 47  1  0  0  0  0
 44 43  1  0  0  0  0
 45 48  1  1  0  0  0
 45 49  1  0  0  0  0
 47 50  2  0  0  0  0
 48 53  1  0  0  0  0
 49 52  1  6  0  0  0
 50 53  1  0  0  0  0
 51 45  1  0  0  0  0
 51 47  1  1  0  0  0
 51 54  1  0  0  0  0
 52 54  1  0  0  0  0
 53 55  1  6  0  0  0
 54 49  1  0  0  0  0
 54 46  1  1  0  0  0
 56 52  2  0  0  0  0
M  END
>  <MODEL>
7

>  <REMARK>
 VINA RESULT:      -5.1      4.465     11.436
  Name = 
  10 active torsions:
  status: ('A' for Active; 'I' for Inactive)
    1  A    between atoms: C_1  and  C_54
    2  A    between atoms: C_4  and  C_44
    3  A    between atoms: C_5  and  C_34
    4  A    between atoms: N_11  and  C_19
    5  A    between atoms: C_13  and  O_23
    6  A    between atoms: C_17  and  N_55
    7  A    between atoms: C_18  and  O_25
    8  A    between atoms: O_23  and  C_40
    9  A    between atoms: O_25  and  P_41
   10  A    between atoms: C_40  and  C_54
                            x       y       z     vdW  Elec       q    Type
                         _______ _______ _______ _____ _____    ______ ____

>  <TORSDO>
F 10

$$$$
=
 OpenBabel10232408573D

 56 64  0  0  1  0  0  0  0  0999 V2000
  188.2420  177.3430  135.4070 C   0  0  1  0  0  3  0  0  0  0  0  0
  190.4840  177.3260  140.6960 C   0  0  2  0  0  3  0  0  0  0  0  0
  185.7980  178.2080  138.4280 C   0  0  1  0  0  3  0  0  0  0  0  0
  187.2820  177.6620  140.1290 C   0  0  2  0  0  3  0  0  0  0  0  0
  186.4770  178.6910  139.5860 O   0  0  0  0  0  0  0  0  0  0  0  0
  188.2110  176.4580  142.4810 S   0  0  0  0  0  0  0  0  0  0  0  0
  187.5290  177.9220  141.6180 C   0  0  0  0  0  2  0  0  0  0  0  0
  186.4770  177.7370  135.7310 S   0  0  0  0  0  0  0  0  0  0  0  0
  188.5230  177.3760  139.2150 C   0  0  1  0  0  3  0  0  0  0  0  0
  188.1620  177.7380  137.7760 C   0  0  2  0  0  3  0  0  0  0  0  0
  186.7240  177.4010  137.4920 C   0  0  1  0  0  3  0  0  0  0  0  0
  189.8060  177.2400  143.0260 C   0  0  1  0  0  3  0  0  0  0  0  0
  190.3010  178.1840  141.9310 C   0  0  1  0  0  3  0  0  0  0  0  0
  191.6850  177.9560  141.3580 C   0  0  0  0  0  2  0  0  0  0  0  0
  188.9580  177.0260  136.7150 C   0  0  0  0  0  2  0  0  0  0  0  0
  189.8110  178.1100  139.5970 C   0  0  0  0  0  2  0  0  0  0  0  0
  183.7470  175.8420  137.2410 O   0  0  0  0  0  0  0  0  0  0  0  0
  182.6250  179.1100  139.1060 N   0  0  0  0  0  0  0  0  0  0  0  0
  183.0160  178.0360  136.8010 C   0  0  0  0  0  2  0  0  0  0  0  0
  182.3190  179.0220  137.6940 C   0  0  0  0  0  0  0  0  0  0  0  0
  183.7910  178.1630  141.0070 C   0  0  0  0  0  2  0  0  0  0  0  0
  184.5290  177.4210  138.8100 C   0  0  2  0  0  3  0  0  0  0  0  0
  181.4710  179.8690  137.1250 C   0  0  0  0  0  2  0  0  0  0  0  0
  183.7540  177.0090  137.5950 C   0  0  0  0  0  0  0  0  0  0  0  0
  183.6260  178.2400  139.6880 C   0  0  0  0  0  0  0  0  0  0  0  0
  181.8570  180.0170  139.9630 C   0  0  0  0  0  2  0  0  0  0  0  0
  180.5280  179.3810  140.3370 C   0  0  0  0  0  1  0  0  0  0  0  0
  189.6130  178.0310  144.3390 C   0  0  1  0  0  3  0  0  0  0  0  0
  188.3320  178.3460  146.3950 C   0  0  2  0  0  3  0  0  0  0  0  0
  188.1660  178.1200  144.8810 C   0  0  2  0  0  3  0  0  0  0  0  0
  189.6740  177.7800  146.6520 C   0  0  0  0  0  0  0  0  0  0  0  0
  187.4890  176.9140  144.6490 O   0  0  0  0  0  1  0  0  0  0  0  0
  190.4130  177.5540  145.4650 N   0  0  0  0  0  0  0  0  0  0  0  0
  190.1200  177.5280  147.8030 O   0  0  0  0  0  0  0  0  0  0  0  0
  191.5600  175.7470  146.6370 C   0  0  0  0  0  1  0  0  0  0  0  0
  191.5350  176.6200  145.3960 C   0  0  0  0  0  2  0  0  0  0  0  0
  187.3530  177.6670  147.1290 O   0  0  0  0  0  0  0  0  0  0  0  0
  184.7830  177.8660  147.5570 O   0  0  0  0  0  1  0  0  0  0  0  0
  185.6860  179.1580  145.4770 O   0  0  0  0  0  0  0  0  0  0  0  0
  186.1950  180.0070  148.0590 O   0  0  0  0  0  1  0  0  0  0  0  0
  185.9740  178.6530  147.0670 P   0  0  0  0  0  0  0  0  0  0  0  0
  188.4040  176.2260  134.3800 C   0  0  0  0  0  2  0  0  0  0  0  0
  187.2880  175.1940  134.4670 C   0  0  0  0  0  2  0  0  0  0  0  0
  187.6510  174.1840  135.3980 O   0  0  0  0  0  0  0  0  0  0  0  0
  185.0620  171.5220  134.7010 N   0  0  1  0  0  0  0  0  0  0  0  0
  185.2250  172.7740  137.7620 C   0  0  0  0  0  1  0  0  0  0  0  0
  187.0450  172.9270  135.4080 C   0  0  0  0  0  0  0  0  0  0  0  0
  186.0560  170.4330  134.6610 C   0  0  0  0  0  2  0  0  0  0  0  0
  184.3280  171.4740  135.9680 C   0  0  2  0  0  3  0  0  0  0  0  0
  187.7380  171.8630  135.6830 N   0  0  0  0  0  0  0  0  0  0  0  0
  185.5620  172.8410  135.1030 C   0  0  2  0  0  3  0  0  0  0  0  0
  183.2140  172.5200  136.0610 C   0  0  0  0  0  0  0  0  0  0  0  0
  187.1190  170.5510  135.7510 C   0  0  2  0  0  3  0  0  0  0  0  0
  184.6870  172.8200  136.3400 C   0  0  2  0  0  0  0  0  0  0  0  0
  188.0800  169.5740  135.5830 F   0  0  0  0  0  0  0  0  0  0  0  0
  182.0450  172.8600  135.9650 O   0  0  0  0  0  0  0  0  0  0  0  0
  1 42  1  6  0  0  0
  1  8  1  0  0  0  0
  1 15  1  0  0  0  0
  2 16  1  6  0  0  0
  2 14  1  0  0  0  0
  2 13  1  0  0  0  0
  3 22  1  0  0  0  0
  3  5  1  1  0  0  0
  4  7  1  1  0  0  0
  5  4  1  0  0  0  0
  7  6  1  0  0  0  0
  9 16  1  1  0  0  0
  9  4  1  0  0  0  0
 10 15  1  6  0  0  0
 10  9  1  0  0  0  0
 11  8  1  6  0  0  0
 11 10  1  0  0  0  0
 11  3  1  0  0  0  0
 12  6  1  6  0  0  0
 12 28  1  0  0  0  0
 13 14  1  1  0  0  0
 13 12  1  0  0  0  0
 17 24  2  0  0  0  0
 18 25  1  0  0  0  0
 18 26  1  0  0  0  0
 19 24  1  0  0  0  0
 19 20  1  0  0  0  0
 20 18  1  0  0  0  0
 22 24  1  6  0  0  0
 22 25  1  0  0  0  0
 23 20  2  0  0  0  0
 25 21  2  0  0  0  0
 26 27  1  0  0  0  0
 28 30  1  0  0  0  0
 28 33  1  1  0  0  0
 29 31  1  0  0  0  0
 29 37  1  1  0  0  0
 30 32  1  1  0  0  0
 30 29  1  0  0  0  0
 31 34  2  0  0  0  0
 33 31  1  0  0  0  0
 36 33  1  0  0  0  0
 36 35  1  0  0  0  0
 39 41  2  0  0  0  0
 41 37  1  0  0  0  0
 41 38  1  0  0  0  0
 41 40  1  0  0  0  0
 42 43  1  0  0  0  0
 43 44  1  0  0  0  0
 44 47  1  0  0  0  0
 45 48  1  1  0  0  0
 45 51  1  0  0  0  0
 45 49  1  0  0  0  0
 47 50  2  0  0  0  0
 48 53  1  0  0  0  0
 49 52  1  6  0  0  0
 49 54  1  0  0  0  0
 50 53  1  0  0  0  0
 51 47  1  1  0  0  0
 51 54  1  0  0  0  0
 52 54  1  0  0  0  0
 53 55  1  6  0  0  0
 54 46  1  1  0  0  0
 56 52  2  0  0  0  0
M  END
>  <MODEL>
8

>  <REMARK>
 VINA RESULT:      -5.1      4.257      8.682
  Name = 
  10 active torsions:
  status: ('A' for Active; 'I' for Inactive)
    1  A    between atoms: C_1  and  C_54
    2  A    between atoms: C_4  and  C_44
    3  A    between atoms: C_5  and  C_34
    4  A    between atoms: N_11  and  C_19
    5  A    between atoms: C_13  and  O_23
    6  A    between atoms: C_17  and  N_55
    7  A    between atoms: C_18  and  O_25
    8  A    between atoms: O_23  and  C_40
    9  A    between atoms: O_25  and  P_41
   10  A    between atoms: C_40  and  C_54
                            x       y       z     vdW  Elec       q    Type
                         _______ _______ _______ _____ _____    ______ ____

>  <TORSDO>
F 10

$$$$
=
 OpenBabel10232408573D

 56 64  0  0  1  0  0  0  0  0999 V2000
  188.6450  177.4380  135.6170 C   0  0  1  0  0  3  0  0  0  0  0  0
  190.5270  177.3570  141.0430 C   0  0  2  0  0  3  0  0  0  0  0  0
  185.9750  178.1350  138.4860 C   0  0  1  0  0  3  0  0  0  0  0  0
  187.3600  177.5960  140.2700 C   0  0  2  0  0  3  0  0  0  0  0  0
  186.5560  178.6100  139.6980 O   0  0  0  0  0  0  0  0  0  0  0  0
  188.1740  176.3630  142.6490 S   0  0  0  0  0  0  0  0  0  0  0  0
  187.4970  177.8240  141.7780 C   0  0  0  0  0  2  0  0  0  0  0  0
  186.8490  177.7610  135.8300 S   0  0  0  0  0  0  0  0  0  0  0  0
  188.6690  177.3780  139.4340 C   0  0  1  0  0  3  0  0  0  0  0  0
  188.3930  177.7660  137.9840 C   0  0  2  0  0  3  0  0  0  0  0  0
  186.9890  177.3860  137.5950 C   0  0  1  0  0  3  0  0  0  0  0  0
  189.6980  177.1860  143.3200 C   0  0  1  0  0  3  0  0  0  0  0  0
  190.2310  178.1750  142.2840 C   0  0  1  0  0  3  0  0  0  0  0  0
  191.6570  178.0120  141.8010 C   0  0  0  0  0  2  0  0  0  0  0  0
  189.2830  177.1120  136.9630 C   0  0  0  0  0  2  0  0  0  0  0  0
  189.9010  178.1470  139.9210 C   0  0  0  0  0  2  0  0  0  0  0  0
  184.1360  175.6820  137.1380 O   0  0  0  0  0  0  0  0  0  0  0  0
  182.7190  178.8990  138.8880 N   0  0  0  0  0  0  0  0  0  0  0  0
  183.3510  177.8420  136.6280 C   0  0  0  0  0  2  0  0  0  0  0  0
  182.5390  178.7980  137.4550 C   0  0  0  0  0  0  0  0  0  0  0  0
  183.7580  178.0040  140.8850 C   0  0  0  0  0  2  0  0  0  0  0  0
  184.7120  177.2940  138.7610 C   0  0  2  0  0  3  0  0  0  0  0  0
  181.7070  179.6070  136.8130 C   0  0  0  0  0  2  0  0  0  0  0  0
  184.0620  176.8480  137.4870 C   0  0  0  0  0  0  0  0  0  0  0  0
  183.7030  178.0730  139.5560 C   0  0  0  0  0  0  0  0  0  0  0  0
  181.8430  179.7720  139.6730 C   0  0  0  0  0  2  0  0  0  0  0  0
  180.7350  178.9550  140.3180 C   0  0  0  0  0  1  0  0  0  0  0  0
  189.3890  177.9330  144.6360 C   0  0  1  0  0  3  0  0  0  0  0  0
  187.8680  178.2650  146.5180 C   0  0  2  0  0  3  0  0  0  0  0  0
  187.8930  178.1170  144.9860 C   0  0  2  0  0  3  0  0  0  0  0  0
  189.1170  177.5810  146.9210 C   0  0  0  0  0  0  0  0  0  0  0  0
  187.1650  176.9820  144.6040 O   0  0  0  0  0  1  0  0  0  0  0  0
  189.9910  177.3460  145.8300 N   0  0  0  0  0  0  0  0  0  0  0  0
  189.3830  177.2450  148.1050 O   0  0  0  0  0  0  0  0  0  0  0  0
  192.0300  176.6380  146.9680 C   0  0  0  0  0  1  0  0  0  0  0  0
  191.0390  176.3270  145.8610 C   0  0  0  0  0  2  0  0  0  0  0  0
  186.7510  177.6380  147.0800 O   0  0  0  0  0  0  0  0  0  0  0  0
  185.7380  179.8730  147.9790 O   0  0  0  0  0  1  0  0  0  0  0  0
  184.0100  178.0340  147.3160 O   0  0  0  0  0  1  0  0  0  0  0  0
  185.4510  179.4350  145.4180 O   0  0  0  0  0  0  0  0  0  0  0  0
  185.4940  178.7720  146.9750 P   0  0  0  0  0  0  0  0  0  0  0  0
  188.9170  176.3560  134.5760 C   0  0  0  0  0  2  0  0  0  0  0  0
  190.4050  176.1360  134.3460 C   0  0  0  0  0  2  0  0  0  0  0  0
  190.6940  174.7470  134.4170 O   0  0  0  0  0  0  0  0  0  0  0  0
  193.0060  173.8670  137.2730 N   0  0  1  0  0  0  0  0  0  0  0  0
  193.7770  176.4790  135.3910 C   0  0  0  0  0  1  0  0  0  0  0  0
  191.8250  174.2520  135.0680 C   0  0  0  0  0  0  0  0  0  0  0  0
  193.5700  172.6940  136.5790 C   0  0  0  0  0  2  0  0  0  0  0  0
  193.9680  174.9720  137.2360 C   0  0  2  0  0  3  0  0  0  0  0  0
  192.6310  173.4330  134.4600 N   0  0  0  0  0  0  0  0  0  0  0  0
  192.0940  174.7060  136.4890 C   0  0  2  0  0  3  0  0  0  0  0  0
  193.4990  176.2070  138.0080 C   0  0  0  0  0  0  0  0  0  0  0  0
  193.8410  172.9470  135.0980 C   0  0  2  0  0  3  0  0  0  0  0  0
  193.0520  175.8750  136.5840 C   0  0  2  0  0  0  0  0  0  0  0  0
  194.2520  171.7790  134.4860 F   0  0  0  0  0  0  0  0  0  0  0  0
  193.4780  176.9100  139.0070 O   0  0  0  0  0  0  0  0  0  0  0  0
  1 42  1  6  0  0  0
  1  8  1  0  0  0  0
  1 15  1  0  0  0  0
  2 16  1  6  0  0  0
  2 14  1  0  0  0  0
  2 13  1  0  0  0  0
  3 22  1  0  0  0  0
  3  5  1  1  0  0  0
  4  7  1  1  0  0  0
  5  4  1  0  0  0  0
  7  6  1  0  0  0  0
  9 16  1  1  0  0  0
  9  4  1  0  0  0  0
 10 15  1  6  0  0  0
 10  9  1  0  0  0  0
 11  8  1  6  0  0  0
 11 10  1  0  0  0  0
 11  3  1  0  0  0  0
 12  6  1  6  0  0  0
 12 28  1  0  0  0  0
 13 14  1  1  0  0  0
 13 12  1  0  0  0  0
 17 24  2  0  0  0  0
 18 25  1  0  0  0  0
 18 26  1  0  0  0  0
 19 20  1  0  0  0  0
 19 24  1  0  0  0  0
 20 18  1  0  0  0  0
 22 24  1  6  0  0  0
 22 25  1  0  0  0  0
 23 20  2  0  0  0  0
 25 21  2  0  0  0  0
 26 27  1  0  0  0  0
 28 30  1  0  0  0  0
 28 33  1  1  0  0  0
 29 31  1  0  0  0  0
 29 37  1  1  0  0  0
 30 32  1  1  0  0  0
 30 29  1  0  0  0  0
 31 34  2  0  0  0  0
 33 36  1  0  0  0  0
 33 31  1  0  0  0  0
 36 35  1  0  0  0  0
 40 41  2  0  0  0  0
 41 37  1  0  0  0  0
 41 39  1  0  0  0  0
 41 38  1  0  0  0  0
 43 44  1  0  0  0  0
 43 42  1  0  0  0  0
 44 47  1  0  0  0  0
 45 48  1  6  0  0  0
 49 45  1  0  0  0  0
 49 52  1  1  0  0  0
 50 47  2  0  0  0  0
 50 53  1  0  0  0  0
 51 47  1  6  0  0  0
 51 54  1  0  0  0  0
 51 45  1  0  0  0  0
 52 56  2  0  0  0  0
 53 55  1  6  0  0  0
 53 48  1  0  0  0  0
 54 46  1  6  0  0  0
 54 49  1  0  0  0  0
 54 52  1  0  0  0  0
M  END
>  <MODEL>
9

>  <REMARK>
 VINA RESULT:      -4.9      3.556      9.868
  Name = 
  10 active torsions:
  status: ('A' for Active; 'I' for Inactive)
    1  A    between atoms: C_1  and  C_54
    2  A    between atoms: C_4  and  C_44
    3  A    between atoms: C_5  and  C_34
    4  A    between atoms: N_11  and  C_19
    5  A    between atoms: C_13  and  O_23
    6  A    between atoms: C_17  and  N_55
    7  A    between atoms: C_18  and  O_25
    8  A    between atoms: O_23  and  C_40
    9  A    between atoms: O_25  and  P_41
   10  A    between atoms: C_40  and  C_54
                            x       y       z     vdW  Elec       q    Type
                         _______ _______ _______ _____ _____    ______ ____

>  <TORSDO>
F 10

$$$$
