=
 OpenBabel10222422103D

 29 31  0  0  1  0  0  0  0  0999 V2000
  186.1280  178.7130  141.3240 N   0  0  0  0  0  2  0  0  0  0  0  0
  185.5110  177.9900  142.4260 C   0  0  1  0  0  3  0  0  0  0  0  0
  186.5480  177.6870  143.4940 C   0  0  0  0  0  2  0  0  0  0  0  0
  184.4510  178.8600  143.0730 C   0  0  0  0  0  2  0  0  0  0  0  0
  186.1110  178.4200  144.7470 C   0  0  1  0  0  3  0  0  0  0  0  0
  184.6380  178.6990  144.5640 C   0  0  0  0  0  2  0  0  0  0  0  0
  186.3260  177.5590  145.9770 C   0  0  0  0  0  2  0  0  0  0  0  0
  186.4440  178.5990  147.4630 S   0  0  0  0  0  0  0  0  0  0  0  0
  188.4470  177.9640  149.0310 O   0  0  0  0  0  0  0  0  0  0  0  0
  188.0720  177.9750  147.8690 C   0  0  0  0  0  0  0  0  0  0  0  0
  188.9770  177.4870  146.7890 C   0  0  0  0  0  2  0  0  0  0  0  0
  192.3430  175.7230  147.5120 C   0  0  0  0  0  1  0  0  0  0  0  0
  191.3420  176.6260  146.8870 C   0  0  0  0  0  0  0  0  0  0  0  0
  191.6910  177.3900  145.9480 O   0  0  0  0  0  0  0  0  0  0  0  0
  189.9940  176.6180  147.3570 N   0  0  0  0  0  2  0  0  0  0  0  0
  183.9930  180.3450  138.9200 O   0  0  0  0  0  0  0  0  0  0  0  0
  184.6940  179.4220  139.4130 C   0  0  0  0  0  0  0  0  0  0  0  0
  185.1500  179.5520  140.7660 N   0  0  0  0  0  2  0  0  0  0  0  0
  183.5690  176.3730  136.2460 C   0  0  1  0  0  3  0  0  0  0  0  0
  182.8430  177.3360  138.3050 N   0  0  0  0  0  2  0  0  0  0  0  0
  182.3480  176.6160  137.1450 C   0  0  0  0  0  2  0  0  0  0  0  0
  184.7760  176.4620  137.1720 C   0  0  2  0  0  3  0  0  0  0  0  0
  185.0520  178.2610  138.5720 C   0  0  2  0  0  3  0  0  0  0  0  0
  186.1890  178.2620  137.6120 C   0  0  2  0  0  3  0  0  0  0  0  0
  184.2550  177.2560  138.2770 C   0  0  1  0  0  3  0  0  0  0  0  0
  183.4760  174.7540  135.5160 Cl  0  0  0  0  0  0  0  0  0  0  0  0
  185.8640  177.2520  136.5950 N   0  0  0  0  0  2  0  0  0  0  0  0
  187.4360  177.9010  138.2960 C   0  0  0  0  0  0  0  0  0  0  0  0
  188.4190  177.6160  138.8360 N   0  0  0  0  0  0  0  0  0  0  0  0
  2  1  1  6  0  0  0
  2  4  1  0  0  0  0
  2  3  1  0  0  0  0
  3  5  1  0  0  0  0
  4  6  1  0  0  0  0
  5  7  1  1  0  0  0
  6  5  1  0  0  0  0
  7  8  1  0  0  0  0
  8 10  1  0  0  0  0
 10  9  2  0  0  0  0
 11 15  1  0  0  0  0
 11 10  1  0  0  0  0
 13 15  1  0  0  0  0
 13 12  1  0  0  0  0
 14 13  2  0  0  0  0
 16 17  2  0  0  0  0
 17 18  1  0  0  0  0
 18  1  1  0  0  0  0
 19 26  1  1  0  0  0
 19 21  1  0  0  0  0
 19 22  1  0  0  0  0
 21 20  1  0  0  0  0
 22 27  1  6  0  0  0
 22 25  1  0  0  0  0
 23 17  1  6  0  0  0
 24 28  1  1  0  0  0
 24 23  1  0  0  0  0
 25 20  1  6  0  0  0
 25 23  1  0  0  0  0
 27 24  1  0  0  0  0
 28 29  3  0  0  0  0
M  END
>  <MODEL>
1

>  <REMARK>
 VINA RESULT:      -7.3      0.000      0.000
  Name = 
  9 active torsions:
  status: ('A' for Active; 'I' for Inactive)
    1  A    between atoms: C_1  and  N_12
    2  A    between atoms: C_7  and  C_16
    3  A    between atoms: C_11  and  C_20
    4  A    between atoms: C_11  and  S_21
    5  A    between atoms: N_12  and  N_29
    6  A    between atoms: C_13  and  C_18
    7  A    between atoms: C_14  and  S_21
    8  A    between atoms: C_14  and  C_25
    9  A    between atoms: N_24  and  C_25
                            x       y       z     vdW  Elec       q    Type
                         _______ _______ _______ _____ _____    ______ ____

>  <TORSDO>
F 9

$$$$
=
 OpenBabel10222422103D

 29 31  0  0  1  0  0  0  0  0999 V2000
  185.6840  178.5470  141.0610 N   0  0  0  0  0  2  0  0  0  0  0  0
  185.1340  177.9910  142.2880 C   0  0  1  0  0  3  0  0  0  0  0  0
  186.2600  177.5180  143.1930 C   0  0  0  0  0  2  0  0  0  0  0  0
  184.3850  179.0720  143.0430 C   0  0  0  0  0  2  0  0  0  0  0  0
  186.1880  178.3570  144.4540 C   0  0  1  0  0  3  0  0  0  0  0  0
  184.7870  178.9170  144.4920 C   0  0  0  0  0  2  0  0  0  0  0  0
  186.4400  177.5040  145.6820 C   0  0  0  0  0  2  0  0  0  0  0  0
  186.4050  178.5320  147.1810 S   0  0  0  0  0  0  0  0  0  0  0  0
  188.2710  177.9400  148.9260 O   0  0  0  0  0  0  0  0  0  0  0  0
  187.9920  177.9170  147.7380 C   0  0  0  0  0  0  0  0  0  0  0  0
  188.9790  177.3950  146.7500 C   0  0  0  0  0  2  0  0  0  0  0  0
  192.3840  175.8050  147.6700 C   0  0  0  0  0  1  0  0  0  0  0  0
  191.3480  176.5550  146.9130 C   0  0  0  0  0  0  0  0  0  0  0  0
  191.6440  177.0870  145.8100 O   0  0  0  0  0  0  0  0  0  0  0  0
  190.0280  176.6650  147.4430 N   0  0  0  0  0  2  0  0  0  0  0  0
  183.6570  180.5810  138.8800 O   0  0  0  0  0  0  0  0  0  0  0  0
  184.2570  179.5490  139.2800 C   0  0  0  0  0  0  0  0  0  0  0  0
  184.7950  179.5350  140.6080 N   0  0  0  0  0  2  0  0  0  0  0  0
  186.8950  176.3920  137.3640 C   0  0  1  0  0  3  0  0  0  0  0  0
  186.7430  178.7300  137.8110 N   0  0  0  0  0  2  0  0  0  0  0  0
  187.7060  177.6890  137.4990 C   0  0  0  0  0  2  0  0  0  0  0  0
  185.4710  176.8360  137.0520 C   0  0  2  0  0  3  0  0  0  0  0  0
  184.4180  178.4060  138.3570 C   0  0  2  0  0  3  0  0  0  0  0  0
  183.6540  177.1340  138.4820 C   0  0  2  0  0  3  0  0  0  0  0  0
  185.4540  178.1970  137.5730 C   0  0  1  0  0  3  0  0  0  0  0  0
  187.5350  175.4080  136.0290 Cl  0  0  0  0  0  0  0  0  0  0  0  0
  184.4740  176.1020  137.8330 N   0  0  0  0  0  2  0  0  0  0  0  0
  182.3590  177.2480  137.8010 C   0  0  0  0  0  0  0  0  0  0  0  0
  181.3380  177.3370  137.2640 N   0  0  0  0  0  0  0  0  0  0  0  0
  2  1  1  6  0  0  0
  2  4  1  0  0  0  0
  2  3  1  0  0  0  0
  3  5  1  0  0  0  0
  4  6  1  0  0  0  0
  5  6  1  0  0  0  0
  5  7  1  1  0  0  0
  7  8  1  0  0  0  0
  8 10  1  0  0  0  0
 10  9  2  0  0  0  0
 11 15  1  0  0  0  0
 11 10  1  0  0  0  0
 13 15  1  0  0  0  0
 13 12  1  0  0  0  0
 14 13  2  0  0  0  0
 16 17  2  0  0  0  0
 17 18  1  0  0  0  0
 18  1  1  0  0  0  0
 19 26  1  6  0  0  0
 19 21  1  0  0  0  0
 21 20  1  0  0  0  0
 22 19  1  0  0  0  0
 22 25  1  0  0  0  0
 22 27  1  1  0  0  0
 23 24  1  0  0  0  0
 23 17  1  1  0  0  0
 24 28  1  6  0  0  0
 25 20  1  1  0  0  0
 25 23  1  0  0  0  0
 27 24  1  0  0  0  0
 29 28  3  0  0  0  0
M  END
>  <MODEL>
2

>  <REMARK>
 VINA RESULT:      -7.1      1.175      2.457
  Name = 
  9 active torsions:
  status: ('A' for Active; 'I' for Inactive)
    1  A    between atoms: C_1  and  N_12
    2  A    between atoms: C_7  and  C_16
    3  A    between atoms: C_11  and  C_20
    4  A    between atoms: C_11  and  S_21
    5  A    between atoms: N_12  and  N_29
    6  A    between atoms: C_13  and  C_18
    7  A    between atoms: C_14  and  S_21
    8  A    between atoms: C_14  and  C_25
    9  A    between atoms: N_24  and  C_25
                            x       y       z     vdW  Elec       q    Type
                         _______ _______ _______ _____ _____    ______ ____

>  <TORSDO>
F 9

$$$$
=
 OpenBabel10222422103D

 29 31  0  0  1  0  0  0  0  0999 V2000
  188.6220  177.5600  140.1970 N   0  0  0  0  0  2  0  0  0  0  0  0
  189.4350  177.8930  141.3570 C   0  0  1  0  0  3  0  0  0  0  0  0
  188.8300  177.2800  142.6080 C   0  0  0  0  0  2  0  0  0  0  0  0
  190.8180  177.2950  141.1950 C   0  0  0  0  0  2  0  0  0  0  0  0
  189.8470  176.2920  143.1450 C   0  0  1  0  0  3  0  0  0  0  0  0
  191.1690  176.6960  142.5380 C   0  0  0  0  0  2  0  0  0  0  0  0
  189.9260  176.3690  144.6580 C   0  0  0  0  0  2  0  0  0  0  0  0
  189.5530  178.0560  145.2230 S   0  0  0  0  0  0  0  0  0  0  0  0
  190.0320  177.0020  147.5750 O   0  0  0  0  0  0  0  0  0  0  0  0
  189.1630  177.5020  146.8800 C   0  0  0  0  0  0  0  0  0  0  0  0
  187.7730  177.6340  147.4050 C   0  0  0  0  0  2  0  0  0  0  0  0
  184.8710  178.8060  145.1310 C   0  0  0  0  0  1  0  0  0  0  0  0
  185.7900  178.7210  146.2960 C   0  0  0  0  0  0  0  0  0  0  0  0
  185.6340  179.5010  147.2720 O   0  0  0  0  0  0  0  0  0  0  0  0
  186.8400  177.7550  146.2970 N   0  0  0  0  0  2  0  0  0  0  0  0
  188.9680  179.7220  137.3320 O   0  0  0  0  0  0  0  0  0  0  0  0
  188.8020  178.6430  137.9590 C   0  0  0  0  0  0  0  0  0  0  0  0
  188.5720  178.6960  139.3730 N   0  0  0  0  0  2  0  0  0  0  0  0
  190.7100  174.5650  137.3920 C   0  0  1  0  0  3  0  0  0  0  0  0
  191.2120  176.8840  137.6420 N   0  0  0  0  0  2  0  0  0  0  0  0
  191.8060  175.5660  137.7850 C   0  0  0  0  0  2  0  0  0  0  0  0
  189.7400  175.3510  136.5190 C   0  0  2  0  0  3  0  0  0  0  0  0
  188.8880  177.3630  137.2260 C   0  0  2  0  0  3  0  0  0  0  0  0
  187.7470  176.4160  137.0890 C   0  0  2  0  0  3  0  0  0  0  0  0
  190.0000  176.7240  136.9320 C   0  0  1  0  0  3  0  0  0  0  0  0
  191.4150  173.2210  136.4660 Cl  0  0  0  0  0  0  0  0  0  0  0  0
  188.3420  175.0910  136.8660 N   0  0  0  0  0  2  0  0  0  0  0  0
  186.9090  176.7900  135.9430 C   0  0  0  0  0  0  0  0  0  0  0  0
  186.2490  177.0840  135.0400 N   0  0  0  0  0  0  0  0  0  0  0  0
  2  1  1  6  0  0  0
  2  3  1  0  0  0  0
  3  5  1  0  0  0  0
  4  2  1  0  0  0  0
  4  6  1  0  0  0  0
  5  7  1  1  0  0  0
  6  5  1  0  0  0  0
  7  8  1  0  0  0  0
  8 10  1  0  0  0  0
 10 11  1  0  0  0  0
 10  9  2  0  0  0  0
 12 13  1  0  0  0  0
 13 15  1  0  0  0  0
 13 14  2  0  0  0  0
 15 11  1  0  0  0  0
 16 17  2  0  0  0  0
 17 18  1  0  0  0  0
 18  1  1  0  0  0  0
 19 26  1  6  0  0  0
 19 21  1  0  0  0  0
 20 21  1  0  0  0  0
 22 27  1  1  0  0  0
 22 25  1  0  0  0  0
 22 19  1  0  0  0  0
 23 17  1  1  0  0  0
 24 28  1  6  0  0  0
 24 23  1  0  0  0  0
 25 23  1  0  0  0  0
 25 20  1  1  0  0  0
 27 24  1  0  0  0  0
 29 28  3  0  0  0  0
M  END
>  <MODEL>
3

>  <REMARK>
 VINA RESULT:      -7.0      3.395      5.317
  Name = 
  9 active torsions:
  status: ('A' for Active; 'I' for Inactive)
    1  A    between atoms: C_1  and  N_12
    2  A    between atoms: C_7  and  C_16
    3  A    between atoms: C_11  and  C_20
    4  A    between atoms: C_11  and  S_21
    5  A    between atoms: N_12  and  N_29
    6  A    between atoms: C_13  and  C_18
    7  A    between atoms: C_14  and  S_21
    8  A    between atoms: C_14  and  C_25
    9  A    between atoms: N_24  and  C_25
                            x       y       z     vdW  Elec       q    Type
                         _______ _______ _______ _____ _____    ______ ____

>  <TORSDO>
F 9

$$$$
=
 OpenBabel10222422103D

 29 31  0  0  1  0  0  0  0  0999 V2000
  188.3980  177.7630  140.4090 N   0  0  0  0  0  2  0  0  0  0  0  0
  189.3750  178.0340  141.4530 C   0  0  1  0  0  3  0  0  0  0  0  0
  188.9040  177.4420  142.7710 C   0  0  0  0  0  2  0  0  0  0  0  0
  190.6870  177.3570  141.1080 C   0  0  0  0  0  2  0  0  0  0  0  0
  189.9230  176.3900  143.1650 C   0  0  1  0  0  3  0  0  0  0  0  0
  191.1750  176.7240  142.3910 C   0  0  0  0  0  2  0  0  0  0  0  0
  190.2040  176.4450  144.6540 C   0  0  0  0  0  2  0  0  0  0  0  0
  189.6930  178.0520  145.3330 S   0  0  0  0  0  0  0  0  0  0  0  0
  189.8070  176.5220  147.4590 O   0  0  0  0  0  0  0  0  0  0  0  0
  189.1020  177.3130  146.8530 C   0  0  0  0  0  0  0  0  0  0  0  0
  187.7440  177.6500  147.3700 C   0  0  0  0  0  2  0  0  0  0  0  0
  184.8440  178.8160  145.0910 C   0  0  0  0  0  1  0  0  0  0  0  0
  185.7600  178.7320  146.2580 C   0  0  0  0  0  0  0  0  0  0  0  0
  185.6000  179.5110  147.2350 O   0  0  0  0  0  0  0  0  0  0  0  0
  186.8140  177.7690  146.2600 N   0  0  0  0  0  2  0  0  0  0  0  0
  188.9360  179.4410  137.2630 O   0  0  0  0  0  0  0  0  0  0  0  0
  188.6040  178.5070  138.0390 C   0  0  0  0  0  0  0  0  0  0  0  0
  188.5160  178.7760  139.4440 N   0  0  0  0  0  2  0  0  0  0  0  0
  186.1810  175.7510  135.3690 C   0  0  1  0  0  3  0  0  0  0  0  0
  185.9860  177.3800  137.1020 N   0  0  0  0  0  2  0  0  0  0  0  0
  185.2230  176.7470  136.0400 C   0  0  0  0  0  2  0  0  0  0  0  0
  187.2500  175.4540  136.4130 C   0  0  2  0  0  3  0  0  0  0  0  0
  188.3550  177.1620  137.4810 C   0  0  2  0  0  3  0  0  0  0  0  0
  189.3630  176.3980  136.6940 C   0  0  2  0  0  3  0  0  0  0  0  0
  187.1700  176.6270  137.2750 C   0  0  1  0  0  3  0  0  0  0  0  0
  185.3100  174.2600  134.9450 Cl  0  0  0  0  0  0  0  0  0  0  0  0
  188.6000  175.4700  135.8470 N   0  0  0  0  0  2  0  0  0  0  0  0
  190.2480  175.6470  137.5910 C   0  0  0  0  0  0  0  0  0  0  0  0
  190.9470  175.0540  138.2990 N   0  0  0  0  0  0  0  0  0  0  0  0
  2  1  1  6  0  0  0
  2  3  1  0  0  0  0
  3  5  1  0  0  0  0
  4  2  1  0  0  0  0
  4  6  1  0  0  0  0
  5  7  1  1  0  0  0
  6  5  1  0  0  0  0
  7  8  1  0  0  0  0
  8 10  1  0  0  0  0
 10 11  1  0  0  0  0
 10  9  2  0  0  0  0
 12 13  1  0  0  0  0
 13 15  1  0  0  0  0
 13 14  2  0  0  0  0
 15 11  1  0  0  0  0
 16 17  2  0  0  0  0
 17 18  1  0  0  0  0
 18  1  1  0  0  0  0
 19 26  1  1  0  0  0
 19 21  1  0  0  0  0
 19 22  1  0  0  0  0
 21 20  1  0  0  0  0
 22 27  1  6  0  0  0
 22 25  1  0  0  0  0
 23 17  1  6  0  0  0
 24 23  1  0  0  0  0
 24 28  1  1  0  0  0
 25 20  1  6  0  0  0
 25 23  1  0  0  0  0
 27 24  1  0  0  0  0
 28 29  3  0  0  0  0
M  END
>  <MODEL>
4

>  <REMARK>
 VINA RESULT:      -7.0      2.830      4.275
  Name = 
  9 active torsions:
  status: ('A' for Active; 'I' for Inactive)
    1  A    between atoms: C_1  and  N_12
    2  A    between atoms: C_7  and  C_16
    3  A    between atoms: C_11  and  C_20
    4  A    between atoms: C_11  and  S_21
    5  A    between atoms: N_12  and  N_29
    6  A    between atoms: C_13  and  C_18
    7  A    between atoms: C_14  and  S_21
    8  A    between atoms: C_14  and  C_25
    9  A    between atoms: N_24  and  C_25
                            x       y       z     vdW  Elec       q    Type
                         _______ _______ _______ _____ _____    ______ ____

>  <TORSDO>
F 9

$$$$
=
 OpenBabel10222422103D

 29 31  0  0  1  0  0  0  0  0999 V2000
  188.1320  177.6210  140.0510 N   0  0  0  0  0  2  0  0  0  0  0  0
  189.1160  177.9450  141.0720 C   0  0  1  0  0  3  0  0  0  0  0  0
  188.6770  177.3840  142.4140 C   0  0  0  0  0  2  0  0  0  0  0  0
  190.4380  177.2870  140.7290 C   0  0  0  0  0  2  0  0  0  0  0  0
  189.7240  176.3670  142.8250 C   0  0  1  0  0  3  0  0  0  0  0  0
  190.9580  176.7040  142.0240 C   0  0  0  0  0  2  0  0  0  0  0  0
  190.0230  176.4740  144.3080 C   0  0  0  0  0  2  0  0  0  0  0  0
  189.3750  178.0370  144.9710 S   0  0  0  0  0  0  0  0  0  0  0  0
  189.7830  176.5580  147.0980 O   0  0  0  0  0  0  0  0  0  0  0  0
  188.9780  177.2960  146.5520 C   0  0  0  0  0  0  0  0  0  0  0  0
  187.6590  177.5650  147.1930 C   0  0  0  0  0  2  0  0  0  0  0  0
  184.6270  178.7860  145.1250 C   0  0  0  0  0  1  0  0  0  0  0  0
  185.6480  178.7120  146.2020 C   0  0  0  0  0  0  0  0  0  0  0  0
  185.6360  179.5610  147.1320 O   0  0  0  0  0  0  0  0  0  0  0  0
  186.6310  177.6780  146.1720 N   0  0  0  0  0  2  0  0  0  0  0  0
  187.7070  179.3090  136.8930 O   0  0  0  0  0  0  0  0  0  0  0  0
  187.3750  178.6380  137.9050 C   0  0  0  0  0  0  0  0  0  0  0  0
  188.2970  178.5340  138.9970 N   0  0  0  0  0  2  0  0  0  0  0  0
  182.8450  178.8240  138.0950 C   0  0  1  0  0  3  0  0  0  0  0  0
  184.8290  179.5880  139.1770 N   0  0  0  0  0  2  0  0  0  0  0  0
  183.4170  179.8970  139.0330 C   0  0  0  0  0  2  0  0  0  0  0  0
  183.8070  177.6470  138.1930 C   0  0  2  0  0  3  0  0  0  0  0  0
  186.0670  177.9510  137.9150 C   0  0  2  0  0  3  0  0  0  0  0  0
  185.5950  177.0630  136.8170 C   0  0  2  0  0  3  0  0  0  0  0  0
  185.0310  178.2900  138.6530 C   0  0  1  0  0  3  0  0  0  0  0  0
  181.2250  178.3370  138.6420 Cl  0  0  0  0  0  0  0  0  0  0  0  0
  184.1270  177.0790  136.8830 N   0  0  0  0  0  2  0  0  0  0  0  0
  186.0920  175.6970  137.0150 C   0  0  0  0  0  0  0  0  0  0  0  0
  186.4840  174.6190  137.1720 N   0  0  0  0  0  0  0  0  0  0  0  0
  2  1  1  6  0  0  0
  2  3  1  0  0  0  0
  3  5  1  0  0  0  0
  4  2  1  0  0  0  0
  4  6  1  0  0  0  0
  5  7  1  1  0  0  0
  6  5  1  0  0  0  0
  7  8  1  0  0  0  0
  8 10  1  0  0  0  0
 10  9  2  0  0  0  0
 10 11  1  0  0  0  0
 12 13  1  0  0  0  0
 13 14  2  0  0  0  0
 15 13  1  0  0  0  0
 15 11  1  0  0  0  0
 16 17  2  0  0  0  0
 17 18  1  0  0  0  0
 18  1  1  0  0  0  0
 19 22  1  0  0  0  0
 19 26  1  1  0  0  0
 19 21  1  0  0  0  0
 21 20  1  0  0  0  0
 22 27  1  6  0  0  0
 22 25  1  0  0  0  0
 23 17  1  6  0  0  0
 23 25  1  0  0  0  0
 24 27  1  0  0  0  0
 24 28  1  1  0  0  0
 24 23  1  0  0  0  0
 25 20  1  6  0  0  0
 28 29  3  0  0  0  0
M  END
>  <MODEL>
5

>  <REMARK>
 VINA RESULT:      -7.0      2.628      4.145
  Name = 
  9 active torsions:
  status: ('A' for Active; 'I' for Inactive)
    1  A    between atoms: C_1  and  N_12
    2  A    between atoms: C_7  and  C_16
    3  A    between atoms: C_11  and  C_20
    4  A    between atoms: C_11  and  S_21
    5  A    between atoms: N_12  and  N_29
    6  A    between atoms: C_13  and  C_18
    7  A    between atoms: C_14  and  S_21
    8  A    between atoms: C_14  and  C_25
    9  A    between atoms: N_24  and  C_25
                            x       y       z     vdW  Elec       q    Type
                         _______ _______ _______ _____ _____    ______ ____

>  <TORSDO>
F 9

$$$$
=
 OpenBabel10222422103D

 29 31  0  0  1  0  0  0  0  0999 V2000
  185.7380  178.2650  141.0470 N   0  0  0  0  0  2  0  0  0  0  0  0
  186.8350  178.5750  141.9510 C   0  0  1  0  0  3  0  0  0  0  0  0
  187.0140  177.4480  142.9550 C   0  0  0  0  0  2  0  0  0  0  0  0
  188.1270  178.6760  141.1640 C   0  0  0  0  0  2  0  0  0  0  0  0
  188.3950  176.8670  142.7170 C   0  0  1  0  0  3  0  0  0  0  0  0
  189.1650  177.9350  141.9760 C   0  0  0  0  0  2  0  0  0  0  0  0
  189.0800  176.5520  144.0320 C   0  0  0  0  0  2  0  0  0  0  0  0
  189.5220  178.0890  144.8970 S   0  0  0  0  0  0  0  0  0  0  0  0
  190.0110  176.5350  146.9510 O   0  0  0  0  0  0  0  0  0  0  0  0
  189.2310  177.3630  146.5070 C   0  0  0  0  0  0  0  0  0  0  0  0
  188.0290  177.7540  147.2970 C   0  0  0  0  0  2  0  0  0  0  0  0
  184.6890  178.7890  145.6420 C   0  0  0  0  0  1  0  0  0  0  0  0
  185.8550  178.7930  146.5630 C   0  0  0  0  0  0  0  0  0  0  0  0
  185.9430  179.6790  147.4550 O   0  0  0  0  0  0  0  0  0  0  0  0
  186.8630  177.7920  146.4300 N   0  0  0  0  0  2  0  0  0  0  0  0
  184.1160  180.6160  138.8450 O   0  0  0  0  0  0  0  0  0  0  0  0
  184.2830  179.5380  139.4730 C   0  0  0  0  0  0  0  0  0  0  0  0
  185.3090  179.4720  140.4720 N   0  0  0  0  0  2  0  0  0  0  0  0
  183.8960  175.3280  137.8230 C   0  0  1  0  0  3  0  0  0  0  0  0
  184.7900  177.4870  137.3420 N   0  0  0  0  0  2  0  0  0  0  0  0
  184.9370  176.0860  136.9870 C   0  0  0  0  0  2  0  0  0  0  0  0
  182.8410  176.3640  138.1910 C   0  0  2  0  0  3  0  0  0  0  0  0
  183.4430  178.3700  139.1340 C   0  0  2  0  0  3  0  0  0  0  0  0
  182.6130  177.6370  140.1300 C   0  0  2  0  0  3  0  0  0  0  0  0
  183.5820  177.6120  138.0670 C   0  0  1  0  0  3  0  0  0  0  0  0
  183.1640  174.0280  136.8550 Cl  0  0  0  0  0  0  0  0  0  0  0  0
  182.4430  176.2780  139.5970 N   0  0  0  0  0  2  0  0  0  0  0  0
  181.3050  178.2860  140.2790 C   0  0  0  0  0  0  0  0  0  0  0  0
  180.2740  178.7970  140.3970 N   0  0  0  0  0  0  0  0  0  0  0  0
  2  1  1  6  0  0  0
  2  3  1  0  0  0  0
  4  2  1  0  0  0  0
  4  6  1  0  0  0  0
  5  3  1  0  0  0  0
  5  7  1  1  0  0  0
  6  5  1  0  0  0  0
  7  8  1  0  0  0  0
  8 10  1  0  0  0  0
 10  9  2  0  0  0  0
 10 11  1  0  0  0  0
 12 13  1  0  0  0  0
 13 14  2  0  0  0  0
 15 13  1  0  0  0  0
 15 11  1  0  0  0  0
 16 17  2  0  0  0  0
 17 18  1  0  0  0  0
 18  1  1  0  0  0  0
 19 26  1  6  0  0  0
 19 22  1  0  0  0  0
 21 20  1  0  0  0  0
 21 19  1  0  0  0  0
 22 27  1  1  0  0  0
 23 17  1  1  0  0  0
 23 24  1  0  0  0  0
 24 28  1  6  0  0  0
 25 20  1  1  0  0  0
 25 22  1  0  0  0  0
 25 23  1  0  0  0  0
 27 24  1  0  0  0  0
 28 29  3  0  0  0  0
M  END
>  <MODEL>
6

>  <REMARK>
 VINA RESULT:      -7.0      2.120      3.899
  Name = 
  9 active torsions:
  status: ('A' for Active; 'I' for Inactive)
    1  A    between atoms: C_1  and  N_12
    2  A    between atoms: C_7  and  C_16
    3  A    between atoms: C_11  and  C_20
    4  A    between atoms: C_11  and  S_21
    5  A    between atoms: N_12  and  N_29
    6  A    between atoms: C_13  and  C_18
    7  A    between atoms: C_14  and  S_21
    8  A    between atoms: C_14  and  C_25
    9  A    between atoms: N_24  and  C_25
                            x       y       z     vdW  Elec       q    Type
                         _______ _______ _______ _____ _____    ______ ____

>  <TORSDO>
F 9

$$$$
=
 OpenBabel10222422103D

 29 31  0  0  1  0  0  0  0  0999 V2000
  188.7090  178.2490  141.5920 N   0  0  0  0  0  2  0  0  0  0  0  0
  187.5990  177.5590  142.2320 C   0  0  1  0  0  3  0  0  0  0  0  0
  187.8880  177.3710  143.7110 C   0  0  0  0  0  2  0  0  0  0  0  0
  186.3470  178.4090  142.1300 C   0  0  0  0  0  2  0  0  0  0  0  0
  186.8280  178.1510  144.4650 C   0  0  1  0  0  3  0  0  0  0  0  0
  185.6910  178.3420  143.4900 C   0  0  0  0  0  2  0  0  0  0  0  0
  186.3470  177.3730  145.6750 C   0  0  0  0  0  2  0  0  0  0  0  0
  186.3940  178.4230  147.1590 S   0  0  0  0  0  0  0  0  0  0  0  0
  187.8510  176.9670  148.7820 O   0  0  0  0  0  0  0  0  0  0  0  0
  187.8870  177.6400  147.7640 C   0  0  0  0  0  0  0  0  0  0  0  0
  189.1750  177.8250  147.0380 C   0  0  0  0  0  2  0  0  0  0  0  0
  192.3140  175.5780  147.2880 C   0  0  0  0  0  1  0  0  0  0  0  0
  191.3680  176.6100  146.7910 C   0  0  0  0  0  0  0  0  0  0  0  0
  191.6640  177.2890  145.7720 O   0  0  0  0  0  0  0  0  0  0  0  0
  190.1330  176.8230  147.4740 N   0  0  0  0  0  2  0  0  0  0  0  0
  188.4740  179.0890  138.0930 O   0  0  0  0  0  0  0  0  0  0  0  0
  188.7880  178.4110  139.1060 C   0  0  0  0  0  0  0  0  0  0  0  0
  188.2380  178.7750  140.3790 N   0  0  0  0  0  2  0  0  0  0  0  0
  190.5050  175.0270  136.6160 C   0  0  1  0  0  3  0  0  0  0  0  0
  188.4560  175.9570  137.4110 N   0  0  0  0  0  2  0  0  0  0  0  0
  188.9900  175.0910  136.3730 C   0  0  0  0  0  2  0  0  0  0  0  0
  190.6940  175.3910  138.0830 C   0  0  2  0  0  3  0  0  0  0  0  0
  189.7390  177.2890  138.9550 C   0  0  2  0  0  3  0  0  0  0  0  0
  191.2160  177.4450  139.0540 C   0  0  2  0  0  3  0  0  0  0  0  0
  189.4770  176.1380  138.3730 C   0  0  1  0  0  3  0  0  0  0  0  0
  191.1020  173.3800  136.3130 Cl  0  0  0  0  0  0  0  0  0  0  0  0
  191.7950  176.3350  138.2850 N   0  0  0  0  0  2  0  0  0  0  0  0
  191.6450  177.3620  140.4550 C   0  0  0  0  0  0  0  0  0  0  0  0
  191.9830  177.2960  141.5600 N   0  0  0  0  0  0  0  0  0  0  0  0
  2  1  1  6  0  0  0
  2  3  1  0  0  0  0
  3  5  1  0  0  0  0
  4  2  1  0  0  0  0
  4  6  1  0  0  0  0
  5  7  1  1  0  0  0
  6  5  1  0  0  0  0
  7  8  1  0  0  0  0
  8 10  1  0  0  0  0
 10  9  2  0  0  0  0
 11 15  1  0  0  0  0
 11 10  1  0  0  0  0
 13 12  1  0  0  0  0
 13 15  1  0  0  0  0
 14 13  2  0  0  0  0
 16 17  2  0  0  0  0
 17 18  1  0  0  0  0
 18  1  1  0  0  0  0
 19 26  1  1  0  0  0
 19 22  1  0  0  0  0
 21 19  1  0  0  0  0
 21 20  1  0  0  0  0
 22 27  1  6  0  0  0
 22 25  1  0  0  0  0
 23 24  1  0  0  0  0
 23 17  1  6  0  0  0
 24 28  1  1  0  0  0
 25 20  1  6  0  0  0
 25 23  1  0  0  0  0
 27 24  1  0  0  0  0
 28 29  3  0  0  0  0
M  END
>  <MODEL>
7

>  <REMARK>
 VINA RESULT:      -6.9      3.260      4.001
  Name = 
  9 active torsions:
  status: ('A' for Active; 'I' for Inactive)
    1  A    between atoms: C_1  and  N_12
    2  A    between atoms: C_7  and  C_16
    3  A    between atoms: C_11  and  C_20
    4  A    between atoms: C_11  and  S_21
    5  A    between atoms: N_12  and  N_29
    6  A    between atoms: C_13  and  C_18
    7  A    between atoms: C_14  and  S_21
    8  A    between atoms: C_14  and  C_25
    9  A    between atoms: N_24  and  C_25
                            x       y       z     vdW  Elec       q    Type
                         _______ _______ _______ _____ _____    ______ ____

>  <TORSDO>
F 9

$$$$
=
 OpenBabel10222422103D

 29 31  0  0  1  0  0  0  0  0999 V2000
  190.2350  177.0850  140.9640 N   0  0  0  0  0  2  0  0  0  0  0  0
  189.6830  177.7980  142.1050 C   0  0  1  0  0  3  0  0  0  0  0  0
  188.2110  177.4560  142.2680 C   0  0  0  0  0  2  0  0  0  0  0  0
  190.3840  177.3490  143.3720 C   0  0  0  0  0  2  0  0  0  0  0  0
  188.0700  176.7670  143.6120 C   0  0  1  0  0  3  0  0  0  0  0  0
  189.2950  177.1590  144.4020 C   0  0  0  0  0  2  0  0  0  0  0  0
  186.8180  177.2360  144.3280 C   0  0  0  0  0  2  0  0  0  0  0  0
  187.2170  177.7430  146.0270 S   0  0  0  0  0  0  0  0  0  0  0  0
  185.1140  178.6590  147.2990 O   0  0  0  0  0  0  0  0  0  0  0  0
  185.6690  178.6260  146.2130 C   0  0  0  0  0  0  0  0  0  0  0  0
  185.0500  179.3040  145.0380 C   0  0  0  0  0  2  0  0  0  0  0  0
  181.3770  178.7090  143.9820 C   0  0  0  0  0  1  0  0  0  0  0  0
  182.8480  178.8960  143.8860 C   0  0  0  0  0  0  0  0  0  0  0  0
  183.4110  178.8520  142.7600 O   0  0  0  0  0  0  0  0  0  0  0  0
  183.6090  179.1240  145.0720 N   0  0  0  0  0  2  0  0  0  0  0  0
  189.6770  178.0210  137.5260 O   0  0  0  0  0  0  0  0  0  0  0  0
  190.1270  177.3430  138.4870 C   0  0  0  0  0  0  0  0  0  0  0  0
  189.6320  177.6030  139.8070 N   0  0  0  0  0  2  0  0  0  0  0  0
  191.6680  173.8220  136.0740 C   0  0  1  0  0  3  0  0  0  0  0  0
  189.7660  174.6230  137.2710 N   0  0  0  0  0  2  0  0  0  0  0  0
  190.1500  173.6680  136.2460 C   0  0  0  0  0  2  0  0  0  0  0  0
  192.1610  174.4410  137.3750 C   0  0  2  0  0  3  0  0  0  0  0  0
  191.1720  176.3310  138.2270 C   0  0  2  0  0  3  0  0  0  0  0  0
  192.5840  176.6720  137.9000 C   0  0  2  0  0  3  0  0  0  0  0  0
  190.9550  175.0780  137.8880 C   0  0  1  0  0  3  0  0  0  0  0  0
  192.4190  172.2280  135.8310 Cl  0  0  0  0  0  0  0  0  0  0  0  0
  193.1160  175.5270  137.1490 N   0  0  0  0  0  2  0  0  0  0  0  0
  193.3590  176.8700  139.1310 C   0  0  0  0  0  0  0  0  0  0  0  0
  193.9700  177.0260  140.1010 N   0  0  0  0  0  0  0  0  0  0  0  0
  2  1  1  6  0  0  0
  2  3  1  0  0  0  0
  2  4  1  0  0  0  0
  3  5  1  0  0  0  0
  4  6  1  0  0  0  0
  5  7  1  1  0  0  0
  5  6  1  0  0  0  0
  7  8  1  0  0  0  0
  8 10  1  0  0  0  0
 10  9  2  0  0  0  0
 11 15  1  0  0  0  0
 11 10  1  0  0  0  0
 13 12  1  0  0  0  0
 13 15  1  0  0  0  0
 14 13  2  0  0  0  0
 16 17  2  0  0  0  0
 17 18  1  0  0  0  0
 18  1  1  0  0  0  0
 19 26  1  1  0  0  0
 19 21  1  0  0  0  0
 19 22  1  0  0  0  0
 21 20  1  0  0  0  0
 22 27  1  6  0  0  0
 22 25  1  0  0  0  0
 23 17  1  6  0  0  0
 24 23  1  0  0  0  0
 24 28  1  1  0  0  0
 25 20  1  6  0  0  0
 25 23  1  0  0  0  0
 27 24  1  0  0  0  0
 28 29  3  0  0  0  0
M  END
>  <MODEL>
8

>  <REMARK>
 VINA RESULT:      -6.9      4.610      6.505
  Name = 
  9 active torsions:
  status: ('A' for Active; 'I' for Inactive)
    1  A    between atoms: C_1  and  N_12
    2  A    between atoms: C_7  and  C_16
    3  A    between atoms: C_11  and  C_20
    4  A    between atoms: C_11  and  S_21
    5  A    between atoms: N_12  and  N_29
    6  A    between atoms: C_13  and  C_18
    7  A    between atoms: C_14  and  S_21
    8  A    between atoms: C_14  and  C_25
    9  A    between atoms: N_24  and  C_25
                            x       y       z     vdW  Elec       q    Type
                         _______ _______ _______ _____ _____    ______ ____

>  <TORSDO>
F 9

$$$$
=
 OpenBabel10222422103D

 29 31  0  0  1  0  0  0  0  0999 V2000
  189.1640  177.6030  140.5780 N   0  0  0  0  0  2  0  0  0  0  0  0
  188.8580  178.0740  141.9200 C   0  0  1  0  0  3  0  0  0  0  0  0
  187.5440  177.4760  142.3930 C   0  0  0  0  0  2  0  0  0  0  0  0
  189.9310  177.6010  142.8800 C   0  0  0  0  0  2  0  0  0  0  0  0
  187.8650  176.6180  143.6020 C   0  0  1  0  0  3  0  0  0  0  0  0
  189.1990  177.1120  144.1100 C   0  0  0  0  0  2  0  0  0  0  0  0
  186.8080  176.7850  144.6760 C   0  0  0  0  0  2  0  0  0  0  0  0
  187.3190  178.0540  145.8730 S   0  0  0  0  0  0  0  0  0  0  0  0
  185.0400  178.4840  147.0960 O   0  0  0  0  0  0  0  0  0  0  0  0
  185.6490  178.6720  146.0550 C   0  0  0  0  0  0  0  0  0  0  0  0
  184.9950  179.4000  144.9300 C   0  0  0  0  0  2  0  0  0  0  0  0
  181.2820  178.7740  144.0410 C   0  0  0  0  0  1  0  0  0  0  0  0
  182.7530  178.9240  143.8860 C   0  0  0  0  0  0  0  0  0  0  0  0
  183.2810  178.7610  142.7540 O   0  0  0  0  0  0  0  0  0  0  0  0
  183.5520  179.2510  145.0220 N   0  0  0  0  0  2  0  0  0  0  0  0
  188.9690  179.5550  137.5520 O   0  0  0  0  0  0  0  0  0  0  0  0
  188.8540  178.5410  138.2890 C   0  0  0  0  0  0  0  0  0  0  0  0
  189.0270  178.6940  139.7040 N   0  0  0  0  0  2  0  0  0  0  0  0
  186.3770  175.9480  135.5070 C   0  0  1  0  0  3  0  0  0  0  0  0
  186.2150  177.4960  137.3160 N   0  0  0  0  0  2  0  0  0  0  0  0
  185.4380  176.9250  136.2290 C   0  0  0  0  0  2  0  0  0  0  0  0
  187.4480  175.5880  136.5290 C   0  0  2  0  0  3  0  0  0  0  0  0
  188.5830  177.2270  137.6700 C   0  0  2  0  0  3  0  0  0  0  0  0
  189.5750  176.4880  136.8420 C   0  0  2  0  0  3  0  0  0  0  0  0
  187.3900  176.7190  137.4460 C   0  0  1  0  0  3  0  0  0  0  0  0
  185.4840  174.4910  135.0170 Cl  0  0  0  0  0  0  0  0  0  0  0  0
  188.7950  175.6120  135.9570 N   0  0  0  0  0  2  0  0  0  0  0  0
  190.4550  175.6830  137.6970 C   0  0  0  0  0  0  0  0  0  0  0  0
  191.1490  175.0480  138.3710 N   0  0  0  0  0  0  0  0  0  0  0  0
  2  1  1  6  0  0  0
  2  3  1  0  0  0  0
  2  4  1  0  0  0  0
  3  5  1  0  0  0  0
  4  6  1  0  0  0  0
  5  6  1  0  0  0  0
  5  7  1  1  0  0  0
  7  8  1  0  0  0  0
  8 10  1  0  0  0  0
 10  9  2  0  0  0  0
 11 15  1  0  0  0  0
 11 10  1  0  0  0  0
 13 12  1  0  0  0  0
 13 15  1  0  0  0  0
 14 13  2  0  0  0  0
 16 17  2  0  0  0  0
 17 18  1  0  0  0  0
 18  1  1  0  0  0  0
 19 26  1  1  0  0  0
 19 21  1  0  0  0  0
 19 22  1  0  0  0  0
 21 20  1  0  0  0  0
 22 27  1  6  0  0  0
 22 25  1  0  0  0  0
 23 17  1  6  0  0  0
 24 23  1  0  0  0  0
 24 28  1  1  0  0  0
 25 20  1  6  0  0  0
 25 23  1  0  0  0  0
 27 24  1  0  0  0  0
 28 29  3  0  0  0  0
M  END
>  <MODEL>
9

>  <REMARK>
 VINA RESULT:      -6.9      3.208      4.908
  Name = 
  9 active torsions:
  status: ('A' for Active; 'I' for Inactive)
    1  A    between atoms: C_1  and  N_12
    2  A    between atoms: C_7  and  C_16
    3  A    between atoms: C_11  and  C_20
    4  A    between atoms: C_11  and  S_21
    5  A    between atoms: N_12  and  N_29
    6  A    between atoms: C_13  and  C_18
    7  A    between atoms: C_14  and  S_21
    8  A    between atoms: C_14  and  C_25
    9  A    between atoms: N_24  and  C_25
                            x       y       z     vdW  Elec       q    Type
                         _______ _______ _______ _____ _____    ______ ____

>  <TORSDO>
F 9

$$$$
