=
 OpenBabel10222422133D

 70 79  0  0  1  0  0  0  0  0999 V2000
  189.7230  177.2950  139.7430 C   0  0  2  0  0  3  0  0  0  0  0  0
  190.6880  176.1700  139.4330 C   0  0  0  0  0  2  0  0  0  0  0  0
  190.4550  175.8560  137.9840 C   0  0  1  0  0  3  0  0  0  0  0  0
  190.4080  177.4410  137.1000 S   0  0  0  0  0  0  0  0  0  0  0  0
  189.8330  178.3010  138.6050 C   0  0  1  0  0  3  0  0  0  0  0  0
  190.0200  177.9530  141.0890 C   0  0  0  0  0  2  0  0  0  0  0  0
  190.6270  176.9560  142.0670 C   0  0  1  0  0  3  0  0  0  0  0  0
  191.7600  177.4990  142.6540 F   0  0  0  0  0  0  0  0  0  0  0  0
  189.6080  176.5880  143.1370 C   0  0  0  0  0  2  0  0  0  0  0  0
  189.1250  177.7560  143.7970 O   0  0  0  0  0  0  0  0  0  0  0  0
  188.2700  177.7120  144.9030 C   0  0  0  0  0  0  0  0  0  0  0  0
  188.6680  178.0930  146.0370 O   0  0  0  0  0  0  0  0  0  0  0  0
  186.9980  178.3040  142.5610 O   0  0  0  0  0  1  0  0  0  0  0  0
  185.9120  179.0340  146.0690 O   0  0  0  0  0  0  0  0  0  0  0  0
  185.0340  178.6020  143.8860 C   0  0  2  0  0  3  0  0  0  0  0  0
  186.1450  177.6670  143.4620 C   0  0  2  0  0  3  0  0  0  0  0  0
  186.8540  177.2340  144.7450 C   0  0  2  0  0  3  0  0  0  0  0  0
  184.8390  178.4320  145.3890 C   0  0  1  0  0  3  0  0  0  0  0  0
  185.9690  177.6330  145.9250 C   0  0  2  0  0  3  0  0  0  0  0  0
  183.6350  179.2500  140.6920 C   0  0  0  0  0  2  0  0  0  0  0  0
  181.3960  179.1870  142.5120 C   0  0  0  0  0  2  0  0  0  0  0  0
  181.5020  178.0320  141.5110 C   0  0  2  0  0  3  0  0  0  0  0  0
  184.0740  178.1100  141.6030 C   0  0  1  0  0  3  0  0  0  0  0  0
  182.6410  179.3610  143.3900 C   0  0  0  0  0  2  0  0  0  0  0  0
  183.7490  178.3290  143.0990 C   0  0  2  0  0  3  0  0  0  0  0  0
  182.8340  177.9560  140.7230 C   0  0  2  0  0  3  0  0  0  0  0  0
  180.6940  178.6990  139.3600 O   0  0  0  0  0  1  0  0  0  0  0  0
  180.3200  178.0860  140.5590 C   0  0  0  0  0  2  0  0  0  0  0  0
  191.5320  174.9230  137.4500 C   0  0  0  0  0  2  0  0  0  0  0  0
  192.0670  175.3920  136.0990 C   0  0  0  0  0  2  0  0  0  0  0  0
  194.7130  173.7890  135.6900 C   0  0  1  0  0  3  0  0  0  0  0  0
  196.1980  174.1210  135.3890 C   0  0  1  0  0  3  0  0  0  0  0  0
  194.5580  173.0310  136.8560 O   0  0  0  0  0  1  0  0  0  0  0  0
  193.3910  176.1390  136.2490 C   0  0  2  0  0  3  0  0  0  0  0  0
  195.9980  175.6090  135.7370 C   0  0  0  0  0  2  0  0  0  0  0  0
  194.5550  175.2690  135.9500 C   0  0  2  0  0  0  0  0  0  0  0  0
  194.1600  175.5560  137.2750 O   0  0  0  0  0  0  0  0  0  0  0  0
  197.2390  173.3740  136.2440 C   0  0  1  0  0  3  0  0  0  0  0  0
  197.4110  171.9560  135.8090 C   0  0  0  0  0  0  0  0  0  0  0  0
  197.3440  171.6100  134.4600 O   0  0  0  0  0  0  0  0  0  0  0  0
  197.6430  171.0670  136.6660 O   0  0  0  0  0  1  0  0  0  0  0  0
  198.6230  174.4510  138.3500 C   0  0  0  0  0  1  0  0  0  0  0  0
  198.8410  174.2340  136.5590 S   0  0  0  0  0  0  0  0  0  0  0  0
  188.4710  178.9170  138.3410 C   0  0  0  0  0  2  0  0  0  0  0  0
  187.4280  177.9370  138.5960 N   0  0  0  0  0  2  0  0  0  0  0  0
  183.1940  174.6170  134.4780 S   0  0  0  0  0  0  0  0  0  0  0  0
  182.8320  177.4100  136.8270 N   0  0  0  0  0  2  0  0  0  0  0  0
  181.4900  174.8960  134.9880 C   0  0  2  0  0  3  0  0  0  0  0  0
  181.2750  176.0110  135.5980 N   0  0  0  0  0  2  0  0  0  0  0  0
  183.5000  176.3900  134.7920 C   0  0  1  0  0  3  0  0  0  0  0  0
  186.9480  176.8670  136.4150 C   0  0  0  0  0  3  0  0  0  0  0  0
  182.3890  176.8470  135.6220 N   0  0  2  0  0  0  0  0  0  0  0  0
  186.0310  176.4390  135.4370 C   0  0  0  0  0  3  0  0  0  0  0  0
  185.1250  177.7110  137.8010 C   0  0  0  0  0  3  0  0  0  0  0  0
  184.6750  176.6510  135.6740 C   0  0  0  0  0  0  0  0  0  0  0  0
  184.2410  177.2830  136.8140 C   0  0  0  0  0  0  0  0  0  0  0  0
  186.5000  177.5050  137.5950 C   0  0  0  0  0  0  0  0  0  0  0  0
  180.3960  173.8780  134.8510 C   0  0  0  0  0  2  0  0  0  0  0  0
  180.0030  173.1590  136.1500 C   0  0  2  0  0  3  0  0  0  0  0  0
  182.0840  173.3830  137.5390 O   0  0  0  0  0  0  0  0  0  0  0  0
  180.7430  173.6890  137.3400 C   0  0  0  0  0  0  0  0  0  0  0  0
  180.1340  174.3920  138.1870 O   0  0  0  0  0  1  0  0  0  0  0  0
  180.0320  171.6330  136.0700 C   0  0  0  0  0  2  0  0  0  0  0  0
  180.4340  169.8050  134.4500 C   0  0  0  0  0  1  0  0  0  0  0  0
  180.9220  171.1570  134.9310 C   0  0  2  0  0  3  0  0  0  0  0  0
  183.3090  170.7820  134.5320 C   0  0  0  0  0  3  0  0  0  0  0  0
  182.3360  171.0520  135.3940 C   0  0  0  0  0  3  0  0  0  0  0  0
  185.2420  171.5420  135.6820 O   0  0  0  0  0  0  0  0  0  0  0  0
  185.4920  169.4780  134.5370 C   0  0  0  0  0  1  0  0  0  0  0  0
  184.7070  170.6630  134.9560 C   0  0  0  0  0  0  0  0  0  0  0  0
  1  6  1  1  0  0  0
  2  1  1  0  0  0  0
  3 29  1  6  0  0  0
  3  2  1  0  0  0  0
  4  3  1  0  0  0  0
  4  5  1  0  0  0  0
  5 44  1  6  0  0  0
  5  1  1  0  0  0  0
  6  7  1  0  0  0  0
  7  8  1  1  0  0  0
  7  9  1  0  0  0  0
  9 10  1  0  0  0  0
 10 11  1  0  0  0  0
 11 12  2  0  0  0  0
 15 25  1  6  0  0  0
 15 18  1  0  0  0  0
 16 13  1  6  0  0  0
 16 15  1  0  0  0  0
 16 17  1  0  0  0  0
 17 11  1  1  0  0  0
 17 19  1  0  0  0  0
 18 19  1  0  0  0  0
 18 14  1  1  0  0  0
 19 14  1  1  0  0  0
 21 24  1  0  0  0  0
 22 28  1  6  0  0  0
 22 21  1  0  0  0  0
 23 20  1  6  0  0  0
 23 25  1  0  0  0  0
 25 24  1  6  0  0  0
 26 20  1  6  0  0  0
 26 22  1  0  0  0  0
 26 23  1  0  0  0  0
 27 28  1  0  0  0  0
 30 29  1  0  0  0  0
 31 36  1  0  0  0  0
 31 33  1  1  0  0  0
 32 31  1  0  0  0  0
 32 35  1  0  0  0  0
 32 38  1  1  0  0  0
 34 30  1  6  0  0  0
 34 37  1  0  0  0  0
 36 35  1  6  0  0  0
 36 34  1  0  0  0  0
 36 37  1  0  0  0  0
 38 39  1  6  0  0  0
 38 43  1  0  0  0  0
 39 41  1  0  0  0  0
 40 39  2  0  0  0  0
 43 42  1  0  0  0  0
 44 45  1  0  0  0  0
 46 48  1  0  0  0  0
 48 58  1  1  0  0  0
 48 49  1  0  0  0  0
 50 46  1  1  0  0  0
 50 52  1  0  0  0  0
 50 55  1  0  0  0  0
 51 57  1  0  0  0  0
 52 49  1  1  0  0  0
 52 47  1  0  0  0  0
 53 55  1  0  0  0  0
 53 51  2  0  0  0  0
 55 56  2  0  0  0  0
 56 47  1  0  0  0  0
 56 54  1  0  0  0  0
 57 54  2  0  0  0  0
 57 45  1  0  0  0  0
 59 58  1  6  0  0  0
 59 61  1  0  0  0  0
 61 60  2  0  0  0  0
 61 62  1  0  0  0  0
 63 59  1  0  0  0  0
 65 64  1  1  0  0  0
 65 67  1  0  0  0  0
 65 63  1  0  0  0  0
 66 70  1  0  0  0  0
 66 67  2  0  0  0  0
 69 70  1  0  0  0  0
 70 68  2  0  0  0  0
M  END
>  <MODEL>
1

>  <REMARK>
 VINA RESULT:      -6.1      0.000      0.000
  Name = 
  24 active torsions:
  status: ('A' for Active; 'I' for Inactive)
    1  A    between atoms: C_1  and  C_25
    2  A    between atoms: C_1  and  C_34
    3  A    between atoms: C_1  and  C_62
    4  A    between atoms: C_4  and  C_29
    5  A    between atoms: C_4  and  C_33
    6  A    between atoms: C_6  and  C_8
    7  A    between atoms: N_7  and  C_36
    8  A    between atoms: N_7  and  C_69
    9  A    between atoms: C_8  and  C_11
   10  A    between atoms: C_8  and  S_48
   11  A    between atoms: C_9  and  C_44
   12  A    between atoms: C_12  and  O_27
   13  A    between atoms: C_12  and  C_41
   14  A    between atoms: C_18  and  C_62
   15  A    between atoms: C_21  and  C_61
   16  A    between atoms: C_26  and  C_29
   17  A    between atoms: O_27  and  C_53
   18  A    between atoms: C_31  and  C_34
   19  A    between atoms: C_31  and  C_58
   20  A    between atoms: C_32  and  C_44
   21  A    between atoms: C_32  and  C_53
   22  A    between atoms: C_36  and  C_65
   23  A    between atoms: C_40  and  C_67
   24  A    between atoms: C_51  and  C_57
                            x       y       z     vdW  Elec       q    Type
                         _______ _______ _______ _____ _____    ______ ____

>  <TORSDO>
F 24

$$$$
=
 OpenBabel10222422133D

 70 79  0  0  1  0  0  0  0  0999 V2000
  190.6700  177.1490  141.9640 C   0  0  2  0  0  3  0  0  0  0  0  0
  192.1720  177.2750  141.8260 C   0  0  0  0  0  2  0  0  0  0  0  0
  192.4620  176.8620  140.4120 C   0  0  1  0  0  3  0  0  0  0  0  0
  191.2580  177.7160  139.3560 S   0  0  0  0  0  0  0  0  0  0  0  0
  190.0550  177.7880  140.7270 C   0  0  1  0  0  3  0  0  0  0  0  0
  190.1520  177.8100  143.2400 C   0  0  0  0  0  2  0  0  0  0  0  0
  191.0990  177.5680  144.4080 C   0  0  1  0  0  3  0  0  0  0  0  0
  191.8660  178.7010  144.6370 F   0  0  0  0  0  0  0  0  0  0  0  0
  190.3040  177.2130  145.6580 C   0  0  0  0  0  2  0  0  0  0  0  0
  188.9460  177.6290  145.5290 O   0  0  0  0  0  0  0  0  0  0  0  0
  188.0070  177.5030  146.5570 C   0  0  0  0  0  0  0  0  0  0  0  0
  188.3730  177.4810  147.7620 O   0  0  0  0  0  0  0  0  0  0  0  0
  187.3170  177.0480  143.9540 O   0  0  0  0  0  1  0  0  0  0  0  0
  186.2290  179.8260  146.2170 O   0  0  0  0  0  0  0  0  0  0  0  0
  185.4900  178.5370  144.3430 C   0  0  2  0  0  3  0  0  0  0  0  0
  186.1930  177.2620  144.7530 C   0  0  2  0  0  3  0  0  0  0  0  0
  186.5400  177.4210  146.2330 C   0  0  2  0  0  3  0  0  0  0  0  0
  185.0860  179.2690  145.6180 C   0  0  1  0  0  3  0  0  0  0  0  0
  185.7580  178.6190  146.7710 C   0  0  2  0  0  3  0  0  0  0  0  0
  184.3960  179.1440  141.0240 C   0  0  0  0  0  2  0  0  0  0  0  0
  181.9940  179.0640  142.6210 C   0  0  0  0  0  2  0  0  0  0  0  0
  182.2090  177.9030  141.6450 C   0  0  2  0  0  3  0  0  0  0  0  0
  184.7600  178.0160  141.9830 C   0  0  1  0  0  3  0  0  0  0  0  0
  183.1460  179.2600  143.6130 C   0  0  0  0  0  2  0  0  0  0  0  0
  184.2900  178.2410  143.4390 C   0  0  2  0  0  3  0  0  0  0  0  0
  183.6120  177.8390  140.9890 C   0  0  2  0  0  3  0  0  0  0  0  0
  180.1200  178.8350  140.9470 O   0  0  0  0  0  1  0  0  0  0  0  0
  181.1250  177.9340  140.5830 C   0  0  0  0  0  2  0  0  0  0  0  0
  193.9000  177.1840  140.0360 C   0  0  0  0  0  2  0  0  0  0  0  0
  194.6170  175.9670  139.4550 C   0  0  0  0  0  2  0  0  0  0  0  0
  195.2540  173.0960  138.4080 C   0  0  1  0  0  3  0  0  0  0  0  0
  194.6340  172.1020  137.3910 C   0  0  1  0  0  3  0  0  0  0  0  0
  196.5960  173.3820  138.1300 O   0  0  0  0  0  1  0  0  0  0  0  0
  193.9910  175.5270  138.1320 C   0  0  2  0  0  3  0  0  0  0  0  0
  193.7550  173.2010  136.7620 C   0  0  0  0  0  2  0  0  0  0  0  0
  194.3200  174.1180  137.8040 C   0  0  2  0  0  0  0  0  0  0  0  0
  195.0000  175.2010  137.2050 O   0  0  0  0  0  0  0  0  0  0  0  0
  195.6260  171.4180  136.4320 C   0  0  1  0  0  3  0  0  0  0  0  0
  195.6630  169.9370  136.6250 C   0  0  0  0  0  0  0  0  0  0  0  0
  196.7570  169.3240  137.2320 O   0  0  0  0  0  1  0  0  0  0  0  0
  194.6860  169.2380  136.2590 O   0  0  0  0  0  0  0  0  0  0  0  0
  193.7770  171.6290  134.4210 C   0  0  0  0  0  1  0  0  0  0  0  0
  195.5560  171.9140  134.6560 S   0  0  0  0  0  0  0  0  0  0  0  0
  188.8000  177.0270  140.3350 C   0  0  0  0  0  2  0  0  0  0  0  0
  189.0190  176.3300  139.0780 N   0  0  0  0  0  2  0  0  0  0  0  0
  184.0430  174.8490  134.7250 S   0  0  0  0  0  0  0  0  0  0  0  0
  184.6420  177.5640  137.1170 N   0  0  0  0  0  2  0  0  0  0  0  0
  182.5440  175.7410  135.1720 C   0  0  2  0  0  3  0  0  0  0  0  0
  182.7330  176.8530  135.7970 N   0  0  0  0  0  2  0  0  0  0  0  0
  184.9720  176.3790  135.0880 C   0  0  1  0  0  3  0  0  0  0  0  0
  188.2730  175.5270  136.8570 C   0  0  0  0  0  3  0  0  0  0  0  0
  184.0760  177.2130  135.8830 N   0  0  2  0  0  0  0  0  0  0  0  0
  187.3080  175.4770  135.8350 C   0  0  0  0  0  3  0  0  0  0  0  0
  186.8360  176.9830  138.1870 C   0  0  0  0  0  3  0  0  0  0  0  0
  186.1190  176.1790  136.0220 C   0  0  0  0  0  0  0  0  0  0  0  0
  185.9010  176.9210  137.1570 C   0  0  0  0  0  0  0  0  0  0  0  0
  188.0430  176.2800  138.0320 C   0  0  0  0  0  0  0  0  0  0  0  0
  181.1570  175.2060  134.9700 C   0  0  0  0  0  2  0  0  0  0  0  0
  180.5090  174.5790  136.2130 C   0  0  2  0  0  3  0  0  0  0  0  0
  180.1110  176.8210  137.2710 O   0  0  0  0  0  0  0  0  0  0  0  0
  180.5290  175.5020  137.3930 C   0  0  0  0  0  0  0  0  0  0  0  0
  180.9600  175.0850  138.4990 O   0  0  0  0  0  1  0  0  0  0  0  0
  181.0090  173.1750  136.5550 C   0  0  0  0  0  2  0  0  0  0  0  0
  180.0700  171.2040  135.3870 C   0  0  0  0  0  1  0  0  0  0  0  0
  181.1080  172.3070  135.3100 C   0  0  2  0  0  3  0  0  0  0  0  0
  182.6760  170.4350  135.5040 C   0  0  0  0  0  3  0  0  0  0  0  0
  182.4730  171.7130  135.2060 C   0  0  0  0  0  3  0  0  0  0  0  0
  185.0490  170.5260  135.5030 O   0  0  0  0  0  0  0  0  0  0  0  0
  184.1190  168.3550  135.2590 C   0  0  0  0  0  1  0  0  0  0  0  0
  184.0060  169.8240  135.4220 C   0  0  0  0  0  0  0  0  0  0  0  0
  1  6  1  1  0  0  0
  2  1  1  0  0  0  0
  3 29  1  6  0  0  0
  3  2  1  0  0  0  0
  4  3  1  0  0  0  0
  4  5  1  0  0  0  0
  5 44  1  6  0  0  0
  5  1  1  0  0  0  0
  6  7  1  0  0  0  0
  7  8  1  1  0  0  0
  7  9  1  0  0  0  0
 10  9  1  0  0  0  0
 10 11  1  0  0  0  0
 11 12  2  0  0  0  0
 15 25  1  6  0  0  0
 15 16  1  0  0  0  0
 15 18  1  0  0  0  0
 16 13  1  6  0  0  0
 16 17  1  0  0  0  0
 17 11  1  6  0  0  0
 17 19  1  0  0  0  0
 18 14  1  6  0  0  0
 18 19  1  0  0  0  0
 19 14  1  6  0  0  0
 21 24  1  0  0  0  0
 22 28  1  6  0  0  0
 22 21  1  0  0  0  0
 23 20  1  6  0  0  0
 23 25  1  0  0  0  0
 25 24  1  6  0  0  0
 26 20  1  6  0  0  0
 26 22  1  0  0  0  0
 26 23  1  0  0  0  0
 28 27  1  0  0  0  0
 30 29  1  0  0  0  0
 31 33  1  6  0  0  0
 32 38  1  6  0  0  0
 32 31  1  0  0  0  0
 34 30  1  1  0  0  0
 35 32  1  0  0  0  0
 36 35  1  6  0  0  0
 36 34  1  0  0  0  0
 36 31  1  0  0  0  0
 37 36  1  0  0  0  0
 37 34  1  0  0  0  0
 38 43  1  6  0  0  0
 38 39  1  0  0  0  0
 39 40  1  0  0  0  0
 41 39  2  0  0  0  0
 42 43  1  0  0  0  0
 45 44  1  0  0  0  0
 46 48  1  0  0  0  0
 47 56  1  0  0  0  0
 48 58  1  1  0  0  0
 48 49  1  0  0  0  0
 50 46  1  1  0  0  0
 50 52  1  0  0  0  0
 50 55  1  0  0  0  0
 51 57  1  0  0  0  0
 52 49  1  1  0  0  0
 52 47  1  0  0  0  0
 53 55  1  0  0  0  0
 53 51  2  0  0  0  0
 55 56  2  0  0  0  0
 56 54  1  0  0  0  0
 57 54  2  0  0  0  0
 57 45  1  0  0  0  0
 59 58  1  6  0  0  0
 59 63  1  0  0  0  0
 59 61  1  0  0  0  0
 60 61  2  0  0  0  0
 61 62  1  0  0  0  0
 65 64  1  1  0  0  0
 65 63  1  0  0  0  0
 67 65  1  0  0  0  0
 67 66  2  0  0  0  0
 69 70  1  0  0  0  0
 70 68  2  0  0  0  0
 70 66  1  0  0  0  0
M  END
>  <MODEL>
2

>  <REMARK>
 VINA RESULT:      -5.1      1.751      2.282
  Name = 
  24 active torsions:
  status: ('A' for Active; 'I' for Inactive)
    1  A    between atoms: C_1  and  C_25
    2  A    between atoms: C_1  and  C_34
    3  A    between atoms: C_1  and  C_62
    4  A    between atoms: C_4  and  C_29
    5  A    between atoms: C_4  and  C_33
    6  A    between atoms: C_6  and  C_8
    7  A    between atoms: N_7  and  C_36
    8  A    between atoms: N_7  and  C_69
    9  A    between atoms: C_8  and  C_11
   10  A    between atoms: C_8  and  S_48
   11  A    between atoms: C_9  and  C_44
   12  A    between atoms: C_12  and  O_27
   13  A    between atoms: C_12  and  C_41
   14  A    between atoms: C_18  and  C_62
   15  A    between atoms: C_21  and  C_61
   16  A    between atoms: C_26  and  C_29
   17  A    between atoms: O_27  and  C_53
   18  A    between atoms: C_31  and  C_34
   19  A    between atoms: C_31  and  C_58
   20  A    between atoms: C_32  and  C_44
   21  A    between atoms: C_32  and  C_53
   22  A    between atoms: C_36  and  C_65
   23  A    between atoms: C_40  and  C_67
   24  A    between atoms: C_51  and  C_57
                            x       y       z     vdW  Elec       q    Type
                         _______ _______ _______ _____ _____    ______ ____

>  <TORSDO>
F 24

$$$$
=
 OpenBabel10222422133D

 70 79  0  0  1  0  0  0  0  0999 V2000
  190.0670  175.9590  135.1780 C   0  0  2  0  0  3  0  0  0  0  0  0
  189.1220  175.0570  134.4140 C   0  0  0  0  0  2  0  0  0  0  0  0
  187.8150  175.1670  135.1440 C   0  0  1  0  0  3  0  0  0  0  0  0
  187.5280  176.9330  135.4490 S   0  0  0  0  0  0  0  0  0  0  0  0
  189.3230  177.2620  135.4410 C   0  0  1  0  0  3  0  0  0  0  0  0
  191.3650  176.2120  134.4140 C   0  0  0  0  0  2  0  0  0  0  0  0
  192.5210  176.4850  135.3670 C   0  0  1  0  0  3  0  0  0  0  0  0
  192.1000  176.3230  136.6790 F   0  0  0  0  0  0  0  0  0  0  0  0
  193.6780  175.5420  135.0670 C   0  0  0  0  0  2  0  0  0  0  0  0
  193.3040  174.1880  135.3150 O   0  0  0  0  0  0  0  0  0  0  0  0
  193.1000  173.6730  136.5980 C   0  0  0  0  0  0  0  0  0  0  0  0
  191.9430  173.6400  137.1000 O   0  0  0  0  0  0  0  0  0  0  0  0
  194.2630  175.3240  138.4360 O   0  0  0  0  0  1  0  0  0  0  0  0
  195.8630  173.4730  135.6020 O   0  0  0  0  0  0  0  0  0  0  0  0
  196.3340  174.3290  137.7850 C   0  0  2  0  0  3  0  0  0  0  0  0
  194.9420  174.1100  138.3350 C   0  0  2  0  0  3  0  0  0  0  0  0
  194.2580  173.1250  137.3860 C   0  0  2  0  0  3  0  0  0  0  0  0
  196.6070  173.2250  136.7690 C   0  0  1  0  0  3  0  0  0  0  0  0
  195.3340  172.5150  136.4890 C   0  0  2  0  0  3  0  0  0  0  0  0
  197.2370  176.3090  140.5860 C   0  0  0  0  0  2  0  0  0  0  0  0
  199.7080  175.1700  139.6230 C   0  0  0  0  0  2  0  0  0  0  0  0
  199.1940  174.6580  140.9720 C   0  0  2  0  0  3  0  0  0  0  0  0
  196.7500  174.9160  140.2050 C   0  0  1  0  0  3  0  0  0  0  0  0
  198.7020  175.0110  138.4770 C   0  0  0  0  0  2  0  0  0  0  0  0
  197.3750  174.3540  138.9080 C   0  0  2  0  0  3  0  0  0  0  0  0
  197.7540  175.0940  141.3430 C   0  0  2  0  0  3  0  0  0  0  0  0
  199.6020  176.0310  142.8880 O   0  0  0  0  0  1  0  0  0  0  0  0
  200.1710  175.0560  142.0640 C   0  0  0  0  0  2  0  0  0  0  0  0
  186.6920  174.5220  134.3470 C   0  0  0  0  0  2  0  0  0  0  0  0
  185.9860  173.4300  135.1490 C   0  0  0  0  0  2  0  0  0  0  0  0
  184.0870  175.5190  136.4790 C   0  0  1  0  0  3  0  0  0  0  0  0
  182.6640  176.0790  136.2160 C   0  0  1  0  0  3  0  0  0  0  0  0
  184.2230  174.9820  137.7640 O   0  0  0  0  0  1  0  0  0  0  0  0
  184.4970  173.3640  134.8160 C   0  0  2  0  0  3  0  0  0  0  0  0
  182.3310  174.9370  135.2360 C   0  0  0  0  0  2  0  0  0  0  0  0
  183.7350  174.4640  135.4570 C   0  0  2  0  0  0  0  0  0  0  0  0
  183.7470  173.1560  135.9900 O   0  0  0  0  0  0  0  0  0  0  0  0
  181.7460  176.1840  137.4480 C   0  0  1  0  0  3  0  0  0  0  0  0
  181.8060  177.5370  138.0800 C   0  0  0  0  0  0  0  0  0  0  0  0
  180.7700  177.9910  138.8940 O   0  0  0  0  0  1  0  0  0  0  0  0
  182.8140  178.2640  137.8960 O   0  0  0  0  0  0  0  0  0  0  0  0
  179.9840  174.5990  138.8220 C   0  0  0  0  0  1  0  0  0  0  0  0
  180.0250  175.5440  137.2710 S   0  0  0  0  0  0  0  0  0  0  0  0
  189.7380  177.8180  136.7920 C   0  0  0  0  0  2  0  0  0  0  0  0
  189.3240  176.9080  137.8470 N   0  0  0  0  0  2  0  0  0  0  0  0
  190.9740  178.6850  144.1740 S   0  0  0  0  0  0  0  0  0  0  0  0
  188.9090  176.0340  142.7050 N   0  0  0  0  0  2  0  0  0  0  0  0
  189.8060  177.9690  145.3420 C   0  0  2  0  0  3  0  0  0  0  0  0
  189.2470  176.8730  144.9570 N   0  0  0  0  0  2  0  0  0  0  0  0
  190.9540  177.0870  143.2890 C   0  0  1  0  0  3  0  0  0  0  0  0
  191.0030  177.6820  139.4950 C   0  0  0  0  0  3  0  0  0  0  0  0
  189.7640  176.3840  143.7600 N   0  0  2  0  0  0  0  0  0  0  0  0
  191.4590  177.7830  140.8220 C   0  0  0  0  0  3  0  0  0  0  0  0
  189.0370  176.4380  140.2310 C   0  0  0  0  0  3  0  0  0  0  0  0
  190.6810  177.2130  141.8270 C   0  0  0  0  0  0  0  0  0  0  0  0
  189.5160  176.5480  141.5340 C   0  0  0  0  0  0  0  0  0  0  0  0
  189.7960  177.0090  139.1950 C   0  0  0  0  0  0  0  0  0  0  0  0
  189.3860  178.6320  146.6210 C   0  0  0  0  0  2  0  0  0  0  0  0
  187.9840  178.2550  147.1240 C   0  0  2  0  0  3  0  0  0  0  0  0
  188.0850  178.1820  149.6320 O   0  0  0  0  0  1  0  0  0  0  0  0
  188.0260  177.5050  148.4200 C   0  0  0  0  0  0  0  0  0  0  0  0
  188.0410  176.2480  148.4090 O   0  0  0  0  0  0  0  0  0  0  0  0
  187.0910  177.5810  146.0820 C   0  0  0  0  0  2  0  0  0  0  0  0
  184.8190  178.5650  146.1140 C   0  0  0  0  0  1  0  0  0  0  0  0
  186.1650  178.5880  145.4160 C   0  0  2  0  0  3  0  0  0  0  0  0
  184.9160  178.6530  143.3100 C   0  0  0  0  0  3  0  0  0  0  0  0
  185.9940  178.2500  143.9720 C   0  0  0  0  0  3  0  0  0  0  0  0
  183.6710  177.7380  141.5070 O   0  0  0  0  0  0  0  0  0  0  0  0
  185.7450  178.7240  140.9070 C   0  0  0  0  0  1  0  0  0  0  0  0
  184.7130  178.3300  141.8950 C   0  0  0  0  0  0  0  0  0  0  0  0
  1  6  1  6  0  0  0
  1  5  1  0  0  0  0
  2  3  1  0  0  0  0
  2  1  1  0  0  0  0
  3 29  1  6  0  0  0
  3  4  1  0  0  0  0
  5  4  1  0  0  0  0
  5 44  1  1  0  0  0
  6  7  1  0  0  0  0
  7  8  1  1  0  0  0
  9 10  1  0  0  0  0
  9  7  1  0  0  0  0
 10 11  1  0  0  0  0
 11 12  2  0  0  0  0
 15 16  1  0  0  0  0
 15 25  1  1  0  0  0
 16 13  1  6  0  0  0
 17 11  1  6  0  0  0
 17 16  1  0  0  0  0
 18 14  1  6  0  0  0
 18 15  1  0  0  0  0
 19 14  1  6  0  0  0
 19 18  1  0  0  0  0
 19 17  1  0  0  0  0
 21 22  1  0  0  0  0
 22 26  1  0  0  0  0
 22 28  1  1  0  0  0
 23 20  1  6  0  0  0
 23 26  1  0  0  0  0
 24 21  1  0  0  0  0
 25 24  1  6  0  0  0
 25 23  1  0  0  0  0
 26 20  1  6  0  0  0
 28 27  1  0  0  0  0
 29 30  1  0  0  0  0
 31 33  1  1  0  0  0
 32 31  1  0  0  0  0
 32 38  1  1  0  0  0
 34 30  1  1  0  0  0
 34 36  1  0  0  0  0
 34 37  1  0  0  0  0
 35 32  1  0  0  0  0
 36 35  1  6  0  0  0
 36 37  1  0  0  0  0
 36 31  1  0  0  0  0
 38 43  1  6  0  0  0
 38 39  1  0  0  0  0
 39 40  1  0  0  0  0
 41 39  2  0  0  0  0
 43 42  1  0  0  0  0
 44 45  1  0  0  0  0
 45 57  1  0  0  0  0
 46 48  1  0  0  0  0
 48 58  1  6  0  0  0
 49 48  1  0  0  0  0
 50 55  1  6  0  0  0
 50 52  1  0  0  0  0
 50 46  1  0  0  0  0
 51 53  1  0  0  0  0
 52 47  1  6  0  0  0
 52 49  1  0  0  0  0
 53 55  2  0  0  0  0
 54 56  2  0  0  0  0
 56 55  1  0  0  0  0
 56 47  1  0  0  0  0
 57 51  2  0  0  0  0
 57 54  1  0  0  0  0
 58 59  1  0  0  0  0
 59 63  1  6  0  0  0
 59 61  1  0  0  0  0
 61 60  1  0  0  0  0
 62 61  2  0  0  0  0
 65 63  1  0  0  0  0
 65 64  1  1  0  0  0
 66 67  2  0  0  0  0
 67 65  1  0  0  0  0
 68 70  2  0  0  0  0
 69 70  1  0  0  0  0
 70 66  1  0  0  0  0
M  END
>  <MODEL>
3

>  <REMARK>
 VINA RESULT:      -4.8      3.259     12.276
  Name = 
  24 active torsions:
  status: ('A' for Active; 'I' for Inactive)
    1  A    between atoms: C_1  and  C_25
    2  A    between atoms: C_1  and  C_34
    3  A    between atoms: C_1  and  C_62
    4  A    between atoms: C_4  and  C_29
    5  A    between atoms: C_4  and  C_33
    6  A    between atoms: C_6  and  C_8
    7  A    between atoms: N_7  and  C_36
    8  A    between atoms: N_7  and  C_69
    9  A    between atoms: C_8  and  C_11
   10  A    between atoms: C_8  and  S_48
   11  A    between atoms: C_9  and  C_44
   12  A    between atoms: C_12  and  O_27
   13  A    between atoms: C_12  and  C_41
   14  A    between atoms: C_18  and  C_62
   15  A    between atoms: C_21  and  C_61
   16  A    between atoms: C_26  and  C_29
   17  A    between atoms: O_27  and  C_53
   18  A    between atoms: C_31  and  C_34
   19  A    between atoms: C_31  and  C_58
   20  A    between atoms: C_32  and  C_44
   21  A    between atoms: C_32  and  C_53
   22  A    between atoms: C_36  and  C_65
   23  A    between atoms: C_40  and  C_67
   24  A    between atoms: C_51  and  C_57
                            x       y       z     vdW  Elec       q    Type
                         _______ _______ _______ _____ _____    ______ ____

>  <TORSDO>
F 24

$$$$
=
 OpenBabel10222422133D

 70 79  0  0  1  0  0  0  0  0999 V2000
  189.6920  177.4160  140.5190 C   0  0  2  0  0  3  0  0  0  0  0  0
  191.1200  177.0390  140.1920 C   0  0  0  0  0  2  0  0  0  0  0  0
  191.0720  176.5510  138.7730 C   0  0  1  0  0  3  0  0  0  0  0  0
  190.0870  177.7530  137.8350 S   0  0  0  0  0  0  0  0  0  0  0  0
  189.1640  178.2210  139.3380 C   0  0  1  0  0  3  0  0  0  0  0  0
  189.5900  178.2140  141.8170 C   0  0  0  0  0  2  0  0  0  0  0  0
  190.6180  177.7410  142.8350 C   0  0  1  0  0  3  0  0  0  0  0  0
  191.8880  178.1450  142.4480 F   0  0  0  0  0  0  0  0  0  0  0  0
  190.2880  178.3040  144.2110 C   0  0  0  0  0  2  0  0  0  0  0  0
  191.0400  177.6390  145.2240 O   0  0  0  0  0  0  0  0  0  0  0  0
  190.5270  176.5910  145.9930 C   0  0  0  0  0  0  0  0  0  0  0  0
  191.2900  175.6940  146.4450 O   0  0  0  0  0  0  0  0  0  0  0  0
  188.7740  176.9520  143.9320 O   0  0  0  0  0  1  0  0  0  0  0  0
  188.9870  178.8020  147.1800 O   0  0  0  0  0  0  0  0  0  0  0  0
  187.4190  178.1390  145.5000 C   0  0  2  0  0  3  0  0  0  0  0  0
  188.1120  176.8390  145.1540 C   0  0  2  0  0  3  0  0  0  0  0  0
  189.0600  176.5370  146.3150 C   0  0  2  0  0  3  0  0  0  0  0  0
  187.6530  178.4040  146.9830 C   0  0  1  0  0  3  0  0  0  0  0  0
  188.6850  177.4570  147.4760 C   0  0  2  0  0  3  0  0  0  0  0  0
  185.1560  179.4720  143.1170 C   0  0  0  0  0  2  0  0  0  0  0  0
  183.6160  179.1380  145.5350 C   0  0  0  0  0  2  0  0  0  0  0  0
  183.2770  178.2040  144.3690 C   0  0  2  0  0  3  0  0  0  0  0  0
  185.7380  178.1550  143.6160 C   0  0  1  0  0  3  0  0  0  0  0  0
  185.0860  179.0800  145.9670 C   0  0  0  0  0  2  0  0  0  0  0  0
  185.9300  178.0820  145.1490 C   0  0  2  0  0  3  0  0  0  0  0  0
  184.2750  178.2320  143.1840 C   0  0  2  0  0  3  0  0  0  0  0  0
  181.8960  179.4300  142.8490 O   0  0  0  0  0  1  0  0  0  0  0  0
  181.8670  178.4960  143.8880 C   0  0  0  0  0  2  0  0  0  0  0  0
  192.4750  176.3780  138.2100 C   0  0  0  0  0  2  0  0  0  0  0  0
  192.5230  175.2860  137.1430 C   0  0  0  0  0  2  0  0  0  0  0  0
  195.6290  175.2240  136.8390 C   0  0  1  0  0  3  0  0  0  0  0  0
  196.8080  174.4330  137.4640 C   0  0  1  0  0  3  0  0  0  0  0  0
  195.5960  175.1240  135.4430 O   0  0  0  0  0  1  0  0  0  0  0  0
  193.2710  174.0500  137.6410 C   0  0  2  0  0  3  0  0  0  0  0  0
  195.8610  173.3720  138.0580 C   0  0  0  0  0  2  0  0  0  0  0  0
  194.7400  174.1970  137.5020 C   0  0  2  0  0  0  0  0  0  0  0  0
  193.9760  173.4510  136.5790 O   0  0  0  0  0  0  0  0  0  0  0  0
  197.8600  173.9020  136.4730 C   0  0  1  0  0  3  0  0  0  0  0  0
  199.1880  174.5620  136.6540 C   0  0  0  0  0  0  0  0  0  0  0  0
  199.8610  175.1200  135.5690 O   0  0  0  0  0  0  0  0  0  0  0  0
  199.6910  174.6380  137.8020 O   0  0  0  0  0  1  0  0  0  0  0  0
  197.9550  172.0420  134.4620 C   0  0  0  0  0  1  0  0  0  0  0  0
  197.9830  172.0710  136.2790 S   0  0  0  0  0  0  0  0  0  0  0  0
  187.6900  177.9160  139.1370 C   0  0  0  0  0  2  0  0  0  0  0  0
  187.2110  178.5710  137.9310 N   0  0  0  0  0  2  0  0  0  0  0  0
  182.7480  174.9410  134.3520 S   0  0  0  0  0  0  0  0  0  0  0  0
  182.5730  176.9020  137.4460 N   0  0  0  0  0  2  0  0  0  0  0  0
  181.3290  174.5180  135.3780 C   0  0  2  0  0  3  0  0  0  0  0  0
  181.0780  175.3460  136.3350 N   0  0  0  0  0  2  0  0  0  0  0  0
  182.6940  176.6090  135.0950 C   0  0  1  0  0  3  0  0  0  0  0  0
  186.2600  177.8740  135.7530 C   0  0  0  0  0  3  0  0  0  0  0  0
  181.8800  176.4840  136.3010 N   0  0  2  0  0  0  0  0  0  0  0  0
  185.1900  177.3730  134.9890 C   0  0  0  0  0  3  0  0  0  0  0  0
  184.9100  177.7520  137.7830 C   0  0  0  0  0  3  0  0  0  0  0  0
  184.0030  177.0630  135.6490 C   0  0  0  0  0  0  0  0  0  0  0  0
  183.8660  177.2630  137.0010 C   0  0  0  0  0  0  0  0  0  0  0  0
  186.1240  178.0670  137.1470 C   0  0  0  0  0  0  0  0  0  0  0  0
  180.5500  173.2430  135.2480 C   0  0  0  0  0  2  0  0  0  0  0  0
  181.3960  171.9650  135.1490 C   0  0  2  0  0  3  0  0  0  0  0  0
  179.9820  170.4190  136.5330 O   0  0  0  0  0  1  0  0  0  0  0  0
  180.5750  170.7240  135.3140 C   0  0  0  0  0  0  0  0  0  0  0  0
  180.4480  169.9310  134.3460 O   0  0  0  0  0  0  0  0  0  0  0  0
  182.6520  171.9620  136.0220 C   0  0  0  0  0  2  0  0  0  0  0  0
  183.5960  169.7000  136.3750 C   0  0  0  0  0  1  0  0  0  0  0  0
  183.6700  170.9490  135.5180 C   0  0  2  0  0  3  0  0  0  0  0  0
  185.4520  172.1760  136.6670 C   0  0  0  0  0  3  0  0  0  0  0  0
  185.0440  171.5280  135.5820 C   0  0  0  0  0  3  0  0  0  0  0  0
  187.8120  172.1110  136.4130 O   0  0  0  0  0  0  0  0  0  0  0  0
  186.9390  174.1560  137.2460 C   0  0  0  0  0  1  0  0  0  0  0  0
  186.7910  172.7640  136.7580 C   0  0  0  0  0  0  0  0  0  0  0  0
  1  6  1  1  0  0  0
  2  1  1  0  0  0  0
  3 29  1  6  0  0  0
  3  2  1  0  0  0  0
  4  3  1  0  0  0  0
  4  5  1  0  0  0  0
  5 44  1  6  0  0  0
  5  1  1  0  0  0  0
  6  7  1  0  0  0  0
  7  8  1  6  0  0  0
  7  9  1  0  0  0  0
  9 10  1  0  0  0  0
 10 11  1  0  0  0  0
 11 12  2  0  0  0  0
 15 25  1  1  0  0  0
 15 18  1  0  0  0  0
 16 13  1  6  0  0  0
 16 15  1  0  0  0  0
 16 17  1  0  0  0  0
 17 11  1  6  0  0  0
 17 19  1  0  0  0  0
 18 14  1  6  0  0  0
 18 19  1  0  0  0  0
 19 14  1  6  0  0  0
 21 24  1  0  0  0  0
 22 28  1  6  0  0  0
 22 21  1  0  0  0  0
 23 20  1  1  0  0  0
 23 25  1  0  0  0  0
 25 24  1  1  0  0  0
 26 20  1  1  0  0  0
 26 23  1  0  0  0  0
 26 22  1  0  0  0  0
 27 28  1  0  0  0  0
 30 29  1  0  0  0  0
 31 33  1  6  0  0  0
 31 32  1  0  0  0  0
 31 36  1  0  0  0  0
 32 38  1  6  0  0  0
 32 35  1  0  0  0  0
 34 30  1  6  0  0  0
 36 34  1  0  0  0  0
 36 35  1  1  0  0  0
 37 36  1  0  0  0  0
 37 34  1  0  0  0  0
 38 43  1  1  0  0  0
 38 39  1  0  0  0  0
 39 41  1  0  0  0  0
 40 39  2  0  0  0  0
 42 43  1  0  0  0  0
 45 44  1  0  0  0  0
 46 48  1  0  0  0  0
 48 58  1  1  0  0  0
 48 49  1  0  0  0  0
 50 46  1  1  0  0  0
 50 55  1  0  0  0  0
 50 52  1  0  0  0  0
 51 57  1  0  0  0  0
 52 49  1  1  0  0  0
 52 47  1  0  0  0  0
 53 55  1  0  0  0  0
 53 51  2  0  0  0  0
 55 56  2  0  0  0  0
 56 47  1  0  0  0  0
 56 54  1  0  0  0  0
 57 54  2  0  0  0  0
 57 45  1  0  0  0  0
 59 58  1  1  0  0  0
 59 61  1  0  0  0  0
 59 63  1  0  0  0  0
 61 60  1  0  0  0  0
 62 61  2  0  0  0  0
 65 67  1  0  0  0  0
 65 63  1  0  0  0  0
 65 64  1  1  0  0  0
 66 70  1  0  0  0  0
 67 66  2  0  0  0  0
 68 70  2  0  0  0  0
 70 69  1  0  0  0  0
M  END
>  <MODEL>
4

>  <REMARK>
 VINA RESULT:      -4.4      1.899      2.669
  Name = 
  24 active torsions:
  status: ('A' for Active; 'I' for Inactive)
    1  A    between atoms: C_1  and  C_25
    2  A    between atoms: C_1  and  C_34
    3  A    between atoms: C_1  and  C_62
    4  A    between atoms: C_4  and  C_29
    5  A    between atoms: C_4  and  C_33
    6  A    between atoms: C_6  and  C_8
    7  A    between atoms: N_7  and  C_36
    8  A    between atoms: N_7  and  C_69
    9  A    between atoms: C_8  and  C_11
   10  A    between atoms: C_8  and  S_48
   11  A    between atoms: C_9  and  C_44
   12  A    between atoms: C_12  and  O_27
   13  A    between atoms: C_12  and  C_41
   14  A    between atoms: C_18  and  C_62
   15  A    between atoms: C_21  and  C_61
   16  A    between atoms: C_26  and  C_29
   17  A    between atoms: O_27  and  C_53
   18  A    between atoms: C_31  and  C_34
   19  A    between atoms: C_31  and  C_58
   20  A    between atoms: C_32  and  C_44
   21  A    between atoms: C_32  and  C_53
   22  A    between atoms: C_36  and  C_65
   23  A    between atoms: C_40  and  C_67
   24  A    between atoms: C_51  and  C_57
                            x       y       z     vdW  Elec       q    Type
                         _______ _______ _______ _____ _____    ______ ____

>  <TORSDO>
F 24

$$$$
=
 OpenBabel10222422133D

 70 79  0  0  1  0  0  0  0  0999 V2000
  186.6010  177.8670  142.2850 C   0  0  2  0  0  3  0  0  0  0  0  0
  187.9820  177.4200  142.7130 C   0  0  0  0  0  2  0  0  0  0  0  0
  188.5940  176.8300  141.4760 C   0  0  1  0  0  3  0  0  0  0  0  0
  188.2640  177.9890  140.1190 S   0  0  0  0  0  0  0  0  0  0  0  0
  186.7630  178.5990  140.9580 C   0  0  1  0  0  3  0  0  0  0  0  0
  185.9370  178.7620  143.3290 C   0  0  0  0  0  2  0  0  0  0  0  0
  184.4800  178.3740  143.5390 C   0  0  1  0  0  3  0  0  0  0  0  0
  184.3180  177.8070  144.7950 F   0  0  0  0  0  0  0  0  0  0  0  0
  183.5880  179.6010  143.4010 C   0  0  0  0  0  2  0  0  0  0  0  0
  182.6560  179.4300  142.3350 O   0  0  0  0  0  0  0  0  0  0  0  0
  181.4650  178.7100  142.4690 C   0  0  0  0  0  0  0  0  0  0  0  0
  180.9750  178.4860  143.6090 O   0  0  0  0  0  0  0  0  0  0  0  0
  182.8990  177.2600  140.6530 O   0  0  0  0  0  1  0  0  0  0  0  0
  180.8590  180.3510  140.1000 O   0  0  0  0  0  0  0  0  0  0  0  0
  181.6080  178.3750  138.9810 C   0  0  2  0  0  3  0  0  0  0  0  0
  181.5970  177.4930  140.2100 C   0  0  2  0  0  3  0  0  0  0  0  0
  180.7390  178.2170  141.2480 C   0  0  2  0  0  3  0  0  0  0  0  0
  180.4880  179.3970  139.1370 C   0  0  1  0  0  3  0  0  0  0  0  0
  179.9820  179.3350  140.5310 C   0  0  2  0  0  3  0  0  0  0  0  0
  181.0910  175.0070  137.9950 C   0  0  0  0  0  2  0  0  0  0  0  0
  182.6980  176.1810  135.9040 C   0  0  0  0  0  2  0  0  0  0  0  0
  181.2520  175.8250  135.5430 C   0  0  2  0  0  3  0  0  0  0  0  0
  180.4560  176.3910  137.9260 C   0  0  1  0  0  3  0  0  0  0  0  0
  182.8210  177.1270  137.1050 C   0  0  0  0  0  2  0  0  0  0  0  0
  181.4630  177.5440  137.7030 C   0  0  2  0  0  3  0  0  0  0  0  0
  180.3460  175.4350  136.7380 C   0  0  2  0  0  3  0  0  0  0  0  0
  182.0490  173.6590  134.9140 O   0  0  0  0  0  1  0  0  0  0  0  0
  181.2540  174.7280  134.4940 C   0  0  0  0  0  2  0  0  0  0  0  0
  190.0790  176.5700  141.6740 C   0  0  0  0  0  2  0  0  0  0  0  0
  190.8230  177.8380  142.0900 C   0  0  0  0  0  2  0  0  0  0  0  0
  190.0070  177.3490  145.0620 C   0  0  1  0  0  3  0  0  0  0  0  0
  190.6460  176.6920  146.3140 C   0  0  1  0  0  3  0  0  0  0  0  0
  189.6290  178.6780  145.2870 O   0  0  0  0  0  1  0  0  0  0  0  0
  191.9280  177.5330  143.0990 C   0  0  2  0  0  3  0  0  0  0  0  0
  192.0450  176.6800  145.6680 C   0  0  0  0  0  2  0  0  0  0  0  0
  191.3840  177.2480  144.4490 C   0  0  2  0  0  0  0  0  0  0  0  0
  191.9340  178.5050  144.1180 O   0  0  0  0  0  0  0  0  0  0  0  0
  190.5280  177.4920  147.6250 C   0  0  1  0  0  3  0  0  0  0  0  0
  189.1390  177.4680  148.1750 C   0  0  0  0  0  0  0  0  0  0  0  0
  188.3190  176.3570  147.9950 O   0  0  0  0  0  0  0  0  0  0  0  0
  188.7140  178.4530  148.8300 O   0  0  0  0  0  1  0  0  0  0  0  0
  192.4610  175.6430  148.2170 C   0  0  0  0  0  1  0  0  0  0  0  0
  191.8200  177.1970  148.9080 S   0  0  0  0  0  0  0  0  0  0  0  0
  185.5520  178.3280  140.0810 C   0  0  0  0  0  2  0  0  0  0  0  0
  185.7550  178.9150  138.7670 N   0  0  0  0  0  2  0  0  0  0  0  0
  190.7950  176.1450  135.1850 S   0  0  0  0  0  0  0  0  0  0  0  0
  187.3830  175.1110  136.0460 N   0  0  0  0  0  2  0  0  0  0  0  0
  190.5270  174.3730  135.0090 C   0  0  2  0  0  3  0  0  0  0  0  0
  189.2940  173.9980  135.0450 N   0  0  0  0  0  2  0  0  0  0  0  0
  189.0110  176.3710  134.8650 C   0  0  1  0  0  3  0  0  0  0  0  0
  187.6040  179.1320  137.1340 C   0  0  0  0  0  3  0  0  0  0  0  0
  188.3970  175.0630  135.0780 N   0  0  2  0  0  0  0  0  0  0  0  0
  188.4590  178.5660  136.1720 C   0  0  0  0  0  3  0  0  0  0  0  0
  186.5010  176.9810  137.4680 C   0  0  0  0  0  3  0  0  0  0  0  0
  188.3180  177.2090  135.8880 C   0  0  0  0  0  0  0  0  0  0  0  0
  187.3560  176.4480  136.5070 C   0  0  0  0  0  0  0  0  0  0  0  0
  186.6240  178.3450  137.7820 C   0  0  0  0  0  0  0  0  0  0  0  0
  191.6320  173.3590  134.9530 C   0  0  0  0  0  2  0  0  0  0  0  0
  192.7380  173.5370  136.0040 C   0  0  2  0  0  3  0  0  0  0  0  0
  194.5590  175.1910  136.5090 O   0  0  0  0  0  1  0  0  0  0  0  0
  193.7820  174.5210  135.5720 C   0  0  0  0  0  0  0  0  0  0  0  0
  193.9330  174.7670  134.3480 O   0  0  0  0  0  0  0  0  0  0  0  0
  193.3380  172.2320  136.5270 C   0  0  0  0  0  2  0  0  0  0  0  0
  193.2130  170.2200  135.0890 C   0  0  0  0  0  1  0  0  0  0  0  0
  194.0280  171.4570  135.4130 C   0  0  2  0  0  3  0  0  0  0  0  0
  196.2780  171.9830  136.2250 C   0  0  0  0  0  3  0  0  0  0  0  0
  195.4020  171.0630  135.8380 C   0  0  0  0  0  3  0  0  0  0  0  0
  198.4910  172.5220  136.8960 O   0  0  0  0  0  0  0  0  0  0  0  0
  198.0080  170.2010  136.7710 C   0  0  0  0  0  1  0  0  0  0  0  0
  197.6390  171.6300  136.6380 C   0  0  0  0  0  0  0  0  0  0  0  0
  1  2  1  0  0  0  0
  1  6  1  1  0  0  0
  3 29  1  1  0  0  0
  3  2  1  0  0  0  0
  4  5  1  0  0  0  0
  4  3  1  0  0  0  0
  5 44  1  6  0  0  0
  5  1  1  0  0  0  0
  6  7  1  0  0  0  0
  7  8  1  1  0  0  0
  9  7  1  0  0  0  0
 10 11  1  0  0  0  0
 10  9  1  0  0  0  0
 11 12  2  0  0  0  0
 15 25  1  6  0  0  0
 15 18  1  0  0  0  0
 15 16  1  0  0  0  0
 16 13  1  1  0  0  0
 16 17  1  0  0  0  0
 17 11  1  1  0  0  0
 18 14  1  1  0  0  0
 18 19  1  0  0  0  0
 19 14  1  1  0  0  0
 19 17  1  0  0  0  0
 21 24  1  0  0  0  0
 22 28  1  6  0  0  0
 22 21  1  0  0  0  0
 22 26  1  0  0  0  0
 23 20  1  1  0  0  0
 25 24  1  1  0  0  0
 25 23  1  0  0  0  0
 26 23  1  0  0  0  0
 26 20  1  1  0  0  0
 28 27  1  0  0  0  0
 29 30  1  0  0  0  0
 31 33  1  1  0  0  0
 31 32  1  0  0  0  0
 32 38  1  1  0  0  0
 34 30  1  6  0  0  0
 34 37  1  0  0  0  0
 34 36  1  0  0  0  0
 35 32  1  0  0  0  0
 36 31  1  0  0  0  0
 36 35  1  1  0  0  0
 37 36  1  0  0  0  0
 38 39  1  1  0  0  0
 38 43  1  0  0  0  0
 39 41  1  0  0  0  0
 40 39  2  0  0  0  0
 42 43  1  0  0  0  0
 45 44  1  0  0  0  0
 47 56  1  0  0  0  0
 48 58  1  1  0  0  0
 48 49  1  0  0  0  0
 48 46  1  0  0  0  0
 50 52  1  0  0  0  0
 50 46  1  1  0  0  0
 50 55  1  0  0  0  0
 51 57  1  0  0  0  0
 52 49  1  1  0  0  0
 52 47  1  0  0  0  0
 53 51  2  0  0  0  0
 54 57  2  0  0  0  0
 55 53  1  0  0  0  0
 55 56  2  0  0  0  0
 56 54  1  0  0  0  0
 57 45  1  0  0  0  0
 59 58  1  6  0  0  0
 59 63  1  0  0  0  0
 61 59  1  0  0  0  0
 61 60  1  0  0  0  0
 62 61  2  0  0  0  0
 65 64  1  1  0  0  0
 65 67  1  0  0  0  0
 65 63  1  0  0  0  0
 66 70  1  0  0  0  0
 67 66  2  0  0  0  0
 70 69  1  0  0  0  0
 70 68  2  0  0  0  0
M  END
>  <MODEL>
5

>  <REMARK>
 VINA RESULT:      -4.4      3.090      9.115
  Name = 
  24 active torsions:
  status: ('A' for Active; 'I' for Inactive)
    1  A    between atoms: C_1  and  C_25
    2  A    between atoms: C_1  and  C_34
    3  A    between atoms: C_1  and  C_62
    4  A    between atoms: C_4  and  C_29
    5  A    between atoms: C_4  and  C_33
    6  A    between atoms: C_6  and  C_8
    7  A    between atoms: N_7  and  C_36
    8  A    between atoms: N_7  and  C_69
    9  A    between atoms: C_8  and  C_11
   10  A    between atoms: C_8  and  S_48
   11  A    between atoms: C_9  and  C_44
   12  A    between atoms: C_12  and  O_27
   13  A    between atoms: C_12  and  C_41
   14  A    between atoms: C_18  and  C_62
   15  A    between atoms: C_21  and  C_61
   16  A    between atoms: C_26  and  C_29
   17  A    between atoms: O_27  and  C_53
   18  A    between atoms: C_31  and  C_34
   19  A    between atoms: C_31  and  C_58
   20  A    between atoms: C_32  and  C_44
   21  A    between atoms: C_32  and  C_53
   22  A    between atoms: C_36  and  C_65
   23  A    between atoms: C_40  and  C_67
   24  A    between atoms: C_51  and  C_57
                            x       y       z     vdW  Elec       q    Type
                         _______ _______ _______ _____ _____    ______ ____

>  <TORSDO>
F 24

$$$$
=
 OpenBabel10222422133D

 70 79  0  0  1  0  0  0  0  0999 V2000
  185.4080  177.6440  142.8570 C   0  0  2  0  0  3  0  0  0  0  0  0
  184.7740  178.2090  144.1100 C   0  0  0  0  0  2  0  0  0  0  0  0
  185.9120  178.3730  145.0740 C   0  0  1  0  0  3  0  0  0  0  0  0
  187.2670  179.1650  144.1610 S   0  0  0  0  0  0  0  0  0  0  0  0
  186.6660  178.4600  142.5890 C   0  0  1  0  0  3  0  0  0  0  0  0
  184.4580  177.6880  141.6610 C   0  0  0  0  0  2  0  0  0  0  0  0
  183.7450  179.0300  141.5740 C   0  0  1  0  0  3  0  0  0  0  0  0
  184.3340  179.8160  140.5940 F   0  0  0  0  0  0  0  0  0  0  0  0
  182.2700  178.8170  141.2590 C   0  0  0  0  0  2  0  0  0  0  0  0
  182.0460  178.8460  139.8510 O   0  0  0  0  0  0  0  0  0  0  0  0
  181.1470  177.9940  139.2020 C   0  0  0  0  0  0  0  0  0  0  0  0
  179.9910  177.8060  139.6670 O   0  0  0  0  0  0  0  0  0  0  0  0
  181.9050  175.3750  139.3540 O   0  0  0  0  0  1  0  0  0  0  0  0
  183.7690  178.2750  137.8910 O   0  0  0  0  0  0  0  0  0  0  0  0
  183.5140  175.9070  137.6690 C   0  0  2  0  0  3  0  0  0  0  0  0
  182.0520  175.8780  138.0610 C   0  0  2  0  0  3  0  0  0  0  0  0
  181.5430  177.3120  137.9210 C   0  0  2  0  0  3  0  0  0  0  0  0
  183.7720  177.2270  136.9530 C   0  0  1  0  0  3  0  0  0  0  0  0
  182.5890  178.1060  137.1390 C   0  0  2  0  0  3  0  0  0  0  0  0
  185.8080  173.2020  137.6460 C   0  0  0  0  0  2  0  0  0  0  0  0
  185.3370  173.8330  134.8700 C   0  0  0  0  0  2  0  0  0  0  0  0
  184.7750  172.5010  135.3770 C   0  0  2  0  0  3  0  0  0  0  0  0
  184.3170  173.5130  137.7000 C   0  0  1  0  0  3  0  0  0  0  0  0
  184.8500  175.0520  135.6620 C   0  0  0  0  0  2  0  0  0  0  0  0
  183.8800  174.6970  136.8060 C   0  0  2  0  0  3  0  0  0  0  0  0
  184.8210  172.3040  136.9130 C   0  0  2  0  0  3  0  0  0  0  0  0
  185.5160  170.2300  135.4930 O   0  0  0  0  0  1  0  0  0  0  0  0
  185.4810  171.3590  134.6700 C   0  0  0  0  0  2  0  0  0  0  0  0
  185.4820  179.1760  146.2920 C   0  0  0  0  0  2  0  0  0  0  0  0
  185.9090  178.4990  147.5930 C   0  0  0  0  0  2  0  0  0  0  0  0
  188.5980  177.0740  146.9000 C   0  0  1  0  0  3  0  0  0  0  0  0
  190.1040  177.4480  146.8930 C   0  0  1  0  0  3  0  0  0  0  0  0
  188.3280  175.9500  147.6880 O   0  0  0  0  0  1  0  0  0  0  0  0
  187.2030  179.1000  148.1380 C   0  0  2  0  0  3  0  0  0  0  0  0
  189.8550  178.7140  147.7360 C   0  0  0  0  0  2  0  0  0  0  0  0
  188.4000  178.3630  147.6630 C   0  0  2  0  0  0  0  0  0  0  0  0
  187.8660  178.1620  148.9540 O   0  0  0  0  0  0  0  0  0  0  0  0
  191.0550  176.4110  147.5180 C   0  0  1  0  0  3  0  0  0  0  0  0
  191.9700  175.8040  146.5050 C   0  0  0  0  0  0  0  0  0  0  0  0
  192.7760  174.7160  146.8330 O   0  0  0  0  0  1  0  0  0  0  0  0
  191.9940  176.2640  145.3360 O   0  0  0  0  0  0  0  0  0  0  0  0
  193.5020  176.0820  148.7070 C   0  0  0  0  0  1  0  0  0  0  0  0
  191.9190  176.8950  149.0750 S   0  0  0  0  0  0  0  0  0  0  0  0
  187.7370  177.5590  142.0000 C   0  0  0  0  0  2  0  0  0  0  0  0
  187.8320  177.7770  140.5670 N   0  0  0  0  0  2  0  0  0  0  0  0
  192.6740  174.5540  137.0920 S   0  0  0  0  0  0  0  0  0  0  0  0
  190.1360  177.0600  136.2410 N   0  0  0  0  0  2  0  0  0  0  0  0
  192.3320  174.6420  135.3260 C   0  0  2  0  0  3  0  0  0  0  0  0
  191.6510  175.6700  134.9500 N   0  0  0  0  0  2  0  0  0  0  0  0
  192.1700  176.3060  137.2020 C   0  0  1  0  0  3  0  0  0  0  0  0
  190.1410  176.8940  140.4100 C   0  0  0  0  0  3  0  0  0  0  0  0
  191.4290  176.5870  135.9760 N   0  0  2  0  0  0  0  0  0  0  0  0
  191.2480  176.4930  139.6400 C   0  0  0  0  0  3  0  0  0  0  0  0
  188.8930  177.4470  138.3860 C   0  0  0  0  0  3  0  0  0  0  0  0
  191.1440  176.5710  138.2520 C   0  0  0  0  0  0  0  0  0  0  0  0
  190.0060  177.0490  137.6500 C   0  0  0  0  0  0  0  0  0  0  0  0
  188.9640  177.3730  139.7880 C   0  0  0  0  0  0  0  0  0  0  0  0
  192.6800  173.5590  134.3490 C   0  0  0  0  0  2  0  0  0  0  0  0
  192.6050  172.1280  134.9030 C   0  0  2  0  0  3  0  0  0  0  0  0
  190.1090  172.3780  135.0030 O   0  0  0  0  0  1  0  0  0  0  0  0
  191.2200  171.5620  134.8340 C   0  0  0  0  0  0  0  0  0  0  0  0
  191.0640  170.3270  134.6540 O   0  0  0  0  0  0  0  0  0  0  0  0
  193.2510  171.9400  136.2760 C   0  0  0  0  0  2  0  0  0  0  0  0
  194.1580  169.8260  137.1900 C   0  0  0  0  0  1  0  0  0  0  0  0
  194.4090  170.9550  136.2110 C   0  0  2  0  0  3  0  0  0  0  0  0
  195.8610  172.9280  136.2500 C   0  0  0  0  0  3  0  0  0  0  0  0
  195.6880  171.6450  136.5480 C   0  0  0  0  0  3  0  0  0  0  0  0
  197.0950  174.8050  137.0190 O   0  0  0  0  0  0  0  0  0  0  0  0
  198.4030  172.9420  136.3430 C   0  0  0  0  0  1  0  0  0  0  0  0
  197.1090  173.6320  136.5590 C   0  0  0  0  0  0  0  0  0  0  0  0
  1  6  1  6  0  0  0
  1  2  1  0  0  0  0
  2  3  1  0  0  0  0
  3 29  1  1  0  0  0
  4  3  1  0  0  0  0
  5 44  1  1  0  0  0
  5  1  1  0  0  0  0
  5  4  1  0  0  0  0
  7  8  1  6  0  0  0
  7  6  1  0  0  0  0
  9  7  1  0  0  0  0
 10  9  1  0  0  0  0
 11 12  2  0  0  0  0
 11 10  1  0  0  0  0
 15 25  1  6  0  0  0
 15 16  1  0  0  0  0
 16 13  1  1  0  0  0
 17 16  1  0  0  0  0
 17 11  1  1  0  0  0
 18 19  1  0  0  0  0
 18 15  1  0  0  0  0
 18 14  1  1  0  0  0
 19 14  1  1  0  0  0
 19 17  1  0  0  0  0
 21 22  1  0  0  0  0
 21 24  1  0  0  0  0
 22 28  1  6  0  0  0
 22 26  1  0  0  0  0
 23 20  1  1  0  0  0
 25 24  1  6  0  0  0
 25 23  1  0  0  0  0
 26 20  1  1  0  0  0
 26 23  1  0  0  0  0
 28 27  1  0  0  0  0
 29 30  1  0  0  0  0
 31 36  1  0  0  0  0
 31 33  1  1  0  0  0
 32 31  1  0  0  0  0
 32 38  1  1  0  0  0
 32 35  1  0  0  0  0
 34 30  1  6  0  0  0
 34 37  1  0  0  0  0
 36 35  1  1  0  0  0
 36 34  1  0  0  0  0
 36 37  1  0  0  0  0
 38 39  1  6  0  0  0
 38 43  1  0  0  0  0
 39 40  1  0  0  0  0
 41 39  2  0  0  0  0
 42 43  1  0  0  0  0
 45 44  1  0  0  0  0
 47 56  1  0  0  0  0
 48 58  1  1  0  0  0
 48 46  1  0  0  0  0
 49 48  1  0  0  0  0
 50 46  1  6  0  0  0
 50 55  1  0  0  0  0
 52 49  1  6  0  0  0
 52 47  1  0  0  0  0
 52 50  1  0  0  0  0
 53 51  2  0  0  0  0
 54 57  2  0  0  0  0
 55 53  1  0  0  0  0
 56 55  2  0  0  0  0
 56 54  1  0  0  0  0
 57 51  1  0  0  0  0
 57 45  1  0  0  0  0
 59 58  1  1  0  0  0
 59 63  1  0  0  0  0
 61 59  1  0  0  0  0
 61 60  1  0  0  0  0
 62 61  2  0  0  0  0
 65 63  1  0  0  0  0
 65 67  1  0  0  0  0
 65 64  1  1  0  0  0
 66 67  2  0  0  0  0
 66 70  1  0  0  0  0
 69 70  1  0  0  0  0
 70 68  2  0  0  0  0
M  END
>  <MODEL>
6

>  <REMARK>
 VINA RESULT:      -3.1      3.376     10.159
  Name = 
  24 active torsions:
  status: ('A' for Active; 'I' for Inactive)
    1  A    between atoms: C_1  and  C_25
    2  A    between atoms: C_1  and  C_34
    3  A    between atoms: C_1  and  C_62
    4  A    between atoms: C_4  and  C_29
    5  A    between atoms: C_4  and  C_33
    6  A    between atoms: C_6  and  C_8
    7  A    between atoms: N_7  and  C_36
    8  A    between atoms: N_7  and  C_69
    9  A    between atoms: C_8  and  C_11
   10  A    between atoms: C_8  and  S_48
   11  A    between atoms: C_9  and  C_44
   12  A    between atoms: C_12  and  O_27
   13  A    between atoms: C_12  and  C_41
   14  A    between atoms: C_18  and  C_62
   15  A    between atoms: C_21  and  C_61
   16  A    between atoms: C_26  and  C_29
   17  A    between atoms: O_27  and  C_53
   18  A    between atoms: C_31  and  C_34
   19  A    between atoms: C_31  and  C_58
   20  A    between atoms: C_32  and  C_44
   21  A    between atoms: C_32  and  C_53
   22  A    between atoms: C_36  and  C_65
   23  A    between atoms: C_40  and  C_67
   24  A    between atoms: C_51  and  C_57
                            x       y       z     vdW  Elec       q    Type
                         _______ _______ _______ _____ _____    ______ ____

>  <TORSDO>
F 24

$$$$
