=
 OpenBabel10232410493D

 35 38  0  0  1  0  0  0  0  0999 V2000
  191.4450  176.9640  138.0740 O   0  0  0  0  0  0  0  0  0  0  0  0
  192.3980  175.9050  138.0720 C   0  0  0  0  0  2  0  0  0  0  0  0
  191.7200  174.6210  137.9360 N   0  0  0  0  0  2  0  0  0  0  0  0
  188.0800  177.8350  138.8240 C   0  0  0  0  0  0  0  0  0  0  0  0
  190.4220  177.0210  139.0240 C   0  0  0  0  0  0  0  0  0  0  0  0
  191.1710  174.2070  135.7120 O   0  0  0  0  0  0  0  0  0  0  0  0
  187.8620  178.3220  140.0530 C   0  0  0  0  0  3  0  0  0  0  0  0
  189.3120  174.5400  137.1940 C   0  0  1  0  0  3  0  0  0  0  0  0
  189.7430  177.4250  141.3990 C   0  0  0  0  0  0  0  0  0  0  0  0
  190.7200  177.3110  140.2910 C   0  0  0  0  0  3  0  0  0  0  0  0
  190.7730  174.4000  136.8920 C   0  0  0  0  0  0  0  0  0  0  0  0
  188.5320  177.8900  141.2500 N   0  0  0  0  0  0  0  0  0  0  0  0
  188.7870  176.6420  136.2530 O   0  0  0  0  0  0  0  0  0  0  0  0
  189.0180  176.6780  138.6270 C   0  0  2  0  0  3  0  0  0  0  0  0
  188.9540  175.9970  137.2790 C   0  0  0  0  0  0  0  0  0  0  0  0
  190.2040  177.1230  142.7640 C   0  0  0  0  0  0  0  0  0  0  0  0
  191.3540  176.5600  143.0350 O   0  0  0  0  0  0  0  0  0  0  0  0
  190.3340  176.9290  144.9440 C   0  0  0  0  0  3  0  0  0  0  0  0
  191.4710  176.4250  144.3340 C   0  0  0  0  0  3  0  0  0  0  0  0
  189.5100  177.3830  143.9290 C   0  0  0  0  0  3  0  0  0  0  0  0
  188.5280  173.8860  136.2380 O   0  0  0  0  0  0  0  0  0  0  0  0
  188.0920  172.7210  136.8710 C   0  0  0  0  0  2  0  0  0  0  0  0
  187.6140  171.7300  135.8310 C   0  0  0  0  0  1  0  0  0  0  0  0
  187.4180  178.3890  137.7190 O   0  0  0  0  0  0  0  0  0  0  0  0
  186.0250  178.6730  137.7030 C   0  0  0  0  0  2  0  0  0  0  0  0
  185.2470  177.3720  137.6710 C   0  0  0  0  0  2  0  0  0  0  0  0
  184.0910  177.4270  138.6570 C   0  0  0  0  0  2  0  0  0  0  0  0
  184.1990  178.6050  139.5100 N   0  0  0  0  0  2  0  0  0  0  0  0
  182.0240  178.4880  141.0710 S   0  0  0  0  0  0  0  0  0  0  0  0
  183.6290  178.7080  140.8220 C   0  0  0  0  0  0  0  0  0  0  0  0
  184.4680  178.9730  141.9460 N   0  0  0  0  0  2  0  0  0  0  0  0
  183.9370  179.1030  145.4990 O   0  0  0  0  0  1  0  0  0  0  0  0
  184.6360  179.3740  144.3250 C   0  0  1  0  0  3  0  0  0  0  0  0
  185.5140  178.1900  143.9840 C   0  0  0  0  0  2  0  0  0  0  0  0
  184.2030  178.3940  143.2520 C   0  0  2  0  0  3  0  0  0  0  0  0
  1  5  1  0  0  0  0
  2  1  1  0  0  0  0
  3  2  1  0  0  0  0
  4  7  2  0  0  0  0
  5 10  2  0  0  0  0
  6 11  2  0  0  0  0
  7 12  1  0  0  0  0
  8 21  1  6  0  0  0
  8 15  1  0  0  0  0
  9 16  1  0  0  0  0
 10  9  1  0  0  0  0
 11  8  1  0  0  0  0
 11  3  1  0  0  0  0
 12  9  2  0  0  0  0
 13 15  2  0  0  0  0
 14 15  1  6  0  0  0
 14  4  1  0  0  0  0
 14  5  1  0  0  0  0
 16 17  1  0  0  0  0
 16 20  2  0  0  0  0
 17 19  1  0  0  0  0
 19 18  2  0  0  0  0
 20 18  1  0  0  0  0
 21 22  1  0  0  0  0
 23 22  1  0  0  0  0
 24  4  1  0  0  0  0
 25 24  1  0  0  0  0
 26 25  1  0  0  0  0
 26 27  1  0  0  0  0
 27 28  1  0  0  0  0
 28 30  1  0  0  0  0
 30 29  2  0  0  0  0
 30 31  1  0  0  0  0
 33 32  1  1  0  0  0
 34 33  1  0  0  0  0
 35 31  1  6  0  0  0
 35 34  1  0  0  0  0
 35 33  1  0  0  0  0
M  END
>  <MODEL>
1

>  <REMARK>
 VINA RESULT:      -6.6      0.000      0.000
  Name = 
  11 active torsions:
  status: ('A' for Active; 'I' for Inactive)
    1  A    between atoms: C_1  and  C_20
    2  A    between atoms: C_1  and  C_25
    3  A    between atoms: C_4  and  C_26
    4  A    between atoms: C_9  and  O_14
    5  A    between atoms: N_11  and  C_20
    6  A    between atoms: N_11  and  C_33
    7  A    between atoms: O_14  and  C_23
    8  A    between atoms: C_16  and  O_29
    9  A    between atoms: C_21  and  N_30
   10  A    between atoms: C_25  and  O_29
   11  A    between atoms: N_30  and  C_33
                            x       y       z     vdW  Elec       q    Type
                         _______ _______ _______ _____ _____    ______ ____

>  <TORSDO>
F 11

$$$$
=
 OpenBabel10232410493D

 35 38  0  0  1  0  0  0  0  0999 V2000
  188.7590  178.1150  135.8720 O   0  0  0  0  0  0  0  0  0  0  0  0
  188.4450  177.5190  134.6160 C   0  0  0  0  0  2  0  0  0  0  0  0
  187.3970  176.5180  134.7850 N   0  0  0  0  0  2  0  0  0  0  0  0
  188.7900  177.6130  139.3930 C   0  0  0  0  0  0  0  0  0  0  0  0
  189.1980  177.3460  136.9530 C   0  0  0  0  0  0  0  0  0  0  0  0
  185.3010  177.5250  134.8950 O   0  0  0  0  0  0  0  0  0  0  0  0
  189.9350  177.1440  139.9060 C   0  0  0  0  0  3  0  0  0  0  0  0
  186.0460  176.4540  136.9110 C   0  0  1  0  0  3  0  0  0  0  0  0
  191.0250  175.9910  137.9990 C   0  0  0  0  0  0  0  0  0  0  0  0
  190.4180  176.8100  136.9230 C   0  0  0  0  0  3  0  0  0  0  0  0
  186.1860  176.8350  135.4680 C   0  0  0  0  0  0  0  0  0  0  0  0
  190.8040  176.1900  139.2710 N   0  0  0  0  0  0  0  0  0  0  0  0
  186.3720  178.5130  138.0230 O   0  0  0  0  0  0  0  0  0  0  0  0
  188.2670  177.0660  138.0940 C   0  0  2  0  0  3  0  0  0  0  0  0
  186.8330  177.4100  137.7610 C   0  0  0  0  0  0  0  0  0  0  0  0
  192.0310  174.9850  137.6220 C   0  0  0  0  0  0  0  0  0  0  0  0
  193.2900  175.0490  137.9750 O   0  0  0  0  0  0  0  0  0  0  0  0
  193.0320  173.2280  136.7760 C   0  0  0  0  0  3  0  0  0  0  0  0
  193.9260  174.0120  137.4860 C   0  0  0  0  0  3  0  0  0  0  0  0
  191.8010  173.8550  136.8620 C   0  0  0  0  0  3  0  0  0  0  0  0
  184.7030  176.4250  137.3030 O   0  0  0  0  0  0  0  0  0  0  0  0
  184.3340  175.0820  137.2070 C   0  0  0  0  0  2  0  0  0  0  0  0
  182.8320  174.9830  137.0360 C   0  0  0  0  0  1  0  0  0  0  0  0
  188.0630  178.6000  140.0740 O   0  0  0  0  0  0  0  0  0  0  0  0
  187.6740  178.4830  141.4360 C   0  0  0  0  0  2  0  0  0  0  0  0
  186.2010  178.8130  141.5700 C   0  0  0  0  0  2  0  0  0  0  0  0
  185.7060  178.4550  142.9620 C   0  0  0  0  0  2  0  0  0  0  0  0
  186.6980  177.6540  143.6690 N   0  0  0  0  0  2  0  0  0  0  0  0
  185.9090  178.0230  146.2040 S   0  0  0  0  0  0  0  0  0  0  0  0
  187.0540  177.8400  145.0460 C   0  0  0  0  0  0  0  0  0  0  0  0
  188.4280  177.8340  145.4350 N   0  0  0  0  0  2  0  0  0  0  0  0
  191.6800  176.4160  144.8560 O   0  0  0  0  0  1  0  0  0  0  0  0
  190.8050  177.4200  145.2650 C   0  0  1  0  0  3  0  0  0  0  0  0
  190.3810  178.2310  144.0610 C   0  0  0  0  0  2  0  0  0  0  0  0
  189.4480  177.1830  144.6310 C   0  0  2  0  0  3  0  0  0  0  0  0
  1  5  1  0  0  0  0
  2  3  1  0  0  0  0
  2  1  1  0  0  0  0
  3 11  1  0  0  0  0
  4  7  2  0  0  0  0
  4 24  1  0  0  0  0
  6 11  2  0  0  0  0
  8 21  1  1  0  0  0
  8 15  1  0  0  0  0
  9 12  2  0  0  0  0
 10  5  2  0  0  0  0
 10  9  1  0  0  0  0
 11  8  1  0  0  0  0
 12  7  1  0  0  0  0
 14  5  1  6  0  0  0
 14  4  1  0  0  0  0
 15 13  2  0  0  0  0
 15 14  1  0  0  0  0
 16 17  1  0  0  0  0
 16  9  1  0  0  0  0
 18 20  1  0  0  0  0
 18 19  2  0  0  0  0
 19 17  1  0  0  0  0
 20 16  2  0  0  0  0
 22 21  1  0  0  0  0
 23 22  1  0  0  0  0
 24 25  1  0  0  0  0
 25 26  1  0  0  0  0
 26 27  1  0  0  0  0
 27 28  1  0  0  0  0
 28 30  1  0  0  0  0
 30 31  1  0  0  0  0
 30 29  2  0  0  0  0
 33 32  1  6  0  0  0
 34 35  1  0  0  0  0
 34 33  1  0  0  0  0
 35 33  1  0  0  0  0
 35 31  1  1  0  0  0
M  END
>  <MODEL>
2

>  <REMARK>
 VINA RESULT:      -6.5      2.769      5.203
  Name = 
  11 active torsions:
  status: ('A' for Active; 'I' for Inactive)
    1  A    between atoms: C_1  and  C_20
    2  A    between atoms: C_1  and  C_25
    3  A    between atoms: C_4  and  C_26
    4  A    between atoms: C_9  and  O_14
    5  A    between atoms: N_11  and  C_20
    6  A    between atoms: N_11  and  C_33
    7  A    between atoms: O_14  and  C_23
    8  A    between atoms: C_16  and  O_29
    9  A    between atoms: C_21  and  N_30
   10  A    between atoms: C_25  and  O_29
   11  A    between atoms: N_30  and  C_33
                            x       y       z     vdW  Elec       q    Type
                         _______ _______ _______ _____ _____    ______ ____

>  <TORSDO>
F 11

$$$$
=
 OpenBabel10232410493D

 35 38  0  0  1  0  0  0  0  0999 V2000
  189.5320  177.9400  137.7650 O   0  0  0  0  0  0  0  0  0  0  0  0
  190.4890  176.9790  137.3300 C   0  0  0  0  0  2  0  0  0  0  0  0
  189.8700  175.6610  137.2370 N   0  0  0  0  0  2  0  0  0  0  0  0
  186.5310  178.4120  139.6160 C   0  0  0  0  0  0  0  0  0  0  0  0
  188.8570  177.7970  138.9810 C   0  0  0  0  0  0  0  0  0  0  0  0
  188.6730  175.4500  135.2510 O   0  0  0  0  0  0  0  0  0  0  0  0
  186.6860  178.7360  140.9070 C   0  0  0  0  0  3  0  0  0  0  0  0
  187.3590  175.4450  137.2610 C   0  0  1  0  0  3  0  0  0  0  0  0
  188.9380  177.8710  141.4810 C   0  0  0  0  0  0  0  0  0  0  0  0
  189.5220  177.9700  140.1230 C   0  0  0  0  0  3  0  0  0  0  0  0
  188.6570  175.4730  136.5110 C   0  0  0  0  0  0  0  0  0  0  0  0
  187.7190  178.2360  141.7730 N   0  0  0  0  0  0  0  0  0  0  0  0
  186.4560  177.5820  136.8160 O   0  0  0  0  0  0  0  0  0  0  0  0
  187.4190  177.3740  138.9880 C   0  0  2  0  0  3  0  0  0  0  0  0
  186.9700  176.8440  137.6460 C   0  0  0  0  0  0  0  0  0  0  0  0
  189.8190  177.4620  142.5870 C   0  0  0  0  0  0  0  0  0  0  0  0
  190.0300  178.1890  143.6560 O   0  0  0  0  0  0  0  0  0  0  0  0
  191.2060  176.3460  143.8670 C   0  0  0  0  0  3  0  0  0  0  0  0
  190.8590  177.5540  144.4500 C   0  0  0  0  0  3  0  0  0  0  0  0
  190.5340  176.2820  142.6590 C   0  0  0  0  0  3  0  0  0  0  0  0
  186.3490  174.8330  136.5100 O   0  0  0  0  0  0  0  0  0  0  0  0
  186.3550  173.5000  136.9260 C   0  0  0  0  0  2  0  0  0  0  0  0
  185.0410  173.1790  137.6060 C   0  0  0  0  0  1  0  0  0  0  0  0
  185.5280  179.0230  138.8500 O   0  0  0  0  0  0  0  0  0  0  0  0
  184.2100  179.2530  139.3300 C   0  0  0  0  0  2  0  0  0  0  0  0
  183.3670  178.0140  139.1040 C   0  0  0  0  0  2  0  0  0  0  0  0
  182.2340  177.9570  140.1160 C   0  0  0  0  0  2  0  0  0  0  0  0
  182.4690  178.9000  141.2030 N   0  0  0  0  0  2  0  0  0  0  0  0
  180.1380  178.8440  142.5240 S   0  0  0  0  0  0  0  0  0  0  0  0
  181.7750  178.8750  142.4580 C   0  0  0  0  0  0  0  0  0  0  0  0
  182.5130  178.8420  143.6800 N   0  0  0  0  0  2  0  0  0  0  0  0
  185.6470  178.1430  145.2950 O   0  0  0  0  0  1  0  0  0  0  0  0
  184.4780  178.8720  145.0890 C   0  0  1  0  0  3  0  0  0  0  0  0
  184.6960  179.8500  143.9560 C   0  0  0  0  0  2  0  0  0  0  0  0
  183.9380  178.5630  143.7060 C   0  0  2  0  0  3  0  0  0  0  0  0
  1  5  1  0  0  0  0
  2  1  1  0  0  0  0
  3  2  1  0  0  0  0
  4  7  2  0  0  0  0
  5 14  1  0  0  0  0
  5 10  2  0  0  0  0
  6 11  2  0  0  0  0
  7 12  1  0  0  0  0
  8 21  1  6  0  0  0
  8 15  1  0  0  0  0
  9 12  2  0  0  0  0
  9 16  1  0  0  0  0
 10  9  1  0  0  0  0
 11  3  1  0  0  0  0
 11  8  1  0  0  0  0
 13 15  2  0  0  0  0
 14 15  1  6  0  0  0
 14  4  1  0  0  0  0
 16 20  2  0  0  0  0
 16 17  1  0  0  0  0
 17 19  1  0  0  0  0
 18 19  2  0  0  0  0
 20 18  1  0  0  0  0
 21 22  1  0  0  0  0
 22 23  1  0  0  0  0
 24 25  1  0  0  0  0
 24  4  1  0  0  0  0
 26 25  1  0  0  0  0
 26 27  1  0  0  0  0
 27 28  1  0  0  0  0
 28 30  1  0  0  0  0
 30 29  2  0  0  0  0
 30 31  1  0  0  0  0
 33 32  1  6  0  0  0
 34 33  1  0  0  0  0
 35 31  1  1  0  0  0
 35 34  1  0  0  0  0
 35 33  1  0  0  0  0
M  END
>  <MODEL>
3

>  <REMARK>
 VINA RESULT:      -6.2      1.715      2.079
  Name = 
  11 active torsions:
  status: ('A' for Active; 'I' for Inactive)
    1  A    between atoms: C_1  and  C_20
    2  A    between atoms: C_1  and  C_25
    3  A    between atoms: C_4  and  C_26
    4  A    between atoms: C_9  and  O_14
    5  A    between atoms: N_11  and  C_20
    6  A    between atoms: N_11  and  C_33
    7  A    between atoms: O_14  and  C_23
    8  A    between atoms: C_16  and  O_29
    9  A    between atoms: C_21  and  N_30
   10  A    between atoms: C_25  and  O_29
   11  A    between atoms: N_30  and  C_33
                            x       y       z     vdW  Elec       q    Type
                         _______ _______ _______ _____ _____    ______ ____

>  <TORSDO>
F 11

$$$$
=
 OpenBabel10232410493D

 35 38  0  0  1  0  0  0  0  0999 V2000
  188.5890  178.0580  135.8640 O   0  0  0  0  0  0  0  0  0  0  0  0
  188.3500  177.4630  134.5910 C   0  0  0  0  0  2  0  0  0  0  0  0
  187.3860  176.3760  134.7190 N   0  0  0  0  0  2  0  0  0  0  0  0
  188.5880  177.4930  139.3750 C   0  0  0  0  0  0  0  0  0  0  0  0
  189.0670  177.3070  136.9410 C   0  0  0  0  0  0  0  0  0  0  0  0
  185.2120  177.2070  134.8000 O   0  0  0  0  0  0  0  0  0  0  0  0
  189.7570  177.1090  139.9050 C   0  0  0  0  0  3  0  0  0  0  0  0
  186.0000  176.1620  136.8130 C   0  0  1  0  0  3  0  0  0  0  0  0
  190.9760  176.0860  138.0030 C   0  0  0  0  0  0  0  0  0  0  0  0
  190.3270  176.8730  136.9280 C   0  0  0  0  0  3  0  0  0  0  0  0
  186.1380  176.5800  135.3800 C   0  0  0  0  0  0  0  0  0  0  0  0
  190.7140  176.2420  139.2730 N   0  0  0  0  0  0  0  0  0  0  0  0
  186.1330  178.2190  137.9680 O   0  0  0  0  0  0  0  0  0  0  0  0
  188.1380  176.9300  138.0550 C   0  0  2  0  0  3  0  0  0  0  0  0
  186.6880  177.1620  137.6970 C   0  0  0  0  0  0  0  0  0  0  0  0
  192.0690  175.1730  137.6310 C   0  0  0  0  0  0  0  0  0  0  0  0
  191.8860  173.9260  137.2780 O   0  0  0  0  0  0  0  0  0  0  0  0
  194.0440  174.3250  137.1970 C   0  0  0  0  0  3  0  0  0  0  0  0
  193.0480  173.3800  137.0100 C   0  0  0  0  0  3  0  0  0  0  0  0
  193.4130  175.4890  137.6000 C   0  0  0  0  0  3  0  0  0  0  0  0
  184.6560  176.0160  137.1740 O   0  0  0  0  0  0  0  0  0  0  0  0
  184.4090  174.6450  137.0760 C   0  0  0  0  0  2  0  0  0  0  0  0
  185.6890  173.8820  137.3420 C   0  0  0  0  0  1  0  0  0  0  0  0
  187.7690  178.4040  140.0570 O   0  0  0  0  0  0  0  0  0  0  0  0
  187.9300  178.7210  141.4340 C   0  0  0  0  0  2  0  0  0  0  0  0
  186.8350  178.0470  142.2370 C   0  0  0  0  0  2  0  0  0  0  0  0
  187.4410  177.2210  143.3610 C   0  0  0  0  0  2  0  0  0  0  0  0
  188.8970  177.2760  143.3110 N   0  0  0  0  0  2  0  0  0  0  0  0
  191.2590  177.9850  144.3610 S   0  0  0  0  0  0  0  0  0  0  0  0
  189.7430  177.3730  144.4660 C   0  0  0  0  0  0  0  0  0  0  0  0
  189.2550  176.9620  145.7430 N   0  0  0  0  0  2  0  0  0  0  0  0
  188.2780  177.9740  149.0510 O   0  0  0  0  0  1  0  0  0  0  0  0
  188.1970  177.1840  147.9070 C   0  0  1  0  0  3  0  0  0  0  0  0
  187.3260  177.8780  146.8840 C   0  0  0  0  0  2  0  0  0  0  0  0
  188.8340  177.9250  146.7470 C   0  0  2  0  0  3  0  0  0  0  0  0
  1  5  1  0  0  0  0
  2  3  1  0  0  0  0
  2  1  1  0  0  0  0
  3 11  1  0  0  0  0
  4  7  2  0  0  0  0
  4 24  1  0  0  0  0
  6 11  2  0  0  0  0
  8 21  1  1  0  0  0
  8 15  1  0  0  0  0
  9 12  2  0  0  0  0
 10  5  2  0  0  0  0
 10  9  1  0  0  0  0
 11  8  1  0  0  0  0
 12  7  1  0  0  0  0
 14  5  1  6  0  0  0
 14  4  1  0  0  0  0
 15 13  2  0  0  0  0
 15 14  1  0  0  0  0
 16  9  1  0  0  0  0
 17 16  1  0  0  0  0
 18 20  1  0  0  0  0
 19 18  2  0  0  0  0
 19 17  1  0  0  0  0
 20 16  2  0  0  0  0
 22 21  1  0  0  0  0
 22 23  1  0  0  0  0
 24 25  1  0  0  0  0
 25 26  1  0  0  0  0
 26 27  1  0  0  0  0
 28 27  1  0  0  0  0
 28 30  1  0  0  0  0
 29 30  2  0  0  0  0
 30 31  1  0  0  0  0
 33 32  1  1  0  0  0
 34 33  1  0  0  0  0
 35 31  1  6  0  0  0
 35 34  1  0  0  0  0
 35 33  1  0  0  0  0
M  END
>  <MODEL>
4

>  <REMARK>
 VINA RESULT:      -6.2      3.167      5.291
  Name = 
  11 active torsions:
  status: ('A' for Active; 'I' for Inactive)
    1  A    between atoms: C_1  and  C_20
    2  A    between atoms: C_1  and  C_25
    3  A    between atoms: C_4  and  C_26
    4  A    between atoms: C_9  and  O_14
    5  A    between atoms: N_11  and  C_20
    6  A    between atoms: N_11  and  C_33
    7  A    between atoms: O_14  and  C_23
    8  A    between atoms: C_16  and  O_29
    9  A    between atoms: C_21  and  N_30
   10  A    between atoms: C_25  and  O_29
   11  A    between atoms: N_30  and  C_33
                            x       y       z     vdW  Elec       q    Type
                         _______ _______ _______ _____ _____    ______ ____

>  <TORSDO>
F 11

$$$$
=
 OpenBabel10232410493D

 35 38  0  0  1  0  0  0  0  0999 V2000
  182.3710  178.1410  137.4980 O   0  0  0  0  0  0  0  0  0  0  0  0
  181.1460  177.9330  138.1970 C   0  0  0  0  0  2  0  0  0  0  0  0
  181.4050  177.7620  139.6220 N   0  0  0  0  0  2  0  0  0  0  0  0
  185.8720  177.5170  137.5330 C   0  0  0  0  0  0  0  0  0  0  0  0
  183.4040  177.2010  137.5430 C   0  0  0  0  0  0  0  0  0  0  0  0
  181.7100  179.8230  140.6590 O   0  0  0  0  0  0  0  0  0  0  0  0
  186.2760  176.4210  136.8770 C   0  0  0  0  0  3  0  0  0  0  0  0
  183.6460  178.4040  140.5810 C   0  0  1  0  0  3  0  0  0  0  0  0
  184.2730  174.9590  136.8500 C   0  0  0  0  0  0  0  0  0  0  0  0
  183.2600  176.0390  136.9060 C   0  0  0  0  0  3  0  0  0  0  0  0
  182.1980  178.7060  140.3400 C   0  0  0  0  0  0  0  0  0  0  0  0
  185.5600  175.1750  136.8140 N   0  0  0  0  0  0  0  0  0  0  0  0
  184.7320  179.7750  138.9940 O   0  0  0  0  0  0  0  0  0  0  0  0
  184.6230  177.4760  138.3700 C   0  0  2  0  0  3  0  0  0  0  0  0
  184.4250  178.6360  139.3180 C   0  0  0  0  0  0  0  0  0  0  0  0
  183.8010  173.5730  136.6920 C   0  0  0  0  0  0  0  0  0  0  0  0
  182.7520  173.2390  135.9840 O   0  0  0  0  0  0  0  0  0  0  0  0
  183.5950  171.3950  136.8270 C   0  0  0  0  0  3  0  0  0  0  0  0
  182.5930  171.9380  136.0400 C   0  0  0  0  0  3  0  0  0  0  0  0
  184.3810  172.4520  137.2520 C   0  0  0  0  0  3  0  0  0  0  0  0
  184.1580  179.1710  141.6340 O   0  0  0  0  0  0  0  0  0  0  0  0
  184.2100  178.2950  142.7190 C   0  0  0  0  0  2  0  0  0  0  0  0
  183.4470  178.8890  143.8840 C   0  0  0  0  0  1  0  0  0  0  0  0
  186.6210  178.6990  137.4600 O   0  0  0  0  0  0  0  0  0  0  0  0
  187.8910  178.7820  136.8280 C   0  0  0  0  0  2  0  0  0  0  0  0
  188.9660  178.9680  137.8800 C   0  0  0  0  0  2  0  0  0  0  0  0
  189.4090  177.6190  138.4230 C   0  0  0  0  0  2  0  0  0  0  0  0
  190.0040  177.7680  139.7460 N   0  0  0  0  0  2  0  0  0  0  0  0
  187.7630  178.3580  141.0930 S   0  0  0  0  0  0  0  0  0  0  0  0
  189.2650  177.7140  140.9750 C   0  0  0  0  0  0  0  0  0  0  0  0
  189.8240  177.0610  142.1150 N   0  0  0  0  0  2  0  0  0  0  0  0
  191.6240  177.4460  145.2020 O   0  0  0  0  0  1  0  0  0  0  0  0
  190.7020  176.8330  144.3560 C   0  0  1  0  0  3  0  0  0  0  0  0
  189.3840  177.5710  144.4400 C   0  0  0  0  0  2  0  0  0  0  0  0
  190.3080  177.8070  143.2630 C   0  0  2  0  0  3  0  0  0  0  0  0
  1  5  1  0  0  0  0
  1  2  1  0  0  0  0
  2  3  1  0  0  0  0
  3 11  1  0  0  0  0
  5 14  1  0  0  0  0
  7  4  2  0  0  0  0
  8 21  1  1  0  0  0
  9 10  1  0  0  0  0
 10  5  2  0  0  0  0
 11  8  1  0  0  0  0
 11  6  2  0  0  0  0
 12  9  2  0  0  0  0
 12  7  1  0  0  0  0
 13 15  2  0  0  0  0
 14  4  1  6  0  0  0
 14 15  1  0  0  0  0
 15  8  1  0  0  0  0
 16  9  1  0  0  0  0
 16 20  2  0  0  0  0
 17 19  1  0  0  0  0
 17 16  1  0  0  0  0
 18 20  1  0  0  0  0
 19 18  2  0  0  0  0
 21 22  1  0  0  0  0
 22 23  1  0  0  0  0
 24  4  1  0  0  0  0
 25 24  1  0  0  0  0
 25 26  1  0  0  0  0
 26 27  1  0  0  0  0
 27 28  1  0  0  0  0
 28 30  1  0  0  0  0
 30 29  2  0  0  0  0
 30 31  1  0  0  0  0
 33 34  1  0  0  0  0
 33 32  1  1  0  0  0
 35 31  1  6  0  0  0
 35 33  1  0  0  0  0
 35 34  1  0  0  0  0
M  END
>  <MODEL>
5

>  <REMARK>
 VINA RESULT:      -6.1      2.962      7.971
  Name = 
  11 active torsions:
  status: ('A' for Active; 'I' for Inactive)
    1  A    between atoms: C_1  and  C_20
    2  A    between atoms: C_1  and  C_25
    3  A    between atoms: C_4  and  C_26
    4  A    between atoms: C_9  and  O_14
    5  A    between atoms: N_11  and  C_20
    6  A    between atoms: N_11  and  C_33
    7  A    between atoms: O_14  and  C_23
    8  A    between atoms: C_16  and  O_29
    9  A    between atoms: C_21  and  N_30
   10  A    between atoms: C_25  and  O_29
   11  A    between atoms: N_30  and  C_33
                            x       y       z     vdW  Elec       q    Type
                         _______ _______ _______ _____ _____    ______ ____

>  <TORSDO>
F 11

$$$$
=
 OpenBabel10232410493D

 35 38  0  0  1  0  0  0  0  0999 V2000
  185.2230  179.4880  139.1850 O   0  0  0  0  0  0  0  0  0  0  0  0
  184.0330  179.5340  139.9680 C   0  0  0  0  0  2  0  0  0  0  0  0
  184.2050  178.7510  141.1870 N   0  0  0  0  0  2  0  0  0  0  0  0
  188.1170  177.5690  138.4170 C   0  0  0  0  0  0  0  0  0  0  0  0
  185.7530  178.2750  138.7360 C   0  0  0  0  0  0  0  0  0  0  0  0
  185.3730  179.9680  142.7910 O   0  0  0  0  0  0  0  0  0  0  0  0
  188.0070  176.7380  137.3720 C   0  0  0  0  0  3  0  0  0  0  0  0
  186.5120  178.0440  141.9150 C   0  0  1  0  0  3  0  0  0  0  0  0
  185.5700  176.3140  137.1910 C   0  0  0  0  0  0  0  0  0  0  0  0
  185.1190  177.5980  137.7780 C   0  0  0  0  0  3  0  0  0  0  0  0
  185.3320  178.9590  142.0370 C   0  0  0  0  0  0  0  0  0  0  0  0
  186.8250  176.0010  137.0150 N   0  0  0  0  0  0  0  0  0  0  0  0
  188.0690  179.3620  140.7230 O   0  0  0  0  0  0  0  0  0  0  0  0
  186.9790  177.7130  139.3890 C   0  0  2  0  0  3  0  0  0  0  0  0
  187.3050  178.4070  140.6910 C   0  0  0  0  0  0  0  0  0  0  0  0
  184.5480  175.3990  136.6580 C   0  0  0  0  0  0  0  0  0  0  0  0
  183.6900  175.7310  135.7260 O   0  0  0  0  0  0  0  0  0  0  0  0
  183.2920  173.6430  136.2780 C   0  0  0  0  0  3  0  0  0  0  0  0
  182.9160  174.7030  135.4700 C   0  0  0  0  0  3  0  0  0  0  0  0
  184.3500  174.0900  137.0500 C   0  0  0  0  0  3  0  0  0  0  0  0
  187.3120  178.0880  143.0620 O   0  0  0  0  0  0  0  0  0  0  0  0
  186.7410  177.1560  143.9300 C   0  0  0  0  0  2  0  0  0  0  0  0
  187.0330  177.5540  145.3610 C   0  0  0  0  0  1  0  0  0  0  0  0
  189.3010  178.2920  138.6220 O   0  0  0  0  0  0  0  0  0  0  0  0
  190.5700  177.6790  138.8010 C   0  0  0  0  0  2  0  0  0  0  0  0
  190.5120  176.7350  139.9860 C   0  0  0  0  0  2  0  0  0  0  0  0
  191.1580  177.3780  141.2030 C   0  0  0  0  0  2  0  0  0  0  0  0
  190.4820  176.9590  142.4240 N   0  0  0  0  0  2  0  0  0  0  0  0
  190.9210  179.1720  143.8710 S   0  0  0  0  0  0  0  0  0  0  0  0
  190.6940  177.5570  143.7110 C   0  0  0  0  0  0  0  0  0  0  0  0
  190.6760  176.7450  144.8860 N   0  0  0  0  0  2  0  0  0  0  0  0
  192.3410  176.8490  148.0700 O   0  0  0  0  0  1  0  0  0  0  0  0
  191.6100  176.2320  147.0560 C   0  0  1  0  0  3  0  0  0  0  0  0
  190.1430  176.5480  147.2380 C   0  0  0  0  0  2  0  0  0  0  0  0
  190.9530  177.2980  146.2010 C   0  0  2  0  0  3  0  0  0  0  0  0
  1  2  1  0  0  0  0
  2  3  1  0  0  0  0
  3 11  1  0  0  0  0
  4 24  1  0  0  0  0
  5  1  1  0  0  0  0
  5 14  1  0  0  0  0
  7  4  2  0  0  0  0
  8 11  1  0  0  0  0
  8 21  1  1  0  0  0
  9 10  1  0  0  0  0
 10  5  2  0  0  0  0
 11  6  2  0  0  0  0
 12  9  2  0  0  0  0
 12  7  1  0  0  0  0
 14  4  1  6  0  0  0
 14 15  1  0  0  0  0
 15 13  2  0  0  0  0
 15  8  1  0  0  0  0
 16 20  2  0  0  0  0
 16  9  1  0  0  0  0
 17 16  1  0  0  0  0
 18 20  1  0  0  0  0
 19 17  1  0  0  0  0
 19 18  2  0  0  0  0
 21 22  1  0  0  0  0
 22 23  1  0  0  0  0
 24 25  1  0  0  0  0
 25 26  1  0  0  0  0
 26 27  1  0  0  0  0
 27 28  1  0  0  0  0
 28 30  1  0  0  0  0
 30 29  2  0  0  0  0
 30 31  1  0  0  0  0
 33 34  1  0  0  0  0
 33 32  1  1  0  0  0
 35 31  1  6  0  0  0
 35 33  1  0  0  0  0
 35 34  1  0  0  0  0
M  END
>  <MODEL>
6

>  <REMARK>
 VINA RESULT:      -6.0      3.079      7.684
  Name = 
  11 active torsions:
  status: ('A' for Active; 'I' for Inactive)
    1  A    between atoms: C_1  and  C_20
    2  A    between atoms: C_1  and  C_25
    3  A    between atoms: C_4  and  C_26
    4  A    between atoms: C_9  and  O_14
    5  A    between atoms: N_11  and  C_20
    6  A    between atoms: N_11  and  C_33
    7  A    between atoms: O_14  and  C_23
    8  A    between atoms: C_16  and  O_29
    9  A    between atoms: C_21  and  N_30
   10  A    between atoms: C_25  and  O_29
   11  A    between atoms: N_30  and  C_33
                            x       y       z     vdW  Elec       q    Type
                         _______ _______ _______ _____ _____    ______ ____

>  <TORSDO>
F 11

$$$$
=
 OpenBabel10232410493D

 35 38  0  0  1  0  0  0  0  0999 V2000
  191.6660  173.8230  137.4380 O   0  0  0  0  0  0  0  0  0  0  0  0
  191.9330  173.1880  136.1910 C   0  0  0  0  0  2  0  0  0  0  0  0
  192.6540  174.0980  135.3080 N   0  0  0  0  0  2  0  0  0  0  0  0
  191.1550  176.9540  139.0450 C   0  0  0  0  0  0  0  0  0  0  0  0
  190.9340  175.0120  137.5070 C   0  0  0  0  0  0  0  0  0  0  0  0
  194.9210  174.1390  135.8360 O   0  0  0  0  0  0  0  0  0  0  0  0
  189.8810  177.3570  139.1490 C   0  0  0  0  0  3  0  0  0  0  0  0
  193.7230  176.1790  136.2460 C   0  0  1  0  0  3  0  0  0  0  0  0
  188.7180  176.1600  137.3140 C   0  0  0  0  0  0  0  0  0  0  0  0
  189.6240  174.9890  137.2600 C   0  0  0  0  0  3  0  0  0  0  0  0
  193.8320  174.7680  135.7520 C   0  0  0  0  0  0  0  0  0  0  0  0
  188.8570  177.1430  138.1630 N   0  0  0  0  0  0  0  0  0  0  0  0
  193.8490  175.9200  138.5910 O   0  0  0  0  0  0  0  0  0  0  0  0
  191.6390  176.3060  137.7790 C   0  0  2  0  0  3  0  0  0  0  0  0
  193.1380  176.1840  137.6300 C   0  0  0  0  0  0  0  0  0  0  0  0
  187.5230  176.1530  136.4550 C   0  0  0  0  0  0  0  0  0  0  0  0
  186.7310  177.1850  136.3040 O   0  0  0  0  0  0  0  0  0  0  0  0
  185.9310  175.5510  135.0730 C   0  0  0  0  0  3  0  0  0  0  0  0
  185.7610  176.8640  135.4810 C   0  0  0  0  0  3  0  0  0  0  0  0
  187.0720  175.0870  135.7030 C   0  0  0  0  0  3  0  0  0  0  0  0
  194.9640  176.8250  136.2240 O   0  0  0  0  0  0  0  0  0  0  0  0
  195.0960  177.2980  134.9170 C   0  0  0  0  0  2  0  0  0  0  0  0
  196.1030  178.4290  134.8890 C   0  0  0  0  0  1  0  0  0  0  0  0
  192.0470  177.1550  140.1080 O   0  0  0  0  0  0  0  0  0  0  0  0
  191.6500  177.6590  141.3770 C   0  0  0  0  0  2  0  0  0  0  0  0
  190.9360  176.5680  142.1510 C   0  0  0  0  0  2  0  0  0  0  0  0
  190.9670  176.8750  143.6400 C   0  0  0  0  0  2  0  0  0  0  0  0
  189.6220  176.8250  144.2020 N   0  0  0  0  0  2  0  0  0  0  0  0
  190.3400  176.8730  146.7840 S   0  0  0  0  0  0  0  0  0  0  0  0
  189.2990  177.1750  145.5550 C   0  0  0  0  0  0  0  0  0  0  0  0
  188.0640  177.8300  145.8460 N   0  0  0  0  0  2  0  0  0  0  0  0
  185.2370  177.9980  143.6320 O   0  0  0  0  0  1  0  0  0  0  0  0
  186.1210  178.5130  144.5780 C   0  0  1  0  0  3  0  0  0  0  0  0
  185.6620  178.1070  145.9600 C   0  0  0  0  0  2  0  0  0  0  0  0
  186.8020  177.3640  145.2960 C   0  0  2  0  0  3  0  0  0  0  0  0
  1  5  1  0  0  0  0
  2  1  1  0  0  0  0
  3 11  1  0  0  0  0
  3  2  1  0  0  0  0
  4  7  2  0  0  0  0
  4 24  1  0  0  0  0
  8 21  1  1  0  0  0
  8 15  1  0  0  0  0
  9 12  2  0  0  0  0
 10  9  1  0  0  0  0
 10  5  2  0  0  0  0
 11  6  2  0  0  0  0
 11  8  1  0  0  0  0
 12  7  1  0  0  0  0
 14  5  1  1  0  0  0
 14  4  1  0  0  0  0
 15 14  1  0  0  0  0
 15 13  2  0  0  0  0
 16  9  1  0  0  0  0
 17 16  1  0  0  0  0
 18 19  2  0  0  0  0
 18 20  1  0  0  0  0
 19 17  1  0  0  0  0
 20 16  2  0  0  0  0
 22 21  1  0  0  0  0
 23 22  1  0  0  0  0
 24 25  1  0  0  0  0
 25 26  1  0  0  0  0
 26 27  1  0  0  0  0
 27 28  1  0  0  0  0
 28 30  1  0  0  0  0
 30 31  1  0  0  0  0
 30 29  2  0  0  0  0
 33 32  1  6  0  0  0
 33 35  1  0  0  0  0
 33 34  1  0  0  0  0
 35 31  1  1  0  0  0
 35 34  1  0  0  0  0
M  END
>  <MODEL>
7

>  <REMARK>
 VINA RESULT:      -5.8      3.028      6.185
  Name = 
  11 active torsions:
  status: ('A' for Active; 'I' for Inactive)
    1  A    between atoms: C_1  and  C_20
    2  A    between atoms: C_1  and  C_25
    3  A    between atoms: C_4  and  C_26
    4  A    between atoms: C_9  and  O_14
    5  A    between atoms: N_11  and  C_20
    6  A    between atoms: N_11  and  C_33
    7  A    between atoms: O_14  and  C_23
    8  A    between atoms: C_16  and  O_29
    9  A    between atoms: C_21  and  N_30
   10  A    between atoms: C_25  and  O_29
   11  A    between atoms: N_30  and  C_33
                            x       y       z     vdW  Elec       q    Type
                         _______ _______ _______ _____ _____    ______ ____

>  <TORSDO>
F 11

$$$$
=
 OpenBabel10232410493D

 35 38  0  0  1  0  0  0  0  0999 V2000
  188.4150  179.3450  138.0910 O   0  0  0  0  0  0  0  0  0  0  0  0
  187.5080  179.3140  136.9920 C   0  0  0  0  0  2  0  0  0  0  0  0
  186.3140  178.5570  137.3480 N   0  0  0  0  0  2  0  0  0  0  0  0
  189.4870  177.6270  141.0150 C   0  0  0  0  0  0  0  0  0  0  0  0
  188.9160  178.1680  138.6540 C   0  0  0  0  0  0  0  0  0  0  0  0
  184.8460  179.8670  138.5940 O   0  0  0  0  0  0  0  0  0  0  0  0
  190.5130  176.7810  140.8520 C   0  0  0  0  0  3  0  0  0  0  0  0
  185.8380  178.0200  139.7650 C   0  0  1  0  0  3  0  0  0  0  0  0
  190.4290  176.1850  138.4450 C   0  0  0  0  0  0  0  0  0  0  0  0
  189.7990  177.4400  137.9710 C   0  0  0  0  0  3  0  0  0  0  0  0
  185.5910  178.8520  138.5430 C   0  0  0  0  0  0  0  0  0  0  0  0
  190.7390  175.9590  139.6930 N   0  0  0  0  0  0  0  0  0  0  0  0
  187.1920  179.4330  141.0880 O   0  0  0  0  0  0  0  0  0  0  0  0
  188.3980  177.6990  139.9800 C   0  0  2  0  0  3  0  0  0  0  0  0
  187.1400  178.4260  140.3940 C   0  0  0  0  0  0  0  0  0  0  0  0
  190.8480  175.1960  137.4400 C   0  0  0  0  0  0  0  0  0  0  0  0
  190.9180  173.9090  137.6710 O   0  0  0  0  0  0  0  0  0  0  0  0
  191.5250  174.2390  135.5870 C   0  0  0  0  0  3  0  0  0  0  0  0
  191.3210  173.2980  136.5830 C   0  0  0  0  0  3  0  0  0  0  0  0
  191.2190  175.4700  136.1380 C   0  0  0  0  0  3  0  0  0  0  0  0
  184.7830  178.1300  140.6780 O   0  0  0  0  0  0  0  0  0  0  0  0
  183.6760  177.6060  140.0090 C   0  0  0  0  0  2  0  0  0  0  0  0
  182.4130  177.9770  140.7560 C   0  0  0  0  0  1  0  0  0  0  0  0
  189.4120  178.4330  142.1590 O   0  0  0  0  0  0  0  0  0  0  0  0
  189.0790  177.9320  143.4470 C   0  0  0  0  0  2  0  0  0  0  0  0
  190.1980  178.2540  144.4180 C   0  0  0  0  0  2  0  0  0  0  0  0
  190.1590  177.3000  145.6010 C   0  0  0  0  0  2  0  0  0  0  0  0
  188.7840  177.0740  146.0330 N   0  0  0  0  0  2  0  0  0  0  0  0
  188.7060  178.0260  148.5370 S   0  0  0  0  0  0  0  0  0  0  0  0
  188.1080  177.8660  147.0200 C   0  0  0  0  0  0  0  0  0  0  0  0
  186.9070  178.5580  146.6780 N   0  0  0  0  0  2  0  0  0  0  0  0
  184.5790  178.4900  143.9400 O   0  0  0  0  0  1  0  0  0  0  0  0
  185.1540  179.0400  145.0840 C   0  0  1  0  0  3  0  0  0  0  0  0
  184.5200  178.4180  146.3080 C   0  0  0  0  0  2  0  0  0  0  0  0
  185.8840  177.9510  145.8450 C   0  0  2  0  0  3  0  0  0  0  0  0
  1  5  1  0  0  0  0
  2  3  1  0  0  0  0
  2  1  1  0  0  0  0
  3 11  1  0  0  0  0
  4 24  1  0  0  0  0
  7  4  2  0  0  0  0
  8 15  1  0  0  0  0
  8 21  1  1  0  0  0
  9 12  2  0  0  0  0
 10  9  1  0  0  0  0
 10  5  2  0  0  0  0
 11  6  2  0  0  0  0
 11  8  1  0  0  0  0
 12  7  1  0  0  0  0
 14  5  1  6  0  0  0
 14 15  1  0  0  0  0
 14  4  1  0  0  0  0
 15 13  2  0  0  0  0
 16 17  1  0  0  0  0
 16  9  1  0  0  0  0
 18 20  1  0  0  0  0
 18 19  2  0  0  0  0
 19 17  1  0  0  0  0
 20 16  2  0  0  0  0
 22 21  1  0  0  0  0
 22 23  1  0  0  0  0
 24 25  1  0  0  0  0
 25 26  1  0  0  0  0
 26 27  1  0  0  0  0
 27 28  1  0  0  0  0
 28 30  1  0  0  0  0
 30 29  2  0  0  0  0
 31 30  1  0  0  0  0
 33 32  1  6  0  0  0
 33 35  1  0  0  0  0
 33 34  1  0  0  0  0
 35 34  1  0  0  0  0
 35 31  1  1  0  0  0
M  END
>  <MODEL>
8

>  <REMARK>
 VINA RESULT:      -5.7      2.777      6.224
  Name = 
  11 active torsions:
  status: ('A' for Active; 'I' for Inactive)
    1  A    between atoms: C_1  and  C_20
    2  A    between atoms: C_1  and  C_25
    3  A    between atoms: C_4  and  C_26
    4  A    between atoms: C_9  and  O_14
    5  A    between atoms: N_11  and  C_20
    6  A    between atoms: N_11  and  C_33
    7  A    between atoms: O_14  and  C_23
    8  A    between atoms: C_16  and  O_29
    9  A    between atoms: C_21  and  N_30
   10  A    between atoms: C_25  and  O_29
   11  A    between atoms: N_30  and  C_33
                            x       y       z     vdW  Elec       q    Type
                         _______ _______ _______ _____ _____    ______ ____

>  <TORSDO>
F 11

$$$$
=
 OpenBabel10232410493D

 35 38  0  0  1  0  0  0  0  0999 V2000
  185.5730  179.8750  142.5510 O   0  0  0  0  0  0  0  0  0  0  0  0
  184.8190  179.6010  143.7290 C   0  0  0  0  0  2  0  0  0  0  0  0
  185.1870  178.2960  144.2670 N   0  0  0  0  0  2  0  0  0  0  0  0
  187.2930  178.4130  139.8030 C   0  0  0  0  0  0  0  0  0  0  0  0
  185.5240  179.0270  141.4420 C   0  0  0  0  0  0  0  0  0  0  0  0
  187.1610  178.4350  145.4950 O   0  0  0  0  0  0  0  0  0  0  0  0
  186.5710  178.2420  138.6860 C   0  0  0  0  0  3  0  0  0  0  0  0
  187.2860  177.1510  143.4690 C   0  0  1  0  0  3  0  0  0  0  0  0
  184.2270  178.1480  139.4900 C   0  0  0  0  0  0  0  0  0  0  0  0
  184.4170  178.9810  140.7000 C   0  0  0  0  0  3  0  0  0  0  0  0
  186.5540  177.9590  144.4980 C   0  0  0  0  0  0  0  0  0  0  0  0
  185.1810  177.8780  138.6400 N   0  0  0  0  0  0  0  0  0  0  0  0
  188.6140  178.7760  142.3830 O   0  0  0  0  0  0  0  0  0  0  0  0
  186.6820  178.1220  141.1460 C   0  0  2  0  0  3  0  0  0  0  0  0
  187.6480  178.0290  142.3050 C   0  0  0  0  0  0  0  0  0  0  0  0
  182.8620  177.7090  139.1570 C   0  0  0  0  0  0  0  0  0  0  0  0
  182.2970  176.6420  139.6630 O   0  0  0  0  0  0  0  0  0  0  0  0
  180.8500  177.5700  138.2970 C   0  0  0  0  0  3  0  0  0  0  0  0
  181.0870  176.5220  139.1710 C   0  0  0  0  0  3  0  0  0  0  0  0
  181.9980  178.3420  138.2850 C   0  0  0  0  0  3  0  0  0  0  0  0
  188.4250  176.5460  144.0120 O   0  0  0  0  0  0  0  0  0  0  0  0
  188.9570  175.7880  142.9670 C   0  0  0  0  0  2  0  0  0  0  0  0
  190.4690  175.7880  143.0630 C   0  0  0  0  0  1  0  0  0  0  0  0
  188.6250  178.8420  139.7240 O   0  0  0  0  0  0  0  0  0  0  0  0
  189.5990  178.2170  138.8990 C   0  0  0  0  0  2  0  0  0  0  0  0
  190.2920  177.1190  139.6810 C   0  0  0  0  0  2  0  0  0  0  0  0
  191.4390  176.5380  138.8680 C   0  0  0  0  0  2  0  0  0  0  0  0
  191.0480  175.2700  138.2630 N   0  0  0  0  0  2  0  0  0  0  0  0
  191.2100  173.5560  136.2100 S   0  0  0  0  0  0  0  0  0  0  0  0
  190.9570  175.0430  136.8500 C   0  0  0  0  0  0  0  0  0  0  0  0
  190.6080  176.1170  135.9760 N   0  0  0  0  0  2  0  0  0  0  0  0
  187.7790  177.6260  134.3510 O   0  0  0  0  0  1  0  0  0  0  0  0
  188.6220  177.3860  135.4340 C   0  0  1  0  0  3  0  0  0  0  0  0
  188.1920  176.1110  136.1250 C   0  0  0  0  0  2  0  0  0  0  0  0
  189.3850  176.0980  135.1910 C   0  0  2  0  0  3  0  0  0  0  0  0
  1  2  1  0  0  0  0
  2  3  1  0  0  0  0
  3 11  1  0  0  0  0
  5  1  1  0  0  0  0
  7  4  2  0  0  0  0
  8 21  1  1  0  0  0
  8 11  1  0  0  0  0
  9 10  1  0  0  0  0
 10  5  2  0  0  0  0
 11  6  2  0  0  0  0
 12  7  1  0  0  0  0
 12  9  2  0  0  0  0
 14  4  1  6  0  0  0
 14  5  1  0  0  0  0
 14 15  1  0  0  0  0
 15 13  2  0  0  0  0
 15  8  1  0  0  0  0
 16  9  1  0  0  0  0
 16 17  1  0  0  0  0
 18 19  2  0  0  0  0
 19 17  1  0  0  0  0
 20 18  1  0  0  0  0
 20 16  2  0  0  0  0
 22 23  1  0  0  0  0
 22 21  1  0  0  0  0
 24  4  1  0  0  0  0
 25 26  1  0  0  0  0
 25 24  1  0  0  0  0
 27 26  1  0  0  0  0
 28 27  1  0  0  0  0
 29 30  2  0  0  0  0
 30 28  1  0  0  0  0
 31 30  1  0  0  0  0
 33 32  1  6  0  0  0
 33 34  1  0  0  0  0
 35 33  1  0  0  0  0
 35 31  1  1  0  0  0
 35 34  1  0  0  0  0
M  END
>  <MODEL>
9

>  <REMARK>
 VINA RESULT:      -5.7      3.033      8.167
  Name = 
  11 active torsions:
  status: ('A' for Active; 'I' for Inactive)
    1  A    between atoms: C_1  and  C_20
    2  A    between atoms: C_1  and  C_25
    3  A    between atoms: C_4  and  C_26
    4  A    between atoms: C_9  and  O_14
    5  A    between atoms: N_11  and  C_20
    6  A    between atoms: N_11  and  C_33
    7  A    between atoms: O_14  and  C_23
    8  A    between atoms: C_16  and  O_29
    9  A    between atoms: C_21  and  N_30
   10  A    between atoms: C_25  and  O_29
   11  A    between atoms: N_30  and  C_33
                            x       y       z     vdW  Elec       q    Type
                         _______ _______ _______ _____ _____    ______ ____

>  <TORSDO>
F 11

$$$$
