=
 OpenBabel10232408283D

 45 48  0  0  1  0  0  0  0  0999 V2000
  188.0740  177.2030  146.1170 F   0  0  0  0  0  0  0  0  0  0  0  0
  189.6820  177.3800  139.6780 C   0  0  2  0  0  3  0  0  0  0  0  0
  184.5730  177.5110  137.6130 C   0  0  0  0  0  2  0  0  0  0  0  0
  181.6230  179.0710  143.2590 C   0  0  0  0  0  3  0  0  0  0  0  0
  187.9700  177.3570  143.7420 C   0  0  0  0  0  3  0  0  0  0  0  0
  185.2840  178.1370  143.9370 C   0  0  0  0  0  0  0  0  0  0  0  0
  187.8430  177.5410  141.2830 N   0  0  0  0  0  2  0  0  0  0  0  0
  190.0600  177.2660  136.8350 O   0  0  0  0  0  0  0  0  0  0  0  0
  183.8560  176.7680  138.7340 C   0  0  0  0  0  2  0  0  0  0  0  0
  186.5270  175.0970  137.2760 C   0  0  1  0  0  3  0  0  0  0  0  0
  188.9550  175.1990  136.5640 C   0  0  0  0  0  0  0  0  0  0  0  0
  183.2840  178.9130  141.3860 S   0  0  0  0  0  0  0  0  0  0  0  0
  182.9720  178.8260  143.0380 C   0  0  0  0  0  0  0  0  0  0  0  0
  189.2240  177.1230  141.1030 C   0  0  0  0  0  2  0  0  0  0  0  0
  185.4330  173.2730  136.4000 C   0  0  0  0  0  2  0  0  0  0  0  0
  186.1040  176.1020  136.1900 C   0  0  0  0  0  2  0  0  0  0  0  0
  183.9080  178.5200  144.0800 N   0  0  0  0  0  2  0  0  0  0  0  0
  189.6320  174.8630  135.5560 O   0  0  0  0  0  0  0  0  0  0  0  0
  186.7350  172.4980  136.1470 C   0  0  0  0  0  2  0  0  0  0  0  0
  185.5280  174.1240  137.5230 O   0  0  0  0  0  0  0  0  0  0  0  0
  182.4080  176.5340  138.4070 C   0  0  0  0  0  0  0  0  0  0  0  0
  181.9830  178.8790  138.6660 O   0  0  0  0  0  0  0  0  0  0  0  0
  180.9090  179.3030  142.1240 N   0  0  0  0  0  0  0  0  0  0  0  0
  181.4030  177.6480  138.3390 C   0  0  0  0  0  2  0  0  0  0  0  0
  184.6890  176.6350  136.3750 C   0  0  0  0  0  2  0  0  0  0  0  0
  182.0030  175.2930  138.1510 C   0  0  0  0  0  2  0  0  0  0  0  0
  185.9000  178.0190  142.6820 C   0  0  0  0  0  3  0  0  0  0  0  0
  181.1360  179.4420  139.6280 C   0  0  1  0  0  3  0  0  0  0  0  0
  181.6770  179.2410  141.0120 C   0  0  0  0  0  0  0  0  0  0  0  0
  189.3870  176.3460  137.3730 C   0  0  0  0  0  0  0  0  0  0  0  0
  186.0250  177.8600  145.0910 C   0  0  0  0  0  3  0  0  0  0  0  0
  187.3640  177.4700  144.9950 C   0  0  0  0  0  0  0  0  0  0  0  0
  189.1130  176.3770  138.7790 N   0  0  0  0  0  2  0  0  0  0  0  0
  187.8580  173.0370  136.9170 N   0  0  0  0  0  2  0  0  0  0  0  0
  187.2390  177.6320  142.5760 C   0  0  0  0  0  0  0  0  0  0  0  0
  187.7880  174.4420  136.9110 N   0  0  0  0  0  0  0  0  0  0  0  0
  191.9040  177.9230  140.6720 O   0  0  0  0  0  1  0  0  0  0  0  0
  191.7820  176.7580  138.7020 O   0  0  0  0  0  0  0  0  0  0  0  0
  191.1780  177.3390  139.6430 C   0  0  0  0  0  0  0  0  0  0  0  0
  180.8770  180.9170  139.3230 C   0  0  0  0  0  2  0  0  0  0  0  0
  181.6930  181.4270  138.1400 C   0  0  2  0  0  3  0  0  0  0  0  0
  182.4550  182.5180  138.5170 F   0  0  0  0  0  0  0  0  0  0  0  0
  180.5070  180.8290  135.9290 C   0  0  0  0  0  1  0  0  0  0  0  0
  180.7890  181.8100  137.0130 C   0  0  0  0  0  0  0  0  0  0  0  0
  180.2890  182.9240  136.9680 O   0  0  0  0  0  0  0  0  0  0  0  0
  2 39  1  1  0  0  0
  2 14  1  0  0  0  0
  3  9  1  0  0  0  0
  5 32  1  0  0  0  0
  6 17  1  0  0  0  0
  6 31  1  0  0  0  0
  7 35  1  0  0  0  0
  8 30  2  0  0  0  0
 10 16  1  6  0  0  0
 10 20  1  0  0  0  0
 11 36  1  0  0  0  0
 11 30  1  0  0  0  0
 12 13  1  0  0  0  0
 13  4  2  0  0  0  0
 13 17  1  0  0  0  0
 14  7  1  0  0  0  0
 15 20  1  0  0  0  0
 16 25  1  0  0  0  0
 18 11  2  0  0  0  0
 19 15  1  0  0  0  0
 19 34  1  0  0  0  0
 21  9  1  0  0  0  0
 22 28  1  0  0  0  0
 23  4  1  0  0  0  0
 24 21  1  0  0  0  0
 24 22  1  0  0  0  0
 25  3  1  0  0  0  0
 26 21  2  0  0  0  0
 27  6  2  0  0  0  0
 28 40  1  6  0  0  0
 28 29  1  0  0  0  0
 29 12  1  0  0  0  0
 29 23  2  0  0  0  0
 30 33  1  0  0  0  0
 32 31  2  0  0  0  0
 32  1  1  0  0  0  0
 33  2  1  0  0  0  0
 35 27  1  0  0  0  0
 35  5  2  0  0  0  0
 36 34  1  0  0  0  0
 36 10  1  0  0  0  0
 38 39  2  0  0  0  0
 39 37  1  0  0  0  0
 41 42  1  1  0  0  0
 41 40  1  0  0  0  0
 43 44  1  0  0  0  0
 44 41  1  0  0  0  0
 45 44  2  0  0  0  0
M  END
>  <MODEL>
1

>  <REMARK>
 VINA RESULT:      -9.2      0.000      0.000
  Name = 
  4 active torsions:
  status: ('A' for Active; 'I' for Inactive)
    1  A    between atoms: C_2  and  C_26
    2  A    between atoms: C_2  and  C_35
    3  A    between atoms: CA_3  and  C_22
    4  A    between atoms: C_25  and  C_26
                            x       y       z     vdW  Elec       q    Type
                         _______ _______ _______ _____ _____    ______ ____

>  <TORSDO>
F 4

$$$$
