=
 OpenBabel10232411383D

 27 30  0  0  1  0  0  0  0  0999 V2000
  185.0780  178.3110  142.8900 C   0  0  1  0  0  3  0  0  0  0  0  0
  185.7170  178.9200  146.6120 C   0  0  0  0  0  3  0  0  0  0  0  0
  185.6640  178.2350  144.2840 C   0  0  0  0  0  0  0  0  0  0  0  0
  186.8000  178.0690  146.8480 C   0  0  0  0  0  0  0  0  0  0  0  0
  186.7480  177.3830  144.5190 C   0  0  0  0  0  3  0  0  0  0  0  0
  185.1500  179.0040  145.3390 C   0  0  0  0  0  3  0  0  0  0  0  0
  187.3140  177.2990  145.7920 C   0  0  0  0  0  3  0  0  0  0  0  0
  188.7390  178.1200  148.3840 C   0  0  0  0  0  1  0  0  0  0  0  0
  187.3440  178.0070  148.1340 O   0  0  0  0  0  0  0  0  0  0  0  0
  183.1540  179.3810  143.7820 C   0  0  0  0  0  1  0  0  0  0  0  0
  183.6050  178.3720  142.8340 N   0  0  0  0  0  0  0  0  0  0  0  0
  182.9490  177.5010  140.6480 C   0  0  0  0  0  2  0  0  0  0  0  0
  181.0350  178.9310  140.2850 N   0  0  0  0  0  1  0  0  0  0  0  0
  181.7370  178.1430  141.2810 C   0  0  2  0  0  3  0  0  0  0  0  0
  183.1150  178.7420  141.5050 C   0  0  1  0  0  3  0  0  0  0  0  0
  185.7140  179.3970  142.0200 C   0  0  0  0  0  2  0  0  0  0  0  0
  186.6260  178.3300  138.5550 N   0  0  0  0  0  0  0  0  0  0  0  0
  186.1030  178.7720  139.7010 N   0  0  0  0  0  0  0  0  0  0  0  0
  188.0770  177.3990  136.9200 N   0  0  0  0  0  1  0  0  0  0  0  0
  187.8310  178.3500  141.3900 C   0  0  0  0  0  3  0  0  0  0  0  0
  190.7240  176.8540  140.0200 C   0  0  0  0  0  3  0  0  0  0  0  0
  188.8150  177.7830  140.6200 C   0  0  0  0  0  0  0  0  0  0  0  0
  186.5880  178.7990  140.9700 C   0  0  0  0  0  0  0  0  0  0  0  0
  189.9990  176.9480  138.8840 N   0  0  0  0  0  0  0  0  0  0  0  0
  187.8260  177.7630  138.2740 C   0  0  0  0  0  0  0  0  0  0  0  0
  188.8220  177.5130  139.2090 C   0  0  0  0  0  0  0  0  0  0  0  0
  190.0300  177.3570  141.1090 C   0  0  0  0  0  3  0  0  0  0  0  0
  1 16  1  1  0  0  0
  1  3  1  0  0  0  0
  2  4  1  0  0  0  0
  3  5  2  0  0  0  0
  3  6  1  0  0  0  0
  4  9  1  0  0  0  0
  5  7  1  0  0  0  0
  6  2  2  0  0  0  0
  7  4  2  0  0  0  0
  9  8  1  0  0  0  0
 11  1  1  0  0  0  0
 11 10  1  0  0  0  0
 12 14  1  0  0  0  0
 12 15  1  0  0  0  0
 14 13  1  6  0  0  0
 14 15  1  0  0  0  0
 15 11  1  1  0  0  0
 17 18  1  0  0  0  0
 18 23  2  0  0  0  0
 19 25  1  0  0  0  0
 21 27  2  0  0  0  0
 22 27  1  0  0  0  0
 22 20  2  0  0  0  0
 23 20  1  0  0  0  0
 23 16  1  0  0  0  0
 24 26  2  0  0  0  0
 24 21  1  0  0  0  0
 25 17  2  0  0  0  0
 25 26  1  0  0  0  0
 26 22  1  0  0  0  0
M  END
>  <MODEL>
1

>  <REMARK>
 VINA RESULT:      -8.4      0.000      0.000
  Name = 
  6 active torsions:
  status: ('A' for Active; 'I' for Inactive)
    1  A    between atoms: C_6  and  C_12
    2  A    between atoms: C_6  and  C_21
    3  A    between atoms: C_7  and  C_12
    4  A    between atoms: C_12  and  N_16
    5  A    between atoms: C_13  and  O_23
    6  A    between atoms: N_16  and  C_20
                            x       y       z     vdW  Elec       q    Type
                         _______ _______ _______ _____ _____    ______ ____

>  <TORSDO>
F 6

$$$$
=
 OpenBabel10232411383D

 27 30  0  0  1  0  0  0  0  0999 V2000
  183.3900  178.2840  140.6730 C   0  0  1  0  0  3  0  0  0  0  0  0
  185.1450  178.4030  144.0700 C   0  0  0  0  0  3  0  0  0  0  0  0
  183.6550  178.4580  142.1530 C   0  0  0  0  0  0  0  0  0  0  0  0
  184.0920  178.7750  144.9100 C   0  0  0  0  0  0  0  0  0  0  0  0
  182.6010  178.8290  142.9930 C   0  0  0  0  0  3  0  0  0  0  0  0
  184.9300  178.2450  142.6990 C   0  0  0  0  0  3  0  0  0  0  0  0
  182.8160  178.9870  144.3640 C   0  0  0  0  0  3  0  0  0  0  0  0
  185.6270  178.7440  146.8500 C   0  0  0  0  0  1  0  0  0  0  0  0
  184.3380  178.9250  146.2780 O   0  0  0  0  0  0  0  0  0  0  0  0
  181.5590  179.5030  139.7770 C   0  0  0  0  0  1  0  0  0  0  0  0
  181.9650  178.2050  140.2980 N   0  0  0  0  0  0  0  0  0  0  0  0
  182.4450  175.9130  139.6050 C   0  0  0  0  0  2  0  0  0  0  0  0
  180.2400  175.3440  138.7990 N   0  0  0  0  0  1  0  0  0  0  0  0
  180.9600  176.0260  139.8580 C   0  0  2  0  0  3  0  0  0  0  0  0
  181.7190  177.2000  139.2630 C   0  0  1  0  0  3  0  0  0  0  0  0
  184.1420  179.2890  139.7970 C   0  0  0  0  0  2  0  0  0  0  0  0
  187.6910  178.2310  139.2860 N   0  0  0  0  0  0  0  0  0  0  0  0
  186.5020  178.7120  139.6540 N   0  0  0  0  0  0  0  0  0  0  0  0
  189.4450  177.1380  138.1160 N   0  0  0  0  0  1  0  0  0  0  0  0
  184.9520  177.9790  137.8990 C   0  0  0  0  0  3  0  0  0  0  0  0
  186.5590  176.0930  135.3800 C   0  0  0  0  0  3  0  0  0  0  0  0
  185.8030  177.2900  137.0710 C   0  0  0  0  0  0  0  0  0  0  0  0
  185.2720  178.6330  139.0790 C   0  0  0  0  0  0  0  0  0  0  0  0
  187.6370  176.3340  136.1560 N   0  0  0  0  0  0  0  0  0  0  0  0
  188.0700  177.4940  138.2120 C   0  0  0  0  0  0  0  0  0  0  0  0
  187.2160  177.0650  137.2040 C   0  0  0  0  0  0  0  0  0  0  0  0
  185.4120  176.6640  135.9090 C   0  0  0  0  0  3  0  0  0  0  0  0
  1 16  1  6  0  0  0
  1  3  1  0  0  0  0
  2  4  1  0  0  0  0
  3  6  1  0  0  0  0
  3  5  2  0  0  0  0
  4  9  1  0  0  0  0
  5  7  1  0  0  0  0
  6  2  2  0  0  0  0
  7  4  2  0  0  0  0
  9  8  1  0  0  0  0
 10 11  1  0  0  0  0
 11  1  1  0  0  0  0
 12 14  1  0  0  0  0
 14 13  1  6  0  0  0
 15 12  1  0  0  0  0
 15 14  1  0  0  0  0
 15 11  1  1  0  0  0
 17 18  1  0  0  0  0
 19 25  1  0  0  0  0
 20 23  1  0  0  0  0
 21 27  2  0  0  0  0
 21 24  1  0  0  0  0
 22 26  1  0  0  0  0
 22 20  2  0  0  0  0
 23 18  2  0  0  0  0
 23 16  1  0  0  0  0
 24 26  2  0  0  0  0
 25 17  2  0  0  0  0
 26 25  1  0  0  0  0
 27 22  1  0  0  0  0
M  END
>  <MODEL>
2

>  <REMARK>
 VINA RESULT:      -8.2      2.019      3.590
  Name = 
  6 active torsions:
  status: ('A' for Active; 'I' for Inactive)
    1  A    between atoms: C_6  and  C_12
    2  A    between atoms: C_6  and  C_21
    3  A    between atoms: C_7  and  C_12
    4  A    between atoms: C_12  and  N_16
    5  A    between atoms: C_13  and  O_23
    6  A    between atoms: N_16  and  C_20
                            x       y       z     vdW  Elec       q    Type
                         _______ _______ _______ _____ _____    ______ ____

>  <TORSDO>
F 6

$$$$
=
 OpenBabel10232411383D

 27 30  0  0  1  0  0  0  0  0999 V2000
  189.5950  177.8700  141.8630 C   0  0  1  0  0  3  0  0  0  0  0  0
  191.3350  175.9890  144.7030 C   0  0  0  0  0  3  0  0  0  0  0  0
  190.3100  177.5590  143.1600 C   0  0  0  0  0  0  0  0  0  0  0  0
  191.6210  177.0310  145.5890 C   0  0  0  0  0  0  0  0  0  0  0  0
  190.5950  178.6020  144.0460 C   0  0  0  0  0  3  0  0  0  0  0  0
  190.6840  176.2480  143.4950 C   0  0  0  0  0  3  0  0  0  0  0  0
  191.2460  178.3420  145.2540 C   0  0  0  0  0  3  0  0  0  0  0  0
  191.9980  175.5680  147.5480 C   0  0  0  0  0  1  0  0  0  0  0  0
  192.2740  176.7380  146.7900 O   0  0  0  0  0  0  0  0  0  0  0  0
  191.8090  177.5800  141.0530 C   0  0  0  0  0  1  0  0  0  0  0  0
  190.4180  177.7360  140.6470 N   0  0  0  0  0  0  0  0  0  0  0  0
  189.5140  177.0130  138.4970 C   0  0  0  0  0  2  0  0  0  0  0  0
  190.9650  175.1110  138.1520 N   0  0  0  0  0  1  0  0  0  0  0  0
  190.9260  176.4860  138.6140 C   0  0  2  0  0  3  0  0  0  0  0  0
  190.0430  176.5690  139.8480 C   0  0  1  0  0  3  0  0  0  0  0  0
  188.2580  177.1420  141.7140 C   0  0  0  0  0  2  0  0  0  0  0  0
  185.1980  179.1780  142.3960 N   0  0  0  0  0  0  0  0  0  0  0  0
  186.2590  178.5120  141.9370 N   0  0  0  0  0  0  0  0  0  0  0  0
  183.5310  180.1220  143.8020 N   0  0  0  0  0  1  0  0  0  0  0  0
  187.2860  177.5090  143.9270 C   0  0  0  0  0  3  0  0  0  0  0  0
  185.5260  178.2830  146.8910 C   0  0  0  0  0  3  0  0  0  0  0  0
  186.4360  177.9500  144.9090 C   0  0  0  0  0  0  0  0  0  0  0  0
  187.2070  177.7690  142.5670 C   0  0  0  0  0  0  0  0  0  0  0  0
  184.7430  178.9550  146.0210 N   0  0  0  0  0  0  0  0  0  0  0  0
  184.7070  179.3320  143.6520 C   0  0  0  0  0  0  0  0  0  0  0  0
  185.2660  178.7760  144.7950 C   0  0  0  0  0  0  0  0  0  0  0  0
  186.5780  177.6520  146.2450 C   0  0  0  0  0  3  0  0  0  0  0  0
  1 16  1  6  0  0  0
  1  3  1  0  0  0  0
  2  4  1  0  0  0  0
  3  6  1  0  0  0  0
  3  5  2  0  0  0  0
  4  9  1  0  0  0  0
  5  7  1  0  0  0  0
  6  2  2  0  0  0  0
  7  4  2  0  0  0  0
  9  8  1  0  0  0  0
 11 10  1  0  0  0  0
 11  1  1  0  0  0  0
 12 14  1  0  0  0  0
 12 15  1  0  0  0  0
 14 13  1  6  0  0  0
 14 15  1  0  0  0  0
 15 11  1  1  0  0  0
 16 23  1  0  0  0  0
 17 25  1  0  0  0  0
 18 17  2  0  0  0  0
 18 23  1  0  0  0  0
 20 22  1  0  0  0  0
 22 27  2  0  0  0  0
 23 20  2  0  0  0  0
 24 21  2  0  0  0  0
 25 19  1  0  0  0  0
 25 26  2  0  0  0  0
 26 22  1  0  0  0  0
 26 24  1  0  0  0  0
 27 21  1  0  0  0  0
M  END
>  <MODEL>
3

>  <REMARK>
 VINA RESULT:      -8.2      2.485      6.432
  Name = 
  6 active torsions:
  status: ('A' for Active; 'I' for Inactive)
    1  A    between atoms: C_6  and  C_12
    2  A    between atoms: C_6  and  C_21
    3  A    between atoms: C_7  and  C_12
    4  A    between atoms: C_12  and  N_16
    5  A    between atoms: C_13  and  O_23
    6  A    between atoms: N_16  and  C_20
                            x       y       z     vdW  Elec       q    Type
                         _______ _______ _______ _____ _____    ______ ____

>  <TORSDO>
F 6

$$$$
=
 OpenBabel10232411383D

 27 30  0  0  1  0  0  0  0  0999 V2000
  189.4940  177.6890  142.6790 C   0  0  1  0  0  3  0  0  0  0  0  0
  191.7560  175.2460  144.5620 C   0  0  0  0  0  3  0  0  0  0  0  0
  190.3710  177.0640  143.7430 C   0  0  0  0  0  0  0  0  0  0  0  0
  191.9760  175.9390  145.7560 C   0  0  0  0  0  0  0  0  0  0  0  0
  190.5890  177.7570  144.9370 C   0  0  0  0  0  3  0  0  0  0  0  0
  190.9590  175.8030  143.5600 C   0  0  0  0  0  3  0  0  0  0  0  0
  191.3860  177.2000  145.9390 C   0  0  0  0  0  3  0  0  0  0  0  0
  192.6830  175.7020  148.1150 C   0  0  0  0  0  1  0  0  0  0  0  0
  192.7790  175.3540  146.7400 O   0  0  0  0  0  0  0  0  0  0  0  0
  191.5340  177.4640  141.4840 C   0  0  0  0  0  1  0  0  0  0  0  0
  190.1630  177.9490  141.3910 N   0  0  0  0  0  0  0  0  0  0  0  0
  188.7550  178.2560  139.4190 C   0  0  0  0  0  2  0  0  0  0  0  0
  189.8990  176.7130  137.9530 N   0  0  0  0  0  1  0  0  0  0  0  0
  190.0980  177.7380  138.9610 C   0  0  2  0  0  3  0  0  0  0  0  0
  189.5100  177.2580  140.2770 C   0  0  1  0  0  3  0  0  0  0  0  0
  188.1640  176.9600  142.4800 C   0  0  0  0  0  2  0  0  0  0  0  0
  186.7750  177.8920  145.8240 N   0  0  0  0  0  0  0  0  0  0  0  0
  187.4530  177.4920  144.7460 N   0  0  0  0  0  0  0  0  0  0  0  0
  185.1000  178.7400  147.2790 N   0  0  0  0  0  1  0  0  0  0  0  0
  185.9350  177.8900  142.8600 C   0  0  0  0  0  3  0  0  0  0  0  0
  182.8450  179.2670  143.8810 C   0  0  0  0  0  3  0  0  0  0  0  0
  184.8430  178.4090  143.5100 C   0  0  0  0  0  0  0  0  0  0  0  0
  187.1280  177.4670  143.4260 C   0  0  0  0  0  0  0  0  0  0  0  0
  183.4240  179.1700  145.0970 N   0  0  0  0  0  0  0  0  0  0  0  0
  185.5300  178.4130  145.9610 C   0  0  0  0  0  0  0  0  0  0  0  0
  184.6510  178.6490  144.9130 C   0  0  0  0  0  0  0  0  0  0  0  0
  183.6870  178.8080  142.8790 C   0  0  0  0  0  3  0  0  0  0  0  0
  1 16  1  6  0  0  0
  1  3  1  0  0  0  0
  2  4  1  0  0  0  0
  3  5  2  0  0  0  0
  4  7  2  0  0  0  0
  4  9  1  0  0  0  0
  5  7  1  0  0  0  0
  6  3  1  0  0  0  0
  6  2  2  0  0  0  0
  9  8  1  0  0  0  0
 11 10  1  0  0  0  0
 11  1  1  0  0  0  0
 12 15  1  0  0  0  0
 14 13  1  6  0  0  0
 14 12  1  0  0  0  0
 14 15  1  0  0  0  0
 15 11  1  1  0  0  0
 16 23  1  0  0  0  0
 17 25  1  0  0  0  0
 18 17  2  0  0  0  0
 20 23  2  0  0  0  0
 20 22  1  0  0  0  0
 21 24  2  0  0  0  0
 22 26  1  0  0  0  0
 23 18  1  0  0  0  0
 25 19  1  0  0  0  0
 26 24  1  0  0  0  0
 26 25  2  0  0  0  0
 27 22  2  0  0  0  0
 27 21  1  0  0  0  0
M  END
>  <MODEL>
4

>  <REMARK>
 VINA RESULT:      -8.0      2.952      6.723
  Name = 
  6 active torsions:
  status: ('A' for Active; 'I' for Inactive)
    1  A    between atoms: C_6  and  C_12
    2  A    between atoms: C_6  and  C_21
    3  A    between atoms: C_7  and  C_12
    4  A    between atoms: C_12  and  N_16
    5  A    between atoms: C_13  and  O_23
    6  A    between atoms: N_16  and  C_20
                            x       y       z     vdW  Elec       q    Type
                         _______ _______ _______ _____ _____    ______ ____

>  <TORSDO>
F 6

$$$$
=
 OpenBabel10232411383D

 27 30  0  0  1  0  0  0  0  0999 V2000
  183.7380  178.2440  140.3940 C   0  0  1  0  0  3  0  0  0  0  0  0
  182.8910  178.9640  144.0540 C   0  0  0  0  0  3  0  0  0  0  0  0
  183.8560  178.4290  141.8920 C   0  0  0  0  0  0  0  0  0  0  0  0
  184.1340  178.7800  144.6660 C   0  0  0  0  0  0  0  0  0  0  0  0
  185.1010  178.2460  142.5020 C   0  0  0  0  0  3  0  0  0  0  0  0
  182.7500  178.7900  142.6760 C   0  0  0  0  0  3  0  0  0  0  0  0
  185.2410  178.4200  143.8810 C   0  0  0  0  0  3  0  0  0  0  0  0
  185.2750  178.3670  146.8220 C   0  0  0  0  0  1  0  0  0  0  0  0
  184.2420  178.9610  146.0480 O   0  0  0  0  0  0  0  0  0  0  0  0
  182.2530  179.5770  139.1060 C   0  0  0  0  0  1  0  0  0  0  0  0
  182.3660  178.3360  139.8600 N   0  0  0  0  0  0  0  0  0  0  0  0
  182.4730  175.9110  139.5860 C   0  0  0  0  0  2  0  0  0  0  0  0
  180.2980  175.5960  138.5820 N   0  0  0  0  0  1  0  0  0  0  0  0
  181.0180  176.3170  139.6150 C   0  0  2  0  0  3  0  0  0  0  0  0
  182.0450  177.2260  138.9610 C   0  0  1  0  0  3  0  0  0  0  0  0
  184.7080  179.1140  139.5930 C   0  0  0  0  0  2  0  0  0  0  0  0
  186.0070  176.7060  137.0450 N   0  0  0  0  0  0  0  0  0  0  0  0
  185.3420  177.5300  137.8580 N   0  0  0  0  0  0  0  0  0  0  0  0
  187.7080  175.4270  135.9890 N   0  0  0  0  0  1  0  0  0  0  0  0
  187.0310  178.3740  139.4240 C   0  0  0  0  0  3  0  0  0  0  0  0
  190.2460  177.0560  138.7830 C   0  0  0  0  0  3  0  0  0  0  0  0
  188.1530  177.7270  138.9710 C   0  0  0  0  0  0  0  0  0  0  0  0
  185.7440  178.2800  138.9180 C   0  0  0  0  0  0  0  0  0  0  0  0
  189.5780  176.4230  137.7960 N   0  0  0  0  0  0  0  0  0  0  0  0
  187.3140  176.3460  137.0040 C   0  0  0  0  0  0  0  0  0  0  0  0
  188.2910  176.8070  137.8760 C   0  0  0  0  0  0  0  0  0  0  0  0
  189.4040  177.8680  139.5280 C   0  0  0  0  0  3  0  0  0  0  0  0
  1 16  1  6  0  0  0
  1  3  1  0  0  0  0
  2  4  1  0  0  0  0
  3  5  2  0  0  0  0
  3  6  1  0  0  0  0
  4  9  1  0  0  0  0
  5  7  1  0  0  0  0
  6  2  2  0  0  0  0
  7  4  2  0  0  0  0
  9  8  1  0  0  0  0
 10 11  1  0  0  0  0
 11  1  1  0  0  0  0
 12 14  1  0  0  0  0
 14 13  1  6  0  0  0
 15 12  1  0  0  0  0
 15 14  1  0  0  0  0
 15 11  1  1  0  0  0
 17 18  1  0  0  0  0
 18 23  2  0  0  0  0
 19 25  1  0  0  0  0
 21 27  2  0  0  0  0
 22 20  2  0  0  0  0
 22 27  1  0  0  0  0
 23 20  1  0  0  0  0
 23 16  1  0  0  0  0
 24 26  2  0  0  0  0
 24 21  1  0  0  0  0
 25 17  2  0  0  0  0
 25 26  1  0  0  0  0
 26 22  1  0  0  0  0
M  END
>  <MODEL>
5

>  <REMARK>
 VINA RESULT:      -7.9      1.868      2.852
  Name = 
  6 active torsions:
  status: ('A' for Active; 'I' for Inactive)
    1  A    between atoms: C_6  and  C_12
    2  A    between atoms: C_6  and  C_21
    3  A    between atoms: C_7  and  C_12
    4  A    between atoms: C_12  and  N_16
    5  A    between atoms: C_13  and  O_23
    6  A    between atoms: N_16  and  C_20
                            x       y       z     vdW  Elec       q    Type
                         _______ _______ _______ _____ _____    ______ ____

>  <TORSDO>
F 6

$$$$
=
 OpenBabel10232411383D

 27 30  0  0  1  0  0  0  0  0999 V2000
  187.2800  177.9050  144.1520 C   0  0  1  0  0  3  0  0  0  0  0  0
  183.8520  178.4240  142.5360 C   0  0  0  0  0  3  0  0  0  0  0  0
  185.8270  178.2710  143.9410 C   0  0  0  0  0  0  0  0  0  0  0  0
  183.1300  178.9830  143.5940 C   0  0  0  0  0  0  0  0  0  0  0  0
  185.1050  178.8300  145.0000 C   0  0  0  0  0  3  0  0  0  0  0  0
  185.1920  178.0690  142.7050 C   0  0  0  0  0  3  0  0  0  0  0  0
  183.7650  179.1850  144.8300 C   0  0  0  0  0  3  0  0  0  0  0  0
  181.1260  179.1320  142.1520 C   0  0  0  0  0  1  0  0  0  0  0  0
  181.7910  179.3270  143.3930 O   0  0  0  0  0  0  0  0  0  0  0  0
  186.6890  177.2650  146.3610 C   0  0  0  0  0  1  0  0  0  0  0  0
  187.7250  177.9000  145.5580 N   0  0  0  0  0  0  0  0  0  0  0  0
  190.1610  178.0770  145.5800 C   0  0  0  0  0  2  0  0  0  0  0  0
  190.5790  176.6360  147.4740 N   0  0  0  0  0  1  0  0  0  0  0  0
  189.7060  177.6770  146.9650 C   0  0  2  0  0  3  0  0  0  0  0  0
  188.9690  177.1520  145.7440 C   0  0  1  0  0  3  0  0  0  0  0  0
  187.6980  176.6230  143.4300 C   0  0  0  0  0  2  0  0  0  0  0  0
  191.0030  176.8100  141.6940 N   0  0  0  0  0  0  0  0  0  0  0  0
  189.9430  176.6710  142.4920 N   0  0  0  0  0  0  0  0  0  0  0  0
  192.4190  177.2710  139.8430 N   0  0  0  0  0  1  0  0  0  0  0  0
  188.0320  177.4030  141.1380 C   0  0  0  0  0  3  0  0  0  0  0  0
  188.9860  178.4140  137.8900 C   0  0  0  0  0  3  0  0  0  0  0  0
  188.6570  177.7330  139.9620 C   0  0  0  0  0  0  0  0  0  0  0  0
  188.6210  176.9210  142.2970 C   0  0  0  0  0  0  0  0  0  0  0  0
  190.2100  178.0880  138.3570 N   0  0  0  0  0  0  0  0  0  0  0  0
  191.1140  177.2450  140.4130 C   0  0  0  0  0  0  0  0  0  0  0  0
  190.0520  177.6650  139.6240 C   0  0  0  0  0  0  0  0  0  0  0  0
  188.0040  178.2100  138.8470 C   0  0  0  0  0  3  0  0  0  0  0  0
  1 16  1  1  0  0  0
  1 11  1  0  0  0  0
  2  6  2  0  0  0  0
  2  4  1  0  0  0  0
  3  1  1  0  0  0  0
  3  5  2  0  0  0  0
  4  7  2  0  0  0  0
  6  3  1  0  0  0  0
  7  5  1  0  0  0  0
  8  9  1  0  0  0  0
  9  4  1  0  0  0  0
 11 10  1  0  0  0  0
 12 15  1  0  0  0  0
 12 14  1  0  0  0  0
 14 13  1  6  0  0  0
 15 11  1  1  0  0  0
 15 14  1  0  0  0  0
 17 18  1  0  0  0  0
 19 25  1  0  0  0  0
 20 23  1  0  0  0  0
 21 24  1  0  0  0  0
 21 27  2  0  0  0  0
 22 20  2  0  0  0  0
 23 18  2  0  0  0  0
 23 16  1  0  0  0  0
 24 26  2  0  0  0  0
 25 17  2  0  0  0  0
 26 22  1  0  0  0  0
 26 25  1  0  0  0  0
 27 22  1  0  0  0  0
M  END
>  <MODEL>
6

>  <REMARK>
 VINA RESULT:      -7.8      2.877      5.469
  Name = 
  6 active torsions:
  status: ('A' for Active; 'I' for Inactive)
    1  A    between atoms: C_6  and  C_12
    2  A    between atoms: C_6  and  C_21
    3  A    between atoms: C_7  and  C_12
    4  A    between atoms: C_12  and  N_16
    5  A    between atoms: C_13  and  O_23
    6  A    between atoms: N_16  and  C_20
                            x       y       z     vdW  Elec       q    Type
                         _______ _______ _______ _____ _____    ______ ____

>  <TORSDO>
F 6

$$$$
=
 OpenBabel10232411383D

 27 30  0  0  1  0  0  0  0  0999 V2000
  188.0790  177.3990  142.7240 C   0  0  1  0  0  3  0  0  0  0  0  0
  190.1080  177.7920  145.9430 C   0  0  0  0  0  3  0  0  0  0  0  0
  189.1490  177.2370  143.7830 C   0  0  0  0  0  0  0  0  0  0  0  0
  191.1690  176.9140  145.7090 C   0  0  0  0  0  0  0  0  0  0  0  0
  190.2110  176.3580  143.5470 C   0  0  0  0  0  3  0  0  0  0  0  0
  189.1020  177.9550  144.9870 C   0  0  0  0  0  3  0  0  0  0  0  0
  191.2160  176.1960  144.5020 C   0  0  0  0  0  3  0  0  0  0  0  0
  192.2710  175.6180  147.5050 C   0  0  0  0  0  1  0  0  0  0  0  0
  192.1600  176.7740  146.6850 O   0  0  0  0  0  0  0  0  0  0  0  0
  186.7340  176.9140  144.6200 C   0  0  0  0  0  1  0  0  0  0  0  0
  186.6920  177.3010  143.2160 N   0  0  0  0  0  0  0  0  0  0  0  0
  184.7990  178.4310  142.1670 C   0  0  0  0  0  2  0  0  0  0  0  0
  184.0750  179.7100  144.0850 N   0  0  0  0  0  1  0  0  0  0  0  0
  184.5670  178.4130  143.6600 C   0  0  2  0  0  3  0  0  0  0  0  0
  185.9760  178.5730  143.1140 C   0  0  1  0  0  3  0  0  0  0  0  0
  188.2730  178.6370  141.8460 C   0  0  0  0  0  2  0  0  0  0  0  0
  187.4710  178.4130  138.2010 N   0  0  0  0  0  0  0  0  0  0  0  0
  187.5550  178.5910  139.5210 N   0  0  0  0  0  0  0  0  0  0  0  0
  187.9250  177.8090  135.9490 N   0  0  0  0  0  1  0  0  0  0  0  0
  189.7110  177.6090  140.1570 C   0  0  0  0  0  3  0  0  0  0  0  0
  191.4560  176.2720  137.3910 C   0  0  0  0  0  3  0  0  0  0  0  0
  190.1700  177.1760  138.9390 C   0  0  0  0  0  0  0  0  0  0  0  0
  188.5130  178.2540  140.4240 C   0  0  0  0  0  0  0  0  0  0  0  0
  190.3610  176.7130  136.7340 N   0  0  0  0  0  0  0  0  0  0  0  0
  188.3230  177.8360  137.3160 C   0  0  0  0  0  0  0  0  0  0  0  0
  189.5480  177.2740  137.6470 C   0  0  0  0  0  0  0  0  0  0  0  0
  191.3750  176.5380  138.7490 C   0  0  0  0  0  3  0  0  0  0  0  0
  1 16  1  1  0  0  0
  1 11  1  0  0  0  0
  1  3  1  0  0  0  0
  3  6  1  0  0  0  0
  4  2  1  0  0  0  0
  4  9  1  0  0  0  0
  5  3  2  0  0  0  0
  5  7  1  0  0  0  0
  6  2  2  0  0  0  0
  7  4  2  0  0  0  0
  9  8  1  0  0  0  0
 11 10  1  0  0  0  0
 12 15  1  0  0  0  0
 12 14  1  0  0  0  0
 14 13  1  6  0  0  0
 15 11  1  1  0  0  0
 15 14  1  0  0  0  0
 17 18  1  0  0  0  0
 18 23  2  0  0  0  0
 19 25  1  0  0  0  0
 20 23  1  0  0  0  0
 21 27  2  0  0  0  0
 22 20  2  0  0  0  0
 23 16  1  0  0  0  0
 24 21  1  0  0  0  0
 24 26  2  0  0  0  0
 25 26  1  0  0  0  0
 25 17  2  0  0  0  0
 26 22  1  0  0  0  0
 27 22  1  0  0  0  0
M  END
>  <MODEL>
7

>  <REMARK>
 VINA RESULT:      -7.8      2.330      3.323
  Name = 
  6 active torsions:
  status: ('A' for Active; 'I' for Inactive)
    1  A    between atoms: C_6  and  C_12
    2  A    between atoms: C_6  and  C_21
    3  A    between atoms: C_7  and  C_12
    4  A    between atoms: C_12  and  N_16
    5  A    between atoms: C_13  and  O_23
    6  A    between atoms: N_16  and  C_20
                            x       y       z     vdW  Elec       q    Type
                         _______ _______ _______ _____ _____    ______ ____

>  <TORSDO>
F 6

$$$$
=
 OpenBabel10232411383D

 27 30  0  0  1  0  0  0  0  0999 V2000
  189.1730  177.7730  141.6240 C   0  0  1  0  0  3  0  0  0  0  0  0
  190.9760  176.1860  138.6460 C   0  0  0  0  0  3  0  0  0  0  0  0
  190.2530  177.3510  140.6500 C   0  0  0  0  0  0  0  0  0  0  0  0
  192.2960  176.5800  138.8820 C   0  0  0  0  0  0  0  0  0  0  0  0
  191.5730  177.7450  140.8870 C   0  0  0  0  0  3  0  0  0  0  0  0
  189.9590  176.5680  139.5230 C   0  0  0  0  0  3  0  0  0  0  0  0
  192.5910  177.3630  140.0100 C   0  0  0  0  0  3  0  0  0  0  0  0
  193.6110  174.8170  137.7500 C   0  0  0  0  0  1  0  0  0  0  0  0
  193.2920  176.1810  137.9850 O   0  0  0  0  0  0  0  0  0  0  0  0
  188.0710  178.3080  139.5900 C   0  0  0  0  0  1  0  0  0  0  0  0
  188.0560  178.5300  141.0290 N   0  0  0  0  0  0  0  0  0  0  0  0
  186.1730  179.1660  142.4480 C   0  0  0  0  0  2  0  0  0  0  0  0
  184.4000  178.3160  141.0440 N   0  0  0  0  0  1  0  0  0  0  0  0
  185.6670  179.0230  141.0320 C   0  0  2  0  0  3  0  0  0  0  0  0
  186.7560  178.0960  141.5440 C   0  0  1  0  0  3  0  0  0  0  0  0
  188.6660  176.6290  142.5040 C   0  0  0  0  0  2  0  0  0  0  0  0
  191.1790  176.5460  145.2720 N   0  0  0  0  0  0  0  0  0  0  0  0
  190.4500  176.4980  144.1550 N   0  0  0  0  0  0  0  0  0  0  0  0
  191.8890  176.8420  147.5190 N   0  0  0  0  0  1  0  0  0  0  0  0
  188.2070  177.2270  144.8300 C   0  0  0  0  0  3  0  0  0  0  0  0
  188.0200  178.0150  148.2690 C   0  0  0  0  0  3  0  0  0  0  0  0
  188.4010  177.4630  146.1670 C   0  0  0  0  0  0  0  0  0  0  0  0
  189.1440  176.7820  143.9090 C   0  0  0  0  0  0  0  0  0  0  0  0
  189.3230  177.6630  148.2220 N   0  0  0  0  0  0  0  0  0  0  0  0
  190.8560  176.9020  146.5410 C   0  0  0  0  0  0  0  0  0  0  0  0
  189.5970  177.3190  146.9510 C   0  0  0  0  0  0  0  0  0  0  0  0
  187.4190  177.9050  147.0240 C   0  0  0  0  0  3  0  0  0  0  0  0
  1 16  1  6  0  0  0
  2  4  2  0  0  0  0
  2  6  1  0  0  0  0
  3  5  1  0  0  0  0
  3  1  1  0  0  0  0
  4  7  1  0  0  0  0
  6  3  2  0  0  0  0
  7  5  2  0  0  0  0
  8  9  1  0  0  0  0
  9  4  1  0  0  0  0
 10 11  1  0  0  0  0
 11  1  1  0  0  0  0
 14 13  1  1  0  0  0
 14 15  1  0  0  0  0
 14 12  1  0  0  0  0
 15 11  1  6  0  0  0
 15 12  1  0  0  0  0
 16 23  1  0  0  0  0
 17 25  1  0  0  0  0
 18 17  2  0  0  0  0
 20 22  1  0  0  0  0
 22 26  1  0  0  0  0
 22 27  2  0  0  0  0
 23 18  1  0  0  0  0
 23 20  2  0  0  0  0
 24 21  2  0  0  0  0
 25 26  2  0  0  0  0
 25 19  1  0  0  0  0
 26 24  1  0  0  0  0
 27 21  1  0  0  0  0
M  END
>  <MODEL>
8

>  <REMARK>
 VINA RESULT:      -7.6      3.970      7.426
  Name = 
  6 active torsions:
  status: ('A' for Active; 'I' for Inactive)
    1  A    between atoms: C_6  and  C_12
    2  A    between atoms: C_6  and  C_21
    3  A    between atoms: C_7  and  C_12
    4  A    between atoms: C_12  and  N_16
    5  A    between atoms: C_13  and  O_23
    6  A    between atoms: N_16  and  C_20
                            x       y       z     vdW  Elec       q    Type
                         _______ _______ _______ _____ _____    ______ ____

>  <TORSDO>
F 6

$$$$
=
 OpenBabel10232411383D

 27 30  0  0  1  0  0  0  0  0999 V2000
  188.7050  177.4680  140.8100 C   0  0  1  0  0  3  0  0  0  0  0  0
  189.1620  178.7880  137.2480 C   0  0  0  0  0  3  0  0  0  0  0  0
  188.9050  177.5320  139.3110 C   0  0  0  0  0  0  0  0  0  0  0  0
  189.2580  177.5960  136.5240 C   0  0  0  0  0  0  0  0  0  0  0  0
  189.0000  176.3400  138.5870 C   0  0  0  0  0  3  0  0  0  0  0  0
  188.9860  178.7590  138.6330 C   0  0  0  0  0  3  0  0  0  0  0  0
  189.1750  176.3690  137.2020 C   0  0  0  0  0  3  0  0  0  0  0  0
  189.7040  176.5100  134.3460 C   0  0  0  0  0  1  0  0  0  0  0  0
  189.4330  177.6590  135.1380 O   0  0  0  0  0  0  0  0  0  0  0  0
  191.0720  177.3050  140.9110 C   0  0  0  0  0  1  0  0  0  0  0  0
  189.8360  176.9010  141.5680 N   0  0  0  0  0  0  0  0  0  0  0  0
  188.9650  176.5360  143.8190 C   0  0  0  0  0  2  0  0  0  0  0  0
  191.0150  176.9330  145.0350 N   0  0  0  0  0  1  0  0  0  0  0  0
  190.4580  176.3060  143.8510 C   0  0  2  0  0  3  0  0  0  0  0  0
  189.8760  177.3820  142.9490 C   0  0  1  0  0  3  0  0  0  0  0  0
  188.2330  178.7900  141.4190 C   0  0  0  0  0  2  0  0  0  0  0  0
  184.6830  178.7970  140.2440 N   0  0  0  0  0  0  0  0  0  0  0  0
  186.0030  178.8010  140.4430 N   0  0  0  0  0  0  0  0  0  0  0  0
  182.3290  178.7880  140.5630 N   0  0  0  0  0  1  0  0  0  0  0  0
  186.2750  178.8000  142.8820 C   0  0  0  0  0  3  0  0  0  0  0  0
  183.1790  178.7850  144.5860 C   0  0  0  0  0  3  0  0  0  0  0  0
  184.9640  178.7950  143.2900 C   0  0  0  0  0  0  0  0  0  0  0  0
  186.7500  178.8070  141.5790 C   0  0  0  0  0  0  0  0  0  0  0  0
  182.7040  178.7860  143.3220 N   0  0  0  0  0  0  0  0  0  0  0  0
  183.6430  178.7930  141.1140 C   0  0  0  0  0  0  0  0  0  0  0  0
  183.7660  178.7920  142.4970 C   0  0  0  0  0  0  0  0  0  0  0  0
  184.5660  178.7900  144.6070 C   0  0  0  0  0  3  0  0  0  0  0  0
  1 16  1  1  0  0  0
  1 11  1  0  0  0  0
  2  6  1  0  0  0  0
  3  1  1  0  0  0  0
  4  7  1  0  0  0  0
  4  2  2  0  0  0  0
  5  3  1  0  0  0  0
  6  3  2  0  0  0  0
  7  5  2  0  0  0  0
  8  9  1  0  0  0  0
  9  4  1  0  0  0  0
 10 11  1  0  0  0  0
 12 14  1  0  0  0  0
 14 13  1  1  0  0  0
 15 11  1  6  0  0  0
 15 12  1  0  0  0  0
 15 14  1  0  0  0  0
 16 23  1  0  0  0  0
 17 18  2  0  0  0  0
 17 25  1  0  0  0  0
 18 23  1  0  0  0  0
 19 25  1  0  0  0  0
 20 22  1  0  0  0  0
 21 27  1  0  0  0  0
 22 27  2  0  0  0  0
 23 20  2  0  0  0  0
 24 21  2  0  0  0  0
 25 26  2  0  0  0  0
 26 22  1  0  0  0  0
 26 24  1  0  0  0  0
M  END
>  <MODEL>
9

>  <REMARK>
 VINA RESULT:      -7.6      3.274      7.707
  Name = 
  6 active torsions:
  status: ('A' for Active; 'I' for Inactive)
    1  A    between atoms: C_6  and  C_12
    2  A    between atoms: C_6  and  C_21
    3  A    between atoms: C_7  and  C_12
    4  A    between atoms: C_12  and  N_16
    5  A    between atoms: C_13  and  O_23
    6  A    between atoms: N_16  and  C_20
                            x       y       z     vdW  Elec       q    Type
                         _______ _______ _______ _____ _____    ______ ____

>  <TORSDO>
F 6

$$$$
