=
 OpenBabel10232410573D

 42 48  0  0  1  0  0  0  0  0999 V2000
  190.9390  176.1840  138.2620 N   0  0  0  0  0  0  0  0  0  0  0  0
  194.2620  175.0770  135.8240 C   0  0  0  0  0  0  0  0  0  0  0  0
  193.0410  175.4290  135.2430 C   0  0  0  0  0  3  0  0  0  0  0  0
  193.3010  175.4940  138.0230 C   0  0  0  0  0  3  0  0  0  0  0  0
  196.4310  173.9110  135.3780 C   0  0  0  0  0  2  0  0  0  0  0  0
  197.8210  175.8400  136.7100 O   0  0  0  0  0  0  0  0  0  0  0  0
  191.9560  175.7980  136.0400 C   0  0  0  0  0  3  0  0  0  0  0  0
  198.0710  173.4110  137.6970 O   0  0  0  0  0  1  0  0  0  0  0  0
  195.3160  174.7040  134.9720 O   0  0  0  0  0  0  0  0  0  0  0  0
  192.0690  175.8250  137.4380 C   0  0  0  0  0  0  0  0  0  0  0  0
  194.3980  175.1270  137.2360 C   0  0  0  0  0  0  0  0  0  0  0  0
  197.0730  174.5460  136.9390 P   0  0  2  0  0  0  0  0  0  0  0  0
  195.6390  174.8440  137.8890 N   0  0  0  0  0  2  0  0  0  0  0  0
  191.1130  176.9760  139.4750 C   0  0  0  0  0  2  0  0  0  0  0  0
  190.8500  176.1770  140.6180 O   0  0  0  0  0  0  0  0  0  0  0  0
  191.1250  176.7550  144.7240 N   0  0  0  0  0  0  0  0  0  0  0  0
  189.0400  176.9880  143.7360 C   0  0  0  0  0  0  0  0  0  0  0  0
  191.2980  176.5110  143.4560 C   0  0  0  0  0  3  0  0  0  0  0  0
  187.7310  177.6580  146.0750 C   0  0  0  0  0  0  0  0  0  0  0  0
  189.8180  176.5000  141.4710 N   0  0  0  0  0  0  0  0  0  0  0  0
  187.0670  178.0030  147.2440 O   0  0  0  0  0  1  0  0  0  0  0  0
  187.0170  177.5920  144.8570 C   0  0  0  0  0  3  0  0  0  0  0  0
  187.6740  177.2530  143.6610 C   0  0  0  0  0  3  0  0  0  0  0  0
  189.7420  177.0540  144.9130 C   0  0  0  0  0  0  0  0  0  0  0  0
  189.1120  177.3860  146.1100 C   0  0  0  0  0  3  0  0  0  0  0  0
  190.0200  176.6370  142.7400 C   0  0  0  0  0  0  0  0  0  0  0  0
  189.5810  175.7730  137.9280 C   0  0  0  0  0  2  0  0  0  0  0  0
  188.1560  177.6680  134.9470 C   0  0  0  0  0  2  0  0  0  0  0  0
  188.8410  176.9120  137.2370 C   0  0  1  0  0  3  0  0  0  0  0  0
  186.4270  177.7230  136.6680 C   0  0  1  0  0  3  0  0  0  0  0  0
  186.7840  175.2270  137.3530 C   0  0  0  0  0  1  0  0  0  0  0  0
  188.3790  176.4660  135.8530 C   0  0  1  0  0  3  0  0  0  0  0  0
  187.0490  178.5240  135.5390 C   0  0  0  0  0  2  0  0  0  0  0  0
  187.3730  176.5780  136.9720 C   0  0  2  0  0  0  0  0  0  0  0  0
  186.2640  178.5580  137.8540 N   0  0  0  0  0  2  0  0  0  0  0  0
  184.0300  177.8920  138.4420 C   0  0  0  0  0  3  0  0  0  0  0  0
  183.3450  177.4140  140.6740 O   0  0  0  0  0  0  0  0  0  0  0  0
  185.5860  178.8150  140.5350 S   0  0  0  0  0  0  0  0  0  0  0  0
  182.8840  177.7590  139.3990 C   0  0  0  0  0  2  0  0  0  0  0  0
  183.8950  178.5930  141.1870 C   0  0  2  0  0  3  0  0  0  0  0  0
  183.9530  178.4950  142.9620 Cl  0  0  0  0  0  0  0  0  0  0  0  0
  185.2130  178.4010  138.8130 C   0  0  0  0  0  0  0  0  0  0  0  0
  1 14  1  0  0  0  0
  2 11  1  0  0  0  0
  3  2  2  0  0  0  0
  3  7  1  0  0  0  0
  5 12  1  0  0  0  0
  7 10  2  0  0  0  0
  9  5  1  0  0  0  0
  9  2  1  0  0  0  0
 10  4  1  0  0  0  0
 10  1  1  0  0  0  0
 11 13  1  0  0  0  0
 11  4  2  0  0  0  0
 12  6  2  6  0  0  0
 12  8  1  0  0  0  0
 12 13  1  0  0  0  0
 14 15  1  0  0  0  0
 15 20  1  0  0  0  0
 16 24  1  0  0  0  0
 17 24  1  0  0  0  0
 18 16  2  0  0  0  0
 19 25  1  0  0  0  0
 19 21  1  0  0  0  0
 20 26  2  0  0  0  0
 22 19  2  0  0  0  0
 23 17  2  0  0  0  0
 23 22  1  0  0  0  0
 24 25  2  0  0  0  0
 26 18  1  0  0  0  0
 26 17  1  0  0  0  0
 27  1  1  0  0  0  0
 28 33  1  0  0  0  0
 29 27  1  1  0  0  0
 30 34  1  0  0  0  0
 30 35  1  1  0  0  0
 32 28  1  6  0  0  0
 32 34  1  0  0  0  0
 32 29  1  0  0  0  0
 33 30  1  0  0  0  0
 34 29  1  0  0  0  0
 34 31  1  1  0  0  0
 35 42  1  0  0  0  0
 36 42  2  0  0  0  0
 36 39  1  0  0  0  0
 37 40  1  0  0  0  0
 38 40  1  0  0  0  0
 39 37  1  0  0  0  0
 40 41  1  1  0  0  0
 42 38  1  0  0  0  0
M  END
>  <MODEL>
1

>  <REMARK>
 VINA RESULT:      -9.0      0.000      0.000
  Name = 
  8 active torsions:
  status: ('A' for Active; 'I' for Inactive)
    1  A    between atoms: C_10  and  C_29
    2  A    between atoms: N_13  and  C_14
    3  A    between atoms: N_13  and  C_38
    4  A    between atoms: N_18  and  O_30
    5  A    between atoms: C_23  and  O_30
    6  A    between atoms: C_23  and  N_35
    7  A    between atoms: C_27  and  N_35
    8  A    between atoms: C_29  and  N_35
                            x       y       z     vdW  Elec       q    Type
                         _______ _______ _______ _____ _____    ______ ____

>  <TORSDO>
F 8

$$$$
=
 OpenBabel10232410573D

 42 48  0  0  1  0  0  0  0  0999 V2000
  190.2360  177.3300  138.8040 N   0  0  0  0  0  0  0  0  0  0  0  0
  192.5820  174.1590  137.1750 C   0  0  0  0  0  0  0  0  0  0  0  0
  191.1870  174.1220  137.0980 C   0  0  0  0  0  3  0  0  0  0  0  0
  192.4330  176.3160  138.2960 C   0  0  0  0  0  3  0  0  0  0  0  0
  194.6360  172.7380  137.0130 C   0  0  0  0  0  2  0  0  0  0  0  0
  195.9460  174.6710  135.6080 O   0  0  0  0  0  0  0  0  0  0  0  0
  190.4200  175.1620  137.6250 C   0  0  0  0  0  3  0  0  0  0  0  0
  197.0830  173.9910  137.8840 O   0  0  0  0  0  1  0  0  0  0  0  0
  193.3030  173.0780  136.6360 O   0  0  0  0  0  0  0  0  0  0  0  0
  191.0320  176.2650  138.2390 C   0  0  0  0  0  0  0  0  0  0  0  0
  193.2140  175.2830  137.7680 C   0  0  0  0  0  0  0  0  0  0  0  0
  195.6480  174.2310  137.0240 P   0  0  2  0  0  0  0  0  0  0  0  0
  194.6390  175.4130  137.8170 N   0  0  0  0  0  2  0  0  0  0  0  0
  190.3300  177.6710  140.2190 C   0  0  0  0  0  2  0  0  0  0  0  0
  189.8500  176.5970  141.0110 O   0  0  0  0  0  0  0  0  0  0  0  0
  191.2380  176.7420  144.9250 N   0  0  0  0  0  0  0  0  0  0  0  0
  188.9760  177.1050  144.5660 C   0  0  0  0  0  0  0  0  0  0  0  0
  191.0550  176.6280  143.6400 C   0  0  0  0  0  3  0  0  0  0  0  0
  188.3700  177.5470  147.2240 C   0  0  0  0  0  0  0  0  0  0  0  0
  189.0980  176.8430  142.1380 N   0  0  0  0  0  0  0  0  0  0  0  0
  188.0580  177.7780  148.5570 O   0  0  0  0  0  1  0  0  0  0  0  0
  187.3550  177.6180  146.2450 C   0  0  0  0  0  3  0  0  0  0  0  0
  187.6520  177.3950  144.8890 C   0  0  0  0  0  3  0  0  0  0  0  0
  189.9700  177.0380  145.5090 C   0  0  0  0  0  0  0  0  0  0  0  0
  189.6980  177.2540  146.8580 C   0  0  0  0  0  3  0  0  0  0  0  0
  189.6380  176.8450  143.3120 C   0  0  0  0  0  0  0  0  0  0  0  0
  189.3040  178.1070  137.9950 C   0  0  0  0  0  2  0  0  0  0  0  0
  185.4980  178.1520  137.8770 C   0  0  0  0  0  2  0  0  0  0  0  0
  187.9100  177.4960  138.0660 C   0  0  1  0  0  3  0  0  0  0  0  0
  186.1870  176.1800  136.6150 C   0  0  1  0  0  3  0  0  0  0  0  0
  188.1510  177.4180  135.4170 C   0  0  0  0  0  1  0  0  0  0  0  0
  186.9080  178.4090  137.3660 C   0  0  1  0  0  3  0  0  0  0  0  0
  185.1140  176.7200  137.5440 C   0  0  0  0  0  2  0  0  0  0  0  0
  187.3580  177.1400  136.6860 C   0  0  2  0  0  0  0  0  0  0  0  0
  186.6090  174.8510  137.0460 N   0  0  0  0  0  2  0  0  0  0  0  0
  186.9560  173.1090  135.4260 C   0  0  0  0  0  3  0  0  0  0  0  0
  185.9310  170.9620  135.5630 O   0  0  0  0  0  0  0  0  0  0  0  0
  184.7380  172.7980  137.0500 S   0  0  0  0  0  0  0  0  0  0  0  0
  186.5500  171.8660  134.6930 C   0  0  0  0  0  2  0  0  0  0  0  0
  184.6540  171.4900  135.7780 C   0  0  2  0  0  3  0  0  0  0  0  0
  183.5650  170.1970  136.3310 Cl  0  0  0  0  0  0  0  0  0  0  0  0
  186.2110  173.6330  136.4080 C   0  0  0  0  0  0  0  0  0  0  0  0
  1 14  1  0  0  0  0
  2 11  1  0  0  0  0
  3  2  2  0  0  0  0
  3  7  1  0  0  0  0
  5 12  1  0  0  0  0
  7 10  2  0  0  0  0
  9  5  1  0  0  0  0
  9  2  1  0  0  0  0
 10  4  1  0  0  0  0
 10  1  1  0  0  0  0
 11 13  1  0  0  0  0
 11  4  2  0  0  0  0
 12  6  2  6  0  0  0
 12 13  1  0  0  0  0
 12  8  1  0  0  0  0
 14 15  1  0  0  0  0
 15 20  1  0  0  0  0
 16 24  1  0  0  0  0
 17 23  2  0  0  0  0
 17 24  1  0  0  0  0
 18 16  2  0  0  0  0
 19 21  1  0  0  0  0
 20 26  2  0  0  0  0
 22 19  2  0  0  0  0
 23 22  1  0  0  0  0
 24 25  2  0  0  0  0
 25 19  1  0  0  0  0
 26 18  1  0  0  0  0
 26 17  1  0  0  0  0
 27  1  1  0  0  0  0
 29 27  1  6  0  0  0
 30 34  1  0  0  0  0
 30 35  1  1  0  0  0
 30 33  1  0  0  0  0
 32 28  1  1  0  0  0
 32 29  1  0  0  0  0
 33 28  1  0  0  0  0
 34 31  1  6  0  0  0
 34 32  1  0  0  0  0
 34 29  1  0  0  0  0
 36 42  2  0  0  0  0
 37 40  1  0  0  0  0
 39 36  1  0  0  0  0
 39 37  1  0  0  0  0
 40 41  1  1  0  0  0
 40 38  1  0  0  0  0
 42 35  1  0  0  0  0
 42 38  1  0  0  0  0
M  END
>  <MODEL>
2

>  <REMARK>
 VINA RESULT:      -8.7      2.930      3.769
  Name = 
  8 active torsions:
  status: ('A' for Active; 'I' for Inactive)
    1  A    between atoms: C_10  and  C_29
    2  A    between atoms: N_13  and  C_14
    3  A    between atoms: N_13  and  C_38
    4  A    between atoms: N_18  and  O_30
    5  A    between atoms: C_23  and  O_30
    6  A    between atoms: C_23  and  N_35
    7  A    between atoms: C_27  and  N_35
    8  A    between atoms: C_29  and  N_35
                            x       y       z     vdW  Elec       q    Type
                         _______ _______ _______ _____ _____    ______ ____

>  <TORSDO>
F 8

$$$$
=
 OpenBabel10232410573D

 42 48  0  0  1  0  0  0  0  0999 V2000
  185.8850  178.5460  139.5260 N   0  0  0  0  0  0  0  0  0  0  0  0
  189.8840  177.1360  139.0450 C   0  0  0  0  0  0  0  0  0  0  0  0
  189.5350  177.9180  140.1490 C   0  0  0  0  0  3  0  0  0  0  0  0
  187.5770  177.2500  138.2730 C   0  0  0  0  0  3  0  0  0  0  0  0
  191.8330  176.3220  137.7030 C   0  0  0  0  0  2  0  0  0  0  0  0
  190.7400  173.8340  137.4960 O   0  0  0  0  0  1  0  0  0  0  0  0
  188.2260  178.3730  140.3110 C   0  0  0  0  0  3  0  0  0  0  0  0
  191.1710  175.0500  135.2010 O   0  0  0  0  0  0  0  0  0  0  0  0
  191.2210  176.7140  138.9300 O   0  0  0  0  0  0  0  0  0  0  0  0
  187.2350  178.0550  139.3700 C   0  0  0  0  0  0  0  0  0  0  0  0
  188.8840  176.7820  138.1020 C   0  0  0  0  0  0  0  0  0  0  0  0
  190.7350  175.1900  136.8270 P   0  0  2  0  0  0  0  0  0  0  0  0
  189.1620  175.9300  136.9870 N   0  0  0  0  0  2  0  0  0  0  0  0
  185.4220  179.0850  140.7990 C   0  0  0  0  0  2  0  0  0  0  0  0
  185.2080  178.0310  141.7240 O   0  0  0  0  0  0  0  0  0  0  0  0
  188.2810  176.8170  144.2440 N   0  0  0  0  0  0  0  0  0  0  0  0
  186.5230  178.0050  145.1780 C   0  0  0  0  0  0  0  0  0  0  0  0
  187.4530  177.0620  143.2690 C   0  0  0  0  0  3  0  0  0  0  0  0
  187.5670  178.0260  147.7360 C   0  0  0  0  0  0  0  0  0  0  0  0
  185.2970  178.2640  143.0790 N   0  0  0  0  0  0  0  0  0  0  0  0
  188.0890  178.0480  149.0210 O   0  0  0  0  0  1  0  0  0  0  0  0
  186.3320  178.6570  147.4700 C   0  0  0  0  0  3  0  0  0  0  0  0
  185.7910  178.6530  146.1720 C   0  0  0  0  0  3  0  0  0  0  0  0
  187.7250  177.3930  145.4260 C   0  0  0  0  0  0  0  0  0  0  0  0
  188.2790  177.3840  146.7040 C   0  0  0  0  0  3  0  0  0  0  0  0
  186.2970  177.8190  143.7670 C   0  0  0  0  0  0  0  0  0  0  0  0
  184.9260  178.5220  138.4280 C   0  0  0  0  0  2  0  0  0  0  0  0
  181.3830  177.1340  138.5830 C   0  0  0  0  0  2  0  0  0  0  0  0
  183.8680  177.4550  138.6760 C   0  0  1  0  0  3  0  0  0  0  0  0
  182.7400  175.4000  137.5300 C   0  0  1  0  0  3  0  0  0  0  0  0
  184.0660  177.0940  136.0470 C   0  0  0  0  0  1  0  0  0  0  0  0
  182.5810  177.8200  137.9430 C   0  0  1  0  0  3  0  0  0  0  0  0
  181.5620  175.6300  138.4600 C   0  0  0  0  0  2  0  0  0  0  0  0
  183.4630  176.7250  137.3960 C   0  0  2  0  0  0  0  0  0  0  0  0
  183.6420  174.3990  138.0920 N   0  0  0  0  0  2  0  0  0  0  0  0
  183.7730  172.5050  136.6160 C   0  0  0  0  0  3  0  0  0  0  0  0
  185.6630  172.0380  135.2410 O   0  0  0  0  0  0  0  0  0  0  0  0
  186.1890  173.7080  137.2260 S   0  0  0  0  0  0  0  0  0  0  0  0
  184.5250  171.4750  135.8290 C   0  0  0  0  0  2  0  0  0  0  0  0
  186.5730  172.1860  136.2930 C   0  0  2  0  0  3  0  0  0  0  0  0
  188.2220  172.2960  135.6360 Cl  0  0  0  0  0  0  0  0  0  0  0  0
  184.3970  173.4660  137.3110 C   0  0  0  0  0  0  0  0  0  0  0  0
  1 14  1  0  0  0  0
  2  3  1  0  0  0  0
  3  7  2  0  0  0  0
  4 10  2  0  0  0  0
  5  9  1  0  0  0  0
  9  2  1  0  0  0  0
 10  1  1  0  0  0  0
 10  7  1  0  0  0  0
 11  4  1  0  0  0  0
 11  2  2  0  0  0  0
 12  8  2  6  0  0  0
 12 13  1  0  0  0  0
 12  6  1  0  0  0  0
 12  5  1  0  0  0  0
 13 11  1  0  0  0  0
 14 15  1  0  0  0  0
 15 20  1  0  0  0  0
 16 24  1  0  0  0  0
 17 24  2  0  0  0  0
 17 23  1  0  0  0  0
 18 26  1  0  0  0  0
 18 16  2  0  0  0  0
 19 21  1  0  0  0  0
 20 26  2  0  0  0  0
 22 19  1  0  0  0  0
 23 22  2  0  0  0  0
 24 25  1  0  0  0  0
 25 19  2  0  0  0  0
 26 17  1  0  0  0  0
 27  1  1  0  0  0  0
 29 27  1  6  0  0  0
 30 35  1  1  0  0  0
 30 33  1  0  0  0  0
 32 28  1  1  0  0  0
 32 29  1  0  0  0  0
 33 28  1  0  0  0  0
 34 31  1  6  0  0  0
 34 30  1  0  0  0  0
 34 32  1  0  0  0  0
 34 29  1  0  0  0  0
 36 42  2  0  0  0  0
 37 39  1  0  0  0  0
 37 40  1  0  0  0  0
 38 42  1  0  0  0  0
 39 36  1  0  0  0  0
 40 41  1  6  0  0  0
 40 38  1  0  0  0  0
 42 35  1  0  0  0  0
M  END
>  <MODEL>
3

>  <REMARK>
 VINA RESULT:      -8.6      3.566      5.713
  Name = 
  8 active torsions:
  status: ('A' for Active; 'I' for Inactive)
    1  A    between atoms: C_10  and  C_29
    2  A    between atoms: N_13  and  C_14
    3  A    between atoms: N_13  and  C_38
    4  A    between atoms: N_18  and  O_30
    5  A    between atoms: C_23  and  O_30
    6  A    between atoms: C_23  and  N_35
    7  A    between atoms: C_27  and  N_35
    8  A    between atoms: C_29  and  N_35
                            x       y       z     vdW  Elec       q    Type
                         _______ _______ _______ _____ _____    ______ ____

>  <TORSDO>
F 8

$$$$
=
 OpenBabel10232410573D

 42 48  0  0  1  0  0  0  0  0999 V2000
  190.6940  176.9330  138.8870 N   0  0  0  0  0  0  0  0  0  0  0  0
  186.5700  176.8990  137.7890 C   0  0  0  0  0  0  0  0  0  0  0  0
  187.4520  175.9480  137.2680 C   0  0  0  0  0  3  0  0  0  0  0  0
  188.4060  177.8540  139.0720 C   0  0  0  0  0  3  0  0  0  0  0  0
  184.3290  177.9570  137.4410 C   0  0  0  0  0  2  0  0  0  0  0  0
  183.8040  177.8870  140.1140 O   0  0  0  0  0  1  0  0  0  0  0  0
  188.7990  175.9550  137.6320 C   0  0  0  0  0  3  0  0  0  0  0  0
  183.7980  180.2940  139.0450 O   0  0  0  0  0  0  0  0  0  0  0  0
  185.2260  176.8500  137.3790 O   0  0  0  0  0  0  0  0  0  0  0  0
  189.2950  176.9130  138.5290 C   0  0  0  0  0  0  0  0  0  0  0  0
  187.0530  177.8550  138.7200 C   0  0  0  0  0  0  0  0  0  0  0  0
  184.4680  178.7430  139.0590 P   0  0  2  0  0  0  0  0  0  0  0  0
  186.1890  178.8120  139.3410 N   0  0  0  0  0  2  0  0  0  0  0  0
  191.1150  177.1330  140.2690 C   0  0  0  0  0  2  0  0  0  0  0  0
  190.5350  176.1420  141.1020 O   0  0  0  0  0  0  0  0  0  0  0  0
  191.6160  176.5380  145.0950 N   0  0  0  0  0  0  0  0  0  0  0  0
  189.4070  176.9550  144.5260 C   0  0  0  0  0  0  0  0  0  0  0  0
  191.5290  176.3320  143.8110 C   0  0  0  0  0  3  0  0  0  0  0  0
  188.6120  177.6230  147.0860 C   0  0  0  0  0  0  0  0  0  0  0  0
  189.7080  176.5030  142.1430 N   0  0  0  0  0  0  0  0  0  0  0  0
  188.2070  177.9680  148.3680 O   0  0  0  0  0  1  0  0  0  0  0  0
  187.6820  177.6560  146.0240 C   0  0  0  0  0  3  0  0  0  0  0  0
  188.0750  177.3180  144.7170 C   0  0  0  0  0  3  0  0  0  0  0  0
  190.3190  176.9250  145.5500 C   0  0  0  0  0  0  0  0  0  0  0  0
  189.9510  177.2540  146.8520 C   0  0  0  0  0  3  0  0  0  0  0  0
  190.1540  176.5750  143.3540 C   0  0  0  0  0  0  0  0  0  0  0  0
  191.7450  176.7610  137.8920 C   0  0  0  0  0  2  0  0  0  0  0  0
  190.9490  173.6330  135.8690 C   0  0  0  0  0  2  0  0  0  0  0  0
  191.8710  175.2920  137.5070 C   0  0  1  0  0  3  0  0  0  0  0  0
  193.3770  173.6710  136.1230 C   0  0  1  0  0  3  0  0  0  0  0  0
  193.5580  176.2400  135.6800 C   0  0  0  0  0  1  0  0  0  0  0  0
  191.3610  175.0830  136.0850 C   0  0  1  0  0  3  0  0  0  0  0  0
  192.1720  172.7490  136.0460 C   0  0  0  0  0  2  0  0  0  0  0  0
  192.8460  175.0730  136.3510 C   0  0  2  0  0  0  0  0  0  0  0  0
  194.2410  173.2830  137.2330 N   0  0  0  0  0  2  0  0  0  0  0  0
  196.3940  173.9270  136.3770 C   0  0  0  0  0  3  0  0  0  0  0  0
  197.9130  175.3310  137.5600 O   0  0  0  0  0  0  0  0  0  0  0  0
  196.0510  174.2560  139.1020 S   0  0  0  0  0  0  0  0  0  0  0  0
  197.8130  174.3830  136.5370 C   0  0  0  0  0  2  0  0  0  0  0  0
  197.8090  174.5930  138.7430 C   0  0  2  0  0  3  0  0  0  0  0  0
  198.5190  175.5220  140.0840 Cl  0  0  0  0  0  0  0  0  0  0  0  0
  195.5740  173.7710  137.4250 C   0  0  0  0  0  0  0  0  0  0  0  0
  1 14  1  0  0  0  0
  2 11  1  0  0  0  0
  3  7  1  0  0  0  0
  3  2  2  0  0  0  0
  5 12  1  0  0  0  0
  7 10  2  0  0  0  0
  9  5  1  0  0  0  0
  9  2  1  0  0  0  0
 10  1  1  0  0  0  0
 10  4  1  0  0  0  0
 11  4  2  0  0  0  0
 11 13  1  0  0  0  0
 12  8  2  6  0  0  0
 12 13  1  0  0  0  0
 12  6  1  0  0  0  0
 14 15  1  0  0  0  0
 15 20  1  0  0  0  0
 16 24  1  0  0  0  0
 17 23  2  0  0  0  0
 17 24  1  0  0  0  0
 18 16  2  0  0  0  0
 19 21  1  0  0  0  0
 20 26  2  0  0  0  0
 22 19  2  0  0  0  0
 23 22  1  0  0  0  0
 24 25  2  0  0  0  0
 25 19  1  0  0  0  0
 26 18  1  0  0  0  0
 26 17  1  0  0  0  0
 27  1  1  0  0  0  0
 28 33  1  0  0  0  0
 29 27  1  6  0  0  0
 30 34  1  0  0  0  0
 30 35  1  1  0  0  0
 32 28  1  1  0  0  0
 32 34  1  0  0  0  0
 32 29  1  0  0  0  0
 33 30  1  0  0  0  0
 34 31  1  6  0  0  0
 34 29  1  0  0  0  0
 35 42  1  0  0  0  0
 36 39  1  0  0  0  0
 36 42  2  0  0  0  0
 37 40  1  0  0  0  0
 39 37  1  0  0  0  0
 40 38  1  0  0  0  0
 40 41  1  1  0  0  0
 42 38  1  0  0  0  0
M  END
>  <MODEL>
4

>  <REMARK>
 VINA RESULT:      -8.6      3.920      8.405
  Name = 
  8 active torsions:
  status: ('A' for Active; 'I' for Inactive)
    1  A    between atoms: C_10  and  C_29
    2  A    between atoms: N_13  and  C_14
    3  A    between atoms: N_13  and  C_38
    4  A    between atoms: N_18  and  O_30
    5  A    between atoms: C_23  and  O_30
    6  A    between atoms: C_23  and  N_35
    7  A    between atoms: C_27  and  N_35
    8  A    between atoms: C_29  and  N_35
                            x       y       z     vdW  Elec       q    Type
                         _______ _______ _______ _____ _____    ______ ____

>  <TORSDO>
F 8

$$$$
=
 OpenBabel10232410573D

 42 48  0  0  1  0  0  0  0  0999 V2000
  189.2600  177.8640  141.1480 N   0  0  0  0  0  0  0  0  0  0  0  0
  190.7400  177.1430  145.0840 C   0  0  0  0  0  0  0  0  0  0  0  0
  191.6050  177.1280  143.9870 C   0  0  0  0  0  3  0  0  0  0  0  0
  188.8960  177.6750  143.5860 C   0  0  0  0  0  3  0  0  0  0  0  0
  190.5190  176.4220  147.4710 C   0  0  0  0  0  2  0  0  0  0  0  0
  189.3490  178.7880  148.1490 O   0  0  0  0  0  0  0  0  0  0  0  0
  191.1220  177.3710  142.7000 C   0  0  0  0  0  3  0  0  0  0  0  0
  187.8730  176.6540  148.5960 O   0  0  0  0  0  1  0  0  0  0  0  0
  191.2810  176.8820  146.3560 O   0  0  0  0  0  0  0  0  0  0  0  0
  189.7620  177.6360  142.4820 C   0  0  0  0  0  0  0  0  0  0  0  0
  189.3670  177.4390  144.8810 C   0  0  0  0  0  0  0  0  0  0  0  0
  189.0180  177.4130  147.6130 P   0  0  2  0  0  0  0  0  0  0  0  0
  188.4430  177.5350  145.9700 N   0  0  0  0  0  2  0  0  0  0  0  0
  188.3170  178.9410  140.8710 C   0  0  0  0  0  2  0  0  0  0  0  0
  187.0100  178.4140  140.7100 O   0  0  0  0  0  0  0  0  0  0  0  0
  182.8820  178.6610  140.2970 N   0  0  0  0  0  0  0  0  0  0  0  0
  183.7580  178.6890  142.4440 C   0  0  0  0  0  0  0  0  0  0  0  0
  184.1760  178.5910  140.1600 C   0  0  0  0  0  3  0  0  0  0  0  0
  181.3060  178.8250  143.7110 C   0  0  0  0  0  0  0  0  0  0  0  0
  186.0880  178.5110  141.7300 N   0  0  0  0  0  0  0  0  0  0  0  0
  180.0780  178.8860  144.3550 O   0  0  0  0  0  1  0  0  0  0  0  0
  182.4960  178.7890  144.4720 C   0  0  0  0  0  3  0  0  0  0  0  0
  183.7480  178.7190  143.8370 C   0  0  0  0  0  3  0  0  0  0  0  0
  182.6080  178.7190  141.6970 C   0  0  0  0  0  0  0  0  0  0  0  0
  181.3560  178.7900  142.3040 C   0  0  0  0  0  3  0  0  0  0  0  0
  184.8240  178.6010  141.4790 C   0  0  0  0  0  0  0  0  0  0  0  0
  189.6630  177.0310  140.0210 C   0  0  0  0  0  2  0  0  0  0  0  0
  188.9590  178.6460  136.6440 C   0  0  0  0  0  2  0  0  0  0  0  0
  188.8240  177.3620  138.7940 C   0  0  1  0  0  3  0  0  0  0  0  0
  188.0980  176.3670  136.4930 C   0  0  1  0  0  3  0  0  0  0  0  0
  190.1540  175.3220  137.7210 C   0  0  0  0  0  1  0  0  0  0  0  0
  189.7310  177.8010  137.6480 C   0  0  1  0  0  3  0  0  0  0  0  0
  187.8510  177.7960  136.0440 C   0  0  0  0  0  2  0  0  0  0  0  0
  189.1100  176.4260  137.6200 C   0  0  2  0  0  0  0  0  0  0  0  0
  186.8570  175.7650  136.9730 N   0  0  0  0  0  2  0  0  0  0  0  0
  186.9710  173.8340  135.5450 C   0  0  0  0  0  3  0  0  0  0  0  0
  185.8060  171.8020  135.9850 O   0  0  0  0  0  0  0  0  0  0  0  0
  184.8490  173.8780  137.3190 S   0  0  0  0  0  0  0  0  0  0  0  0
  186.4300  172.5540  134.9840 C   0  0  0  0  0  2  0  0  0  0  0  0
  184.5870  172.4500  136.2120 C   0  0  2  0  0  3  0  0  0  0  0  0
  183.4470  171.3150  136.9710 Cl  0  0  0  0  0  0  0  0  0  0  0  0
  186.3320  174.5190  136.5020 C   0  0  0  0  0  0  0  0  0  0  0  0
  1 10  1  0  0  0  0
  2  9  1  0  0  0  0
  3  2  2  0  0  0  0
  4 11  2  0  0  0  0
  5 12  1  0  0  0  0
  7  3  1  0  0  0  0
  9  5  1  0  0  0  0
 10  7  2  0  0  0  0
 10  4  1  0  0  0  0
 11  2  1  0  0  0  0
 11 13  1  0  0  0  0
 12  6  2  1  0  0  0
 12  8  1  0  0  0  0
 13 12  1  0  0  0  0
 14  1  1  0  0  0  0
 15 14  1  0  0  0  0
 15 20  1  0  0  0  0
 16 24  1  0  0  0  0
 17 23  1  0  0  0  0
 18 16  2  0  0  0  0
 18 26  1  0  0  0  0
 19 21  1  0  0  0  0
 19 22  1  0  0  0  0
 23 22  2  0  0  0  0
 24 25  1  0  0  0  0
 24 17  2  0  0  0  0
 25 19  2  0  0  0  0
 26 20  2  0  0  0  0
 26 17  1  0  0  0  0
 27  1  1  0  0  0  0
 29 27  1  1  0  0  0
 30 35  1  1  0  0  0
 30 34  1  0  0  0  0
 32 28  1  6  0  0  0
 32 29  1  0  0  0  0
 33 30  1  0  0  0  0
 33 28  1  0  0  0  0
 34 32  1  0  0  0  0
 34 31  1  1  0  0  0
 34 29  1  0  0  0  0
 36 42  2  0  0  0  0
 37 40  1  0  0  0  0
 39 36  1  0  0  0  0
 39 37  1  0  0  0  0
 40 41  1  1  0  0  0
 40 38  1  0  0  0  0
 42 35  1  0  0  0  0
 42 38  1  0  0  0  0
M  END
>  <MODEL>
5

>  <REMARK>
 VINA RESULT:      -8.5      4.808      7.696
  Name = 
  8 active torsions:
  status: ('A' for Active; 'I' for Inactive)
    1  A    between atoms: C_10  and  C_29
    2  A    between atoms: N_13  and  C_14
    3  A    between atoms: N_13  and  C_38
    4  A    between atoms: N_18  and  O_30
    5  A    between atoms: C_23  and  O_30
    6  A    between atoms: C_23  and  N_35
    7  A    between atoms: C_27  and  N_35
    8  A    between atoms: C_29  and  N_35
                            x       y       z     vdW  Elec       q    Type
                         _______ _______ _______ _____ _____    ______ ____

>  <TORSDO>
F 8

$$$$
=
 OpenBabel10232410573D

 42 48  0  0  1  0  0  0  0  0999 V2000
  187.5670  178.1650  138.9850 N   0  0  0  0  0  0  0  0  0  0  0  0
  183.5030  178.8630  140.0840 C   0  0  0  0  0  0  0  0  0  0  0  0
  184.5280  179.0100  141.0220 C   0  0  0  0  0  3  0  0  0  0  0  0
  185.1680  178.2900  138.4010 C   0  0  0  0  0  3  0  0  0  0  0  0
  181.0300  178.5650  139.8490 C   0  0  0  0  0  2  0  0  0  0  0  0
  180.9500  180.3050  137.7520 O   0  0  0  0  0  1  0  0  0  0  0  0
  185.8580  178.7890  140.6610 C   0  0  0  0  0  3  0  0  0  0  0  0
  180.1100  177.8700  137.2050 O   0  0  0  0  0  0  0  0  0  0  0  0
  182.1810  179.0890  140.5070 O   0  0  0  0  0  0  0  0  0  0  0  0
  186.1930  178.4160  139.3510 C   0  0  0  0  0  0  0  0  0  0  0  0
  183.8320  178.5140  138.7480 C   0  0  0  0  0  0  0  0  0  0  0  0
  181.1820  178.8450  138.0730 P   0  0  2  0  0  0  0  0  0  0  0  0
  182.8370  178.4120  137.7240 N   0  0  0  0  0  2  0  0  0  0  0  0
  188.6550  178.4110  139.9240 C   0  0  0  0  0  2  0  0  0  0  0  0
  188.7640  177.3300  140.8360 O   0  0  0  0  0  0  0  0  0  0  0  0
  190.7900  177.1180  144.4580 N   0  0  0  0  0  0  0  0  0  0  0  0
  188.4910  177.4120  144.5210 C   0  0  0  0  0  0  0  0  0  0  0  0
  190.3950  177.1350  143.2170 C   0  0  0  0  0  3  0  0  0  0  0  0
  188.3310  177.5370  147.2760 C   0  0  0  0  0  0  0  0  0  0  0  0
  188.2070  177.4190  142.0930 N   0  0  0  0  0  0  0  0  0  0  0  0
  188.2440  177.6090  148.6590 O   0  0  0  0  0  1  0  0  0  0  0  0
  187.1630  177.6650  146.4920 C   0  0  0  0  0  3  0  0  0  0  0  0
  187.2330  177.6040  145.0890 C   0  0  0  0  0  3  0  0  0  0  0  0
  189.6310  177.2910  145.2730 C   0  0  0  0  0  0  0  0  0  0  0  0
  189.5850  177.3470  146.6650 C   0  0  0  0  0  3  0  0  0  0  0  0
  188.9380  177.3190  143.1540 C   0  0  0  0  0  0  0  0  0  0  0  0
  187.9320  177.6610  137.6660 C   0  0  0  0  0  2  0  0  0  0  0  0
  186.9420  174.1120  136.6990 C   0  0  0  0  0  2  0  0  0  0  0  0
  188.0310  176.1410  137.6920 C   0  0  1  0  0  3  0  0  0  0  0  0
  189.3820  174.1690  136.6440 C   0  0  1  0  0  3  0  0  0  0  0  0
  189.4740  176.5100  135.4870 C   0  0  0  0  0  1  0  0  0  0  0  0
  187.3570  175.5560  136.4540 C   0  0  1  0  0  3  0  0  0  0  0  0
  188.1890  173.2870  136.9680 C   0  0  0  0  0  2  0  0  0  0  0  0
  188.8640  175.5900  136.5350 C   0  0  2  0  0  0  0  0  0  0  0  0
  190.3780  174.0860  137.7070 N   0  0  0  0  0  2  0  0  0  0  0  0
  191.8290  175.8460  138.4690 C   0  0  0  0  0  3  0  0  0  0  0  0
  194.2020  175.7770  138.2600 O   0  0  0  0  0  0  0  0  0  0  0  0
  192.9520  174.0760  136.6630 S   0  0  0  0  0  0  0  0  0  0  0  0
  193.1070  176.6280  138.4430 C   0  0  0  0  0  2  0  0  0  0  0  0
  194.1590  175.4250  136.9080 C   0  0  2  0  0  3  0  0  0  0  0  0
  195.7700  174.8780  136.3870 Cl  0  0  0  0  0  0  0  0  0  0  0  0
  191.6340  174.7740  137.6900 C   0  0  0  0  0  0  0  0  0  0  0  0
  1 10  1  0  0  0  0
  1 14  1  0  0  0  0
  2  9  1  0  0  0  0
  2  3  1  0  0  0  0
  4 11  1  0  0  0  0
  4 10  2  0  0  0  0
  5  9  1  0  0  0  0
  6 12  1  0  0  0  0
  7  3  2  0  0  0  0
 10  7  1  0  0  0  0
 11  2  2  0  0  0  0
 12  8  2  6  0  0  0
 12  5  1  0  0  0  0
 13 12  1  0  0  0  0
 13 11  1  0  0  0  0
 14 15  1  0  0  0  0
 15 20  1  0  0  0  0
 16 24  1  0  0  0  0
 17 23  2  0  0  0  0
 17 24  1  0  0  0  0
 18 16  2  0  0  0  0
 19 21  1  0  0  0  0
 20 26  2  0  0  0  0
 22 19  2  0  0  0  0
 23 22  1  0  0  0  0
 24 25  2  0  0  0  0
 25 19  1  0  0  0  0
 26 18  1  0  0  0  0
 26 17  1  0  0  0  0
 27  1  1  0  0  0  0
 28 33  1  0  0  0  0
 29 27  1  6  0  0  0
 30 33  1  0  0  0  0
 30 35  1  1  0  0  0
 32 34  1  0  0  0  0
 32 28  1  1  0  0  0
 32 29  1  0  0  0  0
 34 31  1  6  0  0  0
 34 30  1  0  0  0  0
 34 29  1  0  0  0  0
 37 39  1  0  0  0  0
 38 40  1  0  0  0  0
 38 42  1  0  0  0  0
 39 36  1  0  0  0  0
 40 41  1  1  0  0  0
 40 37  1  0  0  0  0
 42 35  1  0  0  0  0
 42 36  2  0  0  0  0
M  END
>  <MODEL>
6

>  <REMARK>
 VINA RESULT:      -8.4      4.131      8.638
  Name = 
  8 active torsions:
  status: ('A' for Active; 'I' for Inactive)
    1  A    between atoms: C_10  and  C_29
    2  A    between atoms: N_13  and  C_14
    3  A    between atoms: N_13  and  C_38
    4  A    between atoms: N_18  and  O_30
    5  A    between atoms: C_23  and  O_30
    6  A    between atoms: C_23  and  N_35
    7  A    between atoms: C_27  and  N_35
    8  A    between atoms: C_29  and  N_35
                            x       y       z     vdW  Elec       q    Type
                         _______ _______ _______ _____ _____    ______ ____

>  <TORSDO>
F 8

$$$$
=
 OpenBabel10232410573D

 42 48  0  0  1  0  0  0  0  0999 V2000
  188.0420  177.2750  138.0670 N   0  0  0  0  0  0  0  0  0  0  0  0
  190.9250  177.2890  141.2130 C   0  0  0  0  0  0  0  0  0  0  0  0
  191.3320  177.2370  139.8770 C   0  0  0  0  0  3  0  0  0  0  0  0
  188.6070  177.3710  140.4720 C   0  0  0  0  0  3  0  0  0  0  0  0
  191.6920  176.8740  143.5580 C   0  0  0  0  0  2  0  0  0  0  0  0
  190.4570  179.1390  144.4360 O   0  0  0  0  0  0  0  0  0  0  0  0
  190.3900  177.2400  138.8480 C   0  0  0  0  0  3  0  0  0  0  0  0
  189.6220  176.9120  145.5660 O   0  0  0  0  0  1  0  0  0  0  0  0
  191.9180  177.2730  142.2080 O   0  0  0  0  0  0  0  0  0  0  0  0
  189.0170  177.2950  139.1320 C   0  0  0  0  0  0  0  0  0  0  0  0
  189.5400  177.3750  141.5130 C   0  0  0  0  0  0  0  0  0  0  0  0
  190.1950  177.6740  144.1710 P   0  0  2  0  0  0  0  0  0  0  0  0
  189.0620  177.4970  142.8560 N   0  0  0  0  0  2  0  0  0  0  0  0
  187.4120  178.5030  137.5970 C   0  0  0  0  0  2  0  0  0  0  0  0
  186.1870  178.7130  138.2810 O   0  0  0  0  0  0  0  0  0  0  0  0
  182.8030  178.6830  140.6940 N   0  0  0  0  0  0  0  0  0  0  0  0
  184.8710  178.8450  141.7320 C   0  0  0  0  0  0  0  0  0  0  0  0
  183.6880  178.6900  139.7370 C   0  0  0  0  0  3  0  0  0  0  0  0
  183.8570  178.8720  144.3020 C   0  0  0  0  0  0  0  0  0  0  0  0
  186.1610  178.7890  139.6570 N   0  0  0  0  0  0  0  0  0  0  0  0
  183.3560  178.8790  145.5960 O   0  0  0  0  0  1  0  0  0  0  0  0
  185.2510  178.9400  144.0900 C   0  0  0  0  0  3  0  0  0  0  0  0
  185.7780  178.9260  142.7860 C   0  0  0  0  0  3  0  0  0  0  0  0
  183.5150  178.7750  141.9280 C   0  0  0  0  0  0  0  0  0  0  0  0
  182.9710  178.7880  143.2100 C   0  0  0  0  0  3  0  0  0  0  0  0
  185.0410  178.7900  140.3020 C   0  0  0  0  0  0  0  0  0  0  0  0
  187.6400  176.0330  137.4160 C   0  0  0  0  0  2  0  0  0  0  0  0
  189.4880  173.0800  135.8760 C   0  0  0  0  0  2  0  0  0  0  0  0
  188.8680  175.2340  137.0010 C   0  0  1  0  0  3  0  0  0  0  0  0
  190.6530  175.0810  135.1030 C   0  0  1  0  0  3  0  0  0  0  0  0
  188.4460  176.4030  134.6480 C   0  0  0  0  0  1  0  0  0  0  0  0
  188.4920  174.2300  135.9150 C   0  0  1  0  0  3  0  0  0  0  0  0
  190.8570  173.6360  135.5220 C   0  0  0  0  0  2  0  0  0  0  0  0
  189.2580  175.4760  135.5430 C   0  0  2  0  0  0  0  0  0  0  0  0
  191.6380  175.9410  135.7520 N   0  0  0  0  0  2  0  0  0  0  0  0
  193.9780  175.7560  135.2290 C   0  0  0  0  0  3  0  0  0  0  0  0
  195.6700  175.4170  136.8710 O   0  0  0  0  0  0  0  0  0  0  0  0
  193.2380  174.8100  137.7210 S   0  0  0  0  0  0  0  0  0  0  0  0
  195.3770  175.2990  135.5090 C   0  0  0  0  0  2  0  0  0  0  0  0
  194.9900  174.3560  137.4780 C   0  0  2  0  0  3  0  0  0  0  0  0
  195.7340  174.0010  139.0540 Cl  0  0  0  0  0  0  0  0  0  0  0  0
  192.9700  175.5330  136.0830 C   0  0  0  0  0  0  0  0  0  0  0  0
  1 10  1  0  0  0  0
  2 11  1  0  0  0  0
  2  9  1  0  0  0  0
  3  2  2  0  0  0  0
  4 11  2  0  0  0  0
  5 12  1  0  0  0  0
  7 10  2  0  0  0  0
  7  3  1  0  0  0  0
  9  5  1  0  0  0  0
 10  4  1  0  0  0  0
 11 13  1  0  0  0  0
 12  6  2  1  0  0  0
 12  8  1  0  0  0  0
 13 12  1  0  0  0  0
 14  1  1  0  0  0  0
 14 15  1  0  0  0  0
 15 20  1  0  0  0  0
 16 24  1  0  0  0  0
 17 24  2  0  0  0  0
 17 23  1  0  0  0  0
 18 26  1  0  0  0  0
 18 16  2  0  0  0  0
 19 21  1  0  0  0  0
 20 26  2  0  0  0  0
 22 19  1  0  0  0  0
 23 22  2  0  0  0  0
 24 25  1  0  0  0  0
 25 19  2  0  0  0  0
 26 17  1  0  0  0  0
 27  1  1  0  0  0  0
 29 27  1  6  0  0  0
 30 33  1  0  0  0  0
 30 34  1  0  0  0  0
 30 35  1  1  0  0  0
 32 28  1  1  0  0  0
 32 29  1  0  0  0  0
 33 28  1  0  0  0  0
 34 31  1  6  0  0  0
 34 32  1  0  0  0  0
 34 29  1  0  0  0  0
 35 42  1  0  0  0  0
 36 39  1  0  0  0  0
 36 42  2  0  0  0  0
 37 40  1  0  0  0  0
 39 37  1  0  0  0  0
 40 38  1  0  0  0  0
 40 41  1  1  0  0  0
 42 38  1  0  0  0  0
M  END
>  <MODEL>
7

>  <REMARK>
 VINA RESULT:      -8.3      3.671      7.510
  Name = 
  8 active torsions:
  status: ('A' for Active; 'I' for Inactive)
    1  A    between atoms: C_10  and  C_29
    2  A    between atoms: N_13  and  C_14
    3  A    between atoms: N_13  and  C_38
    4  A    between atoms: N_18  and  O_30
    5  A    between atoms: C_23  and  O_30
    6  A    between atoms: C_23  and  N_35
    7  A    between atoms: C_27  and  N_35
    8  A    between atoms: C_29  and  N_35
                            x       y       z     vdW  Elec       q    Type
                         _______ _______ _______ _____ _____    ______ ____

>  <TORSDO>
F 8

$$$$
=
 OpenBabel10232410573D

 42 48  0  0  1  0  0  0  0  0999 V2000
  188.4110  177.8890  137.8970 N   0  0  0  0  0  0  0  0  0  0  0  0
  184.2010  177.2730  137.5730 C   0  0  0  0  0  0  0  0  0  0  0  0
  185.0920  176.5020  136.8220 C   0  0  0  0  0  3  0  0  0  0  0  0
  186.0960  178.4310  138.5740 C   0  0  0  0  0  3  0  0  0  0  0  0
  181.8080  177.9870  137.7290 C   0  0  0  0  0  2  0  0  0  0  0  0
  181.8250  177.6910  140.4390 O   0  0  0  0  0  1  0  0  0  0  0  0
  186.4690  176.6980  136.9330 C   0  0  0  0  0  3  0  0  0  0  0  0
  181.2690  180.1220  139.5930 O   0  0  0  0  0  0  0  0  0  0  0  0
  182.8240  177.0380  137.4120 O   0  0  0  0  0  0  0  0  0  0  0  0
  186.9870  177.6710  137.8010 C   0  0  0  0  0  0  0  0  0  0  0  0
  184.7140  178.2410  138.4760 C   0  0  0  0  0  0  0  0  0  0  0  0
  182.1440  178.6960  139.3540 P   0  0  2  0  0  0  0  0  0  0  0  0
  183.8590  179.0160  139.3220 N   0  0  0  0  0  2  0  0  0  0  0  0
  189.0140  178.4010  139.1230 C   0  0  0  0  0  2  0  0  0  0  0  0
  189.1130  177.3640  140.0860 O   0  0  0  0  0  0  0  0  0  0  0  0
  190.6470  177.3020  143.9470 N   0  0  0  0  0  0  0  0  0  0  0  0
  188.3470  177.4550  143.7000 C   0  0  0  0  0  0  0  0  0  0  0  0
  190.4210  177.2860  142.6640 C   0  0  0  0  0  3  0  0  0  0  0  0
  187.8140  177.5900  146.4070 C   0  0  0  0  0  0  0  0  0  0  0  0
  188.3890  177.4270  141.2560 N   0  0  0  0  0  0  0  0  0  0  0  0
  187.5380  177.6660  147.7650 O   0  0  0  0  0  1  0  0  0  0  0  0
  186.7550  177.6410  145.4740 C   0  0  0  0  0  3  0  0  0  0  0  0
  187.0150  177.5740  144.0940 C   0  0  0  0  0  3  0  0  0  0  0  0
  189.3820  177.4100  144.5990 C   0  0  0  0  0  0  0  0  0  0  0  0
  189.1470  177.4730  145.9710 C   0  0  0  0  0  3  0  0  0  0  0  0
  188.9770  177.3800  142.4060 C   0  0  0  0  0  0  0  0  0  0  0  0
  189.3090  177.6150  136.7820 C   0  0  0  0  0  2  0  0  0  0  0  0
  190.1060  173.8930  136.9370 C   0  0  0  0  0  2  0  0  0  0  0  0
  190.1710  176.3950  137.0870 C   0  0  1  0  0  3  0  0  0  0  0  0
  192.1210  174.9780  136.0880 C   0  0  1  0  0  3  0  0  0  0  0  0
  190.8000  176.5860  134.5080 C   0  0  0  0  0  1  0  0  0  0  0  0
  189.6770  175.1970  136.2800 C   0  0  1  0  0  3  0  0  0  0  0  0
  191.6240  173.8330  136.9530 C   0  0  0  0  0  2  0  0  0  0  0  0
  190.9430  175.9050  135.8620 C   0  0  2  0  0  0  0  0  0  0  0  0
  193.1940  175.6980  136.7660 N   0  0  0  0  0  2  0  0  0  0  0  0
  194.8820  176.7760  135.4350 C   0  0  0  0  0  3  0  0  0  0  0  0
  197.2200  176.4910  135.7930 O   0  0  0  0  0  0  0  0  0  0  0  0
  195.7430  174.6050  136.9170 S   0  0  0  0  0  0  0  0  0  0  0  0
  196.2590  176.8820  134.8540 C   0  0  0  0  0  2  0  0  0  0  0  0
  197.1310  175.0970  135.8380 C   0  0  2  0  0  3  0  0  0  0  0  0
  198.6480  174.4270  136.4830 Cl  0  0  0  0  0  0  0  0  0  0  0  0
  194.5360  175.7920  136.2760 C   0  0  0  0  0  0  0  0  0  0  0  0
  1 14  1  0  0  0  0
  2 11  1  0  0  0  0
  3  7  1  0  0  0  0
  3  2  2  0  0  0  0
  5 12  1  0  0  0  0
  7 10  2  0  0  0  0
  9  2  1  0  0  0  0
  9  5  1  0  0  0  0
 10  1  1  0  0  0  0
 10  4  1  0  0  0  0
 11  4  2  0  0  0  0
 11 13  1  0  0  0  0
 12  8  2  1  0  0  0
 12  6  1  0  0  0  0
 13 12  1  0  0  0  0
 14 15  1  0  0  0  0
 15 20  1  0  0  0  0
 16 24  1  0  0  0  0
 17 23  2  0  0  0  0
 17 24  1  0  0  0  0
 18 16  2  0  0  0  0
 19 21  1  0  0  0  0
 20 26  2  0  0  0  0
 22 19  2  0  0  0  0
 23 22  1  0  0  0  0
 24 25  2  0  0  0  0
 25 19  1  0  0  0  0
 26 18  1  0  0  0  0
 26 17  1  0  0  0  0
 27  1  1  0  0  0  0
 28 33  1  0  0  0  0
 29 27  1  6  0  0  0
 30 35  1  1  0  0  0
 30 33  1  0  0  0  0
 32 28  1  1  0  0  0
 32 29  1  0  0  0  0
 34 31  1  6  0  0  0
 34 30  1  0  0  0  0
 34 32  1  0  0  0  0
 34 29  1  0  0  0  0
 36 42  2  0  0  0  0
 37 40  1  0  0  0  0
 39 36  1  0  0  0  0
 39 37  1  0  0  0  0
 40 41  1  1  0  0  0
 40 38  1  0  0  0  0
 42 35  1  0  0  0  0
 42 38  1  0  0  0  0
M  END
>  <MODEL>
8

>  <REMARK>
 VINA RESULT:      -8.3      4.282      8.907
  Name = 
  8 active torsions:
  status: ('A' for Active; 'I' for Inactive)
    1  A    between atoms: C_10  and  C_29
    2  A    between atoms: N_13  and  C_14
    3  A    between atoms: N_13  and  C_38
    4  A    between atoms: N_18  and  O_30
    5  A    between atoms: C_23  and  O_30
    6  A    between atoms: C_23  and  N_35
    7  A    between atoms: C_27  and  N_35
    8  A    between atoms: C_29  and  N_35
                            x       y       z     vdW  Elec       q    Type
                         _______ _______ _______ _____ _____    ______ ____

>  <TORSDO>
F 8

$$$$
=
 OpenBabel10232410573D

 42 48  0  0  1  0  0  0  0  0999 V2000
  184.7420  178.5330  142.9200 N   0  0  0  0  0  0  0  0  0  0  0  0
  186.5350  178.3580  146.7890 C   0  0  0  0  0  0  0  0  0  0  0  0
  185.2090  178.7740  146.6390 C   0  0  0  0  0  3  0  0  0  0  0  0
  186.6690  178.0180  144.3810 C   0  0  0  0  0  3  0  0  0  0  0  0
  188.4750  178.3840  148.3690 C   0  0  0  0  0  2  0  0  0  0  0  0
  189.0840  175.7950  147.7720 O   0  0  0  0  0  1  0  0  0  0  0  0
  184.6200  178.8240  145.3740 C   0  0  0  0  0  3  0  0  0  0  0  0
  190.9940  177.5310  147.2530 O   0  0  0  0  0  0  0  0  0  0  0  0
  187.0780  178.3370  148.0860 O   0  0  0  0  0  0  0  0  0  0  0  0
  185.3450  178.4580  144.2300 C   0  0  0  0  0  0  0  0  0  0  0  0
  187.2700  177.9580  145.6430 C   0  0  0  0  0  0  0  0  0  0  0  0
  189.3360  177.2110  147.3030 P   0  0  2  0  0  0  0  0  0  0  0  0
  188.6080  177.4600  145.7360 N   0  0  0  0  0  2  0  0  0  0  0  0
  185.4160  177.9850  141.7490 C   0  0  0  0  0  2  0  0  0  0  0  0
  186.3410  178.9290  141.2340 O   0  0  0  0  0  0  0  0  0  0  0  0
  190.0410  177.0390  141.1820 N   0  0  0  0  0  0  0  0  0  0  0  0
  189.1220  177.6720  139.1500 C   0  0  0  0  0  0  0  0  0  0  0  0
  188.9080  177.6160  141.4630 C   0  0  0  0  0  3  0  0  0  0  0  0
  191.1860  176.6610  137.6170 C   0  0  0  0  0  0  0  0  0  0  0  0
  187.0930  178.6320  140.1190 N   0  0  0  0  0  0  0  0  0  0  0  0
  192.2150  176.1480  136.8400 O   0  0  0  0  0  1  0  0  0  0  0  0
  190.0830  177.2870  136.9950 C   0  0  0  0  0  3  0  0  0  0  0  0
  189.0270  177.8050  137.7660 C   0  0  0  0  0  3  0  0  0  0  0  0
  190.1860  177.0620  139.7620 C   0  0  0  0  0  0  0  0  0  0  0  0
  191.2450  176.5430  139.0190 C   0  0  0  0  0  3  0  0  0  0  0  0
  188.2450  178.0550  140.2270 C   0  0  0  0  0  0  0  0  0  0  0  0
  183.4430  179.1590  142.7060 C   0  0  0  0  0  2  0  0  0  0  0  0
  180.0600  177.9210  141.4690 C   0  0  0  0  0  2  0  0  0  0  0  0
  182.4880  178.1760  142.0410 C   0  0  1  0  0  3  0  0  0  0  0  0
  181.6520  177.4240  139.6860 C   0  0  1  0  0  3  0  0  0  0  0  0
  182.8830  179.7170  139.9080 C   0  0  0  0  0  1  0  0  0  0  0  0
  181.2170  178.9000  141.6060 C   0  0  1  0  0  3  0  0  0  0  0  0
  180.4010  176.9150  140.3820 C   0  0  0  0  0  2  0  0  0  0  0  0
  182.2400  178.5060  140.5700 C   0  0  2  0  0  0  0  0  0  0  0  0
  182.6160  176.3410  139.5220 N   0  0  0  0  0  2  0  0  0  0  0  0
  182.9120  174.9760  137.5640 C   0  0  0  0  0  3  0  0  0  0  0  0
  184.0190  175.7270  135.5920 O   0  0  0  0  0  0  0  0  0  0  0  0
  184.5590  177.1930  137.7290 S   0  0  0  0  0  0  0  0  0  0  0  0
  183.6180  174.5890  136.3000 C   0  0  0  0  0  2  0  0  0  0  0  0
  185.1260  176.2150  136.2950 C   0  0  2  0  0  3  0  0  0  0  0  0
  186.1000  177.2470  135.2230 Cl  0  0  0  0  0  0  0  0  0  0  0  0
  183.2840  176.0370  138.2920 C   0  0  0  0  0  0  0  0  0  0  0  0
  1 10  1  0  0  0  0
  2  9  1  0  0  0  0
  3  2  1  0  0  0  0
  4 11  1  0  0  0  0
  7  3  2  0  0  0  0
  9  5  1  0  0  0  0
 10  4  2  0  0  0  0
 10  7  1  0  0  0  0
 11 13  1  0  0  0  0
 11  2  2  0  0  0  0
 12  8  2  6  0  0  0
 12  6  1  0  0  0  0
 12  5  1  0  0  0  0
 13 12  1  0  0  0  0
 14  1  1  0  0  0  0
 15 14  1  0  0  0  0
 16 18  2  0  0  0  0
 17 24  1  0  0  0  0
 17 26  1  0  0  0  0
 19 25  1  0  0  0  0
 20 26  2  0  0  0  0
 20 15  1  0  0  0  0
 21 19  1  0  0  0  0
 22 19  2  0  0  0  0
 22 23  1  0  0  0  0
 23 17  2  0  0  0  0
 24 16  1  0  0  0  0
 25 24  2  0  0  0  0
 26 18  1  0  0  0  0
 27  1  1  0  0  0  0
 29 27  1  1  0  0  0
 30 35  1  1  0  0  0
 30 33  1  0  0  0  0
 30 34  1  0  0  0  0
 32 28  1  6  0  0  0
 32 29  1  0  0  0  0
 33 28  1  0  0  0  0
 34 31  1  6  0  0  0
 34 32  1  0  0  0  0
 34 29  1  0  0  0  0
 36 42  2  0  0  0  0
 37 40  1  0  0  0  0
 37 39  1  0  0  0  0
 38 42  1  0  0  0  0
 39 36  1  0  0  0  0
 40 41  1  6  0  0  0
 40 38  1  0  0  0  0
 42 35  1  0  0  0  0
M  END
>  <MODEL>
9

>  <REMARK>
 VINA RESULT:      -8.2      3.854      8.938
  Name = 
  8 active torsions:
  status: ('A' for Active; 'I' for Inactive)
    1  A    between atoms: C_10  and  C_29
    2  A    between atoms: N_13  and  C_14
    3  A    between atoms: N_13  and  C_38
    4  A    between atoms: N_18  and  O_30
    5  A    between atoms: C_23  and  O_30
    6  A    between atoms: C_23  and  N_35
    7  A    between atoms: C_27  and  N_35
    8  A    between atoms: C_29  and  N_35
                            x       y       z     vdW  Elec       q    Type
                         _______ _______ _______ _____ _____    ______ ____

>  <TORSDO>
F 8

$$$$
