=
 OpenBabel10232410123D

 66 72  0  0  1  0  0  0  0  0999 V2000
  187.9700  173.3280  136.4990 C   0  0  0  0  0  3  0  0  0  0  0  0
  183.5640  178.6950  141.4430 O   0  0  0  0  0  0  0  0  0  0  0  0
  188.8620  178.3200  136.4920 C   0  0  0  0  0  0  0  0  0  0  0  0
  182.2020  177.9060  137.0580 C   0  0  0  0  0  0  0  0  0  0  0  0
  188.5450  178.8090  135.3640 O   0  0  0  0  0  0  0  0  0  0  0  0
  189.6730  177.1630  136.5490 O   0  0  0  0  0  0  0  0  0  0  0  0
  185.4110  177.8870  140.3240 N   0  0  0  0  0  0  0  0  0  0  0  0
  185.7980  174.3940  137.2250 C   0  0  0  0  0  0  0  0  0  0  0  0
  188.7910  178.6720  138.9940 C   0  0  0  0  0  2  0  0  0  0  0  0
  187.6520  178.7840  140.0190 C   0  0  0  0  0  2  0  0  0  0  0  0
  188.2230  178.8340  137.6740 N   0  0  0  0  0  2  0  0  0  0  0  0
  184.9320  178.4260  141.4020 C   0  0  0  0  0  0  0  0  0  0  0  0
  186.7990  177.5270  140.0510 C   0  0  0  0  0  2  0  0  0  0  0  0
  185.3090  175.3330  138.1490 C   0  0  0  0  0  3  0  0  0  0  0  0
  181.1620  178.0210  138.1440 C   0  0  0  0  0  2  0  0  0  0  0  0
  183.3820  175.7400  136.7610 C   0  0  0  0  0  0  0  0  0  0  0  0
  181.3640  178.4700  140.6090 C   0  0  0  0  0  2  0  0  0  0  0  0
  189.1120  175.8760  136.4960 C   0  0  0  0  0  0  0  0  0  0  0  0
  184.1340  176.0290  137.9010 C   0  0  0  0  0  3  0  0  0  0  0  0
  181.5670  179.0630  139.2100 C   0  0  2  0  0  3  0  0  0  0  0  0
  180.8690  180.2680  139.0410 O   0  0  0  0  0  1  0  0  0  0  0  0
  182.9860  178.8870  136.8000 O   0  0  0  0  0  0  0  0  0  0  0  0
  189.3020  173.4990  136.0740 C   0  0  0  0  0  0  0  0  0  0  0  0
  187.8470  175.6720  136.9340 N   0  0  0  0  0  0  0  0  0  0  0  0
  183.7240  174.6280  135.9680 C   0  0  0  0  0  3  0  0  0  0  0  0
  184.9400  173.9600  136.1850 C   0  0  0  0  0  3  0  0  0  0  0  0
  189.8620  174.7900  136.0370 C   0  0  0  0  0  3  0  0  0  0  0  0
  182.3590  176.6630  136.3340 N   0  0  0  0  0  0  0  0  0  0  0  0
  187.2390  174.4400  136.9330 C   0  0  0  0  0  0  0  0  0  0  0  0
  182.6070  177.7440  141.0140 C   0  0  0  0  0  2  0  0  0  0  0  0
  185.7930  178.8470  142.5680 C   0  0  1  0  0  3  0  0  0  0  0  0
  185.1020  179.8450  143.2560 O   0  0  0  0  0  1  0  0  0  0  0  0
  185.9780  177.6340  143.4820 C   0  0  0  0  0  2  0  0  0  0  0  0
  185.4220  177.7440  144.9240 C   0  0  1  0  0  3  0  0  0  0  0  0
  186.2870  177.8570  146.2180 C   0  0  2  0  0  3  0  0  0  0  0  0
  186.0590  179.0720  145.3550 C   0  0  0  0  0  2  0  0  0  0  0  0
  188.4080  177.9640  144.9220 C   0  0  0  0  0  2  0  0  0  0  0  0
  189.4910  176.4540  147.0630 C   0  0  0  0  0  2  0  0  0  0  0  0
  188.3980  177.3010  147.2650 O   0  0  0  0  0  0  0  0  0  0  0  0
  190.5300  177.2460  146.3090 C   0  0  1  0  0  3  0  0  0  0  0  0
  187.6800  177.2360  146.0480 C   0  0  1  0  0  3  0  0  0  0  0  0
  191.8120  176.4190  146.0970 C   0  0  0  0  0  1  0  0  0  0  0  0
  189.9570  177.8910  145.0270 C   0  0  1  0  0  3  0  0  0  0  0  0
  191.5230  178.1300  143.1580 O   0  0  0  0  0  0  0  0  0  0  0  0
  190.5730  177.3940  143.7940 N   0  0  0  0  0  0  0  0  0  0  0  0
  191.4880  177.6190  141.8920 N   0  0  0  0  0  2  0  0  0  0  0  0
  189.9500  176.4400  142.9180 C   0  0  0  0  0  3  0  0  0  0  0  0
  190.5130  176.5790  141.7510 C   0  0  0  0  0  3  0  0  0  0  0  0
  181.9500  177.9460  134.3630 F   0  0  0  0  0  0  0  0  0  0  0  0
  181.9400  176.6850  134.9210 C   0  0  2  0  0  3  0  0  0  0  0  0
  180.5970  175.9370  134.6910 C   0  0  0  0  0  2  0  0  0  0  0  0
  180.3070  173.6560  135.3180 O   0  0  0  0  0  0  0  0  0  0  0  0
  180.0850  175.1890  137.0260 O   0  0  0  0  0  1  0  0  0  0  0  0
  180.3030  174.8660  135.6890 C   0  0  0  0  0  0  0  0  0  0  0  0
  190.0750  172.3800  135.7380 O   0  0  0  0  0  0  0  0  0  0  0  0
  191.3660  172.5640  135.1740 C   0  0  0  0  0  2  0  0  0  0  0  0
  192.3730  172.5080  136.2080 N   0  0  0  0  0  2  0  0  0  0  0  0
  193.6400  172.6540  135.4900 C   0  0  0  0  0  2  0  0  0  0  0  0
  196.0900  175.2050  134.7270 C   0  0  0  0  0  0  0  0  0  0  0  0
  198.1130  174.6930  135.9040 C   0  0  0  0  0  3  0  0  0  0  0  0
  197.3260  175.5440  134.9850 C   0  0  0  0  0  3  0  0  0  0  0  0
  194.8920  174.7270  134.6750 C   0  0  0  0  0  3  0  0  0  0  0  0
  194.3610  173.9520  135.8740 C   0  0  2  0  0  3  0  0  0  0  0  0
  197.7140  173.5490  136.5100 C   0  0  0  0  0  3  0  0  0  0  0  0
  196.3670  172.8900  136.3280 C   0  0  0  0  0  2  0  0  0  0  0  0
  195.3370  173.6980  136.8710 O   0  0  0  0  0  0  0  0  0  0  0  0
  1 29  2  0  0  0  0
  3  6  1  0  0  0  0
  3 11  1  0  0  0  0
  4 15  1  0  0  0  0
  5  3  2  0  0  0  0
  7 12  2  0  0  0  0
  8 14  1  0  0  0  0
  9 10  1  0  0  0  0
 10 13  1  0  0  0  0
 11  9  1  0  0  0  0
 12  2  1  0  0  0  0
 12 31  1  0  0  0  0
 13  7  1  0  0  0  0
 15 20  1  0  0  0  0
 16 19  1  0  0  0  0
 17 30  1  0  0  0  0
 18  6  1  0  0  0  0
 18 24  2  0  0  0  0
 19 14  2  0  0  0  0
 20 21  1  1  0  0  0
 20 17  1  0  0  0  0
 22  4  2  0  0  0  0
 23  1  1  0  0  0  0
 25 26  1  0  0  0  0
 25 16  2  0  0  0  0
 26  8  2  0  0  0  0
 27 23  2  0  0  0  0
 27 18  1  0  0  0  0
 28 16  1  0  0  0  0
 28  4  1  0  0  0  0
 29 24  1  0  0  0  0
 29  8  1  0  0  0  0
 30  2  1  0  0  0  0
 31 32  1  1  0  0  0
 31 33  1  0  0  0  0
 34 33  1  6  0  0  0
 34 36  1  0  0  0  0
 34 35  1  0  0  0  0
 35 36  1  6  0  0  0
 37 43  1  0  0  0  0
 38 39  1  0  0  0  0
 40 42  1  6  0  0  0
 40 38  1  0  0  0  0
 41 37  1  6  0  0  0
 41 35  1  0  0  0  0
 41 39  1  0  0  0  0
 43 45  1  6  0  0  0
 43 40  1  0  0  0  0
 44 45  1  0  0  0  0
 46 44  1  0  0  0  0
 47 45  1  0  0  0  0
 48 46  1  0  0  0  0
 48 47  2  0  0  0  0
 50 49  1  1  0  0  0
 50 28  1  0  0  0  0
 51 50  1  0  0  0  0
 51 54  1  0  0  0  0
 52 54  2  0  0  0  0
 54 53  1  0  0  0  0
 55 23  1  0  0  0  0
 56 55  1  0  0  0  0
 56 57  1  0  0  0  0
 58 57  1  0  0  0  0
 59 61  2  0  0  0  0
 60 64  2  0  0  0  0
 61 60  1  0  0  0  0
 62 59  2  0  0  0  0
 62 63  1  0  0  0  0
 63 58  1  6  0  0  0
 63 66  1  0  0  0  0
 65 64  1  0  0  0  0
 65 66  1  0  0  0  0
M  END
>  <MODEL>
1

>  <REMARK>
 VINA RESULT:      -5.1      0.000      0.000
  Name = 
  13 active torsions:
  status: ('A' for Active; 'I' for Inactive)
    1  A    between atoms: C_6  and  C_19
    2  A    between atoms: C_6  and  C_37
    3  A    between atoms: C_11  and  C_38
    4  A    between atoms: C_11  and  C_57
    5  A    between atoms: C_19  and  C_30
    6  A    between atoms: N_20  and  C_45
    7  A    between atoms: C_22  and  C_43
    8  A    between atoms: N_29  and  C_34
    9  A    between atoms: N_29  and  C_35
   10  A    between atoms: C_34  and  O_52
   11  A    between atoms: C_35  and  C_53
   12  A    between atoms: C_38  and  N_63
   13  A    between atoms: C_50  and  O_52
                            x       y       z     vdW  Elec       q    Type
                         _______ _______ _______ _____ _____    ______ ____

>  <TORSDO>
F 13

$$$$
=
 OpenBabel10232410123D

 66 72  0  0  1  0  0  0  0  0999 V2000
  192.2030  176.5500  136.3270 C   0  0  0  0  0  3  0  0  0  0  0  0
  185.1890  179.0030  140.5030 O   0  0  0  0  0  0  0  0  0  0  0  0
  188.2410  173.4490  136.9590 C   0  0  0  0  0  0  0  0  0  0  0  0
  188.5920  176.7670  142.7660 C   0  0  0  0  0  0  0  0  0  0  0  0
  188.5720  172.4810  137.7100 O   0  0  0  0  0  0  0  0  0  0  0  0
  189.0680  173.8000  135.8660 O   0  0  0  0  0  0  0  0  0  0  0  0
  186.4100  177.8830  138.8990 N   0  0  0  0  0  0  0  0  0  0  0  0
  191.0420  177.3710  138.4150 C   0  0  0  0  0  0  0  0  0  0  0  0
  186.4240  175.1200  136.4150 C   0  0  0  0  0  2  0  0  0  0  0  0
  185.7680  176.2670  137.1970 C   0  0  0  0  0  2  0  0  0  0  0  0
  187.1440  174.2910  137.3560 N   0  0  0  0  0  2  0  0  0  0  0  0
  185.3480  178.5710  139.1860 C   0  0  0  0  0  0  0  0  0  0  0  0
  186.7820  177.3230  137.6030 C   0  0  0  0  0  2  0  0  0  0  0  0
  189.7620  177.7300  138.8720 C   0  0  0  0  0  3  0  0  0  0  0  0
  187.8900  177.9180  143.4410 C   0  0  0  0  0  2  0  0  0  0  0  0
  190.4080  177.2620  141.1450 C   0  0  0  0  0  0  0  0  0  0  0  0
  186.0040  179.3990  142.6860 C   0  0  0  0  0  2  0  0  0  0  0  0
  190.1420  174.6920  136.0220 C   0  0  0  0  0  0  0  0  0  0  0  0
  189.4350  177.6380  140.2170 C   0  0  0  0  0  3  0  0  0  0  0  0
  186.3920  177.9660  143.0690 C   0  0  2  0  0  3  0  0  0  0  0  0
  185.5900  177.4610  144.1040 O   0  0  0  0  0  1  0  0  0  0  0  0
  187.9380  175.7240  142.4060 O   0  0  0  0  0  0  0  0  0  0  0  0
  192.2570  175.6100  135.2800 C   0  0  0  0  0  0  0  0  0  0  0  0
  190.1030  175.6340  136.9940 N   0  0  0  0  0  0  0  0  0  0  0  0
  191.7510  177.1540  140.7360 C   0  0  0  0  0  3  0  0  0  0  0  0
  192.0730  177.1910  139.3690 C   0  0  0  0  0  3  0  0  0  0  0  0
  191.2350  174.6500  135.1530 C   0  0  0  0  0  3  0  0  0  0  0  0
  190.0050  176.8540  142.4680 N   0  0  0  0  0  0  0  0  0  0  0  0
  191.1050  176.5530  137.1940 C   0  0  0  0  0  0  0  0  0  0  0  0
  186.2540  179.5940  141.2250 C   0  0  0  0  0  2  0  0  0  0  0  0
  184.2500  178.8500  138.1900 C   0  0  1  0  0  3  0  0  0  0  0  0
  183.9030  177.6320  137.6020 O   0  0  0  0  0  1  0  0  0  0  0  0
  183.0460  179.4060  138.9540 C   0  0  0  0  0  2  0  0  0  0  0  0
  181.9210  180.0640  138.1170 C   0  0  1  0  0  3  0  0  0  0  0  0
  180.4110  179.6750  138.1710 C   0  0  2  0  0  3  0  0  0  0  0  0
  181.0020  180.5540  139.2440 C   0  0  0  0  0  2  0  0  0  0  0  0
  181.0590  177.3100  137.7530 C   0  0  0  0  0  2  0  0  0  0  0  0
  179.9820  176.8270  140.3300 C   0  0  0  0  0  2  0  0  0  0  0  0
  180.4980  178.0820  139.9920 O   0  0  0  0  0  0  0  0  0  0  0  0
  181.0060  175.8020  139.9130 C   0  0  1  0  0  3  0  0  0  0  0  0
  180.1960  178.2220  138.6180 C   0  0  1  0  0  3  0  0  0  0  0  0
  180.5610  174.3810  140.3080 C   0  0  0  0  0  1  0  0  0  0  0  0
  181.4230  175.9600  138.4330 C   0  0  1  0  0  3  0  0  0  0  0  0
  182.0160  173.8720  137.2960 O   0  0  0  0  0  0  0  0  0  0  0  0
  181.0750  174.8070  137.5980 N   0  0  0  0  0  0  0  0  0  0  0  0
  181.4910  173.2810  136.1820 N   0  0  0  0  0  2  0  0  0  0  0  0
  179.9820  174.7970  136.6660 C   0  0  0  0  0  3  0  0  0  0  0  0
  180.2380  173.8590  135.7980 C   0  0  0  0  0  3  0  0  0  0  0  0
  190.4890  174.6530  143.2550 F   0  0  0  0  0  0  0  0  0  0  0  0
  190.8850  175.9740  143.2590 C   0  0  2  0  0  3  0  0  0  0  0  0
  191.1340  176.5210  144.6930 C   0  0  0  0  0  2  0  0  0  0  0  0
  190.1940  178.6050  145.3680 O   0  0  0  0  0  1  0  0  0  0  0  0
  192.2430  178.7360  144.3200 O   0  0  0  0  0  0  0  0  0  0  0  0
  191.1540  178.0110  144.7950 C   0  0  0  0  0  0  0  0  0  0  0  0
  193.2980  175.6670  134.3460 O   0  0  0  0  0  0  0  0  0  0  0  0
  194.4950  176.3590  134.6730 C   0  0  0  0  0  2  0  0  0  0  0  0
  195.6260  175.4630  134.5950 N   0  0  0  0  0  2  0  0  0  0  0  0
  196.6980  176.1690  135.2990 C   0  0  0  0  0  2  0  0  0  0  0  0
  197.8370  172.8260  136.0900 C   0  0  0  0  0  0  0  0  0  0  0  0
  196.4040  171.9140  137.7800 C   0  0  0  0  0  3  0  0  0  0  0  0
  197.5530  171.8040  136.8540 C   0  0  0  0  0  3  0  0  0  0  0  0
  197.9740  173.9630  135.4930 C   0  0  0  0  0  3  0  0  0  0  0  0
  197.4970  175.2230  136.2040 C   0  0  2  0  0  3  0  0  0  0  0  0
  195.5590  172.9640  137.9200 C   0  0  0  0  0  3  0  0  0  0  0  0
  195.6100  174.2380  137.1110 C   0  0  0  0  0  2  0  0  0  0  0  0
  196.7860  174.9710  137.4040 O   0  0  0  0  0  0  0  0  0  0  0  0
  1 29  2  0  0  0  0
  2 30  1  0  0  0  0
  3 11  1  0  0  0  0
  3  5  2  0  0  0  0
  4 15  1  0  0  0  0
  6 18  1  0  0  0  0
  6  3  1  0  0  0  0
  7 12  2  0  0  0  0
  8 14  2  0  0  0  0
  8 26  1  0  0  0  0
  9 10  1  0  0  0  0
  9 11  1  0  0  0  0
 10 13  1  0  0  0  0
 12  2  1  0  0  0  0
 13  7  1  0  0  0  0
 14 19  1  0  0  0  0
 16 28  1  0  0  0  0
 17 20  1  0  0  0  0
 18 24  2  0  0  0  0
 19 16  2  0  0  0  0
 20 15  1  0  0  0  0
 20 21  1  1  0  0  0
 22  4  2  0  0  0  0
 23  1  1  0  0  0  0
 24 29  1  0  0  0  0
 25 16  1  0  0  0  0
 26 25  2  0  0  0  0
 27 23  2  0  0  0  0
 27 18  1  0  0  0  0
 28  4  1  0  0  0  0
 28 50  1  0  0  0  0
 29  8  1  0  0  0  0
 30 17  1  0  0  0  0
 31 32  1  1  0  0  0
 31 33  1  0  0  0  0
 31 12  1  0  0  0  0
 34 35  1  0  0  0  0
 34 33  1  1  0  0  0
 34 36  1  0  0  0  0
 35 41  1  0  0  0  0
 35 36  1  1  0  0  0
 37 43  1  0  0  0  0
 39 38  1  0  0  0  0
 40 42  1  6  0  0  0
 40 38  1  0  0  0  0
 41 37  1  6  0  0  0
 41 39  1  0  0  0  0
 43 45  1  6  0  0  0
 43 40  1  0  0  0  0
 44 45  1  0  0  0  0
 46 44  1  0  0  0  0
 47 45  1  0  0  0  0
 48 46  1  0  0  0  0
 48 47  2  0  0  0  0
 50 49  1  1  0  0  0
 50 51  1  0  0  0  0
 51 54  1  0  0  0  0
 53 54  2  0  0  0  0
 54 52  1  0  0  0  0
 55 56  1  0  0  0  0
 55 23  1  0  0  0  0
 57 56  1  0  0  0  0
 57 58  1  0  0  0  0
 59 61  2  0  0  0  0
 60 64  2  0  0  0  0
 61 60  1  0  0  0  0
 62 59  2  0  0  0  0
 62 63  1  0  0  0  0
 63 58  1  6  0  0  0
 63 66  1  0  0  0  0
 65 66  1  0  0  0  0
 65 64  1  0  0  0  0
M  END
>  <MODEL>
2

>  <REMARK>
 VINA RESULT:      -5.0      2.601      8.065
  Name = 
  13 active torsions:
  status: ('A' for Active; 'I' for Inactive)
    1  A    between atoms: C_6  and  C_19
    2  A    between atoms: C_6  and  C_37
    3  A    between atoms: C_11  and  C_38
    4  A    between atoms: C_11  and  C_57
    5  A    between atoms: C_19  and  C_30
    6  A    between atoms: N_20  and  C_45
    7  A    between atoms: C_22  and  C_43
    8  A    between atoms: N_29  and  C_34
    9  A    between atoms: N_29  and  C_35
   10  A    between atoms: C_34  and  O_52
   11  A    between atoms: C_35  and  C_53
   12  A    between atoms: C_38  and  N_63
   13  A    between atoms: C_50  and  O_52
                            x       y       z     vdW  Elec       q    Type
                         _______ _______ _______ _____ _____    ______ ____

>  <TORSDO>
F 13

$$$$
=
 OpenBabel10232410123D

 66 72  0  0  1  0  0  0  0  0999 V2000
  185.6960  179.1640  140.8680 C   0  0  0  0  0  3  0  0  0  0  0  0
  191.8390  175.7590  136.0390 O   0  0  0  0  0  0  0  0  0  0  0  0
  189.0460  175.8500  142.7410 C   0  0  0  0  0  0  0  0  0  0  0  0
  187.7890  173.5210  136.5890 C   0  0  0  0  0  0  0  0  0  0  0  0
  188.4500  174.7760  143.0630 O   0  0  0  0  0  0  0  0  0  0  0  0
  188.5270  177.0940  143.1710 O   0  0  0  0  0  0  0  0  0  0  0  0
  190.8870  176.6000  137.9630 N   0  0  0  0  0  0  0  0  0  0  0  0
  186.4500  177.7890  138.8880 C   0  0  0  0  0  0  0  0  0  0  0  0
  191.1140  176.8270  141.6650 C   0  0  0  0  0  2  0  0  0  0  0  0
  191.7050  176.7640  140.2490 C   0  0  0  0  0  2  0  0  0  0  0  0
  190.1150  175.7880  141.7800 N   0  0  0  0  0  2  0  0  0  0  0  0
  191.9280  176.5370  137.1930 C   0  0  0  0  0  0  0  0  0  0  0  0
  190.7500  177.3390  139.2150 C   0  0  0  0  0  2  0  0  0  0  0  0
  187.6280  177.3460  138.2640 C   0  0  0  0  0  3  0  0  0  0  0  0
  188.4480  173.5300  135.2330 C   0  0  0  0  0  2  0  0  0  0  0  0
  186.4450  175.4940  137.2760 C   0  0  0  0  0  0  0  0  0  0  0  0
  190.6090  174.5360  134.4330 C   0  0  0  0  0  2  0  0  0  0  0  0
  187.5520  177.7750  142.4240 C   0  0  0  0  0  0  0  0  0  0  0  0
  187.6360  176.1890  137.4980 C   0  0  0  0  0  3  0  0  0  0  0  0
  189.9870  173.4760  135.3500 C   0  0  2  0  0  3  0  0  0  0  0  0
  190.4780  172.1910  135.0770 O   0  0  0  0  0  1  0  0  0  0  0  0
  188.3860  173.0070  137.6010 O   0  0  0  0  0  0  0  0  0  0  0  0
  185.7710  179.4070  142.2540 C   0  0  0  0  0  0  0  0  0  0  0  0
  187.4800  177.5930  141.0840 N   0  0  0  0  0  0  0  0  0  0  0  0
  185.2230  176.0670  137.6770 C   0  0  0  0  0  3  0  0  0  0  0  0
  185.2190  177.2060  138.4980 C   0  0  0  0  0  3  0  0  0  0  0  0
  186.6810  178.6760  143.0400 C   0  0  0  0  0  3  0  0  0  0  0  0
  186.4960  174.1450  136.7710 N   0  0  0  0  0  0  0  0  0  0  0  0
  186.5680  178.2400  140.2840 C   0  0  0  0  0  0  0  0  0  0  0  0
  190.7130  175.8250  135.1830 C   0  0  0  0  0  2  0  0  0  0  0  0
  193.2440  177.1950  137.5280 C   0  0  1  0  0  3  0  0  0  0  0  0
  193.4040  177.1220  138.9120 O   0  0  0  0  0  1  0  0  0  0  0  0
  194.3590  176.4000  136.8450 C   0  0  0  0  0  2  0  0  0  0  0  0
  195.1240  177.0990  135.6940 C   0  0  1  0  0  3  0  0  0  0  0  0
  196.2780  176.4620  134.8590 C   0  0  2  0  0  3  0  0  0  0  0  0
  194.8430  176.1170  134.5500 C   0  0  0  0  0  2  0  0  0  0  0  0
  196.4610  174.0060  135.2150 C   0  0  0  0  0  2  0  0  0  0  0  0
  198.9800  174.6190  136.3610 C   0  0  0  0  0  2  0  0  0  0  0  0
  198.4130  175.4510  135.3910 O   0  0  0  0  0  0  0  0  0  0  0  0
  198.8930  173.2070  135.8370 C   0  0  1  0  0  3  0  0  0  0  0  0
  197.0210  175.3620  135.6300 C   0  0  1  0  0  3  0  0  0  0  0  0
  199.5600  172.2140  136.8080 C   0  0  0  0  0  1  0  0  0  0  0  0
  197.4560  172.8290  135.4110 C   0  0  1  0  0  3  0  0  0  0  0  0
  196.4120  170.6190  135.5850 O   0  0  0  0  0  0  0  0  0  0  0  0
  196.8770  171.7390  136.2010 N   0  0  0  0  0  0  0  0  0  0  0  0
  195.5620  170.1050  136.5230 N   0  0  0  0  0  2  0  0  0  0  0  0
  196.3070  171.9160  137.5080 C   0  0  0  0  0  3  0  0  0  0  0  0
  195.5000  170.9110  137.7040 C   0  0  0  0  0  3  0  0  0  0  0  0
  185.3280  172.7550  138.3200 F   0  0  0  0  0  0  0  0  0  0  0  0
  185.3700  173.2270  137.0260 C   0  0  2  0  0  3  0  0  0  0  0  0
  185.2820  172.0910  135.9680 C   0  0  0  0  0  2  0  0  0  0  0  0
  182.9080  171.9540  136.1260 O   0  0  0  0  0  1  0  0  0  0  0  0
  183.9940  169.9500  135.7800 O   0  0  0  0  0  0  0  0  0  0  0  0
  183.9980  171.3270  135.9820 C   0  0  0  0  0  0  0  0  0  0  0  0
  184.9760  180.4050  142.8300 O   0  0  0  0  0  0  0  0  0  0  0  0
  183.9050  180.0390  143.6890 C   0  0  0  0  0  2  0  0  0  0  0  0
  183.2920  178.8150  143.2270 N   0  0  0  0  0  2  0  0  0  0  0  0
  181.8890  179.1700  143.0120 C   0  0  0  0  0  2  0  0  0  0  0  0
  181.9700  178.2970  139.5010 C   0  0  0  0  0  0  0  0  0  0  0  0
  180.4230  179.7030  138.3310 C   0  0  0  0  0  3  0  0  0  0  0  0
  181.4380  178.6270  138.3530 C   0  0  0  0  0  3  0  0  0  0  0  0
  182.3010  178.0920  140.7320 C   0  0  0  0  0  3  0  0  0  0  0  0
  181.2880  178.4080  141.8240 C   0  0  2  0  0  3  0  0  0  0  0  0
  179.9820  180.4390  139.3800 C   0  0  0  0  0  3  0  0  0  0  0  0
  180.4820  180.3210  140.8000 C   0  0  0  0  0  2  0  0  0  0  0  0
  180.1240  179.0660  141.3540 O   0  0  0  0  0  0  0  0  0  0  0  0
  1 23  1  0  0  0  0
  2 12  1  0  0  0  0
  3  5  2  0  0  0  0
  3  6  1  0  0  0  0
  4 28  1  0  0  0  0
  4 22  2  0  0  0  0
  7 13  1  0  0  0  0
  8 29  1  0  0  0  0
  9 11  1  0  0  0  0
 10  9  1  0  0  0  0
 11  3  1  0  0  0  0
 12 31  1  0  0  0  0
 12  7  2  0  0  0  0
 13 10  1  0  0  0  0
 14  8  2  0  0  0  0
 15 20  1  0  0  0  0
 15  4  1  0  0  0  0
 16 19  2  0  0  0  0
 16 25  1  0  0  0  0
 17 30  1  0  0  0  0
 17 20  1  0  0  0  0
 18 27  1  0  0  0  0
 18  6  1  0  0  0  0
 19 14  1  0  0  0  0
 20 21  1  6  0  0  0
 23 55  1  0  0  0  0
 23 27  2  0  0  0  0
 24 18  2  0  0  0  0
 25 26  2  0  0  0  0
 26  8  1  0  0  0  0
 28 50  1  0  0  0  0
 28 16  1  0  0  0  0
 29  1  2  0  0  0  0
 29 24  1  0  0  0  0
 30  2  1  0  0  0  0
 31 32  1  1  0  0  0
 33 31  1  0  0  0  0
 34 33  1  1  0  0  0
 35 36  1  6  0  0  0
 35 41  1  0  0  0  0
 35 34  1  0  0  0  0
 36 34  1  0  0  0  0
 39 41  1  0  0  0  0
 39 38  1  0  0  0  0
 40 38  1  0  0  0  0
 40 42  1  1  0  0  0
 41 37  1  6  0  0  0
 43 37  1  1  0  0  0
 43 40  1  0  0  0  0
 43 45  1  0  0  0  0
 44 45  1  0  0  0  0
 44 46  1  0  0  0  0
 45 47  1  0  0  0  0
 46 48  1  0  0  0  0
 47 48  2  0  0  0  0
 50 49  1  1  0  0  0
 51 54  1  0  0  0  0
 51 50  1  0  0  0  0
 53 54  2  0  0  0  0
 54 52  1  0  0  0  0
 55 56  1  0  0  0  0
 57 56  1  0  0  0  0
 58 57  1  0  0  0  0
 59 62  2  0  0  0  0
 60 61  1  0  0  0  0
 60 64  2  0  0  0  0
 61 59  2  0  0  0  0
 62 63  1  0  0  0  0
 63 58  1  1  0  0  0
 64 65  1  0  0  0  0
 65 66  1  0  0  0  0
 66 63  1  0  0  0  0
M  END
>  <MODEL>
3

>  <REMARK>
 VINA RESULT:      -4.4      2.770     10.722
  Name = 
  13 active torsions:
  status: ('A' for Active; 'I' for Inactive)
    1  A    between atoms: C_6  and  C_19
    2  A    between atoms: C_6  and  C_37
    3  A    between atoms: C_11  and  C_38
    4  A    between atoms: C_11  and  C_57
    5  A    between atoms: C_19  and  C_30
    6  A    between atoms: N_20  and  C_45
    7  A    between atoms: C_22  and  C_43
    8  A    between atoms: N_29  and  C_34
    9  A    between atoms: N_29  and  C_35
   10  A    between atoms: C_34  and  O_52
   11  A    between atoms: C_35  and  C_53
   12  A    between atoms: C_38  and  N_63
   13  A    between atoms: C_50  and  O_52
                            x       y       z     vdW  Elec       q    Type
                         _______ _______ _______ _____ _____    ______ ____

>  <TORSDO>
F 13

$$$$
=
 OpenBabel10232410123D

 66 72  0  0  1  0  0  0  0  0999 V2000
  189.0840  172.9640  136.4960 C   0  0  0  0  0  3  0  0  0  0  0  0
  184.2000  178.5150  140.7350 O   0  0  0  0  0  0  0  0  0  0  0  0
  189.2110  177.9370  135.5130 C   0  0  0  0  0  0  0  0  0  0  0  0
  182.7310  176.7250  136.6930 C   0  0  0  0  0  0  0  0  0  0  0  0
  188.7630  178.1530  134.3460 O   0  0  0  0  0  0  0  0  0  0  0  0
  190.1900  176.9340  135.7120 O   0  0  0  0  0  0  0  0  0  0  0  0
  186.0820  177.7710  139.6320 N   0  0  0  0  0  0  0  0  0  0  0  0
  186.8190  173.8380  137.1940 C   0  0  0  0  0  0  0  0  0  0  0  0
  189.2270  178.7460  137.9080 C   0  0  0  0  0  2  0  0  0  0  0  0
  188.1420  178.8940  138.9860 C   0  0  0  0  0  2  0  0  0  0  0  0
  188.5690  178.5740  136.6310 N   0  0  0  0  0  2  0  0  0  0  0  0
  185.5880  178.4350  140.6300 C   0  0  0  0  0  0  0  0  0  0  0  0
  187.4920  177.5600  139.3150 C   0  0  0  0  0  2  0  0  0  0  0  0
  186.2460  174.8600  137.9700 C   0  0  0  0  0  3  0  0  0  0  0  0
  181.7480  176.9000  137.8220 C   0  0  0  0  0  2  0  0  0  0  0  0
  184.2060  174.7260  136.6950 C   0  0  0  0  0  0  0  0  0  0  0  0
  182.0160  177.8350  140.1400 C   0  0  0  0  0  2  0  0  0  0  0  0
  189.8270  175.5960  135.9380 C   0  0  0  0  0  0  0  0  0  0  0  0
  184.9680  175.3270  137.6980 C   0  0  0  0  0  3  0  0  0  0  0  0
  182.0500  178.1720  138.6450 C   0  0  2  0  0  3  0  0  0  0  0  0
  181.1700  179.2150  138.3190 O   0  0  0  0  0  1  0  0  0  0  0  0
  183.3440  177.7370  136.1970 O   0  0  0  0  0  0  0  0  0  0  0  0
  190.3500  173.2320  135.9380 C   0  0  0  0  0  0  0  0  0  0  0  0
  188.6340  175.3070  136.5090 N   0  0  0  0  0  0  0  0  0  0  0  0
  184.6680  173.5400  136.0910 C   0  0  0  0  0  3  0  0  0  0  0  0
  185.9800  173.1000  136.3240 C   0  0  0  0  0  3  0  0  0  0  0  0
  190.7050  174.5570  135.6230 C   0  0  0  0  0  3  0  0  0  0  0  0
  183.0340  175.4010  136.1940 N   0  0  0  0  0  0  0  0  0  0  0  0
  188.2190  174.0260  136.7800 C   0  0  0  0  0  0  0  0  0  0  0  0
  183.3740  177.3780  140.5650 C   0  0  0  0  0  2  0  0  0  0  0  0
  186.4390  179.1840  141.6260 C   0  0  1  0  0  3  0  0  0  0  0  0
  185.5950  179.6180  142.6500 O   0  0  0  0  0  1  0  0  0  0  0  0
  187.4710  178.2100  142.1970 C   0  0  0  0  0  2  0  0  0  0  0  0
  188.9640  178.5850  142.0330 C   0  0  1  0  0  3  0  0  0  0  0  0
  190.1490  177.9390  142.8180 C   0  0  2  0  0  3  0  0  0  0  0  0
  189.5420  177.2190  141.6410 C   0  0  0  0  0  2  0  0  0  0  0  0
  190.8370  177.5830  145.1830 C   0  0  0  0  0  2  0  0  0  0  0  0
  188.0720  177.1860  145.6590 C   0  0  0  0  0  2  0  0  0  0  0  0
  188.5080  177.9850  144.5980 O   0  0  0  0  0  0  0  0  0  0  0  0
  188.8280  177.6280  146.8860 C   0  0  1  0  0  3  0  0  0  0  0  0
  189.7110  177.3720  144.1760 C   0  0  1  0  0  3  0  0  0  0  0  0
  188.3650  176.8520  148.1330 C   0  0  0  0  0  1  0  0  0  0  0  0
  190.3570  177.6350  146.6600 C   0  0  1  0  0  3  0  0  0  0  0  0
  191.9370  177.1430  148.4660 O   0  0  0  0  0  0  0  0  0  0  0  0
  191.0810  176.6890  147.5120 N   0  0  0  0  0  0  0  0  0  0  0  0
  192.7320  176.0540  148.6860 N   0  0  0  0  0  2  0  0  0  0  0  0
  191.3550  175.3280  147.1410 C   0  0  0  0  0  3  0  0  0  0  0  0
  192.3690  174.9400  147.8630 C   0  0  0  0  0  3  0  0  0  0  0  0
  181.5900  175.9870  134.3860 F   0  0  0  0  0  0  0  0  0  0  0  0
  182.5390  175.0950  134.8400 C   0  0  2  0  0  3  0  0  0  0  0  0
  182.0880  173.6130  134.6950 C   0  0  0  0  0  2  0  0  0  0  0  0
  180.3160  174.1160  136.2070 O   0  0  0  0  0  1  0  0  0  0  0  0
  180.1390  172.0950  135.1110 O   0  0  0  0  0  0  0  0  0  0  0  0
  180.8100  173.2820  135.3940 C   0  0  0  0  0  0  0  0  0  0  0  0
  191.2620  172.1870  135.7470 O   0  0  0  0  0  0  0  0  0  0  0  0
  192.5870  172.4810  135.3280 C   0  0  0  0  0  2  0  0  0  0  0  0
  193.4460  171.3420  135.5550 N   0  0  0  0  0  2  0  0  0  0  0  0
  194.7920  171.8390  135.2680 C   0  0  0  0  0  2  0  0  0  0  0  0
  196.1770  173.7940  137.9790 C   0  0  0  0  0  0  0  0  0  0  0  0
  198.4230  174.4030  137.4080 C   0  0  0  0  0  3  0  0  0  0  0  0
  197.2670  174.4250  138.3320 C   0  0  0  0  0  3  0  0  0  0  0  0
  195.2490  173.0580  137.4670 C   0  0  0  0  0  3  0  0  0  0  0  0
  195.6480  171.9190  136.5380 C   0  0  2  0  0  3  0  0  0  0  0  0
  198.4900  173.8200  136.1870 C   0  0  0  0  0  3  0  0  0  0  0  0
  197.3540  173.0940  135.5050 C   0  0  0  0  0  2  0  0  0  0  0  0
  197.0270  171.9060  136.2050 O   0  0  0  0  0  0  0  0  0  0  0  0
  1 29  2  0  0  0  0
  3  6  1  0  0  0  0
  3 11  1  0  0  0  0
  4 15  1  0  0  0  0
  5  3  2  0  0  0  0
  6 18  1  0  0  0  0
  7 12  2  0  0  0  0
  8 14  1  0  0  0  0
  9 10  1  0  0  0  0
 10 13  1  0  0  0  0
 11  9  1  0  0  0  0
 12  2  1  0  0  0  0
 12 31  1  0  0  0  0
 13  7  1  0  0  0  0
 15 20  1  0  0  0  0
 16 19  1  0  0  0  0
 17 30  1  0  0  0  0
 18 24  2  0  0  0  0
 19 14  2  0  0  0  0
 20 21  1  1  0  0  0
 20 17  1  0  0  0  0
 22  4  2  0  0  0  0
 23  1  1  0  0  0  0
 24 29  1  0  0  0  0
 25 26  1  0  0  0  0
 25 16  2  0  0  0  0
 26  8  2  0  0  0  0
 27 23  2  0  0  0  0
 27 18  1  0  0  0  0
 28  4  1  0  0  0  0
 28 16  1  0  0  0  0
 29  8  1  0  0  0  0
 30  2  1  0  0  0  0
 31 33  1  0  0  0  0
 31 32  1  1  0  0  0
 34 33  1  1  0  0  0
 34 35  1  0  0  0  0
 35 36  1  6  0  0  0
 35 41  1  0  0  0  0
 36 34  1  0  0  0  0
 38 40  1  0  0  0  0
 39 38  1  0  0  0  0
 40 42  1  1  0  0  0
 41 39  1  0  0  0  0
 41 37  1  1  0  0  0
 43 37  1  6  0  0  0
 43 40  1  0  0  0  0
 43 45  1  0  0  0  0
 44 46  1  0  0  0  0
 45 44  1  0  0  0  0
 47 45  1  0  0  0  0
 47 48  2  0  0  0  0
 48 46  1  0  0  0  0
 50 49  1  1  0  0  0
 50 28  1  0  0  0  0
 51 50  1  0  0  0  0
 51 54  1  0  0  0  0
 53 54  2  0  0  0  0
 54 52  1  0  0  0  0
 55 23  1  0  0  0  0
 56 57  1  0  0  0  0
 56 55  1  0  0  0  0
 58 57  1  0  0  0  0
 59 61  2  0  0  0  0
 60 61  1  0  0  0  0
 62 59  2  0  0  0  0
 63 58  1  6  0  0  0
 63 62  1  0  0  0  0
 64 60  2  0  0  0  0
 65 64  1  0  0  0  0
 65 66  1  0  0  0  0
 66 63  1  0  0  0  0
M  END
>  <MODEL>
4

>  <REMARK>
 VINA RESULT:      -4.2      1.712      2.533
  Name = 
  13 active torsions:
  status: ('A' for Active; 'I' for Inactive)
    1  A    between atoms: C_6  and  C_19
    2  A    between atoms: C_6  and  C_37
    3  A    between atoms: C_11  and  C_38
    4  A    between atoms: C_11  and  C_57
    5  A    between atoms: C_19  and  C_30
    6  A    between atoms: N_20  and  C_45
    7  A    between atoms: C_22  and  C_43
    8  A    between atoms: N_29  and  C_34
    9  A    between atoms: N_29  and  C_35
   10  A    between atoms: C_34  and  O_52
   11  A    between atoms: C_35  and  C_53
   12  A    between atoms: C_38  and  N_63
   13  A    between atoms: C_50  and  O_52
                            x       y       z     vdW  Elec       q    Type
                         _______ _______ _______ _____ _____    ______ ____

>  <TORSDO>
F 13

$$$$
=
 OpenBabel10232410123D

 66 72  0  0  1  0  0  0  0  0999 V2000
  185.9790  179.2730  140.9110 C   0  0  0  0  0  3  0  0  0  0  0  0
  191.7650  175.5460  135.8830 O   0  0  0  0  0  0  0  0  0  0  0  0
  189.2600  175.8410  142.6920 C   0  0  0  0  0  0  0  0  0  0  0  0
  187.6500  173.4920  136.6300 C   0  0  0  0  0  0  0  0  0  0  0  0
  188.6330  174.7990  143.0530 O   0  0  0  0  0  0  0  0  0  0  0  0
  188.8120  177.1120  143.1250 O   0  0  0  0  0  0  0  0  0  0  0  0
  190.9300  176.4520  137.8320 N   0  0  0  0  0  0  0  0  0  0  0  0
  186.5900  177.8420  138.9210 C   0  0  0  0  0  0  0  0  0  0  0  0
  191.3210  176.7150  141.5180 C   0  0  0  0  0  2  0  0  0  0  0  0
  191.8490  176.6090  140.0800 C   0  0  0  0  0  2  0  0  0  0  0  0
  190.2840  175.7210  141.6890 N   0  0  0  0  0  2  0  0  0  0  0  0
  191.9350  176.3340  137.0210 C   0  0  0  0  0  0  0  0  0  0  0  0
  190.8780  177.2110  139.0780 C   0  0  0  0  0  2  0  0  0  0  0  0
  187.7220  177.3410  138.2560 C   0  0  0  0  0  3  0  0  0  0  0  0
  188.2520  173.4550  135.2490 C   0  0  0  0  0  2  0  0  0  0  0  0
  186.4210  175.5300  137.3440 C   0  0  0  0  0  0  0  0  0  0  0  0
  190.4180  174.3570  134.3460 C   0  0  0  0  0  2  0  0  0  0  0  0
  187.8370  177.8240  142.4090 C   0  0  0  0  0  0  0  0  0  0  0  0
  187.6480  176.1750  137.5070 C   0  0  0  0  0  3  0  0  0  0  0  0
  189.7910  173.3370  135.3030 C   0  0  2  0  0  3  0  0  0  0  0  0
  190.2150  172.0280  135.0290 O   0  0  0  0  0  1  0  0  0  0  0  0
  188.2660  172.9650  137.6240 O   0  0  0  0  0  0  0  0  0  0  0  0
  186.1220  179.5300  142.2890 C   0  0  0  0  0  0  0  0  0  0  0  0
  187.7010  177.6300  141.0750 N   0  0  0  0  0  0  0  0  0  0  0  0
  185.2420  176.1600  137.7860 C   0  0  0  0  0  3  0  0  0  0  0  0
  185.3210  177.3080  138.5900 C   0  0  0  0  0  3  0  0  0  0  0  0
  187.0320  178.7700  143.0480 C   0  0  0  0  0  3  0  0  0  0  0  0
  186.3940  174.1730  136.8560 N   0  0  0  0  0  0  0  0  0  0  0  0
  186.7860  178.3040  140.3050 C   0  0  0  0  0  0  0  0  0  0  0  0
  190.6080  175.6500  135.0730 C   0  0  0  0  0  2  0  0  0  0  0  0
  193.2910  176.9380  137.2920 C   0  0  1  0  0  3  0  0  0  0  0  0
  193.4450  177.0070  138.6770 O   0  0  0  0  0  1  0  0  0  0  0  0
  194.3520  176.0040  136.7090 C   0  0  0  0  0  2  0  0  0  0  0  0
  195.2660  176.5770  135.5970 C   0  0  1  0  0  3  0  0  0  0  0  0
  196.4350  175.8100  134.9040 C   0  0  2  0  0  3  0  0  0  0  0  0
  195.0100  175.5510  134.4850 C   0  0  0  0  0  2  0  0  0  0  0  0
  196.5270  173.3550  135.2970 C   0  0  0  0  0  2  0  0  0  0  0  0
  198.8170  173.9490  136.8580 C   0  0  0  0  0  2  0  0  0  0  0  0
  198.4350  174.7820  135.8020 O   0  0  0  0  0  0  0  0  0  0  0  0
  198.8070  172.5360  136.3330 C   0  0  1  0  0  3  0  0  0  0  0  0
  197.0220  174.7080  135.7970 C   0  0  1  0  0  3  0  0  0  0  0  0
  199.2850  171.5410  137.4080 C   0  0  0  0  0  1  0  0  0  0  0  0
  197.4620  172.1690  135.6670 C   0  0  1  0  0  3  0  0  0  0  0  0
  196.6880  169.8480  135.7980 O   0  0  0  0  0  0  0  0  0  0  0  0
  196.7420  171.0900  136.3500 N   0  0  0  0  0  0  0  0  0  0  0  0
  195.6000  169.3020  136.4180 N   0  0  0  0  0  2  0  0  0  0  0  0
  195.6860  171.3090  137.2980 C   0  0  0  0  0  3  0  0  0  0  0  0
  194.9850  170.2100  137.3390 C   0  0  0  0  0  3  0  0  0  0  0  0
  185.5170  172.3480  138.1210 F   0  0  0  0  0  0  0  0  0  0  0  0
  185.2410  173.3080  137.1700 C   0  0  2  0  0  3  0  0  0  0  0  0
  184.5800  172.7170  135.8930 C   0  0  0  0  0  2  0  0  0  0  0  0
  182.2890  172.7720  135.2390 O   0  0  0  0  0  0  0  0  0  0  0  0
  183.3480  174.8180  135.3070 O   0  0  0  0  0  1  0  0  0  0  0  0
  183.3480  173.4320  135.4430 C   0  0  0  0  0  0  0  0  0  0  0  0
  185.3940  180.5680  142.8830 O   0  0  0  0  0  0  0  0  0  0  0  0
  184.3400  180.2590  143.7840 C   0  0  0  0  0  2  0  0  0  0  0  0
  184.8590  180.1000  145.1220 N   0  0  0  0  0  2  0  0  0  0  0  0
  184.4180  178.7650  145.5270 C   0  0  0  0  0  2  0  0  0  0  0  0
  187.0900  179.1170  147.9420 C   0  0  0  0  0  0  0  0  0  0  0  0
  188.7580  177.4610  147.4770 C   0  0  0  0  0  3  0  0  0  0  0  0
  188.2460  178.6010  148.2690 C   0  0  0  0  0  3  0  0  0  0  0  0
  185.9170  179.4140  147.4920 C   0  0  0  0  0  3  0  0  0  0  0  0
  185.0870  178.3200  146.8330 C   0  0  2  0  0  3  0  0  0  0  0  0
  188.1780  176.8830  146.3980 C   0  0  0  0  0  3  0  0  0  0  0  0
  186.8830  177.3280  145.7610 C   0  0  0  0  0  2  0  0  0  0  0  0
  185.7910  177.1050  146.6380 O   0  0  0  0  0  0  0  0  0  0  0  0
  1 23  1  0  0  0  0
  2 12  1  0  0  0  0
  3  5  2  0  0  0  0
  3  6  1  0  0  0  0
  4 28  1  0  0  0  0
  4 22  2  0  0  0  0
  7 13  1  0  0  0  0
  8 29  1  0  0  0  0
  9 11  1  0  0  0  0
 10  9  1  0  0  0  0
 11  3  1  0  0  0  0
 12 31  1  0  0  0  0
 12  7  2  0  0  0  0
 13 10  1  0  0  0  0
 14  8  2  0  0  0  0
 15 20  1  0  0  0  0
 15  4  1  0  0  0  0
 16 19  2  0  0  0  0
 16 25  1  0  0  0  0
 17 30  1  0  0  0  0
 17 20  1  0  0  0  0
 18 27  1  0  0  0  0
 18  6  1  0  0  0  0
 19 14  1  0  0  0  0
 20 21  1  6  0  0  0
 23 55  1  0  0  0  0
 23 27  2  0  0  0  0
 24 18  2  0  0  0  0
 25 26  2  0  0  0  0
 26  8  1  0  0  0  0
 28 50  1  0  0  0  0
 28 16  1  0  0  0  0
 29  1  2  0  0  0  0
 29 24  1  0  0  0  0
 30  2  1  0  0  0  0
 31 32  1  1  0  0  0
 33 31  1  0  0  0  0
 34 33  1  1  0  0  0
 35 36  1  6  0  0  0
 35 34  1  0  0  0  0
 35 41  1  0  0  0  0
 36 34  1  0  0  0  0
 39 38  1  0  0  0  0
 40 38  1  0  0  0  0
 40 42  1  1  0  0  0
 41 37  1  6  0  0  0
 41 39  1  0  0  0  0
 43 37  1  1  0  0  0
 43 40  1  0  0  0  0
 43 45  1  0  0  0  0
 44 45  1  0  0  0  0
 44 46  1  0  0  0  0
 45 47  1  0  0  0  0
 46 48  1  0  0  0  0
 47 48  2  0  0  0  0
 50 49  1  1  0  0  0
 51 50  1  0  0  0  0
 52 54  2  0  0  0  0
 53 54  1  0  0  0  0
 54 51  1  0  0  0  0
 55 56  1  0  0  0  0
 56 57  1  0  0  0  0
 57 58  1  0  0  0  0
 59 61  2  0  0  0  0
 60 61  1  0  0  0  0
 62 59  2  0  0  0  0
 63 58  1  6  0  0  0
 63 62  1  0  0  0  0
 64 60  2  0  0  0  0
 65 64  1  0  0  0  0
 65 66  1  0  0  0  0
 66 63  1  0  0  0  0
M  END
>  <MODEL>
5

>  <REMARK>
 VINA RESULT:      -3.5      2.729     10.425
  Name = 
  13 active torsions:
  status: ('A' for Active; 'I' for Inactive)
    1  A    between atoms: C_6  and  C_19
    2  A    between atoms: C_6  and  C_37
    3  A    between atoms: C_11  and  C_38
    4  A    between atoms: C_11  and  C_57
    5  A    between atoms: C_19  and  C_30
    6  A    between atoms: N_20  and  C_45
    7  A    between atoms: C_22  and  C_43
    8  A    between atoms: N_29  and  C_34
    9  A    between atoms: N_29  and  C_35
   10  A    between atoms: C_34  and  O_52
   11  A    between atoms: C_35  and  C_53
   12  A    between atoms: C_38  and  N_63
   13  A    between atoms: C_50  and  O_52
                            x       y       z     vdW  Elec       q    Type
                         _______ _______ _______ _____ _____    ______ ____

>  <TORSDO>
F 13

$$$$
=
 OpenBabel10232410123D

 66 72  0  0  1  0  0  0  0  0999 V2000
  193.0610  176.1180  136.2140 C   0  0  0  0  0  3  0  0  0  0  0  0
  185.4740  178.6150  139.1890 O   0  0  0  0  0  0  0  0  0  0  0  0
  189.2450  172.8490  136.8980 C   0  0  0  0  0  0  0  0  0  0  0  0
  188.7180  177.0070  142.1210 C   0  0  0  0  0  0  0  0  0  0  0  0
  189.5440  172.0310  137.8210 O   0  0  0  0  0  0  0  0  0  0  0  0
  190.1710  173.0960  135.8570 O   0  0  0  0  0  0  0  0  0  0  0  0
  186.9380  177.3670  137.9180 N   0  0  0  0  0  0  0  0  0  0  0  0
  191.6170  177.1470  138.0130 C   0  0  0  0  0  0  0  0  0  0  0  0
  187.4070  174.2750  135.9100 C   0  0  0  0  0  2  0  0  0  0  0  0
  186.5960  175.4720  136.4300 C   0  0  0  0  0  2  0  0  0  0  0  0
  188.0610  173.6530  137.0400 N   0  0  0  0  0  2  0  0  0  0  0  0
  185.8110  178.0050  137.9810 C   0  0  0  0  0  0  0  0  0  0  0  0
  187.4920  176.6510  136.7720 C   0  0  0  0  0  2  0  0  0  0  0  0
  190.2740  177.4690  138.2700 C   0  0  0  0  0  3  0  0  0  0  0  0
  187.8750  178.1880  142.5300 C   0  0  0  0  0  2  0  0  0  0  0  0
  190.6780  177.3950  140.6440 C   0  0  0  0  0  0  0  0  0  0  0  0
  186.0040  179.3900  141.3580 C   0  0  0  0  0  2  0  0  0  0  0  0
  191.1650  174.0810  135.9850 C   0  0  0  0  0  0  0  0  0  0  0  0
  189.7990  177.5530  139.5710 C   0  0  0  0  0  3  0  0  0  0  0  0
  186.4300  178.0640  141.9990 C   0  0  2  0  0  3  0  0  0  0  0  0
  185.5450  177.6590  143.0080 O   0  0  0  0  0  1  0  0  0  0  0  0
  188.1740  175.8750  141.8610 O   0  0  0  0  0  0  0  0  0  0  0  0
  193.2920  175.0390  135.3370 C   0  0  0  0  0  0  0  0  0  0  0  0
  190.9560  175.1510  136.7890 N   0  0  0  0  0  0  0  0  0  0  0  0
  192.0640  177.3310  140.4010 C   0  0  0  0  0  3  0  0  0  0  0  0
  192.5390  177.1890  139.0880 C   0  0  0  0  0  3  0  0  0  0  0  0
  192.3520  173.9960  135.2540 C   0  0  0  0  0  3  0  0  0  0  0  0
  190.1490  177.1570  141.9640 N   0  0  0  0  0  0  0  0  0  0  0  0
  191.8710  176.1640  136.9480 C   0  0  0  0  0  0  0  0  0  0  0  0
  186.4100  179.3860  139.9190 C   0  0  0  0  0  2  0  0  0  0  0  0
  184.8210  178.0480  136.8420 C   0  0  1  0  0  3  0  0  0  0  0  0
  185.1350  176.9980  135.9790 O   0  0  0  0  0  1  0  0  0  0  0  0
  183.4220  177.8290  137.4210 C   0  0  0  0  0  2  0  0  0  0  0  0
  183.0690  176.3970  137.8940 C   0  0  1  0  0  3  0  0  0  0  0  0
  181.7340  175.9770  138.5840 C   0  0  2  0  0  3  0  0  0  0  0  0
  181.7850  176.1580  137.0880 C   0  0  0  0  0  2  0  0  0  0  0  0
  181.9280  177.5350  140.5150 C   0  0  0  0  0  2  0  0  0  0  0  0
  179.9990  179.0830  139.1300 C   0  0  0  0  0  2  0  0  0  0  0  0
  180.8660  178.2330  138.4370 O   0  0  0  0  0  0  0  0  0  0  0  0
  180.8420  179.8960  140.0800 C   0  0  1  0  0  3  0  0  0  0  0  0
  181.0630  177.1460  139.3210 C   0  0  1  0  0  3  0  0  0  0  0  0
  179.9830  180.9210  140.8450 C   0  0  0  0  0  1  0  0  0  0  0  0
  181.7380  179.0080  140.9730 C   0  0  1  0  0  3  0  0  0  0  0  0
  182.4240  179.2750  143.3100 O   0  0  0  0  0  0  0  0  0  0  0  0
  181.4260  179.1080  142.4020 N   0  0  0  0  0  0  0  0  0  0  0  0
  181.8370  178.8490  144.4680 N   0  0  0  0  0  2  0  0  0  0  0  0
  180.2340  178.5720  142.9980 C   0  0  0  0  0  3  0  0  0  0  0  0
  180.4880  178.4140  144.2670 C   0  0  0  0  0  3  0  0  0  0  0  0
  190.4050  175.3280  143.4750 F   0  0  0  0  0  0  0  0  0  0  0  0
  190.9810  176.4750  142.9720 C   0  0  2  0  0  3  0  0  0  0  0  0
  191.4710  177.4400  144.0870 C   0  0  0  0  0  2  0  0  0  0  0  0
  189.7340  177.0380  145.6680 O   0  0  0  0  0  0  0  0  0  0  0  0
  191.8800  176.8160  146.4790 O   0  0  0  0  0  1  0  0  0  0  0  0
  190.9790  177.1070  145.4580 C   0  0  0  0  0  0  0  0  0  0  0  0
  194.4300  175.0370  134.5210 O   0  0  0  0  0  0  0  0  0  0  0  0
  195.7140  175.2020  135.1090 C   0  0  0  0  0  2  0  0  0  0  0  0
  195.9490  174.1680  136.0890 N   0  0  0  0  0  2  0  0  0  0  0  0
  196.2540  172.9770  135.2940 C   0  0  0  0  0  2  0  0  0  0  0  0
  195.0580  170.8980  138.0040 C   0  0  0  0  0  0  0  0  0  0  0  0
  196.5120  169.0050  138.2090 C   0  0  0  0  0  3  0  0  0  0  0  0
  195.3370  169.7930  138.6440 C   0  0  0  0  0  3  0  0  0  0  0  0
  194.9320  171.8970  137.1970 C   0  0  0  0  0  3  0  0  0  0  0  0
  195.4560  171.7580  135.7730 C   0  0  2  0  0  3  0  0  0  0  0  0
  197.3850  169.3080  137.2180 C   0  0  0  0  0  3  0  0  0  0  0  0
  197.3430  170.5590  136.3720 C   0  0  0  0  0  2  0  0  0  0  0  0
  196.1920  170.5670  135.5460 O   0  0  0  0  0  0  0  0  0  0  0  0
  1 29  2  0  0  0  0
  2 30  1  0  0  0  0
  3 11  1  0  0  0  0
  3  5  2  0  0  0  0
  4 15  1  0  0  0  0
  6 18  1  0  0  0  0
  6  3  1  0  0  0  0
  7 12  2  0  0  0  0
  8 14  2  0  0  0  0
  8 26  1  0  0  0  0
  9 10  1  0  0  0  0
  9 11  1  0  0  0  0
 10 13  1  0  0  0  0
 12  2  1  0  0  0  0
 13  7  1  0  0  0  0
 14 19  1  0  0  0  0
 16 28  1  0  0  0  0
 17 20  1  0  0  0  0
 18 24  2  0  0  0  0
 19 16  2  0  0  0  0
 20 15  1  0  0  0  0
 20 21  1  1  0  0  0
 22  4  2  0  0  0  0
 23  1  1  0  0  0  0
 24 29  1  0  0  0  0
 25 16  1  0  0  0  0
 26 25  2  0  0  0  0
 27 23  2  0  0  0  0
 27 18  1  0  0  0  0
 28  4  1  0  0  0  0
 28 50  1  0  0  0  0
 29  8  1  0  0  0  0
 30 17  1  0  0  0  0
 31 32  1  6  0  0  0
 31 33  1  0  0  0  0
 31 12  1  0  0  0  0
 34 33  1  1  0  0  0
 34 35  1  0  0  0  0
 35 36  1  6  0  0  0
 35 41  1  0  0  0  0
 36 34  1  0  0  0  0
 38 40  1  0  0  0  0
 39 38  1  0  0  0  0
 39 41  1  0  0  0  0
 40 42  1  1  0  0  0
 40 43  1  0  0  0  0
 41 37  1  1  0  0  0
 43 37  1  6  0  0  0
 43 45  1  0  0  0  0
 44 46  1  0  0  0  0
 45 47  1  0  0  0  0
 45 44  1  0  0  0  0
 47 48  2  0  0  0  0
 48 46  1  0  0  0  0
 50 49  1  1  0  0  0
 50 51  1  0  0  0  0
 51 54  1  0  0  0  0
 54 52  2  0  0  0  0
 54 53  1  0  0  0  0
 55 56  1  0  0  0  0
 55 23  1  0  0  0  0
 56 57  1  0  0  0  0
 58 57  1  0  0  0  0
 59 61  2  0  0  0  0
 60 61  1  0  0  0  0
 62 59  2  0  0  0  0
 63 58  1  1  0  0  0
 63 62  1  0  0  0  0
 64 60  2  0  0  0  0
 65 64  1  0  0  0  0
 66 63  1  0  0  0  0
 66 65  1  0  0  0  0
M  END
>  <MODEL>
6

>  <REMARK>
 VINA RESULT:      -3.4      2.897      8.001
  Name = 
  13 active torsions:
  status: ('A' for Active; 'I' for Inactive)
    1  A    between atoms: C_6  and  C_19
    2  A    between atoms: C_6  and  C_37
    3  A    between atoms: C_11  and  C_38
    4  A    between atoms: C_11  and  C_57
    5  A    between atoms: C_19  and  C_30
    6  A    between atoms: N_20  and  C_45
    7  A    between atoms: C_22  and  C_43
    8  A    between atoms: N_29  and  C_34
    9  A    between atoms: N_29  and  C_35
   10  A    between atoms: C_34  and  O_52
   11  A    between atoms: C_35  and  C_53
   12  A    between atoms: C_38  and  N_63
   13  A    between atoms: C_50  and  O_52
                            x       y       z     vdW  Elec       q    Type
                         _______ _______ _______ _____ _____    ______ ____

>  <TORSDO>
F 13

$$$$
=
 OpenBabel10232410123D

 66 72  0  0  1  0  0  0  0  0999 V2000
  187.0050  177.9800  141.6070 C   0  0  0  0  0  3  0  0  0  0  0  0
  189.5650  172.7740  135.3610 O   0  0  0  0  0  0  0  0  0  0  0  0
  186.6620  179.2900  136.7200 C   0  0  0  0  0  0  0  0  0  0  0  0
  192.4780  175.9860  137.0650 C   0  0  0  0  0  0  0  0  0  0  0  0
  187.4450  180.2600  136.4820 O   0  0  0  0  0  0  0  0  0  0  0  0
  185.7900  179.3520  137.8320 O   0  0  0  0  0  0  0  0  0  0  0  0
  188.2480  174.3770  136.3690 N   0  0  0  0  0  0  0  0  0  0  0  0
  188.7990  176.6450  140.4320 C   0  0  0  0  0  0  0  0  0  0  0  0
  185.7660  177.0920  135.8510 C   0  0  0  0  0  2  0  0  0  0  0  0
  186.4080  175.7330  135.5360 C   0  0  0  0  0  2  0  0  0  0  0  0
  186.8240  178.0700  135.9750 N   0  0  0  0  0  2  0  0  0  0  0  0
  188.3080  173.3190  135.6200 C   0  0  0  0  0  0  0  0  0  0  0  0
  187.0560  175.1190  136.7660 C   0  0  0  0  0  2  0  0  0  0  0  0
  188.9670  175.7970  139.3240 C   0  0  0  0  0  3  0  0  0  0  0  0
  193.0060  174.6140  136.7340 C   0  0  0  0  0  2  0  0  0  0  0  0
  191.3150  176.3270  139.2350 C   0  0  0  0  0  0  0  0  0  0  0  0
  191.8840  172.5780  135.7750 C   0  0  0  0  0  2  0  0  0  0  0  0
  186.2030  178.9290  139.1060 C   0  0  0  0  0  0  0  0  0  0  0  0
  190.2030  175.6700  138.7060 C   0  0  0  0  0  3  0  0  0  0  0  0
  192.3100  174.0230  135.4880 C   0  0  2  0  0  3  0  0  0  0  0  0
  193.1270  174.1160  134.3520 O   0  0  0  0  0  1  0  0  0  0  0  0
  191.9560  176.7220  136.1540 O   0  0  0  0  0  0  0  0  0  0  0  0
  185.9740  178.9360  141.5170 C   0  0  0  0  0  0  0  0  0  0  0  0
  187.1640  177.9820  139.2250 N   0  0  0  0  0  0  0  0  0  0  0  0
  191.2140  176.9650  140.4860 C   0  0  0  0  0  3  0  0  0  0  0  0
  189.9560  177.1420  141.0820 C   0  0  0  0  0  3  0  0  0  0  0  0
  185.6000  179.4400  140.2580 C   0  0  0  0  0  3  0  0  0  0  0  0
  192.5050  176.4640  138.4310 N   0  0  0  0  0  0  0  0  0  0  0  0
  187.6040  177.5030  140.4350 C   0  0  0  0  0  0  0  0  0  0  0  0
  190.5200  172.5880  136.3890 C   0  0  0  0  0  2  0  0  0  0  0  0
  187.0980  172.7090  134.9570 C   0  0  1  0  0  3  0  0  0  0  0  0
  187.3630  171.3500  134.7790 O   0  0  0  0  0  1  0  0  0  0  0  0
  185.9050  172.8740  135.9000 C   0  0  0  0  0  2  0  0  0  0  0  0
  185.1250  171.5930  136.2850 C   0  0  1  0  0  3  0  0  0  0  0  0
  183.6020  171.3550  136.0400 C   0  0  2  0  0  3  0  0  0  0  0  0
  184.5840  171.1850  134.9090 C   0  0  0  0  0  2  0  0  0  0  0  0
  182.9640  173.4070  137.2950 C   0  0  0  0  0  2  0  0  0  0  0  0
  182.2690  174.4390  134.7480 C   0  0  0  0  0  2  0  0  0  0  0  0
  183.2490  173.4490  134.8770 O   0  0  0  0  0  0  0  0  0  0  0  0
  182.5910  175.5130  135.7560 C   0  0  1  0  0  3  0  0  0  0  0  0
  182.8080  172.6680  135.9700 C   0  0  1  0  0  3  0  0  0  0  0  0
  181.6050  176.6910  135.6450 C   0  0  0  0  0  1  0  0  0  0  0  0
  182.7600  174.9440  137.1830 C   0  0  1  0  0  3  0  0  0  0  0  0
  182.0670  176.4750  138.9660 O   0  0  0  0  0  0  0  0  0  0  0  0
  181.7640  175.4420  138.1360 N   0  0  0  0  0  0  0  0  0  0  0  0
  181.1460  176.3270  139.9630 N   0  0  0  0  0  2  0  0  0  0  0  0
  180.6670  174.6550  138.6270 C   0  0  0  0  0  3  0  0  0  0  0  0
  180.2880  175.2000  139.7490 C   0  0  0  0  0  3  0  0  0  0  0  0
  194.2800  177.8550  137.6480 F   0  0  0  0  0  0  0  0  0  0  0  0
  193.4520  177.5590  138.7100 C   0  0  2  0  0  3  0  0  0  0  0  0
  194.2320  177.3430  140.0380 C   0  0  0  0  0  2  0  0  0  0  0  0
  195.1390  175.3100  139.1880 O   0  0  0  0  0  0  0  0  0  0  0  0
  196.4570  176.4170  140.7220 O   0  0  0  0  0  1  0  0  0  0  0  0
  195.2900  176.2910  139.9730 C   0  0  0  0  0  0  0  0  0  0  0  0
  185.2980  179.3410  142.6750 O   0  0  0  0  0  0  0  0  0  0  0  0
  184.4690  178.4140  143.3620 C   0  0  0  0  0  2  0  0  0  0  0  0
  184.2430  178.8590  144.7170 N   0  0  0  0  0  2  0  0  0  0  0  0
  185.5800  179.1660  145.2280 C   0  0  0  0  0  2  0  0  0  0  0  0
  187.8130  178.0370  147.8410 C   0  0  0  0  0  0  0  0  0  0  0  0
  189.7650  177.0950  146.8200 C   0  0  0  0  0  3  0  0  0  0  0  0
  188.9800  177.4730  148.0160 C   0  0  0  0  0  3  0  0  0  0  0  0
  186.6800  178.5060  147.4380 C   0  0  0  0  0  3  0  0  0  0  0  0
  186.1270  178.0300  146.1010 C   0  0  2  0  0  3  0  0  0  0  0  0
  189.4330  177.2930  145.5210 C   0  0  0  0  0  3  0  0  0  0  0  0
  188.1820  177.9890  145.0380 C   0  0  0  0  0  2  0  0  0  0  0  0
  187.0300  177.2290  145.3580 O   0  0  0  0  0  0  0  0  0  0  0  0
  2 12  1  0  0  0  0
  2 30  1  0  0  0  0
  3  6  1  0  0  0  0
  4 28  1  0  0  0  0
  5  3  2  0  0  0  0
  6 18  1  0  0  0  0
  7 13  1  0  0  0  0
  8 29  1  0  0  0  0
  8 26  1  0  0  0  0
  9 11  1  0  0  0  0
 10  9  1  0  0  0  0
 10 13  1  0  0  0  0
 11  3  1  0  0  0  0
 12  7  2  0  0  0  0
 14  8  2  0  0  0  0
 15  4  1  0  0  0  0
 16 25  1  0  0  0  0
 17 30  1  0  0  0  0
 18 24  2  0  0  0  0
 18 27  1  0  0  0  0
 19 16  2  0  0  0  0
 19 14  1  0  0  0  0
 20 21  1  6  0  0  0
 20 17  1  0  0  0  0
 20 15  1  0  0  0  0
 22  4  2  0  0  0  0
 23  1  1  0  0  0  0
 23 55  1  0  0  0  0
 24 29  1  0  0  0  0
 25 26  2  0  0  0  0
 27 23  2  0  0  0  0
 28 50  1  0  0  0  0
 28 16  1  0  0  0  0
 29  1  2  0  0  0  0
 31 32  1  1  0  0  0
 31 12  1  0  0  0  0
 31 33  1  0  0  0  0
 34 33  1  6  0  0  0
 35 36  1  6  0  0  0
 35 34  1  0  0  0  0
 36 34  1  0  0  0  0
 38 39  1  0  0  0  0
 38 40  1  0  0  0  0
 39 41  1  0  0  0  0
 40 42  1  1  0  0  0
 40 43  1  0  0  0  0
 41 35  1  0  0  0  0
 41 37  1  1  0  0  0
 43 37  1  6  0  0  0
 43 45  1  0  0  0  0
 44 46  1  0  0  0  0
 45 47  1  0  0  0  0
 45 44  1  0  0  0  0
 47 48  2  0  0  0  0
 48 46  1  0  0  0  0
 50 49  1  6  0  0  0
 50 51  1  0  0  0  0
 52 54  2  0  0  0  0
 54 51  1  0  0  0  0
 54 53  1  0  0  0  0
 55 56  1  0  0  0  0
 56 57  1  0  0  0  0
 57 58  1  0  0  0  0
 59 61  2  0  0  0  0
 60 61  1  0  0  0  0
 62 59  2  0  0  0  0
 63 58  1  6  0  0  0
 63 62  1  0  0  0  0
 64 60  2  0  0  0  0
 65 66  1  0  0  0  0
 65 64  1  0  0  0  0
 66 63  1  0  0  0  0
M  END
>  <MODEL>
7

>  <REMARK>
 VINA RESULT:      -2.7      2.974     10.997
  Name = 
  13 active torsions:
  status: ('A' for Active; 'I' for Inactive)
    1  A    between atoms: C_6  and  C_19
    2  A    between atoms: C_6  and  C_37
    3  A    between atoms: C_11  and  C_38
    4  A    between atoms: C_11  and  C_57
    5  A    between atoms: C_19  and  C_30
    6  A    between atoms: N_20  and  C_45
    7  A    between atoms: C_22  and  C_43
    8  A    between atoms: N_29  and  C_34
    9  A    between atoms: N_29  and  C_35
   10  A    between atoms: C_34  and  O_52
   11  A    between atoms: C_35  and  C_53
   12  A    between atoms: C_38  and  N_63
   13  A    between atoms: C_50  and  O_52
                            x       y       z     vdW  Elec       q    Type
                         _______ _______ _______ _____ _____    ______ ____

>  <TORSDO>
F 13

$$$$
=
 OpenBabel10232410123D

 66 72  0  0  1  0  0  0  0  0999 V2000
  184.7830  179.7250  144.2410 C   0  0  0  0  0  3  0  0  0  0  0  0
  186.7950  178.0070  136.1380 O   0  0  0  0  0  0  0  0  0  0  0  0
  187.8470  175.8790  143.0000 C   0  0  0  0  0  0  0  0  0  0  0  0
  183.2110  175.8280  138.1670 C   0  0  0  0  0  0  0  0  0  0  0  0
  187.2870  174.7770  143.2870 O   0  0  0  0  0  0  0  0  0  0  0  0
  187.8870  176.9150  143.9630 O   0  0  0  0  0  0  0  0  0  0  0  0
  187.1400  178.1660  138.4120 N   0  0  0  0  0  0  0  0  0  0  0  0
  184.1330  179.0890  141.8840 C   0  0  0  0  0  0  0  0  0  0  0  0
  189.2420  177.1080  141.2880 C   0  0  0  0  0  2  0  0  0  0  0  0
  189.0120  177.5160  139.8250 C   0  0  0  0  0  2  0  0  0  0  0  0
  188.2470  176.1200  141.6390 N   0  0  0  0  0  2  0  0  0  0  0  0
  187.6130  178.3410  137.2170 C   0  0  0  0  0  0  0  0  0  0  0  0
  187.8100  178.4360  139.6810 C   0  0  0  0  0  2  0  0  0  0  0  0
  184.7140  178.8530  140.6270 C   0  0  0  0  0  3  0  0  0  0  0  0
  183.0830  176.2820  136.7350 C   0  0  0  0  0  2  0  0  0  0  0  0
  182.8400  177.4840  139.9820 C   0  0  0  0  0  0  0  0  0  0  0  0
  184.7010  177.4410  135.1990 C   0  0  0  0  0  2  0  0  0  0  0  0
  186.8340  177.8370  144.0860 C   0  0  0  0  0  0  0  0  0  0  0  0
  184.0950  178.0280  139.7000 C   0  0  0  0  0  3  0  0  0  0  0  0
  184.4210  176.1490  135.9760 C   0  0  2  0  0  3  0  0  0  0  0  0
  184.4280  175.0210  135.1420 O   0  0  0  0  0  1  0  0  0  0  0  0
  184.1140  174.9830  138.5050 O   0  0  0  0  0  0  0  0  0  0  0  0
  185.5950  179.4770  145.3660 C   0  0  0  0  0  0  0  0  0  0  0  0
  186.0610  178.1260  143.0130 N   0  0  0  0  0  0  0  0  0  0  0  0
  182.1360  177.9190  141.1210 C   0  0  0  0  0  3  0  0  0  0  0  0
  182.7830  178.7090  142.0850 C   0  0  0  0  0  3  0  0  0  0  0  0
  186.6020  178.4970  145.2950 C   0  0  0  0  0  3  0  0  0  0  0  0
  182.3480  176.3870  139.1850 N   0  0  0  0  0  0  0  0  0  0  0  0
  185.0280  179.0320  143.0500 C   0  0  0  0  0  0  0  0  0  0  0  0
  185.4340  178.3930  136.0890 C   0  0  0  0  0  2  0  0  0  0  0  0
  189.0220  178.8080  136.9460 C   0  0  1  0  0  3  0  0  0  0  0  0
  189.3550  179.7240  137.9450 O   0  0  0  0  0  1  0  0  0  0  0  0
  189.9490  177.5950  137.0380 C   0  0  0  0  0  2  0  0  0  0  0  0
  189.6030  176.3720  136.1540 C   0  0  1  0  0  3  0  0  0  0  0  0
  190.5260  175.1340  135.9240 C   0  0  2  0  0  3  0  0  0  0  0  0
  189.7190  175.2490  137.1930 C   0  0  0  0  0  2  0  0  0  0  0  0
  192.6680  174.3600  136.9260 C   0  0  0  0  0  2  0  0  0  0  0  0
  193.8700  176.2210  135.1580 C   0  0  0  0  0  2  0  0  0  0  0  0
  192.6370  175.6360  134.8520 O   0  0  0  0  0  0  0  0  0  0  0  0
  194.7990  175.1070  135.5680 C   0  0  1  0  0  3  0  0  0  0  0  0
  192.0130  175.4690  136.1100 C   0  0  1  0  0  3  0  0  0  0  0  0
  196.2140  175.6430  135.8590 C   0  0  0  0  0  1  0  0  0  0  0  0
  194.1980  174.2270  136.6880 C   0  0  1  0  0  3  0  0  0  0  0  0
  194.9140  175.3720  138.7320 O   0  0  0  0  0  0  0  0  0  0  0  0
  194.9590  174.2680  137.9400 N   0  0  0  0  0  0  0  0  0  0  0  0
  196.0500  175.2390  139.4800 N   0  0  0  0  0  2  0  0  0  0  0  0
  196.1230  173.4650  138.1930 C   0  0  0  0  0  3  0  0  0  0  0  0
  196.7920  174.0630  139.1390 C   0  0  0  0  0  3  0  0  0  0  0  0
  181.8670  174.2630  140.1600 F   0  0  0  0  0  0  0  0  0  0  0  0
  181.3420  175.4700  139.7500 C   0  0  2  0  0  3  0  0  0  0  0  0
  180.1060  175.3020  138.8210 C   0  0  0  0  0  2  0  0  0  0  0  0
  180.1910  174.7320  136.5080 O   0  0  0  0  0  0  0  0  0  0  0  0
  180.6440  173.0080  137.9700 O   0  0  0  0  0  1  0  0  0  0  0  0
  180.2960  174.3290  137.7030 C   0  0  0  0  0  0  0  0  0  0  0  0
  185.4250  180.2400  146.5280 O   0  0  0  0  0  0  0  0  0  0  0  0
  186.3460  180.0970  147.6000 C   0  0  0  0  0  2  0  0  0  0  0  0
  186.8590  178.7470  147.6390 N   0  0  0  0  0  2  0  0  0  0  0  0
  188.2940  178.9100  147.8760 C   0  0  0  0  0  2  0  0  0  0  0  0
  191.3520  177.0070  148.2190 C   0  0  0  0  0  0  0  0  0  0  0  0
  191.9700  176.1640  146.0630 C   0  0  0  0  0  3  0  0  0  0  0  0
  192.2120  176.3180  147.5150 C   0  0  0  0  0  3  0  0  0  0  0  0
  190.3540  177.6540  148.7190 C   0  0  0  0  0  3  0  0  0  0  0  0
  189.0000  177.5570  148.0290 C   0  0  2  0  0  3  0  0  0  0  0  0
  190.9540  176.6910  145.3380 C   0  0  0  0  0  3  0  0  0  0  0  0
  189.8680  177.5880  145.8830 C   0  0  0  0  0  2  0  0  0  0  0  0
  189.0370  176.8770  146.7850 O   0  0  0  0  0  0  0  0  0  0  0  0
  1 23  1  0  0  0  0
  2 12  1  0  0  0  0
  3  5  2  0  0  0  0
  3  6  1  0  0  0  0
  4 22  2  0  0  0  0
  4 28  1  0  0  0  0
  6 18  1  0  0  0  0
  7 13  1  0  0  0  0
  8 26  1  0  0  0  0
  8 29  1  0  0  0  0
  9 11  1  0  0  0  0
 10  9  1  0  0  0  0
 11  3  1  0  0  0  0
 12  7  2  0  0  0  0
 13 10  1  0  0  0  0
 14  8  2  0  0  0  0
 15  4  1  0  0  0  0
 16 25  1  0  0  0  0
 17 20  1  0  0  0  0
 17 30  1  0  0  0  0
 18 27  1  0  0  0  0
 19 16  2  0  0  0  0
 19 14  1  0  0  0  0
 20 21  1  6  0  0  0
 20 15  1  0  0  0  0
 23 55  1  0  0  0  0
 24 29  1  0  0  0  0
 24 18  2  0  0  0  0
 25 26  2  0  0  0  0
 27 23  2  0  0  0  0
 28 50  1  0  0  0  0
 28 16  1  0  0  0  0
 29  1  2  0  0  0  0
 30  2  1  0  0  0  0
 31 33  1  0  0  0  0
 31 12  1  0  0  0  0
 31 32  1  1  0  0  0
 34 33  1  1  0  0  0
 34 36  1  0  0  0  0
 35 41  1  0  0  0  0
 35 34  1  0  0  0  0
 35 36  1  1  0  0  0
 38 40  1  0  0  0  0
 39 38  1  0  0  0  0
 39 41  1  0  0  0  0
 40 42  1  1  0  0  0
 40 43  1  0  0  0  0
 41 37  1  6  0  0  0
 43 37  1  1  0  0  0
 43 45  1  0  0  0  0
 44 46  1  0  0  0  0
 45 47  1  0  0  0  0
 45 44  1  0  0  0  0
 47 48  2  0  0  0  0
 48 46  1  0  0  0  0
 50 49  1  6  0  0  0
 51 50  1  0  0  0  0
 52 54  2  0  0  0  0
 54 53  1  0  0  0  0
 54 51  1  0  0  0  0
 55 56  1  0  0  0  0
 56 57  1  0  0  0  0
 57 58  1  0  0  0  0
 59 62  2  0  0  0  0
 60 61  1  0  0  0  0
 61 59  2  0  0  0  0
 63 58  1  6  0  0  0
 63 62  1  0  0  0  0
 64 65  1  0  0  0  0
 64 60  2  0  0  0  0
 65 66  1  0  0  0  0
 66 63  1  0  0  0  0
M  END
>  <MODEL>
8

>  <REMARK>
 VINA RESULT:      -2.5      2.481      8.879
  Name = 
  13 active torsions:
  status: ('A' for Active; 'I' for Inactive)
    1  A    between atoms: C_6  and  C_19
    2  A    between atoms: C_6  and  C_37
    3  A    between atoms: C_11  and  C_38
    4  A    between atoms: C_11  and  C_57
    5  A    between atoms: C_19  and  C_30
    6  A    between atoms: N_20  and  C_45
    7  A    between atoms: C_22  and  C_43
    8  A    between atoms: N_29  and  C_34
    9  A    between atoms: N_29  and  C_35
   10  A    between atoms: C_34  and  O_52
   11  A    between atoms: C_35  and  C_53
   12  A    between atoms: C_38  and  N_63
   13  A    between atoms: C_50  and  O_52
                            x       y       z     vdW  Elec       q    Type
                         _______ _______ _______ _____ _____    ______ ____

>  <TORSDO>
F 13

$$$$
=
 OpenBabel10232410123D

 66 72  0  0  1  0  0  0  0  0999 V2000
  185.2000  178.8340  138.2850 C   0  0  0  0  0  3  0  0  0  0  0  0
  192.2220  174.8040  135.6210 O   0  0  0  0  0  0  0  0  0  0  0  0
  188.4350  176.6630  141.5300 C   0  0  0  0  0  0  0  0  0  0  0  0
  188.2940  172.4110  136.3580 C   0  0  0  0  0  0  0  0  0  0  0  0
  187.8700  175.6830  142.1060 O   0  0  0  0  0  0  0  0  0  0  0  0
  187.7750  177.9120  141.4670 O   0  0  0  0  0  0  0  0  0  0  0  0
  190.9330  176.0910  137.0350 N   0  0  0  0  0  0  0  0  0  0  0  0
  186.3380  177.0040  136.9670 C   0  0  0  0  0  0  0  0  0  0  0  0
  190.5740  177.4810  140.4620 C   0  0  0  0  0  2  0  0  0  0  0  0
  191.3780  177.0480  139.2270 C   0  0  0  0  0  2  0  0  0  0  0  0
  189.6410  176.4250  140.7830 N   0  0  0  0  0  2  0  0  0  0  0  0
  192.0820  175.9080  136.4620 C   0  0  0  0  0  0  0  0  0  0  0  0
  190.5580  177.1620  137.9530 C   0  0  0  0  0  2  0  0  0  0  0  0
  187.6250  176.5230  136.6710 C   0  0  0  0  0  3  0  0  0  0  0  0
  189.1510  172.0710  135.1650 C   0  0  0  0  0  2  0  0  0  0  0  0
  186.7330  174.3370  136.1970 C   0  0  0  0  0  0  0  0  0  0  0  0
  191.3370  173.0130  134.3570 C   0  0  0  0  0  2  0  0  0  0  0  0
  186.8830  178.2130  140.4250 C   0  0  0  0  0  0  0  0  0  0  0  0
  187.8260  175.1940  136.3290 C   0  0  0  0  0  3  0  0  0  0  0  0
  190.6540  172.2290  135.4840 C   0  0  2  0  0  3  0  0  0  0  0  0
  191.2650  170.9860  135.7050 O   0  0  0  0  0  1  0  0  0  0  0  0
  188.7610  172.3070  137.5480 O   0  0  0  0  0  0  0  0  0  0  0  0
  185.0450  179.5020  139.5160 C   0  0  0  0  0  0  0  0  0  0  0  0
  187.0290  177.6170  139.2170 N   0  0  0  0  0  0  0  0  0  0  0  0
  185.4280  174.8650  136.2360 C   0  0  0  0  0  3  0  0  0  0  0  0
  185.2230  176.1950  136.6370 C   0  0  0  0  0  3  0  0  0  0  0  0
  185.8700  179.1590  140.6030 C   0  0  0  0  0  3  0  0  0  0  0  0
  186.9500  172.9110  136.1670 N   0  0  0  0  0  0  0  0  0  0  0  0
  186.2110  177.8770  138.1450 C   0  0  0  0  0  0  0  0  0  0  0  0
  191.2400  174.4750  134.6560 C   0  0  0  0  0  2  0  0  0  0  0  0
  193.2850  176.7800  136.7270 C   0  0  1  0  0  3  0  0  0  0  0  0
  193.6990  176.5300  138.0360 O   0  0  0  0  0  1  0  0  0  0  0  0
  194.3930  176.3670  135.7560 C   0  0  0  0  0  2  0  0  0  0  0  0
  195.6730  177.2390  135.7320 C   0  0  1  0  0  3  0  0  0  0  0  0
  197.1350  176.6940  135.7050 C   0  0  2  0  0  3  0  0  0  0  0  0
  196.3190  176.7280  134.4380 C   0  0  0  0  0  2  0  0  0  0  0  0
  196.7490  174.2680  135.3130 C   0  0  0  0  0  2  0  0  0  0  0  0
  198.4960  173.8960  137.5140 C   0  0  0  0  0  2  0  0  0  0  0  0
  198.5860  175.0390  136.7130 O   0  0  0  0  0  0  0  0  0  0  0  0
  198.4490  172.7090  136.5860 C   0  0  1  0  0  3  0  0  0  0  0  0
  197.2500  175.2940  136.3230 C   0  0  1  0  0  3  0  0  0  0  0  0
  198.4200  171.3870  137.3770 C   0  0  0  0  0  1  0  0  0  0  0  0
  197.3410  172.8450  135.5160 C   0  0  1  0  0  3  0  0  0  0  0  0
  196.2960  170.7630  134.7600 O   0  0  0  0  0  0  0  0  0  0  0  0
  196.2990  171.8200  135.6150 N   0  0  0  0  0  0  0  0  0  0  0  0
  194.9990  170.3370  134.8290 N   0  0  0  0  0  2  0  0  0  0  0  0
  195.0070  172.0490  136.2000 C   0  0  0  0  0  3  0  0  0  0  0  0
  194.2100  171.1370  135.7170 C   0  0  0  0  0  3  0  0  0  0  0  0
  185.5590  172.0550  137.9070 F   0  0  0  0  0  0  0  0  0  0  0  0
  185.8620  171.9990  136.5630 C   0  0  2  0  0  3  0  0  0  0  0  0
  186.0940  170.5460  136.0600 C   0  0  0  0  0  2  0  0  0  0  0  0
  185.1050  169.1970  134.3630 O   0  0  0  0  0  0  0  0  0  0  0  0
  183.6340  170.1060  135.8870 O   0  0  0  0  0  1  0  0  0  0  0  0
  184.9180  169.9290  135.3770 C   0  0  0  0  0  0  0  0  0  0  0  0
  184.1070  180.5340  139.6340 O   0  0  0  0  0  0  0  0  0  0  0  0
  182.9970  180.5770  138.7480 C   0  0  0  0  0  2  0  0  0  0  0  0
  181.8020  180.1290  139.4250 N   0  0  0  0  0  2  0  0  0  0  0  0
  182.0830  178.7360  139.7750 C   0  0  0  0  0  2  0  0  0  0  0  0
  180.4690  175.5060  140.0100 C   0  0  0  0  0  0  0  0  0  0  0  0
  180.9820  174.2540  138.0320 C   0  0  0  0  0  3  0  0  0  0  0  0
  180.3270  174.3840  139.3530 C   0  0  0  0  0  3  0  0  0  0  0  0
  180.6820  176.7040  140.4390 C   0  0  0  0  0  3  0  0  0  0  0  0
  180.9080  177.8160  139.4230 C   0  0  2  0  0  3  0  0  0  0  0  0
  181.7650  175.1670  137.4090 C   0  0  0  0  0  3  0  0  0  0  0  0
  182.1570  176.5120  137.9750 C   0  0  0  0  0  2  0  0  0  0  0  0
  181.0250  177.3570  138.0860 O   0  0  0  0  0  0  0  0  0  0  0  0
  1 23  1  0  0  0  0
  2 12  1  0  0  0  0
  3  5  2  0  0  0  0
  4 22  2  0  0  0  0
  6  3  1  0  0  0  0
  7 13  1  0  0  0  0
  8 29  1  0  0  0  0
  9 11  1  0  0  0  0
 10  9  1  0  0  0  0
 11  3  1  0  0  0  0
 12 31  1  0  0  0  0
 12  7  2  0  0  0  0
 13 10  1  0  0  0  0
 14  8  1  0  0  0  0
 15 20  1  0  0  0  0
 15  4  1  0  0  0  0
 16 25  2  0  0  0  0
 16 19  1  0  0  0  0
 17 30  1  0  0  0  0
 17 20  1  0  0  0  0
 18 27  1  0  0  0  0
 18  6  1  0  0  0  0
 19 14  2  0  0  0  0
 20 21  1  6  0  0  0
 23 55  1  0  0  0  0
 23 27  2  0  0  0  0
 24 18  2  0  0  0  0
 25 26  1  0  0  0  0
 26  8  2  0  0  0  0
 28 16  1  0  0  0  0
 28  4  1  0  0  0  0
 28 50  1  0  0  0  0
 29  1  2  0  0  0  0
 29 24  1  0  0  0  0
 30  2  1  0  0  0  0
 31 32  1  1  0  0  0
 33 31  1  0  0  0  0
 34 33  1  1  0  0  0
 35 36  1  6  0  0  0
 35 34  1  0  0  0  0
 35 41  1  0  0  0  0
 36 34  1  0  0  0  0
 39 38  1  0  0  0  0
 40 42  1  1  0  0  0
 40 38  1  0  0  0  0
 41 37  1  6  0  0  0
 41 39  1  0  0  0  0
 43 37  1  1  0  0  0
 43 45  1  0  0  0  0
 43 40  1  0  0  0  0
 44 46  1  0  0  0  0
 44 45  1  0  0  0  0
 45 47  1  0  0  0  0
 46 48  1  0  0  0  0
 48 47  2  0  0  0  0
 50 49  1  1  0  0  0
 51 50  1  0  0  0  0
 52 54  2  0  0  0  0
 54 53  1  0  0  0  0
 54 51  1  0  0  0  0
 56 57  1  0  0  0  0
 56 55  1  0  0  0  0
 57 58  1  0  0  0  0
 59 62  2  0  0  0  0
 60 61  1  0  0  0  0
 61 59  2  0  0  0  0
 63 58  1  1  0  0  0
 63 62  1  0  0  0  0
 64 65  1  0  0  0  0
 64 60  2  0  0  0  0
 65 66  1  0  0  0  0
 66 63  1  0  0  0  0
M  END
>  <MODEL>
9

>  <REMARK>
 VINA RESULT:      -2.2      3.084     10.573
  Name = 
  13 active torsions:
  status: ('A' for Active; 'I' for Inactive)
    1  A    between atoms: C_6  and  C_19
    2  A    between atoms: C_6  and  C_37
    3  A    between atoms: C_11  and  C_38
    4  A    between atoms: C_11  and  C_57
    5  A    between atoms: C_19  and  C_30
    6  A    between atoms: N_20  and  C_45
    7  A    between atoms: C_22  and  C_43
    8  A    between atoms: N_29  and  C_34
    9  A    between atoms: N_29  and  C_35
   10  A    between atoms: C_34  and  O_52
   11  A    between atoms: C_35  and  C_53
   12  A    between atoms: C_38  and  N_63
   13  A    between atoms: C_50  and  O_52
                            x       y       z     vdW  Elec       q    Type
                         _______ _______ _______ _____ _____    ______ ____

>  <TORSDO>
F 13

$$$$
