=
 OpenBabel10232408203D

 32 36  0  0  1  0  0  0  0  0999 V2000
  186.8070  176.9960  144.4920 O   0  0  0  0  0  1  0  0  0  0  0  0
  188.3690  177.8150  139.1360 N   0  0  0  0  0  0  0  0  0  0  0  0
  188.2760  175.9870  137.5060 C   0  0  0  0  0  0  0  0  0  0  0  0
  191.8700  176.9780  140.1090 C   0  0  0  0  0  2  0  0  0  0  0  0
  187.8510  177.3240  143.6220 C   0  0  2  0  0  0  0  0  0  0  0  0
  189.0840  176.5650  143.7620 C   0  0  2  0  0  3  0  0  0  0  0  0
  188.9720  177.1980  141.3650 C   0  0  0  0  0  0  0  0  0  0  0  0
  189.2580  177.1700  140.0490 C   0  0  0  0  0  0  0  0  0  0  0  0
  189.0230  177.9640  144.2520 N   0  0  0  0  0  0  0  0  0  0  0  0
  191.2200  176.9920  142.4910 C   0  0  0  0  0  0  0  0  0  0  0  0
  188.9770  177.8600  145.9960 Cl  0  0  0  0  0  0  0  0  0  0  0  0
  190.5390  175.8010  138.5130 N   0  0  0  0  0  0  0  0  0  0  0  0
  187.9870  177.3600  137.9830 C   0  0  0  0  0  0  0  0  0  0  0  0
  191.8090  177.8070  141.3860 C   0  0  0  0  0  2  0  0  0  0  0  0
  190.5280  176.6060  139.5290 C   0  0  0  0  0  0  0  0  0  0  0  0
  189.4240  175.3310  137.7450 C   0  0  0  0  0  3  0  0  0  0  0  0
  189.7980  176.4910  142.4070 C   0  0  1  0  0  3  0  0  0  0  0  0
  187.4660  177.9520  141.9680 S   0  0  0  0  0  0  0  0  0  0  0  0
  191.9280  176.6670  143.4280 O   0  0  0  0  0  0  0  0  0  0  0  0
  187.0080  178.1820  137.2120 C   0  0  0  0  0  2  0  0  0  0  0  0
  186.1750  178.8740  138.0930 O   0  0  0  0  0  0  0  0  0  0  0  0
  185.0240  178.0880  138.1870 C   0  0  0  0  0  2  0  0  0  0  0  0
  183.7940  177.8840  140.2080 O   0  0  0  0  0  1  0  0  0  0  0  0
  184.0360  178.7370  139.1340 C   0  0  0  0  0  3  0  0  0  0  0  0
  184.5580  179.9410  139.6080 O   0  0  0  0  0  1  0  0  0  0  0  0
  187.2880  175.3730  136.7200 O   0  0  0  0  0  0  0  0  0  0  0  0
  186.7600  174.0740  136.9680 C   0  0  1  0  0  3  0  0  0  0  0  0
  185.2850  174.1820  137.3480 C   0  0  0  0  0  2  0  0  0  0  0  0
  184.7020  172.1770  136.0000 C   0  0  0  0  0  2  0  0  0  0  0  0
  186.9740  173.1840  135.7650 C   0  0  0  0  0  3  0  0  0  0  0  0
  184.6710  172.7900  137.3970 C   0  0  0  0  0  2  0  0  0  0  0  0
  186.0600  172.2910  135.3570 C   0  0  0  0  0  3  0  0  0  0  0  0
  2  8  1  0  0  0  0
  3 16  2  0  0  0  0
  3 13  1  0  0  0  0
  4 14  1  0  0  0  0
  5  6  1  0  0  0  0
  5  9  1  0  0  0  0
  5  1  1  1  0  0  0
  6  9  1  1  0  0  0
  7 18  1  0  0  0  0
  8  7  2  0  0  0  0
  9 11  1  0  0  0  0
 10 19  2  0  0  0  0
 12 15  2  0  0  0  0
 13  2  2  0  0  0  0
 14 10  1  0  0  0  0
 15  8  1  0  0  0  0
 15  4  1  0  0  0  0
 16 12  1  0  0  0  0
 17  7  1  6  0  0  0
 17 10  1  0  0  0  0
 17  6  1  0  0  0  0
 18  5  1  0  0  0  0
 20 13  1  0  0  0  0
 20 21  1  0  0  0  0
 21 22  1  0  0  0  0
 22 24  1  0  0  0  0
 24 25  1  0  0  0  0
 24 23  1  0  0  0  0
 26  3  1  0  0  0  0
 27 26  1  6  0  0  0
 27 28  1  0  0  0  0
 28 31  1  0  0  0  0
 29 31  1  0  0  0  0
 30 27  1  0  0  0  0
 32 30  2  0  0  0  0
 32 29  1  0  0  0  0
M  END
>  <MODEL>
1

>  <REMARK>
 VINA RESULT:      -7.7      0.000      0.000
  Name = 
  6 active torsions:
  status: ('A' for Active; 'I' for Inactive)
    1  A    between atoms: C_2  and  O_28
    2  A    between atoms: C_3  and  O_14
    3  A    between atoms: C_3  and  C_23
    4  A    between atoms: C_5  and  O_28
    5  A    between atoms: O_14  and  C_16
    6  A    between atoms: C_16  and  C_24
                            x       y       z     vdW  Elec       q    Type
                         _______ _______ _______ _____ _____    ______ ____

>  <TORSDO>
F 6

$$$$
=
 OpenBabel10232408203D

 32 36  0  0  1  0  0  0  0  0999 V2000
  184.2820  177.9440  143.0340 O   0  0  0  0  0  1  0  0  0  0  0  0
  188.8040  178.6340  139.7380 N   0  0  0  0  0  0  0  0  0  0  0  0
  189.6560  176.7870  138.3700 C   0  0  0  0  0  0  0  0  0  0  0  0
  190.9610  177.6950  142.6310 C   0  0  0  0  0  2  0  0  0  0  0  0
  185.6500  178.2240  142.9810 C   0  0  2  0  0  0  0  0  0  0  0  0
  186.5170  177.4260  143.8350 C   0  0  2  0  0  3  0  0  0  0  0  0
  187.9060  178.0290  141.8690 C   0  0  0  0  0  0  0  0  0  0  0  0
  188.9320  177.9730  140.9970 C   0  0  0  0  0  0  0  0  0  0  0  0
  186.2200  178.8340  144.2000 N   0  0  0  0  0  0  0  0  0  0  0  0
  188.9990  177.7640  144.1270 C   0  0  0  0  0  0  0  0  0  0  0  0
  185.1200  178.7560  145.5550 Cl  0  0  0  0  0  0  0  0  0  0  0  0
  190.8340  176.5400  140.5440 N   0  0  0  0  0  0  0  0  0  0  0  0
  189.1860  178.1760  138.5860 C   0  0  0  0  0  0  0  0  0  0  0  0
  190.1660  178.5430  143.6150 C   0  0  0  0  0  2  0  0  0  0  0  0
  190.2360  177.3600  141.3510 C   0  0  0  0  0  0  0  0  0  0  0  0
  190.3990  176.0970  139.2520 C   0  0  0  0  0  3  0  0  0  0  0  0
  187.9040  177.3100  143.1920 C   0  0  1  0  0  3  0  0  0  0  0  0
  186.3720  178.8410  141.4400 S   0  0  0  0  0  0  0  0  0  0  0  0
  188.9790  177.4280  145.2990 O   0  0  0  0  0  0  0  0  0  0  0  0
  188.9060  179.0190  137.3860 C   0  0  0  0  0  2  0  0  0  0  0  0
  187.5370  179.2800  137.3010 O   0  0  0  0  0  0  0  0  0  0  0  0
  187.0770  178.4390  136.2860 C   0  0  0  0  0  2  0  0  0  0  0  0
  185.4640  178.0540  137.9870 O   0  0  0  0  0  1  0  0  0  0  0  0
  186.0220  177.5010  136.8370 C   0  0  0  0  0  3  0  0  0  0  0  0
  185.0210  177.3070  135.8850 O   0  0  0  0  0  1  0  0  0  0  0  0
  189.3280  176.1960  137.1400 O   0  0  0  0  0  0  0  0  0  0  0  0
  189.3560  174.7940  136.8930 C   0  0  1  0  0  3  0  0  0  0  0  0
  187.9640  174.3160  136.4880 C   0  0  0  0  0  2  0  0  0  0  0  0
  188.8960  172.8010  134.7520 C   0  0  0  0  0  2  0  0  0  0  0  0
  190.3970  174.4660  135.8480 C   0  0  0  0  0  3  0  0  0  0  0  0
  188.0420  172.8710  136.0150 C   0  0  0  0  0  2  0  0  0  0  0  0
  190.2050  173.5290  134.9080 C   0  0  0  0  0  3  0  0  0  0  0  0
  2  8  1  0  0  0  0
  3 13  1  0  0  0  0
  3 16  2  0  0  0  0
  4 14  1  0  0  0  0
  5  1  1  1  0  0  0
  5  6  1  0  0  0  0
  5  9  1  0  0  0  0
  6  9  1  1  0  0  0
  8 15  1  0  0  0  0
  8  7  2  0  0  0  0
  9 11  1  0  0  0  0
 10 19  2  0  0  0  0
 12 15  2  0  0  0  0
 13  2  2  0  0  0  0
 14 10  1  0  0  0  0
 15  4  1  0  0  0  0
 16 12  1  0  0  0  0
 17  7  1  6  0  0  0
 17  6  1  0  0  0  0
 17 10  1  0  0  0  0
 18  7  1  0  0  0  0
 18  5  1  0  0  0  0
 20 13  1  0  0  0  0
 21 20  1  0  0  0  0
 22 24  1  0  0  0  0
 22 21  1  0  0  0  0
 24 23  1  0  0  0  0
 25 24  1  0  0  0  0
 26  3  1  0  0  0  0
 27 26  1  6  0  0  0
 28 27  1  0  0  0  0
 29 32  1  0  0  0  0
 29 31  1  0  0  0  0
 30 27  1  0  0  0  0
 31 28  1  0  0  0  0
 32 30  2  0  0  0  0
M  END
>  <MODEL>
2

>  <REMARK>
 VINA RESULT:      -7.3      2.143      2.819
  Name = 
  6 active torsions:
  status: ('A' for Active; 'I' for Inactive)
    1  A    between atoms: C_2  and  O_28
    2  A    between atoms: C_3  and  O_14
    3  A    between atoms: C_3  and  C_23
    4  A    between atoms: C_5  and  O_28
    5  A    between atoms: O_14  and  C_16
    6  A    between atoms: C_16  and  C_24
                            x       y       z     vdW  Elec       q    Type
                         _______ _______ _______ _____ _____    ______ ____

>  <TORSDO>
F 6

$$$$
=
 OpenBabel10232408203D

 32 36  0  0  1  0  0  0  0  0999 V2000
  185.1240  172.4050  136.9540 O   0  0  0  0  0  1  0  0  0  0  0  0
  189.2790  176.1470  137.6840 N   0  0  0  0  0  0  0  0  0  0  0  0
  189.5070  177.3750  139.7930 C   0  0  0  0  0  0  0  0  0  0  0  0
  187.0730  178.7680  136.2140 C   0  0  0  0  0  2  0  0  0  0  0  0
  185.6910  173.6110  136.5310 C   0  0  2  0  0  0  0  0  0  0  0  0
  184.8030  174.7610  136.4530 C   0  0  2  0  0  3  0  0  0  0  0  0
  187.0410  175.6950  136.9740 C   0  0  2  0  0  3  0  0  0  0  0  0
  187.9580  176.5960  137.3800 C   0  0  0  0  0  0  0  0  0  0  0  0
  185.2470  174.0900  135.2070 N   0  0  0  0  0  0  0  0  0  0  0  0
  185.4300  177.0400  135.5750 C   0  0  0  0  0  0  0  0  0  0  0  0
  183.8590  173.2080  134.6150 Cl  0  0  0  0  0  0  0  0  0  0  0  0
  187.9950  178.7860  138.4170 N   0  0  0  0  0  0  0  0  0  0  0  0
  190.0110  176.5300  138.6840 C   0  0  1  0  0  3  0  0  0  0  0  0
  186.5840  177.8570  135.0950 C   0  0  0  0  0  2  0  0  0  0  0  0
  187.6800  178.0530  137.3950 C   0  0  0  0  0  0  0  0  0  0  0  0
  188.6260  178.3780  139.6370 C   0  0  0  0  0  3  0  0  0  0  0  0
  185.6030  176.0450  136.6970 C   0  0  1  0  0  3  0  0  0  0  0  0
  187.4310  173.9510  136.8950 S   0  0  0  0  0  0  0  0  0  0  0  0
  184.3240  177.2420  135.1030 O   0  0  0  0  0  0  0  0  0  0  0  0
  191.3490  175.8880  138.8400 C   0  0  0  0  0  2  0  0  0  0  0  0
  191.4000  174.7120  138.0900 O   0  0  0  0  0  0  0  0  0  0  0  0
  192.6790  174.7000  137.5310 C   0  0  0  0  0  2  0  0  0  0  0  0
  194.6210  175.4570  138.6710 O   0  0  0  0  0  1  0  0  0  0  0  0
  193.4660  175.8970  138.0280 C   0  0  0  0  0  3  0  0  0  0  0  0
  193.8170  176.7100  136.9500 O   0  0  0  0  0  1  0  0  0  0  0  0
  190.0350  177.1190  141.0680 O   0  0  0  0  0  0  0  0  0  0  0  0
  189.4740  177.6130  142.2800 C   0  0  1  0  0  3  0  0  0  0  0  0
  188.7540  176.4830  143.0110 C   0  0  0  0  0  2  0  0  0  0  0  0
  189.6020  177.2540  145.2170 C   0  0  0  0  0  2  0  0  0  0  0  0
  190.5480  178.2500  143.1320 C   0  0  0  0  0  3  0  0  0  0  0  0
  188.3470  176.9560  144.4010 C   0  0  0  0  0  2  0  0  0  0  0  0
  190.5760  178.1260  144.4670 C   0  0  0  0  0  3  0  0  0  0  0  0
  2 13  1  0  0  0  0
  3 26  1  0  0  0  0
  4 15  1  0  0  0  0
  5 18  1  0  0  0  0
  5  1  1  1  0  0  0
  6  9  1  6  0  0  0
  6  5  1  0  0  0  0
  6 17  1  0  0  0  0
  7 18  1  1  0  0  0
  7  8  1  0  0  0  0
  8 15  1  0  0  0  0
  8  2  2  0  0  0  0
  9  5  1  0  0  0  0
 11  9  1  0  0  0  0
 12 16  1  0  0  0  0
 13 20  1  1  0  0  0
 13  3  1  0  0  0  0
 14 10  1  0  0  0  0
 14  4  1  0  0  0  0
 15 12  2  0  0  0  0
 16  3  2  0  0  0  0
 17 10  1  6  0  0  0
 17  7  1  0  0  0  0
 19 10  2  0  0  0  0
 21 20  1  0  0  0  0
 22 24  1  0  0  0  0
 22 21  1  0  0  0  0
 24 23  1  0  0  0  0
 25 24  1  0  0  0  0
 27 26  1  6  0  0  0
 27 28  1  0  0  0  0
 27 30  1  0  0  0  0
 28 31  1  0  0  0  0
 30 32  2  0  0  0  0
 31 29  1  0  0  0  0
 32 29  1  0  0  0  0
M  END
>  <MODEL>
3

>  <REMARK>
 VINA RESULT:      -7.0      3.768      8.024
  Name = 
  6 active torsions:
  status: ('A' for Active; 'I' for Inactive)
    1  A    between atoms: C_2  and  O_28
    2  A    between atoms: C_3  and  O_14
    3  A    between atoms: C_3  and  C_23
    4  A    between atoms: C_5  and  O_28
    5  A    between atoms: O_14  and  C_16
    6  A    between atoms: C_16  and  C_24
                            x       y       z     vdW  Elec       q    Type
                         _______ _______ _______ _____ _____    ______ ____

>  <TORSDO>
F 6

$$$$
=
 OpenBabel10232408203D

 32 36  0  0  1  0  0  0  0  0999 V2000
  184.4170  174.9380  135.9510 O   0  0  0  0  0  1  0  0  0  0  0  0
  185.9030  178.6820  139.8970 N   0  0  0  0  0  0  0  0  0  0  0  0
  185.9130  178.0690  142.2710 C   0  0  0  0  0  0  0  0  0  0  0  0
  182.3550  179.8200  140.0450 C   0  0  0  0  0  2  0  0  0  0  0  0
  184.1190  176.1550  136.5710 C   0  0  2  0  0  0  0  0  0  0  0  0
  182.7600  176.3260  137.0610 C   0  0  2  0  0  3  0  0  0  0  0  0
  184.1780  177.6930  138.5700 C   0  0  2  0  0  3  0  0  0  0  0  0
  184.5230  178.3980  139.6650 C   0  0  0  0  0  0  0  0  0  0  0  0
  183.1910  177.0330  135.8290 N   0  0  0  0  0  0  0  0  0  0  0  0
  181.8210  178.4380  138.0700 C   0  0  0  0  0  0  0  0  0  0  0  0
  182.4120  176.2030  134.5030 Cl  0  0  0  0  0  0  0  0  0  0  0  0
  183.6050  178.8870  141.8540 N   0  0  0  0  0  0  0  0  0  0  0  0
  186.5190  178.6260  141.0370 C   0  0  1  0  0  3  0  0  0  0  0  0
  182.1940  179.8090  138.5300 C   0  0  0  0  0  2  0  0  0  0  0  0
  183.5100  179.0010  140.5660 C   0  0  0  0  0  0  0  0  0  0  0  0
  184.6220  178.2170  142.6100 C   0  0  0  0  0  3  0  0  0  0  0  0
  182.7640  177.2750  138.2650 C   0  0  1  0  0  3  0  0  0  0  0  0
  185.4220  177.0420  137.4610 S   0  0  0  0  0  0  0  0  0  0  0  0
  180.7100  178.2520  137.6060 O   0  0  0  0  0  0  0  0  0  0  0  0
  187.9830  178.9150  141.0410 C   0  0  0  0  0  2  0  0  0  0  0  0
  188.5750  178.3720  139.8990 O   0  0  0  0  0  0  0  0  0  0  0  0
  189.3000  177.2730  140.3610 C   0  0  0  0  0  2  0  0  0  0  0  0
  191.6660  177.4880  140.3410 O   0  0  0  0  0  1  0  0  0  0  0  0
  190.5750  177.1240  139.5550 C   0  0  0  0  0  3  0  0  0  0  0  0
  190.7220  175.7990  139.1460 O   0  0  0  0  0  1  0  0  0  0  0  0
  186.7760  177.3860  143.1420 O   0  0  0  0  0  0  0  0  0  0  0  0
  187.3480  177.9590  144.3140 C   0  0  1  0  0  3  0  0  0  0  0  0
  186.5800  177.4830  145.5450 C   0  0  0  0  0  2  0  0  0  0  0  0
  188.6760  177.2160  146.8540 C   0  0  0  0  0  2  0  0  0  0  0  0
  188.8200  177.6250  144.3960 C   0  0  0  0  0  3  0  0  0  0  0  0
  187.3210  177.9160  146.8030 C   0  0  0  0  0  2  0  0  0  0  0  0
  189.4290  177.3350  145.5550 C   0  0  0  0  0  3  0  0  0  0  0  0
  2 13  1  0  0  0  0
  3 16  2  0  0  0  0
  3 26  1  0  0  0  0
  4 15  1  0  0  0  0
  5  1  1  6  0  0  0
  5  6  1  0  0  0  0
  5 18  1  0  0  0  0
  6  9  1  6  0  0  0
  6 17  1  0  0  0  0
  7 18  1  1  0  0  0
  7  8  1  0  0  0  0
  8  2  2  0  0  0  0
  8 15  1  0  0  0  0
  9  5  1  0  0  0  0
 10 14  1  0  0  0  0
 11  9  1  0  0  0  0
 12 16  1  0  0  0  0
 13 20  1  6  0  0  0
 13  3  1  0  0  0  0
 14  4  1  0  0  0  0
 15 12  2  0  0  0  0
 17 10  1  6  0  0  0
 17  7  1  0  0  0  0
 19 10  2  0  0  0  0
 21 22  1  0  0  0  0
 21 20  1  0  0  0  0
 24 23  1  0  0  0  0
 24 22  1  0  0  0  0
 25 24  1  0  0  0  0
 27 26  1  6  0  0  0
 27 30  1  0  0  0  0
 27 28  1  0  0  0  0
 28 31  1  0  0  0  0
 30 32  2  0  0  0  0
 31 29  1  0  0  0  0
 32 29  1  0  0  0  0
M  END
>  <MODEL>
4

>  <REMARK>
 VINA RESULT:      -7.0      3.888      8.476
  Name = 
  6 active torsions:
  status: ('A' for Active; 'I' for Inactive)
    1  A    between atoms: C_2  and  O_28
    2  A    between atoms: C_3  and  O_14
    3  A    between atoms: C_3  and  C_23
    4  A    between atoms: C_5  and  O_28
    5  A    between atoms: O_14  and  C_16
    6  A    between atoms: C_16  and  C_24
                            x       y       z     vdW  Elec       q    Type
                         _______ _______ _______ _____ _____    ______ ____

>  <TORSDO>
F 6

$$$$
=
 OpenBabel10232408203D

 32 36  0  0  1  0  0  0  0  0999 V2000
  183.7750  173.7160  136.6560 O   0  0  0  0  0  1  0  0  0  0  0  0
  186.6500  178.2100  138.4810 N   0  0  0  0  0  0  0  0  0  0  0  0
  187.3830  178.3700  140.8140 C   0  0  0  0  0  0  0  0  0  0  0  0
  183.4050  179.8900  139.2210 C   0  0  0  0  0  2  0  0  0  0  0  0
  183.7590  175.0970  136.8750 C   0  0  2  0  0  0  0  0  0  0  0  0
  182.6400  175.6260  137.6380 C   0  0  2  0  0  3  0  0  0  0  0  0
  184.5400  177.1480  138.1190 C   0  0  2  0  0  3  0  0  0  0  0  0
  185.2550  178.0940  138.7600 C   0  0  0  0  0  0  0  0  0  0  0  0
  182.6940  175.8380  136.1700 N   0  0  0  0  0  0  0  0  0  0  0  0
  182.1910  178.0690  138.0790 C   0  0  0  0  0  0  0  0  0  0  0  0
  181.4870  174.7730  135.4880 Cl  0  0  0  0  0  0  0  0  0  0  0  0
  185.1120  179.3770  140.8100 N   0  0  0  0  0  0  0  0  0  0  0  0
  187.5930  178.4130  139.3480 C   0  0  1  0  0  3  0  0  0  0  0  0
  182.7680  179.4360  137.9140 C   0  0  0  0  0  2  0  0  0  0  0  0
  184.6180  179.1000  139.6450 C   0  0  0  0  0  0  0  0  0  0  0  0
  186.2780  178.8210  141.4320 C   0  0  0  0  0  3  0  0  0  0  0  0
  183.0810  176.8880  138.3880 C   0  0  1  0  0  3  0  0  0  0  0  0
  185.3250  175.9950  136.9990 S   0  0  0  0  0  0  0  0  0  0  0  0
  180.9810  177.9270  138.0410 O   0  0  0  0  0  0  0  0  0  0  0  0
  188.9960  178.4510  138.8380 C   0  0  0  0  0  2  0  0  0  0  0  0
  189.0150  178.1220  137.4820 O   0  0  0  0  0  0  0  0  0  0  0  0
  190.0830  177.2330  137.3460 C   0  0  0  0  0  2  0  0  0  0  0  0
  189.1560  175.0770  136.9800 O   0  0  0  0  0  1  0  0  0  0  0  0
  189.7180  175.8950  137.9570 C   0  0  0  0  0  3  0  0  0  0  0  0
  190.8610  175.2840  138.4720 O   0  0  0  0  0  1  0  0  0  0  0  0
  188.4400  177.8630  141.5860 O   0  0  0  0  0  0  0  0  0  0  0  0
  188.6540  178.1800  142.9580 C   0  0  1  0  0  3  0  0  0  0  0  0
  188.1190  177.0510  143.8360 C   0  0  0  0  0  2  0  0  0  0  0  0
  190.0630  177.2130  145.3760 C   0  0  0  0  0  2  0  0  0  0  0  0
  190.1190  178.4530  143.2100 C   0  0  0  0  0  3  0  0  0  0  0  0
  188.5420  177.2880  145.2800 C   0  0  0  0  0  2  0  0  0  0  0  0
  190.7440  178.0550  144.3280 C   0  0  0  0  0  3  0  0  0  0  0  0
  2  8  2  0  0  0  0
  2 13  1  0  0  0  0
  3 16  2  0  0  0  0
  3 26  1  0  0  0  0
  4 15  1  0  0  0  0
  5  1  1  6  0  0  0
  5 18  1  0  0  0  0
  5  6  1  0  0  0  0
  6  9  1  6  0  0  0
  6 17  1  0  0  0  0
  7 18  1  1  0  0  0
  7 17  1  0  0  0  0
  7  8  1  0  0  0  0
  8 15  1  0  0  0  0
  9  5  1  0  0  0  0
 11  9  1  0  0  0  0
 12 16  1  0  0  0  0
 13 20  1  1  0  0  0
 13  3  1  0  0  0  0
 14 10  1  0  0  0  0
 14  4  1  0  0  0  0
 15 12  2  0  0  0  0
 17 10  1  6  0  0  0
 19 10  2  0  0  0  0
 21 20  1  0  0  0  0
 22 21  1  0  0  0  0
 22 24  1  0  0  0  0
 23 24  1  0  0  0  0
 24 25  1  0  0  0  0
 27 26  1  6  0  0  0
 27 30  1  0  0  0  0
 27 28  1  0  0  0  0
 28 31  1  0  0  0  0
 30 32  2  0  0  0  0
 31 29  1  0  0  0  0
 32 29  1  0  0  0  0
M  END
>  <MODEL>
5

>  <REMARK>
 VINA RESULT:      -6.8      3.733      7.993
  Name = 
  6 active torsions:
  status: ('A' for Active; 'I' for Inactive)
    1  A    between atoms: C_2  and  O_28
    2  A    between atoms: C_3  and  O_14
    3  A    between atoms: C_3  and  C_23
    4  A    between atoms: C_5  and  O_28
    5  A    between atoms: O_14  and  C_16
    6  A    between atoms: C_16  and  C_24
                            x       y       z     vdW  Elec       q    Type
                         _______ _______ _______ _____ _____    ______ ____

>  <TORSDO>
F 6

$$$$
=
 OpenBabel10232408203D

 32 36  0  0  1  0  0  0  0  0999 V2000
  186.2410  176.8270  145.6280 O   0  0  0  0  0  1  0  0  0  0  0  0
  188.6660  178.2880  140.7520 N   0  0  0  0  0  0  0  0  0  0  0  0
  189.2870  176.5890  139.0980 C   0  0  0  0  0  0  0  0  0  0  0  0
  191.9880  178.0940  142.4330 C   0  0  0  0  0  2  0  0  0  0  0  0
  187.3510  177.4110  145.0100 C   0  0  2  0  0  0  0  0  0  0  0  0
  188.6590  176.9010  145.3930 C   0  0  2  0  0  3  0  0  0  0  0  0
  188.9130  177.6570  143.0440 C   0  0  0  0  0  0  0  0  0  0  0  0
  189.4620  177.7720  141.8180 C   0  0  0  0  0  0  0  0  0  0  0  0
  188.2120  178.2260  145.8910 N   0  0  0  0  0  0  0  0  0  0  0  0
  190.8750  177.8230  144.6200 C   0  0  0  0  0  0  0  0  0  0  0  0
  187.8310  178.0000  147.5810 Cl  0  0  0  0  0  0  0  0  0  0  0  0
  191.2850  176.7860  140.5620 N   0  0  0  0  0  0  0  0  0  0  0  0
  188.6300  177.8440  139.5330 C   0  0  0  0  0  0  0  0  0  0  0  0
  191.4970  178.8080  143.6850 C   0  0  0  0  0  2  0  0  0  0  0  0
  190.8990  177.5050  141.5700 C   0  0  0  0  0  0  0  0  0  0  0  0
  190.4720  176.1570  139.5630 C   0  0  0  0  0  3  0  0  0  0  0  0
  189.6350  177.0590  144.2220 C   0  0  1  0  0  3  0  0  0  0  0  0
  187.1930  178.0590  143.3270 S   0  0  0  0  0  0  0  0  0  0  0  0
  191.4270  177.5820  145.6790 O   0  0  0  0  0  0  0  0  0  0  0  0
  187.6820  178.5060  138.5890 C   0  0  0  0  0  2  0  0  0  0  0  0
  186.4810  178.7860  139.2440 O   0  0  0  0  0  0  0  0  0  0  0  0
  185.4870  178.3580  138.3630 C   0  0  0  0  0  2  0  0  0  0  0  0
  183.6640  178.1270  139.8670 O   0  0  0  0  0  1  0  0  0  0  0  0
  184.1410  178.8950  138.8080 C   0  0  0  0  0  3  0  0  0  0  0  0
  184.2760  180.2210  139.2210 O   0  0  0  0  0  1  0  0  0  0  0  0
  188.6300  175.8460  138.1050 O   0  0  0  0  0  0  0  0  0  0  0  0
  189.2130  175.4870  136.8560 C   0  0  1  0  0  3  0  0  0  0  0  0
  190.0870  176.6310  136.3490 C   0  0  0  0  0  2  0  0  0  0  0  0
  191.8380  175.0560  135.5550 C   0  0  0  0  0  2  0  0  0  0  0  0
  189.9870  174.1960  136.9930 C   0  0  0  0  0  3  0  0  0  0  0  0
  190.8770  176.1650  135.1340 C   0  0  0  0  0  2  0  0  0  0  0  0
  191.1530  173.9850  136.3640 C   0  0  0  0  0  3  0  0  0  0  0  0
  2  8  1  0  0  0  0
  3 13  1  0  0  0  0
  3 16  2  0  0  0  0
  4 14  1  0  0  0  0
  5  6  1  0  0  0  0
  5  1  1  1  0  0  0
  5  9  1  0  0  0  0
  6  9  1  1  0  0  0
  7 18  1  0  0  0  0
  8  7  2  0  0  0  0
  9 11  1  0  0  0  0
 10 19  2  0  0  0  0
 12 15  2  0  0  0  0
 13  2  2  0  0  0  0
 14 10  1  0  0  0  0
 15  8  1  0  0  0  0
 15  4  1  0  0  0  0
 16 12  1  0  0  0  0
 17  7  1  6  0  0  0
 17 10  1  0  0  0  0
 17  6  1  0  0  0  0
 18  5  1  0  0  0  0
 20 21  1  0  0  0  0
 20 13  1  0  0  0  0
 22 24  1  0  0  0  0
 22 21  1  0  0  0  0
 24 25  1  0  0  0  0
 24 23  1  0  0  0  0
 26  3  1  0  0  0  0
 27 30  1  0  0  0  0
 27 26  1  1  0  0  0
 28 27  1  0  0  0  0
 29 32  1  0  0  0  0
 31 29  1  0  0  0  0
 31 28  1  0  0  0  0
 32 30  2  0  0  0  0
M  END
>  <MODEL>
6

>  <REMARK>
 VINA RESULT:      -6.7      2.299      2.954
  Name = 
  6 active torsions:
  status: ('A' for Active; 'I' for Inactive)
    1  A    between atoms: C_2  and  O_28
    2  A    between atoms: C_3  and  O_14
    3  A    between atoms: C_3  and  C_23
    4  A    between atoms: C_5  and  O_28
    5  A    between atoms: O_14  and  C_16
    6  A    between atoms: C_16  and  C_24
                            x       y       z     vdW  Elec       q    Type
                         _______ _______ _______ _____ _____    ______ ____

>  <TORSDO>
F 6

$$$$
=
 OpenBabel10232408203D

 32 36  0  0  1  0  0  0  0  0999 V2000
  186.7220  179.8010  136.5960 O   0  0  0  0  0  1  0  0  0  0  0  0
  188.5720  176.8540  141.0330 N   0  0  0  0  0  0  0  0  0  0  0  0
  190.0490  177.8820  142.6980 C   0  0  0  0  0  0  0  0  0  0  0  0
  191.4500  175.6940  138.9660 C   0  0  0  0  0  2  0  0  0  0  0  0
  187.4770  178.7090  137.0340 C   0  0  2  0  0  0  0  0  0  0  0  0
  188.8350  178.6030  136.5230 C   0  0  2  0  0  3  0  0  0  0  0  0
  188.8970  177.5560  138.7710 C   0  0  2  0  0  3  0  0  0  0  0  0
  189.4270  177.0650  139.9090 C   0  0  0  0  0  0  0  0  0  0  0  0
  187.7810  177.6950  136.0050 N   0  0  0  0  0  0  0  0  0  0  0  0
  190.4190  176.6890  136.9560 C   0  0  0  0  0  0  0  0  0  0  0  0
  187.4130  178.2590  134.3920 Cl  0  0  0  0  0  0  0  0  0  0  0  0
  191.5960  176.9590  140.9860 N   0  0  0  0  0  0  0  0  0  0  0  0
  188.8480  177.1250  142.2710 C   0  0  1  0  0  3  0  0  0  0  0  0
  190.5820  175.4300  137.7420 C   0  0  0  0  0  2  0  0  0  0  0  0
  190.8380  176.6150  139.9920 C   0  0  0  0  0  0  0  0  0  0  0  0
  191.2560  177.7730  142.1160 C   0  0  0  0  0  3  0  0  0  0  0  0
  189.7160  177.8850  137.5510 C   0  0  1  0  0  3  0  0  0  0  0  0
  187.1720  178.0200  138.6810 S   0  0  0  0  0  0  0  0  0  0  0  0
  190.9300  176.7680  135.8520 O   0  0  0  0  0  0  0  0  0  0  0  0
  187.7820  176.8690  143.2840 C   0  0  0  0  0  2  0  0  0  0  0  0
  186.7590  177.8080  143.1410 O   0  0  0  0  0  0  0  0  0  0  0  0
  186.1140  177.8230  144.3790 C   0  0  0  0  0  2  0  0  0  0  0  0
  183.9690  178.3820  143.5240 O   0  0  0  0  0  1  0  0  0  0  0  0
  184.9880  178.8370  144.3580 C   0  0  0  0  0  3  0  0  0  0  0  0
  184.4860  179.0110  145.6480 O   0  0  0  0  0  1  0  0  0  0  0  0
  189.8980  178.7260  143.8090 O   0  0  0  0  0  0  0  0  0  0  0  0
  190.4260  178.4490  145.1020 C   0  0  1  0  0  3  0  0  0  0  0  0
  189.3000  178.0080  146.0340 C   0  0  0  0  0  2  0  0  0  0  0  0
  190.7270  176.2560  147.0690 C   0  0  0  0  0  2  0  0  0  0  0  0
  191.5260  177.4150  145.0080 C   0  0  0  0  0  3  0  0  0  0  0  0
  189.8920  177.5040  147.3430 C   0  0  0  0  0  2  0  0  0  0  0  0
  191.6890  176.4520  145.9260 C   0  0  0  0  0  3  0  0  0  0  0  0
  2 13  1  0  0  0  0
  3 26  1  0  0  0  0
  4 15  1  0  0  0  0
  5  1  1  6  0  0  0
  5 18  1  0  0  0  0
  6  9  1  6  0  0  0
  6  5  1  0  0  0  0
  6 17  1  0  0  0  0
  7 18  1  1  0  0  0
  7  8  1  0  0  0  0
  8 15  1  0  0  0  0
  8  2  2  0  0  0  0
  9  5  1  0  0  0  0
 10 14  1  0  0  0  0
 11  9  1  0  0  0  0
 12 16  1  0  0  0  0
 13  3  1  0  0  0  0
 13 20  1  6  0  0  0
 14  4  1  0  0  0  0
 15 12  2  0  0  0  0
 16  3  2  0  0  0  0
 17 10  1  6  0  0  0
 17  7  1  0  0  0  0
 19 10  2  0  0  0  0
 21 20  1  0  0  0  0
 21 22  1  0  0  0  0
 23 24  1  0  0  0  0
 24 22  1  0  0  0  0
 24 25  1  0  0  0  0
 27 26  1  6  0  0  0
 27 28  1  0  0  0  0
 28 31  1  0  0  0  0
 29 31  1  0  0  0  0
 30 27  1  0  0  0  0
 30 32  2  0  0  0  0
 32 29  1  0  0  0  0
M  END
>  <MODEL>
7

>  <REMARK>
 VINA RESULT:      -6.3      3.786      7.278
  Name = 
  6 active torsions:
  status: ('A' for Active; 'I' for Inactive)
    1  A    between atoms: C_2  and  O_28
    2  A    between atoms: C_3  and  O_14
    3  A    between atoms: C_3  and  C_23
    4  A    between atoms: C_5  and  O_28
    5  A    between atoms: O_14  and  C_16
    6  A    between atoms: C_16  and  C_24
                            x       y       z     vdW  Elec       q    Type
                         _______ _______ _______ _____ _____    ______ ____

>  <TORSDO>
F 6

$$$$
=
 OpenBabel10232408203D

 32 36  0  0  1  0  0  0  0  0999 V2000
  183.0710  174.9510  137.3540 O   0  0  0  0  0  1  0  0  0  0  0  0
  185.5240  178.6740  140.8060 N   0  0  0  0  0  0  0  0  0  0  0  0
  186.6540  177.9360  142.8520 C   0  0  0  0  0  0  0  0  0  0  0  0
  182.2620  179.0770  142.5650 C   0  0  0  0  0  2  0  0  0  0  0  0
  182.8870  176.0470  138.2030 C   0  0  2  0  0  0  0  0  0  0  0  0
  181.8660  175.9170  139.2310 C   0  0  2  0  0  3  0  0  0  0  0  0
  183.5690  177.4450  140.1890 C   0  0  2  0  0  3  0  0  0  0  0  0
  184.2410  178.1380  141.1300 C   0  0  0  0  0  0  0  0  0  0  0  0
  181.6080  176.7660  138.0420 N   0  0  0  0  0  0  0  0  0  0  0  0
  181.1440  177.7370  140.8190 C   0  0  0  0  0  0  0  0  0  0  0  0
  180.4700  175.8790  137.0560 Cl  0  0  0  0  0  0  0  0  0  0  0  0
  184.2980  178.3050  143.5470 N   0  0  0  0  0  0  0  0  0  0  0  0
  186.5730  178.6740  141.5690 C   0  0  1  0  0  3  0  0  0  0  0  0
  181.4650  179.1250  141.2680 C   0  0  0  0  0  2  0  0  0  0  0  0
  183.6390  178.4740  142.4430 C   0  0  0  0  0  0  0  0  0  0  0  0
  185.6310  177.8060  143.7130 C   0  0  0  0  0  3  0  0  0  0  0  0
  182.2450  176.7750  140.4430 C   0  0  1  0  0  3  0  0  0  0  0  0
  184.2940  177.1190  138.5870 S   0  0  0  0  0  0  0  0  0  0  0  0
  179.9850  177.3630  140.8360 O   0  0  0  0  0  0  0  0  0  0  0  0
  187.8310  179.2460  141.0050 C   0  0  0  0  0  2  0  0  0  0  0  0
  187.9850  178.8350  139.6800 O   0  0  0  0  0  0  0  0  0  0  0  0
  188.8910  177.7740  139.7390 C   0  0  0  0  0  2  0  0  0  0  0  0
  189.3250  176.2940  137.9330 O   0  0  0  0  0  1  0  0  0  0  0  0
  189.5540  177.5900  138.3890 C   0  0  0  0  0  3  0  0  0  0  0  0
  189.0240  178.5020  137.4760 O   0  0  0  0  0  1  0  0  0  0  0  0
  187.9020  177.3870  143.1840 O   0  0  0  0  0  0  0  0  0  0  0  0
  188.7170  177.8430  144.2600 C   0  0  1  0  0  3  0  0  0  0  0  0
  188.2300  177.2290  145.5700 C   0  0  0  0  0  2  0  0  0  0  0  0
  190.5570  176.8610  146.3610 C   0  0  0  0  0  2  0  0  0  0  0  0
  190.1700  177.5260  143.9870 C   0  0  0  0  0  3  0  0  0  0  0  0
  189.2280  177.5410  146.6770 C   0  0  0  0  0  2  0  0  0  0  0  0
  191.0130  177.1270  144.9500 C   0  0  0  0  0  3  0  0  0  0  0  0
  2  8  2  0  0  0  0
  2 13  1  0  0  0  0
  3 26  1  0  0  0  0
  3 16  2  0  0  0  0
  5  1  1  6  0  0  0
  5 18  1  0  0  0  0
  5  6  1  0  0  0  0
  6  9  1  6  0  0  0
  6 17  1  0  0  0  0
  7 18  1  1  0  0  0
  7 17  1  0  0  0  0
  7  8  1  0  0  0  0
  8 15  1  0  0  0  0
  9  5  1  0  0  0  0
 10 19  2  0  0  0  0
 10 14  1  0  0  0  0
 11  9  1  0  0  0  0
 12 16  1  0  0  0  0
 13 20  1  6  0  0  0
 13  3  1  0  0  0  0
 14  4  1  0  0  0  0
 15  4  1  0  0  0  0
 15 12  2  0  0  0  0
 17 10  1  6  0  0  0
 21 22  1  0  0  0  0
 21 20  1  0  0  0  0
 23 24  1  0  0  0  0
 24 22  1  0  0  0  0
 25 24  1  0  0  0  0
 27 26  1  6  0  0  0
 27 28  1  0  0  0  0
 28 31  1  0  0  0  0
 29 31  1  0  0  0  0
 30 27  1  0  0  0  0
 30 32  2  0  0  0  0
 32 29  1  0  0  0  0
M  END
>  <MODEL>
8

>  <REMARK>
 VINA RESULT:      -6.3      3.991      8.244
  Name = 
  6 active torsions:
  status: ('A' for Active; 'I' for Inactive)
    1  A    between atoms: C_2  and  O_28
    2  A    between atoms: C_3  and  O_14
    3  A    between atoms: C_3  and  C_23
    4  A    between atoms: C_5  and  O_28
    5  A    between atoms: O_14  and  C_16
    6  A    between atoms: C_16  and  C_24
                            x       y       z     vdW  Elec       q    Type
                         _______ _______ _______ _____ _____    ______ ____

>  <TORSDO>
F 6

$$$$
=
 OpenBabel10232408203D

 32 36  0  0  1  0  0  0  0  0999 V2000
  187.0310  178.6790  142.0090 O   0  0  0  0  0  1  0  0  0  0  0  0
  181.8520  178.3810  139.8000 N   0  0  0  0  0  0  0  0  0  0  0  0
  180.8010  180.3520  138.7910 C   0  0  0  0  0  0  0  0  0  0  0  0
  180.4540  179.1630  143.1660 C   0  0  0  0  0  2  0  0  0  0  0  0
  185.6740  178.4450  142.2520 C   0  0  2  0  0  0  0  0  0  0  0  0
  185.0620  179.2020  143.3340 C   0  0  2  0  0  3  0  0  0  0  0  0
  183.2370  178.7930  141.7040 C   0  0  0  0  0  0  0  0  0  0  0  0
  182.0440  178.9480  141.0960 C   0  0  0  0  0  0  0  0  0  0  0  0
  185.3670  177.7620  143.5250 N   0  0  0  0  0  0  0  0  0  0  0  0
  182.6980  178.9190  144.1650 C   0  0  0  0  0  0  0  0  0  0  0  0
  186.7490  177.7020  144.5940 Cl  0  0  0  0  0  0  0  0  0  0  0  0
  180.1590  180.4690  141.1880 N   0  0  0  0  0  0  0  0  0  0  0  0
  181.2420  178.9370  138.7990 C   0  0  0  0  0  0  0  0  0  0  0  0
  181.4100  178.2180  143.8830 C   0  0  0  0  0  2  0  0  0  0  0  0
  180.8850  179.5720  141.7790 C   0  0  0  0  0  0  0  0  0  0  0  0
  180.3110  180.9960  139.8640 C   0  0  0  0  0  3  0  0  0  0  0  0
  183.5730  179.4090  143.0360 C   0  0  1  0  0  3  0  0  0  0  0  0
  184.5940  177.9700  140.8800 S   0  0  0  0  0  0  0  0  0  0  0  0
  182.9990  179.1640  145.3200 O   0  0  0  0  0  0  0  0  0  0  0  0
  181.2020  178.1800  137.5130 C   0  0  0  0  0  2  0  0  0  0  0  0
  182.4380  178.2750  136.8710 O   0  0  0  0  0  0  0  0  0  0  0  0
  182.6760  176.9950  136.3660 C   0  0  0  0  0  2  0  0  0  0  0  0
  184.7620  177.4660  137.4000 O   0  0  0  0  0  1  0  0  0  0  0  0
  183.9340  176.4240  136.9900 C   0  0  0  0  0  3  0  0  0  0  0  0
  183.5980  175.6380  138.0920 O   0  0  0  0  0  1  0  0  0  0  0  0
  180.8690  181.0250  137.5610 O   0  0  0  0  0  0  0  0  0  0  0  0
  180.4660  182.3770  137.3650 C   0  0  1  0  0  3  0  0  0  0  0  0
  181.6190  183.3130  137.7180 C   0  0  0  0  0  2  0  0  0  0  0  0
  181.1230  184.7920  135.7820 C   0  0  0  0  0  2  0  0  0  0  0  0
  179.9820  182.5780  135.9470 C   0  0  0  0  0  3  0  0  0  0  0  0
  181.2640  184.7340  137.3010 C   0  0  0  0  0  2  0  0  0  0  0  0
  180.2410  183.6940  135.2490 C   0  0  0  0  0  3  0  0  0  0  0  0
  2  8  1  0  0  0  0
  3 13  1  0  0  0  0
  3 16  2  0  0  0  0
  4 14  1  0  0  0  0
  5  1  1  6  0  0  0
  5  6  1  0  0  0  0
  5  9  1  0  0  0  0
  6  9  1  1  0  0  0
  8  7  2  0  0  0  0
  8 15  1  0  0  0  0
  9 11  1  0  0  0  0
 10 19  2  0  0  0  0
 12 15  2  0  0  0  0
 13  2  2  0  0  0  0
 14 10  1  0  0  0  0
 15  4  1  0  0  0  0
 16 12  1  0  0  0  0
 17  7  1  6  0  0  0
 17  6  1  0  0  0  0
 17 10  1  0  0  0  0
 18  7  1  0  0  0  0
 18  5  1  0  0  0  0
 20 13  1  0  0  0  0
 21 20  1  0  0  0  0
 22 21  1  0  0  0  0
 22 24  1  0  0  0  0
 24 23  1  0  0  0  0
 24 25  1  0  0  0  0
 26  3  1  0  0  0  0
 27 26  1  6  0  0  0
 27 28  1  0  0  0  0
 29 31  1  0  0  0  0
 30 27  1  0  0  0  0
 31 28  1  0  0  0  0
 32 29  1  0  0  0  0
 32 30  2  0  0  0  0
M  END
>  <MODEL>
9

>  <REMARK>
 VINA RESULT:      -6.1      4.694      8.247
  Name = 
  6 active torsions:
  status: ('A' for Active; 'I' for Inactive)
    1  A    between atoms: C_2  and  O_28
    2  A    between atoms: C_3  and  O_14
    3  A    between atoms: C_3  and  C_23
    4  A    between atoms: C_5  and  O_28
    5  A    between atoms: O_14  and  C_16
    6  A    between atoms: C_16  and  C_24
                            x       y       z     vdW  Elec       q    Type
                         _______ _______ _______ _____ _____    ______ ____

>  <TORSDO>
F 6

$$$$
