=
 OpenBabel10232410493D

 35 39  0  0  1  0  0  0  0  0999 V2000
  186.3300  177.9330  142.1470 S   0  0  0  0  0  0  0  0  0  0  0  0
  191.2720  177.0730  148.0630 O   0  0  0  0  0  0  0  0  0  0  0  0
  187.4890  177.5420  144.5820 N   0  0  0  0  0  0  0  0  0  0  0  0
  190.6010  176.5510  142.3710 C   0  0  0  0  0  3  0  0  0  0  0  0
  189.5930  177.3740  141.6640 C   0  0  0  0  0  0  0  0  0  0  0  0
  188.9680  178.4770  142.3340 N   0  0  0  0  0  2  0  0  0  0  0  0
  186.6320  178.2680  146.6710 C   0  0  0  0  0  2  0  0  0  0  0  0
  190.0670  177.0380  146.0240 C   0  0  0  0  0  0  0  0  0  0  0  0
  185.4130  178.6980  144.6790 C   0  0  0  0  0  0  0  0  0  0  0  0
  191.1990  176.6480  146.8790 C   0  0  0  0  0  0  0  0  0  0  0  0
  190.3500  177.5530  144.6360 C   0  0  0  0  0  2  0  0  0  0  0  0
  185.5430  178.7730  146.0330 N   0  0  0  0  0  0  0  0  0  0  0  0
  188.8610  177.1820  146.5960 C   0  0  0  0  0  3  0  0  0  0  0  0
  192.0080  174.9420  145.2270 C   0  0  0  0  0  2  0  0  0  0  0  0
  187.7180  179.0930  141.8960 C   0  0  0  0  0  2  0  0  0  0  0  0
  190.9520  176.5670  143.6640 C   0  0  0  0  0  0  0  0  0  0  0  0
  192.2230  175.7910  146.3850 N   0  0  0  0  0  2  0  0  0  0  0  0
  187.6410  177.6570  145.9250 C   0  0  0  0  0  0  0  0  0  0  0  0
  186.4110  178.0550  143.9350 C   0  0  1  0  0  3  0  0  0  0  0  0
  189.2600  177.1240  140.3850 C   0  0  0  0  0  3  0  0  0  0  0  0
  191.9910  175.7050  144.0300 O   0  0  0  0  0  0  0  0  0  0  0  0
  189.7460  176.1020  139.5520 O   0  0  0  0  0  0  0  0  0  0  0  0
  190.6270  176.2810  138.4530 C   0  0  0  0  0  1  0  0  0  0  0  0
  184.2660  179.2550  144.0270 N   0  0  0  0  0  2  0  0  0  0  0  0
  182.9040  178.8480  144.3390 C   0  0  0  0  0  2  0  0  0  0  0  0
  182.0500  178.8890  143.0870 C   0  0  0  0  0  2  0  0  0  0  0  0
  182.9040  178.8060  141.9160 N   0  0  0  0  0  2  0  0  0  0  0  0
  181.2250  179.0030  138.5620 C   0  0  0  0  0  2  0  0  0  0  0  0
  182.1020  178.2330  140.8480 C   0  0  1  0  0  3  0  0  0  0  0  0
  183.9470  177.2410  137.7420 C   0  0  0  0  0  1  0  0  0  0  0  0
  182.3030  179.9980  138.9650 C   0  0  1  0  0  3  0  0  0  0  0  0
  183.9420  177.9330  139.0900 C   0  0  2  0  0  3  0  0  0  0  0  0
  181.4190  179.3540  140.0350 C   0  0  1  0  0  3  0  0  0  0  0  0
  182.9370  177.2520  140.0190 C   0  0  0  0  0  2  0  0  0  0  0  0
  183.7450  179.4470  138.9120 C   0  0  0  0  0  2  0  0  0  0  0  0
  3 18  2  0  0  0  0
  4 16  2  0  0  0  0
  5  6  1  0  0  0  0
  5  4  1  0  0  0  0
  8 13  2  0  0  0  0
  8 10  1  0  0  0  0
  9 12  2  0  0  0  0
 10  2  2  0  0  0  0
 11  8  1  0  0  0  0
 12  7  1  0  0  0  0
 14 17  1  0  0  0  0
 15  1  1  0  0  0  0
 15  6  1  0  0  0  0
 16 21  1  0  0  0  0
 16 11  1  0  0  0  0
 17 10  1  0  0  0  0
 18 13  1  0  0  0  0
 18  7  1  0  0  0  0
 19  1  1  6  0  0  0
 19  3  1  0  0  0  0
 19  9  1  0  0  0  0
 20  5  2  0  0  0  0
 21 14  1  0  0  0  0
 22 20  1  0  0  0  0
 23 22  1  0  0  0  0
 24 25  1  0  0  0  0
 24  9  1  0  0  0  0
 26 25  1  0  0  0  0
 27 26  1  0  0  0  0
 29 27  1  1  0  0  0
 31 28  1  6  0  0  0
 31 33  1  0  0  0  0
 32 30  1  6  0  0  0
 32 34  1  0  0  0  0
 33 28  1  6  0  0  0
 33 29  1  0  0  0  0
 34 29  1  0  0  0  0
 35 31  1  0  0  0  0
 35 32  1  0  0  0  0
M  END
>  <MODEL>
1

>  <REMARK>
 VINA RESULT:      -8.4      0.000      0.000
  Name = 
  6 active torsions:
  status: ('A' for Active; 'I' for Inactive)
    1  A    between atoms: O_1  and  C_33
    2  A    between atoms: C_8  and  N_27
    3  A    between atoms: C_13  and  C_16
    4  A    between atoms: C_13  and  N_31
    5  A    between atoms: C_15  and  N_31
    6  A    between atoms: C_16  and  N_27
                            x       y       z     vdW  Elec       q    Type
                         _______ _______ _______ _____ _____    ______ ____

>  <TORSDO>
F 6

$$$$
=
 OpenBabel10232410493D

 35 39  0  0  1  0  0  0  0  0999 V2000
  190.5790  176.8620  142.1390 S   0  0  0  0  0  0  0  0  0  0  0  0
  183.9550  179.6040  145.1000 O   0  0  0  0  0  0  0  0  0  0  0  0
  188.0020  177.6370  142.5700 N   0  0  0  0  0  0  0  0  0  0  0  0
  189.0620  177.2670  146.3510 C   0  0  0  0  0  3  0  0  0  0  0  0
  190.2000  177.4240  145.4160 C   0  0  0  0  0  0  0  0  0  0  0  0
  190.1170  178.3630  144.3350 N   0  0  0  0  0  2  0  0  0  0  0  0
  186.5330  178.5650  140.9560 C   0  0  0  0  0  2  0  0  0  0  0  0
  186.0220  178.5480  144.6260 C   0  0  0  0  0  0  0  0  0  0  0  0
  188.7320  177.9280  140.3260 C   0  0  0  0  0  0  0  0  0  0  0  0
  184.8870  178.8620  145.5090 C   0  0  0  0  0  0  0  0  0  0  0  0
  187.4210  178.7100  145.1590 C   0  0  0  0  0  2  0  0  0  0  0  0
  187.5040  178.4300  140.0140 N   0  0  0  0  0  0  0  0  0  0  0  0
  185.7800  178.3980  143.3140 C   0  0  0  0  0  3  0  0  0  0  0  0
  185.6040  177.1750  147.2220 C   0  0  0  0  0  2  0  0  0  0  0  0
  190.9790  178.3260  143.1560 C   0  0  0  0  0  2  0  0  0  0  0  0
  187.8270  177.7800  146.2760 C   0  0  0  0  0  0  0  0  0  0  0  0
  184.8260  178.3360  146.8310 N   0  0  0  0  0  2  0  0  0  0  0  0
  186.7950  178.1790  142.2720 C   0  0  0  0  0  0  0  0  0  0  0  0
  188.9830  177.5120  141.6400 C   0  0  1  0  0  3  0  0  0  0  0  0
  191.3320  176.7140  145.5680 C   0  0  0  0  0  3  0  0  0  0  0  0
  186.9800  177.5010  147.3540 O   0  0  0  0  0  0  0  0  0  0  0  0
  191.6190  175.7490  146.5480 O   0  0  0  0  0  0  0  0  0  0  0  0
  192.2960  175.9910  147.7720 C   0  0  0  0  0  1  0  0  0  0  0  0
  189.7470  177.8150  139.3220 N   0  0  0  0  0  2  0  0  0  0  0  0
  189.4840  177.2940  137.9880 C   0  0  0  0  0  2  0  0  0  0  0  0
  189.6200  175.7840  137.9840 C   0  0  0  0  0  2  0  0  0  0  0  0
  191.0090  175.4230  138.2080 N   0  0  0  0  0  2  0  0  0  0  0  0
  194.1990  175.9540  136.2990 C   0  0  0  0  0  2  0  0  0  0  0  0
  191.7380  175.7790  137.0020 C   0  0  1  0  0  3  0  0  0  0  0  0
  193.3210  172.9470  135.1280 C   0  0  0  0  0  1  0  0  0  0  0  0
  194.1800  175.1690  137.6020 C   0  0  1  0  0  3  0  0  0  0  0  0
  192.6040  173.4530  136.3640 C   0  0  2  0  0  3  0  0  0  0  0  0
  193.1530  176.2770  137.3620 C   0  0  1  0  0  3  0  0  0  0  0  0
  191.6960  174.6270  135.9930 C   0  0  0  0  0  2  0  0  0  0  0  0
  193.6130  173.7380  137.4880 C   0  0  0  0  0  2  0  0  0  0  0  0
  1 15  1  0  0  0  0
  2 10  2  0  0  0  0
  5 20  2  0  0  0  0
  5  4  1  0  0  0  0
  6  5  1  0  0  0  0
  7 18  1  0  0  0  0
  8 11  1  0  0  0  0
  8 10  1  0  0  0  0
 10 17  1  0  0  0  0
 11 16  1  0  0  0  0
 12  9  2  0  0  0  0
 12  7  1  0  0  0  0
 13  8  2  0  0  0  0
 14 21  1  0  0  0  0
 15  6  1  0  0  0  0
 16  4  2  0  0  0  0
 16 21  1  0  0  0  0
 17 14  1  0  0  0  0
 18  3  2  0  0  0  0
 18 13  1  0  0  0  0
 19  9  1  1  0  0  0
 19  1  1  0  0  0  0
 19  3  1  0  0  0  0
 20 22  1  0  0  0  0
 22 23  1  0  0  0  0
 24  9  1  0  0  0  0
 25 24  1  0  0  0  0
 26 25  1  0  0  0  0
 26 27  1  0  0  0  0
 29 33  1  0  0  0  0
 29 27  1  1  0  0  0
 31 28  1  6  0  0  0
 32 30  1  6  0  0  0
 32 35  1  0  0  0  0
 33 28  1  6  0  0  0
 33 31  1  0  0  0  0
 34 32  1  0  0  0  0
 34 29  1  0  0  0  0
 35 31  1  0  0  0  0
M  END
>  <MODEL>
2

>  <REMARK>
 VINA RESULT:      -7.8      3.130      7.753
  Name = 
  6 active torsions:
  status: ('A' for Active; 'I' for Inactive)
    1  A    between atoms: O_1  and  C_33
    2  A    between atoms: C_8  and  N_27
    3  A    between atoms: C_13  and  C_16
    4  A    between atoms: C_13  and  N_31
    5  A    between atoms: C_15  and  N_31
    6  A    between atoms: C_16  and  N_27
                            x       y       z     vdW  Elec       q    Type
                         _______ _______ _______ _____ _____    ______ ____

>  <TORSDO>
F 6

$$$$
=
 OpenBabel10232410493D

 35 39  0  0  1  0  0  0  0  0999 V2000
  187.1450  177.6940  142.2750 S   0  0  0  0  0  0  0  0  0  0  0  0
  189.2100  177.5500  134.8000 O   0  0  0  0  0  0  0  0  0  0  0  0
  188.4090  177.2990  139.8940 N   0  0  0  0  0  0  0  0  0  0  0  0
  184.7780  177.8510  138.4570 C   0  0  0  0  0  3  0  0  0  0  0  0
  184.9770  178.3890  139.8230 C   0  0  0  0  0  0  0  0  0  0  0  0
  186.1940  179.0700  140.1560 N   0  0  0  0  0  2  0  0  0  0  0  0
  190.7540  177.3020  139.5380 C   0  0  0  0  0  2  0  0  0  0  0  0
  188.1440  177.4660  136.9140 C   0  0  0  0  0  0  0  0  0  0  0  0
  189.8890  177.6330  141.7250 C   0  0  0  0  0  0  0  0  0  0  0  0
  188.1490  177.3440  135.4470 C   0  0  0  0  0  0  0  0  0  0  0  0
  187.0620  178.2840  137.5690 C   0  0  0  0  0  2  0  0  0  0  0  0
  190.9420  177.5060  140.8700 N   0  0  0  0  0  0  0  0  0  0  0  0
  189.2410  177.0810  137.5850 C   0  0  0  0  0  3  0  0  0  0  0  0
  185.8490  176.3430  135.4070 C   0  0  0  0  0  2  0  0  0  0  0  0
  186.6580  179.2860  141.5250 C   0  0  0  0  0  2  0  0  0  0  0  0
  185.6530  177.7560  137.4480 C   0  0  0  0  0  0  0  0  0  0  0  0
  186.9630  176.9940  134.7420 N   0  0  0  0  0  2  0  0  0  0  0  0
  189.4560  177.2180  139.0340 C   0  0  0  0  0  0  0  0  0  0  0  0
  188.5860  177.5170  141.2220 C   0  0  1  0  0  3  0  0  0  0  0  0
  184.0250  178.2700  140.7660 C   0  0  0  0  0  3  0  0  0  0  0  0
  185.1510  177.2540  136.2430 O   0  0  0  0  0  0  0  0  0  0  0  0
  182.7720  177.6440  140.6520 O   0  0  0  0  0  0  0  0  0  0  0  0
  181.5170  178.3070  140.6220 C   0  0  0  0  0  1  0  0  0  0  0  0
  190.1100  177.8670  143.1200 N   0  0  0  0  0  2  0  0  0  0  0  0
  191.0160  177.0600  143.9230 C   0  0  0  0  0  2  0  0  0  0  0  0
  190.8530  177.4010  145.3920 C   0  0  0  0  0  2  0  0  0  0  0  0
  189.5790  178.0660  145.5950 N   0  0  0  0  0  2  0  0  0  0  0  0
  187.6810  176.8580  148.6020 C   0  0  0  0  0  2  0  0  0  0  0  0
  188.7070  177.1150  146.2640 C   0  0  1  0  0  3  0  0  0  0  0  0
  185.1810  178.2340  146.8570 C   0  0  0  0  0  1  0  0  0  0  0  0
  188.1900  178.2890  148.5120 C   0  0  1  0  0  3  0  0  0  0  0  0
  186.5970  178.5610  146.4260 C   0  0  2  0  0  3  0  0  0  0  0  0
  188.9360  177.1650  147.7890 C   0  0  1  0  0  3  0  0  0  0  0  0
  187.2540  177.3190  145.8220 C   0  0  0  0  0  2  0  0  0  0  0  0
  187.3710  179.2120  147.5830 C   0  0  0  0  0  2  0  0  0  0  0  0
  2 10  2  0  0  0  0
  4  5  1  0  0  0  0
  5  6  1  0  0  0  0
  5 20  2  0  0  0  0
  6 15  1  0  0  0  0
  7 12  1  0  0  0  0
  8 11  1  0  0  0  0
  8 13  2  0  0  0  0
  9 24  1  0  0  0  0
 10  8  1  0  0  0  0
 12  9  2  0  0  0  0
 13 18  1  0  0  0  0
 14 21  1  0  0  0  0
 15  1  1  0  0  0  0
 16 11  1  0  0  0  0
 16  4  2  0  0  0  0
 17 14  1  0  0  0  0
 17 10  1  0  0  0  0
 18  7  1  0  0  0  0
 18  3  2  0  0  0  0
 19  3  1  6  0  0  0
 19  9  1  0  0  0  0
 19  1  1  0  0  0  0
 21 16  1  0  0  0  0
 22 20  1  0  0  0  0
 23 22  1  0  0  0  0
 24 25  1  0  0  0  0
 25 26  1  0  0  0  0
 26 27  1  0  0  0  0
 29 27  1  6  0  0  0
 29 33  1  0  0  0  0
 31 35  1  6  0  0  0
 31 28  1  0  0  0  0
 32 30  1  1  0  0  0
 32 35  1  0  0  0  0
 33 31  1  0  0  0  0
 33 28  1  1  0  0  0
 34 29  1  0  0  0  0
 34 32  1  0  0  0  0
M  END
>  <MODEL>
3

>  <REMARK>
 VINA RESULT:      -7.8      3.337      8.527
  Name = 
  6 active torsions:
  status: ('A' for Active; 'I' for Inactive)
    1  A    between atoms: O_1  and  C_33
    2  A    between atoms: C_8  and  N_27
    3  A    between atoms: C_13  and  C_16
    4  A    between atoms: C_13  and  N_31
    5  A    between atoms: C_15  and  N_31
    6  A    between atoms: C_16  and  N_27
                            x       y       z     vdW  Elec       q    Type
                         _______ _______ _______ _____ _____    ______ ____

>  <TORSDO>
F 6

$$$$
=
 OpenBabel10232410493D

 35 39  0  0  1  0  0  0  0  0999 V2000
  188.4770  178.7070  142.1080 S   0  0  0  0  0  0  0  0  0  0  0  0
  185.8250  176.7390  135.0900 O   0  0  0  0  0  0  0  0  0  0  0  0
  187.0660  178.4810  139.7890 N   0  0  0  0  0  0  0  0  0  0  0  0
  190.4930  177.0740  138.4380 C   0  0  0  0  0  3  0  0  0  0  0  0
  190.3550  177.0210  139.9110 C   0  0  0  0  0  0  0  0  0  0  0  0
  189.1090  176.6300  140.5030 N   0  0  0  0  0  2  0  0  0  0  0  0
  184.7100  178.6480  139.5630 C   0  0  0  0  0  2  0  0  0  0  0  0
  187.0650  177.3550  137.0120 C   0  0  0  0  0  0  0  0  0  0  0  0
  185.7170  178.9210  141.6970 C   0  0  0  0  0  0  0  0  0  0  0  0
  186.9510  177.0100  135.5860 C   0  0  0  0  0  0  0  0  0  0  0  0
  188.1110  176.6600  137.8440 C   0  0  0  0  0  2  0  0  0  0  0  0
  184.6140  178.8980  140.8970 N   0  0  0  0  0  0  0  0  0  0  0  0
  186.0710  178.0600  137.5740 C   0  0  0  0  0  3  0  0  0  0  0  0
  189.3270  177.6630  135.1180 C   0  0  0  0  0  2  0  0  0  0  0  0
  188.7410  176.9130  141.8880 C   0  0  0  0  0  2  0  0  0  0  0  0
  189.5510  176.9510  137.4940 C   0  0  0  0  0  0  0  0  0  0  0  0
  188.1030  176.9750  134.7510 N   0  0  0  0  0  2  0  0  0  0  0  0
  185.9650  178.4130  138.9990 C   0  0  0  0  0  0  0  0  0  0  0  0
  186.9780  178.7150  141.1230 C   0  0  1  0  0  3  0  0  0  0  0  0
  191.3890  177.3140  140.7200 C   0  0  0  0  0  3  0  0  0  0  0  0
  189.9990  176.9840  136.1690 O   0  0  0  0  0  0  0  0  0  0  0  0
  192.6840  177.7180  140.3520 O   0  0  0  0  0  0  0  0  0  0  0  0
  193.7380  176.8520  139.9570 C   0  0  0  0  0  1  0  0  0  0  0  0
  185.5890  179.1650  143.1020 N   0  0  0  0  0  2  0  0  0  0  0  0
  185.0610  178.1780  144.0310 C   0  0  0  0  0  2  0  0  0  0  0  0
  185.7060  178.3490  145.3930 C   0  0  0  0  0  2  0  0  0  0  0  0
  186.9430  177.5910  145.4420 N   0  0  0  0  0  2  0  0  0  0  0  0
  188.9230  178.5380  148.4890 C   0  0  0  0  0  2  0  0  0  0  0  0
  187.9190  178.4180  146.1310 C   0  0  1  0  0  3  0  0  0  0  0  0
  191.2540  176.8440  146.7910 C   0  0  0  0  0  1  0  0  0  0  0  0
  188.2310  177.1870  148.3860 C   0  0  1  0  0  3  0  0  0  0  0  0
  189.8160  176.7070  146.3310 C   0  0  2  0  0  3  0  0  0  0  0  0
  187.6550  178.4000  147.6510 C   0  0  1  0  0  3  0  0  0  0  0  0
  189.3400  178.0250  145.7170 C   0  0  0  0  0  2  0  0  0  0  0  0
  188.9390  176.1640  147.4710 C   0  0  0  0  0  2  0  0  0  0  0  0
  2 10  2  0  0  0  0
  4  5  1  0  0  0  0
  5  6  1  0  0  0  0
  5 20  2  0  0  0  0
  6 15  1  0  0  0  0
  7 12  1  0  0  0  0
  8 13  2  0  0  0  0
  8 11  1  0  0  0  0
  9 24  1  0  0  0  0
 10  8  1  0  0  0  0
 12  9  2  0  0  0  0
 13 18  1  0  0  0  0
 14 21  1  0  0  0  0
 15  1  1  0  0  0  0
 16 11  1  0  0  0  0
 16  4  2  0  0  0  0
 17 14  1  0  0  0  0
 17 10  1  0  0  0  0
 18  7  1  0  0  0  0
 18  3  2  0  0  0  0
 19  3  1  1  0  0  0
 19  9  1  0  0  0  0
 19  1  1  0  0  0  0
 21 16  1  0  0  0  0
 22 20  1  0  0  0  0
 23 22  1  0  0  0  0
 24 25  1  0  0  0  0
 25 26  1  0  0  0  0
 26 27  1  0  0  0  0
 29 27  1  6  0  0  0
 29 33  1  0  0  0  0
 31 35  1  6  0  0  0
 31 28  1  0  0  0  0
 32 30  1  1  0  0  0
 32 35  1  0  0  0  0
 33 31  1  0  0  0  0
 33 28  1  1  0  0  0
 34 29  1  0  0  0  0
 34 32  1  0  0  0  0
M  END
>  <MODEL>
4

>  <REMARK>
 VINA RESULT:      -7.7      2.676      7.765
  Name = 
  6 active torsions:
  status: ('A' for Active; 'I' for Inactive)
    1  A    between atoms: O_1  and  C_33
    2  A    between atoms: C_8  and  N_27
    3  A    between atoms: C_13  and  C_16
    4  A    between atoms: C_13  and  N_31
    5  A    between atoms: C_15  and  N_31
    6  A    between atoms: C_16  and  N_27
                            x       y       z     vdW  Elec       q    Type
                         _______ _______ _______ _____ _____    ______ ____

>  <TORSDO>
F 6

$$$$
=
 OpenBabel10232410493D

 35 39  0  0  1  0  0  0  0  0999 V2000
  184.6560  179.1850  140.0440 S   0  0  0  0  0  0  0  0  0  0  0  0
  188.7860  177.0320  146.2450 O   0  0  0  0  0  0  0  0  0  0  0  0
  186.6300  178.6610  141.8470 N   0  0  0  0  0  0  0  0  0  0  0  0
  183.6300  178.8000  144.4020 C   0  0  0  0  0  3  0  0  0  0  0  0
  183.2200  178.5590  143.0000 C   0  0  0  0  0  0  0  0  0  0  0  0
  183.9800  177.6680  142.1720 N   0  0  0  0  0  2  0  0  0  0  0  0
  188.8320  177.9380  141.3400 C   0  0  0  0  0  3  0  0  0  0  0  0
  187.2290  177.8880  144.6790 C   0  0  0  0  0  0  0  0  0  0  0  0
  187.2940  178.3700  139.5820 C   0  0  0  0  0  0  0  0  0  0  0  0
  187.7130  177.6620  146.0510 C   0  0  0  0  0  0  0  0  0  0  0  0
  185.7930  177.5690  144.3560 C   0  0  0  0  0  2  0  0  0  0  0  0
  188.5330  178.0050  140.0150 N   0  0  0  0  0  0  0  0  0  0  0  0
  188.1370  178.1040  143.7150 C   0  0  0  0  0  3  0  0  0  0  0  0
  186.0030  179.2130  147.0340 C   0  0  0  0  0  2  0  0  0  0  0  0
  183.9140  177.6570  140.7120 C   0  0  0  0  0  2  0  0  0  0  0  0
  184.7460  178.4170  145.0370 C   0  0  0  0  0  0  0  0  0  0  0  0
  186.9810  178.1480  147.1710 N   0  0  0  0  0  2  0  0  0  0  0  0
  187.8500  178.2530  142.2800 C   0  0  0  0  0  0  0  0  0  0  0  0
  186.3190  178.7160  140.5270 C   0  0  0  0  0  0  0  0  0  0  0  0
  182.1260  179.1460  142.4810 C   0  0  0  0  0  3  0  0  0  0  0  0
  184.8250  178.7440  146.3940 O   0  0  0  0  0  0  0  0  0  0  0  0
  181.2500  180.0450  143.1120 O   0  0  0  0  0  0  0  0  0  0  0  0
  179.9840  180.4510  142.6130 C   0  0  0  0  0  1  0  0  0  0  0  0
  186.9960  178.4130  138.1820 N   0  0  0  0  0  2  0  0  0  0  0  0
  187.9910  178.7450  137.1730 C   0  0  0  0  0  2  0  0  0  0  0  0
  188.5910  177.4770  136.5980 C   0  0  0  0  0  2  0  0  0  0  0  0
  190.0070  177.4250  136.9170 N   0  0  0  0  0  2  0  0  0  0  0  0
  191.0210  173.8200  136.6300 C   0  0  0  0  0  2  0  0  0  0  0  0
  190.2630  176.1150  137.4920 C   0  0  1  0  0  3  0  0  0  0  0  0
  193.8610  175.1250  137.8210 C   0  0  0  0  0  1  0  0  0  0  0  0
  191.3270  174.8170  135.5220 C   0  0  1  0  0  3  0  0  0  0  0  0
  192.8180  176.0880  137.2910 C   0  0  2  0  0  3  0  0  0  0  0  0
  190.1020  175.0200  136.4170 C   0  0  1  0  0  3  0  0  0  0  0  0
  191.6080  176.1080  138.2260 C   0  0  0  0  0  2  0  0  0  0  0  0
  192.5000  175.7760  135.8200 C   0  0  0  0  0  2  0  0  0  0  0  0
  1 19  1  0  0  0  0
  1 15  1  0  0  0  0
  3 18  1  0  0  0  0
  4 16  2  0  0  0  0
  5  4  1  0  0  0  0
  6  5  1  0  0  0  0
  7 18  2  0  0  0  0
  8 10  1  0  0  0  0
  9 12  2  0  0  0  0
  9 19  1  0  0  0  0
 10  2  2  0  0  0  0
 10 17  1  0  0  0  0
 11  8  1  0  0  0  0
 11 16  1  0  0  0  0
 12  7  1  0  0  0  0
 13  8  2  0  0  0  0
 14 17  1  0  0  0  0
 15  6  1  0  0  0  0
 16 21  1  0  0  0  0
 18 13  1  0  0  0  0
 19  3  2  0  0  0  0
 20  5  2  0  0  0  0
 20 22  1  0  0  0  0
 21 14  1  0  0  0  0
 23 22  1  0  0  0  0
 24  9  1  0  0  0  0
 25 24  1  0  0  0  0
 26 27  1  0  0  0  0
 26 25  1  0  0  0  0
 29 27  1  6  0  0  0
 29 34  1  0  0  0  0
 31 35  1  1  0  0  0
 31 33  1  0  0  0  0
 31 28  1  0  0  0  0
 32 30  1  1  0  0  0
 32 34  1  0  0  0  0
 33 28  1  1  0  0  0
 33 29  1  0  0  0  0
 35 32  1  0  0  0  0
M  END
>  <MODEL>
5

>  <REMARK>
 VINA RESULT:      -7.7      3.153      7.481
  Name = 
  6 active torsions:
  status: ('A' for Active; 'I' for Inactive)
    1  A    between atoms: O_1  and  C_33
    2  A    between atoms: C_8  and  N_27
    3  A    between atoms: C_13  and  C_16
    4  A    between atoms: C_13  and  N_31
    5  A    between atoms: C_15  and  N_31
    6  A    between atoms: C_16  and  N_27
                            x       y       z     vdW  Elec       q    Type
                         _______ _______ _______ _____ _____    ______ ____

>  <TORSDO>
F 6

$$$$
=
 OpenBabel10232410493D

 35 39  0  0  1  0  0  0  0  0999 V2000
  184.7550  179.1920  140.1580 S   0  0  0  0  0  0  0  0  0  0  0  0
  188.8000  176.9650  146.3900 O   0  0  0  0  0  0  0  0  0  0  0  0
  186.7060  178.6360  141.9780 N   0  0  0  0  0  0  0  0  0  0  0  0
  183.6830  178.8030  144.5050 C   0  0  0  0  0  3  0  0  0  0  0  0
  183.2830  178.5720  143.0980 C   0  0  0  0  0  0  0  0  0  0  0  0
  184.0410  177.6760  142.2740 N   0  0  0  0  0  2  0  0  0  0  0  0
  188.9030  177.8890  141.4880 C   0  0  0  0  0  2  0  0  0  0  0  0
  187.2680  177.8470  144.8130 C   0  0  0  0  0  0  0  0  0  0  0  0
  187.3870  178.3460  139.7180 C   0  0  0  0  0  0  0  0  0  0  0  0
  187.7360  177.6090  146.1870 C   0  0  0  0  0  0  0  0  0  0  0  0
  185.8310  177.5460  144.4750 C   0  0  0  0  0  2  0  0  0  0  0  0
  188.6180  177.9630  140.1610 N   0  0  0  0  0  0  0  0  0  0  0  0
  188.1880  178.0550  143.8570 C   0  0  0  0  0  3  0  0  0  0  0  0
  186.0370  179.1770  147.1600 C   0  0  0  0  0  2  0  0  0  0  0  0
  183.9880  177.6700  140.8140 C   0  0  0  0  0  2  0  0  0  0  0  0
  184.7880  178.4050  145.1490 C   0  0  0  0  0  0  0  0  0  0  0  0
  187.0000  178.1000  147.3020 N   0  0  0  0  0  2  0  0  0  0  0  0
  187.9160  178.2120  142.4200 C   0  0  0  0  0  0  0  0  0  0  0  0
  186.4070  178.7000  140.6550 C   0  0  1  0  0  3  0  0  0  0  0  0
  182.2020  179.1750  142.5720 C   0  0  0  0  0  3  0  0  0  0  0  0
  184.8580  178.7260  146.5080 O   0  0  0  0  0  0  0  0  0  0  0  0
  181.3310  180.0830  143.1970 O   0  0  0  0  0  0  0  0  0  0  0  0
  179.9820  180.3240  142.8240 C   0  0  0  0  0  1  0  0  0  0  0  0
  187.1030  178.3970  138.3150 N   0  0  0  0  0  2  0  0  0  0  0  0
  188.1150  178.1660  137.2950 C   0  0  0  0  0  2  0  0  0  0  0  0
  187.7430  176.9560  136.4600 C   0  0  0  0  0  2  0  0  0  0  0  0
  186.6500  176.2450  137.0980 N   0  0  0  0  0  2  0  0  0  0  0  0
  186.3320  173.2990  134.7910 C   0  0  0  0  0  2  0  0  0  0  0  0
  185.9640  175.5010  136.0550 C   0  0  1  0  0  3  0  0  0  0  0  0
  184.1290  172.4240  137.1500 C   0  0  0  0  0  1  0  0  0  0  0  0
  187.2560  173.2590  135.9990 C   0  0  1  0  0  3  0  0  0  0  0  0
  185.0860  173.5540  137.4720 C   0  0  2  0  0  3  0  0  0  0  0  0
  186.9600  174.5910  135.3060 C   0  0  1  0  0  3  0  0  0  0  0  0
  184.7380  174.7830  136.6300 C   0  0  0  0  0  2  0  0  0  0  0  0
  186.5410  173.0730  137.3550 C   0  0  0  0  0  2  0  0  0  0  0  0
  1 19  1  0  0  0  0
  1 15  1  0  0  0  0
  3 18  2  0  0  0  0
  4 16  2  0  0  0  0
  5  4  1  0  0  0  0
  6  5  1  0  0  0  0
  7 18  1  0  0  0  0
  8 10  1  0  0  0  0
  9 12  2  0  0  0  0
 10  2  2  0  0  0  0
 10 17  1  0  0  0  0
 11  8  1  0  0  0  0
 11 16  1  0  0  0  0
 12  7  1  0  0  0  0
 13  8  2  0  0  0  0
 14 17  1  0  0  0  0
 15  6  1  0  0  0  0
 16 21  1  0  0  0  0
 18 13  1  0  0  0  0
 19  9  1  1  0  0  0
 19  3  1  0  0  0  0
 20  5  2  0  0  0  0
 20 22  1  0  0  0  0
 21 14  1  0  0  0  0
 23 22  1  0  0  0  0
 24  9  1  0  0  0  0
 25 24  1  0  0  0  0
 26 27  1  0  0  0  0
 26 25  1  0  0  0  0
 29 34  1  0  0  0  0
 29 27  1  1  0  0  0
 31 28  1  6  0  0  0
 31 35  1  0  0  0  0
 32 30  1  6  0  0  0
 33 28  1  6  0  0  0
 33 31  1  0  0  0  0
 33 29  1  0  0  0  0
 34 32  1  0  0  0  0
 35 32  1  0  0  0  0
M  END
>  <MODEL>
6

>  <REMARK>
 VINA RESULT:      -7.7      3.587      6.528
  Name = 
  6 active torsions:
  status: ('A' for Active; 'I' for Inactive)
    1  A    between atoms: O_1  and  C_33
    2  A    between atoms: C_8  and  N_27
    3  A    between atoms: C_13  and  C_16
    4  A    between atoms: C_13  and  N_31
    5  A    between atoms: C_15  and  N_31
    6  A    between atoms: C_16  and  N_27
                            x       y       z     vdW  Elec       q    Type
                         _______ _______ _______ _____ _____    ______ ____

>  <TORSDO>
F 6

$$$$
=
 OpenBabel10232410493D

 35 39  0  0  1  0  0  0  0  0999 V2000
  190.6970  176.8130  142.5390 S   0  0  0  0  0  0  0  0  0  0  0  0
  183.7920  179.6460  144.6460 O   0  0  0  0  0  0  0  0  0  0  0  0
  188.0880  177.5870  142.6580 N   0  0  0  0  0  0  0  0  0  0  0  0
  188.7500  177.4250  146.5430 C   0  0  0  0  0  3  0  0  0  0  0  0
  189.9780  177.5430  145.7240 C   0  0  0  0  0  0  0  0  0  0  0  0
  190.0050  178.4230  144.5920 N   0  0  0  0  0  2  0  0  0  0  0  0
  186.7910  178.4150  140.8540 C   0  0  0  0  0  2  0  0  0  0  0  0
  185.9010  178.5860  144.4460 C   0  0  0  0  0  0  0  0  0  0  0  0
  189.0460  177.7660  140.4890 C   0  0  0  0  0  0  0  0  0  0  0  0
  184.6790  178.9350  145.1890 C   0  0  0  0  0  0  0  0  0  0  0  0
  187.2370  178.7880  145.1120 C   0  0  0  0  0  2  0  0  0  0  0  0
  187.8550  178.2400  140.0260 N   0  0  0  0  0  0  0  0  0  0  0  0
  185.7970  178.3650  143.1260 C   0  0  0  0  0  3  0  0  0  0  0  0
  185.2200  177.3470  147.0540 C   0  0  0  0  0  2  0  0  0  0  0  0
  190.9840  178.3320  143.5120 C   0  0  0  0  0  2  0  0  0  0  0  0
  187.5270  177.9210  146.3140 C   0  0  0  0  0  0  0  0  0  0  0  0
  184.4830  178.4790  146.5230 N   0  0  0  0  0  2  0  0  0  0  0  0
  186.9160  178.1010  142.2080 C   0  0  0  0  0  0  0  0  0  0  0  0
  189.1600  177.4220  141.8430 C   0  0  1  0  0  3  0  0  0  0  0  0
  191.0910  176.8520  146.0300 C   0  0  0  0  0  3  0  0  0  0  0  0
  186.5730  177.6920  147.3100 O   0  0  0  0  0  0  0  0  0  0  0  0
  191.2780  175.9420  147.0840 O   0  0  0  0  0  0  0  0  0  0  0  0
  192.4690  175.7880  147.8410 C   0  0  0  0  0  1  0  0  0  0  0  0
  190.1600  177.6100  139.6030 N   0  0  0  0  0  2  0  0  0  0  0  0
  190.2590  176.5210  138.6430 C   0  0  0  0  0  2  0  0  0  0  0  0
  189.9730  177.0340  137.2450 C   0  0  0  0  0  2  0  0  0  0  0  0
  189.1270  176.0850  136.5440 N   0  0  0  0  0  2  0  0  0  0  0  0
  185.5540  177.2270  136.7060 C   0  0  0  0  0  2  0  0  0  0  0  0
  187.8230  176.1290  137.1840 C   0  0  1  0  0  3  0  0  0  0  0  0
  185.1130  174.1180  135.5570 C   0  0  0  0  0  1  0  0  0  0  0  0
  186.3540  177.3180  135.4150 C   0  0  1  0  0  3  0  0  0  0  0  0
  186.5170  174.6850  135.5160 C   0  0  2  0  0  3  0  0  0  0  0  0
  187.0680  177.4080  136.7650 C   0  0  1  0  0  3  0  0  0  0  0  0
  187.0630  174.8210  136.9390 C   0  0  0  0  0  2  0  0  0  0  0  0
  186.5490  175.9740  134.6790 C   0  0  0  0  0  2  0  0  0  0  0  0
  1 15  1  0  0  0  0
  2 10  2  0  0  0  0
  5 20  2  0  0  0  0
  5  4  1  0  0  0  0
  6  5  1  0  0  0  0
  7 18  1  0  0  0  0
  8 11  1  0  0  0  0
  8 10  1  0  0  0  0
 10 17  1  0  0  0  0
 11 16  1  0  0  0  0
 12  9  2  0  0  0  0
 12  7  1  0  0  0  0
 13  8  2  0  0  0  0
 14 21  1  0  0  0  0
 15  6  1  0  0  0  0
 16  4  2  0  0  0  0
 16 21  1  0  0  0  0
 17 14  1  0  0  0  0
 18  3  2  0  0  0  0
 18 13  1  0  0  0  0
 19  9  1  1  0  0  0
 19  1  1  0  0  0  0
 19  3  1  0  0  0  0
 20 22  1  0  0  0  0
 22 23  1  0  0  0  0
 24  9  1  0  0  0  0
 25 24  1  0  0  0  0
 26 25  1  0  0  0  0
 27 26  1  0  0  0  0
 29 27  1  6  0  0  0
 31 35  1  1  0  0  0
 31 28  1  0  0  0  0
 31 33  1  0  0  0  0
 32 30  1  1  0  0  0
 32 34  1  0  0  0  0
 33 28  1  1  0  0  0
 33 29  1  0  0  0  0
 34 29  1  0  0  0  0
 35 32  1  0  0  0  0
M  END
>  <MODEL>
7

>  <REMARK>
 VINA RESULT:      -7.6      3.016      6.257
  Name = 
  6 active torsions:
  status: ('A' for Active; 'I' for Inactive)
    1  A    between atoms: O_1  and  C_33
    2  A    between atoms: C_8  and  N_27
    3  A    between atoms: C_13  and  C_16
    4  A    between atoms: C_13  and  N_31
    5  A    between atoms: C_15  and  N_31
    6  A    between atoms: C_16  and  N_27
                            x       y       z     vdW  Elec       q    Type
                         _______ _______ _______ _____ _____    ______ ____

>  <TORSDO>
F 6

$$$$
=
 OpenBabel10232410493D

 35 39  0  0  1  0  0  0  0  0999 V2000
  187.8020  178.4660  141.4150 S   0  0  0  0  0  0  0  0  0  0  0  0
  191.8970  176.4420  147.6830 O   0  0  0  0  0  0  0  0  0  0  0  0
  189.7640  177.9910  143.2450 N   0  0  0  0  0  0  0  0  0  0  0  0
  186.7350  178.1120  145.7670 C   0  0  0  0  0  3  0  0  0  0  0  0
  186.3440  177.8490  144.3630 C   0  0  0  0  0  0  0  0  0  0  0  0
  187.1260  176.9620  143.5530 N   0  0  0  0  0  2  0  0  0  0  0  0
  191.9820  177.2960  142.7680 C   0  0  0  0  0  2  0  0  0  0  0  0
  190.3440  177.2580  146.0910 C   0  0  0  0  0  0  0  0  0  0  0  0
  190.4560  177.6850  140.9900 C   0  0  0  0  0  0  0  0  0  0  0  0
  190.8170  177.0540  147.4700 C   0  0  0  0  0  0  0  0  0  0  0  0
  188.9160  176.9130  145.7570 C   0  0  0  0  0  2  0  0  0  0  0  0
  191.6970  177.3440  141.4400 N   0  0  0  0  0  0  0  0  0  0  0  0
  191.2600  177.4780  145.1340 C   0  0  0  0  0  3  0  0  0  0  0  0
  189.0730  178.5890  148.4180 C   0  0  0  0  0  2  0  0  0  0  0  0
  187.0750  176.9330  142.0930 C   0  0  0  0  0  2  0  0  0  0  0  0
  187.8500  177.7530  146.4170 C   0  0  0  0  0  0  0  0  0  0  0  0
  190.0660  177.5410  148.5770 N   0  0  0  0  0  2  0  0  0  0  0  0
  190.9850  177.6060  143.6950 C   0  0  0  0  0  0  0  0  0  0  0  0
  189.4660  178.0270  141.9200 C   0  0  1  0  0  3  0  0  0  0  0  0
  185.2470  178.4140  143.8260 C   0  0  0  0  0  3  0  0  0  0  0  0
  187.9090  178.0960  147.7710 O   0  0  0  0  0  0  0  0  0  0  0  0
  184.3500  179.3070  144.4370 O   0  0  0  0  0  0  0  0  0  0  0  0
  182.9380  179.1640  144.4720 C   0  0  0  0  0  1  0  0  0  0  0  0
  190.1730  177.7090  139.5870 N   0  0  0  0  0  2  0  0  0  0  0  0
  190.4790  176.5960  138.7000 C   0  0  0  0  0  2  0  0  0  0  0  0
  189.4620  176.5310  137.5780 C   0  0  0  0  0  2  0  0  0  0  0  0
  188.1330  176.7580  138.1160 N   0  0  0  0  0  2  0  0  0  0  0  0
  186.4690  177.6640  134.8730 C   0  0  0  0  0  2  0  0  0  0  0  0
  187.4760  177.7080  137.2330 C   0  0  1  0  0  3  0  0  0  0  0  0
  183.7750  177.2990  136.8210 C   0  0  0  0  0  1  0  0  0  0  0  0
  186.6500  176.2120  135.2890 C   0  0  1  0  0  3  0  0  0  0  0  0
  185.0940  176.7690  137.3460 C   0  0  2  0  0  3  0  0  0  0  0  0
  187.6460  177.2730  135.7620 C   0  0  1  0  0  3  0  0  0  0  0  0
  186.0270  177.9350  137.6760 C   0  0  0  0  0  2  0  0  0  0  0  0
  185.6730  175.7230  136.3800 C   0  0  0  0  0  2  0  0  0  0  0  0
  1 19  1  0  0  0  0
  1 15  1  0  0  0  0
  3 18  2  0  0  0  0
  4 16  2  0  0  0  0
  5  4  1  0  0  0  0
  6  5  1  0  0  0  0
  7 18  1  0  0  0  0
  8 10  1  0  0  0  0
  9 12  2  0  0  0  0
 10  2  2  0  0  0  0
 10 17  1  0  0  0  0
 11  8  1  0  0  0  0
 11 16  1  0  0  0  0
 12  7  1  0  0  0  0
 13  8  2  0  0  0  0
 14 17  1  0  0  0  0
 15  6  1  0  0  0  0
 16 21  1  0  0  0  0
 18 13  1  0  0  0  0
 19  9  1  1  0  0  0
 19  3  1  0  0  0  0
 20  5  2  0  0  0  0
 20 22  1  0  0  0  0
 21 14  1  0  0  0  0
 22 23  1  0  0  0  0
 24  9  1  0  0  0  0
 25 24  1  0  0  0  0
 26 27  1  0  0  0  0
 26 25  1  0  0  0  0
 29 34  1  0  0  0  0
 29 27  1  1  0  0  0
 31 28  1  6  0  0  0
 31 33  1  0  0  0  0
 31 35  1  0  0  0  0
 32 30  1  6  0  0  0
 32 34  1  0  0  0  0
 33 28  1  6  0  0  0
 33 29  1  0  0  0  0
 35 32  1  0  0  0  0
M  END
>  <MODEL>
8

>  <REMARK>
 VINA RESULT:      -7.5      2.723      5.560
  Name = 
  6 active torsions:
  status: ('A' for Active; 'I' for Inactive)
    1  A    between atoms: O_1  and  C_33
    2  A    between atoms: C_8  and  N_27
    3  A    between atoms: C_13  and  C_16
    4  A    between atoms: C_13  and  N_31
    5  A    between atoms: C_15  and  N_31
    6  A    between atoms: C_16  and  N_27
                            x       y       z     vdW  Elec       q    Type
                         _______ _______ _______ _____ _____    ______ ____

>  <TORSDO>
F 6

$$$$
=
 OpenBabel10232410493D

 35 39  0  0  1  0  0  0  0  0999 V2000
  190.4550  176.8220  142.4590 S   0  0  0  0  0  0  0  0  0  0  0  0
  183.5300  179.8780  144.1520 O   0  0  0  0  0  0  0  0  0  0  0  0
  187.8580  177.6480  142.4370 N   0  0  0  0  0  0  0  0  0  0  0  0
  188.3640  177.6570  146.3480 C   0  0  0  0  0  3  0  0  0  0  0  0
  189.6250  177.7140  145.5750 C   0  0  0  0  0  0  0  0  0  0  0  0
  189.7140  178.5390  144.4050 N   0  0  0  0  0  2  0  0  0  0  0  0
  186.6510  178.4140  140.5450 C   0  0  0  0  0  2  0  0  0  0  0  0
  185.6230  178.7700  144.0870 C   0  0  0  0  0  0  0  0  0  0  0  0
  188.9050  177.7070  140.3020 C   0  0  0  0  0  0  0  0  0  0  0  0
  184.3810  179.1770  144.7630 C   0  0  0  0  0  0  0  0  0  0  0  0
  186.9360  178.9800  144.7960 C   0  0  0  0  0  2  0  0  0  0  0  0
  187.7430  178.1800  139.7700 N   0  0  0  0  0  0  0  0  0  0  0  0
  185.5680  178.4890  142.7750 C   0  0  0  0  0  3  0  0  0  0  0  0
  184.8160  177.6690  146.7190 C   0  0  0  0  0  2  0  0  0  0  0  0
  190.7340  178.3790  143.3710 C   0  0  0  0  0  2  0  0  0  0  0  0
  187.1610  178.1650  146.0470 C   0  0  0  0  0  0  0  0  0  0  0  0
  184.1230  178.7880  146.1070 N   0  0  0  0  0  2  0  0  0  0  0  0
  186.7160  178.1620  141.9160 C   0  0  0  0  0  0  0  0  0  0  0  0
  188.9590  177.4250  141.6740 C   0  0  1  0  0  3  0  0  0  0  0  0
  190.7110  177.0180  145.9570 C   0  0  0  0  0  3  0  0  0  0  0  0
  186.1640  178.0010  147.0140 O   0  0  0  0  0  0  0  0  0  0  0  0
  190.8380  176.1560  147.0590 O   0  0  0  0  0  0  0  0  0  0  0  0
  192.0500  175.5800  147.5220 C   0  0  0  0  0  1  0  0  0  0  0  0
  190.0490  177.4880  139.4700 N   0  0  0  0  0  2  0  0  0  0  0  0
  189.9550  177.3030  138.0300 C   0  0  0  0  0  2  0  0  0  0  0  0
  189.7680  175.8330  137.7060 C   0  0  0  0  0  2  0  0  0  0  0  0
  188.3820  175.5910  137.3460 N   0  0  0  0  0  2  0  0  0  0  0  0
  188.2150  172.1820  135.7780 C   0  0  0  0  0  2  0  0  0  0  0  0
  188.3940  174.7080  136.1910 C   0  0  1  0  0  3  0  0  0  0  0  0
  185.0960  173.2380  135.1960 C   0  0  0  0  0  1  0  0  0  0  0  0
  187.7550  172.4160  137.2090 C   0  0  1  0  0  3  0  0  0  0  0  0
  185.9250  174.0230  136.1920 C   0  0  2  0  0  3  0  0  0  0  0  0
  188.8530  173.2950  136.6060 C   0  0  1  0  0  3  0  0  0  0  0  0
  187.0480  174.7630  135.4630 C   0  0  0  0  0  2  0  0  0  0  0  0
  186.3830  173.1120  137.3430 C   0  0  0  0  0  2  0  0  0  0  0  0
  1 15  1  0  0  0  0
  2 10  2  0  0  0  0
  5 20  2  0  0  0  0
  5  4  1  0  0  0  0
  6  5  1  0  0  0  0
  7 18  1  0  0  0  0
  8 10  1  0  0  0  0
  8 11  1  0  0  0  0
 10 17  1  0  0  0  0
 11 16  1  0  0  0  0
 12  9  2  0  0  0  0
 12  7  1  0  0  0  0
 13  8  2  0  0  0  0
 14 21  1  0  0  0  0
 15  6  1  0  0  0  0
 16  4  2  0  0  0  0
 16 21  1  0  0  0  0
 17 14  1  0  0  0  0
 18  3  2  0  0  0  0
 18 13  1  0  0  0  0
 19  9  1  1  0  0  0
 19  3  1  0  0  0  0
 19  1  1  0  0  0  0
 20 22  1  0  0  0  0
 22 23  1  0  0  0  0
 24  9  1  0  0  0  0
 25 24  1  0  0  0  0
 26 25  1  0  0  0  0
 27 26  1  0  0  0  0
 29 33  1  0  0  0  0
 29 27  1  1  0  0  0
 31 28  1  6  0  0  0
 31 35  1  0  0  0  0
 32 30  1  6  0  0  0
 32 35  1  0  0  0  0
 33 28  1  6  0  0  0
 33 31  1  0  0  0  0
 34 29  1  0  0  0  0
 34 32  1  0  0  0  0
M  END
>  <MODEL>
9

>  <REMARK>
 VINA RESULT:      -7.5      3.279      6.834
  Name = 
  6 active torsions:
  status: ('A' for Active; 'I' for Inactive)
    1  A    between atoms: O_1  and  C_33
    2  A    between atoms: C_8  and  N_27
    3  A    between atoms: C_13  and  C_16
    4  A    between atoms: C_13  and  N_31
    5  A    between atoms: C_15  and  N_31
    6  A    between atoms: C_16  and  N_27
                            x       y       z     vdW  Elec       q    Type
                         _______ _______ _______ _____ _____    ______ ____

>  <TORSDO>
F 6

$$$$
