=
 OpenBabel10232409543D

 34 36  0  0  1  0  0  0  0  0999 V2000
  188.4150  178.3490  141.4510 N   0  0  0  0  0  0  0  0  0  0  0  0
  189.3110  178.1360  142.5860 C   0  0  0  0  0  2  0  0  0  0  0  0
  189.8010  175.7970  142.8690 O   0  0  0  0  0  1  0  0  0  0  0  0
  188.9870  176.8360  143.3240 C   0  0  1  0  0  3  0  0  0  0  0  0
  189.1020  176.9900  144.8090 C   0  0  0  0  0  0  0  0  0  0  0  0
  188.1630  177.6910  146.9150 C   0  0  0  0  0  3  0  0  0  0  0  0
  188.0280  177.5060  145.5390 C   0  0  0  0  0  3  0  0  0  0  0  0
  189.3650  177.3660  147.5460 C   0  0  0  0  0  3  0  0  0  0  0  0
  190.4250  176.8570  146.7860 C   0  0  0  0  0  0  0  0  0  0  0  0
  190.2690  176.6870  145.4440 N   0  0  0  0  0  0  0  0  0  0  0  0
  191.7000  176.5050  147.4280 C   0  0  0  0  0  0  0  0  0  0  0  0
  192.1630  177.2250  148.3520 O   0  0  0  0  0  1  0  0  0  0  0  0
  192.4060  175.3790  147.0200 O   0  0  0  0  0  0  0  0  0  0  0  0
  187.0460  178.0050  141.8550 C   0  0  0  0  0  2  0  0  0  0  0  0
  186.0550  179.1650  141.7180 C   0  0  0  0  0  2  0  0  0  0  0  0
  183.6290  178.9270  142.2840 C   0  0  0  0  0  3  0  0  0  0  0  0
  184.9560  179.0200  142.7140 C   0  0  0  0  0  0  0  0  0  0  0  0
  185.2430  179.0130  144.0440 N   0  0  0  0  0  0  0  0  0  0  0  0
  182.6100  178.8270  143.2350 C   0  0  0  0  0  3  0  0  0  0  0  0
  184.2650  178.9130  144.9850 C   0  0  0  0  0  0  0  0  0  0  0  0
  182.9270  178.8180  144.5940 C   0  0  0  0  0  3  0  0  0  0  0  0
  184.6030  178.9090  146.3660 N   0  0  0  0  0  1  0  0  0  0  0  0
  188.8150  177.5000  140.4070 N   0  0  0  0  0  2  0  0  0  0  0  0
  188.2250  178.0240  139.1880 C   0  0  0  0  0  2  0  0  0  0  0  0
  188.9610  179.1240  138.7490 O   0  0  0  0  0  0  0  0  0  0  0  0
  189.0080  178.9900  137.3610 C   0  0  0  0  0  2  0  0  0  0  0  0
  187.5670  177.4870  135.5960 S   0  0  0  0  0  0  0  0  0  0  0  0
  188.9330  177.2410  134.4170 C   0  0  0  0  0  2  0  0  0  0  0  0
  188.7550  177.5420  136.9730 C   0  0  1  0  0  3  0  0  0  0  0  0
  190.0130  176.9380  136.4510 C   0  0  0  0  0  0  0  0  0  0  0  0
  190.0890  176.7990  135.1720 N   0  0  0  0  0  0  0  0  0  0  0  0
  191.3140  175.3800  137.8330 C   0  0  0  0  0  3  0  0  0  0  0  0
  190.4180  174.2860  137.6570 N   0  0  0  0  0  1  0  0  0  0  0  0
  191.1190  176.5400  137.2780 N   0  0  0  0  0  0  0  0  0  0  0  0
  1 14  1  0  0  0  0
  1  2  1  0  0  0  0
  2  4  1  0  0  0  0
  4  3  1  6  0  0  0
  4  5  1  0  0  0  0
  5 10  2  0  0  0  0
  5  7  1  0  0  0  0
  6  8  1  0  0  0  0
  7  6  2  0  0  0  0
  9 11  1  0  0  0  0
  9  8  2  0  0  0  0
 10  9  1  0  0  0  0
 11 12  1  0  0  0  0
 13 11  2  0  0  0  0
 15 14  1  0  0  0  0
 15 17  1  0  0  0  0
 16 17  2  0  0  0  0
 16 19  1  0  0  0  0
 17 18  1  0  0  0  0
 18 20  2  0  0  0  0
 19 21  2  0  0  0  0
 20 22  1  0  0  0  0
 21 20  1  0  0  0  0
 23  1  1  0  0  0  0
 24 23  1  0  0  0  0
 25 24  1  0  0  0  0
 26 25  1  0  0  0  0
 27 29  1  0  0  0  0
 28 31  1  0  0  0  0
 28 27  1  0  0  0  0
 29 26  1  6  0  0  0
 30 29  1  0  0  0  0
 30 34  1  0  0  0  0
 31 30  2  0  0  0  0
 33 32  1  0  0  0  0
 34 32  2  0  0  0  0
M  END
>  <MODEL>
1

>  <REMARK>
 VINA RESULT:      -8.2      0.000      0.000
  Name = 
  13 active torsions:
  status: ('A' for Active; 'I' for Inactive)
    1  A    between atoms: C_3  and  C_8
    2  A    between atoms: C_3  and  N_20
    3  A    between atoms: C_4  and  C_8
    4  A    between atoms: C_9  and  C_17
    5  A    between atoms: C_9  and  O_19
    6  A    between atoms: C_12  and  O_19
    7  A    between atoms: C_12  and  N_34
    8  A    between atoms: C_15  and  CA_26
    9  A    between atoms: C_16  and  N_20
   10  A    between atoms: C_16  and  C_32
   11  A    between atoms: C_18  and  C_32
   12  A    between atoms: N_20  and  N_34
   13  A    between atoms: C_21  and  N_30
                            x       y       z     vdW  Elec       q    Type
                         _______ _______ _______ _____ _____    ______ ____

>  <TORSDO>
F 13

$$$$
=
 OpenBabel10232409543D

 34 36  0  0  1  0  0  0  0  0999 V2000
  188.6770  178.2670  141.7210 N   0  0  0  0  0  0  0  0  0  0  0  0
  189.8790  177.8670  142.4500 C   0  0  0  0  0  2  0  0  0  0  0  0
  190.2300  175.4880  142.5620 O   0  0  0  0  0  1  0  0  0  0  0  0
  189.6590  176.5720  143.2330 C   0  0  1  0  0  3  0  0  0  0  0  0
  190.1820  176.6660  144.6320 C   0  0  0  0  0  0  0  0  0  0  0  0
  191.9430  176.2860  146.2340 C   0  0  0  0  0  3  0  0  0  0  0  0
  191.4820  176.2400  144.9170 C   0  0  0  0  0  3  0  0  0  0  0  0
  191.1040  176.7500  147.2480 C   0  0  0  0  0  3  0  0  0  0  0  0
  189.8050  177.1650  146.9310 C   0  0  0  0  0  0  0  0  0  0  0  0
  189.3780  177.1090  145.6390 N   0  0  0  0  0  0  0  0  0  0  0  0
  188.9040  177.6600  147.9820 C   0  0  0  0  0  0  0  0  0  0  0  0
  189.2990  178.5410  148.7920 O   0  0  0  0  0  1  0  0  0  0  0  0
  187.6110  177.1600  148.0940 O   0  0  0  0  0  0  0  0  0  0  0  0
  187.5000  177.9770  142.5490 C   0  0  0  0  0  2  0  0  0  0  0  0
  186.1810  178.4480  141.9280 C   0  0  0  0  0  2  0  0  0  0  0  0
  183.7980  178.7440  142.6350 C   0  0  0  0  0  3  0  0  0  0  0  0
  185.1440  178.6040  142.9870 C   0  0  0  0  0  0  0  0  0  0  0  0
  185.5130  178.6440  144.2970 N   0  0  0  0  0  0  0  0  0  0  0  0
  182.8460  178.9250  143.6410 C   0  0  0  0  0  3  0  0  0  0  0  0
  184.5990  178.8160  145.2900 C   0  0  0  0  0  0  0  0  0  0  0  0
  183.2450  178.9600  144.9780 C   0  0  0  0  0  3  0  0  0  0  0  0
  185.0210  178.8530  146.6480 N   0  0  0  0  0  1  0  0  0  0  0  0
  188.6060  177.5140  140.5390 N   0  0  0  0  0  2  0  0  0  0  0  0
  189.4640  178.1720  139.5680 C   0  0  0  0  0  2  0  0  0  0  0  0
  188.6940  178.9990  138.7510 O   0  0  0  0  0  0  0  0  0  0  0  0
  189.1650  178.7610  137.4600 C   0  0  0  0  0  2  0  0  0  0  0  0
  187.5250  177.2840  135.8560 S   0  0  0  0  0  0  0  0  0  0  0  0
  188.7240  177.0970  134.4980 C   0  0  0  0  0  2  0  0  0  0  0  0
  188.8830  177.3210  137.0640 C   0  0  1  0  0  3  0  0  0  0  0  0
  190.0700  176.7560  136.3600 C   0  0  0  0  0  0  0  0  0  0  0  0
  189.9770  176.6550  135.0790 N   0  0  0  0  0  0  0  0  0  0  0  0
  191.5250  175.2180  137.6040 C   0  0  0  0  0  3  0  0  0  0  0  0
  190.5760  174.1560  137.6390 N   0  0  0  0  0  1  0  0  0  0  0  0
  191.2820  176.3550  137.0210 N   0  0  0  0  0  0  0  0  0  0  0  0
  1  2  1  0  0  0  0
  1 14  1  0  0  0  0
  2  4  1  0  0  0  0
  4  3  1  6  0  0  0
  4  5  1  0  0  0  0
  5  7  2  0  0  0  0
  5 10  1  0  0  0  0
  6  8  2  0  0  0  0
  7  6  1  0  0  0  0
  9  8  1  0  0  0  0
  9 11  1  0  0  0  0
 10  9  2  0  0  0  0
 11 13  2  0  0  0  0
 11 12  1  0  0  0  0
 15 14  1  0  0  0  0
 15 17  1  0  0  0  0
 16 17  2  0  0  0  0
 16 19  1  0  0  0  0
 17 18  1  0  0  0  0
 18 20  2  0  0  0  0
 19 21  2  0  0  0  0
 20 22  1  0  0  0  0
 21 20  1  0  0  0  0
 23  1  1  0  0  0  0
 24 23  1  0  0  0  0
 25 24  1  0  0  0  0
 26 25  1  0  0  0  0
 27 29  1  0  0  0  0
 28 31  1  0  0  0  0
 28 27  1  0  0  0  0
 29 26  1  6  0  0  0
 30 34  1  0  0  0  0
 30 29  1  0  0  0  0
 31 30  2  0  0  0  0
 32 33  1  0  0  0  0
 34 32  2  0  0  0  0
M  END
>  <MODEL>
2

>  <REMARK>
 VINA RESULT:      -8.2      1.220      1.635
  Name = 
  13 active torsions:
  status: ('A' for Active; 'I' for Inactive)
    1  A    between atoms: C_3  and  C_8
    2  A    between atoms: C_3  and  N_20
    3  A    between atoms: C_4  and  C_8
    4  A    between atoms: C_9  and  C_17
    5  A    between atoms: C_9  and  O_19
    6  A    between atoms: C_12  and  O_19
    7  A    between atoms: C_12  and  N_34
    8  A    between atoms: C_15  and  CA_26
    9  A    between atoms: C_16  and  N_20
   10  A    between atoms: C_16  and  C_32
   11  A    between atoms: C_18  and  C_32
   12  A    between atoms: N_20  and  N_34
   13  A    between atoms: C_21  and  N_30
                            x       y       z     vdW  Elec       q    Type
                         _______ _______ _______ _____ _____    ______ ____

>  <TORSDO>
F 13

$$$$
=
 OpenBabel10232409543D

 34 36  0  0  1  0  0  0  0  0999 V2000
  189.3820  177.7750  141.6210 N   0  0  0  0  0  0  0  0  0  0  0  0
  189.9900  176.8590  142.5830 C   0  0  0  0  0  2  0  0  0  0  0  0
  190.9350  178.9380  143.3440 O   0  0  0  0  0  1  0  0  0  0  0  0
  191.0700  177.5490  143.4160 C   0  0  1  0  0  3  0  0  0  0  0  0
  191.0630  177.0880  144.8400 C   0  0  0  0  0  0  0  0  0  0  0  0
  191.9630  175.6950  146.5890 C   0  0  0  0  0  3  0  0  0  0  0  0
  192.0100  176.1550  145.2730 C   0  0  0  0  0  3  0  0  0  0  0  0
  190.9740  176.1630  147.4550 C   0  0  0  0  0  3  0  0  0  0  0  0
  190.0360  177.0920  146.9890 C   0  0  0  0  0  0  0  0  0  0  0  0
  190.1010  177.5250  145.7000 N   0  0  0  0  0  0  0  0  0  0  0  0
  188.9860  177.6020  147.8830 C   0  0  0  0  0  0  0  0  0  0  0  0
  189.0730  178.7620  148.3670 O   0  0  0  0  0  1  0  0  0  0  0  0
  187.8890  176.8090  148.2050 O   0  0  0  0  0  0  0  0  0  0  0  0
  188.0240  178.1040  142.0710 C   0  0  0  0  0  2  0  0  0  0  0  0
  187.4970  177.1730  143.1680 C   0  0  0  0  0  2  0  0  0  0  0  0
  185.1560  178.0580  143.1740 C   0  0  0  0  0  3  0  0  0  0  0  0
  186.3440  177.8070  143.8670 C   0  0  0  0  0  0  0  0  0  0  0  0
  186.4610  178.1740  145.1730 N   0  0  0  0  0  0  0  0  0  0  0  0
  184.0990  178.6840  143.8380 C   0  0  0  0  0  3  0  0  0  0  0  0
  185.4410  178.7820  145.8370 C   0  0  0  0  0  0  0  0  0  0  0  0
  184.2380  179.0490  145.1780 C   0  0  0  0  0  3  0  0  0  0  0  0
  185.5990  179.1510  147.2010 N   0  0  0  0  0  1  0  0  0  0  0  0
  189.3120  177.1270  140.3780 N   0  0  0  0  0  2  0  0  0  0  0  0
  190.6720  177.0350  139.8730 C   0  0  0  0  0  2  0  0  0  0  0  0
  190.8350  175.8310  139.1910 O   0  0  0  0  0  0  0  0  0  0  0  0
  191.7790  176.1080  138.2020 C   0  0  0  0  0  2  0  0  0  0  0  0
  191.7440  174.2850  136.1710 S   0  0  0  0  0  0  0  0  0  0  0  0
  193.1760  174.9780  135.2860 C   0  0  0  0  0  2  0  0  0  0  0  0
  192.4540  174.8210  137.7580 C   0  0  1  0  0  3  0  0  0  0  0  0
  193.8980  175.0810  137.4910 C   0  0  0  0  0  0  0  0  0  0  0  0
  194.2410  175.1620  136.2520 N   0  0  0  0  0  0  0  0  0  0  0  0
  195.5750  174.3440  139.1260 C   0  0  0  0  0  3  0  0  0  0  0  0
  195.4500  172.9600  138.8120 N   0  0  0  0  0  1  0  0  0  0  0  0
  194.8860  175.2650  138.5190 N   0  0  0  0  0  0  0  0  0  0  0  0
  1 14  1  0  0  0  0
  1  2  1  0  0  0  0
  2  4  1  0  0  0  0
  4  3  1  1  0  0  0
  4  5  1  0  0  0  0
  5  7  2  0  0  0  0
  5 10  1  0  0  0  0
  6  8  2  0  0  0  0
  7  6  1  0  0  0  0
  9  8  1  0  0  0  0
  9 11  1  0  0  0  0
 10  9  2  0  0  0  0
 11 13  2  0  0  0  0
 11 12  1  0  0  0  0
 14 15  1  0  0  0  0
 15 17  1  0  0  0  0
 16 19  2  0  0  0  0
 16 17  1  0  0  0  0
 17 18  2  0  0  0  0
 18 20  1  0  0  0  0
 19 21  1  0  0  0  0
 20 22  1  0  0  0  0
 21 20  2  0  0  0  0
 23  1  1  0  0  0  0
 24 23  1  0  0  0  0
 25 24  1  0  0  0  0
 26 25  1  0  0  0  0
 27 29  1  0  0  0  0
 28 27  1  0  0  0  0
 28 31  1  0  0  0  0
 29 26  1  6  0  0  0
 30 29  1  0  0  0  0
 30 34  1  0  0  0  0
 31 30  2  0  0  0  0
 33 32  1  0  0  0  0
 34 32  2  0  0  0  0
M  END
>  <MODEL>
3

>  <REMARK>
 VINA RESULT:      -8.1      2.665      3.251
  Name = 
  13 active torsions:
  status: ('A' for Active; 'I' for Inactive)
    1  A    between atoms: C_3  and  C_8
    2  A    between atoms: C_3  and  N_20
    3  A    between atoms: C_4  and  C_8
    4  A    between atoms: C_9  and  C_17
    5  A    between atoms: C_9  and  O_19
    6  A    between atoms: C_12  and  O_19
    7  A    between atoms: C_12  and  N_34
    8  A    between atoms: C_15  and  CA_26
    9  A    between atoms: C_16  and  N_20
   10  A    between atoms: C_16  and  C_32
   11  A    between atoms: C_18  and  C_32
   12  A    between atoms: N_20  and  N_34
   13  A    between atoms: C_21  and  N_30
                            x       y       z     vdW  Elec       q    Type
                         _______ _______ _______ _____ _____    ______ ____

>  <TORSDO>
F 13

$$$$
=
 OpenBabel10232409543D

 34 36  0  0  1  0  0  0  0  0999 V2000
  188.4920  178.2550  141.4800 N   0  0  0  0  0  0  0  0  0  0  0  0
  189.4590  177.9780  142.5400 C   0  0  0  0  0  2  0  0  0  0  0  0
  189.8750  175.6390  142.9240 O   0  0  0  0  0  1  0  0  0  0  0  0
  189.0890  176.7200  143.3270 C   0  0  1  0  0  3  0  0  0  0  0  0
  189.1930  176.9310  144.8050 C   0  0  0  0  0  0  0  0  0  0  0  0
  188.2450  177.7250  146.8740 C   0  0  0  0  0  3  0  0  0  0  0  0
  188.1190  177.4870  145.5050 C   0  0  0  0  0  3  0  0  0  0  0  0
  189.4380  177.4110  147.5280 C   0  0  0  0  0  3  0  0  0  0  0  0
  190.4980  176.8610  146.7970 C   0  0  0  0  0  0  0  0  0  0  0  0
  190.3510  176.6390  145.4620 N   0  0  0  0  0  0  0  0  0  0  0  0
  191.7640  176.5200  147.4640 C   0  0  0  0  0  0  0  0  0  0  0  0
  192.1960  177.2350  148.4070 O   0  0  0  0  0  1  0  0  0  0  0  0
  192.4950  175.4090  147.0590 O   0  0  0  0  0  0  0  0  0  0  0  0
  187.1470  177.9250  141.9660 C   0  0  0  0  0  2  0  0  0  0  0  0
  186.1070  179.0160  141.6860 C   0  0  0  0  0  2  0  0  0  0  0  0
  183.6700  178.8820  142.2370 C   0  0  0  0  0  3  0  0  0  0  0  0
  184.9960  178.9300  142.6750 C   0  0  0  0  0  0  0  0  0  0  0  0
  185.2740  178.9350  144.0080 N   0  0  0  0  0  0  0  0  0  0  0  0
  182.6410  178.8380  143.1800 C   0  0  0  0  0  3  0  0  0  0  0  0
  184.2860  178.8890  144.9420 C   0  0  0  0  0  0  0  0  0  0  0  0
  182.9470  178.8400  144.5420 C   0  0  0  0  0  3  0  0  0  0  0  0
  184.6130  178.8940  146.3260 N   0  0  0  0  0  1  0  0  0  0  0  0
  188.7990  177.4400  140.3790 N   0  0  0  0  0  2  0  0  0  0  0  0
  190.1190  177.8330  139.9180 C   0  0  0  0  0  2  0  0  0  0  0  0
  190.2710  177.4750  138.5800 O   0  0  0  0  0  0  0  0  0  0  0  0
  189.4560  176.3540  138.4180 C   0  0  0  0  0  2  0  0  0  0  0  0
  189.2740  174.1400  136.8330 S   0  0  0  0  0  0  0  0  0  0  0  0
  187.4890  174.2960  136.5130 C   0  0  0  0  0  2  0  0  0  0  0  0
  189.4210  175.9490  136.9530 C   0  0  1  0  0  3  0  0  0  0  0  0
  188.1930  176.5000  136.3130 C   0  0  0  0  0  0  0  0  0  0  0  0
  187.2350  175.6640  136.1040 N   0  0  0  0  0  0  0  0  0  0  0  0
  187.3640  178.7940  136.6010 C   0  0  0  0  0  3  0  0  0  0  0  0
  186.7090  178.5310  137.8390 N   0  0  0  0  0  1  0  0  0  0  0  0
  188.0250  177.8820  135.9520 N   0  0  0  0  0  0  0  0  0  0  0  0
  1 14  1  0  0  0  0
  1  2  1  0  0  0  0
  2  4  1  0  0  0  0
  4  3  1  6  0  0  0
  4  5  1  0  0  0  0
  5 10  2  0  0  0  0
  5  7  1  0  0  0  0
  6  8  1  0  0  0  0
  7  6  2  0  0  0  0
  9 11  1  0  0  0  0
  9  8  2  0  0  0  0
 10  9  1  0  0  0  0
 11 12  1  0  0  0  0
 13 11  2  0  0  0  0
 15 14  1  0  0  0  0
 15 17  1  0  0  0  0
 16 17  2  0  0  0  0
 16 19  1  0  0  0  0
 17 18  1  0  0  0  0
 18 20  2  0  0  0  0
 19 21  2  0  0  0  0
 20 22  1  0  0  0  0
 21 20  1  0  0  0  0
 23  1  1  0  0  0  0
 24 23  1  0  0  0  0
 25 24  1  0  0  0  0
 26 25  1  0  0  0  0
 27 29  1  0  0  0  0
 28 27  1  0  0  0  0
 29 26  1  1  0  0  0
 30 29  1  0  0  0  0
 31 30  2  0  0  0  0
 31 28  1  0  0  0  0
 32 33  1  0  0  0  0
 34 30  1  0  0  0  0
 34 32  2  0  0  0  0
M  END
>  <MODEL>
4

>  <REMARK>
 VINA RESULT:      -8.0      1.496      2.018
  Name = 
  13 active torsions:
  status: ('A' for Active; 'I' for Inactive)
    1  A    between atoms: C_3  and  C_8
    2  A    between atoms: C_3  and  N_20
    3  A    between atoms: C_4  and  C_8
    4  A    between atoms: C_9  and  C_17
    5  A    between atoms: C_9  and  O_19
    6  A    between atoms: C_12  and  O_19
    7  A    between atoms: C_12  and  N_34
    8  A    between atoms: C_15  and  CA_26
    9  A    between atoms: C_16  and  N_20
   10  A    between atoms: C_16  and  C_32
   11  A    between atoms: C_18  and  C_32
   12  A    between atoms: N_20  and  N_34
   13  A    between atoms: C_21  and  N_30
                            x       y       z     vdW  Elec       q    Type
                         _______ _______ _______ _____ _____    ______ ____

>  <TORSDO>
F 13

$$$$
=
 OpenBabel10232409543D

 34 36  0  0  1  0  0  0  0  0999 V2000
  188.3930  178.3320  141.5510 N   0  0  0  0  0  0  0  0  0  0  0  0
  189.4490  178.0490  142.5210 C   0  0  0  0  0  2  0  0  0  0  0  0
  190.0720  175.7470  142.8420 O   0  0  0  0  0  1  0  0  0  0  0  0
  189.1910  176.7420  143.2710 C   0  0  1  0  0  3  0  0  0  0  0  0
  189.2740  176.9200  144.7550 C   0  0  0  0  0  0  0  0  0  0  0  0
  188.2940  177.6660  146.8270 C   0  0  0  0  0  3  0  0  0  0  0  0
  188.1880  177.4590  145.4510 C   0  0  0  0  0  3  0  0  0  0  0  0
  189.4780  177.3400  147.4910 C   0  0  0  0  0  3  0  0  0  0  0  0
  190.5500  176.8080  146.7640 C   0  0  0  0  0  0  0  0  0  0  0  0
  190.4230  176.6160  145.4220 N   0  0  0  0  0  0  0  0  0  0  0  0
  191.8060  176.4540  147.4410 C   0  0  0  0  0  0  0  0  0  0  0  0
  192.4610  175.4420  147.0740 O   0  0  0  0  0  0  0  0  0  0  0  0
  192.2820  177.2300  148.4920 O   0  0  0  0  0  1  0  0  0  0  0  0
  187.1000  177.9440  142.1280 C   0  0  0  0  0  2  0  0  0  0  0  0
  185.9310  178.8160  141.6590 C   0  0  0  0  0  2  0  0  0  0  0  0
  183.5090  178.8410  142.2900 C   0  0  0  0  0  3  0  0  0  0  0  0
  184.8510  178.8190  142.6850 C   0  0  0  0  0  0  0  0  0  0  0  0
  185.1720  178.8350  144.0080 N   0  0  0  0  0  0  0  0  0  0  0  0
  182.5120  178.8790  143.2670 C   0  0  0  0  0  3  0  0  0  0  0  0
  184.2140  178.8690  144.9740 C   0  0  0  0  0  0  0  0  0  0  0  0
  182.8630  178.8920  144.6180 C   0  0  0  0  0  3  0  0  0  0  0  0
  184.5870  178.8850  146.3460 N   0  0  0  0  0  1  0  0  0  0  0  0
  188.6340  177.5630  140.4010 N   0  0  0  0  0  2  0  0  0  0  0  0
  188.9100  178.4960  139.3210 C   0  0  0  0  0  2  0  0  0  0  0  0
  187.7300  178.7760  138.6350 O   0  0  0  0  0  0  0  0  0  0  0  0
  187.4180  177.5920  137.9650 C   0  0  0  0  0  2  0  0  0  0  0  0
  186.6450  177.0480  135.4050 S   0  0  0  0  0  0  0  0  0  0  0  0
  185.5840  175.6330  135.8370 C   0  0  0  0  0  2  0  0  0  0  0  0
  186.2660  177.8310  137.0030 C   0  0  1  0  0  3  0  0  0  0  0  0
  185.0420  177.1490  137.5110 C   0  0  0  0  0  0  0  0  0  0  0  0
  184.7180  176.0500  136.9220 N   0  0  0  0  0  0  0  0  0  0  0  0
  183.0760  178.1910  138.5480 C   0  0  0  0  0  3  0  0  0  0  0  0
  182.3780  178.3810  137.3200 N   0  0  0  0  0  1  0  0  0  0  0  0
  184.2480  177.6320  138.6080 N   0  0  0  0  0  0  0  0  0  0  0  0
  1 14  1  0  0  0  0
  1  2  1  0  0  0  0
  2  4  1  0  0  0  0
  4  3  1  6  0  0  0
  4  5  1  0  0  0  0
  5 10  2  0  0  0  0
  5  7  1  0  0  0  0
  6  8  1  0  0  0  0
  7  6  2  0  0  0  0
  9 11  1  0  0  0  0
  9  8  2  0  0  0  0
 10  9  1  0  0  0  0
 11 13  1  0  0  0  0
 12 11  2  0  0  0  0
 15 14  1  0  0  0  0
 15 17  1  0  0  0  0
 16 17  2  0  0  0  0
 16 19  1  0  0  0  0
 17 18  1  0  0  0  0
 18 20  2  0  0  0  0
 19 21  2  0  0  0  0
 20 22  1  0  0  0  0
 21 20  1  0  0  0  0
 23  1  1  0  0  0  0
 24 23  1  0  0  0  0
 25 24  1  0  0  0  0
 26 25  1  0  0  0  0
 27 28  1  0  0  0  0
 27 29  1  0  0  0  0
 28 31  1  0  0  0  0
 29 30  1  0  0  0  0
 29 26  1  1  0  0  0
 30 34  1  0  0  0  0
 31 30  2  0  0  0  0
 32 34  2  0  0  0  0
 33 32  1  0  0  0  0
M  END
>  <MODEL>
5

>  <REMARK>
 VINA RESULT:      -7.9      2.191      3.010
  Name = 
  13 active torsions:
  status: ('A' for Active; 'I' for Inactive)
    1  A    between atoms: C_3  and  C_8
    2  A    between atoms: C_3  and  N_20
    3  A    between atoms: C_4  and  C_8
    4  A    between atoms: C_9  and  C_17
    5  A    between atoms: C_9  and  O_19
    6  A    between atoms: C_12  and  O_19
    7  A    between atoms: C_12  and  N_34
    8  A    between atoms: C_15  and  CA_26
    9  A    between atoms: C_16  and  N_20
   10  A    between atoms: C_16  and  C_32
   11  A    between atoms: C_18  and  C_32
   12  A    between atoms: N_20  and  N_34
   13  A    between atoms: C_21  and  N_30
                            x       y       z     vdW  Elec       q    Type
                         _______ _______ _______ _____ _____    ______ ____

>  <TORSDO>
F 13

$$$$
=
 OpenBabel10232409543D

 34 36  0  0  1  0  0  0  0  0999 V2000
  189.9750  176.9910  141.6330 N   0  0  0  0  0  0  0  0  0  0  0  0
  190.4450  176.1900  142.7600 C   0  0  0  0  0  2  0  0  0  0  0  0
  191.4510  178.3210  143.2490 O   0  0  0  0  0  1  0  0  0  0  0  0
  191.3060  177.0130  143.7180 C   0  0  1  0  0  3  0  0  0  0  0  0
  190.7610  177.0060  145.1120 C   0  0  0  0  0  0  0  0  0  0  0  0
  191.0340  176.5350  147.4600 C   0  0  0  0  0  3  0  0  0  0  0  0
  191.5680  176.5840  146.1720 C   0  0  0  0  0  3  0  0  0  0  0  0
  189.7050  176.9000  147.6760 C   0  0  0  0  0  3  0  0  0  0  0  0
  188.9200  177.3130  146.5930 C   0  0  0  0  0  0  0  0  0  0  0  0
  189.4630  177.3510  145.3450 N   0  0  0  0  0  0  0  0  0  0  0  0
  187.5170  177.7050  146.7960 C   0  0  0  0  0  0  0  0  0  0  0  0
  187.1990  178.4380  147.7700 O   0  0  0  0  0  1  0  0  0  0  0  0
  186.5310  177.2690  145.9180 O   0  0  0  0  0  0  0  0  0  0  0  0
  188.5110  177.0860  141.6950 C   0  0  0  0  0  2  0  0  0  0  0  0
  188.0030  178.4640  142.1320 C   0  0  0  0  0  2  0  0  0  0  0  0
  185.6220  178.0680  142.7950 C   0  0  0  0  0  3  0  0  0  0  0  0
  186.5400  178.5760  141.8710 C   0  0  0  0  0  0  0  0  0  0  0  0
  186.0990  179.1440  140.7150 N   0  0  0  0  0  0  0  0  0  0  0  0
  184.2560  178.1510  142.5150 C   0  0  0  0  0  3  0  0  0  0  0  0
  184.7730  179.2370  140.4260 C   0  0  0  0  0  0  0  0  0  0  0  0
  183.8250  178.7400  141.3250 C   0  0  0  0  0  3  0  0  0  0  0  0
  184.3490  179.8380  139.2090 N   0  0  0  0  0  1  0  0  0  0  0  0
  190.3450  176.3410  140.4440 N   0  0  0  0  0  2  0  0  0  0  0  0
  191.1580  177.2780  139.6880 C   0  0  0  0  0  2  0  0  0  0  0  0
  191.9780  176.5760  138.8060 O   0  0  0  0  0  0  0  0  0  0  0  0
  191.1050  175.7680  138.0760 C   0  0  0  0  0  2  0  0  0  0  0  0
  191.2340  175.9460  135.3570 S   0  0  0  0  0  0  0  0  0  0  0  0
  189.7330  174.9640  135.0420 C   0  0  0  0  0  2  0  0  0  0  0  0
  190.5200  176.5550  136.9150 C   0  0  1  0  0  3  0  0  0  0  0  0
  189.0560  176.2940  136.8220 C   0  0  0  0  0  0  0  0  0  0  0  0
  188.6790  175.4940  135.8850 N   0  0  0  0  0  0  0  0  0  0  0  0
  187.8770  178.1140  137.9740 C   0  0  0  0  0  3  0  0  0  0  0  0
  188.6210  179.1550  137.3470 N   0  0  0  0  0  1  0  0  0  0  0  0
  188.0800  176.8560  137.7150 N   0  0  0  0  0  0  0  0  0  0  0  0
  1 14  1  0  0  0  0
  1  2  1  0  0  0  0
  2  4  1  0  0  0  0
  4  3  1  6  0  0  0
  4  5  1  0  0  0  0
  5 10  2  0  0  0  0
  5  7  1  0  0  0  0
  6  8  1  0  0  0  0
  7  6  2  0  0  0  0
  9 11  1  0  0  0  0
  9  8  2  0  0  0  0
 10  9  1  0  0  0  0
 11 12  1  0  0  0  0
 13 11  2  0  0  0  0
 14 15  1  0  0  0  0
 17 15  1  0  0  0  0
 17 16  2  0  0  0  0
 18 17  1  0  0  0  0
 19 16  1  0  0  0  0
 20 18  2  0  0  0  0
 20 21  1  0  0  0  0
 21 19  2  0  0  0  0
 22 20  1  0  0  0  0
 23  1  1  0  0  0  0
 24 23  1  0  0  0  0
 25 24  1  0  0  0  0
 26 25  1  0  0  0  0
 27 29  1  0  0  0  0
 28 27  1  0  0  0  0
 28 31  1  0  0  0  0
 29 26  1  1  0  0  0
 30 29  1  0  0  0  0
 30 34  1  0  0  0  0
 31 30  2  0  0  0  0
 33 32  1  0  0  0  0
 34 32  2  0  0  0  0
M  END
>  <MODEL>
6

>  <REMARK>
 VINA RESULT:      -7.8      2.450      3.377
  Name = 
  13 active torsions:
  status: ('A' for Active; 'I' for Inactive)
    1  A    between atoms: C_3  and  C_8
    2  A    between atoms: C_3  and  N_20
    3  A    between atoms: C_4  and  C_8
    4  A    between atoms: C_9  and  C_17
    5  A    between atoms: C_9  and  O_19
    6  A    between atoms: C_12  and  O_19
    7  A    between atoms: C_12  and  N_34
    8  A    between atoms: C_15  and  CA_26
    9  A    between atoms: C_16  and  N_20
   10  A    between atoms: C_16  and  C_32
   11  A    between atoms: C_18  and  C_32
   12  A    between atoms: N_20  and  N_34
   13  A    between atoms: C_21  and  N_30
                            x       y       z     vdW  Elec       q    Type
                         _______ _______ _______ _____ _____    ______ ____

>  <TORSDO>
F 13

$$$$
=
 OpenBabel10232409543D

 34 36  0  0  1  0  0  0  0  0999 V2000
  189.3690  177.8120  141.6570 N   0  0  0  0  0  0  0  0  0  0  0  0
  189.8580  176.8370  142.6290 C   0  0  0  0  0  2  0  0  0  0  0  0
  191.2030  178.7410  143.2250 O   0  0  0  0  0  1  0  0  0  0  0  0
  191.0750  177.3610  143.3910 C   0  0  1  0  0  3  0  0  0  0  0  0
  191.0240  177.0040  144.8440 C   0  0  0  0  0  0  0  0  0  0  0  0
  191.9030  175.7810  146.7270 C   0  0  0  0  0  3  0  0  0  0  0  0
  191.9880  176.1460  145.3830 C   0  0  0  0  0  3  0  0  0  0  0  0
  190.8590  176.2680  147.5150 C   0  0  0  0  0  3  0  0  0  0  0  0
  189.9060  177.1200  146.9450 C   0  0  0  0  0  0  0  0  0  0  0  0
  190.0090  177.4610  145.6310 N   0  0  0  0  0  0  0  0  0  0  0  0
  188.7980  177.6470  147.7550 C   0  0  0  0  0  0  0  0  0  0  0  0
  187.6510  177.1330  147.6720 O   0  0  0  0  0  0  0  0  0  0  0  0
  189.0060  178.7180  148.6180 O   0  0  0  0  0  1  0  0  0  0  0  0
  188.0090  178.2170  142.0310 C   0  0  0  0  0  2  0  0  0  0  0  0
  187.3370  177.2650  143.0260 C   0  0  0  0  0  2  0  0  0  0  0  0
  185.1170  178.3930  142.7700 C   0  0  0  0  0  3  0  0  0  0  0  0
  186.1240  177.9060  143.6090 C   0  0  0  0  0  0  0  0  0  0  0  0
  186.0150  178.0500  144.9580 N   0  0  0  0  0  0  0  0  0  0  0  0
  184.0060  179.0230  143.3350 C   0  0  0  0  0  3  0  0  0  0  0  0
  184.9390  178.6570  145.5270 C   0  0  0  0  0  0  0  0  0  0  0  0
  183.9110  179.1560  144.7210 C   0  0  0  0  0  3  0  0  0  0  0  0
  184.8580  178.7880  146.9400 N   0  0  0  0  0  1  0  0  0  0  0  0
  189.3370  177.1990  140.3940 N   0  0  0  0  0  2  0  0  0  0  0  0
  188.7770  178.1680  139.4690 C   0  0  0  0  0  2  0  0  0  0  0  0
  189.6450  178.3400  138.3920 O   0  0  0  0  0  0  0  0  0  0  0  0
  188.8140  178.6060  137.3030 C   0  0  0  0  0  2  0  0  0  0  0  0
  190.4810  176.5480  136.6440 S   0  0  0  0  0  0  0  0  0  0  0  0
  189.3930  175.2300  137.2700 C   0  0  0  0  0  2  0  0  0  0  0  0
  189.0290  177.5590  136.2220 C   0  0  1  0  0  3  0  0  0  0  0  0
  187.8710  176.6200  136.2000 C   0  0  0  0  0  0  0  0  0  0  0  0
  188.0670  175.4630  136.7320 N   0  0  0  0  0  0  0  0  0  0  0  0
  185.5080  177.2780  136.3050 C   0  0  0  0  0  3  0  0  0  0  0  0
  185.4780  177.3970  137.7250 N   0  0  0  0  0  1  0  0  0  0  0  0
  186.5820  176.9450  135.6530 N   0  0  0  0  0  0  0  0  0  0  0  0
  1 14  1  0  0  0  0
  1  2  1  0  0  0  0
  2  4  1  0  0  0  0
  4  3  1  1  0  0  0
  4  5  1  0  0  0  0
  5  7  2  0  0  0  0
  5 10  1  0  0  0  0
  6  8  2  0  0  0  0
  7  6  1  0  0  0  0
  9  8  1  0  0  0  0
  9 11  1  0  0  0  0
 10  9  2  0  0  0  0
 11 13  1  0  0  0  0
 12 11  2  0  0  0  0
 14 15  1  0  0  0  0
 15 17  1  0  0  0  0
 16 19  2  0  0  0  0
 16 17  1  0  0  0  0
 17 18  2  0  0  0  0
 18 20  1  0  0  0  0
 19 21  1  0  0  0  0
 20 22  1  0  0  0  0
 21 20  2  0  0  0  0
 23  1  1  0  0  0  0
 24 23  1  0  0  0  0
 25 24  1  0  0  0  0
 26 25  1  0  0  0  0
 27 28  1  0  0  0  0
 29 27  1  0  0  0  0
 29 26  1  1  0  0  0
 30 29  1  0  0  0  0
 30 31  2  0  0  0  0
 31 28  1  0  0  0  0
 32 33  1  0  0  0  0
 34 30  1  0  0  0  0
 34 32  2  0  0  0  0
M  END
>  <MODEL>
7

>  <REMARK>
 VINA RESULT:      -7.7      2.053      2.842
  Name = 
  13 active torsions:
  status: ('A' for Active; 'I' for Inactive)
    1  A    between atoms: C_3  and  C_8
    2  A    between atoms: C_3  and  N_20
    3  A    between atoms: C_4  and  C_8
    4  A    between atoms: C_9  and  C_17
    5  A    between atoms: C_9  and  O_19
    6  A    between atoms: C_12  and  O_19
    7  A    between atoms: C_12  and  N_34
    8  A    between atoms: C_15  and  CA_26
    9  A    between atoms: C_16  and  N_20
   10  A    between atoms: C_16  and  C_32
   11  A    between atoms: C_18  and  C_32
   12  A    between atoms: N_20  and  N_34
   13  A    between atoms: C_21  and  N_30
                            x       y       z     vdW  Elec       q    Type
                         _______ _______ _______ _____ _____    ______ ____

>  <TORSDO>
F 13

$$$$
=
 OpenBabel10232409543D

 34 36  0  0  1  0  0  0  0  0999 V2000
  189.4540  177.8160  141.5700 N   0  0  0  0  0  0  0  0  0  0  0  0
  189.9590  176.9250  142.6120 C   0  0  0  0  0  2  0  0  0  0  0  0
  191.0190  178.9970  143.2260 O   0  0  0  0  0  1  0  0  0  0  0  0
  190.9560  177.6350  143.5280 C   0  0  1  0  0  3  0  0  0  0  0  0
  190.6350  177.4270  144.9750 C   0  0  0  0  0  0  0  0  0  0  0  0
  189.1220  177.6720  146.8360 C   0  0  0  0  0  3  0  0  0  0  0  0
  189.3920  177.8250  145.4750 C   0  0  0  0  0  3  0  0  0  0  0  0
  190.0920  177.1310  147.6810 C   0  0  0  0  0  3  0  0  0  0  0  0
  191.3300  176.7490  147.1510 C   0  0  0  0  0  0  0  0  0  0  0  0
  191.5700  176.9090  145.8200 N   0  0  0  0  0  0  0  0  0  0  0  0
  192.3670  176.1750  148.0210 C   0  0  0  0  0  0  0  0  0  0  0  0
  192.7270  174.9760  147.8710 O   0  0  0  0  0  0  0  0  0  0  0  0
  192.9580  176.9460  149.0160 O   0  0  0  0  0  1  0  0  0  0  0  0
  188.0230  178.0520  141.7970 C   0  0  0  0  0  2  0  0  0  0  0  0
  187.4330  177.2020  142.9270 C   0  0  0  0  0  2  0  0  0  0  0  0
  185.1860  178.2340  142.5330 C   0  0  0  0  0  3  0  0  0  0  0  0
  186.1760  177.8240  143.4320 C   0  0  0  0  0  0  0  0  0  0  0  0
  186.0080  178.0240  144.7680 N   0  0  0  0  0  0  0  0  0  0  0  0
  184.0320  178.8460  143.0240 C   0  0  0  0  0  3  0  0  0  0  0  0
  184.8880  178.6160  145.2650 C   0  0  0  0  0  0  0  0  0  0  0  0
  183.8770  179.0390  144.3980 C   0  0  0  0  0  3  0  0  0  0  0  0
  184.7460  178.8080  146.6670 N   0  0  0  0  0  1  0  0  0  0  0  0
  189.6260  177.1850  140.3280 N   0  0  0  0  0  2  0  0  0  0  0  0
  191.0570  177.1130  140.0860 C   0  0  0  0  0  2  0  0  0  0  0  0
  191.2880  176.6900  138.7780 O   0  0  0  0  0  0  0  0  0  0  0  0
  190.2070  175.8600  138.4770 C   0  0  0  0  0  2  0  0  0  0  0  0
  189.4570  174.0170  136.6110 S   0  0  0  0  0  0  0  0  0  0  0  0
  187.7930  174.7050  136.3390 C   0  0  0  0  0  2  0  0  0  0  0  0
  190.0970  175.6800  136.9720 C   0  0  1  0  0  3  0  0  0  0  0  0
  189.0860  176.6330  136.4290 C   0  0  0  0  0  0  0  0  0  0  0  0
  187.9400  176.1310  136.1220 N   0  0  0  0  0  0  0  0  0  0  0  0
  188.8270  179.0130  136.9710 C   0  0  0  0  0  3  0  0  0  0  0  0
  187.9710  178.7910  138.0880 N   0  0  0  0  0  1  0  0  0  0  0  0
  189.3170  178.0410  136.2600 N   0  0  0  0  0  0  0  0  0  0  0  0
  1 14  1  0  0  0  0
  1  2  1  0  0  0  0
  2  4  1  0  0  0  0
  4  3  1  6  0  0  0
  4  5  1  0  0  0  0
  5  7  2  0  0  0  0
  5 10  1  0  0  0  0
  6  8  2  0  0  0  0
  7  6  1  0  0  0  0
  9  8  1  0  0  0  0
  9 11  1  0  0  0  0
 10  9  2  0  0  0  0
 11 13  1  0  0  0  0
 12 11  2  0  0  0  0
 14 15  1  0  0  0  0
 15 17  1  0  0  0  0
 16 19  2  0  0  0  0
 16 17  1  0  0  0  0
 17 18  2  0  0  0  0
 18 20  1  0  0  0  0
 19 21  1  0  0  0  0
 20 22  1  0  0  0  0
 21 20  2  0  0  0  0
 23  1  1  0  0  0  0
 24 23  1  0  0  0  0
 25 24  1  0  0  0  0
 26 25  1  0  0  0  0
 27 29  1  0  0  0  0
 28 27  1  0  0  0  0
 29 26  1  1  0  0  0
 30 29  1  0  0  0  0
 31 28  1  0  0  0  0
 31 30  2  0  0  0  0
 32 33  1  0  0  0  0
 34 30  1  0  0  0  0
 34 32  2  0  0  0  0
M  END
>  <MODEL>
8

>  <REMARK>
 VINA RESULT:      -7.7      1.781      2.363
  Name = 
  13 active torsions:
  status: ('A' for Active; 'I' for Inactive)
    1  A    between atoms: C_3  and  C_8
    2  A    between atoms: C_3  and  N_20
    3  A    between atoms: C_4  and  C_8
    4  A    between atoms: C_9  and  C_17
    5  A    between atoms: C_9  and  O_19
    6  A    between atoms: C_12  and  O_19
    7  A    between atoms: C_12  and  N_34
    8  A    between atoms: C_15  and  CA_26
    9  A    between atoms: C_16  and  N_20
   10  A    between atoms: C_16  and  C_32
   11  A    between atoms: C_18  and  C_32
   12  A    between atoms: N_20  and  N_34
   13  A    between atoms: C_21  and  N_30
                            x       y       z     vdW  Elec       q    Type
                         _______ _______ _______ _____ _____    ______ ____

>  <TORSDO>
F 13

$$$$
=
 OpenBabel10232409543D

 34 36  0  0  1  0  0  0  0  0999 V2000
  190.0810  176.8860  142.0860 N   0  0  0  0  0  0  0  0  0  0  0  0
  188.8610  177.6880  142.1120 C   0  0  0  0  0  2  0  0  0  0  0  0
  188.0920  175.9880  143.6320 O   0  0  0  0  0  1  0  0  0  0  0  0
  187.6730  176.8930  142.6540 C   0  0  1  0  0  3  0  0  0  0  0  0
  186.5940  177.7850  143.1850 C   0  0  0  0  0  0  0  0  0  0  0  0
  184.8560  179.4120  142.8080 C   0  0  0  0  0  3  0  0  0  0  0  0
  185.8250  178.5470  142.3000 C   0  0  0  0  0  3  0  0  0  0  0  0
  184.6670  179.5130  144.1870 C   0  0  0  0  0  3  0  0  0  0  0  0
  185.4580  178.7410  145.0470 C   0  0  0  0  0  0  0  0  0  0  0  0
  186.3990  177.9050  144.5280 N   0  0  0  0  0  0  0  0  0  0  0  0
  185.2770  178.8280  146.5040 C   0  0  0  0  0  0  0  0  0  0  0  0
  184.5050  178.0260  147.0950 O   0  0  0  0  0  0  0  0  0  0  0  0
  185.9510  179.7960  147.2410 O   0  0  0  0  0  1  0  0  0  0  0  0
  191.1780  177.6700  142.6660 C   0  0  0  0  0  2  0  0  0  0  0  0
  190.7340  178.6050  143.7970 C   0  0  0  0  0  2  0  0  0  0  0  0
  191.6990  176.9970  145.4550 C   0  0  0  0  0  3  0  0  0  0  0  0
  190.6590  177.8540  145.0820 C   0  0  0  0  0  0  0  0  0  0  0  0
  189.5600  177.9760  145.8750 N   0  0  0  0  0  0  0  0  0  0  0  0
  191.5930  176.2750  146.6460 C   0  0  0  0  0  3  0  0  0  0  0  0
  189.4400  177.2840  147.0400 C   0  0  0  0  0  0  0  0  0  0  0  0
  190.4590  176.4180  147.4470 C   0  0  0  0  0  3  0  0  0  0  0  0
  188.2770  177.4380  147.8440 N   0  0  0  0  0  1  0  0  0  0  0  0
  190.3850  176.5870  140.7480 N   0  0  0  0  0  2  0  0  0  0  0  0
  191.6180  177.2870  140.4300 C   0  0  0  0  0  2  0  0  0  0  0  0
  191.7140  177.4560  139.0500 O   0  0  0  0  0  0  0  0  0  0  0  0
  191.0400  176.3610  138.5090 C   0  0  0  0  0  2  0  0  0  0  0  0
  190.8050  175.8980  135.8300 S   0  0  0  0  0  0  0  0  0  0  0  0
  189.3980  174.7500  135.9710 C   0  0  0  0  0  2  0  0  0  0  0  0
  190.2280  176.7990  137.3010 C   0  0  1  0  0  3  0  0  0  0  0  0
  188.8030  176.4040  137.4890 C   0  0  0  0  0  0  0  0  0  0  0  0
  188.4050  175.3760  136.8210 N   0  0  0  0  0  0  0  0  0  0  0  0
  187.3160  178.2320  138.1790 C   0  0  0  0  0  3  0  0  0  0  0  0
  187.5120  179.0010  136.9960 N   0  0  0  0  0  1  0  0  0  0  0  0
  187.8890  177.0810  138.3680 N   0  0  0  0  0  0  0  0  0  0  0  0
  1  2  1  0  0  0  0
  1 14  1  0  0  0  0
  2  4  1  0  0  0  0
  4  5  1  0  0  0  0
  4  3  1  1  0  0  0
  5 10  1  0  0  0  0
  6  8  2  0  0  0  0
  7  6  1  0  0  0  0
  7  5  2  0  0  0  0
  8  9  1  0  0  0  0
  9 11  1  0  0  0  0
 10  9  2  0  0  0  0
 11 12  2  0  0  0  0
 11 13  1  0  0  0  0
 14 15  1  0  0  0  0
 15 17  1  0  0  0  0
 16 19  1  0  0  0  0
 17 16  2  0  0  0  0
 17 18  1  0  0  0  0
 18 20  2  0  0  0  0
 19 21  2  0  0  0  0
 20 21  1  0  0  0  0
 20 22  1  0  0  0  0
 23  1  1  0  0  0  0
 24 23  1  0  0  0  0
 25 24  1  0  0  0  0
 26 25  1  0  0  0  0
 27 28  1  0  0  0  0
 27 29  1  0  0  0  0
 28 31  1  0  0  0  0
 29 30  1  0  0  0  0
 29 26  1  1  0  0  0
 30 34  1  0  0  0  0
 31 30  2  0  0  0  0
 32 34  2  0  0  0  0
 33 32  1  0  0  0  0
M  END
>  <MODEL>
9

>  <REMARK>
 VINA RESULT:      -7.6      2.561      5.069
  Name = 
  13 active torsions:
  status: ('A' for Active; 'I' for Inactive)
    1  A    between atoms: C_3  and  C_8
    2  A    between atoms: C_3  and  N_20
    3  A    between atoms: C_4  and  C_8
    4  A    between atoms: C_9  and  C_17
    5  A    between atoms: C_9  and  O_19
    6  A    between atoms: C_12  and  O_19
    7  A    between atoms: C_12  and  N_34
    8  A    between atoms: C_15  and  CA_26
    9  A    between atoms: C_16  and  N_20
   10  A    between atoms: C_16  and  C_32
   11  A    between atoms: C_18  and  C_32
   12  A    between atoms: N_20  and  N_34
   13  A    between atoms: C_21  and  N_30
                            x       y       z     vdW  Elec       q    Type
                         _______ _______ _______ _____ _____    ______ ____

>  <TORSDO>
F 13

$$$$
