=
 OpenBabel10232409453D

 25 28  0  0  0  0  0  0  0  0999 V2000
  191.8770  176.0850  145.6820 C   0  0  0  0  0  3  0  0  0  0  0  0
  188.1890  176.9240  141.8180 O   0  0  0  0  0  0  0  0  0  0  0  0
  189.4030  177.3360  144.3520 C   0  0  0  0  0  0  0  0  0  0  0  0
  191.7800  175.3650  144.5660 C   0  0  0  0  0  0  0  0  0  0  0  0
  189.9870  177.6710  145.5080 C   0  0  0  0  0  3  0  0  0  0  0  0
  185.7530  178.4530  144.6380 N   0  0  0  0  0  0  0  0  0  0  0  0
  191.1470  175.8520  143.3230 C   0  0  0  0  0  3  0  0  0  0  0  0
  188.0160  177.7830  144.0420 C   0  0  0  0  0  0  0  0  0  0  0  0
  191.4440  177.5060  145.7870 C   0  0  0  0  0  2  0  0  0  0  0  0
  187.7050  178.0050  142.5810 C   0  0  0  0  0  2  0  0  0  0  0  0
  190.1390  176.7330  143.2120 C   0  0  0  0  0  0  0  0  0  0  0  0
  185.8540  178.1470  146.9060 N   0  0  0  0  0  0  0  0  0  0  0  0
  183.7510  178.9330  145.8190 N   0  0  0  0  0  1  0  0  0  0  0  0
  189.5470  176.9570  141.9230 N   0  0  0  0  0  0  0  0  0  0  0  0
  187.1820  177.7850  146.4380 C   0  0  0  0  0  3  0  0  0  0  0  0
  192.3190  174.0860  144.5610 O   0  0  0  0  0  1  0  0  0  0  0  0
  187.0640  178.0070  144.9650 C   0  0  0  0  0  0  0  0  0  0  0  0
  185.1110  178.5180  145.7520 C   0  0  0  0  0  0  0  0  0  0  0  0
  190.3580  177.1910  140.7330 C   0  0  0  0  0  2  0  0  0  0  0  0
  190.3640  175.4710  137.4340 C   0  0  0  0  0  2  0  0  0  0  0  0
  189.7710  176.4640  139.5320 C   0  0  0  0  0  3  0  0  0  0  0  0
  188.9820  177.4050  138.7150 N   0  0  0  0  0  2  0  0  0  0  0  0
  190.8410  175.7930  138.7750 N   0  0  0  0  0  2  0  0  0  0  0  0
  189.7590  177.9060  137.5830 C   0  0  0  0  0  2  0  0  0  0  0  0
  190.1220  176.7560  136.6430 C   0  0  0  0  0  2  0  0  0  0  0  0
  1  9  1  0  0  0  0
  2 14  1  0  0  0  0
  2 10  1  0  0  0  0
  3  5  2  0  0  0  0
  4  1  2  0  0  0  0
  5  9  1  0  0  0  0
  6 17  1  0  0  0  0
  6 18  2  0  0  0  0
  7  4  1  0  0  0  0
  8  3  1  0  0  0  0
  8 17  2  0  0  0  0
 10  8  1  0  0  0  0
 11  7  2  0  0  0  0
 11  3  1  0  0  0  0
 14 11  1  0  0  0  0
 15 12  2  0  0  0  0
 16  4  1  0  0  0  0
 17 15  1  0  0  0  0
 18 13  1  0  0  0  0
 18 12  1  0  0  0  0
 19 14  1  0  0  0  0
 20 23  1  0  0  0  0
 21 19  1  0  0  0  0
 22 21  1  0  0  0  0
 23 21  1  0  0  0  0
 24 22  1  0  0  0  0
 25 20  1  0  0  0  0
 25 24  1  0  0  0  0
M  END
>  <MODEL>
1

>  <REMARK>
 VINA RESULT:      -8.5      0.000      0.000
  Name = 
  2 active torsions:
  status: ('A' for Active; 'I' for Inactive)
    1  A    between atoms: C_2  and  C_11
    2  A    between atoms: C_11  and  N_21
                            x       y       z     vdW  Elec       q    Type
                         _______ _______ _______ _____ _____    ______ ____

>  <TORSDO>
F 2

$$$$
=
 OpenBabel10232409453D

 25 28  0  0  0  0  0  0  0  0999 V2000
  185.7850  178.2360  143.1810 C   0  0  0  0  0  3  0  0  0  0  0  0
  190.9660  177.2350  142.0040 O   0  0  0  0  0  0  0  0  0  0  0  0
  188.6120  177.0980  143.5860 C   0  0  0  0  0  0  0  0  0  0  0  0
  186.4390  178.7700  142.1510 C   0  0  0  0  0  0  0  0  0  0  0  0
  187.5150  176.8870  144.3230 C   0  0  0  0  0  3  0  0  0  0  0  0
  191.5910  176.4990  145.9140 N   0  0  0  0  0  0  0  0  0  0  0  0
  187.6390  178.1680  141.5350 C   0  0  0  0  0  3  0  0  0  0  0  0
  189.9640  176.7790  144.1260 C   0  0  0  0  0  0  0  0  0  0  0  0
  186.1260  176.9150  143.7790 C   0  0  0  0  0  2  0  0  0  0  0  0
  191.0000  176.3620  143.1090 C   0  0  0  0  0  2  0  0  0  0  0  0
  188.5720  177.4110  142.1350 C   0  0  0  0  0  0  0  0  0  0  0  0
  190.3090  177.1570  147.6960 N   0  0  0  0  0  0  0  0  0  0  0  0
  192.6850  176.4680  148.0200 N   0  0  0  0  0  1  0  0  0  0  0  0
  189.7560  177.0540  141.4050 N   0  0  0  0  0  0  0  0  0  0  0  0
  189.4180  177.2710  146.5540 C   0  0  0  0  0  3  0  0  0  0  0  0
  185.9580  179.9550  141.6120 O   0  0  0  0  0  1  0  0  0  0  0  0
  190.2950  176.8280  145.4280 C   0  0  0  0  0  0  0  0  0  0  0  0
  191.5550  176.6960  147.1870 C   0  0  0  0  0  0  0  0  0  0  0  0
  189.6940  176.5310  140.0450 C   0  0  0  0  0  2  0  0  0  0  0  0
  189.0770  179.0070  137.3380 C   0  0  0  0  0  2  0  0  0  0  0  0
  190.0370  177.6170  139.0360 C   0  0  0  0  0  3  0  0  0  0  0  0
  190.8300  177.0410  137.9330 N   0  0  0  0  0  2  0  0  0  0  0  0
  188.8090  178.2900  138.5800 N   0  0  0  0  0  2  0  0  0  0  0  0
  189.9870  176.7320  136.7790 C   0  0  0  0  0  2  0  0  0  0  0  0
  189.3750  178.0150  136.2150 C   0  0  0  0  0  2  0  0  0  0  0  0
  1  9  1  0  0  0  0
  2 10  1  0  0  0  0
  3  8  1  0  0  0  0
  3  5  2  0  0  0  0
  4  1  2  0  0  0  0
  6 18  2  0  0  0  0
  7 11  2  0  0  0  0
  7  4  1  0  0  0  0
  8 17  2  0  0  0  0
  9  5  1  0  0  0  0
 10  8  1  0  0  0  0
 11  3  1  0  0  0  0
 14  2  1  0  0  0  0
 14 11  1  0  0  0  0
 15 12  2  0  0  0  0
 16  4  1  0  0  0  0
 17  6  1  0  0  0  0
 17 15  1  0  0  0  0
 18 12  1  0  0  0  0
 18 13  1  0  0  0  0
 19 14  1  0  0  0  0
 20 23  1  0  0  0  0
 21 19  1  0  0  0  0
 22 21  1  0  0  0  0
 23 21  1  0  0  0  0
 24 22  1  0  0  0  0
 25 24  1  0  0  0  0
 25 20  1  0  0  0  0
M  END
>  <MODEL>
2

>  <REMARK>
 VINA RESULT:      -7.9      2.547      4.576
  Name = 
  2 active torsions:
  status: ('A' for Active; 'I' for Inactive)
    1  A    between atoms: C_2  and  C_11
    2  A    between atoms: C_11  and  N_21
                            x       y       z     vdW  Elec       q    Type
                         _______ _______ _______ _____ _____    ______ ____

>  <TORSDO>
F 2

$$$$
=
 OpenBabel10232409453D

 25 28  0  0  0  0  0  0  0  0999 V2000
  191.2670  176.6470  145.1800 C   0  0  0  0  0  3  0  0  0  0  0  0
  189.1490  176.9340  140.2130 O   0  0  0  0  0  0  0  0  0  0  0  0
  189.3470  177.5860  142.9700 C   0  0  0  0  0  0  0  0  0  0  0  0
  191.6260  175.8660  144.1630 C   0  0  0  0  0  0  0  0  0  0  0  0
  189.4540  178.0340  144.2260 C   0  0  0  0  0  3  0  0  0  0  0  0
  185.7640  178.3600  141.8660 N   0  0  0  0  0  0  0  0  0  0  0  0
  191.4450  176.2270  142.7420 C   0  0  0  0  0  3  0  0  0  0  0  0
  188.1330  177.8820  142.1580 C   0  0  0  0  0  0  0  0  0  0  0  0
  190.7240  178.0240  145.0110 C   0  0  0  0  0  2  0  0  0  0  0  0
  188.3480  178.0000  140.6670 C   0  0  0  0  0  2  0  0  0  0  0  0
  190.4820  177.0010  142.2130 C   0  0  0  0  0  0  0  0  0  0  0  0
  185.0720  178.1800  144.0420 N   0  0  0  0  0  0  0  0  0  0  0  0
  183.4430  178.7050  142.2270 N   0  0  0  0  0  1  0  0  0  0  0  0
  190.3740  177.1010  140.7850 N   0  0  0  0  0  0  0  0  0  0  0  0
  186.5020  177.9240  144.1000 C   0  0  0  0  0  3  0  0  0  0  0  0
  192.2220  174.6460  144.4510 O   0  0  0  0  0  1  0  0  0  0  0  0
  186.9010  178.0590  142.6670 C   0  0  0  0  0  0  0  0  0  0  0  0
  184.7640  178.4200  142.6750 C   0  0  0  0  0  0  0  0  0  0  0  0
  191.5370  177.3530  139.9400 C   0  0  0  0  0  2  0  0  0  0  0  0
  191.0900  174.5870  137.4920 C   0  0  0  0  0  2  0  0  0  0  0  0
  191.3570  176.7070  138.5740 C   0  0  0  0  0  3  0  0  0  0  0  0
  192.6180  176.7900  137.8130 N   0  0  0  0  0  2  0  0  0  0  0  0
  190.8590  175.3300  138.7260 N   0  0  0  0  0  2  0  0  0  0  0  0
  193.3770  175.5440  137.9060 C   0  0  0  0  0  2  0  0  0  0  0  0
  192.5900  174.3990  137.2680 C   0  0  0  0  0  2  0  0  0  0  0  0
  2 10  1  0  0  0  0
  2 14  1  0  0  0  0
  3  5  2  0  0  0  0
  4 16  1  0  0  0  0
  4  1  2  0  0  0  0
  5  9  1  0  0  0  0
  6 17  1  0  0  0  0
  6 18  2  0  0  0  0
  7  4  1  0  0  0  0
  8 17  2  0  0  0  0
  8  3  1  0  0  0  0
  9  1  1  0  0  0  0
 10  8  1  0  0  0  0
 11  7  2  0  0  0  0
 11  3  1  0  0  0  0
 12 15  2  0  0  0  0
 13 18  1  0  0  0  0
 14 11  1  0  0  0  0
 17 15  1  0  0  0  0
 18 12  1  0  0  0  0
 19 14  1  0  0  0  0
 20 23  1  0  0  0  0
 21 23  1  0  0  0  0
 21 19  1  0  0  0  0
 22 24  1  0  0  0  0
 22 21  1  0  0  0  0
 25 20  1  0  0  0  0
 25 24  1  0  0  0  0
M  END
>  <MODEL>
3

>  <REMARK>
 VINA RESULT:      -7.8      1.723      2.234
  Name = 
  2 active torsions:
  status: ('A' for Active; 'I' for Inactive)
    1  A    between atoms: C_2  and  C_11
    2  A    between atoms: C_11  and  N_21
                            x       y       z     vdW  Elec       q    Type
                         _______ _______ _______ _____ _____    ______ ____

>  <TORSDO>
F 2

$$$$
=
 OpenBabel10232409453D

 25 28  0  0  0  0  0  0  0  0999 V2000
  180.8780  179.6500  139.8630 C   0  0  0  0  0  3  0  0  0  0  0  0
  186.2060  179.0070  140.5220 O   0  0  0  0  0  0  0  0  0  0  0  0
  183.4710  178.7470  141.2440 C   0  0  0  0  0  0  0  0  0  0  0  0
  181.8040  180.1960  139.0770 C   0  0  0  0  0  0  0  0  0  0  0  0
  182.2070  178.4790  141.5890 C   0  0  0  0  0  3  0  0  0  0  0  0
  185.5350  178.4610  144.4560 N   0  0  0  0  0  0  0  0  0  0  0  0
  183.1750  179.6650  138.9270 C   0  0  0  0  0  3  0  0  0  0  0  0
  184.5830  178.5520  142.2180 C   0  0  0  0  0  0  0  0  0  0  0  0
  181.0790  178.3810  140.6170 C   0  0  0  0  0  2  0  0  0  0  0  0
  185.9220  178.1790  141.6260 C   0  0  0  0  0  2  0  0  0  0  0  0
  183.8990  179.0040  139.8450 C   0  0  0  0  0  0  0  0  0  0  0  0
  183.6960  179.0820  145.6730 N   0  0  0  0  0  0  0  0  0  0  0  0
  185.8650  178.5890  146.8030 N   0  0  0  0  0  1  0  0  0  0  0  0
  185.2770  178.7130  139.5690 N   0  0  0  0  0  0  0  0  0  0  0  0
  183.2310  179.0870  144.2960 C   0  0  0  0  0  3  0  0  0  0  0  0
  181.4600  181.3200  138.3400 O   0  0  0  0  0  1  0  0  0  0  0  0
  184.4570  178.6730  143.5510 C   0  0  0  0  0  0  0  0  0  0  0  0
  185.0650  178.7000  145.6310 C   0  0  0  0  0  0  0  0  0  0  0  0
  185.7040  178.1380  138.2980 C   0  0  0  0  0  2  0  0  0  0  0  0
  189.1220  178.8270  136.9990 C   0  0  0  0  0  2  0  0  0  0  0  0
  187.2220  178.0480  138.2330 C   0  0  0  0  0  3  0  0  0  0  0  0
  187.6220  176.7110  137.7530 N   0  0  0  0  0  2  0  0  0  0  0  0
  187.7580  179.1450  137.4110 N   0  0  0  0  0  2  0  0  0  0  0  0
  187.9160  176.7280  136.3210 C   0  0  0  0  0  2  0  0  0  0  0  0
  189.1130  177.6370  136.0400 C   0  0  0  0  0  2  0  0  0  0  0  0
  1  9  1  0  0  0  0
  2 10  1  0  0  0  0
  3  5  2  0  0  0  0
  3  8  1  0  0  0  0
  4  1  2  0  0  0  0
  6 18  2  0  0  0  0
  7  4  1  0  0  0  0
  7 11  2  0  0  0  0
  8 17  2  0  0  0  0
  9  5  1  0  0  0  0
 10  8  1  0  0  0  0
 11  3  1  0  0  0  0
 14 11  1  0  0  0  0
 14  2  1  0  0  0  0
 15 12  2  0  0  0  0
 16  4  1  0  0  0  0
 17 15  1  0  0  0  0
 17  6  1  0  0  0  0
 18 12  1  0  0  0  0
 18 13  1  0  0  0  0
 19 14  1  0  0  0  0
 20 23  1  0  0  0  0
 21 19  1  0  0  0  0
 22 21  1  0  0  0  0
 23 21  1  0  0  0  0
 24 22  1  0  0  0  0
 25 24  1  0  0  0  0
 25 20  1  0  0  0  0
M  END
>  <MODEL>
4

>  <REMARK>
 VINA RESULT:      -7.8      4.193      6.716
  Name = 
  2 active torsions:
  status: ('A' for Active; 'I' for Inactive)
    1  A    between atoms: C_2  and  C_11
    2  A    between atoms: C_11  and  N_21
                            x       y       z     vdW  Elec       q    Type
                         _______ _______ _______ _____ _____    ______ ____

>  <TORSDO>
F 2

$$$$
=
 OpenBabel10232409453D

 25 28  0  0  0  0  0  0  0  0999 V2000
  187.1880  178.2870  147.6740 C   0  0  0  0  0  3  0  0  0  0  0  0
  186.2840  178.7580  142.3640 O   0  0  0  0  0  0  0  0  0  0  0  0
  187.6460  177.8140  144.6710 C   0  0  0  0  0  0  0  0  0  0  0  0
  186.2970  179.1170  147.1330 C   0  0  0  0  0  0  0  0  0  0  0  0
  188.2580  177.2340  145.7090 C   0  0  0  0  0  3  0  0  0  0  0  0
  190.0880  177.5960  141.7320 N   0  0  0  0  0  0  0  0  0  0  0  0
  185.6960  178.9240  145.7980 C   0  0  0  0  0  3  0  0  0  0  0  0
  188.2380  177.7510  143.3050 C   0  0  0  0  0  0  0  0  0  0  0  0
  187.6190  177.0110  147.0380 C   0  0  0  0  0  2  0  0  0  0  0  0
  187.2540  177.7580  142.1580 C   0  0  0  0  0  2  0  0  0  0  0  0
  186.2540  178.3300  144.7300 C   0  0  0  0  0  0  0  0  0  0  0  0
  191.8410  177.6410  143.2070 N   0  0  0  0  0  0  0  0  0  0  0  0
  192.2470  177.5030  140.7490 N   0  0  0  0  0  1  0  0  0  0  0  0
  185.5750  178.3870  143.4660 N   0  0  0  0  0  0  0  0  0  0  0  0
  190.6610  177.7140  144.0520 C   0  0  0  0  0  3  0  0  0  0  0  0
  185.8950  180.2200  147.8730 O   0  0  0  0  0  1  0  0  0  0  0  0
  189.5550  177.6750  143.0490 C   0  0  0  0  0  0  0  0  0  0  0  0
  191.3690  177.5790  141.8660 C   0  0  0  0  0  0  0  0  0  0  0  0
  184.1540  178.0810  143.3410 C   0  0  0  0  0  2  0  0  0  0  0  0
  181.4720  179.2510  141.0420 C   0  0  0  0  0  2  0  0  0  0  0  0
  183.5480  178.8210  142.1560 C   0  0  0  0  0  3  0  0  0  0  0  0
  183.9340  178.1500  140.9000 N   0  0  0  0  0  2  0  0  0  0  0  0
  182.0910  178.9420  142.3270 N   0  0  0  0  0  2  0  0  0  0  0  0
  182.8760  177.2580  140.4290 C   0  0  0  0  0  2  0  0  0  0  0  0
  181.6190  178.0620  140.0930 C   0  0  0  0  0  2  0  0  0  0  0  0
  2 14  1  0  0  0  0
  3 11  1  0  0  0  0
  3  5  2  0  0  0  0
  4  1  2  0  0  0  0
  4 16  1  0  0  0  0
  5  9  1  0  0  0  0
  6 18  2  0  0  0  0
  6 17  1  0  0  0  0
  7  4  1  0  0  0  0
  8  3  1  0  0  0  0
  9  1  1  0  0  0  0
 10  2  1  0  0  0  0
 10  8  1  0  0  0  0
 11  7  2  0  0  0  0
 12 15  2  0  0  0  0
 13 18  1  0  0  0  0
 14 11  1  0  0  0  0
 17  8  2  0  0  0  0
 17 15  1  0  0  0  0
 18 12  1  0  0  0  0
 19 14  1  0  0  0  0
 20 23  1  0  0  0  0
 21 23  1  0  0  0  0
 21 19  1  0  0  0  0
 22 21  1  0  0  0  0
 24 22  1  0  0  0  0
 25 24  1  0  0  0  0
 25 20  1  0  0  0  0
M  END
>  <MODEL>
5

>  <REMARK>
 VINA RESULT:      -7.7      3.207      6.401
  Name = 
  2 active torsions:
  status: ('A' for Active; 'I' for Inactive)
    1  A    between atoms: C_2  and  C_11
    2  A    between atoms: C_11  and  N_21
                            x       y       z     vdW  Elec       q    Type
                         _______ _______ _______ _____ _____    ______ ____

>  <TORSDO>
F 2

$$$$
=
 OpenBabel10232409453D

 25 28  0  0  0  0  0  0  0  0999 V2000
  190.9630  177.2160  144.5930 C   0  0  0  0  0  3  0  0  0  0  0  0
  189.6800  177.0610  139.3430 O   0  0  0  0  0  0  0  0  0  0  0  0
  189.4740  177.9930  142.0180 C   0  0  0  0  0  0  0  0  0  0  0  0
  191.4340  176.3180  143.7300 C   0  0  0  0  0  0  0  0  0  0  0  0
  189.4060  178.5660  143.2250 C   0  0  0  0  0  3  0  0  0  0  0  0
  186.1620  178.7880  140.2710 N   0  0  0  0  0  0  0  0  0  0  0  0
  191.5020  176.5340  142.2700 C   0  0  0  0  0  3  0  0  0  0  0  0
  188.4230  178.2500  140.9930 C   0  0  0  0  0  0  0  0  0  0  0  0
  190.5320  178.5870  144.2040 C   0  0  0  0  0  2  0  0  0  0  0  0
  188.8780  178.2000  139.5540 C   0  0  0  0  0  2  0  0  0  0  0  0
  190.6810  177.2860  141.5180 C   0  0  0  0  0  0  0  0  0  0  0  0
  185.1240  178.8670  142.3130 N   0  0  0  0  0  0  0  0  0  0  0  0
  183.8370  179.2610  140.2120 N   0  0  0  0  0  1  0  0  0  0  0  0
  190.8070  177.2390  140.0890 N   0  0  0  0  0  0  0  0  0  0  0  0
  186.5100  178.5610  142.6280 C   0  0  0  0  0  3  0  0  0  0  0  0
  191.9070  175.1130  144.2300 O   0  0  0  0  0  1  0  0  0  0  0  0
  187.1380  178.5280  141.2740 C   0  0  0  0  0  0  0  0  0  0  0  0
  185.0510  178.9730  140.8960 C   0  0  0  0  0  0  0  0  0  0  0  0
  192.1010  177.3530  139.4250 C   0  0  0  0  0  2  0  0  0  0  0  0
  192.0050  174.2900  137.3150 C   0  0  0  0  0  2  0  0  0  0  0  0
  192.1200  176.5360  138.1420 C   0  0  0  0  0  3  0  0  0  0  0  0
  193.4800  176.5390  137.5690 N   0  0  0  0  0  2  0  0  0  0  0  0
  191.5990  175.1820  138.3960 N   0  0  0  0  0  2  0  0  0  0  0  0
  194.2110  175.3250  137.9320 C   0  0  0  0  0  2  0  0  0  0  0  0
  193.5210  174.0970  137.3380 C   0  0  0  0  0  2  0  0  0  0  0  0
  2 10  1  0  0  0  0
  2 14  1  0  0  0  0
  3  5  2  0  0  0  0
  4 16  1  0  0  0  0
  4  1  2  0  0  0  0
  5  9  1  0  0  0  0
  6 18  2  0  0  0  0
  6 17  1  0  0  0  0
  7  4  1  0  0  0  0
  8 17  2  0  0  0  0
  8  3  1  0  0  0  0
  9  1  1  0  0  0  0
 10  8  1  0  0  0  0
 11  3  1  0  0  0  0
 11  7  2  0  0  0  0
 12 15  2  0  0  0  0
 13 18  1  0  0  0  0
 14 11  1  0  0  0  0
 17 15  1  0  0  0  0
 18 12  1  0  0  0  0
 19 14  1  0  0  0  0
 20 25  1  0  0  0  0
 20 23  1  0  0  0  0
 21 23  1  0  0  0  0
 21 19  1  0  0  0  0
 22 24  1  0  0  0  0
 22 21  1  0  0  0  0
 25 24  1  0  0  0  0
M  END
>  <MODEL>
6

>  <REMARK>
 VINA RESULT:      -7.5      2.378      3.308
  Name = 
  2 active torsions:
  status: ('A' for Active; 'I' for Inactive)
    1  A    between atoms: C_2  and  C_11
    2  A    between atoms: C_11  and  N_21
                            x       y       z     vdW  Elec       q    Type
                         _______ _______ _______ _____ _____    ______ ____

>  <TORSDO>
F 2

$$$$
=
 OpenBabel10232409453D

 25 28  0  0  0  0  0  0  0  0999 V2000
  191.0770  176.9450  144.9250 C   0  0  0  0  0  3  0  0  0  0  0  0
  188.8440  177.0830  140.0030 O   0  0  0  0  0  0  0  0  0  0  0  0
  189.0690  177.7710  142.7490 C   0  0  0  0  0  0  0  0  0  0  0  0
  191.4510  176.1710  143.9080 C   0  0  0  0  0  0  0  0  0  0  0  0
  189.1820  178.2360  143.9990 C   0  0  0  0  0  3  0  0  0  0  0  0
  185.4320  178.3670  141.7140 N   0  0  0  0  0  0  0  0  0  0  0  0
  191.2230  176.5090  142.4880 C   0  0  0  0  0  3  0  0  0  0  0  0
  187.8260  178.0030  141.9610 C   0  0  0  0  0  0  0  0  0  0  0  0
  190.4670  178.2930  144.7560 C   0  0  0  0  0  2  0  0  0  0  0  0
  188.0040  178.1150  140.4640 C   0  0  0  0  0  2  0  0  0  0  0  0
  190.2140  177.2320  141.9730 C   0  0  0  0  0  0  0  0  0  0  0  0
  184.7950  178.1760  143.9070 N   0  0  0  0  0  0  0  0  0  0  0  0
  183.1060  178.6060  142.1220 N   0  0  0  0  0  1  0  0  0  0  0  0
  190.0720  177.3130  140.5470 N   0  0  0  0  0  0  0  0  0  0  0  0
  186.2360  177.9880  143.9370 C   0  0  0  0  0  3  0  0  0  0  0  0
  192.1090  174.9830  144.1940 O   0  0  0  0  0  1  0  0  0  0  0  0
  186.5980  178.1270  142.4940 C   0  0  0  0  0  0  0  0  0  0  0  0
  184.4470  178.3880  142.5440 C   0  0  0  0  0  0  0  0  0  0  0  0
  191.2040  177.6100  139.6750 C   0  0  0  0  0  2  0  0  0  0  0  0
  193.6980  175.4970  137.8980 C   0  0  0  0  0  2  0  0  0  0  0  0
  191.9160  176.3280  139.2650 C   0  0  0  0  0  3  0  0  0  0  0  0
  191.0410  175.5330  138.3820 N   0  0  0  0  0  2  0  0  0  0  0  0
  193.2200  176.6460  138.6610 N   0  0  0  0  0  2  0  0  0  0  0  0
  191.3740  175.7470  136.9740 C   0  0  0  0  0  2  0  0  0  0  0  0
  192.7950  175.2590  136.6890 C   0  0  0  0  0  2  0  0  0  0  0  0
  2 10  1  0  0  0  0
  2 14  1  0  0  0  0
  3  5  2  0  0  0  0
  4 16  1  0  0  0  0
  4  1  2  0  0  0  0
  5  9  1  0  0  0  0
  6 17  1  0  0  0  0
  6 18  2  0  0  0  0
  7  4  1  0  0  0  0
  8 17  2  0  0  0  0
  8  3  1  0  0  0  0
  9  1  1  0  0  0  0
 10  8  1  0  0  0  0
 11  7  2  0  0  0  0
 11  3  1  0  0  0  0
 12 15  2  0  0  0  0
 13 18  1  0  0  0  0
 14 11  1  0  0  0  0
 17 15  1  0  0  0  0
 18 12  1  0  0  0  0
 19 14  1  0  0  0  0
 20 23  1  0  0  0  0
 21 19  1  0  0  0  0
 22 21  1  0  0  0  0
 23 21  1  0  0  0  0
 24 22  1  0  0  0  0
 25 24  1  0  0  0  0
 25 20  1  0  0  0  0
M  END
>  <MODEL>
7

>  <REMARK>
 VINA RESULT:      -7.5      1.901      2.344
  Name = 
  2 active torsions:
  status: ('A' for Active; 'I' for Inactive)
    1  A    between atoms: C_2  and  C_11
    2  A    between atoms: C_11  and  N_21
                            x       y       z     vdW  Elec       q    Type
                         _______ _______ _______ _____ _____    ______ ____

>  <TORSDO>
F 2

$$$$
=
 OpenBabel10232409453D

 25 28  0  0  0  0  0  0  0  0999 V2000
  186.5550  177.8330  146.4010 C   0  0  0  0  0  3  0  0  0  0  0  0
  186.3680  179.1830  141.1680 O   0  0  0  0  0  0  0  0  0  0  0  0
  187.3290  177.7530  143.4260 C   0  0  0  0  0  0  0  0  0  0  0  0
  185.8290  178.8350  145.9080 C   0  0  0  0  0  0  0  0  0  0  0  0
  187.7450  176.9570  144.4180 C   0  0  0  0  0  3  0  0  0  0  0  0
  190.0800  177.6730  140.7660 N   0  0  0  0  0  0  0  0  0  0  0  0
  185.3810  178.9140  144.5020 C   0  0  0  0  0  3  0  0  0  0  0  0
  188.0760  177.8190  142.1380 C   0  0  0  0  0  0  0  0  0  0  0  0
  186.9270  176.6210  145.6190 C   0  0  0  0  0  2  0  0  0  0  0  0
  187.2480  178.1130  140.9090 C   0  0  0  0  0  2  0  0  0  0  0  0
  186.0020  178.4200  143.4190 C   0  0  0  0  0  0  0  0  0  0  0  0
  191.6330  177.2890  142.4080 N   0  0  0  0  0  0  0  0  0  0  0  0
  192.3230  177.4630  140.0160 N   0  0  0  0  0  1  0  0  0  0  0  0
  185.4930  178.7420  142.1150 N   0  0  0  0  0  0  0  0  0  0  0  0
  190.3710  177.3790  143.1240 C   0  0  0  0  0  3  0  0  0  0  0  0
  185.4540  179.8590  146.7660 O   0  0  0  0  0  1  0  0  0  0  0  0
  189.4000  177.6220  142.0150 C   0  0  0  0  0  0  0  0  0  0  0  0
  191.3260  177.4800  141.0320 C   0  0  0  0  0  0  0  0  0  0  0  0
  184.0750  178.6330  141.7930 C   0  0  0  0  0  2  0  0  0  0  0  0
  182.7830  179.1030  138.3350 C   0  0  0  0  0  2  0  0  0  0  0  0
  183.8830  178.3230  140.3150 C   0  0  0  0  0  3  0  0  0  0  0  0
  183.0270  177.1300  140.1630 N   0  0  0  0  0  2  0  0  0  0  0  0
  183.3600  179.5070  139.6140 N   0  0  0  0  0  2  0  0  0  0  0  0
  181.6380  177.5040  139.9000 C   0  0  0  0  0  2  0  0  0  0  0  0
  181.5370  178.2520  138.5700 C   0  0  0  0  0  2  0  0  0  0  0  0
  2 14  1  0  0  0  0
  3  5  2  0  0  0  0
  4  1  2  0  0  0  0
  4 16  1  0  0  0  0
  5  9  1  0  0  0  0
  6 18  2  0  0  0  0
  6 17  1  0  0  0  0
  7  4  1  0  0  0  0
  8  3  1  0  0  0  0
  9  1  1  0  0  0  0
 10  2  1  0  0  0  0
 10  8  1  0  0  0  0
 11  3  1  0  0  0  0
 11  7  2  0  0  0  0
 12 15  2  0  0  0  0
 13 18  1  0  0  0  0
 14 11  1  0  0  0  0
 17  8  2  0  0  0  0
 17 15  1  0  0  0  0
 18 12  1  0  0  0  0
 19 14  1  0  0  0  0
 20 25  1  0  0  0  0
 20 23  1  0  0  0  0
 21 19  1  0  0  0  0
 22 21  1  0  0  0  0
 23 21  1  0  0  0  0
 24 22  1  0  0  0  0
 25 24  1  0  0  0  0
M  END
>  <MODEL>
8

>  <REMARK>
 VINA RESULT:      -7.4      3.603      6.346
  Name = 
  2 active torsions:
  status: ('A' for Active; 'I' for Inactive)
    1  A    between atoms: C_2  and  C_11
    2  A    between atoms: C_11  and  N_21
                            x       y       z     vdW  Elec       q    Type
                         _______ _______ _______ _____ _____    ______ ____

>  <TORSDO>
F 2

$$$$
=
 OpenBabel10232409453D

 25 28  0  0  0  0  0  0  0  0999 V2000
  186.9820  178.1830  147.7660 C   0  0  0  0  0  3  0  0  0  0  0  0
  186.9690  177.4400  142.4110 O   0  0  0  0  0  0  0  0  0  0  0  0
  186.0430  178.5380  144.8600 C   0  0  0  0  0  0  0  0  0  0  0  0
  187.7450  177.2970  147.1280 C   0  0  0  0  0  0  0  0  0  0  0  0
  185.6300  179.1870  145.9550 C   0  0  0  0  0  3  0  0  0  0  0  0
  183.1500  178.7160  142.3600 N   0  0  0  0  0  0  0  0  0  0  0  0
  188.1190  177.4060  145.7030 C   0  0  0  0  0  3  0  0  0  0  0  0
  185.2320  178.5620  143.6100 C   0  0  0  0  0  0  0  0  0  0  0  0
  186.4890  179.4450  147.1470 C   0  0  0  0  0  2  0  0  0  0  0  0
  186.0090  178.4660  142.3170 C   0  0  0  0  0  2  0  0  0  0  0  0
  187.4080  177.9720  144.7140 C   0  0  0  0  0  0  0  0  0  0  0  0
  181.6680  178.8040  144.1050 N   0  0  0  0  0  0  0  0  0  0  0  0
  180.8610  178.8470  141.7450 N   0  0  0  0  0  1  0  0  0  0  0  0
  187.8640  177.8340  143.3590 N   0  0  0  0  0  0  0  0  0  0  0  0
  182.9710  178.7250  144.7460 C   0  0  0  0  0  3  0  0  0  0  0  0
  188.2320  176.2130  147.8450 O   0  0  0  0  0  1  0  0  0  0  0  0
  183.8930  178.6760  143.5720 C   0  0  0  0  0  0  0  0  0  0  0  0
  181.9110  178.7880  142.7040 C   0  0  0  0  0  0  0  0  0  0  0  0
  189.2530  178.0790  142.9850 C   0  0  0  0  0  2  0  0  0  0  0  0
  191.3100  176.9070  140.1150 C   0  0  0  0  0  2  0  0  0  0  0  0
  189.6690  177.1660  141.8410 C   0  0  0  0  0  3  0  0  0  0  0  0
  188.7080  177.2910  140.7280 N   0  0  0  0  0  2  0  0  0  0  0  0
  191.0580  177.4520  141.4450 N   0  0  0  0  0  2  0  0  0  0  0  0
  189.2010  178.2100  139.7030 C   0  0  0  0  0  2  0  0  0  0  0  0
  190.4820  177.6610  139.0750 C   0  0  0  0  0  2  0  0  0  0  0  0
  2 14  1  0  0  0  0
  3  5  2  0  0  0  0
  4  1  2  0  0  0  0
  4 16  1  0  0  0  0
  5  9  1  0  0  0  0
  6 18  2  0  0  0  0
  6 17  1  0  0  0  0
  7  4  1  0  0  0  0
  8  3  1  0  0  0  0
  9  1  1  0  0  0  0
 10  2  1  0  0  0  0
 10  8  1  0  0  0  0
 11  3  1  0  0  0  0
 11  7  2  0  0  0  0
 12 15  2  0  0  0  0
 13 18  1  0  0  0  0
 14 11  1  0  0  0  0
 17  8  2  0  0  0  0
 17 15  1  0  0  0  0
 18 12  1  0  0  0  0
 19 14  1  0  0  0  0
 20 23  1  0  0  0  0
 21 19  1  0  0  0  0
 22 21  1  0  0  0  0
 23 21  1  0  0  0  0
 24 22  1  0  0  0  0
 25 24  1  0  0  0  0
 25 20  1  0  0  0  0
M  END
>  <MODEL>
9

>  <REMARK>
 VINA RESULT:      -7.2      2.557      3.842
  Name = 
  2 active torsions:
  status: ('A' for Active; 'I' for Inactive)
    1  A    between atoms: C_2  and  C_11
    2  A    between atoms: C_11  and  N_21
                            x       y       z     vdW  Elec       q    Type
                         _______ _______ _______ _____ _____    ______ ____

>  <TORSDO>
F 2

$$$$
