=
 OpenBabel10232411563D

 37 38  0  0  0  0  0  0  0  0999 V2000
  184.0520  178.8910  144.4530 C   0  0  0  0  0  3  0  0  0  0  0  0
  184.0120  178.6520  143.1340 C   0  0  0  0  0  0  0  0  0  0  0  0
  184.9120  179.7330  140.5810 O   0  0  0  0  0  0  0  0  0  0  0  0
  185.6320  178.8860  141.1760 C   0  0  0  0  0  0  0  0  0  0  0  0
  185.2110  178.3160  142.4240 N   0  0  0  0  0  2  0  0  0  0  0  0
  191.6370  176.7920  139.0620 C   0  0  0  0  0  1  0  0  0  0  0  0
  186.8990  178.4440  140.5800 C   0  0  0  0  0  0  0  0  0  0  0  0
  190.3070  177.3270  138.6580 C   0  0  0  0  0  0  0  0  0  0  0  0
  189.8360  177.4940  137.3520 C   0  0  0  0  0  3  0  0  0  0  0  0
  188.2330  178.0550  138.6970 C   0  0  0  0  0  0  0  0  0  0  0  0
  187.0450  178.4450  139.2180 N   0  0  0  0  0  0  0  0  0  0  0  0
  189.2690  177.6760  139.4860 C   0  0  0  0  0  0  0  0  0  0  0  0
  188.5600  177.9520  137.3990 N   0  0  0  0  0  0  0  0  0  0  0  0
  187.6940  178.1850  136.2590 C   0  0  0  0  0  1  0  0  0  0  0  0
  187.9870  178.0450  141.4020 C   0  0  0  0  0  3  0  0  0  0  0  0
  189.1710  177.6580  140.8370 N   0  0  0  0  0  0  0  0  0  0  0  0
  182.7850  178.8150  142.4060 N   0  0  0  0  0  2  0  0  0  0  0  0
  181.2530  178.5690  144.1610 O   0  0  0  0  0  0  0  0  0  0  0  0
  181.4680  178.8910  142.9620 C   0  0  0  0  0  0  0  0  0  0  0  0
  180.4130  179.2920  142.1420 O   0  0  0  0  0  0  0  0  0  0  0  0
  180.5670  179.4380  140.7390 C   0  0  0  0  0  1  0  0  0  0  0  0
  185.7340  179.8720  145.7770 O   0  0  0  0  0  0  0  0  0  0  0  0
  185.2250  178.8030  145.3500 C   0  0  0  0  0  0  0  0  0  0  0  0
  185.7900  177.5040  145.8320 C   0  0  0  0  0  2  0  0  0  0  0  0
  187.2640  177.6630  146.1790 C   0  0  0  0  0  2  0  0  0  0  0  0
  187.4830  177.5980  147.6800 C   0  0  0  0  0  2  0  0  0  0  0  0
  188.9650  177.6730  147.9880 C   0  0  0  0  0  2  0  0  0  0  0  0
  191.1120  176.8710  146.9460 C   0  0  0  0  0  0  0  0  0  0  0  0
  189.7220  177.1850  146.8480 N   0  0  0  0  0  2  0  0  0  0  0  0
  191.7320  177.0430  148.0290 O   0  0  0  0  0  0  0  0  0  0  0  0
  191.8380  176.3030  145.7700 C   0  0  0  0  0  2  0  0  0  0  0  0
  191.3060  176.8410  144.5200 N   0  0  0  0  0  0  0  0  0  0  0  0
  190.2650  175.3170  142.9440 N   0  0  0  0  0  1  0  0  0  0  0  0
  191.5240  175.8560  143.4540 C   0  0  0  0  0  2  0  0  0  0  0  0
  192.0250  178.0680  144.1990 C   0  0  0  0  0  2  0  0  0  0  0  0
  191.0440  179.2040  143.9650 C   0  0  0  0  0  2  0  0  0  0  0  0
  189.7310  178.7360  144.0770 O   0  0  0  0  0  1  0  0  0  0  0  0
  1 23  1  0  0  0  0
  2  1  2  0  0  0  0
  3  4  2  0  0  0  0
  4  5  1  0  0  0  0
  5  2  1  0  0  0  0
  7  4  1  0  0  0  0
  7 15  1  0  0  0  0
  8  6  1  0  0  0  0
  8 12  1  0  0  0  0
  9 13  1  0  0  0  0
  9  8  2  0  0  0  0
 10 11  1  0  0  0  0
 10 12  2  0  0  0  0
 11  7  2  0  0  0  0
 12 16  1  0  0  0  0
 13 10  1  0  0  0  0
 14 13  1  0  0  0  0
 16 15  2  0  0  0  0
 17 19  1  0  0  0  0
 17  2  1  0  0  0  0
 19 18  2  0  0  0  0
 20 19  1  0  0  0  0
 21 20  1  0  0  0  0
 23 22  2  0  0  0  0
 23 24  1  0  0  0  0
 24 25  1  0  0  0  0
 25 26  1  0  0  0  0
 26 27  1  0  0  0  0
 28 30  2  0  0  0  0
 29 28  1  0  0  0  0
 29 27  1  0  0  0  0
 31 28  1  0  0  0  0
 32 31  1  0  0  0  0
 33 34  1  0  0  0  0
 34 32  1  0  0  0  0
 35 32  1  0  0  0  0
 36 37  1  0  0  0  0
 36 35  1  0  0  0  0
M  END
>  <MODEL>
1

>  <REMARK>
 VINA RESULT:      -7.7      0.000      0.000
  Name = 
  15 active torsions:
  status: ('A' for Active; 'I' for Inactive)
    1  A    between atoms: C_2  and  C_15
    2  A    between atoms: C_2  and  C_22
    3  A    between atoms: N_3  and  C_12
    4  A    between atoms: N_3  and  C_29
    5  A    between atoms: N_3  and  C_30
    6  A    between atoms: C_4  and  C_22
    7  A    between atoms: C_6  and  C_29
    8  A    between atoms: C_7  and  N_10
    9  A    between atoms: C_7  and  N_36
   10  A    between atoms: C_8  and  C_16
   11  A    between atoms: N_9  and  C_26
   12  A    between atoms: C_12  and  C_24
   13  A    between atoms: C_15  and  C_33
   14  A    between atoms: C_26  and  C_33
   15  A    between atoms: O_32  and  C_37
                            x       y       z     vdW  Elec       q    Type
                         _______ _______ _______ _____ _____    ______ ____

>  <TORSDO>
F 15

$$$$
=
 OpenBabel10232411563D

 37 38  0  0  0  0  0  0  0  0999 V2000
  186.9430  177.8820  136.7140 C   0  0  0  0  0  3  0  0  0  0  0  0
  185.7450  177.7070  137.2920 C   0  0  0  0  0  0  0  0  0  0  0  0
  184.6880  179.9530  138.8200 O   0  0  0  0  0  0  0  0  0  0  0  0
  185.0650  178.9170  139.4330 C   0  0  0  0  0  0  0  0  0  0  0  0
  185.6110  177.8000  138.7160 N   0  0  0  0  0  2  0  0  0  0  0  0
  185.3320  178.5390  146.1190 C   0  0  0  0  0  1  0  0  0  0  0  0
  184.9830  178.8540  140.8980 C   0  0  0  0  0  0  0  0  0  0  0  0
  184.4480  178.6560  144.9260 C   0  0  0  0  0  0  0  0  0  0  0  0
  183.0620  178.8460  144.9300 C   0  0  0  0  0  3  0  0  0  0  0  0
  183.7140  178.8590  142.8650 C   0  0  0  0  0  0  0  0  0  0  0  0
  183.7620  178.9440  141.5130 N   0  0  0  0  0  0  0  0  0  0  0  0
  184.8340  178.6820  143.6090 C   0  0  0  0  0  0  0  0  0  0  0  0
  182.6300  178.9590  143.6500 N   0  0  0  0  0  0  0  0  0  0  0  0
  181.2700  179.2370  143.2290 C   0  0  0  0  0  1  0  0  0  0  0  0
  186.1530  178.6700  141.6830 C   0  0  0  0  0  3  0  0  0  0  0  0
  186.0620  178.5890  143.0450 N   0  0  0  0  0  0  0  0  0  0  0  0
  184.6060  177.3390  136.4990 N   0  0  0  0  0  2  0  0  0  0  0  0
  184.9320  175.0220  136.3970 O   0  0  0  0  0  0  0  0  0  0  0  0
  184.1770  176.0090  136.1880 C   0  0  0  0  0  0  0  0  0  0  0  0
  182.9200  175.8250  135.6130 O   0  0  0  0  0  0  0  0  0  0  0  0
  182.7170  174.9450  134.5180 C   0  0  0  0  0  1  0  0  0  0  0  0
  188.5340  179.4470  137.4670 O   0  0  0  0  0  0  0  0  0  0  0  0
  188.2200  178.2300  137.3730 C   0  0  0  0  0  0  0  0  0  0  0  0
  189.1230  177.2140  137.9960 C   0  0  0  0  0  2  0  0  0  0  0  0
  189.9110  177.8340  139.1420 C   0  0  0  0  0  2  0  0  0  0  0  0
  189.4690  177.2680  140.4790 C   0  0  0  0  0  2  0  0  0  0  0  0
  190.6460  177.2240  141.4340 C   0  0  0  0  0  2  0  0  0  0  0  0
  190.2770  177.6670  143.8840 C   0  0  0  0  0  0  0  0  0  0  0  0
  190.1870  176.8070  142.7480 N   0  0  0  0  0  2  0  0  0  0  0  0
  190.7950  178.8110  143.7810 O   0  0  0  0  0  0  0  0  0  0  0  0
  189.7280  177.2300  145.2030 C   0  0  0  0  0  2  0  0  0  0  0  0
  190.7460  177.3170  146.2470 N   0  0  0  0  0  0  0  0  0  0  0  0
  192.4320  175.8980  147.2640 N   0  0  0  0  0  1  0  0  0  0  0  0
  191.7370  176.2570  146.0290 C   0  0  0  0  0  2  0  0  0  0  0  0
  190.1030  177.1200  147.5410 C   0  0  0  0  0  2  0  0  0  0  0  0
  188.5920  177.1320  147.3830 C   0  0  0  0  0  2  0  0  0  0  0  0
  188.0210  178.0190  148.3000 O   0  0  0  0  0  1  0  0  0  0  0  0
  1  2  2  0  0  0  0
  1 23  1  0  0  0  0
  2  5  1  0  0  0  0
  3  4  2  0  0  0  0
  4  7  1  0  0  0  0
  5  4  1  0  0  0  0
  7 11  2  0  0  0  0
  7 15  1  0  0  0  0
  8  9  2  0  0  0  0
  8  6  1  0  0  0  0
 10 12  2  0  0  0  0
 10 13  1  0  0  0  0
 11 10  1  0  0  0  0
 12  8  1  0  0  0  0
 13  9  1  0  0  0  0
 14 13  1  0  0  0  0
 15 16  2  0  0  0  0
 16 12  1  0  0  0  0
 17  2  1  0  0  0  0
 19 18  2  0  0  0  0
 19 17  1  0  0  0  0
 20 19  1  0  0  0  0
 21 20  1  0  0  0  0
 23 22  2  0  0  0  0
 23 24  1  0  0  0  0
 24 25  1  0  0  0  0
 25 26  1  0  0  0  0
 26 27  1  0  0  0  0
 27 29  1  0  0  0  0
 28 31  1  0  0  0  0
 29 28  1  0  0  0  0
 30 28  2  0  0  0  0
 31 32  1  0  0  0  0
 32 35  1  0  0  0  0
 34 32  1  0  0  0  0
 34 33  1  0  0  0  0
 36 35  1  0  0  0  0
 36 37  1  0  0  0  0
M  END
>  <MODEL>
2

>  <REMARK>
 VINA RESULT:      -7.4      2.602      6.421
  Name = 
  15 active torsions:
  status: ('A' for Active; 'I' for Inactive)
    1  A    between atoms: C_2  and  C_15
    2  A    between atoms: C_2  and  C_22
    3  A    between atoms: N_3  and  C_12
    4  A    between atoms: N_3  and  C_29
    5  A    between atoms: N_3  and  C_30
    6  A    between atoms: C_4  and  C_22
    7  A    between atoms: C_6  and  C_29
    8  A    between atoms: C_7  and  N_10
    9  A    between atoms: C_7  and  N_36
   10  A    between atoms: C_8  and  C_16
   11  A    between atoms: N_9  and  C_26
   12  A    between atoms: C_12  and  C_24
   13  A    between atoms: C_15  and  C_33
   14  A    between atoms: C_26  and  C_33
   15  A    between atoms: O_32  and  C_37
                            x       y       z     vdW  Elec       q    Type
                         _______ _______ _______ _____ _____    ______ ____

>  <TORSDO>
F 15

$$$$
=
 OpenBabel10232411563D

 37 38  0  0  0  0  0  0  0  0999 V2000
  189.9440  177.1170  137.7960 C   0  0  0  0  0  3  0  0  0  0  0  0
  190.5610  176.3190  138.6800 C   0  0  0  0  0  0  0  0  0  0  0  0
  192.1060  177.7970  140.6610 O   0  0  0  0  0  0  0  0  0  0  0  0
  191.0580  177.1980  141.0240 C   0  0  0  0  0  0  0  0  0  0  0  0
  190.2830  176.4430  140.0810 N   0  0  0  0  0  2  0  0  0  0  0  0
  189.7370  177.2610  147.5940 C   0  0  0  0  0  1  0  0  0  0  0  0
  190.6330  177.2360  142.4290 C   0  0  0  0  0  0  0  0  0  0  0  0
  189.1620  177.3280  146.2210 C   0  0  0  0  0  0  0  0  0  0  0  0
  187.8250  177.5650  145.8870 C   0  0  0  0  0  3  0  0  0  0  0  0
  188.9410  177.4160  144.0370 C   0  0  0  0  0  0  0  0  0  0  0  0
  189.3080  177.4090  142.7320 N   0  0  0  0  0  0  0  0  0  0  0  0
  189.8460  177.2510  145.0330 C   0  0  0  0  0  0  0  0  0  0  0  0
  187.7100  177.6070  144.5360 N   0  0  0  0  0  0  0  0  0  0  0  0
  186.5010  177.9020  143.7910 C   0  0  0  0  0  1  0  0  0  0  0  0
  191.5760  177.0650  143.4780 C   0  0  0  0  0  3  0  0  0  0  0  0
  191.1660  177.0790  144.7820 N   0  0  0  0  0  0  0  0  0  0  0  0
  191.5690  175.3950  138.2400 N   0  0  0  0  0  2  0  0  0  0  0  0
  193.3160  176.8950  137.8130 O   0  0  0  0  0  0  0  0  0  0  0  0
  192.9360  175.7010  137.9450 C   0  0  0  0  0  0  0  0  0  0  0  0
  193.8360  174.6510  137.7650 O   0  0  0  0  0  0  0  0  0  0  0  0
  193.5780  173.5860  136.8650 C   0  0  0  0  0  1  0  0  0  0  0  0
  189.2470  179.3530  138.0400 O   0  0  0  0  0  0  0  0  0  0  0  0
  188.9110  178.1390  138.0710 C   0  0  0  0  0  0  0  0  0  0  0  0
  187.4740  177.8050  138.3140 C   0  0  0  0  0  2  0  0  0  0  0  0
  186.7460  177.6000  136.9930 C   0  0  0  0  0  2  0  0  0  0  0  0
  185.3740  176.9890  137.2130 C   0  0  0  0  0  2  0  0  0  0  0  0
  184.4040  178.0550  137.6850 C   0  0  0  0  0  2  0  0  0  0  0  0
  184.0770  178.5040  140.1400 C   0  0  0  0  0  0  0  0  0  0  0  0
  183.8760  177.6850  138.9870 N   0  0  0  0  0  2  0  0  0  0  0  0
  184.7560  179.5630  140.0630 O   0  0  0  0  0  0  0  0  0  0  0  0
  183.4570  178.1270  141.4460 C   0  0  0  0  0  2  0  0  0  0  0  0
  182.2160  178.8650  141.6670 N   0  0  0  0  0  0  0  0  0  0  0  0
  183.2300  179.4640  143.7890 N   0  0  0  0  0  1  0  0  0  0  0  0
  182.0120  179.0220  143.1120 C   0  0  0  0  0  2  0  0  0  0  0  0
  181.1120  178.0960  141.1040 C   0  0  0  0  0  2  0  0  0  0  0  0
  180.3560  178.9330  140.0850 C   0  0  0  0  0  2  0  0  0  0  0  0
  181.0080  180.1550  139.8890 O   0  0  0  0  0  1  0  0  0  0  0  0
  1 23  1  0  0  0  0
  1  2  2  0  0  0  0
  2  5  1  0  0  0  0
  3  4  2  0  0  0  0
  4  7  1  0  0  0  0
  5  4  1  0  0  0  0
  7 11  2  0  0  0  0
  7 15  1  0  0  0  0
  8  6  1  0  0  0  0
  9  8  2  0  0  0  0
 10 13  1  0  0  0  0
 10 12  2  0  0  0  0
 11 10  1  0  0  0  0
 12  8  1  0  0  0  0
 13  9  1  0  0  0  0
 14 13  1  0  0  0  0
 15 16  2  0  0  0  0
 16 12  1  0  0  0  0
 17  2  1  0  0  0  0
 18 19  2  0  0  0  0
 19 17  1  0  0  0  0
 20 19  1  0  0  0  0
 21 20  1  0  0  0  0
 22 23  2  0  0  0  0
 23 24  1  0  0  0  0
 25 26  1  0  0  0  0
 25 24  1  0  0  0  0
 26 27  1  0  0  0  0
 27 29  1  0  0  0  0
 28 31  1  0  0  0  0
 29 28  1  0  0  0  0
 30 28  2  0  0  0  0
 31 32  1  0  0  0  0
 32 34  1  0  0  0  0
 34 33  1  0  0  0  0
 35 32  1  0  0  0  0
 36 35  1  0  0  0  0
 37 36  1  0  0  0  0
M  END
>  <MODEL>
3

>  <REMARK>
 VINA RESULT:      -7.4      2.925      9.270
  Name = 
  15 active torsions:
  status: ('A' for Active; 'I' for Inactive)
    1  A    between atoms: C_2  and  C_15
    2  A    between atoms: C_2  and  C_22
    3  A    between atoms: N_3  and  C_12
    4  A    between atoms: N_3  and  C_29
    5  A    between atoms: N_3  and  C_30
    6  A    between atoms: C_4  and  C_22
    7  A    between atoms: C_6  and  C_29
    8  A    between atoms: C_7  and  N_10
    9  A    between atoms: C_7  and  N_36
   10  A    between atoms: C_8  and  C_16
   11  A    between atoms: N_9  and  C_26
   12  A    between atoms: C_12  and  C_24
   13  A    between atoms: C_15  and  C_33
   14  A    between atoms: C_26  and  C_33
   15  A    between atoms: O_32  and  C_37
                            x       y       z     vdW  Elec       q    Type
                         _______ _______ _______ _____ _____    ______ ____

>  <TORSDO>
F 15

$$$$
=
 OpenBabel10232411563D

 37 38  0  0  0  0  0  0  0  0999 V2000
  189.7170  177.0450  137.7750 C   0  0  0  0  0  3  0  0  0  0  0  0
  190.3170  176.2230  138.6480 C   0  0  0  0  0  0  0  0  0  0  0  0
  191.9760  177.6320  140.5870 O   0  0  0  0  0  0  0  0  0  0  0  0
  190.9090  177.0850  140.9760 C   0  0  0  0  0  0  0  0  0  0  0  0
  190.0780  176.3640  140.0540 N   0  0  0  0  0  2  0  0  0  0  0  0
  189.7490  177.2590  147.5750 C   0  0  0  0  0  1  0  0  0  0  0  0
  190.5180  177.1480  142.3910 C   0  0  0  0  0  0  0  0  0  0  0  0
  189.1420  177.3110  146.2150 C   0  0  0  0  0  0  0  0  0  0  0  0
  187.7990  177.5560  145.9100 C   0  0  0  0  0  3  0  0  0  0  0  0
  188.8680  177.3690  144.0360 C   0  0  0  0  0  0  0  0  0  0  0  0
  189.2030  177.3380  142.7230 N   0  0  0  0  0  0  0  0  0  0  0  0
  189.7960  177.2100  145.0120 C   0  0  0  0  0  0  0  0  0  0  0  0
  187.6520  177.5780  144.5620 N   0  0  0  0  0  0  0  0  0  0  0  0
  186.4280  177.8740  143.8420 C   0  0  0  0  0  1  0  0  0  0  0  0
  191.4860  176.9840  143.4180 C   0  0  0  0  0  3  0  0  0  0  0  0
  191.1070  177.0210  144.7320 N   0  0  0  0  0  0  0  0  0  0  0  0
  191.2700  175.2510  138.1900 N   0  0  0  0  0  2  0  0  0  0  0  0
  193.0530  176.6730  137.6560 O   0  0  0  0  0  0  0  0  0  0  0  0
  192.6340  175.4970  137.8310 C   0  0  0  0  0  0  0  0  0  0  0  0
  193.4870  174.4100  137.6400 O   0  0  0  0  0  0  0  0  0  0  0  0
  194.8040  174.5690  137.1380 C   0  0  0  0  0  1  0  0  0  0  0  0
  189.1310  179.3120  138.0250 O   0  0  0  0  0  0  0  0  0  0  0  0
  188.7400  178.1150  138.0690 C   0  0  0  0  0  0  0  0  0  0  0  0
  187.2940  177.8490  138.3440 C   0  0  0  0  0  2  0  0  0  0  0  0
  186.4810  177.9510  137.0610 C   0  0  0  0  0  2  0  0  0  0  0  0
  186.1000  176.5750  136.5440 C   0  0  0  0  0  2  0  0  0  0  0  0
  184.6080  176.5180  136.2820 C   0  0  0  0  0  2  0  0  0  0  0  0
  183.3190  176.2510  138.4270 C   0  0  0  0  0  0  0  0  0  0  0  0
  183.8960  177.0800  137.4170 N   0  0  0  0  0  2  0  0  0  0  0  0
  183.3850  174.9960  138.3400 O   0  0  0  0  0  0  0  0  0  0  0  0
  182.6570  176.8680  139.6160 C   0  0  0  0  0  2  0  0  0  0  0  0
  183.2820  178.1440  139.9570 N   0  0  0  0  0  0  0  0  0  0  0  0
  182.6000  178.7070  142.2170 N   0  0  0  0  0  1  0  0  0  0  0  0
  183.6460  178.1250  141.3790 C   0  0  0  0  0  2  0  0  0  0  0  0
  182.3180  179.2120  139.7190 C   0  0  0  0  0  2  0  0  0  0  0  0
  182.9470  180.3090  138.8780 C   0  0  0  0  0  2  0  0  0  0  0  0
  184.3410  180.2530  138.9810 O   0  0  0  0  0  1  0  0  0  0  0  0
  1 23  1  0  0  0  0
  1  2  2  0  0  0  0
  2  5  1  0  0  0  0
  3  4  2  0  0  0  0
  4  7  1  0  0  0  0
  5  4  1  0  0  0  0
  7 11  2  0  0  0  0
  7 15  1  0  0  0  0
  8  6  1  0  0  0  0
  9  8  2  0  0  0  0
 10 13  1  0  0  0  0
 10 12  2  0  0  0  0
 11 10  1  0  0  0  0
 12  8  1  0  0  0  0
 13  9  1  0  0  0  0
 14 13  1  0  0  0  0
 15 16  2  0  0  0  0
 16 12  1  0  0  0  0
 17  2  1  0  0  0  0
 18 19  2  0  0  0  0
 19 17  1  0  0  0  0
 20 19  1  0  0  0  0
 21 20  1  0  0  0  0
 22 23  2  0  0  0  0
 23 24  1  0  0  0  0
 25 24  1  0  0  0  0
 26 25  1  0  0  0  0
 27 26  1  0  0  0  0
 27 29  1  0  0  0  0
 28 31  1  0  0  0  0
 29 28  1  0  0  0  0
 30 28  2  0  0  0  0
 31 32  1  0  0  0  0
 32 34  1  0  0  0  0
 34 33  1  0  0  0  0
 35 32  1  0  0  0  0
 36 37  1  0  0  0  0
 36 35  1  0  0  0  0
M  END
>  <MODEL>
4

>  <REMARK>
 VINA RESULT:      -7.4      3.234      9.346
  Name = 
  15 active torsions:
  status: ('A' for Active; 'I' for Inactive)
    1  A    between atoms: C_2  and  C_15
    2  A    between atoms: C_2  and  C_22
    3  A    between atoms: N_3  and  C_12
    4  A    between atoms: N_3  and  C_29
    5  A    between atoms: N_3  and  C_30
    6  A    between atoms: C_4  and  C_22
    7  A    between atoms: C_6  and  C_29
    8  A    between atoms: C_7  and  N_10
    9  A    between atoms: C_7  and  N_36
   10  A    between atoms: C_8  and  C_16
   11  A    between atoms: N_9  and  C_26
   12  A    between atoms: C_12  and  C_24
   13  A    between atoms: C_15  and  C_33
   14  A    between atoms: C_26  and  C_33
   15  A    between atoms: O_32  and  C_37
                            x       y       z     vdW  Elec       q    Type
                         _______ _______ _______ _____ _____    ______ ____

>  <TORSDO>
F 15

$$$$
=
 OpenBabel10232411563D

 37 38  0  0  0  0  0  0  0  0999 V2000
  190.1860  177.0170  137.3790 C   0  0  0  0  0  3  0  0  0  0  0  0
  190.6330  176.2710  138.4010 C   0  0  0  0  0  0  0  0  0  0  0  0
  191.8510  177.6170  140.6820 O   0  0  0  0  0  0  0  0  0  0  0  0
  190.6990  177.1210  140.8060 C   0  0  0  0  0  0  0  0  0  0  0  0
  190.0760  176.4330  139.7110 N   0  0  0  0  0  2  0  0  0  0  0  0
  186.9320  177.6940  146.3200 C   0  0  0  0  0  1  0  0  0  0  0  0
  189.9890  177.2110  142.0890 C   0  0  0  0  0  0  0  0  0  0  0  0
  188.2990  177.4490  145.7820 C   0  0  0  0  0  0  0  0  0  0  0  0
  189.4370  177.1060  146.5190 C   0  0  0  0  0  3  0  0  0  0  0  0
  189.9970  177.1140  144.4270 C   0  0  0  0  0  0  0  0  0  0  0  0
  190.6720  177.0010  143.2580 N   0  0  0  0  0  0  0  0  0  0  0  0
  188.6800  177.4340  144.4630 C   0  0  0  0  0  0  0  0  0  0  0  0
  190.4730  176.9130  145.6660 N   0  0  0  0  0  0  0  0  0  0  0  0
  191.8080  176.4750  146.0280 C   0  0  0  0  0  1  0  0  0  0  0  0
  188.6090  177.5450  142.1320 C   0  0  0  0  0  3  0  0  0  0  0  0
  187.9640  177.6490  143.3340 N   0  0  0  0  0  0  0  0  0  0  0  0
  191.7340  175.3680  138.2090 N   0  0  0  0  0  2  0  0  0  0  0  0
  193.4350  176.9130  137.7590 O   0  0  0  0  0  0  0  0  0  0  0  0
  193.1070  175.7250  138.0200 C   0  0  0  0  0  0  0  0  0  0  0  0
  194.0780  174.7260  138.0910 O   0  0  0  0  0  0  0  0  0  0  0  0
  194.0110  173.5560  137.2910 C   0  0  0  0  0  1  0  0  0  0  0  0
  189.2720  179.0870  138.0320 O   0  0  0  0  0  0  0  0  0  0  0  0
  189.0920  178.0120  137.4010 C   0  0  0  0  0  0  0  0  0  0  0  0
  187.8090  177.8340  136.6510 C   0  0  0  0  0  2  0  0  0  0  0  0
  187.2050  176.4690  136.9480 C   0  0  0  0  0  2  0  0  0  0  0  0
  185.7130  176.5750  137.2080 C   0  0  0  0  0  2  0  0  0  0  0  0
  185.3460  178.0130  137.5200 C   0  0  0  0  0  2  0  0  0  0  0  0
  183.7100  179.2140  139.0090 C   0  0  0  0  0  0  0  0  0  0  0  0
  184.1290  178.0390  138.3150 N   0  0  0  0  0  2  0  0  0  0  0  0
  184.4110  180.2610  138.9770 O   0  0  0  0  0  0  0  0  0  0  0  0
  182.4170  179.2230  139.7570 C   0  0  0  0  0  2  0  0  0  0  0  0
  182.5350  178.4840  141.0120 N   0  0  0  0  0  0  0  0  0  0  0  0
  180.3120  179.4560  141.0770 N   0  0  0  0  0  1  0  0  0  0  0  0
  181.2380  178.5110  141.6980 C   0  0  0  0  0  2  0  0  0  0  0  0
  183.5360  179.1410  141.8450 C   0  0  0  0  0  2  0  0  0  0  0  0
  184.5760  178.1340  142.3060 C   0  0  0  0  0  2  0  0  0  0  0  0
  184.6060  178.0800  143.7030 O   0  0  0  0  0  1  0  0  0  0  0  0
  1 23  1  0  0  0  0
  1  2  2  0  0  0  0
  2  5  1  0  0  0  0
  3  4  2  0  0  0  0
  4  7  1  0  0  0  0
  5  4  1  0  0  0  0
  7 15  2  0  0  0  0
  7 11  1  0  0  0  0
  8  6  1  0  0  0  0
  8  9  2  0  0  0  0
 10 12  1  0  0  0  0
 10 13  1  0  0  0  0
 11 10  2  0  0  0  0
 12  8  1  0  0  0  0
 13 14  1  0  0  0  0
 13  9  1  0  0  0  0
 15 16  1  0  0  0  0
 16 12  2  0  0  0  0
 17  2  1  0  0  0  0
 18 19  2  0  0  0  0
 19 20  1  0  0  0  0
 19 17  1  0  0  0  0
 21 20  1  0  0  0  0
 23 22  2  0  0  0  0
 24 25  1  0  0  0  0
 24 23  1  0  0  0  0
 25 26  1  0  0  0  0
 26 27  1  0  0  0  0
 27 29  1  0  0  0  0
 28 31  1  0  0  0  0
 29 28  1  0  0  0  0
 30 28  2  0  0  0  0
 31 32  1  0  0  0  0
 32 34  1  0  0  0  0
 32 35  1  0  0  0  0
 33 34  1  0  0  0  0
 35 36  1  0  0  0  0
 36 37  1  0  0  0  0
M  END
>  <MODEL>
5

>  <REMARK>
 VINA RESULT:      -7.2      2.953      9.402
  Name = 
  15 active torsions:
  status: ('A' for Active; 'I' for Inactive)
    1  A    between atoms: C_2  and  C_15
    2  A    between atoms: C_2  and  C_22
    3  A    between atoms: N_3  and  C_12
    4  A    between atoms: N_3  and  C_29
    5  A    between atoms: N_3  and  C_30
    6  A    between atoms: C_4  and  C_22
    7  A    between atoms: C_6  and  C_29
    8  A    between atoms: C_7  and  N_10
    9  A    between atoms: C_7  and  N_36
   10  A    between atoms: C_8  and  C_16
   11  A    between atoms: N_9  and  C_26
   12  A    between atoms: C_12  and  C_24
   13  A    between atoms: C_15  and  C_33
   14  A    between atoms: C_26  and  C_33
   15  A    between atoms: O_32  and  C_37
                            x       y       z     vdW  Elec       q    Type
                         _______ _______ _______ _____ _____    ______ ____

>  <TORSDO>
F 15

$$$$
=
 OpenBabel10232411563D

 37 38  0  0  0  0  0  0  0  0999 V2000
  188.1140  177.4460  146.0440 C   0  0  0  0  0  3  0  0  0  0  0  0
  189.2600  177.5500  145.3550 C   0  0  0  0  0  0  0  0  0  0  0  0
  189.8560  175.6740  143.2050 O   0  0  0  0  0  0  0  0  0  0  0  0
  189.5150  176.8530  142.9140 C   0  0  0  0  0  0  0  0  0  0  0  0
  189.2350  177.8100  143.9460 N   0  0  0  0  0  2  0  0  0  0  0  0
  188.7160  179.2190  136.6940 C   0  0  0  0  0  1  0  0  0  0  0  0
  189.4340  177.2730  141.5090 C   0  0  0  0  0  0  0  0  0  0  0  0
  189.3600  178.1780  137.5430 C   0  0  0  0  0  0  0  0  0  0  0  0
  190.2810  177.2120  137.1240 C   0  0  0  0  0  3  0  0  0  0  0  0
  190.0370  176.9920  139.2650 C   0  0  0  0  0  0  0  0  0  0  0  0
  190.1490  176.5970  140.5560 N   0  0  0  0  0  0  0  0  0  0  0  0
  189.2350  178.0240  138.9020 C   0  0  0  0  0  0  0  0  0  0  0  0
  190.6770  176.4870  138.1990 N   0  0  0  0  0  0  0  0  0  0  0  0
  191.6780  175.4370  138.1990 C   0  0  0  0  0  1  0  0  0  0  0  0
  188.5970  178.3550  141.1220 C   0  0  0  0  0  3  0  0  0  0  0  0
  188.5110  178.7220  139.8080 N   0  0  0  0  0  0  0  0  0  0  0  0
  190.5190  177.3160  146.0060 N   0  0  0  0  0  2  0  0  0  0  0  0
  189.9490  177.9350  148.1930 O   0  0  0  0  0  0  0  0  0  0  0  0
  190.7800  177.3970  147.4110 C   0  0  0  0  0  0  0  0  0  0  0  0
  191.9900  176.9060  147.9010 O   0  0  0  0  0  0  0  0  0  0  0  0
  192.3730  175.5500  147.7310 C   0  0  0  0  0  1  0  0  0  0  0  0
  186.4030  177.0130  144.4840 O   0  0  0  0  0  0  0  0  0  0  0  0
  186.7370  177.6230  145.5340 C   0  0  0  0  0  0  0  0  0  0  0  0
  185.7000  178.4350  146.2440 C   0  0  0  0  0  2  0  0  0  0  0  0
  184.9350  179.3020  145.2540 C   0  0  0  0  0  2  0  0  0  0  0  0
  183.5380  178.7590  145.0160 C   0  0  0  0  0  2  0  0  0  0  0  0
  182.8700  179.5280  143.8930 C   0  0  0  0  0  2  0  0  0  0  0  0
  182.0420  178.7740  141.6380 C   0  0  0  0  0  0  0  0  0  0  0  0
  183.0590  178.8160  142.6400 N   0  0  0  0  0  2  0  0  0  0  0  0
  180.9290  179.3330  141.8320 O   0  0  0  0  0  0  0  0  0  0  0  0
  182.3010  178.0930  140.3340 C   0  0  0  0  0  2  0  0  0  0  0  0
  182.3800  179.0630  139.2450 N   0  0  0  0  0  0  0  0  0  0  0  0
  182.2020  176.9030  138.1540 N   0  0  0  0  0  1  0  0  0  0  0  0
  182.2320  178.3530  137.9690 C   0  0  0  0  0  2  0  0  0  0  0  0
  183.6870  179.7090  139.2910 C   0  0  0  0  0  2  0  0  0  0  0  0
  184.7860  178.6620  139.3570 C   0  0  0  0  0  2  0  0  0  0  0  0
  185.6640  178.8190  138.2800 O   0  0  0  0  0  1  0  0  0  0  0  0
  2 17  1  0  0  0  0
  2  1  2  0  0  0  0
  4  3  2  0  0  0  0
  4  5  1  0  0  0  0
  5  2  1  0  0  0  0
  6  8  1  0  0  0  0
  7  4  1  0  0  0  0
  8 12  1  0  0  0  0
  9  8  2  0  0  0  0
  9 13  1  0  0  0  0
 10 11  1  0  0  0  0
 11  7  2  0  0  0  0
 12 10  2  0  0  0  0
 12 16  1  0  0  0  0
 13 10  1  0  0  0  0
 14 13  1  0  0  0  0
 15  7  1  0  0  0  0
 16 15  2  0  0  0  0
 17 19  1  0  0  0  0
 19 20  1  0  0  0  0
 19 18  2  0  0  0  0
 21 20  1  0  0  0  0
 22 23  2  0  0  0  0
 23  1  1  0  0  0  0
 23 24  1  0  0  0  0
 25 24  1  0  0  0  0
 26 25  1  0  0  0  0
 27 26  1  0  0  0  0
 28 30  2  0  0  0  0
 28 29  1  0  0  0  0
 29 27  1  0  0  0  0
 31 28  1  0  0  0  0
 32 35  1  0  0  0  0
 32 31  1  0  0  0  0
 34 33  1  0  0  0  0
 34 32  1  0  0  0  0
 35 36  1  0  0  0  0
 37 36  1  0  0  0  0
M  END
>  <MODEL>
6

>  <REMARK>
 VINA RESULT:      -7.2      1.973      7.327
  Name = 
  15 active torsions:
  status: ('A' for Active; 'I' for Inactive)
    1  A    between atoms: C_2  and  C_15
    2  A    between atoms: C_2  and  C_22
    3  A    between atoms: N_3  and  C_12
    4  A    between atoms: N_3  and  C_29
    5  A    between atoms: N_3  and  C_30
    6  A    between atoms: C_4  and  C_22
    7  A    between atoms: C_6  and  C_29
    8  A    between atoms: C_7  and  N_10
    9  A    between atoms: C_7  and  N_36
   10  A    between atoms: C_8  and  C_16
   11  A    between atoms: N_9  and  C_26
   12  A    between atoms: C_12  and  C_24
   13  A    between atoms: C_15  and  C_33
   14  A    between atoms: C_26  and  C_33
   15  A    between atoms: O_32  and  C_37
                            x       y       z     vdW  Elec       q    Type
                         _______ _______ _______ _____ _____    ______ ____

>  <TORSDO>
F 15

$$$$
=
 OpenBabel10232411563D

 37 38  0  0  0  0  0  0  0  0999 V2000
  189.8020  177.2530  137.8880 C   0  0  0  0  0  3  0  0  0  0  0  0
  190.3080  176.4680  138.8510 C   0  0  0  0  0  0  0  0  0  0  0  0
  191.7250  177.7030  141.0790 O   0  0  0  0  0  0  0  0  0  0  0  0
  190.5710  177.2320  141.2710 C   0  0  0  0  0  0  0  0  0  0  0  0
  189.8520  176.5980  140.2030 N   0  0  0  0  0  2  0  0  0  0  0  0
  187.2410  177.7450  147.0650 C   0  0  0  0  0  1  0  0  0  0  0  0
  189.9590  177.2960  142.6050 C   0  0  0  0  0  0  0  0  0  0  0  0
  188.5460  177.4330  146.4170 C   0  0  0  0  0  0  0  0  0  0  0  0
  189.7000  176.9620  147.0510 C   0  0  0  0  0  3  0  0  0  0  0  0
  190.1170  177.0570  144.9280 C   0  0  0  0  0  0  0  0  0  0  0  0
  190.7010  176.9660  143.7080 N   0  0  0  0  0  0  0  0  0  0  0  0
  188.8340  177.4700  145.0760 C   0  0  0  0  0  0  0  0  0  0  0  0
  190.6580  176.7460  146.1150 N   0  0  0  0  0  0  0  0  0  0  0  0
  191.9760  176.1890  146.3560 C   0  0  0  0  0  1  0  0  0  0  0  0
  188.6150  177.7280  142.7660 C   0  0  0  0  0  3  0  0  0  0  0  0
  188.0620  177.8070  144.0140 N   0  0  0  0  0  0  0  0  0  0  0  0
  191.3730  175.5510  138.5510 N   0  0  0  0  0  2  0  0  0  0  0  0
  190.3010  174.2150  136.9540 O   0  0  0  0  0  0  0  0  0  0  0  0
  191.3700  174.5450  137.5330 C   0  0  0  0  0  0  0  0  0  0  0  0
  192.5690  173.9050  137.2160 O   0  0  0  0  0  0  0  0  0  0  0  0
  193.5470  174.5130  136.3880 C   0  0  0  0  0  1  0  0  0  0  0  0
  188.9960  179.4580  137.7090 O   0  0  0  0  0  0  0  0  0  0  0  0
  188.7330  178.2670  138.0200 C   0  0  0  0  0  0  0  0  0  0  0  0
  187.3360  177.9320  138.4380 C   0  0  0  0  0  2  0  0  0  0  0  0
  186.3700  178.1500  137.2810 C   0  0  0  0  0  2  0  0  0  0  0  0
  184.9480  177.8040  137.6840 C   0  0  0  0  0  2  0  0  0  0  0  0
  184.4140  178.8500  138.6420 C   0  0  0  0  0  2  0  0  0  0  0  0
  184.5520  178.6770  141.1500 C   0  0  0  0  0  0  0  0  0  0  0  0
  184.0470  178.2140  139.8960 N   0  0  0  0  0  2  0  0  0  0  0  0
  185.3650  179.6380  141.1970 O   0  0  0  0  0  0  0  0  0  0  0  0
  184.0950  178.0430  142.4230 C   0  0  0  0  0  2  0  0  0  0  0  0
  183.8320  179.0540  143.4440 N   0  0  0  0  0  0  0  0  0  0  0  0
  184.4280  179.5010  145.7540 N   0  0  0  0  0  1  0  0  0  0  0  0
  184.8800  178.9740  144.4670 C   0  0  0  0  0  2  0  0  0  0  0  0
  182.5380  178.7710  144.0550 C   0  0  0  0  0  2  0  0  0  0  0  0
  181.4400  179.5390  143.3380 C   0  0  0  0  0  2  0  0  0  0  0  0
  181.1250  178.9100  142.1300 O   0  0  0  0  0  1  0  0  0  0  0  0
  1 23  1  0  0  0  0
  1  2  2  0  0  0  0
  2  5  1  0  0  0  0
  3  4  2  0  0  0  0
  4  7  1  0  0  0  0
  5  4  1  0  0  0  0
  7 15  2  0  0  0  0
  7 11  1  0  0  0  0
  8  9  2  0  0  0  0
  8  6  1  0  0  0  0
 10 12  1  0  0  0  0
 10 13  1  0  0  0  0
 11 10  2  0  0  0  0
 12  8  1  0  0  0  0
 13 14  1  0  0  0  0
 13  9  1  0  0  0  0
 15 16  1  0  0  0  0
 16 12  2  0  0  0  0
 17  2  1  0  0  0  0
 18 19  2  0  0  0  0
 19 17  1  0  0  0  0
 20 19  1  0  0  0  0
 21 20  1  0  0  0  0
 22 23  2  0  0  0  0
 23 24  1  0  0  0  0
 25 26  1  0  0  0  0
 25 24  1  0  0  0  0
 26 27  1  0  0  0  0
 27 29  1  0  0  0  0
 28 30  2  0  0  0  0
 28 31  1  0  0  0  0
 29 28  1  0  0  0  0
 31 32  1  0  0  0  0
 32 35  1  0  0  0  0
 32 34  1  0  0  0  0
 34 33  1  0  0  0  0
 36 35  1  0  0  0  0
 37 36  1  0  0  0  0
M  END
>  <MODEL>
7

>  <REMARK>
 VINA RESULT:      -7.2      2.945      8.868
  Name = 
  15 active torsions:
  status: ('A' for Active; 'I' for Inactive)
    1  A    between atoms: C_2  and  C_15
    2  A    between atoms: C_2  and  C_22
    3  A    between atoms: N_3  and  C_12
    4  A    between atoms: N_3  and  C_29
    5  A    between atoms: N_3  and  C_30
    6  A    between atoms: C_4  and  C_22
    7  A    between atoms: C_6  and  C_29
    8  A    between atoms: C_7  and  N_10
    9  A    between atoms: C_7  and  N_36
   10  A    between atoms: C_8  and  C_16
   11  A    between atoms: N_9  and  C_26
   12  A    between atoms: C_12  and  C_24
   13  A    between atoms: C_15  and  C_33
   14  A    between atoms: C_26  and  C_33
   15  A    between atoms: O_32  and  C_37
                            x       y       z     vdW  Elec       q    Type
                         _______ _______ _______ _____ _____    ______ ____

>  <TORSDO>
F 15

$$$$
=
 OpenBabel10232411563D

 37 38  0  0  0  0  0  0  0  0999 V2000
  182.6140  178.8060  142.5540 C   0  0  0  0  0  3  0  0  0  0  0  0
  183.0070  178.2450  141.4010 C   0  0  0  0  0  0  0  0  0  0  0  0
  184.7670  179.8680  139.7390 O   0  0  0  0  0  0  0  0  0  0  0  0
  185.2410  178.8610  140.3320 C   0  0  0  0  0  0  0  0  0  0  0  0
  184.3990  178.0270  141.1420 N   0  0  0  0  0  2  0  0  0  0  0  0
  191.7520  177.2780  140.2580 C   0  0  0  0  0  1  0  0  0  0  0  0
  186.6570  178.5080  140.1740 C   0  0  0  0  0  0  0  0  0  0  0  0
  190.5510  177.5890  139.4350 C   0  0  0  0  0  0  0  0  0  0  0  0
  190.4570  177.5320  138.0400 C   0  0  0  0  0  3  0  0  0  0  0  0
  188.4980  178.0540  138.8020 C   0  0  0  0  0  0  0  0  0  0  0  0
  187.1820  178.3570  138.9180 N   0  0  0  0  0  0  0  0  0  0  0  0
  189.2950  177.9080  139.8890 C   0  0  0  0  0  0  0  0  0  0  0  0
  189.1870  177.8310  137.6720 N   0  0  0  0  0  0  0  0  0  0  0  0
  188.6620  177.8100  136.3190 C   0  0  0  0  0  1  0  0  0  0  0  0
  187.4970  178.3530  141.3100 C   0  0  0  0  0  3  0  0  0  0  0  0
  188.8210  178.0470  141.1500 N   0  0  0  0  0  0  0  0  0  0  0  0
  182.0440  177.9370  140.3810 N   0  0  0  0  0  2  0  0  0  0  0  0
  181.0840  180.0550  140.0970 O   0  0  0  0  0  0  0  0  0  0  0  0
  181.2110  178.8710  139.6840 C   0  0  0  0  0  0  0  0  0  0  0  0
  180.5100  178.4390  138.5590 O   0  0  0  0  0  0  0  0  0  0  0  0
  180.8710  178.8430  137.2480 C   0  0  0  0  0  1  0  0  0  0  0  0
  183.3540  180.3880  144.1330 O   0  0  0  0  0  0  0  0  0  0  0  0
  183.4630  179.2130  143.6940 C   0  0  0  0  0  0  0  0  0  0  0  0
  184.3930  178.2750  144.3970 C   0  0  0  0  0  2  0  0  0  0  0  0
  185.2700  179.0360  145.3810 C   0  0  0  0  0  2  0  0  0  0  0  0
  185.2060  178.4160  146.7650 C   0  0  0  0  0  2  0  0  0  0  0  0
  186.5990  178.0320  147.2240 C   0  0  0  0  0  2  0  0  0  0  0  0
  188.7800  177.3800  146.1500 C   0  0  0  0  0  0  0  0  0  0  0  0
  187.4900  177.9890  146.0770 N   0  0  0  0  0  2  0  0  0  0  0  0
  189.1960  176.8900  147.2340 O   0  0  0  0  0  0  0  0  0  0  0  0
  189.6390  177.2910  144.9300 C   0  0  0  0  0  2  0  0  0  0  0  0
  191.0230  177.6410  145.2400 N   0  0  0  0  0  0  0  0  0  0  0  0
  190.7360  179.5140  143.7240 N   0  0  0  0  0  1  0  0  0  0  0  0
  191.5840  178.3870  144.1070 C   0  0  0  0  0  2  0  0  0  0  0  0
  191.7820  176.4100  145.4320 C   0  0  0  0  0  2  0  0  0  0  0  0
  191.7610  175.5780  144.1610 C   0  0  0  0  0  2  0  0  0  0  0  0
  192.3140  174.3170  144.4050 O   0  0  0  0  0  1  0  0  0  0  0  0
  1 23  1  0  0  0  0
  2  1  2  0  0  0  0
  3  4  2  0  0  0  0
  4  5  1  0  0  0  0
  5  2  1  0  0  0  0
  7  4  1  0  0  0  0
  7 15  1  0  0  0  0
  8 12  1  0  0  0  0
  8  6  1  0  0  0  0
  9  8  2  0  0  0  0
 10 11  1  0  0  0  0
 10 12  2  0  0  0  0
 11  7  2  0  0  0  0
 12 16  1  0  0  0  0
 13  9  1  0  0  0  0
 13 10  1  0  0  0  0
 14 13  1  0  0  0  0
 16 15  2  0  0  0  0
 17  2  1  0  0  0  0
 19 18  2  0  0  0  0
 19 17  1  0  0  0  0
 20 19  1  0  0  0  0
 21 20  1  0  0  0  0
 23 22  2  0  0  0  0
 23 24  1  0  0  0  0
 24 25  1  0  0  0  0
 25 26  1  0  0  0  0
 26 27  1  0  0  0  0
 28 30  2  0  0  0  0
 29 28  1  0  0  0  0
 29 27  1  0  0  0  0
 31 32  1  0  0  0  0
 31 28  1  0  0  0  0
 32 35  1  0  0  0  0
 33 34  1  0  0  0  0
 34 32  1  0  0  0  0
 36 37  1  0  0  0  0
 36 35  1  0  0  0  0
M  END
>  <MODEL>
8

>  <REMARK>
 VINA RESULT:      -7.2      1.801      2.422
  Name = 
  15 active torsions:
  status: ('A' for Active; 'I' for Inactive)
    1  A    between atoms: C_2  and  C_15
    2  A    between atoms: C_2  and  C_22
    3  A    between atoms: N_3  and  C_12
    4  A    between atoms: N_3  and  C_29
    5  A    between atoms: N_3  and  C_30
    6  A    between atoms: C_4  and  C_22
    7  A    between atoms: C_6  and  C_29
    8  A    between atoms: C_7  and  N_10
    9  A    between atoms: C_7  and  N_36
   10  A    between atoms: C_8  and  C_16
   11  A    between atoms: N_9  and  C_26
   12  A    between atoms: C_12  and  C_24
   13  A    between atoms: C_15  and  C_33
   14  A    between atoms: C_26  and  C_33
   15  A    between atoms: O_32  and  C_37
                            x       y       z     vdW  Elec       q    Type
                         _______ _______ _______ _____ _____    ______ ____

>  <TORSDO>
F 15

$$$$
=
 OpenBabel10232411563D

 37 38  0  0  0  0  0  0  0  0999 V2000
  189.8230  177.3720  137.3460 C   0  0  0  0  0  3  0  0  0  0  0  0
  190.4140  176.5630  138.2380 C   0  0  0  0  0  0  0  0  0  0  0  0
  192.1010  177.6680  140.3420 O   0  0  0  0  0  0  0  0  0  0  0  0
  190.9510  177.2450  140.6380 C   0  0  0  0  0  0  0  0  0  0  0  0
  190.1010  176.6750  139.6320 N   0  0  0  0  0  2  0  0  0  0  0  0
  189.4060  177.3760  147.1580 C   0  0  0  0  0  1  0  0  0  0  0  0
  190.4780  177.2980  142.0270 C   0  0  0  0  0  0  0  0  0  0  0  0
  188.8790  177.4300  145.7650 C   0  0  0  0  0  0  0  0  0  0  0  0
  187.5540  177.6650  145.3830 C   0  0  0  0  0  3  0  0  0  0  0  0
  188.7330  177.4960  143.5740 C   0  0  0  0  0  0  0  0  0  0  0  0
  189.1440  177.4750  142.2820 N   0  0  0  0  0  0  0  0  0  0  0  0
  189.6030  177.3400  144.6020 C   0  0  0  0  0  0  0  0  0  0  0  0
  187.4860  177.6930  144.0290 N   0  0  0  0  0  0  0  0  0  0  0  0
  186.3030  177.9810  143.2390 C   0  0  0  0  0  1  0  0  0  0  0  0
  191.3850  177.1360  143.1090 C   0  0  0  0  0  3  0  0  0  0  0  0
  190.9300  177.1640  144.3980 N   0  0  0  0  0  0  0  0  0  0  0  0
  191.4280  175.6380  137.8150 N   0  0  0  0  0  2  0  0  0  0  0  0
  190.1000  173.7470  137.4370 O   0  0  0  0  0  0  0  0  0  0  0  0
  191.2190  174.3130  137.3160 C   0  0  0  0  0  0  0  0  0  0  0  0
  192.2880  173.6400  136.7240 O   0  0  0  0  0  0  0  0  0  0  0  0
  193.5960  173.6790  137.2740 C   0  0  0  0  0  1  0  0  0  0  0  0
  188.9740  179.2110  138.5470 O   0  0  0  0  0  0  0  0  0  0  0  0
  188.7890  178.3970  137.6040 C   0  0  0  0  0  0  0  0  0  0  0  0
  187.5680  178.5590  136.7550 C   0  0  0  0  0  2  0  0  0  0  0  0
  186.5030  177.5480  137.1580 C   0  0  0  0  0  2  0  0  0  0  0  0
  185.6480  177.1510  135.9680 C   0  0  0  0  0  2  0  0  0  0  0  0
  184.5760  176.1730  136.4080 C   0  0  0  0  0  2  0  0  0  0  0  0
  182.9580  176.9380  138.1780 C   0  0  0  0  0  0  0  0  0  0  0  0
  184.2350  176.4230  137.7980 N   0  0  0  0  0  2  0  0  0  0  0  0
  182.0970  177.2240  137.3030 O   0  0  0  0  0  0  0  0  0  0  0  0
  182.6190  177.1140  139.6220 C   0  0  0  0  0  2  0  0  0  0  0  0
  182.5380  178.5300  139.9710 N   0  0  0  0  0  0  0  0  0  0  0  0
  184.4840  179.9090  139.5230 N   0  0  0  0  0  1  0  0  0  0  0  0
  183.8530  178.9730  140.4500 C   0  0  0  0  0  2  0  0  0  0  0  0
  181.5560  178.6910  141.0360 C   0  0  0  0  0  2  0  0  0  0  0  0
  180.5660  179.7860  140.6760 C   0  0  0  0  0  2  0  0  0  0  0  0
  180.3920  179.8380  139.2890 O   0  0  0  0  0  1  0  0  0  0  0  0
  1 23  1  0  0  0  0
  1  2  2  0  0  0  0
  2  5  1  0  0  0  0
  3  4  2  0  0  0  0
  4  7  1  0  0  0  0
  5  4  1  0  0  0  0
  7 11  2  0  0  0  0
  7 15  1  0  0  0  0
  8  6  1  0  0  0  0
  9  8  2  0  0  0  0
 10 13  1  0  0  0  0
 10 12  2  0  0  0  0
 11 10  1  0  0  0  0
 12  8  1  0  0  0  0
 13  9  1  0  0  0  0
 14 13  1  0  0  0  0
 15 16  2  0  0  0  0
 16 12  1  0  0  0  0
 17  2  1  0  0  0  0
 19 18  2  0  0  0  0
 19 17  1  0  0  0  0
 20 21  1  0  0  0  0
 20 19  1  0  0  0  0
 23 22  2  0  0  0  0
 24 25  1  0  0  0  0
 24 23  1  0  0  0  0
 26 27  1  0  0  0  0
 26 25  1  0  0  0  0
 27 29  1  0  0  0  0
 28 31  1  0  0  0  0
 29 28  1  0  0  0  0
 30 28  2  0  0  0  0
 31 32  1  0  0  0  0
 32 34  1  0  0  0  0
 32 35  1  0  0  0  0
 33 34  1  0  0  0  0
 36 35  1  0  0  0  0
 37 36  1  0  0  0  0
M  END
>  <MODEL>
9

>  <REMARK>
 VINA RESULT:      -6.9      3.306      9.418
  Name = 
  15 active torsions:
  status: ('A' for Active; 'I' for Inactive)
    1  A    between atoms: C_2  and  C_15
    2  A    between atoms: C_2  and  C_22
    3  A    between atoms: N_3  and  C_12
    4  A    between atoms: N_3  and  C_29
    5  A    between atoms: N_3  and  C_30
    6  A    between atoms: C_4  and  C_22
    7  A    between atoms: C_6  and  C_29
    8  A    between atoms: C_7  and  N_10
    9  A    between atoms: C_7  and  N_36
   10  A    between atoms: C_8  and  C_16
   11  A    between atoms: N_9  and  C_26
   12  A    between atoms: C_12  and  C_24
   13  A    between atoms: C_15  and  C_33
   14  A    between atoms: C_26  and  C_33
   15  A    between atoms: O_32  and  C_37
                            x       y       z     vdW  Elec       q    Type
                         _______ _______ _______ _____ _____    ______ ____

>  <TORSDO>
F 15

$$$$
