=
 OpenBabel10232412203D

 66 69  0  0  1  0  0  0  0  0999 V2000
  189.3970  177.1980  138.6360 C   0  0  0  0  0  3  0  0  0  0  0  0
  186.3880  178.8420  139.7330 C   0  0  0  0  0  2  0  0  0  0  0  0
  188.1350  177.5030  138.7130 C   0  0  0  0  0  0  0  0  0  0  0  0
  184.6500  177.5650  137.7880 C   0  0  0  0  0  0  0  0  0  0  0  0
  184.8890  178.7950  139.8950 C   0  0  0  0  0  3  0  0  0  0  0  0
  185.9670  177.3510  137.7010 C   0  0  0  0  0  3  0  0  0  0  0  0
  186.8660  177.7980  138.7700 C   0  0  0  0  0  0  0  0  0  0  0  0
  184.0660  178.2270  138.9960 C   0  0  0  0  0  0  0  0  0  0  0  0
  189.8360  176.2610  137.6530 N   0  0  0  0  0  2  0  0  0  0  0  0
  190.0050  176.6130  136.2470 C   0  0  2  0  0  3  0  0  0  0  0  0
  186.8480  178.4860  134.3520 Cl  0  0  0  0  0  0  0  0  0  0  0  0
  188.9820  177.7020  135.8410 C   0  0  0  0  0  2  0  0  0  0  0  0
  190.0010  175.3690  135.3200 C   0  0  2  0  0  3  0  0  0  0  0  0
  188.6110  174.9900  134.8950 C   0  0  0  0  0  3  0  0  0  0  0  0
  188.2360  177.3920  134.5380 C   0  0  1  0  0  3  0  0  0  0  0  0
  187.7690  175.9600  134.5190 C   0  0  0  0  0  3  0  0  0  0  0  0
  190.2820  173.4910  137.2590 O   0  0  0  0  0  0  0  0  0  0  0  0
  190.8700  172.8570  134.9510 O   0  0  0  0  0  0  0  0  0  0  0  0
  190.9120  173.9670  135.9710 S   0  0  0  0  0  0  0  0  0  0  0  0
  192.5640  174.4370  136.2390 N   0  0  0  0  0  2  0  0  0  0  0  0
  192.7540  174.5790  137.6710 C   0  0  0  0  0  2  0  0  0  0  0  0
  193.6820  176.7690  137.4890 O   0  0  0  0  0  0  0  0  0  0  0  0
  193.8070  175.5990  137.9450 C   0  0  0  0  0  0  0  0  0  0  0  0
  194.9350  175.2540  138.6810 O   0  0  0  0  0  1  0  0  0  0  0  0
  182.6430  178.2130  139.2430 N   0  0  0  0  0  0  0  0  0  0  0  0
  183.0970  178.8310  141.5750 C   0  0  0  0  0  2  0  0  0  0  0  0
  182.1080  178.9010  140.4310 C   0  0  2  0  0  3  0  0  0  0  0  0
  180.7870  178.2990  140.8980 C   0  0  0  0  0  2  0  0  0  0  0  0
  180.6840  178.4170  142.7100 S   0  0  0  0  0  0  0  0  0  0  0  0
  182.3360  179.1820  142.8310 C   0  0  1  0  0  3  0  0  0  0  0  0
  184.2970  178.2370  143.8980 N   0  0  0  0  0  0  0  0  0  0  0  0
  183.0780  178.6490  144.0120 C   0  0  0  0  0  3  0  0  0  0  0  0
  186.1330  178.3950  145.5310 C   0  0  0  0  0  0  0  0  0  0  0  0
  184.9680  177.7470  145.0230 N   0  0  0  0  0  2  0  0  0  0  0  0
  186.5510  179.4620  145.0020 O   0  0  0  0  0  0  0  0  0  0  0  0
  186.8690  177.7930  146.6830 C   0  0  0  0  0  2  0  0  0  0  0  0
  188.1970  177.2170  146.2220 C   0  0  0  0  0  2  0  0  0  0  0  0
  189.1800  178.3370  145.8860 C   0  0  2  0  0  3  0  0  0  0  0  0
  190.2330  178.0160  144.8240 C   0  0  2  0  0  0  0  0  0  0  0  0
  190.6350  178.0460  146.3000 C   0  0  2  0  0  3  0  0  0  0  0  0
  191.4800  180.0510  144.9110 O   0  0  0  0  0  1  0  0  0  0  0  0
  190.6940  179.2580  144.0780 C   0  0  0  0  0  2  0  0  0  0  0  0
  190.7820  176.7600  146.8350 O   0  0  0  0  0  0  0  0  0  0  0  0
  192.4890  175.5530  147.9770 C   0  0  0  0  0  1  0  0  0  0  0  0
  191.7980  176.8880  147.7870 C   0  0  0  0  0  2  0  0  0  0  0  0
  190.3080  176.6720  144.0360 C   0  0  1  0  0  3  0  0  0  0  0  0
  187.0660  176.6990  142.0930 O   0  0  0  0  0  1  0  0  0  0  0  0
  187.9480  176.6980  143.1240 N   0  0  0  0  0  2  0  0  0  0  0  0
  189.7840  176.6850  141.6930 O   0  0  0  0  0  0  0  0  0  0  0  0
  189.3520  176.6760  142.8780 C   0  0  0  0  0  0  0  0  0  0  0  0
  191.5930  176.3240  143.6000 O   0  0  0  0  0  0  0  0  0  0  0  0
  191.6450  174.9300  143.6970 C   0  0  0  0  0  2  0  0  0  0  0  0
  192.8150  173.1660  144.8710 N   0  0  0  0  0  1  0  0  0  0  0  0
  192.3530  174.5340  144.9820 C   0  0  0  0  0  2  0  0  0  0  0  0
  182.1240  175.9360  139.0750 O   0  0  0  0  0  1  0  0  0  0  0  0
  181.8110  177.2020  138.5830 C   0  0  0  0  0  2  0  0  0  0  0  0
  183.8150  177.2310  136.5930 C   0  0  0  0  0  2  0  0  0  0  0  0
  184.0730  175.5630  134.8190 C   0  0  0  0  0  3  0  0  0  0  0  0
  184.1640  175.8610  136.1090 C   0  0  0  0  0  3  0  0  0  0  0  0
  184.4080  174.1880  134.3480 C   0  0  0  0  0  2  0  0  0  0  0  0
  183.9330  173.1510  135.3540 C   0  0  1  0  0  3  0  0  0  0  0  0
  183.0460  171.1280  135.2480 C   0  0  0  0  0  1  0  0  0  0  0  0
  182.8610  172.4350  134.8130 O   0  0  0  0  0  0  0  0  0  0  0  0
  185.0730  172.1900  135.6780 C   0  0  0  0  0  2  0  0  0  0  0  0
  186.5120  172.8310  137.2250 C   0  0  0  0  0  1  0  0  0  0  0  0
  186.2610  172.9040  135.8540 O   0  0  0  0  0  0  0  0  0  0  0  0
  1  3  2  0  0  0  0
  2  5  1  0  0  0  0
  3  7  2  0  0  0  0
  4  8  1  0  0  0  0
  6  4  2  0  0  0  0
  6  7  1  0  0  0  0
  7  2  1  0  0  0  0
  8 25  1  0  0  0  0
  8  5  2  0  0  0  0
  9  1  1  0  0  0  0
 10  9  1  1  0  0  0
 12 10  1  0  0  0  0
 13 19  1  1  0  0  0
 13 10  1  0  0  0  0
 14 13  1  0  0  0  0
 15 11  1  1  0  0  0
 15 12  1  0  0  0  0
 16 15  1  0  0  0  0
 16 14  2  0  0  0  0
 18 19  2  0  0  0  0
 19 20  1  0  0  0  0
 19 17  2  0  0  0  0
 20 21  1  0  0  0  0
 21 23  1  0  0  0  0
 22 23  2  0  0  0  0
 23 24  1  0  0  0  0
 26 30  1  0  0  0  0
 27 25  1  6  0  0  0
 27 28  1  0  0  0  0
 27 26  1  0  0  0  0
 28 29  1  0  0  0  0
 29 30  1  0  0  0  0
 30 32  1  1  0  0  0
 31 32  2  0  0  0  0
 31 34  1  0  0  0  0
 33 36  1  0  0  0  0
 34 33  1  0  0  0  0
 35 33  2  0  0  0  0
 37 36  1  0  0  0  0
 38 37  1  1  0  0  0
 38 40  1  0  0  0  0
 39 42  1  6  0  0  0
 39 38  1  0  0  0  0
 39 40  1  0  0  0  0
 40 43  1  1  0  0  0
 42 41  1  0  0  0  0
 43 45  1  0  0  0  0
 45 44  1  0  0  0  0
 46 50  1  6  0  0  0
 46 39  1  0  0  0  0
 47 48  1  0  0  0  0
 49 50  2  0  0  0  0
 50 48  1  0  0  0  0
 51 52  1  0  0  0  0
 51 46  1  0  0  0  0
 52 54  1  0  0  0  0
 53 54  1  0  0  0  0
 56 55  1  0  0  0  0
 56 25  1  0  0  0  0
 57  4  1  0  0  0  0
 58 59  2  0  0  0  0
 59 57  1  0  0  0  0
 60 58  1  0  0  0  0
 61 60  1  6  0  0  0
 61 64  1  0  0  0  0
 63 62  1  0  0  0  0
 63 61  1  0  0  0  0
 64 66  1  0  0  0  0
 66 65  1  0  0  0  0
M  END
>  <MODEL>
1

>  <REMARK>
 VINA RESULT:      -4.3      0.000      0.000
  Name = 
  29 active torsions:
  status: ('A' for Active; 'I' for Inactive)
    1  A    between atoms: C_1  and  C_18
    2  A    between atoms: C_1  and  C_55
    3  A    between atoms: C_6  and  C_26
    4  A    between atoms: C_6  and  C_47
    5  A    between atoms: C_7  and  N_17
    6  A    between atoms: C_10  and  N_17
    7  A    between atoms: O_12  and  C_53
    8  A    between atoms: O_12  and  C_66
    9  A    between atoms: N_13  and  N_21
   10  A    between atoms: O_14  and  C_15
   11  A    between atoms: O_14  and  C_62
   12  A    between atoms: C_15  and  C_60
   13  A    between atoms: N_16  and  C_33
   14  A    between atoms: N_16  and  C_50
   15  A    between atoms: N_16  and  C_56
   16  A    between atoms: C_19  and  C_26
   17  A    between atoms: C_23  and  C_65
   18  A    between atoms: C_28  and  C_39
   19  A    between atoms: C_29  and  S_31
   20  A    between atoms: S_31  and  N_43
   21  A    between atoms: C_34  and  C_41
   22  A    between atoms: O_37  and  C_58
   23  A    between atoms: C_39  and  C_58
   24  A    between atoms: C_41  and  N_43
   25  A    between atoms: C_46  and  O_51
   26  A    between atoms: C_46  and  C_58
   27  A    between atoms: C_49  and  C_61
   28  A    between atoms: C_49  and  C_62
   29  A    between atoms: C_62  and  C_64
                            x       y       z     vdW  Elec       q    Type
                         _______ _______ _______ _____ _____    ______ ____

>  <TORSDO>
F 29

$$$$
=
 OpenBabel10232412203D

 66 69  0  0  1  0  0  0  0  0999 V2000
  188.7240  175.7600  137.6760 C   0  0  0  0  0  3  0  0  0  0  0  0
  186.1880  178.2780  137.2430 C   0  0  0  0  0  2  0  0  0  0  0  0
  187.5570  176.2850  137.4470 C   0  0  0  0  0  0  0  0  0  0  0  0
  184.0960  176.4290  136.4420 C   0  0  0  0  0  0  0  0  0  0  0  0
  184.7250  178.6420  137.2870 C   0  0  0  0  0  3  0  0  0  0  0  0
  185.3350  175.9530  136.6090 C   0  0  0  0  0  3  0  0  0  0  0  0
  186.3790  176.7920  137.2090 C   0  0  0  0  0  0  0  0  0  0  0  0
  183.7430  177.8080  136.9010 C   0  0  0  0  0  0  0  0  0  0  0  0
  188.8970  174.3490  137.5550 N   0  0  0  0  0  2  0  0  0  0  0  0
  190.1090  173.7470  137.0080 C   0  0  2  0  0  3  0  0  0  0  0  0
  193.2360  176.2740  136.0550 Cl  0  0  0  0  0  0  0  0  0  0  0  0
  191.3060  174.7160  137.1680 C   0  0  0  0  0  2  0  0  0  0  0  0
  189.9100  173.2250  135.5610 C   0  0  2  0  0  3  0  0  0  0  0  0
  190.1680  174.2950  134.5380 C   0  0  0  0  0  3  0  0  0  0  0  0
  192.1330  174.8900  135.8880 C   0  0  1  0  0  3  0  0  0  0  0  0
  191.2340  175.0890  134.6960 C   0  0  0  0  0  3  0  0  0  0  0  0
  187.7010  172.0500  136.6130 O   0  0  0  0  0  0  0  0  0  0  0  0
  187.4370  173.3320  134.5260 O   0  0  0  0  0  0  0  0  0  0  0  0
  188.3410  172.3980  135.2890 S   0  0  0  0  0  0  0  0  0  0  0  0
  188.6110  170.9620  134.3480 N   0  0  0  0  0  2  0  0  0  0  0  0
  189.3720  170.0350  135.1660 C   0  0  0  0  0  2  0  0  0  0  0  0
  188.9550  167.9380  136.2220 O   0  0  0  0  0  1  0  0  0  0  0  0
  188.6140  168.7620  135.3300 C   0  0  0  0  0  0  0  0  0  0  0  0
  187.5490  168.4730  134.4840 O   0  0  0  0  0  0  0  0  0  0  0  0
  182.3670  178.2370  136.9940 N   0  0  0  0  0  0  0  0  0  0  0  0
  182.6910  178.7670  139.3690 C   0  0  0  0  0  2  0  0  0  0  0  0
  181.7140  178.2950  138.3130 C   0  0  2  0  0  3  0  0  0  0  0  0
  181.1620  176.9390  138.7410 C   0  0  0  0  0  2  0  0  0  0  0  0
  181.2950  176.7820  140.5470 S   0  0  0  0  0  0  0  0  0  0  0  0
  182.0900  178.4150  140.7080 C   0  0  1  0  0  3  0  0  0  0  0  0
  184.3120  177.8170  141.4710 N   0  0  0  0  0  0  0  0  0  0  0  0
  183.1770  178.3750  141.7310 C   0  0  0  0  0  3  0  0  0  0  0  0
  185.0400  178.1860  143.7940 C   0  0  0  0  0  0  0  0  0  0  0  0
  185.3120  177.7980  142.4480 N   0  0  0  0  0  2  0  0  0  0  0  0
  183.8690  178.5040  144.1410 O   0  0  0  0  0  0  0  0  0  0  0  0
  186.1530  178.2310  144.7880 C   0  0  0  0  0  2  0  0  0  0  0  0
  187.4460  177.7350  144.1610 C   0  0  0  0  0  2  0  0  0  0  0  0
  188.6230  178.6030  144.6020 C   0  0  2  0  0  3  0  0  0  0  0  0
  190.0080  177.9590  144.5150 C   0  0  2  0  0  0  0  0  0  0  0  0
  189.3300  178.1070  145.8790 C   0  0  2  0  0  3  0  0  0  0  0  0
  190.5900  180.1200  143.6810 O   0  0  0  0  0  1  0  0  0  0  0  0
  191.1080  178.9880  144.3050 C   0  0  0  0  0  2  0  0  0  0  0  0
  188.7960  176.8970  146.3390 O   0  0  0  0  0  0  0  0  0  0  0  0
  189.4920  178.1150  148.2640 C   0  0  0  0  0  1  0  0  0  0  0  0
  188.4940  177.1340  147.6840 C   0  0  0  0  0  2  0  0  0  0  0  0
  190.2810  176.5330  143.9460 C   0  0  1  0  0  3  0  0  0  0  0  0
  188.6310  177.0390  140.5820 O   0  0  0  0  0  1  0  0  0  0  0  0
  188.8620  177.0640  141.9190 N   0  0  0  0  0  2  0  0  0  0  0  0
  190.9120  175.9850  141.6950 O   0  0  0  0  0  0  0  0  0  0  0  0
  190.0500  176.4940  142.4620 C   0  0  0  0  0  0  0  0  0  0  0  0
  191.5470  176.0170  144.2500 O   0  0  0  0  0  0  0  0  0  0  0  0
  191.3380  175.1440  145.3210 C   0  0  0  0  0  2  0  0  0  0  0  0
  191.7620  175.5940  147.6620 N   0  0  0  0  0  1  0  0  0  0  0  0
  192.4020  175.3710  146.3820 C   0  0  0  0  0  2  0  0  0  0  0  0
  181.7920  179.3180  134.9980 O   0  0  0  0  0  1  0  0  0  0  0  0
  181.5240  178.2060  135.7940 C   0  0  0  0  0  2  0  0  0  0  0  0
  183.1290  175.5820  135.6790 C   0  0  0  0  0  2  0  0  0  0  0  0
  183.2720  173.1860  136.1670 C   0  0  0  0  0  3  0  0  0  0  0  0
  183.7160  174.2240  135.4670 C   0  0  0  0  0  3  0  0  0  0  0  0
  183.8760  171.8370  135.9610 C   0  0  0  0  0  2  0  0  0  0  0  0
  182.7890  170.7930  135.7620 C   0  0  1  0  0  3  0  0  0  0  0  0
  184.5310  169.4820  135.3900 C   0  0  0  0  0  1  0  0  0  0  0  0
  183.3060  169.5250  136.0450 O   0  0  0  0  0  0  0  0  0  0  0  0
  181.6200  171.0840  136.6970 C   0  0  0  0  0  2  0  0  0  0  0  0
  180.5710  171.9000  134.9340 C   0  0  0  0  0  1  0  0  0  0  0  0
  180.4170  171.0030  135.9930 O   0  0  0  0  0  0  0  0  0  0  0  0
  2  5  1  0  0  0  0
  3  1  2  0  0  0  0
  4  6  2  0  0  0  0
  4  8  1  0  0  0  0
  6  7  1  0  0  0  0
  7  2  1  0  0  0  0
  7  3  2  0  0  0  0
  8 25  1  0  0  0  0
  8  5  2  0  0  0  0
  9  1  1  0  0  0  0
 10 12  1  0  0  0  0
 10  9  1  6  0  0  0
 13 19  1  1  0  0  0
 13 10  1  0  0  0  0
 14 16  2  0  0  0  0
 14 13  1  0  0  0  0
 15 11  1  1  0  0  0
 15 12  1  0  0  0  0
 16 15  1  0  0  0  0
 18 19  2  0  0  0  0
 19 17  2  0  0  0  0
 20 21  1  0  0  0  0
 20 19  1  0  0  0  0
 21 23  1  0  0  0  0
 23 22  1  0  0  0  0
 24 23  2  0  0  0  0
 26 30  1  0  0  0  0
 27 25  1  6  0  0  0
 27 28  1  0  0  0  0
 27 26  1  0  0  0  0
 28 29  1  0  0  0  0
 29 30  1  0  0  0  0
 30 32  1  1  0  0  0
 31 32  2  0  0  0  0
 31 34  1  0  0  0  0
 33 35  2  0  0  0  0
 33 36  1  0  0  0  0
 34 33  1  0  0  0  0
 37 36  1  0  0  0  0
 38 37  1  6  0  0  0
 38 40  1  0  0  0  0
 39 42  1  6  0  0  0
 39 38  1  0  0  0  0
 39 40  1  0  0  0  0
 40 43  1  6  0  0  0
 41 42  1  0  0  0  0
 43 45  1  0  0  0  0
 45 44  1  0  0  0  0
 46 50  1  6  0  0  0
 46 51  1  0  0  0  0
 46 39  1  0  0  0  0
 47 48  1  0  0  0  0
 48 50  1  0  0  0  0
 49 50  2  0  0  0  0
 51 52  1  0  0  0  0
 52 54  1  0  0  0  0
 54 53  1  0  0  0  0
 55 56  1  0  0  0  0
 56 25  1  0  0  0  0
 57  4  1  0  0  0  0
 59 57  1  0  0  0  0
 59 58  2  0  0  0  0
 60 58  1  0  0  0  0
 61 60  1  1  0  0  0
 61 63  1  0  0  0  0
 61 64  1  0  0  0  0
 62 63  1  0  0  0  0
 65 66  1  0  0  0  0
 66 64  1  0  0  0  0
M  END
>  <MODEL>
2

>  <REMARK>
 VINA RESULT:      -3.6      2.443      3.648
  Name = 
  29 active torsions:
  status: ('A' for Active; 'I' for Inactive)
    1  A    between atoms: C_1  and  C_18
    2  A    between atoms: C_1  and  C_55
    3  A    between atoms: C_6  and  C_26
    4  A    between atoms: C_6  and  C_47
    5  A    between atoms: C_7  and  N_17
    6  A    between atoms: C_10  and  N_17
    7  A    between atoms: O_12  and  C_53
    8  A    between atoms: O_12  and  C_66
    9  A    between atoms: N_13  and  N_21
   10  A    between atoms: O_14  and  C_15
   11  A    between atoms: O_14  and  C_62
   12  A    between atoms: C_15  and  C_60
   13  A    between atoms: N_16  and  C_33
   14  A    between atoms: N_16  and  C_50
   15  A    between atoms: N_16  and  C_56
   16  A    between atoms: C_19  and  C_26
   17  A    between atoms: C_23  and  C_65
   18  A    between atoms: C_28  and  C_39
   19  A    between atoms: C_29  and  S_31
   20  A    between atoms: S_31  and  N_43
   21  A    between atoms: C_34  and  C_41
   22  A    between atoms: O_37  and  C_58
   23  A    between atoms: C_39  and  C_58
   24  A    between atoms: C_41  and  N_43
   25  A    between atoms: C_46  and  O_51
   26  A    between atoms: C_46  and  C_58
   27  A    between atoms: C_49  and  C_61
   28  A    between atoms: C_49  and  C_62
   29  A    between atoms: C_62  and  C_64
                            x       y       z     vdW  Elec       q    Type
                         _______ _______ _______ _____ _____    ______ ____

>  <TORSDO>
F 29

$$$$
=
 OpenBabel10232412203D

 66 69  0  0  1  0  0  0  0  0999 V2000
  189.9480  175.6420  135.3040 C   0  0  0  0  0  3  0  0  0  0  0  0
  186.5350  176.2710  134.3460 C   0  0  0  0  0  2  0  0  0  0  0  0
  188.6560  175.5120  135.2490 C   0  0  0  0  0  0  0  0  0  0  0  0
  185.4240  173.9990  135.7750 C   0  0  0  0  0  0  0  0  0  0  0  0
  185.0700  176.1680  134.6880 C   0  0  0  0  0  3  0  0  0  0  0  0
  186.7550  174.1330  135.7290 C   0  0  0  0  0  3  0  0  0  0  0  0
  187.3610  175.3610  135.2050 C   0  0  0  0  0  0  0  0  0  0  0  0
  184.5330  175.1150  135.3310 C   0  0  0  0  0  0  0  0  0  0  0  0
  190.7180  174.7110  136.0630 N   0  0  0  0  0  2  0  0  0  0  0  0
  190.8660  174.8040  137.5120 C   0  0  2  0  0  3  0  0  0  0  0  0
  188.6760  177.7100  139.4710 Cl  0  0  0  0  0  0  0  0  0  0  0  0
  189.6630  175.5660  138.1230 C   0  0  0  0  0  2  0  0  0  0  0  0
  192.2470  175.3700  137.9310 C   0  0  2  0  0  3  0  0  0  0  0  0
  192.2460  176.8710  137.9920 C   0  0  0  0  0  3  0  0  0  0  0  0
  190.0680  176.6640  139.1130 C   0  0  1  0  0  3  0  0  0  0  0  0
  191.2010  177.4880  138.5600 C   0  0  0  0  0  3  0  0  0  0  0  0
  193.1230  174.1900  135.6490 O   0  0  0  0  0  0  0  0  0  0  0  0
  194.5830  175.8700  136.7080 O   0  0  0  0  0  0  0  0  0  0  0  0
  193.6220  174.7370  136.9670 S   0  0  0  0  0  0  0  0  0  0  0  0
  194.4290  173.4950  137.8740 N   0  0  0  0  0  2  0  0  0  0  0  0
  195.2890  174.1460  138.8460 C   0  0  0  0  0  2  0  0  0  0  0  0
  197.4120  175.1420  138.4120 O   0  0  0  0  0  1  0  0  0  0  0  0
  196.7060  174.0970  138.3840 C   0  0  0  0  0  0  0  0  0  0  0  0
  197.2390  172.9070  137.9030 O   0  0  0  0  0  0  0  0  0  0  0  0
  183.1200  175.1110  135.6320 N   0  0  0  0  0  0  0  0  0  0  0  0
  183.6710  176.8650  137.2580 C   0  0  0  0  0  2  0  0  0  0  0  0
  182.6240  175.8790  136.7860 C   0  0  2  0  0  3  0  0  0  0  0  0
  182.2480  174.9780  137.9580 C   0  0  0  0  0  2  0  0  0  0  0  0
  182.6050  175.8430  139.5170 S   0  0  0  0  0  0  0  0  0  0  0  0
  183.2640  177.3030  138.6440 C   0  0  1  0  0  3  0  0  0  0  0  0
  184.4050  178.9670  139.9880 N   0  0  0  0  0  0  0  0  0  0  0  0
  184.4620  177.8450  139.3520 C   0  0  0  0  0  3  0  0  0  0  0  0
  185.9600  178.9030  141.8960 C   0  0  0  0  0  0  0  0  0  0  0  0
  185.5430  179.4470  140.6450 N   0  0  0  0  0  2  0  0  0  0  0  0
  185.3350  177.9350  142.4100 O   0  0  0  0  0  0  0  0  0  0  0  0
  187.1310  179.4990  142.6050 C   0  0  0  0  0  2  0  0  0  0  0  0
  188.0940  178.4100  143.0490 C   0  0  0  0  0  2  0  0  0  0  0  0
  189.1020  178.9630  144.0550 C   0  0  2  0  0  3  0  0  0  0  0  0
  190.0040  177.9360  144.7420 C   0  0  2  0  0  0  0  0  0  0  0  0
  188.8320  178.5450  145.5140 C   0  0  2  0  0  3  0  0  0  0  0  0
  191.7860  179.4270  144.1900 O   0  0  0  0  0  1  0  0  0  0  0  0
  191.3390  178.5320  145.1600 C   0  0  0  0  0  2  0  0  0  0  0  0
  187.7490  177.6630  145.6160 O   0  0  0  0  0  0  0  0  0  0  0  0
  187.7400  178.0650  147.9640 C   0  0  0  0  0  1  0  0  0  0  0  0
  187.9160  177.0430  146.8590 C   0  0  0  0  0  2  0  0  0  0  0  0
  190.0010  176.4090  144.4240 C   0  0  1  0  0  3  0  0  0  0  0  0
  192.4030  176.8580  141.5390 O   0  0  0  0  0  1  0  0  0  0  0  0
  191.6900  177.0950  142.6690 N   0  0  0  0  0  2  0  0  0  0  0  0
  190.6510  175.0150  142.5800 O   0  0  0  0  0  0  0  0  0  0  0  0
  190.7790  176.1210  143.1720 C   0  0  0  0  0  0  0  0  0  0  0  0
  190.4530  175.5950  145.4700 O   0  0  0  0  0  0  0  0  0  0  0  0
  191.6900  176.1310  145.8410 C   0  0  0  0  0  2  0  0  0  0  0  0
  192.8800  176.1810  147.9490 N   0  0  0  0  0  1  0  0  0  0  0  0
  192.2910  175.3000  146.9620 C   0  0  0  0  0  2  0  0  0  0  0  0
  181.0220  174.5670  134.7460 O   0  0  0  0  0  1  0  0  0  0  0  0
  182.2730  174.0500  135.0770 C   0  0  0  0  0  2  0  0  0  0  0  0
  184.8770  172.6640  136.1670 C   0  0  0  0  0  2  0  0  0  0  0  0
  185.6370  170.7540  134.8360 C   0  0  0  0  0  3  0  0  0  0  0  0
  185.8720  171.6000  135.8310 C   0  0  0  0  0  3  0  0  0  0  0  0
  186.6280  169.6850  134.5190 C   0  0  0  0  0  2  0  0  0  0  0  0
  187.9270  169.9230  135.2730 C   0  0  1  0  0  3  0  0  0  0  0  0
  188.6810  167.9630  134.5790 C   0  0  0  0  0  1  0  0  0  0  0  0
  188.4290  168.7010  135.7300 O   0  0  0  0  0  0  0  0  0  0  0  0
  188.9470  170.5770  134.3470 C   0  0  0  0  0  2  0  0  0  0  0  0
  190.8750  171.6520  134.3470 C   0  0  0  0  0  1  0  0  0  0  0  0
  189.6720  171.5450  135.0460 O   0  0  0  0  0  0  0  0  0  0  0  0
  1  9  1  0  0  0  0
  2  5  1  0  0  0  0
  2  7  1  0  0  0  0
  3  1  2  0  0  0  0
  4 57  1  0  0  0  0
  5  8  2  0  0  0  0
  6  4  2  0  0  0  0
  7  3  2  0  0  0  0
  7  6  1  0  0  0  0
  8 25  1  0  0  0  0
  8  4  1  0  0  0  0
 10  9  1  6  0  0  0
 10 13  1  0  0  0  0
 10 12  1  0  0  0  0
 12 15  1  0  0  0  0
 13 19  1  6  0  0  0
 13 14  1  0  0  0  0
 14 16  2  0  0  0  0
 15 11  1  6  0  0  0
 16 15  1  0  0  0  0
 17 19  2  0  0  0  0
 18 19  2  0  0  0  0
 19 20  1  0  0  0  0
 20 21  1  0  0  0  0
 23 22  1  0  0  0  0
 23 21  1  0  0  0  0
 24 23  2  0  0  0  0
 26 30  1  0  0  0  0
 27 25  1  6  0  0  0
 27 26  1  0  0  0  0
 27 28  1  0  0  0  0
 28 29  1  0  0  0  0
 30 32  1  1  0  0  0
 30 29  1  0  0  0  0
 31 34  1  0  0  0  0
 32 31  2  0  0  0  0
 33 35  2  0  0  0  0
 33 36  1  0  0  0  0
 34 33  1  0  0  0  0
 36 37  1  0  0  0  0
 38 37  1  6  0  0  0
 38 39  1  0  0  0  0
 38 40  1  0  0  0  0
 39 42  1  1  0  0  0
 39 40  1  0  0  0  0
 40 43  1  6  0  0  0
 41 42  1  0  0  0  0
 43 45  1  0  0  0  0
 45 44  1  0  0  0  0
 46 50  1  6  0  0  0
 46 39  1  0  0  0  0
 46 51  1  0  0  0  0
 47 48  1  0  0  0  0
 48 50  1  0  0  0  0
 49 50  2  0  0  0  0
 51 52  1  0  0  0  0
 52 54  1  0  0  0  0
 54 53  1  0  0  0  0
 55 56  1  0  0  0  0
 56 25  1  0  0  0  0
 58 59  2  0  0  0  0
 59 57  1  0  0  0  0
 60 58  1  0  0  0  0
 60 61  1  0  0  0  0
 61 64  1  6  0  0  0
 61 63  1  0  0  0  0
 62 63  1  0  0  0  0
 64 66  1  0  0  0  0
 65 66  1  0  0  0  0
M  END
>  <MODEL>
3

>  <REMARK>
 VINA RESULT:      -3.1      2.499      4.152
  Name = 
  29 active torsions:
  status: ('A' for Active; 'I' for Inactive)
    1  A    between atoms: C_1  and  C_18
    2  A    between atoms: C_1  and  C_55
    3  A    between atoms: C_6  and  C_26
    4  A    between atoms: C_6  and  C_47
    5  A    between atoms: C_7  and  N_17
    6  A    between atoms: C_10  and  N_17
    7  A    between atoms: O_12  and  C_53
    8  A    between atoms: O_12  and  C_66
    9  A    between atoms: N_13  and  N_21
   10  A    between atoms: O_14  and  C_15
   11  A    between atoms: O_14  and  C_62
   12  A    between atoms: C_15  and  C_60
   13  A    between atoms: N_16  and  C_33
   14  A    between atoms: N_16  and  C_50
   15  A    between atoms: N_16  and  C_56
   16  A    between atoms: C_19  and  C_26
   17  A    between atoms: C_23  and  C_65
   18  A    between atoms: C_28  and  C_39
   19  A    between atoms: C_29  and  S_31
   20  A    between atoms: S_31  and  N_43
   21  A    between atoms: C_34  and  C_41
   22  A    between atoms: O_37  and  C_58
   23  A    between atoms: C_39  and  C_58
   24  A    between atoms: C_41  and  N_43
   25  A    between atoms: C_46  and  O_51
   26  A    between atoms: C_46  and  C_58
   27  A    between atoms: C_49  and  C_61
   28  A    between atoms: C_49  and  C_62
   29  A    between atoms: C_62  and  C_64
                            x       y       z     vdW  Elec       q    Type
                         _______ _______ _______ _____ _____    ______ ____

>  <TORSDO>
F 29

$$$$
=
 OpenBabel10232412203D

 66 69  0  0  1  0  0  0  0  0999 V2000
  188.1390  177.3320  138.0910 C   0  0  0  0  0  3  0  0  0  0  0  0
  187.4870  177.5760  141.6230 C   0  0  0  0  0  2  0  0  0  0  0  0
  188.3650  177.3700  139.3710 C   0  0  0  0  0  0  0  0  0  0  0  0
  190.2260  177.0670  142.4450 C   0  0  0  0  0  0  0  0  0  0  0  0
  187.9980  177.9270  142.9980 C   0  0  0  0  0  3  0  0  0  0  0  0
  189.9210  176.9580  141.1470 C   0  0  0  0  0  3  0  0  0  0  0  0
  188.6140  177.4010  140.6510 C   0  0  0  0  0  0  0  0  0  0  0  0
  189.2560  177.6810  143.4050 C   0  0  0  0  0  0  0  0  0  0  0  0
  189.2180  177.0810  137.1920 N   0  0  0  0  0  2  0  0  0  0  0  0
  189.7950  175.7540  137.0020 C   0  0  2  0  0  3  0  0  0  0  0  0
  193.7840  175.5390  135.9460 Cl  0  0  0  0  0  0  0  0  0  0  0  0
  191.3390  175.8240  137.0990 C   0  0  0  0  0  2  0  0  0  0  0  0
  189.2770  175.0610  135.7150 C   0  0  2  0  0  3  0  0  0  0  0  0
  190.1020  175.4200  134.5120 C   0  0  0  0  0  3  0  0  0  0  0  0
  192.0620  175.0980  135.9590 C   0  0  1  0  0  3  0  0  0  0  0  0
  191.4360  175.4350  134.6310 C   0  0  0  0  0  3  0  0  0  0  0  0
  186.8170  175.6360  136.7090 O   0  0  0  0  0  0  0  0  0  0  0  0
  187.3460  176.4080  134.4290 O   0  0  0  0  0  0  0  0  0  0  0  0
  187.5210  175.2850  135.4190 S   0  0  0  0  0  0  0  0  0  0  0  0
  186.8670  173.8210  134.7480 N   0  0  0  0  0  2  0  0  0  0  0  0
  185.8610  173.3250  135.6690 C   0  0  0  0  0  2  0  0  0  0  0  0
  185.7930  170.9730  135.2780 O   0  0  0  0  0  1  0  0  0  0  0  0
  185.2320  172.0910  135.1180 C   0  0  0  0  0  0  0  0  0  0  0  0
  184.0390  172.1760  134.4080 O   0  0  0  0  0  0  0  0  0  0  0  0
  189.6630  178.0690  144.7360 N   0  0  0  0  0  0  0  0  0  0  0  0
  187.3350  177.6570  145.3990 C   0  0  0  0  0  2  0  0  0  0  0  0
  188.7660  177.8010  145.8730 C   0  0  2  0  0  3  0  0  0  0  0  0
  188.8170  178.9100  146.9190 C   0  0  0  0  0  2  0  0  0  0  0  0
  187.1750  179.0920  147.6780 S   0  0  0  0  0  0  0  0  0  0  0  0
  186.4560  177.7930  146.6180 C   0  0  1  0  0  3  0  0  0  0  0  0
  184.8800  178.7650  145.0540 N   0  0  0  0  0  0  0  0  0  0  0  0
  185.0790  178.1710  146.1830 C   0  0  0  0  0  3  0  0  0  0  0  0
  183.1220  178.8970  143.3350 C   0  0  0  0  0  0  0  0  0  0  0  0
  183.5780  179.1030  144.6710 N   0  0  0  0  0  2  0  0  0  0  0  0
  183.8750  178.3520  142.4810 O   0  0  0  0  0  0  0  0  0  0  0  0
  181.7530  179.3480  142.9450 C   0  0  0  0  0  2  0  0  0  0  0  0
  181.5070  179.0850  141.4690 C   0  0  0  0  0  2  0  0  0  0  0  0
  182.5200  178.0780  140.9270 C   0  0  2  0  0  3  0  0  0  0  0  0
  182.7370  178.0860  139.4130 C   0  0  2  0  0  0  0  0  0  0  0  0
  181.9030  176.9720  140.0500 C   0  0  2  0  0  3  0  0  0  0  0  0
  184.0480  176.4410  138.2830 O   0  0  0  0  0  1  0  0  0  0  0  0
  184.1310  177.6130  139.0300 C   0  0  0  0  0  2  0  0  0  0  0  0
  180.5300  177.1600  139.8540 O   0  0  0  0  0  0  0  0  0  0  0  0
  179.9820  174.9730  140.6210 C   0  0  0  0  0  1  0  0  0  0  0  0
  180.0580  175.9120  139.4350 C   0  0  0  0  0  2  0  0  0  0  0  0
  182.0560  179.0870  138.4310 C   0  0  1  0  0  3  0  0  0  0  0  0
  182.2960  182.8590  138.5140 O   0  0  0  0  0  1  0  0  0  0  0  0
  181.7980  181.6030  138.3820 N   0  0  0  0  0  2  0  0  0  0  0  0
  183.8380  180.6200  138.9180 O   0  0  0  0  0  0  0  0  0  0  0  0
  182.6310  180.4660  138.5860 C   0  0  0  0  0  0  0  0  0  0  0  0
  182.0910  178.6980  137.0860 O   0  0  0  0  0  0  0  0  0  0  0  0
  180.8590  178.0790  136.8530 C   0  0  0  0  0  2  0  0  0  0  0  0
  181.4640  178.1980  134.5120 N   0  0  0  0  0  1  0  0  0  0  0  0
  180.3790  178.4080  135.4490 C   0  0  0  0  0  2  0  0  0  0  0  0
  190.6840  179.9770  143.8420 O   0  0  0  0  0  1  0  0  0  0  0  0
  190.7240  179.0670  144.8980 C   0  0  0  0  0  2  0  0  0  0  0  0
  191.5060  176.4490  142.9080 C   0  0  0  0  0  2  0  0  0  0  0  0
  192.3640  175.8480  145.1220 C   0  0  0  0  0  3  0  0  0  0  0  0
  191.3290  175.9160  144.2940 C   0  0  0  0  0  3  0  0  0  0  0  0
  192.1800  175.3000  146.4970 C   0  0  0  0  0  2  0  0  0  0  0  0
  191.9530  176.4260  147.4930 C   0  0  1  0  0  3  0  0  0  0  0  0
  190.0730  175.2980  147.7830 C   0  0  0  0  0  1  0  0  0  0  0  0
  190.5810  176.5900  147.7050 O   0  0  0  0  0  0  0  0  0  0  0  0
  192.6340  176.0880  148.8160 C   0  0  0  0  0  2  0  0  0  0  0  0
  194.3000  176.7830  150.0870 C   0  0  0  0  0  1  0  0  0  0  0  0
  193.1930  177.2410  149.3710 O   0  0  0  0  0  0  0  0  0  0  0  0
  1  3  2  0  0  0  0
  2  5  1  0  0  0  0
  3  7  2  0  0  0  0
  4 57  1  0  0  0  0
  4  8  1  0  0  0  0
  5  8  2  0  0  0  0
  6  4  2  0  0  0  0
  7  6  1  0  0  0  0
  7  2  1  0  0  0  0
  8 25  1  0  0  0  0
  9  1  1  0  0  0  0
 10 12  1  0  0  0  0
 10  9  1  6  0  0  0
 13 19  1  6  0  0  0
 13 10  1  0  0  0  0
 14 16  2  0  0  0  0
 14 13  1  0  0  0  0
 15 11  1  6  0  0  0
 15 12  1  0  0  0  0
 16 15  1  0  0  0  0
 18 19  2  0  0  0  0
 19 17  2  0  0  0  0
 20 19  1  0  0  0  0
 20 21  1  0  0  0  0
 23 22  1  0  0  0  0
 23 21  1  0  0  0  0
 24 23  2  0  0  0  0
 25 56  1  0  0  0  0
 26 27  1  0  0  0  0
 26 30  1  0  0  0  0
 27 25  1  6  0  0  0
 27 28  1  0  0  0  0
 28 29  1  0  0  0  0
 30 32  1  6  0  0  0
 30 29  1  0  0  0  0
 31 32  2  0  0  0  0
 33 34  1  0  0  0  0
 34 31  1  0  0  0  0
 35 33  2  0  0  0  0
 36 33  1  0  0  0  0
 37 36  1  0  0  0  0
 38 37  1  6  0  0  0
 39 42  1  6  0  0  0
 39 40  1  0  0  0  0
 39 38  1  0  0  0  0
 40 43  1  6  0  0  0
 40 38  1  0  0  0  0
 41 42  1  0  0  0  0
 45 43  1  0  0  0  0
 45 44  1  0  0  0  0
 46 51  1  6  0  0  0
 46 50  1  0  0  0  0
 46 39  1  0  0  0  0
 48 47  1  0  0  0  0
 48 50  1  0  0  0  0
 50 49  2  0  0  0  0
 52 51  1  0  0  0  0
 53 54  1  0  0  0  0
 54 52  1  0  0  0  0
 55 56  1  0  0  0  0
 57 59  1  0  0  0  0
 58 60  1  0  0  0  0
 59 58  2  0  0  0  0
 61 60  1  6  0  0  0
 61 63  1  0  0  0  0
 61 64  1  0  0  0  0
 63 62  1  0  0  0  0
 64 66  1  0  0  0  0
 66 65  1  0  0  0  0
M  END
>  <MODEL>
4

>  <REMARK>
 VINA RESULT:      -2.6      2.920      9.390
  Name = 
  29 active torsions:
  status: ('A' for Active; 'I' for Inactive)
    1  A    between atoms: C_1  and  C_18
    2  A    between atoms: C_1  and  C_55
    3  A    between atoms: C_6  and  C_26
    4  A    between atoms: C_6  and  C_47
    5  A    between atoms: C_7  and  N_17
    6  A    between atoms: C_10  and  N_17
    7  A    between atoms: O_12  and  C_53
    8  A    between atoms: O_12  and  C_66
    9  A    between atoms: N_13  and  N_21
   10  A    between atoms: O_14  and  C_15
   11  A    between atoms: O_14  and  C_62
   12  A    between atoms: C_15  and  C_60
   13  A    between atoms: N_16  and  C_33
   14  A    between atoms: N_16  and  C_50
   15  A    between atoms: N_16  and  C_56
   16  A    between atoms: C_19  and  C_26
   17  A    between atoms: C_23  and  C_65
   18  A    between atoms: C_28  and  C_39
   19  A    between atoms: C_29  and  S_31
   20  A    between atoms: S_31  and  N_43
   21  A    between atoms: C_34  and  C_41
   22  A    between atoms: O_37  and  C_58
   23  A    between atoms: C_39  and  C_58
   24  A    between atoms: C_41  and  N_43
   25  A    between atoms: C_46  and  O_51
   26  A    between atoms: C_46  and  C_58
   27  A    between atoms: C_49  and  C_61
   28  A    between atoms: C_49  and  C_62
   29  A    between atoms: C_62  and  C_64
                            x       y       z     vdW  Elec       q    Type
                         _______ _______ _______ _____ _____    ______ ____

>  <TORSDO>
F 29

$$$$
=
 OpenBabel10232412203D

 66 69  0  0  1  0  0  0  0  0999 V2000
  186.3140  178.0570  137.7060 C   0  0  0  0  0  3  0  0  0  0  0  0
  188.0850  179.3000  140.5830 C   0  0  0  0  0  2  0  0  0  0  0  0
  186.6410  178.2310  138.9510 C   0  0  0  0  0  0  0  0  0  0  0  0
  186.3510  178.0370  142.5410 C   0  0  0  0  0  0  0  0  0  0  0  0
  188.5000  179.0930  142.0180 C   0  0  0  0  0  3  0  0  0  0  0  0
  186.0130  177.9590  141.2490 C   0  0  0  0  0  3  0  0  0  0  0  0
  186.9500  178.3950  140.2080 C   0  0  0  0  0  0  0  0  0  0  0  0
  187.7050  178.5290  142.9440 C   0  0  0  0  0  0  0  0  0  0  0  0
  185.1780  177.2580  137.3810 N   0  0  0  0  0  2  0  0  0  0  0  0
  185.2770  175.8360  137.0660 C   0  0  2  0  0  3  0  0  0  0  0  0
  188.9610  174.3990  135.8650 Cl  0  0  0  0  0  0  0  0  0  0  0  0
  186.7570  175.3800  137.1180 C   0  0  0  0  0  2  0  0  0  0  0  0
  184.5510  175.4690  135.7460 C   0  0  2  0  0  3  0  0  0  0  0  0
  185.4440  175.6360  134.5480 C   0  0  0  0  0  3  0  0  0  0  0  0
  187.1910  174.5560  135.8990 C   0  0  1  0  0  3  0  0  0  0  0  0
  186.7070  175.1960  134.6240 C   0  0  0  0  0  3  0  0  0  0  0  0
  182.6210  177.0820  136.7630 O   0  0  0  0  0  0  0  0  0  0  0  0
  183.0780  177.2210  134.3460 O   0  0  0  0  0  0  0  0  0  0  0  0
  182.9700  176.2880  135.5260 S   0  0  0  0  0  0  0  0  0  0  0  0
  181.7500  175.0930  135.2050 N   0  0  0  0  0  2  0  0  0  0  0  0
  181.9920  173.9670  136.0880 C   0  0  0  0  0  2  0  0  0  0  0  0
  180.6020  174.7540  137.8600 O   0  0  0  0  0  1  0  0  0  0  0  0
  180.8620  173.8230  137.0490 C   0  0  0  0  0  0  0  0  0  0  0  0
  180.1090  172.6540  137.0670 O   0  0  0  0  0  0  0  0  0  0  0  0
  188.1940  178.3560  144.2930 N   0  0  0  0  0  0  0  0  0  0  0  0
  190.3940  178.1590  143.2210 C   0  0  0  0  0  2  0  0  0  0  0  0
  189.6120  178.0230  144.5100 C   0  0  2  0  0  3  0  0  0  0  0  0
  189.7950  176.6040  145.0370 C   0  0  0  0  0  2  0  0  0  0  0  0
  191.3480  175.9190  144.3830 S   0  0  0  0  0  0  0  0  0  0  0  0
  191.7000  177.4290  143.4230 C   0  0  1  0  0  3  0  0  0  0  0  0
  191.6530  177.3940  141.0000 N   0  0  0  0  0  0  0  0  0  0  0  0
  192.2740  177.0840  142.0890 C   0  0  0  0  0  3  0  0  0  0  0  0
  191.4050  176.8560  138.6100 C   0  0  0  0  0  0  0  0  0  0  0  0
  192.2180  177.0610  139.7650 N   0  0  0  0  0  2  0  0  0  0  0  0
  190.1560  177.0260  138.6720 O   0  0  0  0  0  0  0  0  0  0  0  0
  192.0390  176.4200  137.3310 C   0  0  0  0  0  2  0  0  0  0  0  0
  193.0250  175.2920  137.5830 C   0  0  0  0  0  2  0  0  0  0  0  0
  193.3920  174.5970  136.2730 C   0  0  2  0  0  3  0  0  0  0  0  0
  194.6740  173.7620  136.2870 C   0  0  2  0  0  0  0  0  0  0  0  0
  194.6760  175.1350  135.6110 C   0  0  2  0  0  3  0  0  0  0  0  0
  193.3100  172.3440  134.9330 O   0  0  0  0  0  1  0  0  0  0  0  0
  194.6300  172.6240  135.2780 C   0  0  0  0  0  2  0  0  0  0  0  0
  195.3030  176.1100  136.3960 O   0  0  0  0  0  0  0  0  0  0  0  0
  197.0520  175.8800  134.7950 C   0  0  0  0  0  1  0  0  0  0  0  0
  196.1010  176.8260  135.4970 C   0  0  0  0  0  2  0  0  0  0  0  0
  195.5590  173.5280  137.5500 C   0  0  1  0  0  3  0  0  0  0  0  0
  197.5400  170.3080  137.5820 O   0  0  0  0  0  1  0  0  0  0  0  0
  196.5680  171.2240  137.8240 N   0  0  0  0  0  2  0  0  0  0  0  0
  197.6140  172.8390  136.5150 O   0  0  0  0  0  0  0  0  0  0  0  0
  196.6470  172.5330  137.2650 C   0  0  0  0  0  0  0  0  0  0  0  0
  196.1050  174.6940  138.1020 O   0  0  0  0  0  0  0  0  0  0  0  0
  196.7330  174.2790  139.2810 C   0  0  0  0  0  2  0  0  0  0  0  0
  198.3340  175.0220  140.9370 N   0  0  0  0  0  1  0  0  0  0  0  0
  197.3460  175.4790  139.9820 C   0  0  0  0  0  2  0  0  0  0  0  0
  187.1480  176.7280  145.6110 O   0  0  0  0  0  1  0  0  0  0  0  0
  187.2380  178.0990  145.3740 C   0  0  0  0  0  2  0  0  0  0  0  0
  185.2920  177.7300  143.5520 C   0  0  0  0  0  2  0  0  0  0  0  0
  183.6410  178.5410  141.9350 C   0  0  0  0  0  3  0  0  0  0  0  0
  184.0400  178.4660  143.1990 C   0  0  0  0  0  3  0  0  0  0  0  0
  182.3990  179.2930  141.5910 C   0  0  0  0  0  2  0  0  0  0  0  0
  181.2160  178.3440  141.4850 C   0  0  1  0  0  3  0  0  0  0  0  0
  180.4840  179.8420  142.9390 C   0  0  0  0  0  1  0  0  0  0  0  0
  180.0580  178.9940  141.9230 O   0  0  0  0  0  0  0  0  0  0  0  0
  181.0350  177.9070  140.0350 C   0  0  0  0  0  2  0  0  0  0  0  0
  180.5620  179.2470  138.3450 C   0  0  0  0  0  1  0  0  0  0  0  0
  179.9850  178.6200  139.4510 O   0  0  0  0  0  0  0  0  0  0  0  0
  1  3  2  0  0  0  0
  2  5  1  0  0  0  0
  3  7  2  0  0  0  0
  4  8  1  0  0  0  0
  4 57  1  0  0  0  0
  5  8  2  0  0  0  0
  6  4  2  0  0  0  0
  7  2  1  0  0  0  0
  7  6  1  0  0  0  0
  8 25  1  0  0  0  0
  9  1  1  0  0  0  0
 10 12  1  0  0  0  0
 10  9  1  6  0  0  0
 13 19  1  6  0  0  0
 13 10  1  0  0  0  0
 14 16  2  0  0  0  0
 14 13  1  0  0  0  0
 15 11  1  6  0  0  0
 15 12  1  0  0  0  0
 16 15  1  0  0  0  0
 18 19  2  0  0  0  0
 19 17  2  0  0  0  0
 20 19  1  0  0  0  0
 20 21  1  0  0  0  0
 21 23  1  0  0  0  0
 23 24  2  0  0  0  0
 23 22  1  0  0  0  0
 25 56  1  0  0  0  0
 26 30  1  0  0  0  0
 26 27  1  0  0  0  0
 27 25  1  6  0  0  0
 27 28  1  0  0  0  0
 29 28  1  0  0  0  0
 30 32  1  6  0  0  0
 30 29  1  0  0  0  0
 31 32  2  0  0  0  0
 33 35  2  0  0  0  0
 33 34  1  0  0  0  0
 34 31  1  0  0  0  0
 36 37  1  0  0  0  0
 36 33  1  0  0  0  0
 38 39  1  0  0  0  0
 38 37  1  1  0  0  0
 39 42  1  6  0  0  0
 39 46  1  0  0  0  0
 40 38  1  0  0  0  0
 40 39  1  0  0  0  0
 40 43  1  1  0  0  0
 41 42  1  0  0  0  0
 44 45  1  0  0  0  0
 45 43  1  0  0  0  0
 46 50  1  6  0  0  0
 46 51  1  0  0  0  0
 47 48  1  0  0  0  0
 49 50  2  0  0  0  0
 50 48  1  0  0  0  0
 51 52  1  0  0  0  0
 52 54  1  0  0  0  0
 54 53  1  0  0  0  0
 56 55  1  0  0  0  0
 58 59  2  0  0  0  0
 59 57  1  0  0  0  0
 60 58  1  0  0  0  0
 61 64  1  6  0  0  0
 61 60  1  0  0  0  0
 61 63  1  0  0  0  0
 63 62  1  0  0  0  0
 65 66  1  0  0  0  0
 66 64  1  0  0  0  0
M  END
>  <MODEL>
5

>  <REMARK>
 VINA RESULT:      -2.5      3.233      8.927
  Name = 
  29 active torsions:
  status: ('A' for Active; 'I' for Inactive)
    1  A    between atoms: C_1  and  C_18
    2  A    between atoms: C_1  and  C_55
    3  A    between atoms: C_6  and  C_26
    4  A    between atoms: C_6  and  C_47
    5  A    between atoms: C_7  and  N_17
    6  A    between atoms: C_10  and  N_17
    7  A    between atoms: O_12  and  C_53
    8  A    between atoms: O_12  and  C_66
    9  A    between atoms: N_13  and  N_21
   10  A    between atoms: O_14  and  C_15
   11  A    between atoms: O_14  and  C_62
   12  A    between atoms: C_15  and  C_60
   13  A    between atoms: N_16  and  C_33
   14  A    between atoms: N_16  and  C_50
   15  A    between atoms: N_16  and  C_56
   16  A    between atoms: C_19  and  C_26
   17  A    between atoms: C_23  and  C_65
   18  A    between atoms: C_28  and  C_39
   19  A    between atoms: C_29  and  S_31
   20  A    between atoms: S_31  and  N_43
   21  A    between atoms: C_34  and  C_41
   22  A    between atoms: O_37  and  C_58
   23  A    between atoms: C_39  and  C_58
   24  A    between atoms: C_41  and  N_43
   25  A    between atoms: C_46  and  O_51
   26  A    between atoms: C_46  and  C_58
   27  A    between atoms: C_49  and  C_61
   28  A    between atoms: C_49  and  C_62
   29  A    between atoms: C_62  and  C_64
                            x       y       z     vdW  Elec       q    Type
                         _______ _______ _______ _____ _____    ______ ____

>  <TORSDO>
F 29

$$$$
=
 OpenBabel10232412203D

 66 69  0  0  1  0  0  0  0  0999 V2000
  191.7850  171.3660  134.3670 C   0  0  0  0  0  3  0  0  0  0  0  0
  188.2100  170.9400  134.3460 C   0  0  0  0  0  2  0  0  0  0  0  0
  190.5350  171.5600  134.6650 C   0  0  0  0  0  0  0  0  0  0  0  0
  187.6900  172.8700  136.4530 C   0  0  0  0  0  0  0  0  0  0  0  0
  186.8480  171.5470  134.5700 C   0  0  0  0  0  3  0  0  0  0  0  0
  188.9620  172.5720  136.1650 C   0  0  0  0  0  3  0  0  0  0  0  0
  189.2870  171.7680  134.9820 C   0  0  0  0  0  0  0  0  0  0  0  0
  186.5820  172.4260  135.5520 C   0  0  0  0  0  0  0  0  0  0  0  0
  192.7950  172.1100  135.0480 N   0  0  0  0  0  2  0  0  0  0  0  0
  194.1960  171.7010  135.0700 C   0  0  2  0  0  3  0  0  0  0  0  0
  195.0600  167.9140  136.4760 Cl  0  0  0  0  0  0  0  0  0  0  0  0
  194.3020  170.1580  135.1440 C   0  0  0  0  0  2  0  0  0  0  0  0
  195.0110  172.4410  136.1620 C   0  0  2  0  0  3  0  0  0  0  0  0
  194.9480  171.7340  137.4870 C   0  0  0  0  0  3  0  0  0  0  0  0
  195.2790  169.6580  136.2140 C   0  0  1  0  0  3  0  0  0  0  0  0
  195.0780  170.4010  137.5080 C   0  0  0  0  0  3  0  0  0  0  0  0
  194.0320  174.6990  135.0190 O   0  0  0  0  0  0  0  0  0  0  0  0
  193.6190  174.3570  137.4240 O   0  0  0  0  0  0  0  0  0  0  0  0
  194.6230  174.1860  136.3120 S   0  0  0  0  0  0  0  0  0  0  0  0
  196.0720  175.0600  136.7070 N   0  0  0  0  0  2  0  0  0  0  0  0
  196.9870  174.1300  137.3430 C   0  0  0  0  0  2  0  0  0  0  0  0
  196.5430  174.4280  139.6680 O   0  0  0  0  0  1  0  0  0  0  0  0
  197.3390  174.6170  138.7080 C   0  0  0  0  0  0  0  0  0  0  0  0
  198.5330  175.2990  138.9170 O   0  0  0  0  0  0  0  0  0  0  0  0
  185.2490  172.9680  135.6800 N   0  0  0  0  0  0  0  0  0  0  0  0
  185.2010  175.3170  136.3920 C   0  0  0  0  0  2  0  0  0  0  0  0
  184.9860  174.3510  135.2470 C   0  0  2  0  0  3  0  0  0  0  0  0
  183.5620  174.5300  134.7280 C   0  0  0  0  0  2  0  0  0  0  0  0
  182.9810  176.2030  135.1400 S   0  0  0  0  0  0  0  0  0  0  0  0
  184.5370  176.6140  136.0000 C   0  0  1  0  0  3  0  0  0  0  0  0
  184.3640  176.8750  138.4040 N   0  0  0  0  0  0  0  0  0  0  0  0
  184.2630  177.4110  137.2330 C   0  0  0  0  0  3  0  0  0  0  0  0
  185.0730  178.5630  140.0500 C   0  0  0  0  0  0  0  0  0  0  0  0
  184.1050  177.6470  139.5400 N   0  0  0  0  0  2  0  0  0  0  0  0
  186.1690  178.7330  139.4480 O   0  0  0  0  0  0  0  0  0  0  0  0
  184.7910  179.3070  141.3140 C   0  0  0  0  0  2  0  0  0  0  0  0
  185.9610  179.1850  142.2760 C   0  0  0  0  0  2  0  0  0  0  0  0
  186.5760  177.7890  142.1960 C   0  0  2  0  0  3  0  0  0  0  0  0
  187.2740  177.2850  143.4610 C   0  0  2  0  0  0  0  0  0  0  0  0
  188.1150  177.7710  142.2780 C   0  0  2  0  0  3  0  0  0  0  0  0
  188.5120  175.2510  143.2740 O   0  0  0  0  0  1  0  0  0  0  0  0
  187.2510  175.7670  143.5650 C   0  0  0  0  0  2  0  0  0  0  0  0
  188.6450  179.0490  142.4950 O   0  0  0  0  0  0  0  0  0  0  0  0
  190.6320  179.1630  143.8040 C   0  0  0  0  0  1  0  0  0  0  0  0
  190.0310  178.8690  142.4450 C   0  0  0  0  0  2  0  0  0  0  0  0
  187.3250  178.0660  144.8090 C   0  0  1  0  0  3  0  0  0  0  0  0
  183.6670  178.5080  145.6580 O   0  0  0  0  0  1  0  0  0  0  0  0
  184.8680  177.9310  145.3990 N   0  0  0  0  0  2  0  0  0  0  0  0
  185.9120  179.9870  145.0900 O   0  0  0  0  0  0  0  0  0  0  0  0
  186.0080  178.7300  145.0940 C   0  0  0  0  0  0  0  0  0  0  0  0
  187.7270  177.3010  145.9120 O   0  0  0  0  0  0  0  0  0  0  0  0
  188.9360  177.8660  146.3270 C   0  0  0  0  0  2  0  0  0  0  0  0
  187.5450  178.4280  148.2260 N   0  0  0  0  0  1  0  0  0  0  0  0
  188.8990  178.1060  147.8270 C   0  0  0  0  0  2  0  0  0  0  0  0
  182.9960  172.6850  136.2520 O   0  0  0  0  0  1  0  0  0  0  0  0
  184.2990  172.3250  136.5930 C   0  0  0  0  0  2  0  0  0  0  0  0
  187.4190  173.5510  137.7570 C   0  0  0  0  0  2  0  0  0  0  0  0
  188.5500  175.7140  137.5530 C   0  0  0  0  0  3  0  0  0  0  0  0
  187.4110  175.0320  137.5520 C   0  0  0  0  0  3  0  0  0  0  0  0
  188.5300  177.1940  137.3650 C   0  0  0  0  0  2  0  0  0  0  0  0
  189.9190  177.7750  137.5790 C   0  0  1  0  0  3  0  0  0  0  0  0
  191.5260  176.6690  138.6200 C   0  0  0  0  0  1  0  0  0  0  0  0
  190.3800  177.4210  138.8510 O   0  0  0  0  0  0  0  0  0  0  0  0
  190.8740  177.2290  136.5230 C   0  0  0  0  0  2  0  0  0  0  0  0
  190.9870  175.6930  134.9410 C   0  0  0  0  0  1  0  0  0  0  0  0
  190.1470  176.6770  135.4660 O   0  0  0  0  0  0  0  0  0  0  0  0
  1  3  2  0  0  0  0
  1  9  1  0  0  0  0
  2  5  1  0  0  0  0
  2  7  1  0  0  0  0
  3  7  2  0  0  0  0
  4 57  1  0  0  0  0
  5  8  2  0  0  0  0
  6  4  2  0  0  0  0
  7  6  1  0  0  0  0
  8 25  1  0  0  0  0
  8  4  1  0  0  0  0
 10  9  1  1  0  0  0
 10 12  1  0  0  0  0
 10 13  1  0  0  0  0
 12 15  1  0  0  0  0
 13 19  1  1  0  0  0
 13 14  1  0  0  0  0
 14 16  2  0  0  0  0
 15 11  1  1  0  0  0
 15 16  1  0  0  0  0
 17 19  2  0  0  0  0
 19 20  1  0  0  0  0
 19 18  2  0  0  0  0
 20 21  1  0  0  0  0
 21 23  1  0  0  0  0
 23 24  2  0  0  0  0
 23 22  1  0  0  0  0
 25 56  1  0  0  0  0
 27 25  1  1  0  0  0
 27 26  1  0  0  0  0
 28 29  1  0  0  0  0
 28 27  1  0  0  0  0
 29 30  1  0  0  0  0
 30 26  1  0  0  0  0
 30 32  1  1  0  0  0
 31 34  1  0  0  0  0
 32 31  2  0  0  0  0
 33 36  1  0  0  0  0
 34 33  1  0  0  0  0
 35 33  2  0  0  0  0
 36 37  1  0  0  0  0
 38 37  1  1  0  0  0
 38 40  1  0  0  0  0
 38 39  1  0  0  0  0
 39 42  1  1  0  0  0
 39 46  1  0  0  0  0
 40 43  1  1  0  0  0
 40 39  1  0  0  0  0
 41 42  1  0  0  0  0
 45 43  1  0  0  0  0
 45 44  1  0  0  0  0
 46 50  1  1  0  0  0
 46 51  1  0  0  0  0
 48 47  1  0  0  0  0
 49 50  2  0  0  0  0
 50 48  1  0  0  0  0
 51 52  1  0  0  0  0
 52 54  1  0  0  0  0
 54 53  1  0  0  0  0
 55 56  1  0  0  0  0
 59 58  2  0  0  0  0
 59 57  1  0  0  0  0
 60 58  1  0  0  0  0
 60 61  1  0  0  0  0
 61 64  1  6  0  0  0
 61 63  1  0  0  0  0
 62 63  1  0  0  0  0
 65 66  1  0  0  0  0
 66 64  1  0  0  0  0
M  END
>  <MODEL>
6

>  <REMARK>
 VINA RESULT:      -2.2      3.353      6.546
  Name = 
  29 active torsions:
  status: ('A' for Active; 'I' for Inactive)
    1  A    between atoms: C_1  and  C_18
    2  A    between atoms: C_1  and  C_55
    3  A    between atoms: C_6  and  C_26
    4  A    between atoms: C_6  and  C_47
    5  A    between atoms: C_7  and  N_17
    6  A    between atoms: C_10  and  N_17
    7  A    between atoms: O_12  and  C_53
    8  A    between atoms: O_12  and  C_66
    9  A    between atoms: N_13  and  N_21
   10  A    between atoms: O_14  and  C_15
   11  A    between atoms: O_14  and  C_62
   12  A    between atoms: C_15  and  C_60
   13  A    between atoms: N_16  and  C_33
   14  A    between atoms: N_16  and  C_50
   15  A    between atoms: N_16  and  C_56
   16  A    between atoms: C_19  and  C_26
   17  A    between atoms: C_23  and  C_65
   18  A    between atoms: C_28  and  C_39
   19  A    between atoms: C_29  and  S_31
   20  A    between atoms: S_31  and  N_43
   21  A    between atoms: C_34  and  C_41
   22  A    between atoms: O_37  and  C_58
   23  A    between atoms: C_39  and  C_58
   24  A    between atoms: C_41  and  N_43
   25  A    between atoms: C_46  and  O_51
   26  A    between atoms: C_46  and  C_58
   27  A    between atoms: C_49  and  C_61
   28  A    between atoms: C_49  and  C_62
   29  A    between atoms: C_62  and  C_64
                            x       y       z     vdW  Elec       q    Type
                         _______ _______ _______ _____ _____    ______ ____

>  <TORSDO>
F 29

$$$$
=
 OpenBabel10232412203D

 66 69  0  0  1  0  0  0  0  0999 V2000
  196.3920  175.2720  136.2850 C   0  0  0  0  0  3  0  0  0  0  0  0
  193.2580  174.6310  134.6330 C   0  0  0  0  0  2  0  0  0  0  0  0
  195.1080  175.2180  136.0900 C   0  0  0  0  0  0  0  0  0  0  0  0
  191.5960  175.3750  136.8960 C   0  0  0  0  0  0  0  0  0  0  0  0
  191.7950  174.9690  134.4870 C   0  0  0  0  0  3  0  0  0  0  0  0
  192.9220  175.3330  137.0680 C   0  0  0  0  0  3  0  0  0  0  0  0
  193.8160  175.1680  135.9170 C   0  0  0  0  0  0  0  0  0  0  0  0
  191.0040  175.2960  135.5250 C   0  0  0  0  0  0  0  0  0  0  0  0
  196.8950  175.7090  137.5460 N   0  0  0  0  0  2  0  0  0  0  0  0
  196.9260  174.8480  138.7250 C   0  0  2  0  0  3  0  0  0  0  0  0
  197.6120  176.6410  142.3830 Cl  0  0  0  0  0  0  0  0  0  0  0  0
  196.7010  175.6880  140.0060 C   0  0  0  0  0  2  0  0  0  0  0  0
  198.1920  173.9540  138.7720 C   0  0  2  0  0  3  0  0  0  0  0  0
  199.3450  174.6470  139.4420 C   0  0  0  0  0  3  0  0  0  0  0  0
  197.7130  175.3940  141.1210 C   0  0  1  0  0  3  0  0  0  0  0  0
  199.1120  175.3340  140.5680 C   0  0  0  0  0  3  0  0  0  0  0  0
  197.4420  172.6780  136.4970 O   0  0  0  0  0  0  0  0  0  0  0  0
  199.2400  174.3550  136.3350 O   0  0  0  0  0  0  0  0  0  0  0  0
  198.6570  173.2560  137.1860 S   0  0  0  0  0  0  0  0  0  0  0  0
  199.8570  172.0250  137.4360 N   0  0  0  0  0  2  0  0  0  0  0  0
  199.1670  170.7530  137.5530 C   0  0  0  0  0  2  0  0  0  0  0  0
  199.7150  170.5760  135.2380 O   0  0  0  0  0  0  0  0  0  0  0  0
  199.0760  170.0990  136.2160 C   0  0  0  0  0  0  0  0  0  0  0  0
  198.2700  168.9790  136.0430 O   0  0  0  0  0  1  0  0  0  0  0  0
  189.6170  175.6210  135.2870 N   0  0  0  0  0  0  0  0  0  0  0  0
  188.0080  176.8430  136.6820 C   0  0  0  0  0  2  0  0  0  0  0  0
  189.1140  176.9560  135.6540 C   0  0  2  0  0  3  0  0  0  0  0  0
  188.5750  177.7190  134.4490 C   0  0  0  0  0  2  0  0  0  0  0  0
  187.1830  178.7630  134.9760 S   0  0  0  0  0  0  0  0  0  0  0  0
  187.2900  178.1700  136.6980 C   0  0  1  0  0  3  0  0  0  0  0  0
  185.5400  176.8150  137.6880 N   0  0  0  0  0  0  0  0  0  0  0  0
  185.9270  177.9770  137.2750 C   0  0  0  0  0  3  0  0  0  0  0  0
  183.3610  175.6710  137.7370 C   0  0  0  0  0  0  0  0  0  0  0  0
  184.2590  176.6660  138.2270 N   0  0  0  0  0  2  0  0  0  0  0  0
  183.7300  174.8670  136.8370 O   0  0  0  0  0  0  0  0  0  0  0  0
  181.9720  175.5990  138.2820 C   0  0  0  0  0  2  0  0  0  0  0  0
  181.9040  176.2520  139.6520 C   0  0  0  0  0  2  0  0  0  0  0  0
  181.3390  177.6660  139.5440 C   0  0  2  0  0  3  0  0  0  0  0  0
  181.8630  178.6830  140.5600 C   0  0  2  0  0  0  0  0  0  0  0  0
  180.4640  178.0900  140.7400 C   0  0  2  0  0  3  0  0  0  0  0  0
  180.5540  180.6520  140.2260 O   0  0  0  0  0  1  0  0  0  0  0  0
  181.8190  180.1060  140.0240 C   0  0  0  0  0  2  0  0  0  0  0  0
  180.4290  177.1100  141.7390 O   0  0  0  0  0  0  0  0  0  0  0  0
  180.2670  176.8800  144.1050 C   0  0  0  0  0  1  0  0  0  0  0  0
  180.1680  177.8160  142.9180 C   0  0  0  0  0  2  0  0  0  0  0  0
  182.9660  178.3800  141.6200 C   0  0  1  0  0  3  0  0  0  0  0  0
  186.6370  178.5180  140.7290 O   0  0  0  0  0  1  0  0  0  0  0  0
  185.4250  178.0520  141.1220 N   0  0  0  0  0  2  0  0  0  0  0  0
  184.4130  180.1280  140.8340 O   0  0  0  0  0  0  0  0  0  0  0  0
  184.2960  178.9210  141.1780 C   0  0  0  0  0  0  0  0  0  0  0  0
  182.6700  178.8280  142.9140 O   0  0  0  0  0  0  0  0  0  0  0  0
  183.8200  179.4980  143.3400 C   0  0  0  0  0  2  0  0  0  0  0  0
  184.9560  180.1840  145.3650 N   0  0  0  0  0  1  0  0  0  0  0  0
  184.0920  179.1680  144.7980 C   0  0  0  0  0  2  0  0  0  0  0  0
  188.5130  173.8030  136.2650 O   0  0  0  0  0  1  0  0  0  0  0  0
  188.6510  174.5370  135.0880 C   0  0  0  0  0  2  0  0  0  0  0  0
  190.7410  175.3810  138.1230 C   0  0  0  0  0  2  0  0  0  0  0  0
  190.6830  176.6980  140.1870 C   0  0  0  0  0  3  0  0  0  0  0  0
  191.3990  176.2030  139.1840 C   0  0  0  0  0  3  0  0  0  0  0  0
  191.3460  177.5320  141.2320 C   0  0  0  0  0  2  0  0  0  0  0  0
  190.7600  177.2310  142.6020 C   0  0  1  0  0  3  0  0  0  0  0  0
  190.9440  179.2460  143.4950 C   0  0  0  0  0  1  0  0  0  0  0  0
  191.4550  177.9550  143.5750 O   0  0  0  0  0  0  0  0  0  0  0  0
  189.2880  177.6270  142.6300 C   0  0  0  0  0  2  0  0  0  0  0  0
  188.5850  177.0540  144.6430 C   0  0  0  0  0  1  0  0  0  0  0  0
  188.5460  176.6560  143.3060 O   0  0  0  0  0  0  0  0  0  0  0  0
  1  9  1  0  0  0  0
  2  7  1  0  0  0  0
  3  1  2  0  0  0  0
  4  6  2  0  0  0  0
  4 57  1  0  0  0  0
  5  2  1  0  0  0  0
  5  8  2  0  0  0  0
  7  3  2  0  0  0  0
  7  6  1  0  0  0  0
  8  4  1  0  0  0  0
 10  9  1  6  0  0  0
 10 13  1  0  0  0  0
 10 12  1  0  0  0  0
 12 15  1  0  0  0  0
 13 19  1  6  0  0  0
 13 14  1  0  0  0  0
 14 16  2  0  0  0  0
 15 11  1  1  0  0  0
 16 15  1  0  0  0  0
 17 19  2  0  0  0  0
 18 19  2  0  0  0  0
 19 20  1  0  0  0  0
 20 21  1  0  0  0  0
 22 23  2  0  0  0  0
 23 21  1  0  0  0  0
 24 23  1  0  0  0  0
 25  8  1  0  0  0  0
 26 30  1  0  0  0  0
 27 25  1  6  0  0  0
 27 26  1  0  0  0  0
 28 29  1  0  0  0  0
 28 27  1  0  0  0  0
 29 30  1  0  0  0  0
 30 32  1  6  0  0  0
 31 34  1  0  0  0  0
 32 31  2  0  0  0  0
 33 34  1  0  0  0  0
 33 36  1  0  0  0  0
 35 33  2  0  0  0  0
 36 37  1  0  0  0  0
 38 37  1  1  0  0  0
 38 39  1  0  0  0  0
 38 40  1  0  0  0  0
 39 42  1  6  0  0  0
 39 40  1  0  0  0  0
 39 46  1  0  0  0  0
 40 43  1  1  0  0  0
 42 41  1  0  0  0  0
 43 45  1  0  0  0  0
 45 44  1  0  0  0  0
 46 50  1  6  0  0  0
 46 51  1  0  0  0  0
 47 48  1  0  0  0  0
 48 50  1  0  0  0  0
 49 50  2  0  0  0  0
 51 52  1  0  0  0  0
 52 54  1  0  0  0  0
 54 53  1  0  0  0  0
 56 25  1  0  0  0  0
 56 55  1  0  0  0  0
 57 59  1  0  0  0  0
 58 60  1  0  0  0  0
 59 58  2  0  0  0  0
 61 60  1  6  0  0  0
 61 64  1  0  0  0  0
 61 63  1  0  0  0  0
 62 63  1  0  0  0  0
 64 66  1  0  0  0  0
 66 65  1  0  0  0  0
M  END
>  <MODEL>
7

>  <REMARK>
 VINA RESULT:      -1.4      3.940      9.214
  Name = 
  29 active torsions:
  status: ('A' for Active; 'I' for Inactive)
    1  A    between atoms: C_1  and  C_18
    2  A    between atoms: C_1  and  C_55
    3  A    between atoms: C_6  and  C_26
    4  A    between atoms: C_6  and  C_47
    5  A    between atoms: C_7  and  N_17
    6  A    between atoms: C_10  and  N_17
    7  A    between atoms: O_12  and  C_53
    8  A    between atoms: O_12  and  C_66
    9  A    between atoms: N_13  and  N_21
   10  A    between atoms: O_14  and  C_15
   11  A    between atoms: O_14  and  C_62
   12  A    between atoms: C_15  and  C_60
   13  A    between atoms: N_16  and  C_33
   14  A    between atoms: N_16  and  C_50
   15  A    between atoms: N_16  and  C_56
   16  A    between atoms: C_19  and  C_26
   17  A    between atoms: C_23  and  C_65
   18  A    between atoms: C_28  and  C_39
   19  A    between atoms: C_29  and  S_31
   20  A    between atoms: S_31  and  N_43
   21  A    between atoms: C_34  and  C_41
   22  A    between atoms: O_37  and  C_58
   23  A    between atoms: C_39  and  C_58
   24  A    between atoms: C_41  and  N_43
   25  A    between atoms: C_46  and  O_51
   26  A    between atoms: C_46  and  C_58
   27  A    between atoms: C_49  and  C_61
   28  A    between atoms: C_49  and  C_62
   29  A    between atoms: C_62  and  C_64
                            x       y       z     vdW  Elec       q    Type
                         _______ _______ _______ _____ _____    ______ ____

>  <TORSDO>
F 29

$$$$
=
 OpenBabel10232412203D

 66 69  0  0  1  0  0  0  0  0999 V2000
  187.1620  172.8980  135.6500 C   0  0  0  0  0  3  0  0  0  0  0  0
  183.7960  173.9340  136.3960 C   0  0  0  0  0  2  0  0  0  0  0  0
  186.1590  173.6850  135.9030 C   0  0  0  0  0  0  0  0  0  0  0  0
  184.4360  176.7490  136.7080 C   0  0  0  0  0  0  0  0  0  0  0  0
  182.7460  175.0140  136.3340 C   0  0  0  0  0  3  0  0  0  0  0  0
  185.4410  175.8850  136.5290 C   0  0  0  0  0  3  0  0  0  0  0  0
  185.1670  174.4920  136.1610 C   0  0  0  0  0  0  0  0  0  0  0  0
  183.0190  176.3210  136.4960 C   0  0  0  0  0  0  0  0  0  0  0  0
  188.4720  173.4480  135.5130 N   0  0  0  0  0  2  0  0  0  0  0  0
  188.8990  174.6540  136.2160 C   0  0  2  0  0  3  0  0  0  0  0  0
  187.4650  178.2760  134.8390 Cl  0  0  0  0  0  0  0  0  0  0  0  0
  187.9280  175.8220  135.9110 C   0  0  0  0  0  2  0  0  0  0  0  0
  190.3900  174.9920  135.9600 C   0  0  2  0  0  3  0  0  0  0  0  0
  190.5720  175.8340  134.7290 C   0  0  0  0  0  3  0  0  0  0  0  0
  188.6350  177.1240  135.5190 C   0  0  1  0  0  3  0  0  0  0  0  0
  189.7310  176.8560  134.5210 C   0  0  0  0  0  3  0  0  0  0  0  0
  191.4220  172.8750  137.3090 O   0  0  0  0  0  0  0  0  0  0  0  0
  191.0150  172.6110  134.8930 O   0  0  0  0  0  0  0  0  0  0  0  0
  191.4770  173.5650  135.9650 S   0  0  0  0  0  0  0  0  0  0  0  0
  193.0980  174.0830  135.6130 N   0  0  0  0  0  2  0  0  0  0  0  0
  193.8650  173.9970  136.8430 C   0  0  0  0  0  2  0  0  0  0  0  0
  194.2540  175.3640  138.7590 O   0  0  0  0  0  1  0  0  0  0  0  0
  193.7250  175.2630  137.6180 C   0  0  0  0  0  0  0  0  0  0  0  0
  192.9930  176.3230  137.0930 O   0  0  0  0  0  0  0  0  0  0  0  0
  181.9490  177.2880  136.4030 N   0  0  0  0  0  0  0  0  0  0  0  0
  181.6870  178.0410  138.7250 C   0  0  0  0  0  2  0  0  0  0  0  0
  181.0020  177.4290  137.5220 C   0  0  2  0  0  3  0  0  0  0  0  0
  180.4030  176.0890  137.9400 C   0  0  0  0  0  2  0  0  0  0  0  0
  180.1090  176.0990  139.7340 S   0  0  0  0  0  0  0  0  0  0  0  0
  180.7960  177.7790  139.9150 C   0  0  1  0  0  3  0  0  0  0  0  0
  182.8940  177.7550  141.1290 N   0  0  0  0  0  0  0  0  0  0  0  0
  181.6100  177.8850  141.1620 C   0  0  0  0  0  3  0  0  0  0  0  0
  184.6610  178.8380  142.4580 C   0  0  0  0  0  0  0  0  0  0  0  0
  183.6300  177.8620  142.3130 N   0  0  0  0  0  2  0  0  0  0  0  0
  184.8920  179.6640  141.5320 O   0  0  0  0  0  0  0  0  0  0  0  0
  185.4790  178.8660  143.7070 C   0  0  0  0  0  2  0  0  0  0  0  0
  186.9520  179.0370  143.3730 C   0  0  0  0  0  2  0  0  0  0  0  0
  187.5600  177.7070  142.9320 C   0  0  2  0  0  3  0  0  0  0  0  0
  188.5640  177.0700  143.8950 C   0  0  2  0  0  0  0  0  0  0  0  0
  189.0700  177.7710  142.6320 C   0  0  2  0  0  3  0  0  0  0  0  0
  189.8510  175.1480  143.3010 O   0  0  0  0  0  1  0  0  0  0  0  0
  188.6030  175.5550  143.7670 C   0  0  0  0  0  2  0  0  0  0  0  0
  189.6080  179.0340  142.9070 O   0  0  0  0  0  0  0  0  0  0  0  0
  191.4760  179.9580  144.0600 C   0  0  0  0  0  1  0  0  0  0  0  0
  190.9330  178.7810  143.2770 C   0  0  0  0  0  2  0  0  0  0  0  0
  188.9320  177.6520  145.2940 C   0  0  1  0  0  3  0  0  0  0  0  0
  186.3730  178.6850  147.8780 O   0  0  0  0  0  1  0  0  0  0  0  0
  187.4280  178.7210  147.0250 N   0  0  0  0  0  2  0  0  0  0  0  0
  187.0500  176.5450  146.2920 O   0  0  0  0  0  0  0  0  0  0  0  0
  187.7580  177.5860  146.2280 C   0  0  0  0  0  0  0  0  0  0  0  0
  190.0560  177.0660  145.8910 O   0  0  0  0  0  0  0  0  0  0  0  0
  190.1010  177.5970  147.1840 C   0  0  0  0  0  2  0  0  0  0  0  0
  192.1850  176.3840  146.9740 N   0  0  0  0  0  1  0  0  0  0  0  0
  191.4660  177.3340  147.7970 C   0  0  0  0  0  2  0  0  0  0  0  0
  180.6800  176.9200  134.4710 O   0  0  0  0  0  1  0  0  0  0  0  0
  181.5640  177.8050  135.0870 C   0  0  0  0  0  2  0  0  0  0  0  0
  184.7780  178.1050  137.2390 C   0  0  0  0  0  2  0  0  0  0  0  0
  186.3000  178.9340  138.9680 C   0  0  0  0  0  3  0  0  0  0  0  0
  186.0370  178.0240  138.0390 C   0  0  0  0  0  3  0  0  0  0  0  0
  187.5680  178.8540  139.7510 C   0  0  0  0  0  2  0  0  0  0  0  0
  188.7470  178.5900  138.8270 C   0  0  1  0  0  3  0  0  0  0  0  0
  189.3950  180.0050  137.2550 C   0  0  0  0  0  1  0  0  0  0  0  0
  189.4550  179.7790  138.6260 O   0  0  0  0  0  0  0  0  0  0  0  0
  189.6690  177.5500  139.4560 C   0  0  0  0  0  2  0  0  0  0  0  0
  191.7700  177.0860  139.9520 C   0  0  0  0  0  1  0  0  0  0  0  0
  190.9780  177.7450  139.0100 O   0  0  0  0  0  0  0  0  0  0  0  0
  1  3  2  0  0  0  0
  3  7  2  0  0  0  0
  4 57  1  0  0  0  0
  5  2  1  0  0  0  0
  5  8  2  0  0  0  0
  6  4  2  0  0  0  0
  7  2  1  0  0  0  0
  7  6  1  0  0  0  0
  8  4  1  0  0  0  0
  9  1  1  0  0  0  0
 10  9  1  6  0  0  0
 12 10  1  0  0  0  0
 13 19  1  6  0  0  0
 13 10  1  0  0  0  0
 14 13  1  0  0  0  0
 15 11  1  6  0  0  0
 15 12  1  0  0  0  0
 16 14  2  0  0  0  0
 16 15  1  0  0  0  0
 18 19  2  0  0  0  0
 19 17  2  0  0  0  0
 20 19  1  0  0  0  0
 20 21  1  0  0  0  0
 21 23  1  0  0  0  0
 23 22  1  0  0  0  0
 24 23  2  0  0  0  0
 25  8  1  0  0  0  0
 26 30  1  0  0  0  0
 27 25  1  6  0  0  0
 27 28  1  0  0  0  0
 27 26  1  0  0  0  0
 28 29  1  0  0  0  0
 29 30  1  0  0  0  0
 30 32  1  1  0  0  0
 31 32  2  0  0  0  0
 31 34  1  0  0  0  0
 33 36  1  0  0  0  0
 34 33  1  0  0  0  0
 35 33  2  0  0  0  0
 37 36  1  0  0  0  0
 38 37  1  1  0  0  0
 38 39  1  0  0  0  0
 39 42  1  6  0  0  0
 39 46  1  0  0  0  0
 40 43  1  1  0  0  0
 40 38  1  0  0  0  0
 40 39  1  0  0  0  0
 41 42  1  0  0  0  0
 43 45  1  0  0  0  0
 45 44  1  0  0  0  0
 46 51  1  1  0  0  0
 46 50  1  0  0  0  0
 48 47  1  0  0  0  0
 50 49  2  0  0  0  0
 50 48  1  0  0  0  0
 51 52  1  0  0  0  0
 52 54  1  0  0  0  0
 53 54  1  0  0  0  0
 55 56  1  0  0  0  0
 56 25  1  0  0  0  0
 57 59  1  0  0  0  0
 58 60  1  0  0  0  0
 59 58  2  0  0  0  0
 61 64  1  1  0  0  0
 61 60  1  0  0  0  0
 62 63  1  0  0  0  0
 63 61  1  0  0  0  0
 66 64  1  0  0  0  0
 66 65  1  0  0  0  0
M  END
>  <MODEL>
8

>  <REMARK>
 VINA RESULT:      -1.4      2.167      4.479
  Name = 
  29 active torsions:
  status: ('A' for Active; 'I' for Inactive)
    1  A    between atoms: C_1  and  C_18
    2  A    between atoms: C_1  and  C_55
    3  A    between atoms: C_6  and  C_26
    4  A    between atoms: C_6  and  C_47
    5  A    between atoms: C_7  and  N_17
    6  A    between atoms: C_10  and  N_17
    7  A    between atoms: O_12  and  C_53
    8  A    between atoms: O_12  and  C_66
    9  A    between atoms: N_13  and  N_21
   10  A    between atoms: O_14  and  C_15
   11  A    between atoms: O_14  and  C_62
   12  A    between atoms: C_15  and  C_60
   13  A    between atoms: N_16  and  C_33
   14  A    between atoms: N_16  and  C_50
   15  A    between atoms: N_16  and  C_56
   16  A    between atoms: C_19  and  C_26
   17  A    between atoms: C_23  and  C_65
   18  A    between atoms: C_28  and  C_39
   19  A    between atoms: C_29  and  S_31
   20  A    between atoms: S_31  and  N_43
   21  A    between atoms: C_34  and  C_41
   22  A    between atoms: O_37  and  C_58
   23  A    between atoms: C_39  and  C_58
   24  A    between atoms: C_41  and  N_43
   25  A    between atoms: C_46  and  O_51
   26  A    between atoms: C_46  and  C_58
   27  A    between atoms: C_49  and  C_61
   28  A    between atoms: C_49  and  C_62
   29  A    between atoms: C_62  and  C_64
                            x       y       z     vdW  Elec       q    Type
                         _______ _______ _______ _____ _____    ______ ____

>  <TORSDO>
F 29

$$$$
