=
 OpenBabel10232408463D

 55 61  0  0  1  0  0  0  0  0999 V2000
  191.2380  175.3170  136.9100 N   0  0  1  0  0  0  0  0  0  0  0  0
  194.4280  174.7080  136.7300 N   0  0  0  0  0  0  0  0  0  0  0  0
  193.9620  176.6320  137.9830 O   0  0  0  0  0  0  0  0  0  0  0  0
  190.7420  176.3310  139.4840 C   0  0  0  0  0  0  0  0  0  0  0  0
  193.5890  175.4890  137.6000 C   0  0  0  0  0  0  0  0  0  0  0  0
  188.5290  177.0430  138.7480 C   0  0  0  0  0  0  0  0  0  0  0  0
  193.8000  173.7160  135.8580 C   0  0  0  0  0  2  0  0  0  0  0  0
  192.2220  174.9940  137.9780 C   0  0  1  0  0  3  0  0  0  0  0  0
  191.8900  175.5710  139.2530 O   0  0  0  0  0  0  0  0  0  0  0  0
  189.7070  176.2840  138.5570 C   0  0  0  0  0  0  0  0  0  0  0  0
  190.6310  177.1300  140.6280 C   0  0  0  0  0  0  0  0  0  0  0  0
  191.3240  174.3260  135.8020 C   0  0  2  0  0  3  0  0  0  0  0  0
  192.9920  175.6040  134.5740 O   0  0  0  0  0  1  0  0  0  0  0  0
  188.4280  177.8690  139.8970 C   0  0  0  0  0  0  0  0  0  0  0  0
  192.6620  174.3300  135.0480 C   0  0  1  0  0  3  0  0  0  0  0  0
  189.8620  175.2900  137.4550 C   0  0  2  0  0  3  0  0  0  0  0  0
  189.5230  174.0140  137.9210 O   0  0  0  0  0  1  0  0  0  0  0  0
  189.4830  177.8990  140.8210 C   0  0  0  0  0  3  0  0  0  0  0  0
  187.4260  176.9670  137.7600 C   0  0  0  0  0  0  0  0  0  0  0  0
  186.5500  175.8710  137.7600 C   0  0  0  0  0  3  0  0  0  0  0  0
  184.3190  176.7600  135.0010 F   0  0  0  0  0  0  0  0  0  0  0  0
  187.2410  177.9940  136.8220 C   0  0  0  0  0  3  0  0  0  0  0  0
  186.1970  177.9250  135.8950 C   0  0  0  0  0  3  0  0  0  0  0  0
  185.3290  176.8280  135.9010 C   0  0  0  0  0  0  0  0  0  0  0  0
  185.5060  175.8020  136.8320 C   0  0  0  0  0  3  0  0  0  0  0  0
  198.6180  175.1990  136.5440 N   0  0  0  0  0  0  0  0  0  0  0  0
  197.8480  175.6490  135.5180 C   0  0  0  0  0  3  0  0  0  0  0  0
  196.4610  175.4980  135.5650 C   0  0  0  0  0  3  0  0  0  0  0  0
  195.8600  174.8860  136.6780 C   0  0  0  0  0  0  0  0  0  0  0  0
  198.0690  174.5960  137.6320 C   0  0  0  0  0  3  0  0  0  0  0  0
  196.6860  174.4270  137.7160 C   0  0  0  0  0  3  0  0  0  0  0  0
  189.9690  175.6600  134.3500 O   0  0  0  0  0  1  0  0  0  0  0  0
  189.4860  173.4200  134.3480 O   0  0  0  0  0  0  0  0  0  0  0  0
  190.2280  174.5090  134.7860 C   0  0  0  0  0  0  0  0  0  0  0  0
  187.2390  178.7180  140.1120 C   0  0  0  0  0  3  0  0  0  0  0  0
  185.9910  178.2530  140.0730 C   0  0  0  0  0  3  0  0  0  0  0  0
  182.6850  179.6230  139.3460 C   0  0  2  0  0  3  0  0  0  0  0  0
  181.9150  179.2450  138.2480 O   0  0  0  0  0  1  0  0  0  0  0  0
  183.7160  178.4410  141.0950 C   0  0  2  0  0  3  0  0  0  0  0  0
  184.8030  179.1390  140.2970 C   0  0  2  0  0  3  0  0  0  0  0  0
  184.1510  179.5330  139.0000 C   0  0  0  0  0  2  0  0  0  0  0  0
  182.4280  178.7200  140.4620 N   0  0  0  0  0  2  0  0  0  0  0  0
  183.7180  178.9430  142.5010 C   0  0  0  0  0  3  0  0  0  0  0  0
  184.8130  178.9970  143.1670 N   0  0  0  0  0  0  0  0  0  0  0  0
  183.6430  178.9070  145.2790 C   0  0  0  0  0  2  0  0  0  0  0  0
  184.8250  179.4790  144.5230 C   0  0  1  0  0  3  0  0  0  0  0  0
  185.5300  178.7330  146.6580 C   0  0  0  0  0  2  0  0  0  0  0  0
  186.0340  178.9660  145.2570 C   0  0  0  0  0  2  0  0  0  0  0  0
  184.1100  178.4200  146.5740 N   0  0  0  0  0  2  0  0  0  0  0  0
  191.7400  177.2000  141.6230 C   0  0  0  0  0  2  0  0  0  0  0  0
  191.2610  176.7020  142.9740 C   0  0  0  0  0  2  0  0  0  0  0  0
  191.6770  177.6860  144.0500 C   0  0  0  0  0  2  0  0  0  0  0  0
  189.8870  177.1620  145.5420 O   0  0  0  0  0  0  0  0  0  0  0  0
  191.9960  177.0390  146.4340 O   0  0  0  0  0  1  0  0  0  0  0  0
  191.1300  177.2720  145.3730 C   0  0  0  0  0  0  0  0  0  0  0  0
  1 16  1  0  0  0  0
  1  8  1  0  0  0  0
  2  5  1  0  0  0  0
  4 11  1  0  0  0  0
  5  8  1  0  0  0  0
  5  3  2  0  0  0  0
  6 14  2  0  0  0  0
  7  2  1  0  0  0  0
  8  9  1  0  0  0  0
  9  4  1  0  0  0  0
 10  6  1  0  0  0  0
 10  4  2  0  0  0  0
 11 18  2  0  0  0  0
 11 50  1  0  0  0  0
 12  1  1  0  0  0  0
 13 15  1  0  0  0  0
 14 35  1  0  0  0  0
 14 18  1  0  0  0  0
 15 12  1  0  0  0  0
 15  7  1  0  0  0  0
 16 17  1  0  0  0  0
 16 10  1  0  0  0  0
 19 20  1  0  0  0  0
 19  6  1  0  0  0  0
 21 24  1  0  0  0  0
 22 19  2  0  0  0  0
 23 24  2  0  0  0  0
 23 22  1  0  0  0  0
 24 25  1  0  0  0  0
 25 20  2  0  0  0  0
 26 30  1  0  0  0  0
 27 28  1  0  0  0  0
 27 26  2  0  0  0  0
 28 29  2  0  0  0  0
 29  2  1  0  0  0  0
 29 31  1  0  0  0  0
 30 31  2  0  0  0  0
 32 34  1  0  0  0  0
 33 34  2  0  0  0  0
 34 12  1  0  0  0  0
 36 35  2  0  0  0  0
 36 40  1  0  0  0  0
 37 42  1  0  0  0  0
 38 37  1  0  0  0  0
 39 43  1  0  0  0  0
 40 39  1  0  0  0  0
 41 37  1  0  0  0  0
 41 40  1  0  0  0  0
 42 39  1  0  0  0  0
 43 44  2  0  0  0  0
 44 46  1  0  0  0  0
 45 49  1  0  0  0  0
 46 48  1  0  0  0  0
 46 45  1  0  0  0  0
 48 47  1  0  0  0  0
 49 47  1  0  0  0  0
 50 51  1  0  0  0  0
 51 52  1  0  0  0  0
 52 55  1  0  0  0  0
 55 53  2  0  0  0  0
 55 54  1  0  0  0  0
M  END
>  <MODEL>
1

>  <REMARK>
 VINA RESULT:      -7.9      0.000      0.000
  Name = 
  11 active torsions:
  status: ('A' for Active; 'I' for Inactive)
    1  A    between atoms: C_2  and  C_20
    2  A    between atoms: C_2  and  C_27
    3  A    between atoms: N_7  and  C_41
    4  A    between atoms: C_13  and  C_16
    5  A    between atoms: C_20  and  C_44
    6  A    between atoms: C_23  and  N_33
    7  A    between atoms: C_26  and  C_32
    8  A    between atoms: C_28  and  C_53
    9  A    between atoms: C_30  and  C_44
   10  A    between atoms: C_34  and  C_36
   11  A    between atoms: C_38  and  C_46
                            x       y       z     vdW  Elec       q    Type
                         _______ _______ _______ _____ _____    ______ ____

>  <TORSDO>
F 11

$$$$
=
 OpenBabel10232408463D

 55 61  0  0  1  0  0  0  0  0999 V2000
  186.7770  178.1700  143.0680 N   0  0  1  0  0  0  0  0  0  0  0  0
  189.2610  177.4750  145.0500 N   0  0  0  0  0  0  0  0  0  0  0  0
  189.4250  176.3570  142.9980 O   0  0  0  0  0  0  0  0  0  0  0  0
  187.8180  178.2750  140.4590 C   0  0  0  0  0  0  0  0  0  0  0  0
  189.0310  177.3740  143.6330 C   0  0  0  0  0  0  0  0  0  0  0  0
  185.5440  178.2330  139.5790 C   0  0  0  0  0  0  0  0  0  0  0  0
  188.3540  178.2990  145.8490 C   0  0  0  0  0  2  0  0  0  0  0  0
  188.2360  178.4280  142.9180 C   0  0  1  0  0  3  0  0  0  0  0  0
  188.6740  178.4470  141.5480 O   0  0  0  0  0  0  0  0  0  0  0  0
  186.4470  178.4040  140.6530 C   0  0  0  0  0  0  0  0  0  0  0  0
  188.3260  177.9770  139.1890 C   0  0  0  0  0  0  0  0  0  0  0  0
  186.2930  178.6560  144.3890 C   0  0  2  0  0  3  0  0  0  0  0  0
  186.7250  176.5390  145.5080 O   0  0  0  0  0  1  0  0  0  0  0  0
  186.0610  177.9090  138.2980 C   0  0  0  0  0  0  0  0  0  0  0  0
  186.8960  177.9240  145.5960 C   0  0  1  0  0  3  0  0  0  0  0  0
  186.0210  178.8700  142.0050 C   0  0  2  0  0  3  0  0  0  0  0  0
  186.1800  180.2590  142.0970 O   0  0  0  0  0  1  0  0  0  0  0  0
  187.4470  177.7870  138.1230 C   0  0  0  0  0  3  0  0  0  0  0  0
  184.0870  178.3930  139.7980 C   0  0  0  0  0  0  0  0  0  0  0  0
  183.4590  179.6170  139.5210 C   0  0  0  0  0  3  0  0  0  0  0  0
  179.9940  178.8400  140.3960 F   0  0  0  0  0  0  0  0  0  0  0  0
  183.3190  177.3210  140.2770 C   0  0  0  0  0  3  0  0  0  0  0  0
  181.9430  177.4710  140.4780 C   0  0  0  0  0  3  0  0  0  0  0  0
  181.3260  178.6950  140.2000 C   0  0  0  0  0  0  0  0  0  0  0  0
  182.0840  179.7670  139.7220 C   0  0  0  0  0  3  0  0  0  0  0  0
  192.4380  175.4720  146.9800 N   0  0  0  0  0  0  0  0  0  0  0  0
  191.5890  176.2360  147.7140 C   0  0  0  0  0  3  0  0  0  0  0  0
  190.5310  176.9020  147.0930 C   0  0  0  0  0  3  0  0  0  0  0  0
  190.3410  176.7770  145.7070 C   0  0  0  0  0  0  0  0  0  0  0  0
  192.2870  175.3340  145.6350 C   0  0  0  0  0  3  0  0  0  0  0  0
  191.2410  175.9840  144.9780 C   0  0  0  0  0  3  0  0  0  0  0  0
  184.2630  178.5460  145.6500 O   0  0  0  0  0  1  0  0  0  0  0  0
  183.9980  178.5160  143.3750 O   0  0  0  0  0  0  0  0  0  0  0  0
  184.7950  178.5790  144.5110 C   0  0  0  0  0  0  0  0  0  0  0  0
  185.1530  177.6710  137.1580 C   0  0  0  0  0  3  0  0  0  0  0  0
  184.2940  176.6530  137.1060 C   0  0  0  0  0  3  0  0  0  0  0  0
  182.6030  174.6940  134.5300 C   0  0  2  0  0  3  0  0  0  0  0  0
  182.7940  173.3260  134.3480 O   0  0  0  0  0  1  0  0  0  0  0  0
  181.9900  176.0210  136.3680 C   0  0  2  0  0  3  0  0  0  0  0  0
  183.3840  176.4380  135.9350 C   0  0  2  0  0  3  0  0  0  0  0  0
  183.8710  175.3240  135.0490 C   0  0  0  0  0  2  0  0  0  0  0  0
  181.5510  174.9180  135.5160 N   0  0  0  0  0  2  0  0  0  0  0  0
  181.0520  177.1760  136.2380 C   0  0  0  0  0  3  0  0  0  0  0  0
  181.4080  178.2290  135.5960 N   0  0  0  0  0  0  0  0  0  0  0  0
  180.5820  180.2080  136.7100 C   0  0  0  0  0  2  0  0  0  0  0  0
  180.5120  179.3470  135.4660 C   0  0  1  0  0  3  0  0  0  0  0  0
  180.6140  181.6320  134.8500 C   0  0  0  0  0  2  0  0  0  0  0  0
  180.9530  180.2520  134.3480 C   0  0  0  0  0  2  0  0  0  0  0  0
  180.6840  181.6060  136.3050 N   0  0  0  0  0  2  0  0  0  0  0  0
  189.7940  177.8230  138.9700 C   0  0  0  0  0  2  0  0  0  0  0  0
  190.1610  176.3520  138.9030 C   0  0  0  0  0  2  0  0  0  0  0  0
  190.7740  176.0460  137.5520 C   0  0  0  0  0  2  0  0  0  0  0  0
  192.7710  174.7860  137.1880 O   0  0  0  0  0  0  0  0  0  0  0  0
  193.0190  176.7210  138.3940 O   0  0  0  0  0  1  0  0  0  0  0  0
  192.2400  175.8140  137.6860 C   0  0  0  0  0  0  0  0  0  0  0  0
  1 12  1  0  0  0  0
  2 29  1  0  0  0  0
  2  7  1  0  0  0  0
  3  5  2  0  0  0  0
  4 10  1  0  0  0  0
  4  9  1  0  0  0  0
  5  2  1  0  0  0  0
  6 19  1  0  0  0  0
  6 10  2  0  0  0  0
  8  1  1  0  0  0  0
  8  5  1  0  0  0  0
  9  8  1  0  0  0  0
 10 16  1  0  0  0  0
 11  4  2  0  0  0  0
 12 34  1  0  0  0  0
 12 15  1  0  0  0  0
 13 15  1  0  0  0  0
 14  6  1  0  0  0  0
 15  7  1  0  0  0  0
 16 17  1  0  0  0  0
 16  1  1  0  0  0  0
 18 14  2  0  0  0  0
 18 11  1  0  0  0  0
 19 22  1  0  0  0  0
 20 25  1  0  0  0  0
 20 19  2  0  0  0  0
 22 23  2  0  0  0  0
 24 21  1  0  0  0  0
 24 23  1  0  0  0  0
 25 24  2  0  0  0  0
 26 27  1  0  0  0  0
 28 27  2  0  0  0  0
 29 28  1  0  0  0  0
 30 26  2  0  0  0  0
 31 30  1  0  0  0  0
 31 29  2  0  0  0  0
 33 34  2  0  0  0  0
 34 32  1  0  0  0  0
 35 14  1  0  0  0  0
 36 35  2  0  0  0  0
 37 41  1  0  0  0  0
 37 42  1  0  0  0  0
 38 37  1  0  0  0  0
 40 39  1  0  0  0  0
 40 36  1  0  0  0  0
 41 40  1  0  0  0  0
 42 39  1  0  0  0  0
 43 39  1  0  0  0  0
 44 43  2  0  0  0  0
 46 44  1  0  0  0  0
 46 45  1  0  0  0  0
 47 49  1  0  0  0  0
 48 47  1  0  0  0  0
 48 46  1  0  0  0  0
 49 45  1  0  0  0  0
 50 11  1  0  0  0  0
 51 50  1  0  0  0  0
 52 55  1  0  0  0  0
 52 51  1  0  0  0  0
 53 55  2  0  0  0  0
 55 54  1  0  0  0  0
M  END
>  <MODEL>
2

>  <REMARK>
 VINA RESULT:      -6.5      3.740      8.430
  Name = 
  11 active torsions:
  status: ('A' for Active; 'I' for Inactive)
    1  A    between atoms: C_2  and  C_20
    2  A    between atoms: C_2  and  C_27
    3  A    between atoms: N_7  and  C_41
    4  A    between atoms: C_13  and  C_16
    5  A    between atoms: C_20  and  C_44
    6  A    between atoms: C_23  and  N_33
    7  A    between atoms: C_26  and  C_32
    8  A    between atoms: C_28  and  C_53
    9  A    between atoms: C_30  and  C_44
   10  A    between atoms: C_34  and  C_36
   11  A    between atoms: C_38  and  C_46
                            x       y       z     vdW  Elec       q    Type
                         _______ _______ _______ _____ _____    ______ ____

>  <TORSDO>
F 11

$$$$
