=
 OpenBabel10222421583D

 40 43  0  0  1  0  0  0  0  0999 V2000
  184.8680  178.3640  141.9540 C   0  0  0  0  0  2  0  0  0  0  0  0
  183.1110  178.1800  140.3200 C   0  0  0  0  0  0  0  0  0  0  0  0
  184.3290  178.5640  140.5730 C   0  0  0  0  0  0  0  0  0  0  0  0
  181.8860  177.7750  140.0670 C   0  0  0  0  0  0  0  0  0  0  0  0
  180.7410  178.7430  140.1830 C   0  0  0  0  0  3  0  0  0  0  0  0
  180.9330  179.9410  139.2700 C   0  0  0  0  0  1  0  0  0  0  0  0
  180.5300  179.2000  141.6170 C   0  0  0  0  0  1  0  0  0  0  0  0
  181.6240  176.3840  139.6140 C   0  0  0  0  0  0  0  0  0  0  0  0
  180.4320  175.8120  139.7700 C   0  0  0  0  0  2  0  0  0  0  0  0
  182.7150  175.5830  138.9730 C   0  0  0  0  0  2  0  0  0  0  0  0
  182.4750  175.4120  137.4770 C   0  0  0  0  0  2  0  0  0  0  0  0
  184.4230  174.1310  137.6630 C   0  0  0  0  0  1  0  0  0  0  0  0
  183.1400  174.2150  136.9870 N   0  0  0  0  0  2  0  0  0  0  0  0
  185.1460  179.0290  139.4890 N   0  0  0  0  0  2  0  0  0  0  0  0
  185.6180  177.7050  137.4930 C   0  0  0  0  0  3  0  0  0  0  0  0
  186.4680  176.9870  136.7110 N   0  0  0  0  0  0  0  0  0  0  0  0
  187.3990  178.0720  139.0690 C   0  0  0  0  0  3  0  0  0  0  0  0
  188.2570  177.3310  138.2550 C   0  0  0  0  0  3  0  0  0  0  0  0
  187.7660  176.7890  137.0660 C   0  0  0  0  0  3  0  0  0  0  0  0
  186.0620  178.2600  138.6970 C   0  0  0  0  0  0  0  0  0  0  0  0
  184.2010  179.3220  142.9280 C   0  0  2  0  0  3  0  0  0  0  0  0
  185.1620  180.1750  143.4760 O   0  0  0  0  0  1  0  0  0  0  0  0
  183.5140  178.5280  144.0290 C   0  0  0  0  0  2  0  0  0  0  0  0
  183.8380  179.1080  145.3960 C   0  0  0  0  0  2  0  0  0  0  0  0
  184.6290  178.1030  146.2090 C   0  0  0  0  0  2  0  0  0  0  0  0
  185.9600  178.7050  146.6130 C   0  0  0  0  0  2  0  0  0  0  0  0
  191.5440  176.3520  144.6230 N   0  0  0  0  0  0  0  0  0  0  0  0
  187.9060  177.1590  143.8780 C   0  0  0  0  0  3  0  0  0  0  0  0
  190.1940  177.6300  147.9630 C   0  0  0  0  0  2  0  0  0  0  0  0
  187.0390  178.0080  145.9310 N   0  0  0  0  0  0  0  0  0  0  0  0
  188.7000  178.0760  147.9200 C   0  0  1  0  0  3  0  0  0  0  0  0
  190.3940  176.1100  142.4440 C   0  0  0  0  0  1  0  0  0  0  0  0
  190.4320  177.0860  146.5880 C   0  0  0  0  0  0  0  0  0  0  0  0
  191.6060  176.6830  145.9510 C   0  0  0  0  0  3  0  0  0  0  0  0
  186.9200  177.6950  144.5560 N   0  0  0  0  0  0  0  0  0  0  0  0
  188.2200  177.6510  146.6070 N   0  0  0  0  0  0  0  0  0  0  0  0
  190.3810  176.4380  143.8980 C   0  0  0  0  0  0  0  0  0  0  0  0
  187.9850  177.4160  148.9180 O   0  0  0  0  0  1  0  0  0  0  0  0
  189.2830  177.1290  145.8830 C   0  0  0  0  0  0  0  0  0  0  0  0
  189.2020  176.8680  144.5350 C   0  0  0  0  0  0  0  0  0  0  0  0
  1 21  1  0  0  0  0
  2  3  2  0  0  0  0
  3  1  1  0  0  0  0
  4  5  1  0  0  0  0
  4  2  2  0  0  0  0
  5  7  1  0  0  0  0
  6  5  1  0  0  0  0
  8  9  2  0  0  0  0
  8  4  1  0  0  0  0
 10  8  1  0  0  0  0
 11 10  1  0  0  0  0
 13 11  1  0  0  0  0
 13 12  1  0  0  0  0
 14  3  1  0  0  0  0
 15 20  1  0  0  0  0
 16 19  1  0  0  0  0
 16 15  2  0  0  0  0
 18 17  1  0  0  0  0
 19 18  2  0  0  0  0
 20 17  2  0  0  0  0
 20 14  1  0  0  0  0
 21 22  1  1  0  0  0
 21 23  1  0  0  0  0
 23 24  1  0  0  0  0
 24 25  1  0  0  0  0
 25 26  1  0  0  0  0
 27 34  1  0  0  0  0
 28 40  1  0  0  0  0
 28 35  2  0  0  0  0
 30 36  1  0  0  0  0
 30 26  1  0  0  0  0
 31 29  1  0  0  0  0
 31 38  1  1  0  0  0
 32 37  1  0  0  0  0
 33 29  1  0  0  0  0
 34 33  2  0  0  0  0
 35 30  1  0  0  0  0
 36 31  1  0  0  0  0
 37 40  1  0  0  0  0
 37 27  2  0  0  0  0
 39 33  1  0  0  0  0
 39 36  1  0  0  0  0
 40 39  2  0  0  0  0
M  END
>  <MODEL>
1

>  <REMARK>
 VINA RESULT:      -7.7      0.000      0.000
  Name = 
  14 active torsions:
  status: ('A' for Active; 'I' for Inactive)
    1  A    between atoms: C_2  and  C_39
    2  A    between atoms: C_7  and  C_8
    3  A    between atoms: C_7  and  C_31
    4  A    between atoms: C_8  and  C_40
    5  A    between atoms: C_9  and  N_11
    6  A    between atoms: C_9  and  C_37
    7  A    between atoms: C_13  and  C_37
    8  A    between atoms: C_13  and  C_39
    9  A    between atoms: C_14  and  C_30
   10  A    between atoms: C_14  and  C_38
   11  A    between atoms: N_16  and  C_30
   12  A    between atoms: N_20  and  C_31
   13  A    between atoms: N_20  and  C_34
   14  A    between atoms: C_38  and  C_40
                            x       y       z     vdW  Elec       q    Type
                         _______ _______ _______ _____ _____    ______ ____

>  <TORSDO>
F 14

$$$$
=
 OpenBabel10222421583D

 40 43  0  0  1  0  0  0  0  0999 V2000
  185.4480  178.4870  139.2770 C   0  0  0  0  0  2  0  0  0  0  0  0
  185.7680  177.1240  137.3190 C   0  0  0  0  0  0  0  0  0  0  0  0
  186.2560  178.0490  138.0960 C   0  0  0  0  0  0  0  0  0  0  0  0
  185.2780  176.1790  136.5480 C   0  0  0  0  0  0  0  0  0  0  0  0
  184.4900  176.5500  135.3210 C   0  0  0  0  0  3  0  0  0  0  0  0
  185.3200  177.3810  134.3600 C   0  0  0  0  0  1  0  0  0  0  0  0
  183.2030  177.2770  135.6740 C   0  0  0  0  0  1  0  0  0  0  0  0
  185.5390  174.7460  136.8430 C   0  0  0  0  0  0  0  0  0  0  0  0
  186.7170  174.1830  136.5810 C   0  0  0  0  0  2  0  0  0  0  0  0
  184.4640  173.8920  137.4410 C   0  0  0  0  0  2  0  0  0  0  0  0
  184.7850  172.4100  137.2960 C   0  0  0  0  0  2  0  0  0  0  0  0
  182.4690  172.4730  136.9750 C   0  0  0  0  0  1  0  0  0  0  0  0
  183.6670  171.7010  136.6930 N   0  0  0  0  0  2  0  0  0  0  0  0
  187.5970  178.5040  137.8700 N   0  0  0  0  0  2  0  0  0  0  0  0
  189.5440  177.1300  137.3420 C   0  0  0  0  0  3  0  0  0  0  0  0
  190.7110  176.5280  137.6970 N   0  0  0  0  0  0  0  0  0  0  0  0
  189.3190  177.9800  139.5820 C   0  0  0  0  0  3  0  0  0  0  0  0
  190.5170  177.3550  139.9280 C   0  0  0  0  0  3  0  0  0  0  0  0
  191.2060  176.6240  138.9590 C   0  0  0  0  0  3  0  0  0  0  0  0
  188.8140  177.8650  138.2800 C   0  0  0  0  0  0  0  0  0  0  0  0
  183.9910  178.6720  138.8850 C   0  0  2  0  0  3  0  0  0  0  0  0
  183.6880  180.0350  138.8450 O   0  0  0  0  0  1  0  0  0  0  0  0
  183.1000  177.9640  139.8950 C   0  0  0  0  0  2  0  0  0  0  0  0
  182.9810  178.7790  141.1730 C   0  0  0  0  0  2  0  0  0  0  0  0
  183.7110  178.0790  142.3020 C   0  0  0  0  0  2  0  0  0  0  0  0
  184.5740  179.0760  143.0480 C   0  0  0  0  0  2  0  0  0  0  0  0
  189.7390  177.1510  146.2570 N   0  0  0  0  0  0  0  0  0  0  0  0
  187.8480  177.3620  142.9680 C   0  0  0  0  0  3  0  0  0  0  0  0
  186.4160  178.7750  147.2220 C   0  0  0  0  0  2  0  0  0  0  0  0
  185.7820  178.4190  143.5210 N   0  0  0  0  0  0  0  0  0  0  0  0
  185.4500  179.0170  146.0220 C   0  0  1  0  0  3  0  0  0  0  0  0
  190.5500  176.4160  144.0370 C   0  0  0  0  0  1  0  0  0  0  0  0
  187.5680  178.0490  146.5990 C   0  0  0  0  0  0  0  0  0  0  0  0
  188.8170  177.6990  147.1110 C   0  0  0  0  0  3  0  0  0  0  0  0
  186.7000  177.8740  142.5920 N   0  0  0  0  0  0  0  0  0  0  0  0
  186.0740  178.3280  144.8950 N   0  0  0  0  0  0  0  0  0  0  0  0
  189.4850  176.9710  144.9200 C   0  0  0  0  0  0  0  0  0  0  0  0
  184.2100  178.4440  146.2950 O   0  0  0  0  0  1  0  0  0  0  0  0
  187.3080  177.8330  145.2930 C   0  0  0  0  0  0  0  0  0  0  0  0
  188.2330  177.3480  144.3990 C   0  0  0  0  0  0  0  0  0  0  0  0
  2  3  2  0  0  0  0
  3  1  1  0  0  0  0
  4  8  1  0  0  0  0
  4  2  2  0  0  0  0
  5  7  1  0  0  0  0
  5  4  1  0  0  0  0
  6  5  1  0  0  0  0
  8 10  1  0  0  0  0
  9  8  2  0  0  0  0
 11 10  1  0  0  0  0
 13 12  1  0  0  0  0
 13 11  1  0  0  0  0
 14  3  1  0  0  0  0
 14 20  1  0  0  0  0
 15 16  2  0  0  0  0
 15 20  1  0  0  0  0
 16 19  1  0  0  0  0
 17 18  1  0  0  0  0
 19 18  2  0  0  0  0
 20 17  2  0  0  0  0
 21 22  1  1  0  0  0
 21  1  1  0  0  0  0
 21 23  1  0  0  0  0
 23 24  1  0  0  0  0
 24 25  1  0  0  0  0
 25 26  1  0  0  0  0
 26 30  1  0  0  0  0
 27 34  1  0  0  0  0
 28 40  1  0  0  0  0
 30 36  1  0  0  0  0
 31 38  1  1  0  0  0
 31 29  1  0  0  0  0
 32 37  1  0  0  0  0
 33 34  2  0  0  0  0
 33 29  1  0  0  0  0
 35 28  2  0  0  0  0
 35 30  1  0  0  0  0
 36 39  1  0  0  0  0
 36 31  1  0  0  0  0
 37 27  2  0  0  0  0
 39 33  1  0  0  0  0
 40 37  1  0  0  0  0
 40 39  2  0  0  0  0
M  END
>  <MODEL>
2

>  <REMARK>
 VINA RESULT:      -7.4      2.032      3.909
  Name = 
  14 active torsions:
  status: ('A' for Active; 'I' for Inactive)
    1  A    between atoms: C_2  and  C_39
    2  A    between atoms: C_7  and  C_8
    3  A    between atoms: C_7  and  C_31
    4  A    between atoms: C_8  and  C_40
    5  A    between atoms: C_9  and  N_11
    6  A    between atoms: C_9  and  C_37
    7  A    between atoms: C_13  and  C_37
    8  A    between atoms: C_13  and  C_39
    9  A    between atoms: C_14  and  C_30
   10  A    between atoms: C_14  and  C_38
   11  A    between atoms: N_16  and  C_30
   12  A    between atoms: N_20  and  C_31
   13  A    between atoms: N_20  and  C_34
   14  A    between atoms: C_38  and  C_40
                            x       y       z     vdW  Elec       q    Type
                         _______ _______ _______ _____ _____    ______ ____

>  <TORSDO>
F 14

$$$$
=
 OpenBabel10222421583D

 40 43  0  0  1  0  0  0  0  0999 V2000
  184.8520  179.1610  140.1860 C   0  0  0  0  0  2  0  0  0  0  0  0
  184.1150  177.9250  138.2570 C   0  0  0  0  0  0  0  0  0  0  0  0
  185.0450  178.6680  138.7860 C   0  0  0  0  0  0  0  0  0  0  0  0
  183.1810  177.1620  137.7330 C   0  0  0  0  0  0  0  0  0  0  0  0
  182.0910  177.7810  136.9010 C   0  0  0  0  0  3  0  0  0  0  0  0
  182.4690  177.8170  135.4320 C   0  0  0  0  0  1  0  0  0  0  0  0
  181.7300  179.1740  137.3890 C   0  0  0  0  0  1  0  0  0  0  0  0
  183.2190  175.6870  137.9080 C   0  0  0  0  0  0  0  0  0  0  0  0
  182.3520  175.0550  138.6980 C   0  0  0  0  0  2  0  0  0  0  0  0
  184.2550  174.8710  137.1990 C   0  0  0  0  0  2  0  0  0  0  0  0
  184.1750  173.4020  137.5970 C   0  0  0  0  0  2  0  0  0  0  0  0
  186.3800  172.9280  136.9770 C   0  0  0  0  0  1  0  0  0  0  0  0
  185.4590  172.9390  138.1000 N   0  0  0  0  0  2  0  0  0  0  0  0
  186.2680  178.8640  138.0630 N   0  0  0  0  0  2  0  0  0  0  0  0
  188.5940  178.4150  138.6550 C   0  0  0  0  0  3  0  0  0  0  0  0
  189.6890  177.6070  138.6620 N   0  0  0  0  0  0  0  0  0  0  0  0
  187.3770  176.7290  137.4420 C   0  0  0  0  0  3  0  0  0  0  0  0
  188.5090  175.9150  137.4580 C   0  0  0  0  0  3  0  0  0  0  0  0
  189.6700  176.3780  138.0800 C   0  0  0  0  0  3  0  0  0  0  0  0
  187.4120  177.9970  138.0360 C   0  0  0  0  0  0  0  0  0  0  0  0
  183.8840  178.2620  140.9370 C   0  0  2  0  0  3  0  0  0  0  0  0
  182.6300  178.8740  140.9960 O   0  0  0  0  0  1  0  0  0  0  0  0
  184.4120  178.0090  142.3410 C   0  0  0  0  0  2  0  0  0  0  0  0
  184.4020  179.2900  143.1610 C   0  0  0  0  0  2  0  0  0  0  0  0
  185.3880  179.1780  144.3060 C   0  0  0  0  0  2  0  0  0  0  0  0
  185.7180  177.7210  144.5570 C   0  0  0  0  0  2  0  0  0  0  0  0
  191.8970  176.3300  145.3100 N   0  0  0  0  0  0  0  0  0  0  0  0
  188.6160  177.4900  146.8380 C   0  0  0  0  0  3  0  0  0  0  0  0
  189.5320  176.5650  142.3160 C   0  0  0  0  0  2  0  0  0  0  0  0
  187.0970  177.6020  145.0030 N   0  0  0  0  0  0  0  0  0  0  0  0
  188.0770  176.9910  142.6820 C   0  0  1  0  0  3  0  0  0  0  0  0
  191.4600  176.7770  147.7050 C   0  0  0  0  0  1  0  0  0  0  0  0
  190.2580  176.6540  143.6230 C   0  0  0  0  0  0  0  0  0  0  0  0
  191.5410  176.2490  143.9890 C   0  0  0  0  0  3  0  0  0  0  0  0
  187.4040  177.6910  146.3820 N   0  0  0  0  0  0  0  0  0  0  0  0
  188.1430  177.3770  144.0900 N   0  0  0  0  0  0  0  0  0  0  0  0
  191.0250  176.7600  146.2800 C   0  0  0  0  0  0  0  0  0  0  0  0
  187.7020  178.0900  141.9110 O   0  0  0  0  0  1  0  0  0  0  0  0
  189.4190  177.1150  144.5720 C   0  0  0  0  0  0  0  0  0  0  0  0
  189.7220  177.1460  145.9130 C   0  0  0  0  0  0  0  0  0  0  0  0
  1 21  1  0  0  0  0
  2  3  2  0  0  0  0
  3  1  1  0  0  0  0
  4  8  1  0  0  0  0
  4  2  2  0  0  0  0
  5  7  1  0  0  0  0
  5  4  1  0  0  0  0
  6  5  1  0  0  0  0
  8  9  2  0  0  0  0
 10 11  1  0  0  0  0
 10  8  1  0  0  0  0
 11 13  1  0  0  0  0
 12 13  1  0  0  0  0
 14  3  1  0  0  0  0
 15 16  1  0  0  0  0
 17 18  2  0  0  0  0
 17 20  1  0  0  0  0
 18 19  1  0  0  0  0
 19 16  2  0  0  0  0
 20 14  1  0  0  0  0
 20 15  2  0  0  0  0
 21 22  1  1  0  0  0
 21 23  1  0  0  0  0
 23 24  1  0  0  0  0
 24 25  1  0  0  0  0
 25 26  1  0  0  0  0
 26 30  1  0  0  0  0
 27 37  1  0  0  0  0
 29 31  1  0  0  0  0
 29 33  1  0  0  0  0
 30 35  1  0  0  0  0
 31 38  1  6  0  0  0
 31 36  1  0  0  0  0
 33 34  1  0  0  0  0
 33 39  2  0  0  0  0
 34 27  2  0  0  0  0
 35 28  2  0  0  0  0
 36 39  1  0  0  0  0
 36 30  1  0  0  0  0
 37 32  1  0  0  0  0
 39 40  1  0  0  0  0
 40 37  2  0  0  0  0
 40 28  1  0  0  0  0
M  END
>  <MODEL>
3

>  <REMARK>
 VINA RESULT:      -7.4      1.969      3.086
  Name = 
  14 active torsions:
  status: ('A' for Active; 'I' for Inactive)
    1  A    between atoms: C_2  and  C_39
    2  A    between atoms: C_7  and  C_8
    3  A    between atoms: C_7  and  C_31
    4  A    between atoms: C_8  and  C_40
    5  A    between atoms: C_9  and  N_11
    6  A    between atoms: C_9  and  C_37
    7  A    between atoms: C_13  and  C_37
    8  A    between atoms: C_13  and  C_39
    9  A    between atoms: C_14  and  C_30
   10  A    between atoms: C_14  and  C_38
   11  A    between atoms: N_16  and  C_30
   12  A    between atoms: N_20  and  C_31
   13  A    between atoms: N_20  and  C_34
   14  A    between atoms: C_38  and  C_40
                            x       y       z     vdW  Elec       q    Type
                         _______ _______ _______ _____ _____    ______ ____

>  <TORSDO>
F 14

$$$$
=
 OpenBabel10222421583D

 40 43  0  0  1  0  0  0  0  0999 V2000
  185.1920  178.7390  139.2310 C   0  0  0  0  0  2  0  0  0  0  0  0
  185.1220  177.2460  137.3440 C   0  0  0  0  0  0  0  0  0  0  0  0
  185.7180  178.2520  137.9170 C   0  0  0  0  0  0  0  0  0  0  0  0
  184.5260  176.2200  136.7780 C   0  0  0  0  0  0  0  0  0  0  0  0
  183.4410  176.4540  135.7620 C   0  0  0  0  0  3  0  0  0  0  0  0
  183.9910  177.0970  134.5020 C   0  0  0  0  0  1  0  0  0  0  0  0
  182.3060  177.2900  136.3300 C   0  0  0  0  0  1  0  0  0  0  0  0
  184.9480  174.8300  137.0900 C   0  0  0  0  0  0  0  0  0  0  0  0
  184.1350  173.9750  137.7070 C   0  0  0  0  0  2  0  0  0  0  0  0
  186.3210  174.3590  136.7200 C   0  0  0  0  0  2  0  0  0  0  0  0
  186.6080  172.9760  137.2930 C   0  0  0  0  0  2  0  0  0  0  0  0
  188.8920  173.3770  136.9830 C   0  0  0  0  0  1  0  0  0  0  0  0
  187.8260  172.4280  136.7150 N   0  0  0  0  0  2  0  0  0  0  0  0
  186.9310  178.7570  137.3400 N   0  0  0  0  0  2  0  0  0  0  0  0
  188.9960  177.9570  138.3670 C   0  0  0  0  0  3  0  0  0  0  0  0
  190.1870  177.3030  138.2990 N   0  0  0  0  0  0  0  0  0  0  0  0
  188.6300  177.5030  136.0320 C   0  0  0  0  0  3  0  0  0  0  0  0
  189.8550  176.8380  135.9800 C   0  0  0  0  0  3  0  0  0  0  0  0
  190.6290  176.7480  137.1380 C   0  0  0  0  0  3  0  0  0  0  0  0
  188.1910  178.0790  137.2300 C   0  0  0  0  0  0  0  0  0  0  0  0
  183.7420  178.3220  139.4100 C   0  0  2  0  0  3  0  0  0  0  0  0
  182.9150  179.4400  139.2800 O   0  0  0  0  0  1  0  0  0  0  0  0
  183.5620  177.6910  140.7830 C   0  0  0  0  0  2  0  0  0  0  0  0
  183.0110  178.7030  141.7730 C   0  0  0  0  0  2  0  0  0  0  0  0
  183.9340  178.8090  142.9710 C   0  0  0  0  0  2  0  0  0  0  0  0
  185.1120  177.8730  142.7930 C   0  0  0  0  0  2  0  0  0  0  0  0
  189.7420  177.2430  147.1350 N   0  0  0  0  0  0  0  0  0  0  0  0
  186.1840  178.2910  146.3050 C   0  0  0  0  0  3  0  0  0  0  0  0
  189.5150  176.7730  143.3480 C   0  0  0  0  0  2  0  0  0  0  0  0
  185.9870  177.9640  143.9510 N   0  0  0  0  0  0  0  0  0  0  0  0
  188.1150  177.1020  142.7460 C   0  0  1  0  0  3  0  0  0  0  0  0
  188.0160  178.0100  148.7360 C   0  0  0  0  0  1  0  0  0  0  0  0
  189.3640  177.1350  144.7930 C   0  0  0  0  0  0  0  0  0  0  0  0
  190.2050  176.9230  145.8850 C   0  0  0  0  0  3  0  0  0  0  0  0
  185.4510  178.2960  145.2180 N   0  0  0  0  0  0  0  0  0  0  0  0
  187.3660  177.7070  143.8450 N   0  0  0  0  0  0  0  0  0  0  0  0
  188.4750  177.7290  147.3460 C   0  0  0  0  0  0  0  0  0  0  0  0
  188.2550  178.0240  141.7100 O   0  0  0  0  0  1  0  0  0  0  0  0
  188.1350  177.6510  145.0000 C   0  0  0  0  0  0  0  0  0  0  0  0
  187.6180  177.9200  146.2460 C   0  0  0  0  0  0  0  0  0  0  0  0
  1 21  1  0  0  0  0
  2  3  2  0  0  0  0
  3  1  1  0  0  0  0
  4  8  1  0  0  0  0
  4  2  2  0  0  0  0
  5  7  1  0  0  0  0
  5  4  1  0  0  0  0
  6  5  1  0  0  0  0
  8  9  2  0  0  0  0
 10  8  1  0  0  0  0
 10 11  1  0  0  0  0
 13 12  1  0  0  0  0
 13 11  1  0  0  0  0
 14  3  1  0  0  0  0
 16 15  1  0  0  0  0
 17 20  1  0  0  0  0
 18 17  2  0  0  0  0
 18 19  1  0  0  0  0
 19 16  2  0  0  0  0
 20 14  1  0  0  0  0
 20 15  2  0  0  0  0
 21 22  1  1  0  0  0
 21 23  1  0  0  0  0
 23 24  1  0  0  0  0
 24 25  1  0  0  0  0
 26 25  1  0  0  0  0
 26 30  1  0  0  0  0
 27 37  1  0  0  0  0
 29 33  1  0  0  0  0
 30 35  1  0  0  0  0
 31 38  1  6  0  0  0
 31 29  1  0  0  0  0
 31 36  1  0  0  0  0
 33 39  2  0  0  0  0
 33 34  1  0  0  0  0
 34 27  2  0  0  0  0
 35 28  2  0  0  0  0
 36 30  1  0  0  0  0
 36 39  1  0  0  0  0
 37 32  1  0  0  0  0
 39 40  1  0  0  0  0
 40 28  1  0  0  0  0
 40 37  2  0  0  0  0
M  END
>  <MODEL>
4

>  <REMARK>
 VINA RESULT:      -7.3      2.326      4.089
  Name = 
  14 active torsions:
  status: ('A' for Active; 'I' for Inactive)
    1  A    between atoms: C_2  and  C_39
    2  A    between atoms: C_7  and  C_8
    3  A    between atoms: C_7  and  C_31
    4  A    between atoms: C_8  and  C_40
    5  A    between atoms: C_9  and  N_11
    6  A    between atoms: C_9  and  C_37
    7  A    between atoms: C_13  and  C_37
    8  A    between atoms: C_13  and  C_39
    9  A    between atoms: C_14  and  C_30
   10  A    between atoms: C_14  and  C_38
   11  A    between atoms: N_16  and  C_30
   12  A    between atoms: N_20  and  C_31
   13  A    between atoms: N_20  and  C_34
   14  A    between atoms: C_38  and  C_40
                            x       y       z     vdW  Elec       q    Type
                         _______ _______ _______ _____ _____    ______ ____

>  <TORSDO>
F 14

$$$$
=
 OpenBabel10222421583D

 40 43  0  0  1  0  0  0  0  0999 V2000
  187.6910  177.1460  137.6290 C   0  0  0  0  0  2  0  0  0  0  0  0
  185.3280  176.8920  137.2500 C   0  0  0  0  0  0  0  0  0  0  0  0
  186.2680  177.5290  137.8870 C   0  0  0  0  0  0  0  0  0  0  0  0
  184.3850  176.2550  136.5910 C   0  0  0  0  0  0  0  0  0  0  0  0
  183.7180  175.0580  137.2110 C   0  0  0  0  0  3  0  0  0  0  0  0
  183.1090  175.3990  138.5590 C   0  0  0  0  0  1  0  0  0  0  0  0
  184.6740  173.8850  137.3450 C   0  0  0  0  0  1  0  0  0  0  0  0
  183.9300  176.7380  135.2610 C   0  0  0  0  0  0  0  0  0  0  0  0
  184.7910  177.1810  134.3470 C   0  0  0  0  0  2  0  0  0  0  0  0
  182.4710  176.7470  134.9220 C   0  0  0  0  0  2  0  0  0  0  0  0
  181.8790  178.1460  135.0440 C   0  0  0  0  0  2  0  0  0  0  0  0
  180.4570  176.8650  136.3890 C   0  0  0  0  0  1  0  0  0  0  0  0
  180.5390  178.0860  135.6060 N   0  0  0  0  0  2  0  0  0  0  0  0
  185.9100  178.6580  138.6970 N   0  0  0  0  0  2  0  0  0  0  0  0
  183.5630  179.0870  139.2130 C   0  0  0  0  0  3  0  0  0  0  0  0
  182.5270  179.1540  140.0930 N   0  0  0  0  0  0  0  0  0  0  0  0
  185.0300  178.4500  141.0110 C   0  0  0  0  0  3  0  0  0  0  0  0
  183.9570  178.5260  141.8990 C   0  0  0  0  0  3  0  0  0  0  0  0
  182.6980  178.8850  141.4150 C   0  0  0  0  0  3  0  0  0  0  0  0
  184.8430  178.7400  139.6530 C   0  0  0  0  0  0  0  0  0  0  0  0
  188.6270  177.9490  138.5170 C   0  0  2  0  0  3  0  0  0  0  0  0
  188.7510  179.2450  138.0120 O   0  0  0  0  0  1  0  0  0  0  0  0
  189.9880  177.2700  138.5650 C   0  0  0  0  0  2  0  0  0  0  0  0
  190.5090  177.2050  139.9910 C   0  0  0  0  0  2  0  0  0  0  0  0
  189.3550  177.3160  140.9680 C   0  0  0  0  0  2  0  0  0  0  0  0
  189.6630  176.5160  142.2170 C   0  0  0  0  0  2  0  0  0  0  0  0
  187.2960  178.0550  147.9360 N   0  0  0  0  0  0  0  0  0  0  0  0
  186.7690  177.6960  144.1890 C   0  0  0  0  0  3  0  0  0  0  0  0
  190.7510  177.0850  146.6210 C   0  0  0  0  0  2  0  0  0  0  0  0
  188.8990  177.0420  143.3360 N   0  0  0  0  0  0  0  0  0  0  0  0
  190.8030  176.8340  145.0830 C   0  0  1  0  0  3  0  0  0  0  0  0
  185.1690  178.3620  146.7070 C   0  0  0  0  0  1  0  0  0  0  0  0
  189.3440  177.5430  146.8500 C   0  0  0  0  0  0  0  0  0  0  0  0
  188.6330  177.7680  148.0280 C   0  0  0  0  0  3  0  0  0  0  0  0
  187.5190  177.3170  143.1820 N   0  0  0  0  0  0  0  0  0  0  0  0
  189.4990  177.2680  144.5880 N   0  0  0  0  0  0  0  0  0  0  0  0
  186.6340  178.0930  146.7330 C   0  0  0  0  0  0  0  0  0  0  0  0
  191.8060  177.6160  144.5130 O   0  0  0  0  0  1  0  0  0  0  0  0
  188.7000  177.6220  145.6680 C   0  0  0  0  0  0  0  0  0  0  0  0
  187.3480  177.8420  145.5460 C   0  0  0  0  0  0  0  0  0  0  0  0
  1  3  1  0  0  0  0
  1 21  1  0  0  0  0
  2  3  2  0  0  0  0
  3 14  1  0  0  0  0
  4  5  1  0  0  0  0
  4  2  2  0  0  0  0
  5  7  1  0  0  0  0
  5  6  1  0  0  0  0
  8  4  1  0  0  0  0
  9  8  2  0  0  0  0
 10 11  1  0  0  0  0
 10  8  1  0  0  0  0
 11 13  1  0  0  0  0
 13 12  1  0  0  0  0
 14 20  1  0  0  0  0
 15 20  2  0  0  0  0
 15 16  1  0  0  0  0
 16 19  2  0  0  0  0
 17 18  2  0  0  0  0
 19 18  1  0  0  0  0
 20 17  1  0  0  0  0
 21 22  1  6  0  0  0
 21 23  1  0  0  0  0
 23 24  1  0  0  0  0
 24 25  1  0  0  0  0
 25 26  1  0  0  0  0
 26 30  1  0  0  0  0
 27 34  1  0  0  0  0
 28 40  1  0  0  0  0
 29 33  1  0  0  0  0
 30 36  1  0  0  0  0
 31 38  1  6  0  0  0
 31 29  1  0  0  0  0
 32 37  1  0  0  0  0
 33 34  2  0  0  0  0
 35 30  1  0  0  0  0
 35 28  2  0  0  0  0
 36 31  1  0  0  0  0
 36 39  1  0  0  0  0
 37 27  2  0  0  0  0
 39 33  1  0  0  0  0
 40 39  2  0  0  0  0
 40 37  1  0  0  0  0
M  END
>  <MODEL>
5

>  <REMARK>
 VINA RESULT:      -7.3      2.327      5.032
  Name = 
  14 active torsions:
  status: ('A' for Active; 'I' for Inactive)
    1  A    between atoms: C_2  and  C_39
    2  A    between atoms: C_7  and  C_8
    3  A    between atoms: C_7  and  C_31
    4  A    between atoms: C_8  and  C_40
    5  A    between atoms: C_9  and  N_11
    6  A    between atoms: C_9  and  C_37
    7  A    between atoms: C_13  and  C_37
    8  A    between atoms: C_13  and  C_39
    9  A    between atoms: C_14  and  C_30
   10  A    between atoms: C_14  and  C_38
   11  A    between atoms: N_16  and  C_30
   12  A    between atoms: N_20  and  C_31
   13  A    between atoms: N_20  and  C_34
   14  A    between atoms: C_38  and  C_40
                            x       y       z     vdW  Elec       q    Type
                         _______ _______ _______ _____ _____    ______ ____

>  <TORSDO>
F 14

$$$$
=
 OpenBabel10222421583D

 40 43  0  0  1  0  0  0  0  0999 V2000
  183.8420  177.8280  141.4450 C   0  0  0  0  0  2  0  0  0  0  0  0
  183.4580  177.4700  139.0970 C   0  0  0  0  0  0  0  0  0  0  0  0
  183.0830  178.0860  140.1810 C   0  0  0  0  0  0  0  0  0  0  0  0
  183.8500  176.8570  138.0020 C   0  0  0  0  0  0  0  0  0  0  0  0
  183.2120  175.5540  137.6050 C   0  0  0  0  0  3  0  0  0  0  0  0
  181.9450  175.2930  138.3990 C   0  0  0  0  0  1  0  0  0  0  0  0
  184.1750  174.3870  137.7480 C   0  0  0  0  0  1  0  0  0  0  0  0
  184.8810  177.4650  137.1200 C   0  0  0  0  0  0  0  0  0  0  0  0
  184.8720  177.2730  135.8020 C   0  0  0  0  0  2  0  0  0  0  0  0
  185.9710  178.3080  137.7060 C   0  0  0  0  0  2  0  0  0  0  0  0
  187.3060  178.0490  137.0170 C   0  0  0  0  0  2  0  0  0  0  0  0
  188.1670  177.9740  139.1910 C   0  0  0  0  0  1  0  0  0  0  0  0
  188.2010  177.3140  137.8970 N   0  0  0  0  0  2  0  0  0  0  0  0
  182.0580  179.0850  140.0900 N   0  0  0  0  0  2  0  0  0  0  0  0
  181.7860  181.1050  138.7470 C   0  0  0  0  0  3  0  0  0  0  0  0
  181.3580  181.7420  137.6240 N   0  0  0  0  0  0  0  0  0  0  0  0
  180.9330  179.0300  137.8760 C   0  0  0  0  0  3  0  0  0  0  0  0
  180.5000  179.7000  136.7320 C   0  0  0  0  0  3  0  0  0  0  0  0
  180.7240  181.0740  136.6240 C   0  0  0  0  0  3  0  0  0  0  0  0
  181.5760  179.7310  138.9030 C   0  0  0  0  0  0  0  0  0  0  0  0
  183.8560  179.0720  142.3190 C   0  0  2  0  0  3  0  0  0  0  0  0
  185.1550  179.5780  142.3900 O   0  0  0  0  0  1  0  0  0  0  0  0
  183.3520  178.7190  143.7110 C   0  0  0  0  0  2  0  0  0  0  0  0
  184.1970  179.3960  144.7780 C   0  0  0  0  0  2  0  0  0  0  0  0
  184.6590  178.3750  145.7970 C   0  0  0  0  0  2  0  0  0  0  0  0
  185.9910  178.8010  146.3810 C   0  0  0  0  0  2  0  0  0  0  0  0
  191.5520  176.2850  144.5290 N   0  0  0  0  0  0  0  0  0  0  0  0
  187.9810  177.2660  143.6710 C   0  0  0  0  0  3  0  0  0  0  0  0
  190.1220  177.5090  147.8550 C   0  0  0  0  0  2  0  0  0  0  0  0
  187.0680  178.0830  145.7180 N   0  0  0  0  0  0  0  0  0  0  0  0
  188.6500  178.0170  147.7700 C   0  0  1  0  0  3  0  0  0  0  0  0
  190.4810  176.1630  142.3000 C   0  0  0  0  0  1  0  0  0  0  0  0
  190.3930  177.0000  146.4730 C   0  0  0  0  0  0  0  0  0  0  0  0
  191.5740  176.5700  145.8690 C   0  0  0  0  0  3  0  0  0  0  0  0
  186.9910  177.8200  144.3290 N   0  0  0  0  0  0  0  0  0  0  0  0
  188.2050  177.6560  146.4260 N   0  0  0  0  0  0  0  0  0  0  0  0
  190.4230  176.4430  143.7630 C   0  0  0  0  0  0  0  0  0  0  0  0
  187.8700  177.3560  148.7170 O   0  0  0  0  0  1  0  0  0  0  0  0
  189.2760  177.1140  145.7260 C   0  0  0  0  0  0  0  0  0  0  0  0
  189.2370  176.9000  144.3690 C   0  0  0  0  0  0  0  0  0  0  0  0
  1 21  1  0  0  0  0
  2  3  2  0  0  0  0
  3  1  1  0  0  0  0
  4  2  2  0  0  0  0
  5  7  1  0  0  0  0
  5  4  1  0  0  0  0
  5  6  1  0  0  0  0
  8 10  1  0  0  0  0
  8  4  1  0  0  0  0
  9  8  2  0  0  0  0
 11 10  1  0  0  0  0
 11 13  1  0  0  0  0
 13 12  1  0  0  0  0
 14  3  1  0  0  0  0
 15 20  1  0  0  0  0
 16 15  2  0  0  0  0
 17 20  2  0  0  0  0
 18 17  1  0  0  0  0
 19 18  2  0  0  0  0
 19 16  1  0  0  0  0
 20 14  1  0  0  0  0
 21 22  1  1  0  0  0
 21 23  1  0  0  0  0
 23 24  1  0  0  0  0
 24 25  1  0  0  0  0
 25 26  1  0  0  0  0
 27 34  1  0  0  0  0
 28 35  2  0  0  0  0
 28 40  1  0  0  0  0
 30 26  1  0  0  0  0
 30 36  1  0  0  0  0
 31 29  1  0  0  0  0
 31 38  1  1  0  0  0
 32 37  1  0  0  0  0
 33 29  1  0  0  0  0
 34 33  2  0  0  0  0
 35 30  1  0  0  0  0
 36 31  1  0  0  0  0
 37 40  1  0  0  0  0
 37 27  2  0  0  0  0
 39 36  1  0  0  0  0
 39 33  1  0  0  0  0
 40 39  2  0  0  0  0
M  END
>  <MODEL>
6

>  <REMARK>
 VINA RESULT:      -7.1      1.450      3.804
  Name = 
  14 active torsions:
  status: ('A' for Active; 'I' for Inactive)
    1  A    between atoms: C_2  and  C_39
    2  A    between atoms: C_7  and  C_8
    3  A    between atoms: C_7  and  C_31
    4  A    between atoms: C_8  and  C_40
    5  A    between atoms: C_9  and  N_11
    6  A    between atoms: C_9  and  C_37
    7  A    between atoms: C_13  and  C_37
    8  A    between atoms: C_13  and  C_39
    9  A    between atoms: C_14  and  C_30
   10  A    between atoms: C_14  and  C_38
   11  A    between atoms: N_16  and  C_30
   12  A    between atoms: N_20  and  C_31
   13  A    between atoms: N_20  and  C_34
   14  A    between atoms: C_38  and  C_40
                            x       y       z     vdW  Elec       q    Type
                         _______ _______ _______ _____ _____    ______ ____

>  <TORSDO>
F 14

$$$$
=
 OpenBabel10222421583D

 40 43  0  0  1  0  0  0  0  0999 V2000
  191.4950  175.6230  138.3190 C   0  0  0  0  0  2  0  0  0  0  0  0
  189.7360  175.9570  136.7110 C   0  0  0  0  0  0  0  0  0  0  0  0
  191.0150  175.8190  136.9160 C   0  0  0  0  0  0  0  0  0  0  0  0
  188.4430  176.0810  136.5090 C   0  0  0  0  0  0  0  0  0  0  0  0
  187.8240  177.4510  136.4480 C   0  0  0  0  0  3  0  0  0  0  0  0
  188.8830  178.5350  136.3780 C   0  0  0  0  0  1  0  0  0  0  0  0
  186.8890  177.7000  137.6200 C   0  0  0  0  0  1  0  0  0  0  0  0
  187.5920  174.8830  136.2850 C   0  0  0  0  0  0  0  0  0  0  0  0
  187.6660  174.1760  135.1590 C   0  0  0  0  0  2  0  0  0  0  0  0
  186.6130  174.4490  137.3310 C   0  0  0  0  0  2  0  0  0  0  0  0
  186.3470  172.9500  137.2570 C   0  0  0  0  0  2  0  0  0  0  0  0
  184.4490  172.3130  136.0470 C   0  0  0  0  0  1  0  0  0  0  0  0
  184.9230  172.6770  137.3710 N   0  0  0  0  0  2  0  0  0  0  0  0
  191.8890  175.7180  135.7830 N   0  0  0  0  0  2  0  0  0  0  0  0
  194.1830  176.5490  135.7130 C   0  0  0  0  0  3  0  0  0  0  0  0
  195.5280  176.3430  135.7400 N   0  0  0  0  0  0  0  0  0  0  0  0
  193.8320  174.1760  135.9150 C   0  0  0  0  0  3  0  0  0  0  0  0
  195.2140  173.9840  135.9400 C   0  0  0  0  0  3  0  0  0  0  0  0
  196.0550  175.0940  135.8490 C   0  0  0  0  0  3  0  0  0  0  0  0
  193.3020  175.4670  135.7930 C   0  0  0  0  0  0  0  0  0  0  0  0
  192.0340  176.9280  138.8830 C   0  0  2  0  0  3  0  0  0  0  0  0
  193.3900  176.7820  139.1830 O   0  0  0  0  0  1  0  0  0  0  0  0
  191.2540  177.2990  140.1360 C   0  0  0  0  0  2  0  0  0  0  0  0
  189.8740  177.8220  139.7770 C   0  0  0  0  0  2  0  0  0  0  0  0
  188.8470  177.2880  140.7560 C   0  0  0  0  0  2  0  0  0  0  0  0
  189.5440  176.7840  142.0030 C   0  0  0  0  0  2  0  0  0  0  0  0
  187.3650  177.9110  147.8910 N   0  0  0  0  0  0  0  0  0  0  0  0
  186.7470  177.9070  144.1410 C   0  0  0  0  0  3  0  0  0  0  0  0
  190.7470  176.9150  146.4130 C   0  0  0  0  0  2  0  0  0  0  0  0
  188.8270  177.2410  143.1830 N   0  0  0  0  0  0  0  0  0  0  0  0
  190.7550  176.7990  144.8580 C   0  0  1  0  0  3  0  0  0  0  0  0
  185.2290  178.4150  146.7460 C   0  0  0  0  0  1  0  0  0  0  0  0
  189.3660  177.4110  146.7150 C   0  0  0  0  0  0  0  0  0  0  0  0
  188.6900  177.5600  147.9260 C   0  0  0  0  0  3  0  0  0  0  0  0
  187.4580  177.5870  143.0870 N   0  0  0  0  0  0  0  0  0  0  0  0
  189.4620  177.3300  144.4350 N   0  0  0  0  0  0  0  0  0  0  0  0
  186.6820  178.0830  146.7120 C   0  0  0  0  0  0  0  0  0  0  0  0
  191.7800  177.5860  144.3340 O   0  0  0  0  0  1  0  0  0  0  0  0
  188.7020  177.6210  145.5600 C   0  0  0  0  0  0  0  0  0  0  0  0
  187.3590  177.9080  145.4910 C   0  0  0  0  0  0  0  0  0  0  0  0
  1 21  1  0  0  0  0
  2  3  2  0  0  0  0
  3  1  1  0  0  0  0
  4  2  2  0  0  0  0
  5  4  1  0  0  0  0
  5  7  1  0  0  0  0
  6  5  1  0  0  0  0
  8  4  1  0  0  0  0
  8 10  1  0  0  0  0
  9  8  2  0  0  0  0
 11 10  1  0  0  0  0
 11 13  1  0  0  0  0
 12 13  1  0  0  0  0
 14 20  1  0  0  0  0
 14  3  1  0  0  0  0
 15 16  2  0  0  0  0
 15 20  1  0  0  0  0
 16 19  1  0  0  0  0
 17 18  1  0  0  0  0
 19 18  2  0  0  0  0
 20 17  2  0  0  0  0
 21 22  1  1  0  0  0
 21 23  1  0  0  0  0
 24 23  1  0  0  0  0
 24 25  1  0  0  0  0
 25 26  1  0  0  0  0
 26 30  1  0  0  0  0
 27 34  1  0  0  0  0
 28 40  1  0  0  0  0
 29 33  1  0  0  0  0
 30 36  1  0  0  0  0
 31 38  1  6  0  0  0
 31 29  1  0  0  0  0
 33 34  2  0  0  0  0
 35 30  1  0  0  0  0
 35 28  2  0  0  0  0
 36 31  1  0  0  0  0
 36 39  1  0  0  0  0
 37 32  1  0  0  0  0
 37 27  2  0  0  0  0
 39 33  1  0  0  0  0
 40 39  2  0  0  0  0
 40 37  1  0  0  0  0
M  END
>  <MODEL>
7

>  <REMARK>
 VINA RESULT:      -7.0      4.003      6.606
  Name = 
  14 active torsions:
  status: ('A' for Active; 'I' for Inactive)
    1  A    between atoms: C_2  and  C_39
    2  A    between atoms: C_7  and  C_8
    3  A    between atoms: C_7  and  C_31
    4  A    between atoms: C_8  and  C_40
    5  A    between atoms: C_9  and  N_11
    6  A    between atoms: C_9  and  C_37
    7  A    between atoms: C_13  and  C_37
    8  A    between atoms: C_13  and  C_39
    9  A    between atoms: C_14  and  C_30
   10  A    between atoms: C_14  and  C_38
   11  A    between atoms: N_16  and  C_30
   12  A    between atoms: N_20  and  C_31
   13  A    between atoms: N_20  and  C_34
   14  A    between atoms: C_38  and  C_40
                            x       y       z     vdW  Elec       q    Type
                         _______ _______ _______ _____ _____    ______ ____

>  <TORSDO>
F 14

$$$$
=
 OpenBabel10222421583D

 40 43  0  0  1  0  0  0  0  0999 V2000
  184.3440  178.8460  138.9480 C   0  0  0  0  0  2  0  0  0  0  0  0
  185.1830  177.2890  137.3160 C   0  0  0  0  0  0  0  0  0  0  0  0
  185.4540  178.2720  138.1250 C   0  0  0  0  0  0  0  0  0  0  0  0
  184.9060  176.2850  136.5130 C   0  0  0  0  0  0  0  0  0  0  0  0
  184.5630  176.5540  135.0730 C   0  0  0  0  0  3  0  0  0  0  0  0
  185.5960  177.4510  134.4160 C   0  0  0  0  0  1  0  0  0  0  0  0
  183.1730  177.1500  134.9250 C   0  0  0  0  0  1  0  0  0  0  0  0
  184.9810  174.8820  136.9970 C   0  0  0  0  0  0  0  0  0  0  0  0
  186.0900  174.1570  136.8640 C   0  0  0  0  0  2  0  0  0  0  0  0
  183.7910  174.2440  137.6440 C   0  0  0  0  0  2  0  0  0  0  0  0
  182.8080  173.7160  136.6050 C   0  0  0  0  0  2  0  0  0  0  0  0
  181.1770  174.6480  137.9990 C   0  0  0  0  0  1  0  0  0  0  0  0
  181.5070  173.4740  137.2090 N   0  0  0  0  0  2  0  0  0  0  0  0
  186.8230  178.6680  138.2980 N   0  0  0  0  0  2  0  0  0  0  0  0
  188.4370  177.9350  136.6200 C   0  0  0  0  0  3  0  0  0  0  0  0
  189.5570  177.2520  136.2600 N   0  0  0  0  0  0  0  0  0  0  0  0
  188.7380  177.2030  138.8920 C   0  0  0  0  0  3  0  0  0  0  0  0
  189.8830  176.5060  138.5050 C   0  0  0  0  0  3  0  0  0  0  0  0
  190.2800  176.5430  137.1670 C   0  0  0  0  0  3  0  0  0  0  0  0
  187.9960  177.9210  137.9460 C   0  0  0  0  0  0  0  0  0  0  0  0
  183.4050  177.7450  139.4150 C   0  0  2  0  0  3  0  0  0  0  0  0
  182.1470  177.9280  138.8380 O   0  0  0  0  0  1  0  0  0  0  0  0
  183.2980  177.7800  140.9330 C   0  0  0  0  0  2  0  0  0  0  0  0
  184.1290  178.9170  141.5060 C   0  0  0  0  0  2  0  0  0  0  0  0
  184.6640  178.5290  142.8690 C   0  0  0  0  0  2  0  0  0  0  0  0
  185.9810  177.7950  142.7120 C   0  0  0  0  0  2  0  0  0  0  0  0
  190.1560  177.0900  147.4820 N   0  0  0  0  0  0  0  0  0  0  0  0
  186.6380  177.9700  146.3450 C   0  0  0  0  0  3  0  0  0  0  0  0
  190.3700  176.9430  143.6690 C   0  0  0  0  0  2  0  0  0  0  0  0
  186.7190  177.8400  143.9640 N   0  0  0  0  0  0  0  0  0  0  0  0
  189.0210  177.2310  142.9410 C   0  0  1  0  0  3  0  0  0  0  0  0
  188.2170  177.5960  148.9350 C   0  0  0  0  0  1  0  0  0  0  0  0
  190.0390  177.1650  145.1120 C   0  0  0  0  0  0  0  0  0  0  0  0
  190.7720  176.9130  146.2710 C   0  0  0  0  0  3  0  0  0  0  0  0
  186.0270  178.0230  145.1860 N   0  0  0  0  0  0  0  0  0  0  0  0
  188.1170  177.6850  143.9940 N   0  0  0  0  0  0  0  0  0  0  0  0
  188.8400  177.4710  147.5880 C   0  0  0  0  0  0  0  0  0  0  0  0
  189.2010  178.2490  142.0050 O   0  0  0  0  0  1  0  0  0  0  0  0
  188.7600  177.5790  145.2200 C   0  0  0  0  0  0  0  0  0  0  0  0
  188.0940  177.7010  146.4170 C   0  0  0  0  0  0  0  0  0  0  0  0
  1 21  1  0  0  0  0
  2  3  2  0  0  0  0
  3 14  1  0  0  0  0
  3  1  1  0  0  0  0
  4  8  1  0  0  0  0
  4  2  2  0  0  0  0
  5  4  1  0  0  0  0
  6  5  1  0  0  0  0
  7  5  1  0  0  0  0
  8 10  1  0  0  0  0
  9  8  2  0  0  0  0
 11 13  1  0  0  0  0
 11 10  1  0  0  0  0
 13 12  1  0  0  0  0
 15 20  1  0  0  0  0
 16 15  2  0  0  0  0
 16 19  1  0  0  0  0
 18 17  1  0  0  0  0
 19 18  2  0  0  0  0
 20 14  1  0  0  0  0
 20 17  2  0  0  0  0
 21 22  1  6  0  0  0
 21 23  1  0  0  0  0
 23 24  1  0  0  0  0
 24 25  1  0  0  0  0
 26 25  1  0  0  0  0
 26 30  1  0  0  0  0
 27 37  1  0  0  0  0
 28 40  1  0  0  0  0
 29 33  1  0  0  0  0
 30 36  1  0  0  0  0
 30 35  1  0  0  0  0
 31 38  1  6  0  0  0
 31 29  1  0  0  0  0
 31 36  1  0  0  0  0
 33 39  2  0  0  0  0
 33 34  1  0  0  0  0
 34 27  2  0  0  0  0
 35 28  2  0  0  0  0
 36 39  1  0  0  0  0
 37 32  1  0  0  0  0
 39 40  1  0  0  0  0
 40 37  2  0  0  0  0
M  END
>  <MODEL>
8

>  <REMARK>
 VINA RESULT:      -7.0      2.156      3.997
  Name = 
  14 active torsions:
  status: ('A' for Active; 'I' for Inactive)
    1  A    between atoms: C_2  and  C_39
    2  A    between atoms: C_7  and  C_8
    3  A    between atoms: C_7  and  C_31
    4  A    between atoms: C_8  and  C_40
    5  A    between atoms: C_9  and  N_11
    6  A    between atoms: C_9  and  C_37
    7  A    between atoms: C_13  and  C_37
    8  A    between atoms: C_13  and  C_39
    9  A    between atoms: C_14  and  C_30
   10  A    between atoms: C_14  and  C_38
   11  A    between atoms: N_16  and  C_30
   12  A    between atoms: N_20  and  C_31
   13  A    between atoms: N_20  and  C_34
   14  A    between atoms: C_38  and  C_40
                            x       y       z     vdW  Elec       q    Type
                         _______ _______ _______ _____ _____    ______ ____

>  <TORSDO>
F 14

$$$$
=
 OpenBabel10222421583D

 40 43  0  0  1  0  0  0  0  0999 V2000
  191.7080  175.7620  138.3020 C   0  0  0  0  0  2  0  0  0  0  0  0
  189.9170  176.2300  136.7650 C   0  0  0  0  0  0  0  0  0  0  0  0
  191.2020  176.1060  136.9370 C   0  0  0  0  0  0  0  0  0  0  0  0
  188.6180  176.3390  136.5940 C   0  0  0  0  0  0  0  0  0  0  0  0
  187.9600  177.6880  136.7020 C   0  0  0  0  0  3  0  0  0  0  0  0
  187.1810  178.0260  135.4440 C   0  0  0  0  0  1  0  0  0  0  0  0
  188.9660  178.7840  137.0110 C   0  0  0  0  0  1  0  0  0  0  0  0
  187.7970  175.1520  136.2410 C   0  0  0  0  0  0  0  0  0  0  0  0
  188.0520  174.4240  135.1550 C   0  0  0  0  0  2  0  0  0  0  0  0
  186.6430  174.7490  137.1070 C   0  0  0  0  0  2  0  0  0  0  0  0
  186.3630  173.2550  137.0020 C   0  0  0  0  0  2  0  0  0  0  0  0
  184.1450  173.8390  137.4640 C   0  0  0  0  0  1  0  0  0  0  0  0
  184.9830  173.0200  136.6050 N   0  0  0  0  0  2  0  0  0  0  0  0
  192.0610  176.1640  135.7900 N   0  0  0  0  0  2  0  0  0  0  0  0
  193.2880  174.0850  135.4270 C   0  0  0  0  0  3  0  0  0  0  0  0
  194.4480  173.4040  135.2240 N   0  0  0  0  0  0  0  0  0  0  0  0
  194.5320  176.1420  135.5370 C   0  0  0  0  0  3  0  0  0  0  0  0
  195.7120  175.4270  135.3290 C   0  0  0  0  0  3  0  0  0  0  0  0
  195.6480  174.0410  135.1740 C   0  0  0  0  0  3  0  0  0  0  0  0
  193.3030  175.4720  135.5970 C   0  0  0  0  0  0  0  0  0  0  0  0
  192.3290  176.9830  138.9620 C   0  0  2  0  0  3  0  0  0  0  0  0
  193.7010  176.7810  139.1210 O   0  0  0  0  0  1  0  0  0  0  0  0
  191.6720  177.2170  140.3140 C   0  0  0  0  0  2  0  0  0  0  0  0
  190.1720  176.9820  140.2340 C   0  0  0  0  0  2  0  0  0  0  0  0
  189.4660  177.7750  141.3150 C   0  0  0  0  0  2  0  0  0  0  0  0
  188.9130  176.8310  142.3630 C   0  0  0  0  0  2  0  0  0  0  0  0
  184.4320  178.7890  146.4580 N   0  0  0  0  0  0  0  0  0  0  0  0
  185.5280  178.2260  142.8630 C   0  0  0  0  0  3  0  0  0  0  0  0
  188.0580  177.6240  146.7850 C   0  0  0  0  0  2  0  0  0  0  0  0
  187.7770  177.4490  143.0280 N   0  0  0  0  0  0  0  0  0  0  0  0
  188.7430  177.2800  145.4270 C   0  0  1  0  0  3  0  0  0  0  0  0
  183.0500  179.0950  144.4280 C   0  0  0  0  0  1  0  0  0  0  0  0
  186.7150  178.1430  146.3720 C   0  0  0  0  0  0  0  0  0  0  0  0
  185.5840  178.4620  147.1240 C   0  0  0  0  0  3  0  0  0  0  0  0
  186.6110  177.7620  142.2880 N   0  0  0  0  0  0  0  0  0  0  0  0
  187.8000  177.7290  144.4060 N   0  0  0  0  0  0  0  0  0  0  0  0
  184.3480  178.7780  145.0880 C   0  0  0  0  0  0  0  0  0  0  0  0
  189.9360  177.9920  145.3100 O   0  0  0  0  0  1  0  0  0  0  0  0
  186.6400  178.1730  145.0260 C   0  0  0  0  0  0  0  0  0  0  0  0
  185.4820  178.4320  144.3300 C   0  0  0  0  0  0  0  0  0  0  0  0
  1 21  1  0  0  0  0
  2  3  2  0  0  0  0
  3  1  1  0  0  0  0
  4  5  1  0  0  0  0
  4  2  2  0  0  0  0
  5  7  1  0  0  0  0
  6  5  1  0  0  0  0
  8  4  1  0  0  0  0
  8 10  1  0  0  0  0
  9  8  2  0  0  0  0
 11 10  1  0  0  0  0
 13 11  1  0  0  0  0
 13 12  1  0  0  0  0
 14  3  1  0  0  0  0
 15 20  1  0  0  0  0
 16 15  2  0  0  0  0
 17 20  2  0  0  0  0
 18 17  1  0  0  0  0
 19 16  1  0  0  0  0
 19 18  2  0  0  0  0
 20 14  1  0  0  0  0
 21 22  1  1  0  0  0
 21 23  1  0  0  0  0
 24 23  1  0  0  0  0
 24 25  1  0  0  0  0
 25 26  1  0  0  0  0
 26 30  1  0  0  0  0
 27 34  1  0  0  0  0
 28 40  1  0  0  0  0
 30 36  1  0  0  0  0
 31 38  1  6  0  0  0
 31 29  1  0  0  0  0
 32 37  1  0  0  0  0
 33 29  1  0  0  0  0
 33 34  2  0  0  0  0
 35 28  2  0  0  0  0
 35 30  1  0  0  0  0
 36 39  1  0  0  0  0
 36 31  1  0  0  0  0
 37 27  2  0  0  0  0
 39 33  1  0  0  0  0
 40 39  2  0  0  0  0
 40 37  1  0  0  0  0
M  END
>  <MODEL>
9

>  <REMARK>
 VINA RESULT:      -7.0      3.982      6.856
  Name = 
  14 active torsions:
  status: ('A' for Active; 'I' for Inactive)
    1  A    between atoms: C_2  and  C_39
    2  A    between atoms: C_7  and  C_8
    3  A    between atoms: C_7  and  C_31
    4  A    between atoms: C_8  and  C_40
    5  A    between atoms: C_9  and  N_11
    6  A    between atoms: C_9  and  C_37
    7  A    between atoms: C_13  and  C_37
    8  A    between atoms: C_13  and  C_39
    9  A    between atoms: C_14  and  C_30
   10  A    between atoms: C_14  and  C_38
   11  A    between atoms: N_16  and  C_30
   12  A    between atoms: N_20  and  C_31
   13  A    between atoms: N_20  and  C_34
   14  A    between atoms: C_38  and  C_40
                            x       y       z     vdW  Elec       q    Type
                         _______ _______ _______ _____ _____    ______ ____

>  <TORSDO>
F 14

$$$$
