=
 OpenBabel10232411583D

 41 45  0  0  1  0  0  0  0  0999 V2000
  187.9540  178.0280  143.4560 C   0  0  2  0  0  3  0  0  0  0  0  0
  186.7140  177.4180  144.0930 C   0  0  0  0  0  2  0  0  0  0  0  0
  185.7390  178.5060  144.5300 C   0  0  1  0  0  3  0  0  0  0  0  0
  183.4220  178.3870  141.4860 C   0  0  0  0  0  3  0  0  0  0  0  0
  183.2800  178.9160  144.2280 C   0  0  0  0  0  3  0  0  0  0  0  0
  182.1990  178.7230  142.0690 C   0  0  0  0  0  3  0  0  0  0  0  0
  184.5770  178.3140  142.2730 C   0  0  0  0  0  3  0  0  0  0  0  0
  182.1260  178.9860  143.4400 C   0  0  0  0  0  3  0  0  0  0  0  0
  184.5120  178.5810  143.6500 C   0  0  0  0  0  0  0  0  0  0  0  0
  185.3600  179.6220  146.5170 O   0  0  0  0  0  1  0  0  0  0  0  0
  185.4450  178.3850  145.9670 N   0  0  0  0  0  0  0  0  0  0  0  0
  186.5350  177.6820  146.6320 C   0  0  0  0  0  2  0  0  0  0  0  0
  187.0080  178.4660  147.8480 C   0  0  0  0  0  2  0  0  0  0  0  0
  188.8150  176.7890  147.6690 C   0  0  0  0  0  2  0  0  0  0  0  0
  189.4210  178.0860  148.1590 C   0  0  0  0  0  2  0  0  0  0  0  0
  188.0430  177.6730  148.6240 C   0  0  0  0  0  3  0  0  0  0  0  0
  188.1610  177.4780  142.0490 C   0  0  0  0  0  2  0  0  0  0  0  0
  187.7610  178.4840  140.9810 C   0  0  0  0  0  2  0  0  0  0  0  0
  187.0100  176.6310  136.1950 N   0  0  0  0  0  0  0  0  0  0  0  0
  186.3330  177.7790  138.2720 C   0  0  0  0  0  2  0  0  0  0  0  0
  187.7950  177.7920  138.5790 C   0  0  0  0  0  0  0  0  0  0  0  0
  188.4020  178.1450  139.7200 N   0  0  0  0  0  0  0  0  0  0  0  0
  189.9670  177.6490  138.2890 C   0  0  0  0  0  3  0  0  0  0  0  0
  184.7440  176.4010  136.7930 N   0  0  0  0  0  2  0  0  0  0  0  0
  188.7440  177.4760  137.6650 C   0  0  0  0  0  0  0  0  0  0  0  0
  189.7160  178.0500  139.5590 N   0  0  0  0  0  0  0  0  0  0  0  0
  186.0570  176.9250  137.0470 C   0  0  0  0  0  0  0  0  0  0  0  0
  188.4070  177.0940  136.2680 C   0  0  0  0  0  2  0  0  0  0  0  0
  182.7110  177.7940  137.3070 C   0  0  0  0  0  2  0  0  0  0  0  0
  180.8250  179.1770  138.2140 C   0  0  0  0  0  1  0  0  0  0  0  0
  183.1370  175.6300  138.4370 C   0  0  0  0  0  3  0  0  0  0  0  0
  181.6070  177.9570  138.2570 N   0  0  0  0  0  0  0  0  0  0  0  0
  181.9100  175.7890  139.2300 C   0  0  0  0  0  3  0  0  0  0  0  0
  181.1930  176.9050  139.1370 C   0  0  0  0  0  3  0  0  0  0  0  0
  183.5420  176.5610  137.5630 C   0  0  0  0  0  0  0  0  0  0  0  0
  189.0870  177.7890  144.2770 O   0  0  0  0  0  0  0  0  0  0  0  0
  190.2760  178.4860  144.0770 C   0  0  0  0  0  3  0  0  0  0  0  0
  191.4410  177.9900  144.4810 C   0  0  0  0  0  3  0  0  0  0  0  0
  191.5320  176.6720  145.1700 C   0  0  0  0  0  2  0  0  0  0  0  0
  192.0660  176.8510  146.4490 O   0  0  0  0  0  0  0  0  0  0  0  0
  192.2370  175.5600  146.9450 C   0  0  0  0  0  1  0  0  0  0  0  0
  1 17  1  6  0  0  0
  1  2  1  0  0  0  0
  1 36  1  0  0  0  0
  3  2  1  6  0  0  0
  3 11  1  0  0  0  0
  4  6  2  0  0  0  0
  4  7  1  0  0  0  0
  6  8  1  0  0  0  0
  7  9  2  0  0  0  0
  8  5  2  0  0  0  0
  9  5  1  0  0  0  0
  9  3  1  0  0  0  0
 11 10  1  0  0  0  0
 11 12  1  0  0  0  0
 12 13  1  0  0  0  0
 13 16  1  0  0  0  0
 14 15  1  0  0  0  0
 14 16  1  0  0  0  0
 15 16  1  0  0  0  0
 18 17  1  0  0  0  0
 19 28  1  0  0  0  0
 19 27  2  0  0  0  0
 20 21  1  0  0  0  0
 21 22  1  0  0  0  0
 22 18  1  0  0  0  0
 23 26  2  0  0  0  0
 24 27  1  0  0  0  0
 24 35  1  0  0  0  0
 25 23  1  0  0  0  0
 25 21  2  0  0  0  0
 26 22  1  0  0  0  0
 27 20  1  0  0  0  0
 28 25  1  0  0  0  0
 29 35  1  0  0  0  0
 29 32  1  0  0  0  0
 30 32  1  0  0  0  0
 31 33  1  0  0  0  0
 32 34  1  0  0  0  0
 34 33  2  0  0  0  0
 35 31  2  0  0  0  0
 37 36  1  0  0  0  0
 37 38  2  0  0  0  0
 38 39  1  0  0  0  0
 39 40  1  0  0  0  0
 40 41  1  0  0  0  0
M  END
>  <MODEL>
1

>  <REMARK>
 VINA RESULT:      -8.5      0.000      0.000
  Name = 
  15 active torsions:
  status: ('A' for Active; 'I' for Inactive)
    1  A    between atoms: C_1  and  O_29
    2  A    between atoms: C_1  and  C_38
    3  A    between atoms: C_4  and  N_20
    4  A    between atoms: C_4  and  C_22
    5  A    between atoms: C_6  and  O_24
    6  A    between atoms: C_7  and  C_14
    7  A    between atoms: C_7  and  C_22
    8  A    between atoms: C_7  and  O_24
    9  A    between atoms: C_8  and  N_18
   10  A    between atoms: C_8  and  C_21
   11  A    between atoms: C_14  and  C_19
   12  A    between atoms: N_18  and  C_19
   13  A    between atoms: C_19  and  C_37
   14  A    between atoms: C_21  and  C_27
   15  A    between atoms: N_26  and  C_41
                            x       y       z     vdW  Elec       q    Type
                         _______ _______ _______ _____ _____    ______ ____

>  <TORSDO>
F 15

$$$$
=
 OpenBabel10232411583D

 41 45  0  0  1  0  0  0  0  0999 V2000
  188.0640  177.8640  143.5630 C   0  0  2  0  0  3  0  0  0  0  0  0
  186.8040  177.3330  144.2310 C   0  0  0  0  0  2  0  0  0  0  0  0
  185.8480  178.4740  144.5660 C   0  0  1  0  0  3  0  0  0  0  0  0
  183.6580  178.2970  141.4320 C   0  0  0  0  0  3  0  0  0  0  0  0
  183.4030  178.8780  144.1560 C   0  0  0  0  0  3  0  0  0  0  0  0
  182.4120  178.6450  141.9580 C   0  0  0  0  0  3  0  0  0  0  0  0
  184.7790  178.2390  142.2680 C   0  0  0  0  0  3  0  0  0  0  0  0
  182.2830  178.9340  143.3190 C   0  0  0  0  0  3  0  0  0  0  0  0
  184.6590  178.5320  143.6350 C   0  0  0  0  0  0  0  0  0  0  0  0
  185.4780  179.7130  146.4800 O   0  0  0  0  0  1  0  0  0  0  0  0
  185.4960  178.4460  145.9940 N   0  0  0  0  0  0  0  0  0  0  0  0
  186.5110  177.7060  146.7350 C   0  0  0  0  0  2  0  0  0  0  0  0
  186.9210  178.4730  147.9830 C   0  0  0  0  0  2  0  0  0  0  0  0
  188.7380  176.8120  147.7520 C   0  0  0  0  0  2  0  0  0  0  0  0
  189.3590  178.1470  148.1030 C   0  0  0  0  0  2  0  0  0  0  0  0
  188.0350  177.7470  148.7140 C   0  0  0  0  0  3  0  0  0  0  0  0
  188.4400  177.0010  142.3640 C   0  0  0  0  0  2  0  0  0  0  0  0
  188.4080  177.7900  141.0640 C   0  0  0  0  0  2  0  0  0  0  0  0
  190.0720  176.0010  136.4890 N   0  0  0  0  0  0  0  0  0  0  0  0
  188.4670  177.1180  137.9950 C   0  0  0  0  0  2  0  0  0  0  0  0
  189.6000  177.1310  138.9680 C   0  0  0  0  0  0  0  0  0  0  0  0
  189.5800  177.4710  140.2640 N   0  0  0  0  0  0  0  0  0  0  0  0
  191.6450  177.0000  139.7580 C   0  0  0  0  0  3  0  0  0  0  0  0
  187.8000  175.7560  135.9190 N   0  0  0  0  0  2  0  0  0  0  0  0
  190.8750  176.8320  138.6210 C   0  0  0  0  0  0  0  0  0  0  0  0
  190.8090  177.3820  140.7550 N   0  0  0  0  0  0  0  0  0  0  0  0
  188.8230  176.2800  136.7790 C   0  0  0  0  0  0  0  0  0  0  0  0
  191.2560  176.4670  137.2300 C   0  0  0  0  0  2  0  0  0  0  0  0
  185.6270  174.8900  136.8510 C   0  0  0  0  0  2  0  0  0  0  0  0
  183.3380  174.0110  137.3800 C   0  0  0  0  0  1  0  0  0  0  0  0
  185.7300  176.9230  135.4360 C   0  0  0  0  0  3  0  0  0  0  0  0
  184.1700  175.0150  136.7470 N   0  0  0  0  0  0  0  0  0  0  0  0
  184.2710  177.0750  135.5280 C   0  0  0  0  0  3  0  0  0  0  0  0
  183.5400  176.1560  136.1520 C   0  0  0  0  0  3  0  0  0  0  0  0
  186.3740  175.9010  136.0170 C   0  0  0  0  0  0  0  0  0  0  0  0
  189.1220  177.9270  144.5080 O   0  0  0  0  0  0  0  0  0  0  0  0
  190.3380  178.5260  144.1830 C   0  0  0  0  0  3  0  0  0  0  0  0
  191.4930  177.9580  144.5100 C   0  0  0  0  0  3  0  0  0  0  0  0
  191.5470  176.6620  145.2420 C   0  0  0  0  0  2  0  0  0  0  0  0
  192.0430  176.8740  146.5320 O   0  0  0  0  0  0  0  0  0  0  0  0
  192.2280  175.5970  147.0560 C   0  0  0  0  0  1  0  0  0  0  0  0
  1 17  1  6  0  0  0
  1  2  1  0  0  0  0
  1 36  1  0  0  0  0
  3  2  1  6  0  0  0
  3 11  1  0  0  0  0
  4  6  2  0  0  0  0
  4  7  1  0  0  0  0
  6  8  1  0  0  0  0
  7  9  2  0  0  0  0
  8  5  2  0  0  0  0
  9  5  1  0  0  0  0
  9  3  1  0  0  0  0
 11 10  1  0  0  0  0
 11 12  1  0  0  0  0
 12 13  1  0  0  0  0
 13 16  1  0  0  0  0
 14 15  1  0  0  0  0
 14 16  1  0  0  0  0
 15 16  1  0  0  0  0
 18 17  1  0  0  0  0
 19 27  2  0  0  0  0
 19 28  1  0  0  0  0
 20 21  1  0  0  0  0
 21 22  1  0  0  0  0
 22 26  1  0  0  0  0
 22 18  1  0  0  0  0
 23 26  2  0  0  0  0
 24 35  1  0  0  0  0
 24 27  1  0  0  0  0
 25 21  2  0  0  0  0
 25 23  1  0  0  0  0
 27 20  1  0  0  0  0
 28 25  1  0  0  0  0
 31 33  1  0  0  0  0
 31 35  2  0  0  0  0
 32 29  1  0  0  0  0
 32 30  1  0  0  0  0
 33 34  2  0  0  0  0
 34 32  1  0  0  0  0
 35 29  1  0  0  0  0
 37 36  1  0  0  0  0
 37 38  2  0  0  0  0
 38 39  1  0  0  0  0
 39 40  1  0  0  0  0
 40 41  1  0  0  0  0
M  END
>  <MODEL>
2

>  <REMARK>
 VINA RESULT:      -8.3      1.444      2.196
  Name = 
  15 active torsions:
  status: ('A' for Active; 'I' for Inactive)
    1  A    between atoms: C_1  and  O_29
    2  A    between atoms: C_1  and  C_38
    3  A    between atoms: C_4  and  N_20
    4  A    between atoms: C_4  and  C_22
    5  A    between atoms: C_6  and  O_24
    6  A    between atoms: C_7  and  C_14
    7  A    between atoms: C_7  and  C_22
    8  A    between atoms: C_7  and  O_24
    9  A    between atoms: C_8  and  N_18
   10  A    between atoms: C_8  and  C_21
   11  A    between atoms: C_14  and  C_19
   12  A    between atoms: N_18  and  C_19
   13  A    between atoms: C_19  and  C_37
   14  A    between atoms: C_21  and  C_27
   15  A    between atoms: N_26  and  C_41
                            x       y       z     vdW  Elec       q    Type
                         _______ _______ _______ _____ _____    ______ ____

>  <TORSDO>
F 15

$$$$
=
 OpenBabel10232411583D

 41 45  0  0  1  0  0  0  0  0999 V2000
  187.9930  177.8800  143.2220 C   0  0  2  0  0  3  0  0  0  0  0  0
  186.7630  177.2980  143.9020 C   0  0  0  0  0  2  0  0  0  0  0  0
  185.8630  178.4090  144.4360 C   0  0  1  0  0  3  0  0  0  0  0  0
  182.1730  178.9640  143.5880 C   0  0  0  0  0  3  0  0  0  0  0  0
  184.5600  178.2990  142.2920 C   0  0  0  0  0  3  0  0  0  0  0  0
  182.1790  178.7370  142.2100 C   0  0  0  0  0  3  0  0  0  0  0  0
  183.3610  178.8610  144.3200 C   0  0  0  0  0  3  0  0  0  0  0  0
  183.3720  178.4060  141.5610 C   0  0  0  0  0  3  0  0  0  0  0  0
  184.5620  178.5240  143.6760 C   0  0  0  0  0  0  0  0  0  0  0  0
  185.5950  179.5180  146.4450 O   0  0  0  0  0  1  0  0  0  0  0  0
  185.7020  178.2830  145.8930 N   0  0  0  0  0  0  0  0  0  0  0  0
  186.8840  177.6480  146.4640 C   0  0  0  0  0  2  0  0  0  0  0  0
  187.1950  178.2390  147.8310 C   0  0  0  0  0  2  0  0  0  0  0  0
  189.0850  176.6960  147.4340 C   0  0  0  0  0  2  0  0  0  0  0  0
  189.6460  178.0150  147.9190 C   0  0  0  0  0  2  0  0  0  0  0  0
  188.3450  177.4940  148.4850 C   0  0  0  0  0  3  0  0  0  0  0  0
  188.0440  177.4630  141.7570 C   0  0  0  0  0  2  0  0  0  0  0  0
  187.4960  178.5450  140.8380 C   0  0  0  0  0  2  0  0  0  0  0  0
  186.2990  177.0640  136.0140 N   0  0  0  0  0  0  0  0  0  0  0  0
  185.8070  177.9900  138.2480 C   0  0  0  0  0  2  0  0  0  0  0  0
  187.2910  178.0620  138.3950 C   0  0  0  0  0  0  0  0  0  0  0  0
  188.0060  178.3520  139.4900 N   0  0  0  0  0  0  0  0  0  0  0  0
  189.4210  178.0700  137.8590 C   0  0  0  0  0  3  0  0  0  0  0  0
  184.1290  176.6540  136.8310 N   0  0  0  0  0  2  0  0  0  0  0  0
  188.1450  177.8810  137.3580 C   0  0  0  0  0  0  0  0  0  0  0  0
  189.2960  178.3460  139.1800 N   0  0  0  0  0  0  0  0  0  0  0  0
  185.4350  177.2290  136.9870 C   0  0  0  0  0  0  0  0  0  0  0  0
  187.6710  177.5990  135.9770 C   0  0  0  0  0  2  0  0  0  0  0  0
  182.0510  177.8330  137.6240 C   0  0  0  0  0  2  0  0  0  0  0  0
  180.1650  179.0060  138.7910 C   0  0  0  0  0  1  0  0  0  0  0  0
  182.8020  175.6900  138.6160 C   0  0  0  0  0  3  0  0  0  0  0  0
  181.0540  177.8650  138.6990 N   0  0  0  0  0  0  0  0  0  0  0  0
  181.6660  175.7110  139.5490 C   0  0  0  0  0  3  0  0  0  0  0  0
  180.8440  176.7550  139.5800 C   0  0  0  0  0  3  0  0  0  0  0  0
  183.0140  176.6780  137.7380 C   0  0  0  0  0  0  0  0  0  0  0  0
  189.1650  177.4790  143.9160 O   0  0  0  0  0  0  0  0  0  0  0  0
  190.1480  178.4050  144.2570 C   0  0  0  0  0  3  0  0  0  0  0  0
  191.3740  178.3250  143.7510 C   0  0  0  0  0  3  0  0  0  0  0  0
  191.7570  177.2430  142.8010 C   0  0  0  0  0  2  0  0  0  0  0  0
  191.3370  177.5830  141.5130 O   0  0  0  0  0  0  0  0  0  0  0  0
  192.4700  177.4290  140.7170 C   0  0  0  0  0  1  0  0  0  0  0  0
  1 17  1  6  0  0  0
  1  2  1  0  0  0  0
  1 36  1  0  0  0  0
  3  2  1  6  0  0  0
  3 11  1  0  0  0  0
  4  7  1  0  0  0  0
  5  9  1  0  0  0  0
  6  4  2  0  0  0  0
  8  6  1  0  0  0  0
  8  5  2  0  0  0  0
  9  7  2  0  0  0  0
  9  3  1  0  0  0  0
 11 10  1  0  0  0  0
 11 12  1  0  0  0  0
 12 13  1  0  0  0  0
 13 16  1  0  0  0  0
 14 15  1  0  0  0  0
 14 16  1  0  0  0  0
 15 16  1  0  0  0  0
 18 17  1  0  0  0  0
 19 27  2  0  0  0  0
 20 21  1  0  0  0  0
 21 22  1  0  0  0  0
 22 18  1  0  0  0  0
 23 26  2  0  0  0  0
 24 27  1  0  0  0  0
 24 35  1  0  0  0  0
 25 23  1  0  0  0  0
 25 21  2  0  0  0  0
 26 22  1  0  0  0  0
 27 20  1  0  0  0  0
 28 19  1  0  0  0  0
 28 25  1  0  0  0  0
 29 35  1  0  0  0  0
 29 32  1  0  0  0  0
 31 33  1  0  0  0  0
 32 30  1  0  0  0  0
 32 34  1  0  0  0  0
 33 34  2  0  0  0  0
 35 31  2  0  0  0  0
 36 37  1  0  0  0  0
 38 37  2  0  0  0  0
 39 38  1  0  0  0  0
 40 39  1  0  0  0  0
 41 40  1  0  0  0  0
M  END
>  <MODEL>
3

>  <REMARK>
 VINA RESULT:      -8.1      1.007      1.618
  Name = 
  15 active torsions:
  status: ('A' for Active; 'I' for Inactive)
    1  A    between atoms: C_1  and  O_29
    2  A    between atoms: C_1  and  C_38
    3  A    between atoms: C_4  and  N_20
    4  A    between atoms: C_4  and  C_22
    5  A    between atoms: C_6  and  O_24
    6  A    between atoms: C_7  and  C_14
    7  A    between atoms: C_7  and  C_22
    8  A    between atoms: C_7  and  O_24
    9  A    between atoms: C_8  and  N_18
   10  A    between atoms: C_8  and  C_21
   11  A    between atoms: C_14  and  C_19
   12  A    between atoms: N_18  and  C_19
   13  A    between atoms: C_19  and  C_37
   14  A    between atoms: C_21  and  C_27
   15  A    between atoms: N_26  and  C_41
                            x       y       z     vdW  Elec       q    Type
                         _______ _______ _______ _____ _____    ______ ____

>  <TORSDO>
F 15

$$$$
=
 OpenBabel10232411583D

 41 45  0  0  1  0  0  0  0  0999 V2000
  190.8780  177.4400  143.5400 C   0  0  2  0  0  3  0  0  0  0  0  0
  189.5960  178.1590  143.9330 C   0  0  0  0  0  2  0  0  0  0  0  0
  188.6470  177.2140  144.6630 C   0  0  1  0  0  3  0  0  0  0  0  0
  189.1670  178.0610  148.3590 C   0  0  0  0  0  3  0  0  0  0  0  0
  187.0960  177.9850  146.4810 C   0  0  0  0  0  3  0  0  0  0  0  0
  187.8700  178.4140  148.7360 C   0  0  0  0  0  3  0  0  0  0  0  0
  189.4310  177.6700  147.0410 C   0  0  0  0  0  3  0  0  0  0  0  0
  186.8340  178.3780  147.7970 C   0  0  0  0  0  3  0  0  0  0  0  0
  188.3950  177.6270  146.0940 C   0  0  0  0  0  0  0  0  0  0  0  0
  187.5640  175.8870  143.1120 O   0  0  0  0  0  1  0  0  0  0  0  0
  187.4250  177.0020  143.8710 N   0  0  0  0  0  0  0  0  0  0  0  0
  187.2270  178.1270  142.9660 C   0  0  0  0  0  2  0  0  0  0  0  0
  185.7770  178.1930  142.5090 C   0  0  0  0  0  2  0  0  0  0  0  0
  184.6540  179.6140  144.1920 C   0  0  0  0  0  2  0  0  0  0  0  0
  183.5890  178.9590  143.3400 C   0  0  0  0  0  2  0  0  0  0  0  0
  184.8410  178.1940  143.7040 C   0  0  0  0  0  3  0  0  0  0  0  0
  191.1370  177.5830  142.0440 C   0  0  0  0  0  2  0  0  0  0  0  0
  190.4290  176.5050  141.2380 C   0  0  0  0  0  2  0  0  0  0  0  0
  190.7020  176.7550  136.0650 N   0  0  0  0  0  0  0  0  0  0  0  0
  191.0120  175.6780  138.2640 C   0  0  0  0  0  2  0  0  0  0  0  0
  190.1330  176.7730  138.7710 C   0  0  0  0  0  0  0  0  0  0  0  0
  189.8440  177.0880  140.0420 N   0  0  0  0  0  0  0  0  0  0  0  0
  188.7030  178.4410  138.7720 C   0  0  0  0  0  3  0  0  0  0  0  0
  192.5430  175.2970  136.2340 N   0  0  0  0  0  2  0  0  0  0  0  0
  189.4360  177.5990  137.9530 C   0  0  0  0  0  0  0  0  0  0  0  0
  188.9910  178.1040  140.0530 N   0  0  0  0  0  0  0  0  0  0  0  0
  191.3970  175.9360  136.8170 C   0  0  0  0  0  0  0  0  0  0  0  0
  189.4850  177.4790  136.4720 C   0  0  0  0  0  2  0  0  0  0  0  0
  194.3560  174.8990  137.9350 C   0  0  0  0  0  2  0  0  0  0  0  0
  196.3910  174.3730  139.3050 C   0  0  0  0  0  1  0  0  0  0  0  0
  193.5110  173.0870  136.4700 C   0  0  0  0  0  3  0  0  0  0  0  0
  195.3810  173.9400  138.3590 N   0  0  0  0  0  0  0  0  0  0  0  0
  194.4580  172.1400  137.0760 C   0  0  0  0  0  3  0  0  0  0  0  0
  195.3460  172.5610  137.9710 C   0  0  0  0  0  3  0  0  0  0  0  0
  193.4690  174.3760  136.8330 C   0  0  0  0  0  0  0  0  0  0  0  0
  190.8040  176.0750  143.9250 O   0  0  0  0  0  0  0  0  0  0  0  0
  191.9480  175.2820  143.9720 C   0  0  0  0  0  3  0  0  0  0  0  0
  192.5420  174.9990  145.1270 C   0  0  0  0  0  3  0  0  0  0  0  0
  192.0200  175.5180  146.4220 C   0  0  0  0  0  2  0  0  0  0  0  0
  192.8870  175.1530  147.4550 O   0  0  0  0  0  0  0  0  0  0  0  0
  192.6920  176.1170  148.4400 C   0  0  0  0  0  1  0  0  0  0  0  0
  1 17  1  6  0  0  0
  1 36  1  0  0  0  0
  1  2  1  0  0  0  0
  3  2  1  6  0  0  0
  3  9  1  0  0  0  0
  4  6  1  0  0  0  0
  5  8  1  0  0  0  0
  7  4  2  0  0  0  0
  8  6  2  0  0  0  0
  9  5  2  0  0  0  0
  9  7  1  0  0  0  0
 10 11  1  0  0  0  0
 11  3  1  0  0  0  0
 12 11  1  0  0  0  0
 13 12  1  0  0  0  0
 13 16  1  0  0  0  0
 15 16  1  0  0  0  0
 15 14  1  0  0  0  0
 16 14  1  0  0  0  0
 18 17  1  0  0  0  0
 19 28  1  0  0  0  0
 19 27  2  0  0  0  0
 20 21  1  0  0  0  0
 21 22  1  0  0  0  0
 22 26  1  0  0  0  0
 22 18  1  0  0  0  0
 23 26  2  0  0  0  0
 24 27  1  0  0  0  0
 24 35  1  0  0  0  0
 25 21  2  0  0  0  0
 25 23  1  0  0  0  0
 27 20  1  0  0  0  0
 28 25  1  0  0  0  0
 29 32  1  0  0  0  0
 31 35  2  0  0  0  0
 31 33  1  0  0  0  0
 32 30  1  0  0  0  0
 33 34  2  0  0  0  0
 34 32  1  0  0  0  0
 35 29  1  0  0  0  0
 36 37  1  0  0  0  0
 37 38  2  0  0  0  0
 38 39  1  0  0  0  0
 39 40  1  0  0  0  0
 40 41  1  0  0  0  0
M  END
>  <MODEL>
4

>  <REMARK>
 VINA RESULT:      -7.4      3.214      6.935
  Name = 
  15 active torsions:
  status: ('A' for Active; 'I' for Inactive)
    1  A    between atoms: C_1  and  O_29
    2  A    between atoms: C_1  and  C_38
    3  A    between atoms: C_4  and  N_20
    4  A    between atoms: C_4  and  C_22
    5  A    between atoms: C_6  and  O_24
    6  A    between atoms: C_7  and  C_14
    7  A    between atoms: C_7  and  C_22
    8  A    between atoms: C_7  and  O_24
    9  A    between atoms: C_8  and  N_18
   10  A    between atoms: C_8  and  C_21
   11  A    between atoms: C_14  and  C_19
   12  A    between atoms: N_18  and  C_19
   13  A    between atoms: C_19  and  C_37
   14  A    between atoms: C_21  and  C_27
   15  A    between atoms: N_26  and  C_41
                            x       y       z     vdW  Elec       q    Type
                         _______ _______ _______ _____ _____    ______ ____

>  <TORSDO>
F 15

$$$$
=
 OpenBabel10232411583D

 41 45  0  0  1  0  0  0  0  0999 V2000
  189.7530  176.7510  141.4320 C   0  0  2  0  0  3  0  0  0  0  0  0
  189.9570  177.6050  140.1890 C   0  0  0  0  0  2  0  0  0  0  0  0
  189.8580  176.7550  138.9260 C   0  0  1  0  0  3  0  0  0  0  0  0
  186.6890  175.8110  136.9990 C   0  0  0  0  0  3  0  0  0  0  0  0
  187.7330  177.9890  138.4090 C   0  0  0  0  0  3  0  0  0  0  0  0
  185.9410  176.9840  137.1250 C   0  0  0  0  0  3  0  0  0  0  0  0
  187.9600  175.7250  137.5790 C   0  0  0  0  0  3  0  0  0  0  0  0
  186.4620  178.0730  137.8310 C   0  0  0  0  0  3  0  0  0  0  0  0
  188.4910  176.8160  138.2850 C   0  0  0  0  0  0  0  0  0  0  0  0
  190.5600  176.8910  136.7300 O   0  0  0  0  0  1  0  0  0  0  0  0
  190.9690  177.0640  138.0120 N   0  0  0  0  0  0  0  0  0  0  0  0
  192.0710  176.1400  138.2500 C   0  0  0  0  0  2  0  0  0  0  0  0
  191.8000  174.8050  137.5720 C   0  0  0  0  0  2  0  0  0  0  0  0
  193.7090  174.4170  136.0490 C   0  0  0  0  0  2  0  0  0  0  0  0
  194.2430  175.0140  137.3340 C   0  0  0  0  0  2  0  0  0  0  0  0
  193.0930  174.0340  137.3780 C   0  0  0  0  0  3  0  0  0  0  0  0
  188.5530  177.2450  142.2320 C   0  0  0  0  0  2  0  0  0  0  0  0
  188.1120  176.2350  143.2800 C   0  0  0  0  0  2  0  0  0  0  0  0
  184.6720  179.2990  145.6620 N   0  0  0  0  0  0  0  0  0  0  0  0
  185.3840  177.6120  144.0070 C   0  0  0  0  0  2  0  0  0  0  0  0
  186.6420  177.5540  144.8100 C   0  0  0  0  0  0  0  0  0  0  0  0
  187.7860  176.9200  144.5200 N   0  0  0  0  0  0  0  0  0  0  0  0
  188.0370  177.8290  146.4830 C   0  0  0  0  0  3  0  0  0  0  0  0
  183.4790  179.2970  143.6320 N   0  0  0  0  0  2  0  0  0  0  0  0
  186.7660  178.1320  146.0300 C   0  0  0  0  0  0  0  0  0  0  0  0
  188.6410  177.0910  145.5200 N   0  0  0  0  0  0  0  0  0  0  0  0
  184.5070  178.7600  144.4780 C   0  0  0  0  0  0  0  0  0  0  0  0
  185.6490  178.8710  146.6770 C   0  0  0  0  0  2  0  0  0  0  0  0
  181.6290  178.7310  142.0200 C   0  0  0  0  0  2  0  0  0  0  0  0
  179.9900  177.8040  140.3630 C   0  0  0  0  0  1  0  0  0  0  0  0
  184.0100  178.7430  141.3320 C   0  0  0  0  0  3  0  0  0  0  0  0
  181.3550  178.1590  140.6980 N   0  0  0  0  0  0  0  0  0  0  0  0
  183.6310  178.3350  139.9720 C   0  0  0  0  0  3  0  0  0  0  0  0
  182.3630  178.0560  139.6850 C   0  0  0  0  0  3  0  0  0  0  0  0
  183.1010  178.9020  142.3030 C   0  0  0  0  0  0  0  0  0  0  0  0
  190.9350  176.7490  142.2170 O   0  0  0  0  0  0  0  0  0  0  0  0
  191.3730  177.9080  142.8550 C   0  0  0  0  0  3  0  0  0  0  0  0
  191.7140  177.8990  144.1390 C   0  0  0  0  0  3  0  0  0  0  0  0
  191.6390  176.6580  144.9590 C   0  0  0  0  0  2  0  0  0  0  0  0
  191.9050  176.9660  146.2960 O   0  0  0  0  0  0  0  0  0  0  0  0
  192.1600  175.7360  146.9000 C   0  0  0  0  0  1  0  0  0  0  0  0
  1  2  1  6  0  0  0
  1 36  1  0  0  0  0
  1 17  1  0  0  0  0
  3  2  1  1  0  0  0
  4  6  2  0  0  0  0
  4  7  1  0  0  0  0
  6  8  1  0  0  0  0
  7  9  2  0  0  0  0
  8  5  2  0  0  0  0
  9  5  1  0  0  0  0
  9  3  1  0  0  0  0
 10 11  1  0  0  0  0
 11 12  1  0  0  0  0
 11  3  1  0  0  0  0
 13 12  1  0  0  0  0
 14 15  1  0  0  0  0
 14 16  1  0  0  0  0
 15 16  1  0  0  0  0
 16 13  1  0  0  0  0
 17 18  1  0  0  0  0
 18 22  1  0  0  0  0
 19 28  1  0  0  0  0
 20 27  1  0  0  0  0
 20 21  1  0  0  0  0
 21 25  2  0  0  0  0
 22 21  1  0  0  0  0
 22 26  1  0  0  0  0
 24 27  1  0  0  0  0
 25 23  1  0  0  0  0
 25 28  1  0  0  0  0
 26 23  2  0  0  0  0
 27 19  2  0  0  0  0
 29 35  1  0  0  0  0
 30 32  1  0  0  0  0
 31 35  2  0  0  0  0
 32 29  1  0  0  0  0
 33 31  1  0  0  0  0
 34 33  2  0  0  0  0
 34 32  1  0  0  0  0
 35 24  1  0  0  0  0
 36 37  1  0  0  0  0
 37 38  2  0  0  0  0
 38 39  1  0  0  0  0
 39 40  1  0  0  0  0
 40 41  1  0  0  0  0
M  END
>  <MODEL>
5

>  <REMARK>
 VINA RESULT:      -7.2      2.473      7.072
  Name = 
  15 active torsions:
  status: ('A' for Active; 'I' for Inactive)
    1  A    between atoms: C_1  and  O_29
    2  A    between atoms: C_1  and  C_38
    3  A    between atoms: C_4  and  N_20
    4  A    between atoms: C_4  and  C_22
    5  A    between atoms: C_6  and  O_24
    6  A    between atoms: C_7  and  C_14
    7  A    between atoms: C_7  and  C_22
    8  A    between atoms: C_7  and  O_24
    9  A    between atoms: C_8  and  N_18
   10  A    between atoms: C_8  and  C_21
   11  A    between atoms: C_14  and  C_19
   12  A    between atoms: N_18  and  C_19
   13  A    between atoms: C_19  and  C_37
   14  A    between atoms: C_21  and  C_27
   15  A    between atoms: N_26  and  C_41
                            x       y       z     vdW  Elec       q    Type
                         _______ _______ _______ _____ _____    ______ ____

>  <TORSDO>
F 15

$$$$
=
 OpenBabel10232411583D

 41 45  0  0  1  0  0  0  0  0999 V2000
  188.8550  177.7850  142.0460 C   0  0  2  0  0  3  0  0  0  0  0  0
  187.7990  176.9750  142.7840 C   0  0  0  0  0  2  0  0  0  0  0  0
  186.4490  177.6840  142.7460 C   0  0  1  0  0  3  0  0  0  0  0  0
  186.2880  178.3870  146.5040 C   0  0  0  0  0  3  0  0  0  0  0  0
  184.6020  178.4340  144.2740 C   0  0  0  0  0  3  0  0  0  0  0  0
  184.9510  178.7620  146.6490 C   0  0  0  0  0  3  0  0  0  0  0  0
  186.7850  178.0350  145.2440 C   0  0  0  0  0  3  0  0  0  0  0  0
  184.1080  178.7880  145.5340 C   0  0  0  0  0  3  0  0  0  0  0  0
  185.9430  178.0540  144.1210 C   0  0  0  0  0  0  0  0  0  0  0  0
  185.7840  179.8510  142.3000 O   0  0  0  0  0  1  0  0  0  0  0  0
  186.4850  178.8060  141.7940 N   0  0  0  0  0  0  0  0  0  0  0  0
  185.8450  178.4110  140.5460 C   0  0  0  0  0  2  0  0  0  0  0  0
  184.7750  179.4200  140.1550 C   0  0  0  0  0  2  0  0  0  0  0  0
  183.3360  177.4940  140.7300 C   0  0  0  0  0  2  0  0  0  0  0  0
  182.5890  178.7640  141.0800 C   0  0  0  0  0  2  0  0  0  0  0  0
  183.4650  178.7180  139.8490 C   0  0  0  0  0  3  0  0  0  0  0  0
  189.6320  176.8990  141.0780 C   0  0  0  0  0  2  0  0  0  0  0  0
  189.7880  177.5490  139.7120 C   0  0  0  0  0  2  0  0  0  0  0  0
  190.8440  173.8150  136.2710 N   0  0  0  0  0  0  0  0  0  0  0  0
  189.4190  175.5240  137.3390 C   0  0  0  0  0  2  0  0  0  0  0  0
  190.6850  175.9760  137.9900 C   0  0  0  0  0  0  0  0  0  0  0  0
  190.8420  176.8810  138.9660 N   0  0  0  0  0  0  0  0  0  0  0  0
  192.8310  176.2030  138.3940 C   0  0  0  0  0  3  0  0  0  0  0  0
  188.5340  173.3590  136.2710 N   0  0  0  0  0  2  0  0  0  0  0  0
  191.9090  175.5340  137.6100 C   0  0  0  0  0  0  0  0  0  0  0  0
  192.1360  177.0160  139.2270 N   0  0  0  0  0  0  0  0  0  0  0  0
  189.6400  174.2110  136.6060 C   0  0  0  0  0  0  0  0  0  0  0  0
  192.0940  174.5590  136.5030 C   0  0  0  0  0  2  0  0  0  0  0  0
  186.4000  174.5570  135.6780 C   0  0  0  0  0  2  0  0  0  0  0  0
  184.2680  175.8650  135.4900 C   0  0  0  0  0  1  0  0  0  0  0  0
  186.4830  172.8260  137.4500 C   0  0  0  0  0  3  0  0  0  0  0  0
  185.0280  174.8090  136.1290 N   0  0  0  0  0  0  0  0  0  0  0  0
  185.0510  173.0190  137.7210 C   0  0  0  0  0  3  0  0  0  0  0  0
  184.3720  173.9700  137.0870 C   0  0  0  0  0  3  0  0  0  0  0  0
  187.1330  173.5500  136.5290 C   0  0  0  0  0  0  0  0  0  0  0  0
  189.7190  178.4170  142.9780 O   0  0  0  0  0  0  0  0  0  0  0  0
  191.0770  178.1080  143.0200 C   0  0  0  0  0  3  0  0  0  0  0  0
  191.6360  177.6120  144.1180 C   0  0  0  0  0  3  0  0  0  0  0  0
  190.8450  177.3680  145.3560 C   0  0  0  0  0  2  0  0  0  0  0  0
  191.7110  177.0870  146.4160 O   0  0  0  0  0  0  0  0  0  0  0  0
  190.8980  176.5370  147.4040 C   0  0  0  0  0  1  0  0  0  0  0  0
  1 17  1  6  0  0  0
  1  2  1  0  0  0  0
  1 36  1  0  0  0  0
  3  2  1  1  0  0  0
  3  9  1  0  0  0  0
  4  6  1  0  0  0  0
  5  8  1  0  0  0  0
  7  4  2  0  0  0  0
  8  6  2  0  0  0  0
  9  5  2  0  0  0  0
  9  7  1  0  0  0  0
 11 10  1  0  0  0  0
 11  3  1  0  0  0  0
 12 11  1  0  0  0  0
 13 12  1  0  0  0  0
 14 15  1  0  0  0  0
 16 13  1  0  0  0  0
 16 14  1  0  0  0  0
 16 15  1  0  0  0  0
 18 17  1  0  0  0  0
 19 28  1  0  0  0  0
 19 27  2  0  0  0  0
 20 21  1  0  0  0  0
 21 22  1  0  0  0  0
 22 26  1  0  0  0  0
 22 18  1  0  0  0  0
 23 26  2  0  0  0  0
 24 35  1  0  0  0  0
 24 27  1  0  0  0  0
 25 21  2  0  0  0  0
 25 23  1  0  0  0  0
 27 20  1  0  0  0  0
 28 25  1  0  0  0  0
 29 32  1  0  0  0  0
 29 35  1  0  0  0  0
 30 32  1  0  0  0  0
 31 33  1  0  0  0  0
 32 34  1  0  0  0  0
 34 33  2  0  0  0  0
 35 31  2  0  0  0  0
 36 37  1  0  0  0  0
 37 38  2  0  0  0  0
 38 39  1  0  0  0  0
 39 40  1  0  0  0  0
 40 41  1  0  0  0  0
M  END
>  <MODEL>
6

>  <REMARK>
 VINA RESULT:      -7.0      2.367      4.567
  Name = 
  15 active torsions:
  status: ('A' for Active; 'I' for Inactive)
    1  A    between atoms: C_1  and  O_29
    2  A    between atoms: C_1  and  C_38
    3  A    between atoms: C_4  and  N_20
    4  A    between atoms: C_4  and  C_22
    5  A    between atoms: C_6  and  O_24
    6  A    between atoms: C_7  and  C_14
    7  A    between atoms: C_7  and  C_22
    8  A    between atoms: C_7  and  O_24
    9  A    between atoms: C_8  and  N_18
   10  A    between atoms: C_8  and  C_21
   11  A    between atoms: C_14  and  C_19
   12  A    between atoms: N_18  and  C_19
   13  A    between atoms: C_19  and  C_37
   14  A    between atoms: C_21  and  C_27
   15  A    between atoms: N_26  and  C_41
                            x       y       z     vdW  Elec       q    Type
                         _______ _______ _______ _____ _____    ______ ____

>  <TORSDO>
F 15

$$$$
=
 OpenBabel10232411583D

 41 45  0  0  1  0  0  0  0  0999 V2000
  189.1710  177.2860  141.5910 C   0  0  2  0  0  3  0  0  0  0  0  0
  188.2600  176.6530  142.6320 C   0  0  0  0  0  2  0  0  0  0  0  0
  187.7070  177.7100  143.5830 C   0  0  1  0  0  3  0  0  0  0  0  0
  184.6360  178.9530  141.6680 C   0  0  0  0  0  3  0  0  0  0  0  0
  185.3030  178.0430  144.2270 C   0  0  0  0  0  3  0  0  0  0  0  0
  183.6540  178.8710  142.6570 C   0  0  0  0  0  3  0  0  0  0  0  0
  185.9540  178.5800  141.9560 C   0  0  0  0  0  3  0  0  0  0  0  0
  183.9860  178.4140  143.9360 C   0  0  0  0  0  3  0  0  0  0  0  0
  186.2960  178.1250  143.2400 C   0  0  0  0  0  0  0  0  0  0  0  0
  187.8160  178.3720  145.7940 O   0  0  0  0  0  1  0  0  0  0  0  0
  187.8900  177.2880  144.9810 N   0  0  0  0  0  0  0  0  0  0  0  0
  189.2150  176.7040  145.1470 C   0  0  0  0  0  2  0  0  0  0  0  0
  190.1990  177.7520  145.6460 C   0  0  0  0  0  2  0  0  0  0  0  0
  191.9400  176.1630  146.3910 C   0  0  0  0  0  2  0  0  0  0  0  0
  191.6070  175.8580  144.9460 C   0  0  0  0  0  2  0  0  0  0  0  0
  191.6280  177.2900  145.4290 C   0  0  0  0  0  3  0  0  0  0  0  0
  188.6010  177.0930  140.1900 C   0  0  0  0  0  2  0  0  0  0  0  0
  188.5280  178.4030  139.4200 C   0  0  0  0  0  2  0  0  0  0  0  0
  185.8200  177.0430  135.2110 N   0  0  0  0  0  0  0  0  0  0  0  0
  186.1070  178.0380  137.4510 C   0  0  0  0  0  2  0  0  0  0  0  0
  187.5680  177.9300  137.1610 C   0  0  0  0  0  0  0  0  0  0  0  0
  188.5990  178.1400  137.9920 N   0  0  0  0  0  0  0  0  0  0  0  0
  189.4370  177.6770  136.0350 C   0  0  0  0  0  3  0  0  0  0  0  0
  183.9490  176.9040  136.6340 N   0  0  0  0  0  2  0  0  0  0  0  0
  188.0580  177.6400  135.9310 C   0  0  0  0  0  0  0  0  0  0  0  0
  189.7330  177.9760  137.3240 N   0  0  0  0  0  0  0  0  0  0  0  0
  185.3010  177.3180  136.3830 C   0  0  0  0  0  0  0  0  0  0  0  0
  187.1730  177.4070  134.7580 C   0  0  0  0  0  2  0  0  0  0  0  0
  182.4370  178.3830  137.9990 C   0  0  0  0  0  2  0  0  0  0  0  0
  181.2080  179.7980  139.6670 C   0  0  0  0  0  1  0  0  0  0  0  0
  183.0130  176.0810  138.7140 C   0  0  0  0  0  3  0  0  0  0  0  0
  181.8030  178.5240  139.3140 N   0  0  0  0  0  0  0  0  0  0  0  0
  182.2070  176.2450  139.9320 C   0  0  0  0  0  3  0  0  0  0  0  0
  181.6400  177.4160  140.2070 C   0  0  0  0  0  3  0  0  0  0  0  0
  183.1570  177.0690  137.8210 C   0  0  0  0  0  0  0  0  0  0  0  0
  190.4790  176.7450  141.6980 O   0  0  0  0  0  0  0  0  0  0  0  0
  191.5960  177.5750  141.7550 C   0  0  0  0  0  3  0  0  0  0  0  0
  192.4410  177.6630  140.7330 C   0  0  0  0  0  3  0  0  0  0  0  0
  192.2400  176.8770  139.4840 C   0  0  0  0  0  2  0  0  0  0  0  0
  193.4670  176.7040  138.8390 O   0  0  0  0  0  0  0  0  0  0  0  0
  193.1430  176.5370  137.4950 C   0  0  0  0  0  1  0  0  0  0  0  0
  1 17  1  6  0  0  0
  1 36  1  0  0  0  0
  1  2  1  0  0  0  0
  3  2  1  6  0  0  0
  3 11  1  0  0  0  0
  4  7  2  0  0  0  0
  4  6  1  0  0  0  0
  6  8  2  0  0  0  0
  7  9  1  0  0  0  0
  8  5  1  0  0  0  0
  9  3  1  0  0  0  0
  9  5  2  0  0  0  0
 11 12  1  0  0  0  0
 11 10  1  0  0  0  0
 12 13  1  0  0  0  0
 15 16  1  0  0  0  0
 15 14  1  0  0  0  0
 16 13  1  0  0  0  0
 16 14  1  0  0  0  0
 18 17  1  0  0  0  0
 19 27  2  0  0  0  0
 21 20  1  0  0  0  0
 21 22  1  0  0  0  0
 22 18  1  0  0  0  0
 23 26  2  0  0  0  0
 24 35  1  0  0  0  0
 25 23  1  0  0  0  0
 25 21  2  0  0  0  0
 26 22  1  0  0  0  0
 27 24  1  0  0  0  0
 27 20  1  0  0  0  0
 28 19  1  0  0  0  0
 28 25  1  0  0  0  0
 29 32  1  0  0  0  0
 31 33  1  0  0  0  0
 32 30  1  0  0  0  0
 32 34  1  0  0  0  0
 33 34  2  0  0  0  0
 35 29  1  0  0  0  0
 35 31  2  0  0  0  0
 36 37  1  0  0  0  0
 38 37  2  0  0  0  0
 39 38  1  0  0  0  0
 40 39  1  0  0  0  0
 41 40  1  0  0  0  0
M  END
>  <MODEL>
7

>  <REMARK>
 VINA RESULT:      -7.0      2.002      3.092
  Name = 
  15 active torsions:
  status: ('A' for Active; 'I' for Inactive)
    1  A    between atoms: C_1  and  O_29
    2  A    between atoms: C_1  and  C_38
    3  A    between atoms: C_4  and  N_20
    4  A    between atoms: C_4  and  C_22
    5  A    between atoms: C_6  and  O_24
    6  A    between atoms: C_7  and  C_14
    7  A    between atoms: C_7  and  C_22
    8  A    between atoms: C_7  and  O_24
    9  A    between atoms: C_8  and  N_18
   10  A    between atoms: C_8  and  C_21
   11  A    between atoms: C_14  and  C_19
   12  A    between atoms: N_18  and  C_19
   13  A    between atoms: C_19  and  C_37
   14  A    between atoms: C_21  and  C_27
   15  A    between atoms: N_26  and  C_41
                            x       y       z     vdW  Elec       q    Type
                         _______ _______ _______ _____ _____    ______ ____

>  <TORSDO>
F 15

$$$$
=
 OpenBabel10232411583D

 41 45  0  0  1  0  0  0  0  0999 V2000
  184.4540  178.1040  137.6660 C   0  0  2  0  0  3  0  0  0  0  0  0
  185.8730  178.5550  137.3530 C   0  0  0  0  0  2  0  0  0  0  0  0
  186.8920  177.6520  138.0410 C   0  0  1  0  0  3  0  0  0  0  0  0
  188.9290  176.4780  135.0220 C   0  0  0  0  0  3  0  0  0  0  0  0
  187.7990  175.4150  137.3490 C   0  0  0  0  0  3  0  0  0  0  0  0
  189.0680  175.1180  135.3060 C   0  0  0  0  0  3  0  0  0  0  0  0
  188.2260  177.3100  135.9010 C   0  0  0  0  0  3  0  0  0  0  0  0
  188.5050  174.5860  136.4700 C   0  0  0  0  0  3  0  0  0  0  0  0
  187.6540  176.7820  137.0690 C   0  0  0  0  0  0  0  0  0  0  0  0
  188.6340  179.1600  138.2150 O   0  0  0  0  0  1  0  0  0  0  0  0
  187.7470  178.4390  138.9450 N   0  0  0  0  0  0  0  0  0  0  0  0
  188.5100  177.5410  139.8020 C   0  0  0  0  0  2  0  0  0  0  0  0
  190.0020  177.8010  139.6480 C   0  0  0  0  0  2  0  0  0  0  0  0
  191.3270  176.6190  137.9280 C   0  0  0  0  0  2  0  0  0  0  0  0
  192.2060  176.8260  139.1430 C   0  0  0  0  0  2  0  0  0  0  0  0
  190.7370  176.5150  139.3180 C   0  0  0  0  0  3  0  0  0  0  0  0
  183.9850  178.6910  138.9930 C   0  0  0  0  0  2  0  0  0  0  0  0
  184.3020  177.7740  140.1640 C   0  0  0  0  0  2  0  0  0  0  0  0
  184.7100  178.5910  145.2700 N   0  0  0  0  0  0  0  0  0  0  0  0
  185.5800  178.3780  142.9700 C   0  0  0  0  0  2  0  0  0  0  0  0
  184.1440  178.4440  142.5670 C   0  0  0  0  0  0  0  0  0  0  0  0
  183.6090  178.2390  141.3550 N   0  0  0  0  0  0  0  0  0  0  0  0
  181.9790  178.7940  142.6890 C   0  0  0  0  0  3  0  0  0  0  0  0
  186.9030  177.7530  145.0840 N   0  0  0  0  0  2  0  0  0  0  0  0
  183.1520  178.7940  143.4220 C   0  0  0  0  0  0  0  0  0  0  0  0
  182.2980  178.4350  141.4210 N   0  0  0  0  0  0  0  0  0  0  0  0
  185.7010  178.2550  144.4790 C   0  0  0  0  0  0  0  0  0  0  0  0
  183.4150  179.1470  144.8430 C   0  0  0  0  0  2  0  0  0  0  0  0
  189.3890  178.0390  144.8110 C   0  0  0  0  0  2  0  0  0  0  0  0
  191.7820  178.3650  144.1310 C   0  0  0  0  0  1  0  0  0  0  0  0
  188.1360  176.2600  143.6250 C   0  0  0  0  0  3  0  0  0  0  0  0
  190.5370  177.6350  143.9920 N   0  0  0  0  0  0  0  0  0  0  0  0
  189.3730  175.8050  142.9750 C   0  0  0  0  0  3  0  0  0  0  0  0
  190.5090  176.4720  143.1560 C   0  0  0  0  0  3  0  0  0  0  0  0
  188.1170  177.3110  144.4550 C   0  0  0  0  0  0  0  0  0  0  0  0
  184.3880  176.6860  137.6740 O   0  0  0  0  0  0  0  0  0  0  0  0
  184.1780  175.9720  136.4960 C   0  0  0  0  0  3  0  0  0  0  0  0
  184.1960  174.6440  136.4840 C   0  0  0  0  0  3  0  0  0  0  0  0
  184.4450  173.8550  137.7230 C   0  0  0  0  0  2  0  0  0  0  0  0
  185.3830  172.8530  137.4580 O   0  0  0  0  0  0  0  0  0  0  0  0
  185.2610  172.6060  136.0920 C   0  0  0  0  0  1  0  0  0  0  0  0
  1  2  1  1  0  0  0
  1 36  1  0  0  0  0
  1 17  1  0  0  0  0
  3  2  1  6  0  0  0
  3 11  1  0  0  0  0
  4  6  2  0  0  0  0
  4  7  1  0  0  0  0
  6  8  1  0  0  0  0
  7  9  2  0  0  0  0
  8  5  2  0  0  0  0
  9  5  1  0  0  0  0
  9  3  1  0  0  0  0
 10 11  1  0  0  0  0
 11 12  1  0  0  0  0
 13 12  1  0  0  0  0
 14 15  1  0  0  0  0
 14 16  1  0  0  0  0
 15 16  1  0  0  0  0
 16 13  1  0  0  0  0
 17 18  1  0  0  0  0
 18 22  1  0  0  0  0
 20 27  1  0  0  0  0
 21 20  1  0  0  0  0
 21 25  2  0  0  0  0
 22 26  1  0  0  0  0
 22 21  1  0  0  0  0
 23 25  1  0  0  0  0
 25 28  1  0  0  0  0
 26 23  2  0  0  0  0
 27 24  1  0  0  0  0
 27 19  2  0  0  0  0
 28 19  1  0  0  0  0
 31 35  2  0  0  0  0
 32 30  1  0  0  0  0
 32 29  1  0  0  0  0
 33 34  2  0  0  0  0
 33 31  1  0  0  0  0
 34 32  1  0  0  0  0
 35 29  1  0  0  0  0
 35 24  1  0  0  0  0
 37 36  1  0  0  0  0
 38 37  2  0  0  0  0
 38 39  1  0  0  0  0
 40 39  1  0  0  0  0
 41 40  1  0  0  0  0
M  END
>  <MODEL>
8

>  <REMARK>
 VINA RESULT:      -6.9      3.100      8.852
  Name = 
  15 active torsions:
  status: ('A' for Active; 'I' for Inactive)
    1  A    between atoms: C_1  and  O_29
    2  A    between atoms: C_1  and  C_38
    3  A    between atoms: C_4  and  N_20
    4  A    between atoms: C_4  and  C_22
    5  A    between atoms: C_6  and  O_24
    6  A    between atoms: C_7  and  C_14
    7  A    between atoms: C_7  and  C_22
    8  A    between atoms: C_7  and  O_24
    9  A    between atoms: C_8  and  N_18
   10  A    between atoms: C_8  and  C_21
   11  A    between atoms: C_14  and  C_19
   12  A    between atoms: N_18  and  C_19
   13  A    between atoms: C_19  and  C_37
   14  A    between atoms: C_21  and  C_27
   15  A    between atoms: N_26  and  C_41
                            x       y       z     vdW  Elec       q    Type
                         _______ _______ _______ _____ _____    ______ ____

>  <TORSDO>
F 15

$$$$
=
 OpenBabel10232411583D

 41 45  0  0  1  0  0  0  0  0999 V2000
  190.4510  177.4520  139.1640 C   0  0  2  0  0  3  0  0  0  0  0  0
  190.3490  176.0790  138.5170 C   0  0  0  0  0  2  0  0  0  0  0  0
  191.1460  176.0320  137.2170 C   0  0  1  0  0  3  0  0  0  0  0  0
  193.4710  173.0300  136.7430 C   0  0  0  0  0  3  0  0  0  0  0  0
  193.4710  175.5190  138.0170 C   0  0  0  0  0  3  0  0  0  0  0  0
  194.5920  173.4430  137.4650 C   0  0  0  0  0  3  0  0  0  0  0  0
  192.3480  173.8600  136.6560 C   0  0  0  0  0  3  0  0  0  0  0  0
  194.5930  174.6880  138.1010 C   0  0  0  0  0  3  0  0  0  0  0  0
  192.3400  175.1100  137.2950 C   0  0  0  0  0  0  0  0  0  0  0  0
  190.0540  176.9190  135.3840 O   0  0  0  0  0  1  0  0  0  0  0  0
  190.2540  175.7700  136.0770 N   0  0  0  0  0  0  0  0  0  0  0  0
  188.9560  175.3200  136.5640 C   0  0  0  0  0  2  0  0  0  0  0  0
  188.1440  174.7130  135.4290 C   0  0  0  0  0  2  0  0  0  0  0  0
  188.5790  172.8270  136.9670 C   0  0  0  0  0  2  0  0  0  0  0  0
  187.0820  173.0380  136.8890 C   0  0  0  0  0  2  0  0  0  0  0  0
  187.9360  173.2270  135.6560 C   0  0  0  0  0  3  0  0  0  0  0  0
  190.9030  177.3300  140.6140 C   0  0  0  0  0  2  0  0  0  0  0  0
  189.8030  176.7820  141.5090 C   0  0  0  0  0  2  0  0  0  0  0  0
  188.4640  177.6580  146.4430 N   0  0  0  0  0  0  0  0  0  0  0  0
  188.0260  177.0810  144.0840 C   0  0  0  0  0  2  0  0  0  0  0  0
  189.5090  176.9360  143.9870 C   0  0  0  0  0  0  0  0  0  0  0  0
  190.2580  176.7550  142.8900 N   0  0  0  0  0  0  0  0  0  0  0  0
  191.6070  176.7180  144.6000 C   0  0  0  0  0  3  0  0  0  0  0  0
  186.3630  178.3150  145.6070 N   0  0  0  0  0  2  0  0  0  0  0  0
  190.3220  176.9180  145.0710 C   0  0  0  0  0  0  0  0  0  0  0  0
  191.5300  176.6350  143.2490 N   0  0  0  0  0  0  0  0  0  0  0  0
  187.6400  177.6840  145.4240 C   0  0  0  0  0  0  0  0  0  0  0  0
  189.7990  177.0360  146.4590 C   0  0  0  0  0  2  0  0  0  0  0  0
  185.6380  178.3900  143.1970 C   0  0  0  0  0  2  0  0  0  0  0  0
  184.7690  178.8470  140.8890 C   0  0  0  0  0  1  0  0  0  0  0  0
  184.0280  178.6720  145.0600 C   0  0  0  0  0  3  0  0  0  0  0  0
  184.5250  178.7530  142.3150 N   0  0  0  0  0  0  0  0  0  0  0  0
  182.9300  178.8520  144.1000 C   0  0  0  0  0  3  0  0  0  0  0  0
  183.1820  178.8930  142.7950 C   0  0  0  0  0  3  0  0  0  0  0  0
  185.2940  178.4870  144.6630 C   0  0  0  0  0  0  0  0  0  0  0  0
  189.2060  178.1270  139.0640 O   0  0  0  0  0  0  0  0  0  0  0  0
  188.8780  178.8600  137.9250 C   0  0  0  0  0  3  0  0  0  0  0  0
  187.6950  178.7220  137.3360 C   0  0  0  0  0  3  0  0  0  0  0  0
  186.6670  177.7790  137.8570 C   0  0  0  0  0  2  0  0  0  0  0  0
  185.9170  177.2720  136.7930 O   0  0  0  0  0  0  0  0  0  0  0  0
  184.6070  177.2360  137.2670 C   0  0  0  0  0  1  0  0  0  0  0  0
  1  2  1  1  0  0  0
  1 17  1  0  0  0  0
  3  9  1  0  0  0  0
  3  2  1  1  0  0  0
  4  6  1  0  0  0  0
  5  8  1  0  0  0  0
  6  8  2  0  0  0  0
  7  4  2  0  0  0  0
  7  9  1  0  0  0  0
  9  5  2  0  0  0  0
 10 11  1  0  0  0  0
 11 12  1  0  0  0  0
 11  3  1  0  0  0  0
 13 16  1  0  0  0  0
 13 12  1  0  0  0  0
 15 14  1  0  0  0  0
 16 15  1  0  0  0  0
 16 14  1  0  0  0  0
 17 18  1  0  0  0  0
 18 22  1  0  0  0  0
 19 28  1  0  0  0  0
 20 27  1  0  0  0  0
 21 20  1  0  0  0  0
 21 25  2  0  0  0  0
 22 26  1  0  0  0  0
 22 21  1  0  0  0  0
 23 25  1  0  0  0  0
 25 28  1  0  0  0  0
 26 23  2  0  0  0  0
 27 24  1  0  0  0  0
 27 19  2  0  0  0  0
 29 35  1  0  0  0  0
 30 32  1  0  0  0  0
 32 34  1  0  0  0  0
 32 29  1  0  0  0  0
 33 31  1  0  0  0  0
 34 33  2  0  0  0  0
 35 31  2  0  0  0  0
 35 24  1  0  0  0  0
 36  1  1  0  0  0  0
 37 36  1  0  0  0  0
 38 39  1  0  0  0  0
 38 37  2  0  0  0  0
 40 41  1  0  0  0  0
 40 39  1  0  0  0  0
M  END
>  <MODEL>
9

>  <REMARK>
 VINA RESULT:      -6.9      3.510      9.220
  Name = 
  15 active torsions:
  status: ('A' for Active; 'I' for Inactive)
    1  A    between atoms: C_1  and  O_29
    2  A    between atoms: C_1  and  C_38
    3  A    between atoms: C_4  and  N_20
    4  A    between atoms: C_4  and  C_22
    5  A    between atoms: C_6  and  O_24
    6  A    between atoms: C_7  and  C_14
    7  A    between atoms: C_7  and  C_22
    8  A    between atoms: C_7  and  O_24
    9  A    between atoms: C_8  and  N_18
   10  A    between atoms: C_8  and  C_21
   11  A    between atoms: C_14  and  C_19
   12  A    between atoms: N_18  and  C_19
   13  A    between atoms: C_19  and  C_37
   14  A    between atoms: C_21  and  C_27
   15  A    between atoms: N_26  and  C_41
                            x       y       z     vdW  Elec       q    Type
                         _______ _______ _______ _____ _____    ______ ____

>  <TORSDO>
F 15

$$$$
