=
 OpenBabel10232410203D

 61 68  0  0  1  0  0  0  0  0999 V2000
  189.2750  178.3750  139.2330 S   0  0  0  0  0  0  0  0  0  0  0  0
  186.7820  178.4080  139.0290 C   0  0  0  0  0  0  0  0  0  0  0  0
  187.2670  178.5120  137.7190 C   0  0  0  0  0  3  0  0  0  0  0  0
  187.7770  178.3380  139.9990 C   0  0  0  0  0  0  0  0  0  0  0  0
  188.6570  178.5170  137.6750 C   0  0  0  0  0  0  0  0  0  0  0  0
  187.5560  178.2120  141.4730 C   0  0  0  0  0  2  0  0  0  0  0  0
  188.8500  177.9740  142.1720 C   0  0  0  0  0  3  0  0  0  0  0  0
  188.9640  178.2420  143.4310 N   0  0  0  0  0  0  0  0  0  0  0  0
  190.1780  178.0080  144.1540 C   0  0  0  0  0  0  0  0  0  0  0  0
  190.1580  177.2370  145.3580 N   0  0  0  0  0  0  0  0  0  0  0  0
  191.2700  178.4970  143.7440 O   0  0  0  0  0  0  0  0  0  0  0  0
  191.1790  176.4740  147.3110 O   0  0  0  0  0  1  0  0  0  0  0  0
  191.4030  176.7860  145.9680 C   0  0  0  0  0  2  0  0  0  0  0  0
  188.9010  176.9860  146.0510 C   0  0  0  0  0  2  0  0  0  0  0  0
  188.5470  178.1860  146.9280 C   0  0  0  0  0  2  0  0  0  0  0  0
  187.2190  177.9640  147.6400 C   0  0  0  0  0  2  0  0  0  0  0  0
  184.8870  178.4320  147.4820 O   0  0  0  0  0  1  0  0  0  0  0  0
  186.1410  178.8730  147.0560 C   0  0  2  0  0  3  0  0  0  0  0  0
  186.1930  178.8450  145.5330 C   0  0  0  0  0  2  0  0  0  0  0  0
  184.8330  179.1580  144.9240 C   0  0  1  0  0  3  0  0  0  0  0  0
  184.8530  180.4590  144.4160 O   0  0  0  0  0  1  0  0  0  0  0  0
  184.5320  178.1740  143.8010 C   0  0  0  0  0  2  0  0  0  0  0  0
  183.5540  178.7860  142.8160 C   0  0  0  0  0  1  0  0  0  0  0  0
  189.4710  178.5670  136.4250 C   0  0  0  0  0  2  0  0  0  0  0  0
  188.9290  177.5800  135.4030 C   0  0  0  0  0  2  0  0  0  0  0  0
  190.0660  177.0230  134.5600 C   0  0  0  0  0  2  0  0  0  0  0  0
  190.8750  173.3620  136.6950 C   0  0  0  0  0  2  0  0  0  0  0  0
  189.6630  174.5810  134.7840 C   0  0  1  0  0  3  0  0  0  0  0  0
  192.2610  173.2690  136.0880 C   0  0  0  0  0  2  0  0  0  0  0  0
  192.7160  176.5970  134.3470 O   0  0  0  0  0  1  0  0  0  0  0  0
  190.6050  175.7280  135.1640 C   0  0  1  0  0  3  0  0  0  0  0  0
  189.8340  173.2860  135.5930 C   0  0  2  0  0  3  0  0  0  0  0  0
  188.7220  174.2550  135.9330 C   0  0  0  0  0  2  0  0  0  0  0  0
  192.8390  174.6470  135.7420 C   0  0  2  0  0  3  0  0  0  0  0  0
  192.0340  175.4190  134.6780 C   0  0  2  0  0  3  0  0  0  0  0  0
  197.1650  174.4670  136.0600 C   0  0  1  0  0  3  0  0  0  0  0  0
  195.0780  175.7960  135.6740 C   0  0  0  0  0  2  0  0  0  0  0  0
  196.5660  175.6820  135.3390 C   0  0  1  0  0  3  0  0  0  0  0  0
  194.3150  174.5090  135.3420 C   0  0  1  0  0  3  0  0  0  0  0  0
  194.9680  173.2850  136.0020 C   0  0  0  0  0  2  0  0  0  0  0  0
  197.2020  176.8490  135.7790 O   0  0  0  0  0  1  0  0  0  0  0  0
  196.4400  173.1990  135.6260 C   0  0  0  0  0  2  0  0  0  0  0  0
  198.6530  174.2970  135.7640 C   0  0  0  0  0  2  0  0  0  0  0  0
  199.8700  171.8060  135.6810 O   0  0  0  0  0  1  0  0  0  0  0  0
  199.4490  173.7960  136.9750 C   0  0  1  0  0  0  0  0  0  0  0  0
  198.9600  172.5810  137.7340 C   0  0  0  0  0  2  0  0  0  0  0  0
  200.2020  172.4770  136.8610 C   0  0  1  0  0  3  0  0  0  0  0  0
  200.0890  174.7460  137.7750 O   0  0  0  0  0  1  0  0  0  0  0  0
  185.0310  178.3490  139.3970 S   0  0  0  0  0  0  0  0  0  0  0  0
  180.3060  176.6870  137.7060 C   0  0  0  0  0  2  0  0  0  0  0  0
  183.3430  177.4200  137.3100 C   0  0  1  0  0  0  0  0  0  0  0  0
  179.9870  177.7590  136.6650 C   0  0  0  0  0  2  0  0  0  0  0  0
  181.2690  179.0600  136.4500 S   0  0  0  0  0  0  0  0  0  0  0  0
  182.7640  176.0440  136.9750 C   0  0  1  0  0  3  0  0  0  0  0  0
  182.4130  178.5770  137.7840 C   0  0  1  0  0  3  0  0  0  0  0  0
  183.4850  176.3010  138.2990 C   0  0  1  0  0  3  0  0  0  0  0  0
  184.6820  177.2080  138.0170 C   0  0  2  0  0  3  0  0  0  0  0  0
  181.2940  175.6430  137.2100 C   0  0  0  0  0  2  0  0  0  0  0  0
  181.7590  178.6960  139.1740 C   0  0  0  0  0  3  0  0  0  0  0  0
  181.9410  179.9780  139.6650 F   0  0  0  0  0  0  0  0  0  0  0  0
  182.1760  177.7680  140.1070 F   0  0  0  0  0  0  0  0  0  0  0  0
  1  4  1  0  0  0  0
  2 49  1  0  0  0  0
  2  4  2  0  0  0  0
  3  2  1  0  0  0  0
  4  6  1  0  0  0  0
  5  3  2  0  0  0  0
  5  1  1  0  0  0  0
  6  7  1  0  0  0  0
  7  8  2  0  0  0  0
  8  9  1  0  0  0  0
  9 10  1  0  0  0  0
 10 13  1  0  0  0  0
 10 14  1  0  0  0  0
 11  9  2  0  0  0  0
 13 12  1  0  0  0  0
 14 15  1  0  0  0  0
 15 16  1  0  0  0  0
 18 17  1  6  0  0  0
 18 16  1  0  0  0  0
 19 18  1  0  0  0  0
 20 21  1  6  0  0  0
 20 19  1  0  0  0  0
 22 20  1  0  0  0  0
 23 22  1  0  0  0  0
 24  5  1  0  0  0  0
 25 24  1  0  0  0  0
 26 25  1  0  0  0  0
 28 31  1  0  0  0  0
 28 32  1  0  0  0  0
 28 33  1  1  0  0  0
 29 27  1  0  0  0  0
 31 26  1  6  0  0  0
 32 33  1  1  0  0  0
 32 27  1  0  0  0  0
 34 29  1  6  0  0  0
 35 30  1  1  0  0  0
 35 31  1  0  0  0  0
 35 34  1  0  0  0  0
 36 43  1  6  0  0  0
 38 37  1  0  0  0  0
 38 41  1  1  0  0  0
 38 36  1  0  0  0  0
 39 37  1  1  0  0  0
 39 34  1  0  0  0  0
 39 40  1  0  0  0  0
 42 40  1  0  0  0  0
 42 36  1  0  0  0  0
 43 45  1  0  0  0  0
 45 46  1  0  0  0  0
 45 48  1  1  0  0  0
 47 44  1  6  0  0  0
 47 45  1  0  0  0  0
 47 46  1  0  0  0  0
 51 55  1  0  0  0  0
 51 57  1  0  0  0  0
 51 56  1  0  0  0  0
 52 50  1  0  0  0  0
 53 52  1  0  0  0  0
 53 55  1  0  0  0  0
 54 58  1  0  0  0  0
 54 51  1  0  0  0  0
 54 56  1  0  0  0  0
 55 59  1  0  0  0  0
 57 56  1  0  0  0  0
 57 49  1  0  0  0  0
 58 50  1  0  0  0  0
 59 60  1  0  0  0  0
 59 61  1  0  0  0  0
M  END
>  <MODEL>
1

>  <REMARK>
 VINA RESULT:      -6.4      0.000      0.000
  Name = 
  21 active torsions:
  status: ('A' for Active; 'I' for Inactive)
    1  A    between atoms: C_2  and  C_50
    2  A    between atoms: C_3  and  C_8
    3  A    between atoms: C_4  and  N_57
    4  A    between atoms: C_5  and  C_27
    5  A    between atoms: C_5  and  C_45
    6  A    between atoms: C_8  and  C_14
    7  A    between atoms: C_13  and  C_50
    8  A    between atoms: C_14  and  C_27
    9  A    between atoms: C_20  and  C_33
   10  A    between atoms: C_21  and  S_51
   11  A    between atoms: C_22  and  C_47
   12  A    between atoms: C_24  and  C_28
   13  A    between atoms: C_28  and  C_52
   14  A    between atoms: N_29  and  C_37
   15  A    between atoms: N_29  and  C_39
   16  A    between atoms: C_31  and  C_43
   17  A    between atoms: C_33  and  C_40
   18  A    between atoms: C_37  and  C_45
   19  A    between atoms: C_38  and  C_52
   20  A    between atoms: C_38  and  C_55
   21  A    between atoms: C_48  and  S_51
                            x       y       z     vdW  Elec       q    Type
                         _______ _______ _______ _____ _____    ______ ____

>  <TORSDO>
F 21

$$$$
=
 OpenBabel10232410203D

 61 68  0  0  1  0  0  0  0  0999 V2000
  191.4080  175.8500  138.5340 S   0  0  0  0  0  0  0  0  0  0  0  0
  189.5210  176.3240  136.9610 C   0  0  0  0  0  0  0  0  0  0  0  0
  189.3130  177.1650  138.0610 C   0  0  0  0  0  3  0  0  0  0  0  0
  190.6440  175.5100  137.0740 C   0  0  0  0  0  0  0  0  0  0  0  0
  190.2900  177.0040  139.0360 C   0  0  0  0  0  0  0  0  0  0  0  0
  191.1190  174.5240  136.0530 C   0  0  0  0  0  2  0  0  0  0  0  0
  192.5400  174.7910  135.6960 C   0  0  0  0  0  3  0  0  0  0  0  0
  192.9550  176.0080  135.5640 N   0  0  0  0  0  0  0  0  0  0  0  0
  194.3160  176.3190  135.2450 C   0  0  0  0  0  0  0  0  0  0  0  0
  195.3780  175.5400  135.8040 N   0  0  0  0  0  0  0  0  0  0  0  0
  194.5890  177.2920  134.4850 O   0  0  0  0  0  0  0  0  0  0  0  0
  197.5210  176.3390  136.2590 O   0  0  0  0  0  1  0  0  0  0  0  0
  196.7410  175.6820  135.3050 C   0  0  0  0  0  2  0  0  0  0  0  0
  195.1340  174.6780  136.9520 C   0  0  0  0  0  2  0  0  0  0  0  0
  195.6620  173.2730  136.6640 C   0  0  0  0  0  2  0  0  0  0  0  0
  195.7970  172.4700  137.9510 C   0  0  0  0  0  2  0  0  0  0  0  0
  195.0830  170.3250  138.7100 O   0  0  0  0  0  1  0  0  0  0  0  0
  195.7320  170.9740  137.6570 C   0  0  2  0  0  3  0  0  0  0  0  0
  197.1360  170.4030  137.5050 C   0  0  0  0  0  2  0  0  0  0  0  0
  197.3560  169.8310  136.1110 C   0  0  1  0  0  3  0  0  0  0  0  0
  196.2750  170.1860  135.3000 O   0  0  0  0  0  1  0  0  0  0  0  0
  198.6440  170.3880  135.5210 C   0  0  0  0  0  2  0  0  0  0  0  0
  199.0490  171.6560  136.2480 C   0  0  0  0  0  1  0  0  0  0  0  0
  190.3730  177.7900  140.3020 C   0  0  0  0  0  2  0  0  0  0  0  0
  191.1490  177.0150  141.3550 C   0  0  0  0  0  2  0  0  0  0  0  0
  190.2330  176.0220  142.0540 C   0  0  0  0  0  2  0  0  0  0  0  0
  189.2670  177.1620  146.1020 C   0  0  0  0  0  2  0  0  0  0  0  0
  190.8370  177.3380  144.0750 C   0  0  1  0  0  3  0  0  0  0  0  0
  188.1440  178.0610  145.6220 C   0  0  0  0  0  2  0  0  0  0  0  0
  187.8350  177.2420  141.9420 O   0  0  0  0  0  1  0  0  0  0  0  0
  189.6960  176.6060  143.3600 C   0  0  1  0  0  3  0  0  0  0  0  0
  190.5890  177.6690  145.5540 C   0  0  2  0  0  3  0  0  0  0  0  0
  191.4280  176.4670  145.1740 C   0  0  0  0  0  2  0  0  0  0  0  0
  187.5360  177.5770  144.3000 C   0  0  2  0  0  3  0  0  0  0  0  0
  188.5230  177.5750  143.1150 C   0  0  2  0  0  3  0  0  0  0  0  0
  183.6180  178.5970  142.7330 C   0  0  1  0  0  3  0  0  0  0  0  0
  186.1060  178.5360  142.4630 C   0  0  0  0  0  2  0  0  0  0  0  0
  184.8290  179.2930  142.0970 C   0  0  1  0  0  3  0  0  0  0  0  0
  186.2720  178.3870  143.9790 C   0  0  1  0  0  3  0  0  0  0  0  0
  185.0220  177.7650  144.6200 C   0  0  0  0  0  2  0  0  0  0  0  0
  184.6990  179.2790  140.7030 O   0  0  0  0  0  1  0  0  0  0  0  0
  183.7800  178.5600  144.2480 C   0  0  0  0  0  2  0  0  0  0  0  0
  182.3070  179.3080  142.4050 C   0  0  0  0  0  2  0  0  0  0  0  0
  179.9830  177.7970  142.4720 O   0  0  0  0  0  1  0  0  0  0  0  0
  181.6760  178.8220  141.0950 C   0  0  1  0  0  0  0  0  0  0  0  0
  181.6140  177.3370  140.8080 C   0  0  0  0  0  2  0  0  0  0  0  0
  180.3390  178.0930  141.1540 C   0  0  1  0  0  3  0  0  0  0  0  0
  181.8380  179.6150  139.9570 O   0  0  0  0  0  1  0  0  0  0  0  0
  188.4390  176.3280  135.5350 S   0  0  0  0  0  0  0  0  0  0  0  0
  183.9040  174.6480  137.6680 C   0  0  0  0  0  2  0  0  0  0  0  0
  186.4020  174.3630  135.7730 C   0  0  1  0  0  0  0  0  0  0  0  0
  183.0340  174.5250  136.4180 C   0  0  0  0  0  2  0  0  0  0  0  0
  183.8560  174.9680  134.8350 S   0  0  0  0  0  0  0  0  0  0  0  0
  186.0600  173.3470  136.8640 C   0  0  1  0  0  3  0  0  0  0  0  0
  185.4530  175.5630  135.4820 C   0  0  1  0  0  3  0  0  0  0  0  0
  187.1030  174.4400  137.0970 C   0  0  1  0  0  3  0  0  0  0  0  0
  187.9120  174.6030  135.8110 C   0  0  2  0  0  3  0  0  0  0  0  0
  184.8750  173.4900  137.8400 C   0  0  0  0  0  2  0  0  0  0  0  0
  185.2840  176.8150  136.3660 C   0  0  0  0  0  3  0  0  0  0  0  0
  184.1060  177.4610  136.0350 F   0  0  0  0  0  0  0  0  0  0  0  0
  186.3370  177.7060  136.3370 F   0  0  0  0  0  0  0  0  0  0  0  0
  1  5  1  0  0  0  0
  2  4  2  0  0  0  0
  2  3  1  0  0  0  0
  3  5  2  0  0  0  0
  4  1  1  0  0  0  0
  5 24  1  0  0  0  0
  6  4  1  0  0  0  0
  7  6  1  0  0  0  0
  8  7  2  0  0  0  0
  9  8  1  0  0  0  0
  9 10  1  0  0  0  0
 10 14  1  0  0  0  0
 11  9  2  0  0  0  0
 13 10  1  0  0  0  0
 13 12  1  0  0  0  0
 15 14  1  0  0  0  0
 15 16  1  0  0  0  0
 18 16  1  0  0  0  0
 18 17  1  1  0  0  0
 19 18  1  0  0  0  0
 20 21  1  6  0  0  0
 20 19  1  0  0  0  0
 22 20  1  0  0  0  0
 22 23  1  0  0  0  0
 24 25  1  0  0  0  0
 25 26  1  0  0  0  0
 28 33  1  1  0  0  0
 28 32  1  0  0  0  0
 29 27  1  0  0  0  0
 31 26  1  6  0  0  0
 31 28  1  0  0  0  0
 32 33  1  1  0  0  0
 32 27  1  0  0  0  0
 34 29  1  1  0  0  0
 35 30  1  6  0  0  0
 35 31  1  0  0  0  0
 35 34  1  0  0  0  0
 36 43  1  1  0  0  0
 36 42  1  0  0  0  0
 38 41  1  6  0  0  0
 38 37  1  0  0  0  0
 38 36  1  0  0  0  0
 39 37  1  6  0  0  0
 39 34  1  0  0  0  0
 39 40  1  0  0  0  0
 42 40  1  0  0  0  0
 45 48  1  6  0  0  0
 45 47  1  0  0  0  0
 45 43  1  0  0  0  0
 46 45  1  0  0  0  0
 46 47  1  0  0  0  0
 47 44  1  1  0  0  0
 49 57  1  0  0  0  0
 49  2  1  0  0  0  0
 50 58  1  0  0  0  0
 51 57  1  0  0  0  0
 51 54  1  0  0  0  0
 51 56  1  0  0  0  0
 52 50  1  0  0  0  0
 53 55  1  0  0  0  0
 53 52  1  0  0  0  0
 54 56  1  0  0  0  0
 54 58  1  0  0  0  0
 55 51  1  0  0  0  0
 55 59  1  0  0  0  0
 57 56  1  0  0  0  0
 60 59  1  0  0  0  0
 61 59  1  0  0  0  0
M  END
>  <MODEL>
2

>  <REMARK>
 VINA RESULT:      -6.3      3.201     11.760
  Name = 
  21 active torsions:
  status: ('A' for Active; 'I' for Inactive)
    1  A    between atoms: C_2  and  C_50
    2  A    between atoms: C_3  and  C_8
    3  A    between atoms: C_4  and  N_57
    4  A    between atoms: C_5  and  C_27
    5  A    between atoms: C_5  and  C_45
    6  A    between atoms: C_8  and  C_14
    7  A    between atoms: C_13  and  C_50
    8  A    between atoms: C_14  and  C_27
    9  A    between atoms: C_20  and  C_33
   10  A    between atoms: C_21  and  S_51
   11  A    between atoms: C_22  and  C_47
   12  A    between atoms: C_24  and  C_28
   13  A    between atoms: C_28  and  C_52
   14  A    between atoms: N_29  and  C_37
   15  A    between atoms: N_29  and  C_39
   16  A    between atoms: C_31  and  C_43
   17  A    between atoms: C_33  and  C_40
   18  A    between atoms: C_37  and  C_45
   19  A    between atoms: C_38  and  C_52
   20  A    between atoms: C_38  and  C_55
   21  A    between atoms: C_48  and  S_51
                            x       y       z     vdW  Elec       q    Type
                         _______ _______ _______ _____ _____    ______ ____

>  <TORSDO>
F 21

$$$$
=
 OpenBabel10232410203D

 61 68  0  0  1  0  0  0  0  0999 V2000
  186.4110  177.8420  135.8730 S   0  0  0  0  0  0  0  0  0  0  0  0
  187.9020  178.2730  137.8350 C   0  0  0  0  0  0  0  0  0  0  0  0
  186.5950  178.3360  138.3360 C   0  0  0  0  0  3  0  0  0  0  0  0
  187.9740  178.0200  136.4690 C   0  0  0  0  0  0  0  0  0  0  0  0
  185.6440  178.1250  137.3440 C   0  0  0  0  0  0  0  0  0  0  0  0
  189.2310  177.8880  135.6670 C   0  0  0  0  0  2  0  0  0  0  0  0
  189.3000  176.5440  135.0290 C   0  0  0  0  0  3  0  0  0  0  0  0
  189.2680  175.4790  135.7610 N   0  0  0  0  0  0  0  0  0  0  0  0
  189.3080  174.1640  135.1960 C   0  0  0  0  0  0  0  0  0  0  0  0
  188.2780  173.2210  135.5050 N   0  0  0  0  0  0  0  0  0  0  0  0
  190.2610  173.8220  134.4370 O   0  0  0  0  0  0  0  0  0  0  0  0
  188.8650  170.9650  135.4240 O   0  0  0  0  0  1  0  0  0  0  0  0
  188.1690  171.9740  134.7550 C   0  0  0  0  0  2  0  0  0  0  0  0
  187.3950  173.4390  136.6420 C   0  0  0  0  0  2  0  0  0  0  0  0
  186.0490  172.7600  136.3890 C   0  0  0  0  0  2  0  0  0  0  0  0
  184.9550  173.3920  137.2400 C   0  0  0  0  0  2  0  0  0  0  0  0
  183.2190  171.7760  137.4830 O   0  0  0  0  0  1  0  0  0  0  0  0
  183.5800  172.9240  136.7750 C   0  0  2  0  0  3  0  0  0  0  0  0
  183.6040  172.6080  135.2840 C   0  0  0  0  0  2  0  0  0  0  0  0
  182.3450  173.1080  134.5890 C   0  0  1  0  0  3  0  0  0  0  0  0
  181.4170  172.0650  134.5270 O   0  0  0  0  0  1  0  0  0  0  0  0
  181.7530  174.2740  135.3690 C   0  0  0  0  0  2  0  0  0  0  0  0
  180.4410  174.7110  134.7450 C   0  0  0  0  0  1  0  0  0  0  0  0
  184.1700  178.0810  137.5700 C   0  0  0  0  0  2  0  0  0  0  0  0
  183.6550  176.6580  137.4190 C   0  0  0  0  0  2  0  0  0  0  0  0
  183.2920  176.0850  138.7800 C   0  0  0  0  0  2  0  0  0  0  0  0
  180.6100  179.0120  140.4690 C   0  0  0  0  0  2  0  0  0  0  0  0
  181.1160  176.5610  139.8840 C   0  0  1  0  0  3  0  0  0  0  0  0
  181.4800  179.1560  141.7020 C   0  0  0  0  0  2  0  0  0  0  0  0
  184.6150  177.2260  140.8300 O   0  0  0  0  0  1  0  0  0  0  0  0
  182.5210  177.1090  139.6110 C   0  0  1  0  0  3  0  0  0  0  0  0
  180.0890  177.5890  140.3810 C   0  0  2  0  0  3  0  0  0  0  0  0
  180.1070  177.1740  138.9250 C   0  0  0  0  0  2  0  0  0  0  0  0
  182.9570  178.8630  141.4090 C   0  0  2  0  0  3  0  0  0  0  0  0
  183.2320  177.4190  140.9440 C   0  0  2  0  0  3  0  0  0  0  0  0
  185.3550  178.4530  145.0040 C   0  0  1  0  0  3  0  0  0  0  0  0
  183.1240  178.7940  143.9200 C   0  0  0  0  0  2  0  0  0  0  0  0
  183.9710  179.1000  145.1560 C   0  0  1  0  0  3  0  0  0  0  0  0
  183.8150  179.2360  142.6260 C   0  0  1  0  0  3  0  0  0  0  0  0
  185.2320  178.6500  142.5200 C   0  0  0  0  0  2  0  0  0  0  0  0
  183.3220  178.5600  146.2730 O   0  0  0  0  0  1  0  0  0  0  0  0
  186.0450  178.9960  143.7580 C   0  0  0  0  0  2  0  0  0  0  0  0
  186.2530  178.7250  146.2090 C   0  0  0  0  0  2  0  0  0  0  0  0
  187.6040  178.5330  148.6240 O   0  0  0  0  0  1  0  0  0  0  0  0
  187.3460  177.6650  146.3890 C   0  0  1  0  0  0  0  0  0  0  0  0
  188.7780  178.1060  146.6040 C   0  0  0  0  0  2  0  0  0  0  0  0
  187.9910  177.5050  147.7600 C   0  0  1  0  0  3  0  0  0  0  0  0
  187.2210  176.4680  145.6800 O   0  0  0  0  0  1  0  0  0  0  0  0
  189.3380  178.4790  138.8830 S   0  0  0  0  0  0  0  0  0  0  0  0
  190.5370  175.6990  143.2160 C   0  0  0  0  0  2  0  0  0  0  0  0
  189.1660  178.0890  141.6910 C   0  0  1  0  0  0  0  0  0  0  0  0
  191.3040  176.7480  144.0200 C   0  0  0  0  0  2  0  0  0  0  0  0
  191.4700  178.3940  143.2180 S   0  0  0  0  0  0  0  0  0  0  0  0
  188.3910  177.0950  142.5570 C   0  0  1  0  0  3  0  0  0  0  0  0
  190.7200  178.0170  141.6000 C   0  0  1  0  0  3  0  0  0  0  0  0
  188.4580  176.9390  141.0380 C   0  0  1  0  0  3  0  0  0  0  0  0
  188.3590  178.3310  140.4150 C   0  0  2  0  0  3  0  0  0  0  0  0
  189.0290  175.8860  143.2700 C   0  0  0  0  0  2  0  0  0  0  0  0
  191.5300  176.9600  140.8240 C   0  0  0  0  0  3  0  0  0  0  0  0
  192.2950  177.5840  139.8530 F   0  0  0  0  0  0  0  0  0  0  0  0
  190.7880  175.9420  140.2600 F   0  0  0  0  0  0  0  0  0  0  0  0
  1  4  1  0  0  0  0
  1  5  1  0  0  0  0
  2  3  1  0  0  0  0
  2 49  1  0  0  0  0
  4  2  2  0  0  0  0
  5 24  1  0  0  0  0
  5  3  2  0  0  0  0
  6  4  1  0  0  0  0
  7  6  1  0  0  0  0
  7  8  2  0  0  0  0
  9 10  1  0  0  0  0
  9  8  1  0  0  0  0
 10 14  1  0  0  0  0
 11  9  2  0  0  0  0
 13 12  1  0  0  0  0
 13 10  1  0  0  0  0
 15 14  1  0  0  0  0
 15 16  1  0  0  0  0
 18 16  1  0  0  0  0
 18 17  1  1  0  0  0
 19 18  1  0  0  0  0
 20 21  1  1  0  0  0
 20 19  1  0  0  0  0
 20 22  1  0  0  0  0
 23 22  1  0  0  0  0
 25 24  1  0  0  0  0
 25 26  1  0  0  0  0
 27 29  1  0  0  0  0
 28 33  1  6  0  0  0
 28 32  1  0  0  0  0
 31 26  1  1  0  0  0
 31 28  1  0  0  0  0
 31 35  1  0  0  0  0
 32 33  1  6  0  0  0
 32 27  1  0  0  0  0
 34 29  1  1  0  0  0
 34 39  1  0  0  0  0
 35 30  1  6  0  0  0
 35 34  1  0  0  0  0
 36 38  1  0  0  0  0
 36 43  1  1  0  0  0
 37 38  1  0  0  0  0
 38 41  1  1  0  0  0
 39 40  1  6  0  0  0
 39 37  1  0  0  0  0
 40 42  1  0  0  0  0
 42 36  1  0  0  0  0
 43 45  1  0  0  0  0
 45 48  1  6  0  0  0
 45 46  1  0  0  0  0
 45 47  1  0  0  0  0
 46 47  1  0  0  0  0
 47 44  1  1  0  0  0
 49 57  1  0  0  0  0
 50 58  1  0  0  0  0
 50 52  1  0  0  0  0
 51 54  1  0  0  0  0
 53 52  1  0  0  0  0
 54 58  1  0  0  0  0
 55 51  1  0  0  0  0
 55 53  1  0  0  0  0
 56 51  1  0  0  0  0
 56 54  1  0  0  0  0
 57 56  1  0  0  0  0
 57 51  1  0  0  0  0
 59 55  1  0  0  0  0
 60 59  1  0  0  0  0
 61 59  1  0  0  0  0
M  END
>  <MODEL>
3

>  <REMARK>
 VINA RESULT:      -6.2      4.832     11.316
  Name = 
  21 active torsions:
  status: ('A' for Active; 'I' for Inactive)
    1  A    between atoms: C_2  and  C_50
    2  A    between atoms: C_3  and  C_8
    3  A    between atoms: C_4  and  N_57
    4  A    between atoms: C_5  and  C_27
    5  A    between atoms: C_5  and  C_45
    6  A    between atoms: C_8  and  C_14
    7  A    between atoms: C_13  and  C_50
    8  A    between atoms: C_14  and  C_27
    9  A    between atoms: C_20  and  C_33
   10  A    between atoms: C_21  and  S_51
   11  A    between atoms: C_22  and  C_47
   12  A    between atoms: C_24  and  C_28
   13  A    between atoms: C_28  and  C_52
   14  A    between atoms: N_29  and  C_37
   15  A    between atoms: N_29  and  C_39
   16  A    between atoms: C_31  and  C_43
   17  A    between atoms: C_33  and  C_40
   18  A    between atoms: C_37  and  C_45
   19  A    between atoms: C_38  and  C_52
   20  A    between atoms: C_38  and  C_55
   21  A    between atoms: C_48  and  S_51
                            x       y       z     vdW  Elec       q    Type
                         _______ _______ _______ _____ _____    ______ ____

>  <TORSDO>
F 21

$$$$
=
 OpenBabel10232410203D

 61 68  0  0  1  0  0  0  0  0999 V2000
  192.2080  176.5690  139.4640 S   0  0  0  0  0  0  0  0  0  0  0  0
  190.4980  176.5980  137.6390 C   0  0  0  0  0  0  0  0  0  0  0  0
  189.7690  176.5940  138.8350 C   0  0  0  0  0  3  0  0  0  0  0  0
  191.8770  176.5700  137.8140 C   0  0  0  0  0  0  0  0  0  0  0  0
  190.5980  176.5670  139.9520 C   0  0  0  0  0  0  0  0  0  0  0  0
  192.9000  176.5770  136.7220 C   0  0  0  0  0  2  0  0  0  0  0  0
  192.6660  175.4420  135.7850 C   0  0  0  0  0  3  0  0  0  0  0  0
  192.6680  174.2280  136.2280 N   0  0  0  0  0  0  0  0  0  0  0  0
  192.4250  173.1050  135.3740 C   0  0  0  0  0  0  0  0  0  0  0  0
  193.1360  171.8810  135.5800 N   0  0  0  0  0  0  0  0  0  0  0  0
  191.5960  173.1930  134.4220 O   0  0  0  0  0  0  0  0  0  0  0  0
  191.3560  170.4740  135.0410 O   0  0  0  0  0  1  0  0  0  0  0  0
  192.7300  170.6640  134.8850 C   0  0  0  0  0  2  0  0  0  0  0  0
  194.3410  171.8580  136.3980 C   0  0  0  0  0  2  0  0  0  0  0  0
  195.5160  171.3350  135.5720 C   0  0  0  0  0  2  0  0  0  0  0  0
  196.8140  172.0120  135.9880 C   0  0  0  0  0  2  0  0  0  0  0  0
  196.7990  174.3940  135.8830 O   0  0  0  0  0  1  0  0  0  0  0  0
  196.5250  173.3160  136.7270 C   0  0  2  0  0  3  0  0  0  0  0  0
  197.3940  173.4210  137.9750 C   0  0  0  0  0  2  0  0  0  0  0  0
  197.0450  174.6570  138.7920 C   0  0  1  0  0  3  0  0  0  0  0  0
  195.8140  174.4520  139.4200 O   0  0  0  0  0  1  0  0  0  0  0  0
  198.1210  174.9020  139.8420 C   0  0  0  0  0  2  0  0  0  0  0  0
  197.5360  175.6420  141.0300 C   0  0  0  0  0  1  0  0  0  0  0  0
  190.1260  176.6060  141.3670 C   0  0  0  0  0  2  0  0  0  0  0  0
  191.2610  177.0190  142.2910 C   0  0  0  0  0  2  0  0  0  0  0  0
  190.8340  178.1970  143.1520 C   0  0  0  0  0  2  0  0  0  0  0  0
  187.6720  176.7330  145.6970 C   0  0  0  0  0  2  0  0  0  0  0  0
  189.7580  178.2040  145.3930 C   0  0  1  0  0  3  0  0  0  0  0  0
  186.6510  177.6060  144.9970 C   0  0  0  0  0  2  0  0  0  0  0  0
  188.5230  178.9750  142.0080 O   0  0  0  0  0  1  0  0  0  0  0  0
  189.5480  177.8750  143.9110 C   0  0  1  0  0  3  0  0  0  0  0  0
  188.7200  177.6120  146.3580 C   0  0  2  0  0  3  0  0  0  0  0  0
  190.0670  176.9420  146.1840 C   0  0  0  0  0  2  0  0  0  0  0  0
  187.0270  177.8840  143.5360 C   0  0  2  0  0  3  0  0  0  0  0  0
  188.3440  178.6670  143.3620 C   0  0  2  0  0  3  0  0  0  0  0  0
  183.4590  178.4530  141.1290 C   0  0  1  0  0  3  0  0  0  0  0  0
  185.9540  178.3520  141.3060 C   0  0  0  0  0  2  0  0  0  0  0  0
  184.7810  178.9850  140.5570 C   0  0  1  0  0  3  0  0  0  0  0  0
  185.8610  178.5790  142.8190 C   0  0  1  0  0  3  0  0  0  0  0  0
  184.5020  178.1200  143.3710 C   0  0  0  0  0  2  0  0  0  0  0  0
  184.8850  178.6300  139.2070 O   0  0  0  0  0  1  0  0  0  0  0  0
  183.3650  178.7880  142.6120 C   0  0  0  0  0  2  0  0  0  0  0  0
  182.2450  179.0500  140.4220 C   0  0  0  0  0  2  0  0  0  0  0  0
  182.0550  176.5510  139.2340 O   0  0  0  0  0  1  0  0  0  0  0  0
  180.9740  178.2120  140.6070 C   0  0  1  0  0  0  0  0  0  0  0  0
  180.1080  177.9020  139.4050 C   0  0  0  0  0  2  0  0  0  0  0  0
  180.9420  176.7980  140.0410 C   0  0  1  0  0  3  0  0  0  0  0  0
  180.2600  178.3620  141.7980 O   0  0  0  0  0  1  0  0  0  0  0  0
  189.7020  176.6590  136.0360 S   0  0  0  0  0  0  0  0  0  0  0  0
  184.7290  175.3390  134.8250 C   0  0  0  0  0  2  0  0  0  0  0  0
  186.9660  176.4190  136.7600 C   0  0  1  0  0  0  0  0  0  0  0  0
  184.4700  174.2410  135.8550 C   0  0  0  0  0  2  0  0  0  0  0  0
  185.8700  173.8740  136.9890 S   0  0  0  0  0  0  0  0  0  0  0  0
  185.7180  177.2250  136.3910 C   0  0  1  0  0  3  0  0  0  0  0  0
  187.1410  174.9550  136.2570 C   0  0  1  0  0  3  0  0  0  0  0  0
  187.0510  177.4560  135.6790 C   0  0  1  0  0  3  0  0  0  0  0  0
  188.1660  177.3670  136.7200 C   0  0  2  0  0  3  0  0  0  0  0  0
  184.6360  176.7420  135.4050 C   0  0  0  0  0  2  0  0  0  0  0  0
  187.4950  174.5330  134.8170 C   0  0  0  0  0  3  0  0  0  0  0  0
  187.3520  173.1620  134.6870 F   0  0  0  0  0  0  0  0  0  0  0  0
  188.7420  174.9230  134.3740 F   0  0  0  0  0  0  0  0  0  0  0  0
  1  5  1  0  0  0  0
  2  4  2  0  0  0  0
  2  3  1  0  0  0  0
  3  5  2  0  0  0  0
  4  1  1  0  0  0  0
  5 24  1  0  0  0  0
  6  4  1  0  0  0  0
  7  8  2  0  0  0  0
  7  6  1  0  0  0  0
  9 10  1  0  0  0  0
  9  8  1  0  0  0  0
 10 14  1  0  0  0  0
 11  9  2  0  0  0  0
 13 12  1  0  0  0  0
 13 10  1  0  0  0  0
 15 16  1  0  0  0  0
 15 14  1  0  0  0  0
 16 18  1  0  0  0  0
 18 17  1  6  0  0  0
 18 19  1  0  0  0  0
 19 20  1  0  0  0  0
 20 21  1  1  0  0  0
 20 22  1  0  0  0  0
 22 23  1  0  0  0  0
 24 25  1  0  0  0  0
 25 26  1  0  0  0  0
 28 33  1  1  0  0  0
 28 32  1  0  0  0  0
 29 27  1  0  0  0  0
 31 26  1  6  0  0  0
 31 28  1  0  0  0  0
 32 27  1  6  0  0  0
 33 32  1  0  0  0  0
 34 29  1  1  0  0  0
 35 30  1  6  0  0  0
 35 34  1  0  0  0  0
 35 31  1  0  0  0  0
 36 43  1  6  0  0  0
 36 42  1  0  0  0  0
 38 41  1  6  0  0  0
 38 36  1  0  0  0  0
 38 37  1  0  0  0  0
 39 37  1  6  0  0  0
 39 40  1  0  0  0  0
 39 34  1  0  0  0  0
 42 40  1  0  0  0  0
 43 45  1  0  0  0  0
 45 48  1  1  0  0  0
 46 47  1  0  0  0  0
 46 45  1  0  0  0  0
 47 44  1  6  0  0  0
 47 45  1  0  0  0  0
 49 57  1  0  0  0  0
 49  2  1  0  0  0  0
 50 58  1  0  0  0  0
 50 52  1  0  0  0  0
 52 53  1  0  0  0  0
 54 51  1  0  0  0  0
 55 51  1  0  0  0  0
 55 53  1  0  0  0  0
 56 54  1  0  0  0  0
 56 57  1  0  0  0  0
 56 51  1  0  0  0  0
 57 51  1  0  0  0  0
 58 54  1  0  0  0  0
 59 55  1  0  0  0  0
 60 59  1  0  0  0  0
 61 59  1  0  0  0  0
M  END
>  <MODEL>
4

>  <REMARK>
 VINA RESULT:      -5.7      3.655     11.699
  Name = 
  21 active torsions:
  status: ('A' for Active; 'I' for Inactive)
    1  A    between atoms: C_2  and  C_50
    2  A    between atoms: C_3  and  C_8
    3  A    between atoms: C_4  and  N_57
    4  A    between atoms: C_5  and  C_27
    5  A    between atoms: C_5  and  C_45
    6  A    between atoms: C_8  and  C_14
    7  A    between atoms: C_13  and  C_50
    8  A    between atoms: C_14  and  C_27
    9  A    between atoms: C_20  and  C_33
   10  A    between atoms: C_21  and  S_51
   11  A    between atoms: C_22  and  C_47
   12  A    between atoms: C_24  and  C_28
   13  A    between atoms: C_28  and  C_52
   14  A    between atoms: N_29  and  C_37
   15  A    between atoms: N_29  and  C_39
   16  A    between atoms: C_31  and  C_43
   17  A    between atoms: C_33  and  C_40
   18  A    between atoms: C_37  and  C_45
   19  A    between atoms: C_38  and  C_52
   20  A    between atoms: C_38  and  C_55
   21  A    between atoms: C_48  and  S_51
                            x       y       z     vdW  Elec       q    Type
                         _______ _______ _______ _____ _____    ______ ____

>  <TORSDO>
F 21

$$$$
=
 OpenBabel10232410203D

 61 68  0  0  1  0  0  0  0  0999 V2000
  186.5270  177.9350  135.8260 S   0  0  0  0  0  0  0  0  0  0  0  0
  187.9510  178.2010  137.8660 C   0  0  0  0  0  0  0  0  0  0  0  0
  186.6280  178.2120  138.3280 C   0  0  0  0  0  3  0  0  0  0  0  0
  188.0690  178.0690  136.4860 C   0  0  0  0  0  0  0  0  0  0  0  0
  185.7110  178.0820  137.2910 C   0  0  0  0  0  0  0  0  0  0  0  0
  189.3520  178.0160  135.7180 C   0  0  0  0  0  2  0  0  0  0  0  0
  189.5400  176.6660  135.1160 C   0  0  0  0  0  3  0  0  0  0  0  0
  189.5130  175.6140  135.8670 N   0  0  0  0  0  0  0  0  0  0  0  0
  189.6650  174.2940  135.3340 C   0  0  0  0  0  0  0  0  0  0  0  0
  190.9450  173.8480  134.8790 N   0  0  0  0  0  0  0  0  0  0  0  0
  188.6670  173.5210  135.2450 O   0  0  0  0  0  0  0  0  0  0  0  0
  192.2840  171.9790  135.2680 O   0  0  0  0  0  1  0  0  0  0  0  0
  191.1700  172.4420  134.5650 C   0  0  0  0  0  2  0  0  0  0  0  0
  192.0090  174.8080  134.6150 C   0  0  0  0  0  2  0  0  0  0  0  0
  193.2300  174.4730  135.4690 C   0  0  0  0  0  2  0  0  0  0  0  0
  193.3250  175.4050  136.6690 C   0  0  0  0  0  2  0  0  0  0  0  0
  194.3000  175.6800  138.8270 O   0  0  0  0  0  1  0  0  0  0  0  0
  194.2030  174.7910  137.7550 C   0  0  2  0  0  3  0  0  0  0  0  0
  195.5980  174.5070  137.2110 C   0  0  0  0  0  2  0  0  0  0  0  0
  196.2810  173.3900  137.9880 C   0  0  1  0  0  3  0  0  0  0  0  0
  195.5700  173.1580  139.1680 O   0  0  0  0  0  1  0  0  0  0  0  0
  196.3100  172.1200  137.1490 C   0  0  0  0  0  2  0  0  0  0  0  0
  195.5440  171.0120  137.8470 C   0  0  0  0  0  1  0  0  0  0  0  0
  184.2310  178.0100  137.4640 C   0  0  0  0  0  2  0  0  0  0  0  0
  183.7490  176.5780  137.2930 C   0  0  0  0  0  2  0  0  0  0  0  0
  183.3520  175.9950  138.6400 C   0  0  0  0  0  2  0  0  0  0  0  0
  180.3810  178.7290  140.1590 C   0  0  0  0  0  2  0  0  0  0  0  0
  181.1120  176.3150  139.6690 C   0  0  1  0  0  3  0  0  0  0  0  0
  181.1990  178.9860  141.4090 C   0  0  0  0  0  2  0  0  0  0  0  0
  184.5120  177.3090  140.6850 O   0  0  0  0  0  1  0  0  0  0  0  0
  182.4730  176.9730  139.4160 C   0  0  1  0  0  3  0  0  0  0  0  0
  179.9860  177.2640  140.1060 C   0  0  2  0  0  3  0  0  0  0  0  0
  180.0820  176.8080  138.6640 C   0  0  0  0  0  2  0  0  0  0  0  0
  182.7040  178.8130  141.1650 C   0  0  2  0  0  3  0  0  0  0  0  0
  183.1150  177.3840  140.7550 C   0  0  2  0  0  3  0  0  0  0  0  0
  185.3120  178.7580  144.6340 C   0  0  1  0  0  3  0  0  0  0  0  0
  183.0180  178.5630  143.6500 C   0  0  0  0  0  2  0  0  0  0  0  0
  183.8140  178.9770  144.8880 C   0  0  1  0  0  3  0  0  0  0  0  0
  183.4910  179.2960  142.3910 C   0  0  1  0  0  3  0  0  0  0  0  0
  185.0060  179.1400  142.1880 C   0  0  0  0  0  2  0  0  0  0  0  0
  183.3990  178.1790  145.9610 O   0  0  0  0  0  1  0  0  0  0  0  0
  185.7590  179.5830  143.4340 C   0  0  0  0  0  2  0  0  0  0  0  0
  186.1650  179.1560  145.8370 C   0  0  0  0  0  2  0  0  0  0  0  0
  187.0300  179.4050  148.4600 O   0  0  0  0  0  1  0  0  0  0  0  0
  186.7880  177.9520  146.5520 C   0  0  1  0  0  0  0  0  0  0  0  0
  188.2420  178.0070  146.9690 C   0  0  0  0  0  2  0  0  0  0  0  0
  187.1490  178.0820  148.0260 C   0  0  1  0  0  3  0  0  0  0  0  0
  186.3500  176.6760  146.1870 O   0  0  0  0  0  1  0  0  0  0  0  0
  189.3510  178.3230  138.9750 S   0  0  0  0  0  0  0  0  0  0  0  0
  190.2550  176.1630  143.7150 C   0  0  0  0  0  2  0  0  0  0  0  0
  189.0240  178.3370  141.7970 C   0  0  1  0  0  0  0  0  0  0  0  0
  191.0050  177.3020  144.4040 C   0  0  0  0  0  2  0  0  0  0  0  0
  191.2530  178.8150  143.3900 S   0  0  0  0  0  0  0  0  0  0  0  0
  188.1810  177.4880  142.7500 C   0  0  1  0  0  3  0  0  0  0  0  0
  190.5780  178.2260  141.8020 C   0  0  1  0  0  3  0  0  0  0  0  0
  188.3230  177.1180  141.2740 C   0  0  1  0  0  3  0  0  0  0  0  0
  188.2900  178.4090  140.4570 C   0  0  2  0  0  3  0  0  0  0  0  0
  188.7520  176.3810  143.6590 C   0  0  0  0  0  2  0  0  0  0  0  0
  191.4010  177.0560  141.2270 C   0  0  0  0  0  3  0  0  0  0  0  0
  192.6370  177.0090  141.8480 F   0  0  0  0  0  0  0  0  0  0  0  0
  191.5600  177.0610  139.8560 F   0  0  0  0  0  0  0  0  0  0  0  0
  1  4  1  0  0  0  0
  1  5  1  0  0  0  0
  2  3  1  0  0  0  0
  2 49  1  0  0  0  0
  4  2  2  0  0  0  0
  5 24  1  0  0  0  0
  5  3  2  0  0  0  0
  6  4  1  0  0  0  0
  7  6  1  0  0  0  0
  7  8  2  0  0  0  0
  9  8  1  0  0  0  0
 10  9  1  0  0  0  0
 11  9  2  0  0  0  0
 13 10  1  0  0  0  0
 13 12  1  0  0  0  0
 14 10  1  0  0  0  0
 14 15  1  0  0  0  0
 15 16  1  0  0  0  0
 16 18  1  0  0  0  0
 18 17  1  1  0  0  0
 19 18  1  0  0  0  0
 19 20  1  0  0  0  0
 20 21  1  1  0  0  0
 22 23  1  0  0  0  0
 22 20  1  0  0  0  0
 25 24  1  0  0  0  0
 25 26  1  0  0  0  0
 27 29  1  0  0  0  0
 28 33  1  6  0  0  0
 28 32  1  0  0  0  0
 31 26  1  1  0  0  0
 31 28  1  0  0  0  0
 31 35  1  0  0  0  0
 32 33  1  6  0  0  0
 32 27  1  0  0  0  0
 34 29  1  1  0  0  0
 34 39  1  0  0  0  0
 35 30  1  6  0  0  0
 35 34  1  0  0  0  0
 36 38  1  0  0  0  0
 36 43  1  1  0  0  0
 37 38  1  0  0  0  0
 38 41  1  1  0  0  0
 39 40  1  6  0  0  0
 39 37  1  0  0  0  0
 40 42  1  0  0  0  0
 42 36  1  0  0  0  0
 43 45  1  0  0  0  0
 45 48  1  6  0  0  0
 45 46  1  0  0  0  0
 45 47  1  0  0  0  0
 46 47  1  0  0  0  0
 47 44  1  6  0  0  0
 49 57  1  0  0  0  0
 50 52  1  0  0  0  0
 51 55  1  0  0  0  0
 51 54  1  0  0  0  0
 53 52  1  0  0  0  0
 54 58  1  0  0  0  0
 55 53  1  0  0  0  0
 56 51  1  0  0  0  0
 56 54  1  0  0  0  0
 57 56  1  0  0  0  0
 57 51  1  0  0  0  0
 58 50  1  0  0  0  0
 59 55  1  0  0  0  0
 59 60  1  0  0  0  0
 61 59  1  0  0  0  0
M  END
>  <MODEL>
5

>  <REMARK>
 VINA RESULT:      -5.6      3.341     11.746
  Name = 
  21 active torsions:
  status: ('A' for Active; 'I' for Inactive)
    1  A    between atoms: C_2  and  C_50
    2  A    between atoms: C_3  and  C_8
    3  A    between atoms: C_4  and  N_57
    4  A    between atoms: C_5  and  C_27
    5  A    between atoms: C_5  and  C_45
    6  A    between atoms: C_8  and  C_14
    7  A    between atoms: C_13  and  C_50
    8  A    between atoms: C_14  and  C_27
    9  A    between atoms: C_20  and  C_33
   10  A    between atoms: C_21  and  S_51
   11  A    between atoms: C_22  and  C_47
   12  A    between atoms: C_24  and  C_28
   13  A    between atoms: C_28  and  C_52
   14  A    between atoms: N_29  and  C_37
   15  A    between atoms: N_29  and  C_39
   16  A    between atoms: C_31  and  C_43
   17  A    between atoms: C_33  and  C_40
   18  A    between atoms: C_37  and  C_45
   19  A    between atoms: C_38  and  C_52
   20  A    between atoms: C_38  and  C_55
   21  A    between atoms: C_48  and  S_51
                            x       y       z     vdW  Elec       q    Type
                         _______ _______ _______ _____ _____    ______ ____

>  <TORSDO>
F 21

$$$$
=
 OpenBabel10232410203D

 61 68  0  0  1  0  0  0  0  0999 V2000
  184.9310  178.4590  138.1860 S   0  0  0  0  0  0  0  0  0  0  0  0
  185.5620  178.4460  140.6070 C   0  0  0  0  0  0  0  0  0  0  0  0
  186.7660  178.3110  139.9050 C   0  0  0  0  0  3  0  0  0  0  0  0
  184.4360  178.5260  139.7930 C   0  0  0  0  0  0  0  0  0  0  0  0
  186.5700  178.2910  138.5280 C   0  0  0  0  0  0  0  0  0  0  0  0
  183.0240  178.6830  140.2620 C   0  0  0  0  0  2  0  0  0  0  0  0
  182.3150  177.3740  140.2200 C   0  0  0  0  0  3  0  0  0  0  0  0
  181.8640  176.9190  139.0970 N   0  0  0  0  0  0  0  0  0  0  0  0
  181.1970  175.6560  139.0000 C   0  0  0  0  0  0  0  0  0  0  0  0
  181.2230  174.9250  137.7710 N   0  0  0  0  0  0  0  0  0  0  0  0
  180.5660  175.1870  139.9910 O   0  0  0  0  0  0  0  0  0  0  0  0
  180.7030  173.1150  136.3940 O   0  0  0  0  0  1  0  0  0  0  0  0
  180.7650  173.5410  137.7230 C   0  0  0  0  0  2  0  0  0  0  0  0
  181.6010  175.5860  136.5280 C   0  0  0  0  0  2  0  0  0  0  0  0
  183.1170  175.7770  136.4860 C   0  0  0  0  0  2  0  0  0  0  0  0
  183.8300  174.5940  137.1270 C   0  0  0  0  0  2  0  0  0  0  0  0
  183.9730  172.5760  135.8660 O   0  0  0  0  0  1  0  0  0  0  0  0
  184.6050  173.8030  136.0770 C   0  0  2  0  0  3  0  0  0  0  0  0
  186.0340  173.5590  136.5460 C   0  0  0  0  0  2  0  0  0  0  0  0
  186.8600  172.8630  135.4730 C   0  0  1  0  0  3  0  0  0  0  0  0
  187.7480  173.7860  134.9150 O   0  0  0  0  0  1  0  0  0  0  0  0
  187.6400  171.7100  136.0900 C   0  0  0  0  0  2  0  0  0  0  0  0
  188.5990  171.1210  135.0720 C   0  0  0  0  0  1  0  0  0  0  0  0
  187.6590  178.2090  137.5120 C   0  0  0  0  0  2  0  0  0  0  0  0
  188.1820  176.7850  137.4120 C   0  0  0  0  0  2  0  0  0  0  0  0
  189.3830  176.7320  136.4810 C   0  0  0  0  0  2  0  0  0  0  0  0
  192.7890  177.0200  139.1150 C   0  0  0  0  0  2  0  0  0  0  0  0
  190.3270  176.3790  138.7540 C   0  0  1  0  0  3  0  0  0  0  0  0
  193.4540  175.8310  138.4500 C   0  0  0  0  0  2  0  0  0  0  0  0
  191.2980  175.1680  135.4120 O   0  0  0  0  0  1  0  0  0  0  0  0
  190.6790  176.5890  137.2780 C   0  0  1  0  0  3  0  0  0  0  0  0
  191.4810  176.5800  139.7470 C   0  0  2  0  0  3  0  0  0  0  0  0
  190.4640  177.6810  139.5290 C   0  0  0  0  0  2  0  0  0  0  0  0
  193.0420  175.6820  136.9800 C   0  0  2  0  0  3  0  0  0  0  0  0
  191.5380  175.4140  136.7700 C   0  0  2  0  0  3  0  0  0  0  0  0
  195.7880  172.3570  136.4750 C   0  0  1  0  0  3  0  0  0  0  0  0
  195.3840  174.8230  136.6400 C   0  0  0  0  0  2  0  0  0  0  0  0
  196.2750  173.7420  136.0260 C   0  0  1  0  0  3  0  0  0  0  0  0
  193.9050  174.6080  136.3020 C   0  0  1  0  0  3  0  0  0  0  0  0
  193.4450  173.1910  136.6790 C   0  0  0  0  0  2  0  0  0  0  0  0
  197.5840  173.9480  136.4790 O   0  0  0  0  0  1  0  0  0  0  0  0
  194.3450  172.1490  136.0320 C   0  0  0  0  0  2  0  0  0  0  0  0
  196.6380  171.2310  135.8920 C   0  0  0  0  0  2  0  0  0  0  0  0
  198.9820  169.7520  135.9980 O   0  0  0  0  0  1  0  0  0  0  0  0
  196.7300  170.0120  136.8190 C   0  0  1  0  0  0  0  0  0  0  0  0
  196.8980  168.6340  136.2170 C   0  0  0  0  0  2  0  0  0  0  0  0
  198.0640  169.2880  136.9440 C   0  0  1  0  0  3  0  0  0  0  0  0
  195.9830  170.0300  137.9990 O   0  0  0  0  0  1  0  0  0  0  0  0
  185.5010  178.5290  142.3940 S   0  0  0  0  0  0  0  0  0  0  0  0
  188.8430  178.4090  146.4880 C   0  0  0  0  0  2  0  0  0  0  0  0
  187.3540  177.1260  144.0270 C   0  0  1  0  0  0  0  0  0  0  0  0
  188.1910  177.3300  147.3510 C   0  0  0  0  0  2  0  0  0  0  0  0
  186.6560  176.5860  146.6640 S   0  0  0  0  0  0  0  0  0  0  0  0
  188.8780  177.1760  144.1500 C   0  0  1  0  0  3  0  0  0  0  0  0
  186.4490  177.6360  145.1890 C   0  0  1  0  0  3  0  0  0  0  0  0
  188.1150  178.2090  143.3210 C   0  0  1  0  0  3  0  0  0  0  0  0
  186.9860  177.4860  142.5870 C   0  0  2  0  0  3  0  0  0  0  0  0
  189.6320  177.8450  145.3170 C   0  0  0  0  0  2  0  0  0  0  0  0
  186.2070  179.1120  145.5630 C   0  0  0  0  0  3  0  0  0  0  0  0
  185.7450  179.1910  146.8650 F   0  0  0  0  0  0  0  0  0  0  0  0
  185.3650  179.8070  144.7190 F   0  0  0  0  0  0  0  0  0  0  0  0
  1  5  1  0  0  0  0
  1  4  1  0  0  0  0
  2 49  1  0  0  0  0
  3  2  1  0  0  0  0
  4  6  1  0  0  0  0
  4  2  2  0  0  0  0
  5  3  2  0  0  0  0
  7  6  1  0  0  0  0
  8  7  2  0  0  0  0
  9  8  1  0  0  0  0
  9 11  2  0  0  0  0
 10  9  1  0  0  0  0
 12 13  1  0  0  0  0
 13 10  1  0  0  0  0
 14 10  1  0  0  0  0
 15 14  1  0  0  0  0
 15 16  1  0  0  0  0
 18 17  1  1  0  0  0
 18 19  1  0  0  0  0
 18 16  1  0  0  0  0
 20 21  1  1  0  0  0
 20 22  1  0  0  0  0
 20 19  1  0  0  0  0
 23 22  1  0  0  0  0
 24  5  1  0  0  0  0
 25 24  1  0  0  0  0
 26 25  1  0  0  0  0
 28 33  1  1  0  0  0
 28 32  1  0  0  0  0
 29 27  1  0  0  0  0
 31 26  1  6  0  0  0
 31 28  1  0  0  0  0
 32 27  1  6  0  0  0
 33 32  1  0  0  0  0
 34 29  1  1  0  0  0
 35 30  1  6  0  0  0
 35 34  1  0  0  0  0
 35 31  1  0  0  0  0
 36 43  1  6  0  0  0
 38 36  1  0  0  0  0
 38 41  1  1  0  0  0
 38 37  1  0  0  0  0
 39 37  1  1  0  0  0
 39 40  1  0  0  0  0
 39 34  1  0  0  0  0
 42 36  1  0  0  0  0
 42 40  1  0  0  0  0
 43 45  1  0  0  0  0
 45 47  1  0  0  0  0
 45 48  1  1  0  0  0
 46 45  1  0  0  0  0
 46 47  1  0  0  0  0
 47 44  1  6  0  0  0
 49 57  1  0  0  0  0
 50 52  1  0  0  0  0
 51 54  1  0  0  0  0
 51 55  1  0  0  0  0
 53 52  1  0  0  0  0
 54 58  1  0  0  0  0
 55 59  1  0  0  0  0
 55 53  1  0  0  0  0
 56 51  1  0  0  0  0
 56 54  1  0  0  0  0
 57 56  1  0  0  0  0
 57 51  1  0  0  0  0
 58 50  1  0  0  0  0
 59 60  1  0  0  0  0
 61 59  1  0  0  0  0
M  END
>  <MODEL>
6

>  <REMARK>
 VINA RESULT:      -5.0      3.895      7.867
  Name = 
  21 active torsions:
  status: ('A' for Active; 'I' for Inactive)
    1  A    between atoms: C_2  and  C_50
    2  A    between atoms: C_3  and  C_8
    3  A    between atoms: C_4  and  N_57
    4  A    between atoms: C_5  and  C_27
    5  A    between atoms: C_5  and  C_45
    6  A    between atoms: C_8  and  C_14
    7  A    between atoms: C_13  and  C_50
    8  A    between atoms: C_14  and  C_27
    9  A    between atoms: C_20  and  C_33
   10  A    between atoms: C_21  and  S_51
   11  A    between atoms: C_22  and  C_47
   12  A    between atoms: C_24  and  C_28
   13  A    between atoms: C_28  and  C_52
   14  A    between atoms: N_29  and  C_37
   15  A    between atoms: N_29  and  C_39
   16  A    between atoms: C_31  and  C_43
   17  A    between atoms: C_33  and  C_40
   18  A    between atoms: C_37  and  C_45
   19  A    between atoms: C_38  and  C_52
   20  A    between atoms: C_38  and  C_55
   21  A    between atoms: C_48  and  S_51
                            x       y       z     vdW  Elec       q    Type
                         _______ _______ _______ _____ _____    ______ ____

>  <TORSDO>
F 21

$$$$
=
 OpenBabel10232410203D

 61 68  0  0  1  0  0  0  0  0999 V2000
  188.5610  178.2750  138.6500 S   0  0  0  0  0  0  0  0  0  0  0  0
  186.0960  178.6330  138.8840 C   0  0  0  0  0  0  0  0  0  0  0  0
  186.3480  178.6420  137.5060 C   0  0  0  0  0  3  0  0  0  0  0  0
  187.2330  178.4540  139.6670 C   0  0  0  0  0  0  0  0  0  0  0  0
  187.6960  178.4630  137.2190 C   0  0  0  0  0  0  0  0  0  0  0  0
  187.2660  178.3910  141.1610 C   0  0  0  0  0  2  0  0  0  0  0  0
  188.2930  177.4120  141.6160 C   0  0  0  0  0  3  0  0  0  0  0  0
  189.5420  177.6190  141.3580 N   0  0  0  0  0  0  0  0  0  0  0  0
  190.5690  176.7200  141.7930 C   0  0  0  0  0  0  0  0  0  0  0  0
  190.9310  176.6620  143.1750 N   0  0  0  0  0  0  0  0  0  0  0  0
  191.1740  175.9880  140.9580 O   0  0  0  0  0  0  0  0  0  0  0  0
  191.9710  175.7380  145.0470 O   0  0  0  0  0  1  0  0  0  0  0  0
  191.7910  175.5920  143.6700 C   0  0  0  0  0  2  0  0  0  0  0  0
  190.5400  177.7300  144.0860 C   0  0  0  0  0  2  0  0  0  0  0  0
  189.3820  177.2600  144.9660 C   0  0  0  0  0  2  0  0  0  0  0  0
  188.5480  178.4410  145.4420 C   0  0  0  0  0  2  0  0  0  0  0  0
  187.4810  176.9040  146.9180 O   0  0  0  0  0  1  0  0  0  0  0  0
  187.2300  177.9600  146.0390 C   0  0  2  0  0  3  0  0  0  0  0  0
  186.2910  177.4830  144.9370 C   0  0  0  0  0  2  0  0  0  0  0  0
  184.8990  178.0760  145.0980 C   0  0  1  0  0  3  0  0  0  0  0  0
  184.9220  179.0140  146.1320 O   0  0  0  0  0  1  0  0  0  0  0  0
  184.4730  178.7530  143.8020 C   0  0  0  0  0  2  0  0  0  0  0  0
  183.0830  179.3410  143.9480 C   0  0  0  0  0  1  0  0  0  0  0  0
  188.2730  178.3770  135.8450 C   0  0  0  0  0  2  0  0  0  0  0  0
  189.7250  177.9290  135.9100 C   0  0  0  0  0  2  0  0  0  0  0  0
  190.0270  176.9650  134.7730 C   0  0  0  0  0  2  0  0  0  0  0  0
  189.2080  173.0760  136.4520 C   0  0  0  0  0  2  0  0  0  0  0  0
  188.8750  174.7740  134.5520 C   0  0  1  0  0  3  0  0  0  0  0  0
  190.6020  172.5900  136.1070 C   0  0  0  0  0  2  0  0  0  0  0  0
  192.4060  175.7250  134.9970 O   0  0  0  0  0  1  0  0  0  0  0  0
  190.0050  175.5200  135.2680 C   0  0  1  0  0  3  0  0  0  0  0  0
  188.4660  173.4310  135.1760 C   0  0  2  0  0  3  0  0  0  0  0  0
  187.6470  174.6760  135.4440 C   0  0  0  0  0  2  0  0  0  0  0  0
  191.6270  173.7310  136.0840 C   0  0  2  0  0  3  0  0  0  0  0  0
  191.3480  174.8070  135.0150 C   0  0  2  0  0  3  0  0  0  0  0  0
  195.1690  171.3500  136.8760 C   0  0  1  0  0  3  0  0  0  0  0  0
  193.8620  173.4590  137.2120 C   0  0  0  0  0  2  0  0  0  0  0  0
  195.2660  172.8590  137.1410 C   0  0  1  0  0  3  0  0  0  0  0  0
  193.0450  173.1580  135.9500 C   0  0  1  0  0  3  0  0  0  0  0  0
  193.0200  171.6520  135.6450 C   0  0  0  0  0  2  0  0  0  0  0  0
  195.8960  173.0790  138.3730 O   0  0  0  0  0  1  0  0  0  0  0  0
  194.4360  171.1020  135.5630 C   0  0  0  0  0  2  0  0  0  0  0  0
  196.5430  170.6900  136.7930 C   0  0  0  0  0  2  0  0  0  0  0  0
  198.5340  169.3980  138.2290 O   0  0  0  0  0  1  0  0  0  0  0  0
  196.4870  169.1690  136.9760 C   0  0  1  0  0  0  0  0  0  0  0  0
  197.5650  168.3060  136.3550 C   0  0  0  0  0  2  0  0  0  0  0  0
  197.5280  168.5000  137.8640 C   0  0  1  0  0  3  0  0  0  0  0  0
  195.2300  168.5610  137.0210 O   0  0  0  0  0  1  0  0  0  0  0  0
  184.4470  178.8140  139.5550 S   0  0  0  0  0  0  0  0  0  0  0  0
  181.3740  174.9710  137.6220 C   0  0  0  0  0  2  0  0  0  0  0  0
  182.3530  177.9570  137.8390 C   0  0  1  0  0  0  0  0  0  0  0  0
  179.9960  175.4680  138.0560 C   0  0  0  0  0  2  0  0  0  0  0  0
  179.9830  177.0560  138.9810 S   0  0  0  0  0  0  0  0  0  0  0  0
  182.3400  177.1740  136.5240 C   0  0  1  0  0  3  0  0  0  0  0  0
  181.7780  177.3250  139.1420 C   0  0  1  0  0  3  0  0  0  0  0  0
  183.6180  177.3160  137.3510 C   0  0  1  0  0  3  0  0  0  0  0  0
  183.6660  178.7380  137.9090 C   0  0  2  0  0  3  0  0  0  0  0  0
  181.9170  175.6960  136.4010 C   0  0  0  0  0  2  0  0  0  0  0  0
  182.4520  176.2220  139.9830 C   0  0  0  0  0  3  0  0  0  0  0  0
  183.3130  176.7990  140.9000 F   0  0  0  0  0  0  0  0  0  0  0  0
  183.1110  175.2470  139.2620 F   0  0  0  0  0  0  0  0  0  0  0  0
  1  4  1  0  0  0  0
  2 49  1  0  0  0  0
  2  4  2  0  0  0  0
  3  2  1  0  0  0  0
  4  6  1  0  0  0  0
  5  3  2  0  0  0  0
  5  1  1  0  0  0  0
  6  7  1  0  0  0  0
  8  7  2  0  0  0  0
  8  9  1  0  0  0  0
  9 10  1  0  0  0  0
 10 13  1  0  0  0  0
 10 14  1  0  0  0  0
 11  9  2  0  0  0  0
 13 12  1  0  0  0  0
 14 15  1  0  0  0  0
 15 16  1  0  0  0  0
 16 18  1  0  0  0  0
 18 17  1  1  0  0  0
 19 20  1  0  0  0  0
 19 18  1  0  0  0  0
 20 21  1  1  0  0  0
 22 23  1  0  0  0  0
 22 20  1  0  0  0  0
 24 25  1  0  0  0  0
 24  5  1  0  0  0  0
 26 25  1  0  0  0  0
 28 32  1  0  0  0  0
 28 31  1  0  0  0  0
 28 33  1  1  0  0  0
 29 27  1  0  0  0  0
 31 26  1  6  0  0  0
 32 33  1  1  0  0  0
 32 27  1  0  0  0  0
 34 29  1  6  0  0  0
 35 30  1  1  0  0  0
 35 31  1  0  0  0  0
 35 34  1  0  0  0  0
 36 43  1  6  0  0  0
 36 38  1  0  0  0  0
 38 37  1  0  0  0  0
 38 41  1  1  0  0  0
 39 40  1  1  0  0  0
 39 34  1  0  0  0  0
 39 37  1  0  0  0  0
 42 40  1  0  0  0  0
 42 36  1  0  0  0  0
 43 45  1  0  0  0  0
 45 48  1  1  0  0  0
 45 47  1  0  0  0  0
 46 45  1  0  0  0  0
 46 47  1  0  0  0  0
 47 44  1  6  0  0  0
 50 52  1  0  0  0  0
 51 57  1  0  0  0  0
 51 55  1  0  0  0  0
 52 53  1  0  0  0  0
 53 55  1  0  0  0  0
 54 56  1  0  0  0  0
 54 51  1  0  0  0  0
 55 59  1  0  0  0  0
 56 51  1  0  0  0  0
 56 57  1  0  0  0  0
 57 49  1  0  0  0  0
 58 54  1  0  0  0  0
 58 50  1  0  0  0  0
 59 60  1  0  0  0  0
 61 59  1  0  0  0  0
M  END
>  <MODEL>
7

>  <REMARK>
 VINA RESULT:      -5.0      2.109      2.644
  Name = 
  21 active torsions:
  status: ('A' for Active; 'I' for Inactive)
    1  A    between atoms: C_2  and  C_50
    2  A    between atoms: C_3  and  C_8
    3  A    between atoms: C_4  and  N_57
    4  A    between atoms: C_5  and  C_27
    5  A    between atoms: C_5  and  C_45
    6  A    between atoms: C_8  and  C_14
    7  A    between atoms: C_13  and  C_50
    8  A    between atoms: C_14  and  C_27
    9  A    between atoms: C_20  and  C_33
   10  A    between atoms: C_21  and  S_51
   11  A    between atoms: C_22  and  C_47
   12  A    between atoms: C_24  and  C_28
   13  A    between atoms: C_28  and  C_52
   14  A    between atoms: N_29  and  C_37
   15  A    between atoms: N_29  and  C_39
   16  A    between atoms: C_31  and  C_43
   17  A    between atoms: C_33  and  C_40
   18  A    between atoms: C_37  and  C_45
   19  A    between atoms: C_38  and  C_52
   20  A    between atoms: C_38  and  C_55
   21  A    between atoms: C_48  and  S_51
                            x       y       z     vdW  Elec       q    Type
                         _______ _______ _______ _____ _____    ______ ____

>  <TORSDO>
F 21

$$$$
=
 OpenBabel10232410203D

 61 68  0  0  1  0  0  0  0  0999 V2000
  189.1080  177.1610  140.8650 S   0  0  0  0  0  0  0  0  0  0  0  0
  186.9460  178.4070  140.6860 C   0  0  0  0  0  0  0  0  0  0  0  0
  187.4650  178.3680  139.3860 C   0  0  0  0  0  3  0  0  0  0  0  0
  187.7520  177.7900  141.6380 C   0  0  0  0  0  0  0  0  0  0  0  0
  188.6870  177.7070  139.3300 C   0  0  0  0  0  0  0  0  0  0  0  0
  187.4490  177.6690  143.0990 C   0  0  0  0  0  2  0  0  0  0  0  0
  188.6620  177.2320  143.8450 C   0  0  0  0  0  3  0  0  0  0  0  0
  189.4020  178.1060  144.4430 N   0  0  0  0  0  0  0  0  0  0  0  0
  190.5640  177.7350  145.1930 C   0  0  0  0  0  0  0  0  0  0  0  0
  190.4240  177.0200  146.4230 N   0  0  0  0  0  0  0  0  0  0  0  0
  191.7180  178.0530  144.7840 O   0  0  0  0  0  0  0  0  0  0  0  0
  191.9950  175.2970  146.3540 O   0  0  0  0  0  1  0  0  0  0  0  0
  191.5890  176.4250  147.0700 C   0  0  0  0  0  2  0  0  0  0  0  0
  189.1380  176.9700  147.1050 C   0  0  0  0  0  2  0  0  0  0  0  0
  189.1420  177.9380  148.2870 C   0  0  0  0  0  2  0  0  0  0  0  0
  187.7260  178.3740  148.6370 C   0  0  0  0  0  2  0  0  0  0  0  0
  185.9830  179.7540  147.7750 O   0  0  0  0  0  1  0  0  0  0  0  0
  186.9980  178.8740  147.3930 C   0  0  2  0  0  3  0  0  0  0  0  0
  186.3880  177.7050  146.6290 C   0  0  0  0  0  2  0  0  0  0  0  0
  185.0120  178.0550  146.0820 C   0  0  1  0  0  3  0  0  0  0  0  0
  184.1810  178.4190  147.1450 O   0  0  0  0  0  1  0  0  0  0  0  0
  185.1250  179.2140  145.1010 C   0  0  0  0  0  2  0  0  0  0  0  0
  183.8890  179.2840  144.2250 C   0  0  0  0  0  1  0  0  0  0  0  0
  189.4670  177.4560  138.0830 C   0  0  0  0  0  2  0  0  0  0  0  0
  190.6760  176.5850  138.3820 C   0  0  0  0  0  2  0  0  0  0  0  0
  191.6100  176.5560  137.1820 C   0  0  0  0  0  2  0  0  0  0  0  0
  190.4530  172.9170  135.1730 C   0  0  0  0  0  2  0  0  0  0  0  0
  190.7320  175.4710  135.1250 C   0  0  1  0  0  3  0  0  0  0  0  0
  191.9020  172.5070  134.9970 C   0  0  0  0  0  2  0  0  0  0  0  0
  193.8140  175.0110  137.0910 O   0  0  0  0  0  1  0  0  0  0  0  0
  191.4900  175.2290  136.4340 C   0  0  1  0  0  3  0  0  0  0  0  0
  190.1990  174.2130  134.4240 C   0  0  2  0  0  3  0  0  0  0  0  0
  189.2730  175.0650  135.2660 C   0  0  0  0  0  2  0  0  0  0  0  0
  192.8040  173.0710  136.1010 C   0  0  2  0  0  3  0  0  0  0  0  0
  192.8700  174.6110  136.1370 C   0  0  2  0  0  3  0  0  0  0  0  0
  196.5090  171.1230  137.2530 C   0  0  1  0  0  3  0  0  0  0  0  0
  195.1940  173.2210  136.8810 C   0  0  0  0  0  2  0  0  0  0  0  0
  196.5920  172.6020  136.8500 C   0  0  1  0  0  3  0  0  0  0  0  0
  194.2040  172.4500  136.0000 C   0  0  1  0  0  3  0  0  0  0  0  0
  194.1870  170.9550  136.3550 C   0  0  0  0  0  2  0  0  0  0  0  0
  197.3940  173.2930  137.7660 O   0  0  0  0  0  1  0  0  0  0  0  0
  195.5930  170.3760  136.2920 C   0  0  0  0  0  2  0  0  0  0  0  0
  197.8770  170.4450  137.2400 C   0  0  0  0  0  2  0  0  0  0  0  0
  200.2260  171.7590  136.5680 O   0  0  0  0  0  1  0  0  0  0  0  0
  198.4560  170.2970  135.8290 C   0  0  1  0  0  0  0  0  0  0  0  0
  198.5280  171.5090  134.9250 C   0  0  0  0  0  2  0  0  0  0  0  0
  199.8050  170.9340  135.5200 C   0  0  1  0  0  3  0  0  0  0  0  0
  198.2300  169.0960  135.1510 O   0  0  0  0  0  1  0  0  0  0  0  0
  185.3720  179.1700  141.0640 S   0  0  0  0  0  0  0  0  0  0  0  0
  180.7260  178.1680  138.7500 C   0  0  0  0  0  2  0  0  0  0  0  0
  183.5940  177.3680  139.7750 C   0  0  1  0  0  0  0  0  0  0  0  0
  181.1900  177.7570  137.3540 C   0  0  0  0  0  2  0  0  0  0  0  0
  183.0090  177.7740  137.0880 S   0  0  0  0  0  0  0  0  0  0  0  0
  182.3150  176.6630  140.2330 C   0  0  1  0  0  3  0  0  0  0  0  0
  183.5390  178.4780  138.6830 C   0  0  1  0  0  3  0  0  0  0  0  0
  182.9640  177.7580  141.0800 C   0  0  1  0  0  3  0  0  0  0  0  0
  184.4800  177.5800  141.0040 C   0  0  2  0  0  3  0  0  0  0  0  0
  180.8960  177.0700  139.7880 C   0  0  0  0  0  2  0  0  0  0  0  0
  183.0140  179.9140  138.8810 C   0  0  0  0  0  3  0  0  0  0  0  0
  184.0420  180.8170  138.6730 F   0  0  0  0  0  0  0  0  0  0  0  0
  182.4050  180.1600  140.0950 F   0  0  0  0  0  0  0  0  0  0  0  0
  1  4  1  0  0  0  0
  2 49  1  0  0  0  0
  2  4  2  0  0  0  0
  3  2  1  0  0  0  0
  4  6  1  0  0  0  0
  5  3  2  0  0  0  0
  5  1  1  0  0  0  0
  6  7  1  0  0  0  0
  7  8  2  0  0  0  0
  8  9  1  0  0  0  0
  9 10  1  0  0  0  0
 10 13  1  0  0  0  0
 10 14  1  0  0  0  0
 11  9  2  0  0  0  0
 12 13  1  0  0  0  0
 14 15  1  0  0  0  0
 15 16  1  0  0  0  0
 18 17  1  1  0  0  0
 18 16  1  0  0  0  0
 19 18  1  0  0  0  0
 20 19  1  0  0  0  0
 20 21  1  1  0  0  0
 22 20  1  0  0  0  0
 23 22  1  0  0  0  0
 24 25  1  0  0  0  0
 24  5  1  0  0  0  0
 26 25  1  0  0  0  0
 28 33  1  1  0  0  0
 28 31  1  0  0  0  0
 29 27  1  0  0  0  0
 31 26  1  6  0  0  0
 32 28  1  0  0  0  0
 32 27  1  1  0  0  0
 32 33  1  0  0  0  0
 34 29  1  6  0  0  0
 34 35  1  0  0  0  0
 35 31  1  0  0  0  0
 35 30  1  1  0  0  0
 36 43  1  6  0  0  0
 38 37  1  0  0  0  0
 38 36  1  0  0  0  0
 38 41  1  1  0  0  0
 39 34  1  0  0  0  0
 39 40  1  1  0  0  0
 39 37  1  0  0  0  0
 42 40  1  0  0  0  0
 42 36  1  0  0  0  0
 45 48  1  6  0  0  0
 45 43  1  0  0  0  0
 46 47  1  0  0  0  0
 46 45  1  0  0  0  0
 47 45  1  0  0  0  0
 47 44  1  1  0  0  0
 50 58  1  0  0  0  0
 51 54  1  0  0  0  0
 51 57  1  0  0  0  0
 51 56  1  0  0  0  0
 52 50  1  0  0  0  0
 53 52  1  0  0  0  0
 53 55  1  0  0  0  0
 54 56  1  0  0  0  0
 55 59  1  0  0  0  0
 55 51  1  0  0  0  0
 57 49  1  0  0  0  0
 57 56  1  0  0  0  0
 58 54  1  0  0  0  0
 59 61  1  0  0  0  0
 60 59  1  0  0  0  0
M  END
>  <MODEL>
8

>  <REMARK>
 VINA RESULT:      -4.9      1.817      2.413
  Name = 
  21 active torsions:
  status: ('A' for Active; 'I' for Inactive)
    1  A    between atoms: C_2  and  C_50
    2  A    between atoms: C_3  and  C_8
    3  A    between atoms: C_4  and  N_57
    4  A    between atoms: C_5  and  C_27
    5  A    between atoms: C_5  and  C_45
    6  A    between atoms: C_8  and  C_14
    7  A    between atoms: C_13  and  C_50
    8  A    between atoms: C_14  and  C_27
    9  A    between atoms: C_20  and  C_33
   10  A    between atoms: C_21  and  S_51
   11  A    between atoms: C_22  and  C_47
   12  A    between atoms: C_24  and  C_28
   13  A    between atoms: C_28  and  C_52
   14  A    between atoms: N_29  and  C_37
   15  A    between atoms: N_29  and  C_39
   16  A    between atoms: C_31  and  C_43
   17  A    between atoms: C_33  and  C_40
   18  A    between atoms: C_37  and  C_45
   19  A    between atoms: C_38  and  C_52
   20  A    between atoms: C_38  and  C_55
   21  A    between atoms: C_48  and  S_51
                            x       y       z     vdW  Elec       q    Type
                         _______ _______ _______ _____ _____    ______ ____

>  <TORSDO>
F 21

$$$$
=
 OpenBabel10232410203D

 61 68  0  0  1  0  0  0  0  0999 V2000
  189.7730  176.0910  138.6920 S   0  0  0  0  0  0  0  0  0  0  0  0
  187.8480  177.4230  137.8080 C   0  0  0  0  0  0  0  0  0  0  0  0
  188.2020  178.0330  139.0180 C   0  0  0  0  0  3  0  0  0  0  0  0
  188.6200  176.3110  137.4860 C   0  0  0  0  0  0  0  0  0  0  0  0
  189.2650  177.3860  139.6380 C   0  0  0  0  0  0  0  0  0  0  0  0
  188.4780  175.4710  136.2550 C   0  0  0  0  0  2  0  0  0  0  0  0
  189.8130  175.2100  135.6480 C   0  0  0  0  0  3  0  0  0  0  0  0
  190.7120  176.1390  135.6410 N   0  0  0  0  0  0  0  0  0  0  0  0
  192.0180  175.9320  135.0920 C   0  0  0  0  0  0  0  0  0  0  0  0
  192.6040  174.6270  135.1110 N   0  0  0  0  0  0  0  0  0  0  0  0
  192.6690  176.9010  134.6050 O   0  0  0  0  0  0  0  0  0  0  0  0
  194.9200  174.8820  135.0110 O   0  0  0  0  0  1  0  0  0  0  0  0
  193.8140  174.3480  134.3460 C   0  0  0  0  0  2  0  0  0  0  0  0
  192.0650  173.5900  135.9810 C   0  0  0  0  0  2  0  0  0  0  0  0
  193.1820  172.6330  136.3960 C   0  0  0  0  0  2  0  0  0  0  0  0
  192.9530  171.2460  135.8120 C   0  0  0  0  0  2  0  0  0  0  0  0
  193.7300  169.1610  136.6690 O   0  0  0  0  0  1  0  0  0  0  0  0
  194.1590  170.3490  136.0730 C   0  0  2  0  0  3  0  0  0  0  0  0
  195.1470  171.0470  137.0000 C   0  0  0  0  0  2  0  0  0  0  0  0
  196.5500  171.0630  136.4090 C   0  0  1  0  0  3  0  0  0  0  0  0
  197.1050  172.3310  136.5930 O   0  0  0  0  0  1  0  0  0  0  0  0
  197.4150  170.0200  137.1040 C   0  0  0  0  0  2  0  0  0  0  0  0
  198.8680  170.4540  137.0980 C   0  0  0  0  0  1  0  0  0  0  0  0
  189.9040  177.8240  140.9140 C   0  0  0  0  0  2  0  0  0  0  0  0
  190.6510  176.6660  141.5550 C   0  0  0  0  0  2  0  0  0  0  0  0
  189.6890  175.8050  142.3600 C   0  0  0  0  0  2  0  0  0  0  0  0
  189.3770  177.1110  146.4610 C   0  0  0  0  0  2  0  0  0  0  0  0
  190.6460  177.1400  144.2260 C   0  0  1  0  0  3  0  0  0  0  0  0
  188.2460  178.0590  146.1130 C   0  0  0  0  0  2  0  0  0  0  0  0
  187.3670  177.1560  142.5460 O   0  0  0  0  0  1  0  0  0  0  0  0
  189.3780  176.4550  143.7070 C   0  0  1  0  0  3  0  0  0  0  0  0
  190.6310  177.5260  145.7130 C   0  0  2  0  0  3  0  0  0  0  0  0
  191.3420  176.2670  145.2600 C   0  0  0  0  0  2  0  0  0  0  0  0
  187.4290  177.5730  144.9090 C   0  0  2  0  0  3  0  0  0  0  0  0
  188.2330  177.4820  143.5970 C   0  0  2  0  0  3  0  0  0  0  0  0
  183.3720  178.7590  143.9210 C   0  0  1  0  0  3  0  0  0  0  0  0
  185.7760  178.5240  143.2650 C   0  0  0  0  0  2  0  0  0  0  0  0
  184.5010  179.3420  143.0590 C   0  0  1  0  0  3  0  0  0  0  0  0
  186.1760  178.4450  144.7420 C   0  0  1  0  0  3  0  0  0  0  0  0
  185.0140  177.9390  145.6100 C   0  0  0  0  0  2  0  0  0  0  0  0
  184.1470  179.2630  141.7060 O   0  0  0  0  0  1  0  0  0  0  0  0
  183.7730  178.7920  145.3900 C   0  0  0  0  0  2  0  0  0  0  0  0
  182.0660  179.5360  143.7600 C   0  0  0  0  0  2  0  0  0  0  0  0
  179.9850  177.7360  144.1100 O   0  0  0  0  0  1  0  0  0  0  0  0
  181.2440  179.0770  142.5510 C   0  0  1  0  0  0  0  0  0  0  0  0
  181.2910  177.6240  142.1290 C   0  0  0  0  0  2  0  0  0  0  0  0
  180.0350  178.1790  142.7860 C   0  0  1  0  0  3  0  0  0  0  0  0
  181.0860  179.9710  141.4890 O   0  0  0  0  0  1  0  0  0  0  0  0
  186.5310  178.0490  136.7710 S   0  0  0  0  0  0  0  0  0  0  0  0
  182.0890  175.9970  138.7720 C   0  0  0  0  0  2  0  0  0  0  0  0
  184.3210  176.2770  136.5670 C   0  0  1  0  0  0  0  0  0  0  0  0
  181.0820  176.4080  137.7000 C   0  0  0  0  0  2  0  0  0  0  0  0
  181.7740  177.3560  136.2850 S   0  0  0  0  0  0  0  0  0  0  0  0
  183.9840  174.9510  137.2540 C   0  0  1  0  0  3  0  0  0  0  0  0
  183.4880  177.5590  136.8690 C   0  0  1  0  0  3  0  0  0  0  0  0
  185.1640  175.8070  137.7160 C   0  0  1  0  0  3  0  0  0  0  0  0
  185.8430  176.3850  136.4750 C   0  0  2  0  0  3  0  0  0  0  0  0
  182.9350  174.7980  138.3730 C   0  0  0  0  0  2  0  0  0  0  0  0
  183.5600  178.3970  138.1600 C   0  0  0  0  0  3  0  0  0  0  0  0
  182.6820  179.4640  138.0700 F   0  0  0  0  0  0  0  0  0  0  0  0
  184.8180  178.8470  138.5060 F   0  0  0  0  0  0  0  0  0  0  0  0
  1  5  1  0  0  0  0
  2  3  1  0  0  0  0
  3  5  2  0  0  0  0
  4  2  2  0  0  0  0
  4  1  1  0  0  0  0
  5 24  1  0  0  0  0
  6  4  1  0  0  0  0
  7  6  1  0  0  0  0
  8  7  2  0  0  0  0
  9 10  1  0  0  0  0
  9  8  1  0  0  0  0
 10 14  1  0  0  0  0
 11  9  2  0  0  0  0
 13 12  1  0  0  0  0
 13 10  1  0  0  0  0
 14 15  1  0  0  0  0
 16 18  1  0  0  0  0
 16 15  1  0  0  0  0
 18 17  1  1  0  0  0
 18 19  1  0  0  0  0
 20 21  1  1  0  0  0
 20 19  1  0  0  0  0
 20 22  1  0  0  0  0
 23 22  1  0  0  0  0
 24 25  1  0  0  0  0
 25 26  1  0  0  0  0
 28 33  1  1  0  0  0
 28 32  1  0  0  0  0
 29 27  1  0  0  0  0
 31 26  1  6  0  0  0
 31 28  1  0  0  0  0
 32 33  1  1  0  0  0
 32 27  1  0  0  0  0
 34 29  1  1  0  0  0
 35 30  1  6  0  0  0
 35 31  1  0  0  0  0
 35 34  1  0  0  0  0
 36 43  1  1  0  0  0
 36 42  1  0  0  0  0
 38 41  1  6  0  0  0
 38 37  1  0  0  0  0
 38 36  1  0  0  0  0
 39 37  1  6  0  0  0
 39 34  1  0  0  0  0
 39 40  1  0  0  0  0
 42 40  1  0  0  0  0
 45 48  1  6  0  0  0
 45 47  1  0  0  0  0
 45 43  1  0  0  0  0
 46 45  1  0  0  0  0
 46 47  1  0  0  0  0
 47 44  1  1  0  0  0
 49  2  1  0  0  0  0
 51 55  1  0  0  0  0
 51 54  1  0  0  0  0
 51 56  1  0  0  0  0
 52 50  1  0  0  0  0
 53 55  1  0  0  0  0
 53 52  1  0  0  0  0
 54 56  1  0  0  0  0
 54 58  1  0  0  0  0
 55 59  1  0  0  0  0
 57 51  1  0  0  0  0
 57 49  1  0  0  0  0
 57 56  1  0  0  0  0
 58 50  1  0  0  0  0
 59 61  1  0  0  0  0
 60 59  1  0  0  0  0
M  END
>  <MODEL>
9

>  <REMARK>
 VINA RESULT:      -4.8      2.808     11.718
  Name = 
  21 active torsions:
  status: ('A' for Active; 'I' for Inactive)
    1  A    between atoms: C_2  and  C_50
    2  A    between atoms: C_3  and  C_8
    3  A    between atoms: C_4  and  N_57
    4  A    between atoms: C_5  and  C_27
    5  A    between atoms: C_5  and  C_45
    6  A    between atoms: C_8  and  C_14
    7  A    between atoms: C_13  and  C_50
    8  A    between atoms: C_14  and  C_27
    9  A    between atoms: C_20  and  C_33
   10  A    between atoms: C_21  and  S_51
   11  A    between atoms: C_22  and  C_47
   12  A    between atoms: C_24  and  C_28
   13  A    between atoms: C_28  and  C_52
   14  A    between atoms: N_29  and  C_37
   15  A    between atoms: N_29  and  C_39
   16  A    between atoms: C_31  and  C_43
   17  A    between atoms: C_33  and  C_40
   18  A    between atoms: C_37  and  C_45
   19  A    between atoms: C_38  and  C_52
   20  A    between atoms: C_38  and  C_55
   21  A    between atoms: C_48  and  S_51
                            x       y       z     vdW  Elec       q    Type
                         _______ _______ _______ _____ _____    ______ ____

>  <TORSDO>
F 21

$$$$
