=
 OpenBabel10232411143D

 33 36  0  0  1  0  0  0  0  0999 V2000
  187.3360  178.2100  142.2480 C   0  0  0  0  0  3  0  0  0  0  0  0
  186.6730  178.6380  141.0810 C   0  0  0  0  0  0  0  0  0  0  0  0
  189.3540  177.0930  143.1380 O   0  0  0  0  0  0  0  0  0  0  0  0
  190.4490  176.6710  141.0780 C   0  0  0  0  0  2  0  0  0  0  0  0
  187.2660  178.4140  139.8220 C   0  0  0  0  0  3  0  0  0  0  0  0
  188.5680  177.5740  142.1150 C   0  0  0  0  0  0  0  0  0  0  0  0
  190.5370  176.4930  142.6100 C   0  0  1  0  0  3  0  0  0  0  0  0
  189.1430  177.3600  140.8970 C   0  0  0  0  0  0  0  0  0  0  0  0
  188.5100  177.7700  139.7130 C   0  0  0  0  0  0  0  0  0  0  0  0
  188.8010  176.1700  137.8400 C   0  0  0  0  0  3  0  0  0  0  0  0
  188.6960  178.6350  137.3810 C   0  0  0  0  0  0  0  0  0  0  0  0
  187.6690  177.0840  135.8770 C   0  0  0  0  0  0  0  0  0  0  0  0
  189.1050  177.5550  138.3510 C   0  0  1  0  0  3  0  0  0  0  0  0
  189.0120  179.8330  137.6060 O   0  0  0  0  0  0  0  0  0  0  0  0
  186.9240  176.8210  134.6950 N   0  0  0  0  0  1  0  0  0  0  0  0
  187.9500  178.3100  136.2010 N   0  0  0  0  0  0  0  0  0  0  0  0
  188.1310  175.9580  136.7060 C   0  0  0  0  0  3  0  0  0  0  0  0
  185.4020  179.2990  141.1340 N   0  0  0  0  0  2  0  0  0  0  0  0
  184.0940  179.9960  139.1620 N   0  0  0  0  0  0  0  0  0  0  0  0
  184.3340  179.1630  140.1880 C   0  0  0  0  0  0  0  0  0  0  0  0
  183.0310  179.5070  138.5460 N   0  0  0  0  0  2  0  0  0  0  0  0
  182.5960  178.4050  139.1390 N   0  0  0  0  0  0  0  0  0  0  0  0
  183.4020  178.1520  140.1900 C   0  0  0  0  0  3  0  0  0  0  0  0
  191.7610  177.2070  143.1580 C   0  0  0  0  0  2  0  0  0  0  0  0
  191.4160  177.9060  144.3840 N   0  0  0  0  0  2  0  0  0  0  0  0
  189.5560  177.6260  146.5400 N   0  0  0  0  0  2  0  0  0  0  0  0
  191.6930  177.0320  145.4420 N   0  0  0  0  0  2  0  0  0  0  0  0
  190.7740  176.8750  146.5210 C   0  0  0  0  0  0  0  0  0  0  0  0
  191.0420  176.0690  147.4510 O   0  0  0  0  0  0  0  0  0  0  0  0
  188.5870  177.5180  147.6200 C   0  0  1  0  0  3  0  0  0  0  0  0
  189.0250  178.2600  148.7170 O   0  0  0  0  0  1  0  0  0  0  0  0
  186.8890  177.4870  145.7990 C   0  0  0  0  0  1  0  0  0  0  0  0
  187.2440  178.0540  147.1610 C   0  0  0  0  0  2  0  0  0  0  0  0
  2 18  1  0  0  0  0
  2  1  2  0  0  0  0
  4  7  1  0  0  0  0
  5  2  1  0  0  0  0
  6  1  1  0  0  0  0
  6  3  1  0  0  0  0
  7  3  1  0  0  0  0
  7 24  1  1  0  0  0
  8  4  1  0  0  0  0
  8  6  2  0  0  0  0
  9  5  2  0  0  0  0
  9  8  1  0  0  0  0
 10 13  1  0  0  0  0
 11 14  2  0  0  0  0
 11 13  1  0  0  0  0
 12 16  2  0  0  0  0
 12 17  1  0  0  0  0
 13  9  1  1  0  0  0
 15 12  1  0  0  0  0
 16 11  1  0  0  0  0
 17 10  2  0  0  0  0
 19 20  2  0  0  0  0
 20 23  1  0  0  0  0
 20 18  1  0  0  0  0
 21 22  1  0  0  0  0
 21 19  1  0  0  0  0
 22 23  2  0  0  0  0
 24 25  1  0  0  0  0
 25 27  1  0  0  0  0
 26 30  1  0  0  0  0
 27 28  1  0  0  0  0
 28 26  1  0  0  0  0
 28 29  2  0  0  0  0
 30 31  1  1  0  0  0
 32 33  1  0  0  0  0
 33 30  1  0  0  0  0
M  END
>  <MODEL>
1

>  <REMARK>
 VINA RESULT:      -8.6      0.000      0.000
  Name = 
  8 active torsions:
  status: ('A' for Active; 'I' for Inactive)
    1  A    between atoms: N_1  and  C_20
    2  A    between atoms: C_4  and  N_12
    3  A    between atoms: N_7  and  N_25
    4  A    between atoms: C_11  and  N_12
    5  A    between atoms: C_17  and  C_22
    6  A    between atoms: C_17  and  N_25
    7  A    between atoms: C_19  and  C_28
    8  A    between atoms: C_20  and  C_32
                            x       y       z     vdW  Elec       q    Type
                         _______ _______ _______ _____ _____    ______ ____

>  <TORSDO>
F 8

$$$$
=
 OpenBabel10232411143D

 33 36  0  0  1  0  0  0  0  0999 V2000
  187.3090  178.1830  142.2960 C   0  0  0  0  0  3  0  0  0  0  0  0
  186.6200  178.6200  141.1480 C   0  0  0  0  0  0  0  0  0  0  0  0
  189.3480  177.0600  143.1310 O   0  0  0  0  0  0  0  0  0  0  0  0
  190.3950  176.6550  141.0430 C   0  0  0  0  0  2  0  0  0  0  0  0
  187.1830  178.4060  139.8750 C   0  0  0  0  0  3  0  0  0  0  0  0
  188.5380  177.5490  142.1300 C   0  0  0  0  0  0  0  0  0  0  0  0
  190.5180  176.4650  142.5710 C   0  0  1  0  0  3  0  0  0  0  0  0
  189.0860  177.3450  140.8970 C   0  0  0  0  0  0  0  0  0  0  0  0
  188.4250  177.7640  139.7310 C   0  0  0  0  0  0  0  0  0  0  0  0
  188.5980  176.2120  137.8050 C   0  0  0  0  0  3  0  0  0  0  0  0
  188.6300  178.6930  137.4250 C   0  0  0  0  0  0  0  0  0  0  0  0
  187.4950  177.2530  135.8890 C   0  0  0  0  0  0  0  0  0  0  0  0
  188.9880  177.5600  138.3550 C   0  0  1  0  0  3  0  0  0  0  0  0
  189.0170  179.8630  137.6840 O   0  0  0  0  0  0  0  0  0  0  0  0
  186.7210  177.0710  134.7100 N   0  0  0  0  0  1  0  0  0  0  0  0
  187.8510  178.4490  136.2470 N   0  0  0  0  0  0  0  0  0  0  0  0
  187.9020  176.0760  136.6750 C   0  0  0  0  0  3  0  0  0  0  0  0
  185.3500  179.2800  141.2360 N   0  0  0  0  0  2  0  0  0  0  0  0
  184.6840  179.7380  143.5670 N   0  0  0  0  0  0  0  0  0  0  0  0
  184.4440  179.2330  142.3450 C   0  0  0  0  0  0  0  0  0  0  0  0
  183.5980  179.4850  144.2790 N   0  0  0  0  0  2  0  0  0  0  0  0
  182.6890  178.8460  143.5560 N   0  0  0  0  0  0  0  0  0  0  0  0
  183.1910  178.6680  142.3180 C   0  0  0  0  0  3  0  0  0  0  0  0
  191.7540  177.1750  143.0960 C   0  0  0  0  0  2  0  0  0  0  0  0
  191.4290  177.8960  144.3150 N   0  0  0  0  0  2  0  0  0  0  0  0
  189.5950  177.6180  146.4940 N   0  0  0  0  0  2  0  0  0  0  0  0
  191.7310  177.0440  145.3850 N   0  0  0  0  0  2  0  0  0  0  0  0
  190.8260  176.8890  146.4740 C   0  0  0  0  0  0  0  0  0  0  0  0
  191.1160  176.1030  147.4150 O   0  0  0  0  0  0  0  0  0  0  0  0
  188.6380  177.5110  147.5850 C   0  0  1  0  0  3  0  0  0  0  0  0
  189.0920  178.2470  148.6790 O   0  0  0  0  0  1  0  0  0  0  0  0
  186.9020  177.4670  145.8000 C   0  0  0  0  0  1  0  0  0  0  0  0
  187.2910  178.0540  147.1430 C   0  0  0  0  0  2  0  0  0  0  0  0
  2 18  1  0  0  0  0
  2  1  2  0  0  0  0
  4  7  1  0  0  0  0
  5  2  1  0  0  0  0
  6  1  1  0  0  0  0
  6  3  1  0  0  0  0
  7 24  1  1  0  0  0
  7  3  1  0  0  0  0
  8  4  1  0  0  0  0
  8  6  2  0  0  0  0
  9  5  2  0  0  0  0
  9  8  1  0  0  0  0
 10 13  1  0  0  0  0
 11 14  2  0  0  0  0
 11 13  1  0  0  0  0
 12 16  2  0  0  0  0
 12 17  1  0  0  0  0
 13  9  1  1  0  0  0
 15 12  1  0  0  0  0
 16 11  1  0  0  0  0
 17 10  2  0  0  0  0
 18 20  1  0  0  0  0
 19 21  1  0  0  0  0
 20 19  2  0  0  0  0
 22 21  1  0  0  0  0
 23 20  1  0  0  0  0
 23 22  2  0  0  0  0
 24 25  1  0  0  0  0
 25 27  1  0  0  0  0
 26 30  1  0  0  0  0
 27 28  1  0  0  0  0
 28 26  1  0  0  0  0
 28 29  2  0  0  0  0
 30 31  1  1  0  0  0
 32 33  1  0  0  0  0
 33 30  1  0  0  0  0
M  END
>  <MODEL>
2

>  <REMARK>
 VINA RESULT:      -8.6      1.144      1.583
  Name = 
  8 active torsions:
  status: ('A' for Active; 'I' for Inactive)
    1  A    between atoms: N_1  and  C_20
    2  A    between atoms: C_4  and  N_12
    3  A    between atoms: N_7  and  N_25
    4  A    between atoms: C_11  and  N_12
    5  A    between atoms: C_17  and  C_22
    6  A    between atoms: C_17  and  N_25
    7  A    between atoms: C_19  and  C_28
    8  A    between atoms: C_20  and  C_32
                            x       y       z     vdW  Elec       q    Type
                         _______ _______ _______ _____ _____    ______ ____

>  <TORSDO>
F 8

$$$$
=
 OpenBabel10232411143D

 33 36  0  0  1  0  0  0  0  0999 V2000
  185.9920  178.3020  141.9160 C   0  0  0  0  0  3  0  0  0  0  0  0
  186.4450  178.0590  143.2270 C   0  0  0  0  0  0  0  0  0  0  0  0
  186.6670  178.5510  139.5500 O   0  0  0  0  0  0  0  0  0  0  0  0
  188.9980  178.2110  139.8220 C   0  0  0  0  0  2  0  0  0  0  0  0
  187.8200  177.8530  143.4600 C   0  0  0  0  0  3  0  0  0  0  0  0
  186.9270  178.3310  140.8850 C   0  0  0  0  0  0  0  0  0  0  0  0
  187.8810  178.5210  138.8000 C   0  0  1  0  0  3  0  0  0  0  0  0
  188.2570  178.1280  141.1100 C   0  0  0  0  0  0  0  0  0  0  0  0
  188.7460  177.8870  142.4040 C   0  0  0  0  0  0  0  0  0  0  0  0
  190.7520  178.7550  143.5740 C   0  0  0  0  0  3  0  0  0  0  0  0
  190.4530  176.2830  143.2610 C   0  0  0  0  0  0  0  0  0  0  0  0
  191.3910  177.1360  145.2900 C   0  0  0  0  0  0  0  0  0  0  0  0
  190.2000  177.6590  142.6990 C   0  0  1  0  0  3  0  0  0  0  0  0
  190.1740  175.2640  142.5760 O   0  0  0  0  0  0  0  0  0  0  0  0
  191.9350  176.9180  146.5850 N   0  0  0  0  0  1  0  0  0  0  0  0
  191.0100  176.1230  144.5730 N   0  0  0  0  0  0  0  0  0  0  0  0
  191.2900  178.5100  144.7700 C   0  0  0  0  0  3  0  0  0  0  0  0
  185.5450  178.0150  144.3420 N   0  0  0  0  0  2  0  0  0  0  0  0
  185.3110  179.4980  146.3000 N   0  0  0  0  0  0  0  0  0  0  0  0
  185.8360  178.4250  145.6830 C   0  0  0  0  0  0  0  0  0  0  0  0
  185.8380  179.5070  147.5130 N   0  0  0  0  0  2  0  0  0  0  0  0
  186.6670  178.4870  147.6840 N   0  0  0  0  0  0  0  0  0  0  0  0
  186.6920  177.7740  146.5400 C   0  0  0  0  0  3  0  0  0  0  0  0
  187.8050  177.4250  137.7500 C   0  0  0  0  0  2  0  0  0  0  0  0
  189.1030  177.2560  137.1190 N   0  0  0  0  0  2  0  0  0  0  0  0
  191.7770  176.5230  137.8260 N   0  0  0  0  0  2  0  0  0  0  0  0
  189.4490  175.9060  137.2560 N   0  0  0  0  0  2  0  0  0  0  0  0
  190.7750  175.5250  137.6140 C   0  0  0  0  0  0  0  0  0  0  0  0
  191.0540  174.3030  137.7470 O   0  0  0  0  0  0  0  0  0  0  0  0
  193.1490  176.1940  138.1800 C   0  0  1  0  0  3  0  0  0  0  0  0
  193.9810  176.4170  137.0830 O   0  0  0  0  0  1  0  0  0  0  0  0
  192.4380  177.3780  140.2520 C   0  0  0  0  0  1  0  0  0  0  0  0
  193.6050  177.0650  139.3360 C   0  0  0  0  0  2  0  0  0  0  0  0
  1  2  1  0  0  0  0
  2  5  2  0  0  0  0
  2 18  1  0  0  0  0
  3  6  1  0  0  0  0
  4  8  1  0  0  0  0
  6  8  1  0  0  0  0
  6  1  2  0  0  0  0
  7 24  1  6  0  0  0
  7  3  1  0  0  0  0
  7  4  1  0  0  0  0
  8  9  2  0  0  0  0
  9  5  1  0  0  0  0
 10 17  2  0  0  0  0
 11 16  1  0  0  0  0
 12 15  1  0  0  0  0
 13  9  1  1  0  0  0
 13 11  1  0  0  0  0
 13 10  1  0  0  0  0
 14 11  2  0  0  0  0
 16 12  2  0  0  0  0
 17 12  1  0  0  0  0
 18 20  1  0  0  0  0
 19 21  1  0  0  0  0
 20 19  2  0  0  0  0
 20 23  1  0  0  0  0
 21 22  1  0  0  0  0
 23 22  2  0  0  0  0
 25 27  1  0  0  0  0
 25 24  1  0  0  0  0
 26 30  1  0  0  0  0
 27 28  1  0  0  0  0
 28 29  2  0  0  0  0
 28 26  1  0  0  0  0
 30 31  1  6  0  0  0
 30 33  1  0  0  0  0
 33 32  1  0  0  0  0
M  END
>  <MODEL>
3

>  <REMARK>
 VINA RESULT:      -8.3      2.948      7.548
  Name = 
  8 active torsions:
  status: ('A' for Active; 'I' for Inactive)
    1  A    between atoms: N_1  and  C_20
    2  A    between atoms: C_4  and  N_12
    3  A    between atoms: N_7  and  N_25
    4  A    between atoms: C_11  and  N_12
    5  A    between atoms: C_17  and  C_22
    6  A    between atoms: C_17  and  N_25
    7  A    between atoms: C_19  and  C_28
    8  A    between atoms: C_20  and  C_32
                            x       y       z     vdW  Elec       q    Type
                         _______ _______ _______ _____ _____    ______ ____

>  <TORSDO>
F 8

$$$$
=
 OpenBabel10232411143D

 33 36  0  0  1  0  0  0  0  0999 V2000
  186.3660  178.3310  141.5280 C   0  0  0  0  0  3  0  0  0  0  0  0
  186.6900  178.0450  142.8680 C   0  0  0  0  0  0  0  0  0  0  0  0
  187.2600  178.5910  139.2370 O   0  0  0  0  0  0  0  0  0  0  0  0
  189.5410  178.1430  139.7080 C   0  0  0  0  0  2  0  0  0  0  0  0
  188.0270  177.7750  143.2180 C   0  0  0  0  0  3  0  0  0  0  0  0
  187.3900  178.3360  140.5840 C   0  0  0  0  0  0  0  0  0  0  0  0
  188.5340  178.5190  138.5970 C   0  0  1  0  0  3  0  0  0  0  0  0
  188.6850  178.0710  140.9220 C   0  0  0  0  0  0  0  0  0  0  0  0
  189.0450  177.7850  142.2490 C   0  0  0  0  0  0  0  0  0  0  0  0
  191.0240  178.6150  143.4910 C   0  0  0  0  0  3  0  0  0  0  0  0
  190.5710  176.1500  143.3550 C   0  0  0  0  0  0  0  0  0  0  0  0
  191.4280  177.1080  145.3720 C   0  0  0  0  0  0  0  0  0  0  0  0
  190.4560  177.4880  142.6670 C   0  0  1  0  0  3  0  0  0  0  0  0
  190.2660  175.0980  142.7340 O   0  0  0  0  0  0  0  0  0  0  0  0
  191.8660  176.9640  146.7170 N   0  0  0  0  0  1  0  0  0  0  0  0
  191.0240  176.0650  144.7120 N   0  0  0  0  0  0  0  0  0  0  0  0
  191.4610  178.4370  144.7390 C   0  0  0  0  0  3  0  0  0  0  0  0
  185.6920  178.0230  143.8980 N   0  0  0  0  0  2  0  0  0  0  0  0
  185.2620  179.3580  145.9270 N   0  0  0  0  0  0  0  0  0  0  0  0
  185.8870  178.3630  145.2760 C   0  0  0  0  0  0  0  0  0  0  0  0
  185.7250  179.3220  147.1650 N   0  0  0  0  0  2  0  0  0  0  0  0
  186.6100  178.3480  147.3180 N   0  0  0  0  0  0  0  0  0  0  0  0
  186.7400  177.7130  146.1360 C   0  0  0  0  0  3  0  0  0  0  0  0
  188.5060  177.4460  137.5210 C   0  0  0  0  0  2  0  0  0  0  0  0
  187.3330  177.6210  136.6810 N   0  0  0  0  0  2  0  0  0  0  0  0
  184.6580  177.4530  137.6810 N   0  0  0  0  0  2  0  0  0  0  0  0
  186.6540  176.3960  136.6720 N   0  0  0  0  0  2  0  0  0  0  0  0
  185.3190  176.2970  137.1600 C   0  0  0  0  0  0  0  0  0  0  0  0
  184.7260  175.1850  137.1230 O   0  0  0  0  0  0  0  0  0  0  0  0
  183.3010  177.4110  138.2050 C   0  0  1  0  0  3  0  0  0  0  0  0
  183.3030  176.8020  139.4600 O   0  0  0  0  0  1  0  0  0  0  0  0
  183.7290  179.6920  139.1070 C   0  0  0  0  0  1  0  0  0  0  0  0
  182.7560  178.8210  138.3360 C   0  0  0  0  0  2  0  0  0  0  0  0
  1  2  1  0  0  0  0
  2  5  2  0  0  0  0
  2 18  1  0  0  0  0
  3  6  1  0  0  0  0
  4  8  1  0  0  0  0
  6  8  1  0  0  0  0
  6  1  2  0  0  0  0
  7 24  1  6  0  0  0
  7  3  1  0  0  0  0
  7  4  1  0  0  0  0
  8  9  2  0  0  0  0
  9  5  1  0  0  0  0
 10 17  2  0  0  0  0
 11 16  1  0  0  0  0
 12 15  1  0  0  0  0
 13  9  1  1  0  0  0
 13 11  1  0  0  0  0
 13 10  1  0  0  0  0
 14 11  2  0  0  0  0
 16 12  2  0  0  0  0
 17 12  1  0  0  0  0
 18 20  1  0  0  0  0
 19 21  1  0  0  0  0
 20 19  2  0  0  0  0
 20 23  1  0  0  0  0
 21 22  1  0  0  0  0
 23 22  2  0  0  0  0
 25 24  1  0  0  0  0
 26 30  1  0  0  0  0
 27 25  1  0  0  0  0
 27 28  1  0  0  0  0
 28 26  1  0  0  0  0
 29 28  2  0  0  0  0
 30 33  1  0  0  0  0
 30 31  1  1  0  0  0
 33 32  1  0  0  0  0
M  END
>  <MODEL>
4

>  <REMARK>
 VINA RESULT:      -8.1      2.532      7.712
  Name = 
  8 active torsions:
  status: ('A' for Active; 'I' for Inactive)
    1  A    between atoms: N_1  and  C_20
    2  A    between atoms: C_4  and  N_12
    3  A    between atoms: N_7  and  N_25
    4  A    between atoms: C_11  and  N_12
    5  A    between atoms: C_17  and  C_22
    6  A    between atoms: C_17  and  N_25
    7  A    between atoms: C_19  and  C_28
    8  A    between atoms: C_20  and  C_32
                            x       y       z     vdW  Elec       q    Type
                         _______ _______ _______ _____ _____    ______ ____

>  <TORSDO>
F 8

$$$$
=
 OpenBabel10232411143D

 33 36  0  0  1  0  0  0  0  0999 V2000
  186.4500  178.3800  141.5300 C   0  0  0  0  0  3  0  0  0  0  0  0
  186.7510  178.0370  142.8620 C   0  0  0  0  0  0  0  0  0  0  0  0
  187.3810  178.7220  139.2650 O   0  0  0  0  0  0  0  0  0  0  0  0
  189.6510  178.2330  139.7500 C   0  0  0  0  0  2  0  0  0  0  0  0
  188.0810  177.7400  143.2210 C   0  0  0  0  0  3  0  0  0  0  0  0
  187.4890  178.4120  140.6020 C   0  0  0  0  0  0  0  0  0  0  0  0
  188.6640  178.6640  138.6410 C   0  0  1  0  0  3  0  0  0  0  0  0
  188.7760  178.1210  140.9480 C   0  0  0  0  0  0  0  0  0  0  0  0
  189.1130  177.7790  142.2680 C   0  0  0  0  0  0  0  0  0  0  0  0
  191.1050  178.5680  143.5160 C   0  0  0  0  0  3  0  0  0  0  0  0
  190.5950  176.1140  143.3880 C   0  0  0  0  0  0  0  0  0  0  0  0
  191.4650  177.0610  145.4050 C   0  0  0  0  0  0  0  0  0  0  0  0
  190.5150  177.4510  142.6940 C   0  0  1  0  0  3  0  0  0  0  0  0
  190.2690  175.0660  142.7700 O   0  0  0  0  0  0  0  0  0  0  0  0
  191.8920  176.9130  146.7530 N   0  0  0  0  0  1  0  0  0  0  0  0
  191.0400  176.0250  144.7480 N   0  0  0  0  0  0  0  0  0  0  0  0
  191.5310  178.3860  144.7670 C   0  0  0  0  0  3  0  0  0  0  0  0
  185.7380  177.9830  143.8750 N   0  0  0  0  0  2  0  0  0  0  0  0
  185.2590  179.3980  145.8390 N   0  0  0  0  0  0  0  0  0  0  0  0
  185.8880  178.3690  145.2470 C   0  0  0  0  0  0  0  0  0  0  0  0
  185.6750  179.3980  147.0940 N   0  0  0  0  0  2  0  0  0  0  0  0
  186.5340  178.4130  147.3150 N   0  0  0  0  0  0  0  0  0  0  0  0
  186.6950  177.7340  146.1610 C   0  0  0  0  0  3  0  0  0  0  0  0
  188.6420  177.6350  137.5230 C   0  0  0  0  0  2  0  0  0  0  0  0
  187.2690  177.3400  137.1520 N   0  0  0  0  0  2  0  0  0  0  0  0
  186.7070  174.5440  136.9210 N   0  0  0  0  0  2  0  0  0  0  0  0
  187.3120  176.7150  135.8990 N   0  0  0  0  0  2  0  0  0  0  0  0
  187.0280  175.3240  135.7660 C   0  0  0  0  0  0  0  0  0  0  0  0
  187.0570  174.7920  134.6240 O   0  0  0  0  0  0  0  0  0  0  0  0
  186.4210  173.1190  136.8490 C   0  0  1  0  0  3  0  0  0  0  0  0
  187.5270  172.3970  137.2980 O   0  0  0  0  0  1  0  0  0  0  0  0
  183.9600  173.3810  137.1270 C   0  0  0  0  0  1  0  0  0  0  0  0
  185.2240  172.7890  137.7210 C   0  0  0  0  0  2  0  0  0  0  0  0
  1  2  1  0  0  0  0
  2  5  2  0  0  0  0
  2 18  1  0  0  0  0
  3  6  1  0  0  0  0
  4  8  1  0  0  0  0
  6  8  1  0  0  0  0
  6  1  2  0  0  0  0
  7 24  1  6  0  0  0
  7  3  1  0  0  0  0
  7  4  1  0  0  0  0
  8  9  2  0  0  0  0
  9  5  1  0  0  0  0
 10 17  2  0  0  0  0
 11 16  1  0  0  0  0
 12 15  1  0  0  0  0
 13  9  1  1  0  0  0
 13 11  1  0  0  0  0
 13 10  1  0  0  0  0
 14 11  2  0  0  0  0
 16 12  2  0  0  0  0
 17 12  1  0  0  0  0
 18 20  1  0  0  0  0
 19 21  1  0  0  0  0
 20 19  2  0  0  0  0
 20 23  1  0  0  0  0
 21 22  1  0  0  0  0
 23 22  2  0  0  0  0
 25 24  1  0  0  0  0
 27 25  1  0  0  0  0
 28 27  1  0  0  0  0
 28 26  1  0  0  0  0
 29 28  2  0  0  0  0
 30 26  1  0  0  0  0
 30 31  1  1  0  0  0
 30 33  1  0  0  0  0
 32 33  1  0  0  0  0
M  END
>  <MODEL>
5

>  <REMARK>
 VINA RESULT:      -8.0      2.824      8.080
  Name = 
  8 active torsions:
  status: ('A' for Active; 'I' for Inactive)
    1  A    between atoms: N_1  and  C_20
    2  A    between atoms: C_4  and  N_12
    3  A    between atoms: N_7  and  N_25
    4  A    between atoms: C_11  and  N_12
    5  A    between atoms: C_17  and  C_22
    6  A    between atoms: C_17  and  N_25
    7  A    between atoms: C_19  and  C_28
    8  A    between atoms: C_20  and  C_32
                            x       y       z     vdW  Elec       q    Type
                         _______ _______ _______ _____ _____    ______ ____

>  <TORSDO>
F 8

$$$$
=
 OpenBabel10232411143D

 33 36  0  0  1  0  0  0  0  0999 V2000
  186.1000  178.4140  146.6960 C   0  0  0  0  0  3  0  0  0  0  0  0
  187.3310  177.7450  146.5480 C   0  0  0  0  0  0  0  0  0  0  0  0
  184.1420  179.3430  145.5060 O   0  0  0  0  0  0  0  0  0  0  0  0
  184.7900  178.7860  143.2940 C   0  0  0  0  0  2  0  0  0  0  0  0
  187.7780  177.3880  145.2610 C   0  0  0  0  0  3  0  0  0  0  0  0
  185.3600  178.7010  145.5520 C   0  0  0  0  0  0  0  0  0  0  0  0
  183.7030  179.4700  144.1530 C   0  0  1  0  0  3  0  0  0  0  0  0
  185.7910  178.3530  144.3050 C   0  0  0  0  0  0  0  0  0  0  0  0
  187.0150  177.6890  144.1200 C   0  0  0  0  0  0  0  0  0  0  0  0
  188.0350  178.4840  142.0050 C   0  0  0  0  0  3  0  0  0  0  0  0
  188.5520  176.1820  142.8600 C   0  0  0  0  0  0  0  0  0  0  0  0
  190.2590  177.4900  141.8130 C   0  0  0  0  0  0  0  0  0  0  0  0
  187.5300  177.2870  142.7680 C   0  0  1  0  0  3  0  0  0  0  0  0
  188.2270  175.0670  143.3460 O   0  0  0  0  0  0  0  0  0  0  0  0
  191.6040  177.6410  141.3760 N   0  0  0  0  0  1  0  0  0  0  0  0
  189.8920  176.3900  142.3970 N   0  0  0  0  0  0  0  0  0  0  0  0
  189.2950  178.5780  141.5760 C   0  0  0  0  0  3  0  0  0  0  0  0
  188.1510  177.4140  147.6770 N   0  0  0  0  0  2  0  0  0  0  0  0
  190.4640  177.8510  148.4140 N   0  0  0  0  0  0  0  0  0  0  0  0
  189.5660  177.1930  147.6620 C   0  0  0  0  0  0  0  0  0  0  0  0
  191.6420  177.3400  148.0950 N   0  0  0  0  0  2  0  0  0  0  0  0
  191.5200  176.3910  147.1780 N   0  0  0  0  0  0  0  0  0  0  0  0
  190.2120  176.2670  146.8760 C   0  0  0  0  0  3  0  0  0  0  0  0
  182.3690  178.7630  143.9810 C   0  0  0  0  0  2  0  0  0  0  0  0
  181.6000  179.4100  142.9320 N   0  0  0  0  0  2  0  0  0  0  0  0
  183.0920  179.3090  140.4920 N   0  0  0  0  0  2  0  0  0  0  0  0
  181.3150  178.4300  141.9730 N   0  0  0  0  0  2  0  0  0  0  0  0
  182.0530  178.3620  140.7560 C   0  0  0  0  0  0  0  0  0  0  0  0
  181.7860  177.4580  139.9190 O   0  0  0  0  0  0  0  0  0  0  0  0
  183.8690  179.2980  139.2620 C   0  0  1  0  0  3  0  0  0  0  0  0
  184.1070  180.6080  138.8460 O   0  0  0  0  0  1  0  0  0  0  0  0
  185.8800  178.3050  138.1790 C   0  0  0  0  0  1  0  0  0  0  0  0
  185.1980  178.6020  139.5000 C   0  0  0  0  0  2  0  0  0  0  0  0
  2  1  1  0  0  0  0
  2 18  1  0  0  0  0
  3  6  1  0  0  0  0
  4  7  1  0  0  0  0
  4  8  1  0  0  0  0
  5  2  2  0  0  0  0
  6  1  2  0  0  0  0
  7 24  1  1  0  0  0
  7  3  1  0  0  0  0
  8  6  1  0  0  0  0
  9  8  2  0  0  0  0
  9  5  1  0  0  0  0
 10 13  1  0  0  0  0
 11 14  2  0  0  0  0
 12 16  2  0  0  0  0
 13 11  1  0  0  0  0
 13  9  1  1  0  0  0
 15 12  1  0  0  0  0
 16 11  1  0  0  0  0
 17 12  1  0  0  0  0
 17 10  2  0  0  0  0
 20 18  1  0  0  0  0
 20 19  2  0  0  0  0
 21 19  1  0  0  0  0
 22 21  1  0  0  0  0
 23 22  2  0  0  0  0
 23 20  1  0  0  0  0
 25 24  1  0  0  0  0
 26 28  1  0  0  0  0
 27 25  1  0  0  0  0
 28 27  1  0  0  0  0
 29 28  2  0  0  0  0
 30 31  1  1  0  0  0
 30 33  1  0  0  0  0
 30 26  1  0  0  0  0
 32 33  1  0  0  0  0
M  END
>  <MODEL>
6

>  <REMARK>
 VINA RESULT:      -7.8      3.033      8.340
  Name = 
  8 active torsions:
  status: ('A' for Active; 'I' for Inactive)
    1  A    between atoms: N_1  and  C_20
    2  A    between atoms: C_4  and  N_12
    3  A    between atoms: N_7  and  N_25
    4  A    between atoms: C_11  and  N_12
    5  A    between atoms: C_17  and  C_22
    6  A    between atoms: C_17  and  N_25
    7  A    between atoms: C_19  and  C_28
    8  A    between atoms: C_20  and  C_32
                            x       y       z     vdW  Elec       q    Type
                         _______ _______ _______ _____ _____    ______ ____

>  <TORSDO>
F 8

$$$$
=
 OpenBabel10232411143D

 33 36  0  0  1  0  0  0  0  0999 V2000
  187.3170  177.6290  141.9020 C   0  0  0  0  0  3  0  0  0  0  0  0
  188.7220  177.6470  141.8030 C   0  0  0  0  0  0  0  0  0  0  0  0
  185.3890  177.8330  143.4370 O   0  0  0  0  0  0  0  0  0  0  0  0
  186.5910  178.1960  145.4490 C   0  0  0  0  0  2  0  0  0  0  0  0
  189.4970  177.8540  142.9620 C   0  0  0  0  0  3  0  0  0  0  0  0
  186.7370  177.8180  143.1540 C   0  0  0  0  0  0  0  0  0  0  0  0
  185.1820  178.0390  144.8340 C   0  0  1  0  0  3  0  0  0  0  0  0
  187.4870  178.0210  144.2750 C   0  0  0  0  0  0  0  0  0  0  0  0
  188.8900  178.0420  144.2150 C   0  0  0  0  0  0  0  0  0  0  0  0
  189.2980  177.4120  146.5780 C   0  0  0  0  0  3  0  0  0  0  0  0
  191.2190  178.0750  145.1070 C   0  0  0  0  0  0  0  0  0  0  0  0
  191.4780  176.3160  146.7080 C   0  0  0  0  0  0  0  0  0  0  0  0
  189.7560  178.2620  145.4210 C   0  0  1  0  0  3  0  0  0  0  0  0
  191.7790  178.8180  144.2580 O   0  0  0  0  0  0  0  0  0  0  0  0
  192.2810  175.3200  147.3270 N   0  0  0  0  0  1  0  0  0  0  0  0
  191.9820  177.0560  145.7670 N   0  0  0  0  0  0  0  0  0  0  0  0
  190.0900  176.5110  147.1610 C   0  0  0  0  0  3  0  0  0  0  0  0
  189.3940  177.4590  140.5510 N   0  0  0  0  0  2  0  0  0  0  0  0
  188.9810  179.1630  138.8150 N   0  0  0  0  0  0  0  0  0  0  0  0
  188.9340  177.8980  139.2670 C   0  0  0  0  0  0  0  0  0  0  0  0
  188.4650  179.1280  137.5980 N   0  0  0  0  0  2  0  0  0  0  0  0
  188.0980  177.8980  137.2680 N   0  0  0  0  0  0  0  0  0  0  0  0
  188.3820  177.0850  138.3050 C   0  0  0  0  0  3  0  0  0  0  0  0
  184.3650  179.3020  145.0490 C   0  0  0  0  0  2  0  0  0  0  0  0
  183.8000  179.7450  143.7850 N   0  0  0  0  0  2  0  0  0  0  0  0
  182.6170  178.5820  141.4540 N   0  0  0  0  0  2  0  0  0  0  0  0
  182.4500  179.3740  143.7920 N   0  0  0  0  0  2  0  0  0  0  0  0
  181.8470  178.7880  142.6410 C   0  0  0  0  0  0  0  0  0  0  0  0
  180.6340  178.4490  142.6810 O   0  0  0  0  0  0  0  0  0  0  0  0
  182.0540  178.0010  140.2440 C   0  0  1  0  0  3  0  0  0  0  0  0
  181.8950  178.9950  139.2780 O   0  0  0  0  0  1  0  0  0  0  0  0
  182.1820  175.7880  139.1100 C   0  0  0  0  0  1  0  0  0  0  0  0
  182.9830  176.9290  139.7080 C   0  0  0  0  0  2  0  0  0  0  0  0
  1  6  1  0  0  0  0
  2  1  2  0  0  0  0
  2  5  1  0  0  0  0
  3  7  1  0  0  0  0
  5  9  2  0  0  0  0
  6  3  1  0  0  0  0
  6  8  2  0  0  0  0
  7 24  1  6  0  0  0
  7  4  1  0  0  0  0
  8  4  1  0  0  0  0
  9  8  1  0  0  0  0
 10 17  2  0  0  0  0
 11 13  1  0  0  0  0
 11 16  1  0  0  0  0
 12 17  1  0  0  0  0
 12 15  1  0  0  0  0
 13  9  1  6  0  0  0
 13 10  1  0  0  0  0
 14 11  2  0  0  0  0
 16 12  2  0  0  0  0
 18  2  1  0  0  0  0
 19 20  2  0  0  0  0
 20 18  1  0  0  0  0
 21 19  1  0  0  0  0
 22 21  1  0  0  0  0
 22 23  2  0  0  0  0
 23 20  1  0  0  0  0
 25 27  1  0  0  0  0
 25 24  1  0  0  0  0
 26 28  1  0  0  0  0
 28 29  2  0  0  0  0
 28 27  1  0  0  0  0
 30 31  1  6  0  0  0
 30 26  1  0  0  0  0
 32 33  1  0  0  0  0
 33 30  1  0  0  0  0
M  END
>  <MODEL>
7

>  <REMARK>
 VINA RESULT:      -7.7      2.955      7.817
  Name = 
  8 active torsions:
  status: ('A' for Active; 'I' for Inactive)
    1  A    between atoms: N_1  and  C_20
    2  A    between atoms: C_4  and  N_12
    3  A    between atoms: N_7  and  N_25
    4  A    between atoms: C_11  and  N_12
    5  A    between atoms: C_17  and  C_22
    6  A    between atoms: C_17  and  N_25
    7  A    between atoms: C_19  and  C_28
    8  A    between atoms: C_20  and  C_32
                            x       y       z     vdW  Elec       q    Type
                         _______ _______ _______ _____ _____    ______ ____

>  <TORSDO>
F 8

$$$$
=
 OpenBabel10232411143D

 33 36  0  0  1  0  0  0  0  0999 V2000
  187.4340  178.2690  142.2920 C   0  0  0  0  0  3  0  0  0  0  0  0
  186.8100  178.6980  141.1050 C   0  0  0  0  0  0  0  0  0  0  0  0
  189.3790  177.0750  143.2440 O   0  0  0  0  0  0  0  0  0  0  0  0
  190.4780  176.5370  141.2120 C   0  0  0  0  0  2  0  0  0  0  0  0
  187.4070  178.4070  139.8620 C   0  0  0  0  0  3  0  0  0  0  0  0
  188.6330  177.5670  142.1960 C   0  0  0  0  0  0  0  0  0  0  0  0
  190.5350  176.3990  142.7500 C   0  0  1  0  0  3  0  0  0  0  0  0
  189.2130  177.2880  140.9930 C   0  0  0  0  0  0  0  0  0  0  0  0
  188.6170  177.6970  139.7880 C   0  0  0  0  0  0  0  0  0  0  0  0
  190.7100  177.6220  138.4610 C   0  0  0  0  0  3  0  0  0  0  0  0
  188.8290  176.0490  137.9270 C   0  0  0  0  0  0  0  0  0  0  0  0
  191.0990  175.3070  137.7830 C   0  0  0  0  0  0  0  0  0  0  0  0
  189.2180  177.4120  138.4420 C   0  0  1  0  0  3  0  0  0  0  0  0
  187.6170  175.7780  137.7230 O   0  0  0  0  0  0  0  0  0  0  0  0
  192.0470  174.2830  137.5140 N   0  0  0  0  0  1  0  0  0  0  0  0
  189.8300  175.0570  137.6670 N   0  0  0  0  0  0  0  0  0  0  0  0
  191.5720  176.6480  138.1670 C   0  0  0  0  0  3  0  0  0  0  0  0
  185.5750  179.4250  141.1210 N   0  0  0  0  0  2  0  0  0  0  0  0
  184.1060  179.9120  139.1990 N   0  0  0  0  0  0  0  0  0  0  0  0
  184.4390  179.1870  140.2800 C   0  0  0  0  0  0  0  0  0  0  0  0
  183.0060  179.3560  138.7200 N   0  0  0  0  0  2  0  0  0  0  0  0
  182.6360  178.3150  139.4520 N   0  0  0  0  0  0  0  0  0  0  0  0
  183.5250  178.1750  140.4560 C   0  0  0  0  0  3  0  0  0  0  0  0
  191.7880  177.0640  143.2960 C   0  0  0  0  0  2  0  0  0  0  0  0
  191.4490  177.8890  144.4420 N   0  0  0  0  0  2  0  0  0  0  0  0
  189.2840  177.5650  146.2840 N   0  0  0  0  0  2  0  0  0  0  0  0
  191.6080  177.0890  145.5800 N   0  0  0  0  0  2  0  0  0  0  0  0
  190.5370  176.9120  146.5040 C   0  0  0  0  0  0  0  0  0  0  0  0
  190.7030  176.1720  147.5110 O   0  0  0  0  0  0  0  0  0  0  0  0
  188.1600  177.4320  147.1990 C   0  0  1  0  0  3  0  0  0  0  0  0
  188.2710  178.3790  148.2180 O   0  0  0  0  0  1  0  0  0  0  0  0
  186.0820  178.8000  147.0760 C   0  0  0  0  0  1  0  0  0  0  0  0
  186.8590  177.6570  146.4510 C   0  0  0  0  0  2  0  0  0  0  0  0
  2 18  1  0  0  0  0
  2  1  2  0  0  0  0
  4  7  1  0  0  0  0
  5  2  1  0  0  0  0
  6  1  1  0  0  0  0
  6  3  1  0  0  0  0
  7  3  1  0  0  0  0
  7 24  1  1  0  0  0
  8  4  1  0  0  0  0
  8  6  2  0  0  0  0
  9  5  2  0  0  0  0
  9  8  1  0  0  0  0
 11 13  1  0  0  0  0
 12 17  1  0  0  0  0
 13 10  1  0  0  0  0
 13  9  1  1  0  0  0
 14 11  2  0  0  0  0
 15 12  1  0  0  0  0
 16 12  2  0  0  0  0
 16 11  1  0  0  0  0
 17 10  2  0  0  0  0
 19 20  2  0  0  0  0
 20 23  1  0  0  0  0
 20 18  1  0  0  0  0
 21 19  1  0  0  0  0
 21 22  1  0  0  0  0
 22 23  2  0  0  0  0
 24 25  1  0  0  0  0
 25 27  1  0  0  0  0
 26 28  1  0  0  0  0
 26 30  1  0  0  0  0
 27 28  1  0  0  0  0
 28 29  2  0  0  0  0
 30 31  1  1  0  0  0
 33 32  1  0  0  0  0
 33 30  1  0  0  0  0
M  END
>  <MODEL>
8

>  <REMARK>
 VINA RESULT:      -7.7      1.647      1.973
  Name = 
  8 active torsions:
  status: ('A' for Active; 'I' for Inactive)
    1  A    between atoms: N_1  and  C_20
    2  A    between atoms: C_4  and  N_12
    3  A    between atoms: N_7  and  N_25
    4  A    between atoms: C_11  and  N_12
    5  A    between atoms: C_17  and  C_22
    6  A    between atoms: C_17  and  N_25
    7  A    between atoms: C_19  and  C_28
    8  A    between atoms: C_20  and  C_32
                            x       y       z     vdW  Elec       q    Type
                         _______ _______ _______ _____ _____    ______ ____

>  <TORSDO>
F 8

$$$$
=
 OpenBabel10232411143D

 33 36  0  0  1  0  0  0  0  0999 V2000
  187.5310  178.0910  139.4270 C   0  0  0  0  0  3  0  0  0  0  0  0
  187.2810  178.5130  140.7470 C   0  0  0  0  0  0  0  0  0  0  0  0
  189.1650  177.0070  137.9210 O   0  0  0  0  0  0  0  0  0  0  0  0
  190.8820  176.6080  139.5080 C   0  0  0  0  0  2  0  0  0  0  0  0
  188.2600  178.3110  141.7400 C   0  0  0  0  0  3  0  0  0  0  0  0
  188.7510  177.4810  139.1460 C   0  0  0  0  0  0  0  0  0  0  0  0
  190.4810  176.4630  138.0230 C   0  0  1  0  0  3  0  0  0  0  0  0
  189.6990  177.2820  140.1070 C   0  0  0  0  0  0  0  0  0  0  0  0
  189.4850  177.6930  141.4330 C   0  0  0  0  0  0  0  0  0  0  0  0
  190.6650  178.7510  143.3400 C   0  0  0  0  0  3  0  0  0  0  0  0
  190.1860  176.2880  143.3710 C   0  0  0  0  0  0  0  0  0  0  0  0
  190.0190  177.5750  145.3810 C   0  0  0  0  0  0  0  0  0  0  0  0
  190.4980  177.4960  142.5230 C   0  0  1  0  0  3  0  0  0  0  0  0
  190.1560  175.1440  142.8460 O   0  0  0  0  0  0  0  0  0  0  0  0
  189.7440  177.6570  146.7730 N   0  0  0  0  0  1  0  0  0  0  0  0
  189.9220  176.4310  144.7730 N   0  0  0  0  0  0  0  0  0  0  0  0
  190.4340  178.7850  144.6530 C   0  0  0  0  0  3  0  0  0  0  0  0
  186.0500  179.1490  141.1160 N   0  0  0  0  0  2  0  0  0  0  0  0
  184.4850  179.9200  139.3710 N   0  0  0  0  0  0  0  0  0  0  0  0
  184.8190  179.1030  140.3850 C   0  0  0  0  0  0  0  0  0  0  0  0
  183.2810  179.5360  138.9830 N   0  0  0  0  0  2  0  0  0  0  0  0
  182.8460  178.5140  139.7070 N   0  0  0  0  0  0  0  0  0  0  0  0
  183.7990  178.2090  140.6110 C   0  0  0  0  0  3  0  0  0  0  0  0
  190.4600  174.9970  137.6200 C   0  0  0  0  0  2  0  0  0  0  0  0
  191.3290  174.7890  136.4740 N   0  0  0  0  0  2  0  0  0  0  0  0
  193.9650  173.8930  137.1310 N   0  0  0  0  0  2  0  0  0  0  0  0
  192.3770  175.7100  136.5850 N   0  0  0  0  0  2  0  0  0  0  0  0
  193.6970  175.2800  136.9050 C   0  0  0  0  0  0  0  0  0  0  0  0
  194.6250  176.1300  136.9810 O   0  0  0  0  0  0  0  0  0  0  0  0
  195.2900  173.3970  137.4750 C   0  0  1  0  0  3  0  0  0  0  0  0
  195.3500  173.1320  138.8430 O   0  0  0  0  0  1  0  0  0  0  0  0
  194.3330  171.2480  136.6560 C   0  0  0  0  0  1  0  0  0  0  0  0
  195.5740  172.1190  136.7070 C   0  0  0  0  0  2  0  0  0  0  0  0
  1  2  1  0  0  0  0
  2 18  1  0  0  0  0
  2  5  2  0  0  0  0
  3  7  1  0  0  0  0
  3  6  1  0  0  0  0
  4  8  1  0  0  0  0
  6  1  2  0  0  0  0
  6  8  1  0  0  0  0
  7 24  1  1  0  0  0
  7  4  1  0  0  0  0
  8  9  2  0  0  0  0
  9  5  1  0  0  0  0
 10 17  2  0  0  0  0
 11 16  1  0  0  0  0
 12 15  1  0  0  0  0
 13  9  1  6  0  0  0
 13 10  1  0  0  0  0
 13 11  1  0  0  0  0
 14 11  2  0  0  0  0
 16 12  2  0  0  0  0
 17 12  1  0  0  0  0
 19 20  2  0  0  0  0
 20 23  1  0  0  0  0
 20 18  1  0  0  0  0
 21 19  1  0  0  0  0
 21 22  1  0  0  0  0
 22 23  2  0  0  0  0
 25 27  1  0  0  0  0
 25 24  1  0  0  0  0
 26 30  1  0  0  0  0
 27 28  1  0  0  0  0
 28 29  2  0  0  0  0
 28 26  1  0  0  0  0
 30 31  1  1  0  0  0
 32 33  1  0  0  0  0
 33 30  1  0  0  0  0
M  END
>  <MODEL>
9

>  <REMARK>
 VINA RESULT:      -7.3      3.739      7.589
  Name = 
  8 active torsions:
  status: ('A' for Active; 'I' for Inactive)
    1  A    between atoms: N_1  and  C_20
    2  A    between atoms: C_4  and  N_12
    3  A    between atoms: N_7  and  N_25
    4  A    between atoms: C_11  and  N_12
    5  A    between atoms: C_17  and  C_22
    6  A    between atoms: C_17  and  N_25
    7  A    between atoms: C_19  and  C_28
    8  A    between atoms: C_20  and  C_32
                            x       y       z     vdW  Elec       q    Type
                         _______ _______ _______ _____ _____    ______ ____

>  <TORSDO>
F 8

$$$$
