=
 OpenBabel10232408013D

 46 51  0  0  1  0  0  0  0  0999 V2000
  185.3400  176.6750  136.5880 C   0  0  1  0  0  3  0  0  0  0  0  0
  187.7900  177.7750  141.7000 C   0  0  0  0  0  3  0  0  0  0  0  0
  189.7760  175.6700  137.5690 S   0  0  0  0  0  0  0  0  0  0  0  0
  190.2250  177.8130  142.2920 C   0  0  0  0  0  0  0  0  0  0  0  0
  190.1360  177.0080  139.8960 C   0  0  0  0  0  0  0  0  0  0  0  0
  188.8860  177.2800  139.5470 C   0  0  0  0  0  0  0  0  0  0  0  0
  190.8010  177.5020  141.1190 C   0  0  0  0  0  3  0  0  0  0  0  0
  187.5140  177.1310  137.5550 C   0  0  0  0  0  0  0  0  0  0  0  0
  190.9190  176.2130  138.8950 C   0  0  2  0  0  3  0  0  0  0  0  0
  191.9240  176.9880  138.3550 F   0  0  0  0  0  0  0  0  0  0  0  0
  188.4990  176.6780  138.2840 C   0  0  0  0  0  0  0  0  0  0  0  0
  186.5290  177.5570  136.8130 C   0  0  0  0  0  3  0  0  0  0  0  0
  188.7810  177.6300  142.5780 C   0  0  0  0  0  3  0  0  0  0  0  0
  188.0050  178.2300  140.2980 C   0  0  0  0  0  2  0  0  0  0  0  0
  191.9350  177.4440  143.8920 O   0  0  0  0  0  0  0  0  0  0  0  0
  191.0030  179.5320  143.9120 O   0  0  0  0  0  1  0  0  0  0  0  0
  191.1020  178.2430  143.3950 C   0  0  0  0  0  0  0  0  0  0  0  0
  185.5180  175.2820  137.2090 C   0  0  0  0  0  2  0  0  0  0  0  0
  186.3430  174.5680  135.0650 N   0  0  0  0  0  2  0  0  0  0  0  0
  185.9060  174.2130  136.2190 C   0  0  0  0  0  0  0  0  0  0  0  0
  187.5400  172.3390  136.5170 C   0  0  0  0  0  1  0  0  0  0  0  0
  186.1080  172.8010  136.6950 C   0  0  0  0  0  3  0  0  0  0  0  0
  185.1880  171.8340  135.9730 C   0  0  0  0  0  1  0  0  0  0  0  0
  184.0620  177.3650  137.0560 C   0  0  0  0  0  2  0  0  0  0  0  0
  182.4680  179.5540  138.9280 C   0  0  0  0  0  2  0  0  0  0  0  0
  183.2300  177.2860  139.4250 C   0  0  0  0  0  2  0  0  0  0  0  0
  183.9140  179.4080  138.4830 C   0  0  0  0  0  2  0  0  0  0  0  0
  180.9280  177.6370  138.5920 C   0  0  0  0  0  1  0  0  0  0  0  0
  184.2300  177.9220  138.4710 C   0  0  2  0  0  3  0  0  0  0  0  0
  182.0250  178.2000  139.4710 C   0  0  2  0  0  0  0  0  0  0  0  0
  181.5040  178.3170  140.8680 C   0  0  0  0  0  3  0  0  0  0  0  0
  182.0330  179.1290  141.7120 N   0  0  0  0  0  0  0  0  0  0  0  0
  181.5160  179.2250  143.0510 C   0  0  0  0  0  2  0  0  0  0  0  0
  182.4240  178.4910  144.0240 C   0  0  1  0  0  3  0  0  0  0  0  0
  183.7060  178.3650  143.4570 O   0  0  0  0  0  0  0  0  0  0  0  0
  183.5410  179.3670  144.4290 C   0  0  2  0  0  3  0  0  0  0  0  0
  184.1080  178.8860  145.7510 C   0  0  0  0  0  2  0  0  0  0  0  0
  185.4530  179.4180  145.9340 N   0  0  0  0  0  2  0  0  0  0  0  0
  189.7080  177.7880  146.7720 C   0  0  0  0  0  2  0  0  0  0  0  0
  187.2230  177.8210  146.4670 C   0  0  2  0  0  0  0  0  0  0  0  0
  186.3790  178.4250  145.4020 C   0  0  1  0  0  3  0  0  0  0  0  0
  186.0940  177.1550  145.9660 O   0  0  0  0  0  0  0  0  0  0  0  0
  187.0220  178.2650  147.8470 N   0  0  0  0  0  2  0  0  0  0  0  0
  189.4440  178.1040  148.2500 C   0  0  0  0  0  2  0  0  0  0  0  0
  188.0460  177.6900  148.7100 C   0  0  0  0  0  2  0  0  0  0  0  0
  188.5260  177.1310  146.0680 C   0  0  0  0  0  2  0  0  0  0  0  0
  1 12  1  1  0  0  0
  1 24  1  0  0  0  0
  1 18  1  0  0  0  0
  2 13  2  0  0  0  0
  3 11  1  0  0  0  0
  3  9  1  0  0  0  0
  4 13  1  0  0  0  0
  4 17  1  0  0  0  0
  5  7  1  0  0  0  0
  6  5  2  0  0  0  0
  6 14  1  0  0  0  0
  7  4  2  0  0  0  0
  8 11  2  0  0  0  0
  9 10  1  6  0  0  0
  9  5  1  0  0  0  0
 11  6  1  0  0  0  0
 12  8  2  0  0  0  0
 14  2  1  0  0  0  0
 17 15  2  0  0  0  0
 17 16  1  0  0  0  0
 19 20  2  0  0  0  0
 20 22  1  0  0  0  0
 20 18  1  0  0  0  0
 21 22  1  0  0  0  0
 23 22  1  0  0  0  0
 25 30  1  0  0  0  0
 26 30  1  0  0  0  0
 27 25  1  0  0  0  0
 29 24  1  6  0  0  0
 29 27  1  0  0  0  0
 29 26  1  0  0  0  0
 30 28  1  6  0  0  0
 30 31  1  0  0  0  0
 31 32  2  0  0  0  0
 32 33  1  0  0  0  0
 34 33  1  6  0  0  0
 34 36  1  0  0  0  0
 35 34  1  0  0  0  0
 35 36  1  0  0  0  0
 36 37  1  1  0  0  0
 37 38  1  0  0  0  0
 39 44  1  0  0  0  0
 40 46  1  6  0  0  0
 40 43  1  0  0  0  0
 41 38  1  1  0  0  0
 41 42  1  0  0  0  0
 41 40  1  0  0  0  0
 42 40  1  0  0  0  0
 43 45  1  0  0  0  0
 44 45  1  0  0  0  0
 46 39  1  0  0  0  0
M  END
>  <MODEL>
1

>  <REMARK>
 VINA RESULT:      -8.3      0.000      0.000
  Name = 
  13 active torsions:
  status: ('A' for Active; 'I' for Inactive)
    1  A    between atoms: C_2  and  C_17
    2  A    between atoms: C_2  and  C_35
    3  A    between atoms: C_2  and  C_44
    4  A    between atoms: C_6  and  C_42
    5  A    between atoms: N_9  and  C_10
    6  A    between atoms: N_9  and  C_46
    7  A    between atoms: C_11  and  C_39
    8  A    between atoms: C_17  and  C_23
    9  A    between atoms: C_20  and  C_22
   10  A    between atoms: C_20  and  N_36
   11  A    between atoms: C_23  and  C_30
   12  A    between atoms: C_37  and  C_44
   13  A    between atoms: C_41  and  C_46
                            x       y       z     vdW  Elec       q    Type
                         _______ _______ _______ _____ _____    ______ ____

>  <TORSDO>
F 13

$$$$
=
 OpenBabel10232408013D

 46 51  0  0  1  0  0  0  0  0999 V2000
  189.3550  177.1830  138.1620 C   0  0  1  0  0  3  0  0  0  0  0  0
  185.4280  178.3330  142.2370 C   0  0  0  0  0  3  0  0  0  0  0  0
  189.9670  176.1750  142.6620 S   0  0  0  0  0  0  0  0  0  0  0  0
  185.7210  178.3700  144.7260 C   0  0  0  0  0  0  0  0  0  0  0  0
  187.9270  177.5370  143.8090 C   0  0  0  0  0  0  0  0  0  0  0  0
  187.8220  177.8100  142.5160 C   0  0  0  0  0  0  0  0  0  0  0  0
  187.0180  178.0440  144.8570 C   0  0  0  0  0  3  0  0  0  0  0  0
  189.2110  177.6430  140.5360 C   0  0  0  0  0  0  0  0  0  0  0  0
  189.1290  176.7290  144.1950 C   0  0  2  0  0  3  0  0  0  0  0  0
  189.9940  177.4950  144.9490 F   0  0  0  0  0  0  0  0  0  0  0  0
  188.8650  177.1960  141.7130 C   0  0  0  0  0  0  0  0  0  0  0  0
  189.5680  178.0630  139.3530 C   0  0  0  0  0  3  0  0  0  0  0  0
  184.9490  178.1940  143.4720 C   0  0  0  0  0  3  0  0  0  0  0  0
  186.8230  178.7710  141.9500 C   0  0  0  0  0  2  0  0  0  0  0  0
  183.7410  178.8420  145.9410 O   0  0  0  0  0  0  0  0  0  0  0  0
  185.6990  179.2110  147.0650 O   0  0  0  0  0  1  0  0  0  0  0  0
  184.9980  178.8090  145.9310 C   0  0  0  0  0  0  0  0  0  0  0  0
  190.3040  175.9770  138.1470 C   0  0  0  0  0  2  0  0  0  0  0  0
  190.9110  175.8400  135.8230 N   0  0  0  0  0  2  0  0  0  0  0  0
  191.3170  176.0050  137.0300 C   0  0  0  0  0  0  0  0  0  0  0  0
  193.7620  175.8050  136.5280 C   0  0  0  0  0  1  0  0  0  0  0  0
  192.6910  176.5590  137.2900 C   0  0  0  0  0  3  0  0  0  0  0  0
  193.0300  176.5310  138.7690 C   0  0  0  0  0  1  0  0  0  0  0  0
  187.8890  176.7750  138.0500 C   0  0  0  0  0  2  0  0  0  0  0  0
  186.2840  177.1150  135.1950 C   0  0  0  0  0  2  0  0  0  0  0  0
  185.5770  177.5810  137.4870 C   0  0  0  0  0  2  0  0  0  0  0  0
  187.3670  177.9200  135.8950 C   0  0  0  0  0  2  0  0  0  0  0  0
  185.0860  175.3700  136.4920 C   0  0  0  0  0  1  0  0  0  0  0  0
  187.0650  177.8780  137.3830 C   0  0  2  0  0  3  0  0  0  0  0  0
  185.1830  176.8570  136.2180 C   0  0  2  0  0  0  0  0  0  0  0  0
  183.8570  177.3400  135.7240 C   0  0  0  0  0  3  0  0  0  0  0  0
  182.8480  177.4440  136.5130 N   0  0  0  0  0  0  0  0  0  0  0  0
  181.5820  177.9110  136.0150 C   0  0  0  0  0  2  0  0  0  0  0  0
  181.3530  179.3570  136.4230 C   0  0  1  0  0  3  0  0  0  0  0  0
  180.1280  179.8010  135.8890 O   0  0  0  0  0  0  0  0  0  0  0  0
  180.1360  179.4600  137.2520 C   0  0  2  0  0  3  0  0  0  0  0  0
  180.1970  180.7230  138.0890 C   0  0  0  0  0  2  0  0  0  0  0  0
  180.9050  180.4570  139.3350 N   0  0  0  0  0  2  0  0  0  0  0  0
  180.6730  175.8420  139.6640 C   0  0  0  0  0  2  0  0  0  0  0  0
  180.9630  178.2340  140.3450 C   0  0  2  0  0  0  0  0  0  0  0  0
  180.1430  179.4390  140.0480 C   0  0  1  0  0  3  0  0  0  0  0  0
  180.7250  179.2130  141.3220 O   0  0  0  0  0  0  0  0  0  0  0  0
  182.3620  178.2240  139.9170 N   0  0  0  0  0  2  0  0  0  0  0  0
  182.1790  175.8320  139.3730 C   0  0  0  0  0  2  0  0  0  0  0  0
  182.9450  176.9070  140.1440 C   0  0  0  0  0  2  0  0  0  0  0  0
  180.2500  176.9190  140.6570 C   0  0  0  0  0  2  0  0  0  0  0  0
  1 24  1  1  0  0  0
  1 12  1  0  0  0  0
  2 13  2  0  0  0  0
  3  9  1  0  0  0  0
  4  7  2  0  0  0  0
  4 17  1  0  0  0  0
  5  9  1  0  0  0  0
  5  7  1  0  0  0  0
  6  5  2  0  0  0  0
  8 11  2  0  0  0  0
  9 10  1  1  0  0  0
 11  6  1  0  0  0  0
 11  3  1  0  0  0  0
 12  8  2  0  0  0  0
 13  4  1  0  0  0  0
 14  2  1  0  0  0  0
 14  6  1  0  0  0  0
 17 15  2  0  0  0  0
 17 16  1  0  0  0  0
 18  1  1  0  0  0  0
 19 20  2  0  0  0  0
 20 22  1  0  0  0  0
 20 18  1  0  0  0  0
 21 22  1  0  0  0  0
 22 23  1  0  0  0  0
 25 27  1  0  0  0  0
 25 30  1  0  0  0  0
 27 29  1  0  0  0  0
 29 26  1  0  0  0  0
 29 24  1  1  0  0  0
 30 28  1  1  0  0  0
 30 26  1  0  0  0  0
 31 30  1  0  0  0  0
 31 32  2  0  0  0  0
 33 32  1  0  0  0  0
 34 33  1  6  0  0  0
 34 36  1  0  0  0  0
 35 34  1  0  0  0  0
 35 36  1  0  0  0  0
 36 37  1  1  0  0  0
 37 38  1  0  0  0  0
 39 46  1  0  0  0  0
 40 46  1  1  0  0  0
 40 42  1  0  0  0  0
 41 38  1  6  0  0  0
 41 40  1  0  0  0  0
 41 42  1  0  0  0  0
 43 45  1  0  0  0  0
 43 40  1  0  0  0  0
 44 39  1  0  0  0  0
 44 45  1  0  0  0  0
M  END
>  <MODEL>
2

>  <REMARK>
 VINA RESULT:      -8.1      3.258      6.690
  Name = 
  13 active torsions:
  status: ('A' for Active; 'I' for Inactive)
    1  A    between atoms: C_2  and  C_17
    2  A    between atoms: C_2  and  C_35
    3  A    between atoms: C_2  and  C_44
    4  A    between atoms: C_6  and  C_42
    5  A    between atoms: N_9  and  C_10
    6  A    between atoms: N_9  and  C_46
    7  A    between atoms: C_11  and  C_39
    8  A    between atoms: C_17  and  C_23
    9  A    between atoms: C_20  and  C_22
   10  A    between atoms: C_20  and  N_36
   11  A    between atoms: C_23  and  C_30
   12  A    between atoms: C_37  and  C_44
   13  A    between atoms: C_41  and  C_46
                            x       y       z     vdW  Elec       q    Type
                         _______ _______ _______ _____ _____    ______ ____

>  <TORSDO>
F 13

$$$$
=
 OpenBabel10232408013D

 46 51  0  0  1  0  0  0  0  0999 V2000
  189.0680  177.2940  138.0990 C   0  0  1  0  0  3  0  0  0  0  0  0
  185.3130  178.4190  142.3400 C   0  0  0  0  0  3  0  0  0  0  0  0
  189.8200  176.1640  142.5500 S   0  0  0  0  0  0  0  0  0  0  0  0
  185.6950  178.3900  144.8170 C   0  0  0  0  0  0  0  0  0  0  0  0
  187.8500  177.5370  143.8010 C   0  0  0  0  0  0  0  0  0  0  0  0
  187.7050  177.8440  142.5200 C   0  0  0  0  0  0  0  0  0  0  0  0
  186.9890  178.0350  144.8940 C   0  0  0  0  0  3  0  0  0  0  0  0
  189.0180  177.6980  140.4880 C   0  0  0  0  0  0  0  0  0  0  0  0
  189.0480  176.6970  144.1240 C   0  0  2  0  0  3  0  0  0  0  0  0
  189.9550  177.4270  144.8640 F   0  0  0  0  0  0  0  0  0  0  0  0
  188.7050  177.2290  141.6650 C   0  0  0  0  0  0  0  0  0  0  0  0
  189.3410  178.1410  139.3030 C   0  0  0  0  0  3  0  0  0  0  0  0
  184.8750  178.2600  143.5880 C   0  0  0  0  0  3  0  0  0  0  0  0
  186.7050  178.8380  142.0130 C   0  0  0  0  0  2  0  0  0  0  0  0
  183.7710  178.8890  146.1080 O   0  0  0  0  0  0  0  0  0  0  0  0
  185.7730  179.1520  147.1820 O   0  0  0  0  0  1  0  0  0  0  0  0
  185.0250  178.8130  146.0580 C   0  0  0  0  0  0  0  0  0  0  0  0
  188.0590  177.9440  137.1430 C   0  0  0  0  0  2  0  0  0  0  0  0
  186.0190  178.6270  138.2210 N   0  0  0  0  0  2  0  0  0  0  0  0
  186.6170  177.7250  137.5290 C   0  0  0  0  0  0  0  0  0  0  0  0
  186.2780  176.4490  135.4020 C   0  0  0  0  0  1  0  0  0  0  0  0
  185.8170  176.6610  136.8300 C   0  0  0  0  0  3  0  0  0  0  0  0
  184.3370  176.9950  136.8220 C   0  0  0  0  0  1  0  0  0  0  0  0
  190.3720  176.9130  137.4030 C   0  0  0  0  0  2  0  0  0  0  0  0
  192.1090  174.2100  136.6880 C   0  0  0  0  0  2  0  0  0  0  0  0
  192.6310  176.1010  138.1440 C   0  0  0  0  0  2  0  0  0  0  0  0
  190.9180  174.4850  137.5900 C   0  0  0  0  0  2  0  0  0  0  0  0
  193.3800  176.1420  135.7870 C   0  0  0  0  0  1  0  0  0  0  0  0
  191.1310  175.8560  138.2080 C   0  0  2  0  0  3  0  0  0  0  0  0
  193.1650  175.2640  137.0020 C   0  0  2  0  0  0  0  0  0  0  0  0
  194.4700  174.6350  137.3740 C   0  0  0  0  0  3  0  0  0  0  0  0
  195.0440  174.8980  138.4940 N   0  0  0  0  0  0  0  0  0  0  0  0
  196.2980  174.2810  138.8310 C   0  0  0  0  0  2  0  0  0  0  0  0
  197.2160  174.2500  137.6190 C   0  0  1  0  0  3  0  0  0  0  0  0
  198.0010  175.4180  137.6030 O   0  0  0  0  0  0  0  0  0  0  0  0
  198.6250  174.2420  138.0560 C   0  0  2  0  0  3  0  0  0  0  0  0
  199.4960  173.6740  136.9510 C   0  0  0  0  0  2  0  0  0  0  0  0
  199.9420  172.3350  137.3130 N   0  0  0  0  0  2  0  0  0  0  0  0
  198.9860  167.9510  136.1580 C   0  0  0  0  0  2  0  0  0  0  0  0
  198.7980  170.4460  136.2700 C   0  0  2  0  0  0  0  0  0  0  0  0
  199.8260  171.5090  136.1170 C   0  0  1  0  0  3  0  0  0  0  0  0
  198.5200  171.6340  135.5760 O   0  0  0  0  0  0  0  0  0  0  0  0
  198.0610  170.3700  137.5320 N   0  0  0  0  0  2  0  0  0  0  0  0
  198.0810  167.9140  137.3960 C   0  0  0  0  0  2  0  0  0  0  0  0
  197.2290  169.1730  137.5540 C   0  0  0  0  0  2  0  0  0  0  0  0
  198.8520  169.2330  135.3430 C   0  0  0  0  0  2  0  0  0  0  0  0
  1 18  1  6  0  0  0
  1 12  1  0  0  0  0
  2 13  2  0  0  0  0
  3  9  1  0  0  0  0
  4  7  2  0  0  0  0
  4 17  1  0  0  0  0
  5  9  1  0  0  0  0
  5  7  1  0  0  0  0
  6  5  2  0  0  0  0
  8 11  2  0  0  0  0
  9 10  1  1  0  0  0
 11  6  1  0  0  0  0
 11  3  1  0  0  0  0
 12  8  2  0  0  0  0
 13  4  1  0  0  0  0
 14  2  1  0  0  0  0
 14  6  1  0  0  0  0
 17 15  2  0  0  0  0
 17 16  1  0  0  0  0
 18 20  1  0  0  0  0
 20 19  2  0  0  0  0
 21 22  1  0  0  0  0
 22 20  1  0  0  0  0
 23 22  1  0  0  0  0
 24  1  1  0  0  0  0
 25 30  1  0  0  0  0
 25 27  1  0  0  0  0
 26 29  1  0  0  0  0
 27 29  1  0  0  0  0
 29 24  1  6  0  0  0
 30 28  1  6  0  0  0
 30 31  1  0  0  0  0
 30 26  1  0  0  0  0
 31 32  2  0  0  0  0
 32 33  1  0  0  0  0
 34 36  1  0  0  0  0
 34 33  1  1  0  0  0
 35 34  1  0  0  0  0
 35 36  1  0  0  0  0
 36 37  1  6  0  0  0
 37 38  1  0  0  0  0
 39 44  1  0  0  0  0
 40 46  1  6  0  0  0
 40 43  1  0  0  0  0
 41 40  1  0  0  0  0
 41 38  1  1  0  0  0
 42 41  1  0  0  0  0
 42 40  1  0  0  0  0
 43 45  1  0  0  0  0
 44 45  1  0  0  0  0
 46 39  1  0  0  0  0
M  END
>  <MODEL>
3

>  <REMARK>
 VINA RESULT:      -8.1      6.242     11.161
  Name = 
  13 active torsions:
  status: ('A' for Active; 'I' for Inactive)
    1  A    between atoms: C_2  and  C_17
    2  A    between atoms: C_2  and  C_35
    3  A    between atoms: C_2  and  C_44
    4  A    between atoms: C_6  and  C_42
    5  A    between atoms: N_9  and  C_10
    6  A    between atoms: N_9  and  C_46
    7  A    between atoms: C_11  and  C_39
    8  A    between atoms: C_17  and  C_23
    9  A    between atoms: C_20  and  C_22
   10  A    between atoms: C_20  and  N_36
   11  A    between atoms: C_23  and  C_30
   12  A    between atoms: C_37  and  C_44
   13  A    between atoms: C_41  and  C_46
                            x       y       z     vdW  Elec       q    Type
                         _______ _______ _______ _____ _____    ______ ____

>  <TORSDO>
F 13

$$$$
=
 OpenBabel10232408013D

 46 51  0  0  1  0  0  0  0  0999 V2000
  189.3700  177.5190  138.0830 C   0  0  1  0  0  3  0  0  0  0  0  0
  185.1650  178.5010  141.9180 C   0  0  0  0  0  3  0  0  0  0  0  0
  189.6200  176.2220  142.5450 S   0  0  0  0  0  0  0  0  0  0  0  0
  185.2680  178.3790  144.4190 C   0  0  0  0  0  0  0  0  0  0  0  0
  187.5230  177.5560  143.6190 C   0  0  0  0  0  0  0  0  0  0  0  0
  187.5210  177.9100  142.3410 C   0  0  0  0  0  0  0  0  0  0  0  0
  186.5450  178.0170  144.6260 C   0  0  0  0  0  3  0  0  0  0  0  0
  189.0530  177.8340  140.4650 C   0  0  0  0  0  0  0  0  0  0  0  0
  188.6770  176.6990  144.0420 C   0  0  2  0  0  3  0  0  0  0  0  0
  189.4950  177.3990  144.9050 F   0  0  0  0  0  0  0  0  0  0  0  0
  188.6110  177.3230  141.5820 C   0  0  0  0  0  0  0  0  0  0  0  0
  189.5070  178.3190  139.3410 C   0  0  0  0  0  3  0  0  0  0  0  0
  184.5900  178.2970  143.1020 C   0  0  0  0  0  3  0  0  0  0  0  0
  186.5850  178.9260  141.7640 C   0  0  0  0  0  2  0  0  0  0  0  0
  183.2730  179.1380  145.4500 O   0  0  0  0  0  0  0  0  0  0  0  0
  185.0170  178.7210  146.8680 O   0  0  0  0  0  1  0  0  0  0  0  0
  184.4630  178.7580  145.5910 C   0  0  0  0  0  0  0  0  0  0  0  0
  188.8500  178.3580  136.9080 C   0  0  0  0  0  2  0  0  0  0  0  0
  187.0100  178.3080  135.3570 N   0  0  0  0  0  2  0  0  0  0  0  0
  187.4040  178.0990  136.5620 C   0  0  0  0  0  0  0  0  0  0  0  0
  186.1030  175.9850  136.8830 C   0  0  0  0  0  1  0  0  0  0  0  0
  186.5510  177.2930  137.5020 C   0  0  0  0  0  3  0  0  0  0  0  0
  185.3250  178.0710  137.9440 C   0  0  0  0  0  1  0  0  0  0  0  0
  190.6780  176.8030  137.7560 C   0  0  0  0  0  2  0  0  0  0  0  0
  192.5010  175.2060  135.5280 C   0  0  0  0  0  2  0  0  0  0  0  0
  191.0310  174.3600  137.2870 C   0  0  0  0  0  2  0  0  0  0  0  0
  191.1750  175.9460  135.4650 C   0  0  0  0  0  2  0  0  0  0  0  0
  193.4420  174.6540  137.7570 C   0  0  0  0  0  1  0  0  0  0  0  0
  190.4420  175.6620  136.7650 C   0  0  2  0  0  3  0  0  0  0  0  0
  192.4260  174.2470  136.7110 C   0  0  2  0  0  0  0  0  0  0  0  0
  192.7100  172.8400  136.2900 C   0  0  0  0  0  3  0  0  0  0  0  0
  192.2610  172.3700  135.1820 N   0  0  0  0  0  0  0  0  0  0  0  0
  192.5470  171.0140  134.7980 C   0  0  0  0  0  2  0  0  0  0  0  0
  193.3520  170.3150  135.8810 C   0  0  1  0  0  3  0  0  0  0  0  0
  193.4510  168.9450  135.5730 O   0  0  0  0  0  0  0  0  0  0  0  0
  194.5800  169.7370  135.3010 C   0  0  2  0  0  3  0  0  0  0  0  0
  195.6120  169.5370  136.3950 C   0  0  0  0  0  2  0  0  0  0  0  0
  196.7620  170.3990  136.1520 N   0  0  0  0  0  2  0  0  0  0  0  0
  198.1580  174.6690  137.2870 C   0  0  0  0  0  2  0  0  0  0  0  0
  196.6760  172.6630  137.0670 C   0  0  2  0  0  0  0  0  0  0  0  0
  196.9350  171.2240  137.3430 C   0  0  1  0  0  3  0  0  0  0  0  0
  195.7040  171.8500  137.6720 O   0  0  0  0  0  0  0  0  0  0  0  0
  196.2890  173.0510  135.7100 N   0  0  0  0  0  2  0  0  0  0  0  0
  197.6080  175.1160  135.9260 C   0  0  0  0  0  2  0  0  0  0  0  0
  196.2470  174.5040  135.5990 C   0  0  0  0  0  2  0  0  0  0  0  0
  197.2370  173.7070  138.0300 C   0  0  0  0  0  2  0  0  0  0  0  0
  1 18  1  6  0  0  0
  1 12  1  0  0  0  0
  2 13  2  0  0  0  0
  3  9  1  0  0  0  0
  4  7  2  0  0  0  0
  4 17  1  0  0  0  0
  5  9  1  0  0  0  0
  5  7  1  0  0  0  0
  6  5  2  0  0  0  0
  8 11  2  0  0  0  0
  9 10  1  1  0  0  0
 11  6  1  0  0  0  0
 11  3  1  0  0  0  0
 12  8  2  0  0  0  0
 13  4  1  0  0  0  0
 14  2  1  0  0  0  0
 14  6  1  0  0  0  0
 15 17  2  0  0  0  0
 17 16  1  0  0  0  0
 19 20  2  0  0  0  0
 20 18  1  0  0  0  0
 20 22  1  0  0  0  0
 21 22  1  0  0  0  0
 22 23  1  0  0  0  0
 24  1  1  0  0  0  0
 25 30  1  0  0  0  0
 27 25  1  0  0  0  0
 27 29  1  0  0  0  0
 29 26  1  0  0  0  0
 29 24  1  1  0  0  0
 30 26  1  0  0  0  0
 30 28  1  1  0  0  0
 31 30  1  0  0  0  0
 32 31  2  0  0  0  0
 33 32  1  0  0  0  0
 34 33  1  6  0  0  0
 35 34  1  0  0  0  0
 36 35  1  0  0  0  0
 36 34  1  0  0  0  0
 36 37  1  1  0  0  0
 38 37  1  0  0  0  0
 39 46  1  0  0  0  0
 40 41  1  0  0  0  0
 40 42  1  0  0  0  0
 40 46  1  1  0  0  0
 41 38  1  6  0  0  0
 41 42  1  0  0  0  0
 43 40  1  0  0  0  0
 44 39  1  0  0  0  0
 45 43  1  0  0  0  0
 45 44  1  0  0  0  0
M  END
>  <MODEL>
4

>  <REMARK>
 VINA RESULT:      -8.0      5.161     10.402
  Name = 
  13 active torsions:
  status: ('A' for Active; 'I' for Inactive)
    1  A    between atoms: C_2  and  C_17
    2  A    between atoms: C_2  and  C_35
    3  A    between atoms: C_2  and  C_44
    4  A    between atoms: C_6  and  C_42
    5  A    between atoms: N_9  and  C_10
    6  A    between atoms: N_9  and  C_46
    7  A    between atoms: C_11  and  C_39
    8  A    between atoms: C_17  and  C_23
    9  A    between atoms: C_20  and  C_22
   10  A    between atoms: C_20  and  N_36
   11  A    between atoms: C_23  and  C_30
   12  A    between atoms: C_37  and  C_44
   13  A    between atoms: C_41  and  C_46
                            x       y       z     vdW  Elec       q    Type
                         _______ _______ _______ _____ _____    ______ ____

>  <TORSDO>
F 13

$$$$
=
 OpenBabel10232408013D

 46 51  0  0  1  0  0  0  0  0999 V2000
  184.3490  178.3890  139.3170 C   0  0  1  0  0  3  0  0  0  0  0  0
  188.5070  177.5290  143.2330 C   0  0  0  0  0  3  0  0  0  0  0  0
  183.9470  179.6120  143.7880 S   0  0  0  0  0  0  0  0  0  0  0  0
  188.3430  177.6120  145.7320 C   0  0  0  0  0  0  0  0  0  0  0  0
  186.0740  178.3510  144.8920 C   0  0  0  0  0  0  0  0  0  0  0  0
  186.1190  178.0150  143.6100 C   0  0  0  0  0  0  0  0  0  0  0  0
  187.0480  177.9180  145.9150 C   0  0  0  0  0  3  0  0  0  0  0  0
  184.6270  178.0540  141.7010 C   0  0  0  0  0  0  0  0  0  0  0  0
  184.8760  179.1530  145.3000 C   0  0  2  0  0  3  0  0  0  0  0  0
  184.0690  178.4090  146.1360 F   0  0  0  0  0  0  0  0  0  0  0  0
  185.0220  178.5670  142.8340 C   0  0  0  0  0  0  0  0  0  0  0  0
  184.2190  177.5660  140.5610 C   0  0  0  0  0  3  0  0  0  0  0  0
  189.0460  177.7400  144.4320 C   0  0  0  0  0  3  0  0  0  0  0  0
  187.1100  177.0480  143.0410 C   0  0  0  0  0  2  0  0  0  0  0  0
  188.5860  177.1380  148.0420 O   0  0  0  0  0  1  0  0  0  0  0  0
  190.5110  177.0470  146.8100 O   0  0  0  0  0  0  0  0  0  0  0  0
  189.1380  177.2500  146.9180 C   0  0  0  0  0  0  0  0  0  0  0  0
  183.4110  179.6040  139.3170 C   0  0  0  0  0  2  0  0  0  0  0  0
  182.1440  178.4230  137.6470 N   0  0  0  0  0  2  0  0  0  0  0  0
  182.2340  179.4710  138.3840 C   0  0  0  0  0  0  0  0  0  0  0  0
  181.3590  181.8150  138.2980 C   0  0  0  0  0  1  0  0  0  0  0  0
  181.0360  180.3610  138.5720 C   0  0  0  0  0  3  0  0  0  0  0  0
  180.4690  180.2410  139.9740 C   0  0  0  0  0  1  0  0  0  0  0  0
  185.8060  178.7760  139.0790 C   0  0  0  0  0  2  0  0  0  0  0  0
  188.5740  178.8920  137.2990 C   0  0  0  0  0  2  0  0  0  0  0  0
  187.5010  177.0270  138.4580 C   0  0  0  0  0  2  0  0  0  0  0  0
  187.0960  178.8710  136.9440 C   0  0  0  0  0  2  0  0  0  0  0  0
  189.2370  178.3460  139.6280 C   0  0  0  0  0  1  0  0  0  0  0  0
  186.4100  177.9510  137.9390 C   0  0  2  0  0  3  0  0  0  0  0  0
  188.8140  177.7630  138.2960 C   0  0  2  0  0  0  0  0  0  0  0  0
  189.8840  176.8330  137.8190 C   0  0  0  0  0  3  0  0  0  0  0  0
  189.6650  175.9920  136.8720 N   0  0  0  0  0  0  0  0  0  0  0  0
  190.7090  175.1080  136.4300 C   0  0  0  0  0  2  0  0  0  0  0  0
  191.8140  175.0300  137.4700 C   0  0  1  0  0  3  0  0  0  0  0  0
  192.4450  173.7750  137.3820 O   0  0  0  0  0  0  0  0  0  0  0  0
  193.1210  174.8640  136.8050 C   0  0  2  0  0  3  0  0  0  0  0  0
  194.2260  175.3240  137.7360 C   0  0  0  0  0  2  0  0  0  0  0  0
  195.4980  175.3360  137.0250 N   0  0  0  0  0  2  0  0  0  0  0  0
  199.5330  173.0670  136.8330 C   0  0  0  0  0  2  0  0  0  0  0  0
  197.3120  173.8410  137.6920 C   0  0  2  0  0  0  0  0  0  0  0  0
  195.9940  173.9650  137.0140 C   0  0  1  0  0  3  0  0  0  0  0  0
  196.1210  173.4920  138.3460 O   0  0  0  0  0  0  0  0  0  0  0  0
  197.9130  175.0470  138.2650 N   0  0  0  0  0  2  0  0  0  0  0  0
  200.1410  174.2610  137.5800 C   0  0  0  0  0  2  0  0  0  0  0  0
  199.2640  174.7580  138.7290 C   0  0  0  0  0  2  0  0  0  0  0  0
  198.1830  172.6240  137.3870 C   0  0  0  0  0  2  0  0  0  0  0  0
  1 24  1  1  0  0  0
  1 12  1  0  0  0  0
  2 13  2  0  0  0  0
  3  9  1  0  0  0  0
  4  7  2  0  0  0  0
  4 17  1  0  0  0  0
  5  9  1  0  0  0  0
  5  7  1  0  0  0  0
  6  5  2  0  0  0  0
  8 11  2  0  0  0  0
  9 10  1  1  0  0  0
 11  6  1  0  0  0  0
 11  3  1  0  0  0  0
 12  8  2  0  0  0  0
 13  4  1  0  0  0  0
 14  2  1  0  0  0  0
 14  6  1  0  0  0  0
 16 17  2  0  0  0  0
 17 15  1  0  0  0  0
 18  1  1  0  0  0  0
 19 20  2  0  0  0  0
 20 22  1  0  0  0  0
 20 18  1  0  0  0  0
 21 22  1  0  0  0  0
 22 23  1  0  0  0  0
 25 30  1  0  0  0  0
 27 25  1  0  0  0  0
 27 29  1  0  0  0  0
 29 26  1  0  0  0  0
 29 24  1  1  0  0  0
 30 26  1  0  0  0  0
 30 28  1  1  0  0  0
 31 30  1  0  0  0  0
 32 31  2  0  0  0  0
 33 32  1  0  0  0  0
 34 33  1  6  0  0  0
 35 34  1  0  0  0  0
 36 35  1  0  0  0  0
 36 34  1  0  0  0  0
 36 37  1  1  0  0  0
 38 37  1  0  0  0  0
 39 46  1  0  0  0  0
 39 44  1  0  0  0  0
 40 46  1  6  0  0  0
 40 43  1  0  0  0  0
 40 42  1  0  0  0  0
 41 38  1  1  0  0  0
 41 40  1  0  0  0  0
 41 42  1  0  0  0  0
 43 45  1  0  0  0  0
 44 45  1  0  0  0  0
M  END
>  <MODEL>
5

>  <REMARK>
 VINA RESULT:      -8.0      4.931      9.360
  Name = 
  13 active torsions:
  status: ('A' for Active; 'I' for Inactive)
    1  A    between atoms: C_2  and  C_17
    2  A    between atoms: C_2  and  C_35
    3  A    between atoms: C_2  and  C_44
    4  A    between atoms: C_6  and  C_42
    5  A    between atoms: N_9  and  C_10
    6  A    between atoms: N_9  and  C_46
    7  A    between atoms: C_11  and  C_39
    8  A    between atoms: C_17  and  C_23
    9  A    between atoms: C_20  and  C_22
   10  A    between atoms: C_20  and  N_36
   11  A    between atoms: C_23  and  C_30
   12  A    between atoms: C_37  and  C_44
   13  A    between atoms: C_41  and  C_46
                            x       y       z     vdW  Elec       q    Type
                         _______ _______ _______ _____ _____    ______ ____

>  <TORSDO>
F 13

$$$$
=
 OpenBabel10232408013D

 46 51  0  0  1  0  0  0  0  0999 V2000
  184.2360  178.3270  139.3720 C   0  0  1  0  0  3  0  0  0  0  0  0
  188.4690  177.6040  143.2330 C   0  0  0  0  0  3  0  0  0  0  0  0
  183.8540  179.5430  143.8470 S   0  0  0  0  0  0  0  0  0  0  0  0
  188.3360  177.6860  145.7340 C   0  0  0  0  0  0  0  0  0  0  0  0
  186.0340  178.3520  144.9240 C   0  0  0  0  0  0  0  0  0  0  0  0
  186.0720  178.0160  143.6420 C   0  0  0  0  0  0  0  0  0  0  0  0
  187.0350  177.9510  145.9350 C   0  0  0  0  0  3  0  0  0  0  0  0
  184.5550  178.0040  141.7520 C   0  0  0  0  0  0  0  0  0  0  0  0
  184.8170  179.1160  145.3470 C   0  0  2  0  0  3  0  0  0  0  0  0
  184.0450  178.3480  146.1940 F   0  0  0  0  0  0  0  0  0  0  0  0
  184.9490  178.5310  142.8800 C   0  0  0  0  0  0  0  0  0  0  0  0
  184.1470  177.5020  140.6180 C   0  0  0  0  0  3  0  0  0  0  0  0
  189.0170  177.8340  144.4250 C   0  0  0  0  0  3  0  0  0  0  0  0
  187.0860  177.0790  143.0610 C   0  0  0  0  0  2  0  0  0  0  0  0
  190.3690  177.0460  146.7730 O   0  0  0  0  0  0  0  0  0  0  0  0
  188.5940  177.3460  148.1840 O   0  0  0  0  0  1  0  0  0  0  0  0
  189.1570  177.3500  146.9100 C   0  0  0  0  0  0  0  0  0  0  0  0
  183.3300  179.5660  139.4240 C   0  0  0  0  0  2  0  0  0  0  0  0
  181.8900  179.2680  137.5190 N   0  0  0  0  0  2  0  0  0  0  0  0
  181.9730  179.3610  138.7970 C   0  0  0  0  0  0  0  0  0  0  0  0
  181.0230  179.2990  141.1130 C   0  0  0  0  0  1  0  0  0  0  0  0
  180.8180  178.9290  139.6580 C   0  0  0  0  0  3  0  0  0  0  0  0
  180.5830  177.4330  139.5620 C   0  0  0  0  0  1  0  0  0  0  0  0
  185.6880  178.6780  139.0610 C   0  0  0  0  0  2  0  0  0  0  0  0
  188.3020  178.8420  137.0660 C   0  0  0  0  0  2  0  0  0  0  0  0
  187.3180  176.9450  138.2500 C   0  0  0  0  0  2  0  0  0  0  0  0
  186.8000  178.8360  136.8320 C   0  0  0  0  0  2  0  0  0  0  0  0
  189.1500  178.2210  139.3150 C   0  0  0  0  0  1  0  0  0  0  0  0
  186.1920  177.8880  137.8510 C   0  0  2  0  0  3  0  0  0  0  0  0
  188.6170  177.6820  138.0040 C   0  0  2  0  0  0  0  0  0  0  0  0
  189.6390  176.7650  137.4130 C   0  0  0  0  0  3  0  0  0  0  0  0
  189.3180  175.8820  136.5360 N   0  0  0  0  0  0  0  0  0  0  0  0
  190.3180  175.0110  135.9810 C   0  0  0  0  0  2  0  0  0  0  0  0
  189.8680  173.5620  136.0690 C   0  0  1  0  0  3  0  0  0  0  0  0
  189.6110  173.2380  137.4150 O   0  0  0  0  0  0  0  0  0  0  0  0
  188.4930  173.4940  136.6020 C   0  0  2  0  0  3  0  0  0  0  0  0
  187.8550  172.1800  136.1920 C   0  0  0  0  0  2  0  0  0  0  0  0
  186.4040  172.3130  136.1950 N   0  0  0  0  0  2  0  0  0  0  0  0
  183.0570  175.4490  136.8530 C   0  0  0  0  0  2  0  0  0  0  0  0
  184.6120  173.5410  137.3130 C   0  0  2  0  0  0  0  0  0  0  0  0
  186.0790  173.4050  137.1050 C   0  0  1  0  0  3  0  0  0  0  0  0
  185.4250  172.8900  138.2540 O   0  0  0  0  0  0  0  0  0  0  0  0
  183.7240  172.6030  136.6240 N   0  0  0  0  0  2  0  0  0  0  0  0
  182.0880  174.4080  136.2770 C   0  0  0  0  0  2  0  0  0  0  0  0
  182.3340  172.9990  136.8160 C   0  0  0  0  0  2  0  0  0  0  0  0
  184.0640  174.8660  137.8390 C   0  0  0  0  0  2  0  0  0  0  0  0
  1 24  1  1  0  0  0
  1 18  1  0  0  0  0
  1 12  1  0  0  0  0
  2 13  2  0  0  0  0
  3  9  1  0  0  0  0
  4  7  2  0  0  0  0
  4 17  1  0  0  0  0
  5  9  1  0  0  0  0
  5  7  1  0  0  0  0
  6  5  2  0  0  0  0
  8 11  2  0  0  0  0
  9 10  1  1  0  0  0
 11  6  1  0  0  0  0
 11  3  1  0  0  0  0
 12  8  2  0  0  0  0
 13  4  1  0  0  0  0
 14  2  1  0  0  0  0
 14  6  1  0  0  0  0
 15 17  2  0  0  0  0
 17 16  1  0  0  0  0
 19 20  2  0  0  0  0
 20 18  1  0  0  0  0
 20 22  1  0  0  0  0
 22 21  1  0  0  0  0
 23 22  1  0  0  0  0
 25 30  1  0  0  0  0
 27 25  1  0  0  0  0
 27 29  1  0  0  0  0
 29 26  1  0  0  0  0
 29 24  1  1  0  0  0
 30 26  1  0  0  0  0
 30 28  1  1  0  0  0
 31 30  1  0  0  0  0
 32 31  2  0  0  0  0
 33 32  1  0  0  0  0
 34 33  1  1  0  0  0
 34 36  1  0  0  0  0
 34 35  1  0  0  0  0
 36 37  1  6  0  0  0
 36 35  1  0  0  0  0
 37 38  1  0  0  0  0
 39 46  1  0  0  0  0
 40 46  1  1  0  0  0
 40 42  1  0  0  0  0
 41 38  1  6  0  0  0
 41 40  1  0  0  0  0
 41 42  1  0  0  0  0
 43 45  1  0  0  0  0
 43 40  1  0  0  0  0
 44 45  1  0  0  0  0
 44 39  1  0  0  0  0
M  END
>  <MODEL>
6

>  <REMARK>
 VINA RESULT:      -7.9      3.682      8.387
  Name = 
  13 active torsions:
  status: ('A' for Active; 'I' for Inactive)
    1  A    between atoms: C_2  and  C_17
    2  A    between atoms: C_2  and  C_35
    3  A    between atoms: C_2  and  C_44
    4  A    between atoms: C_6  and  C_42
    5  A    between atoms: N_9  and  C_10
    6  A    between atoms: N_9  and  C_46
    7  A    between atoms: C_11  and  C_39
    8  A    between atoms: C_17  and  C_23
    9  A    between atoms: C_20  and  C_22
   10  A    between atoms: C_20  and  N_36
   11  A    between atoms: C_23  and  C_30
   12  A    between atoms: C_37  and  C_44
   13  A    between atoms: C_41  and  C_46
                            x       y       z     vdW  Elec       q    Type
                         _______ _______ _______ _____ _____    ______ ____

>  <TORSDO>
F 13

$$$$
=
 OpenBabel10232408013D

 46 51  0  0  1  0  0  0  0  0999 V2000
  183.6400  178.6160  140.5590 C   0  0  1  0  0  3  0  0  0  0  0  0
  189.1810  177.0750  140.0280 C   0  0  0  0  0  3  0  0  0  0  0  0
  185.5000  177.0810  136.5800 S   0  0  0  0  0  0  0  0  0  0  0  0
  190.5140  176.7280  137.9350 C   0  0  0  0  0  0  0  0  0  0  0  0
  188.1460  177.1490  137.1520 C   0  0  0  0  0  0  0  0  0  0  0  0
  187.5570  177.6060  138.2490 C   0  0  0  0  0  0  0  0  0  0  0  0
  189.6030  176.9820  136.9800 C   0  0  0  0  0  3  0  0  0  0  0  0
  185.3830  178.4700  138.8830 C   0  0  0  0  0  0  0  0  0  0  0  0
  187.2260  176.8870  135.9970 C   0  0  2  0  0  3  0  0  0  0  0  0
  187.4780  177.7830  134.9780 F   0  0  0  0  0  0  0  0  0  0  0  0
  186.1120  177.6870  138.1340 C   0  0  0  0  0  0  0  0  0  0  0  0
  184.6320  179.2370  139.6260 C   0  0  0  0  0  3  0  0  0  0  0  0
  190.1740  176.4920  139.3590 C   0  0  0  0  0  3  0  0  0  0  0  0
  188.3080  178.1270  139.4360 C   0  0  0  0  0  2  0  0  0  0  0  0
  192.8530  176.7830  138.3210 O   0  0  0  0  0  1  0  0  0  0  0  0
  192.2170  176.1420  136.2200 O   0  0  0  0  0  0  0  0  0  0  0  0
  191.9150  176.5500  137.5170 C   0  0  0  0  0  0  0  0  0  0  0  0
  182.7950  177.5300  139.8790 C   0  0  0  0  0  2  0  0  0  0  0  0
  180.5620  177.8580  140.7150 N   0  0  0  0  0  2  0  0  0  0  0  0
  181.3450  177.9050  139.6980 C   0  0  0  0  0  0  0  0  0  0  0  0
  181.6390  178.1390  137.2230 C   0  0  0  0  0  1  0  0  0  0  0  0
  180.9200  178.6420  138.4580 C   0  0  0  0  0  3  0  0  0  0  0  0
  181.1590  180.1350  138.5900 C   0  0  0  0  0  1  0  0  0  0  0  0
  184.3340  178.1100  141.8220 C   0  0  0  0  0  2  0  0  0  0  0  0
  184.1060  178.4270  145.0910 C   0  0  0  0  0  2  0  0  0  0  0  0
  185.8670  179.1130  143.5420 C   0  0  0  0  0  2  0  0  0  0  0  0
  183.4770  179.1600  143.9180 C   0  0  0  0  0  2  0  0  0  0  0  0
  186.0150  176.9040  144.6460 C   0  0  0  0  0  1  0  0  0  0  0  0
  184.5310  179.2470  142.8270 C   0  0  2  0  0  3  0  0  0  0  0  0
  185.6050  178.3510  144.8230 C   0  0  2  0  0  0  0  0  0  0  0  0
  186.3910  178.9350  145.9540 C   0  0  0  0  0  3  0  0  0  0  0  0
  186.6150  178.2660  147.0280 N   0  0  0  0  0  0  0  0  0  0  0  0
  187.3730  178.8480  148.1020 C   0  0  0  0  0  2  0  0  0  0  0  0
  188.4460  177.8820  148.5780 C   0  0  1  0  0  3  0  0  0  0  0  0
  188.5010  176.7820  147.7020 O   0  0  0  0  0  0  0  0  0  0  0  0
  189.5020  177.7580  147.5540 C   0  0  2  0  0  3  0  0  0  0  0  0
  190.7830  177.2700  148.2040 C   0  0  0  0  0  2  0  0  0  0  0  0
  191.7640  176.9440  147.1760 N   0  0  0  0  0  2  0  0  0  0  0  0
  189.2720  177.5720  143.3210 C   0  0  0  0  0  2  0  0  0  0  0  0
  191.1160  176.7930  144.8260 C   0  0  2  0  0  0  0  0  0  0  0  0
  191.0740  176.1490  146.1660 C   0  0  1  0  0  3  0  0  0  0  0  0
  191.9950  175.7520  145.1620 O   0  0  0  0  0  0  0  0  0  0  0  0
  191.8160  178.0710  144.6910 N   0  0  0  0  0  2  0  0  0  0  0  0
  190.1140  178.8340  143.0870 C   0  0  0  0  0  2  0  0  0  0  0  0
  191.6030  178.6190  143.3570 C   0  0  0  0  0  2  0  0  0  0  0  0
  190.0910  176.3690  143.7760 C   0  0  0  0  0  2  0  0  0  0  0  0
  1 12  1  6  0  0  0
  1 24  1  0  0  0  0
  3 11  1  0  0  0  0
  4 13  1  0  0  0  0
  5  6  2  0  0  0  0
  6 14  1  0  0  0  0
  7  5  1  0  0  0  0
  7  4  2  0  0  0  0
  8 12  2  0  0  0  0
  9 10  1  6  0  0  0
  9  3  1  0  0  0  0
  9  5  1  0  0  0  0
 11  6  1  0  0  0  0
 11  8  2  0  0  0  0
 13  2  2  0  0  0  0
 14  2  1  0  0  0  0
 16 17  2  0  0  0  0
 17  4  1  0  0  0  0
 17 15  1  0  0  0  0
 18  1  1  0  0  0  0
 20 18  1  0  0  0  0
 20 19  2  0  0  0  0
 21 22  1  0  0  0  0
 22 23  1  0  0  0  0
 22 20  1  0  0  0  0
 26 30  1  0  0  0  0
 27 25  1  0  0  0  0
 29 24  1  6  0  0  0
 29 26  1  0  0  0  0
 29 27  1  0  0  0  0
 30 28  1  6  0  0  0
 30 25  1  0  0  0  0
 30 31  1  0  0  0  0
 31 32  2  0  0  0  0
 32 33  1  0  0  0  0
 34 33  1  6  0  0  0
 35 34  1  0  0  0  0
 36 35  1  0  0  0  0
 36 37  1  1  0  0  0
 36 34  1  0  0  0  0
 38 37  1  0  0  0  0
 39 46  1  0  0  0  0
 40 46  1  6  0  0  0
 40 42  1  0  0  0  0
 40 41  1  0  0  0  0
 41 38  1  1  0  0  0
 42 41  1  0  0  0  0
 43 40  1  0  0  0  0
 44 39  1  0  0  0  0
 44 45  1  0  0  0  0
 45 43  1  0  0  0  0
M  END
>  <MODEL>
7

>  <REMARK>
 VINA RESULT:      -7.5      2.757      5.852
  Name = 
  13 active torsions:
  status: ('A' for Active; 'I' for Inactive)
    1  A    between atoms: C_2  and  C_17
    2  A    between atoms: C_2  and  C_35
    3  A    between atoms: C_2  and  C_44
    4  A    between atoms: C_6  and  C_42
    5  A    between atoms: N_9  and  C_10
    6  A    between atoms: N_9  and  C_46
    7  A    between atoms: C_11  and  C_39
    8  A    between atoms: C_17  and  C_23
    9  A    between atoms: C_20  and  C_22
   10  A    between atoms: C_20  and  N_36
   11  A    between atoms: C_23  and  C_30
   12  A    between atoms: C_37  and  C_44
   13  A    between atoms: C_41  and  C_46
                            x       y       z     vdW  Elec       q    Type
                         _______ _______ _______ _____ _____    ______ ____

>  <TORSDO>
F 13

$$$$
=
 OpenBabel10232408013D

 46 51  0  0  1  0  0  0  0  0999 V2000
  190.6780  177.1790  138.1180 C   0  0  1  0  0  3  0  0  0  0  0  0
  191.6590  177.1240  143.8090 C   0  0  0  0  0  3  0  0  0  0  0  0
  187.4960  178.4250  141.2750 S   0  0  0  0  0  0  0  0  0  0  0  0
  189.9990  177.2390  145.6830 C   0  0  0  0  0  0  0  0  0  0  0  0
  188.6430  177.5670  143.5740 C   0  0  0  0  0  0  0  0  0  0  0  0
  189.4970  177.2120  142.6240 C   0  0  0  0  0  0  0  0  0  0  0  0
  188.8350  177.3280  145.0190 C   0  0  0  0  0  3  0  0  0  0  0  0
  189.4840  176.9530  140.2140 C   0  0  0  0  0  0  0  0  0  0  0  0
  187.3590  178.1660  143.0850 C   0  0  2  0  0  3  0  0  0  0  0  0
  186.3060  177.3170  143.3560 F   0  0  0  0  0  0  0  0  0  0  0  0
  189.0440  177.5520  141.2870 C   0  0  0  0  0  0  0  0  0  0  0  0
  189.9160  176.3760  139.1260 C   0  0  0  0  0  3  0  0  0  0  0  0
  191.3270  177.4520  145.0560 C   0  0  0  0  0  3  0  0  0  0  0  0
  190.7360  176.4110  142.8810 C   0  0  0  0  0  2  0  0  0  0  0  0
  191.0040  176.9650  147.8140 O   0  0  0  0  0  1  0  0  0  0  0  0
  188.7170  176.9250  147.7900 O   0  0  0  0  0  0  0  0  0  0  0  0
  189.9440  177.0440  147.1420 C   0  0  0  0  0  0  0  0  0  0  0  0
  191.9860  176.4970  137.6940 C   0  0  0  0  0  2  0  0  0  0  0  0
  192.1650  175.7650  135.4090 N   0  0  0  0  0  2  0  0  0  0  0  0
  191.8170  175.4640  136.6080 C   0  0  0  0  0  0  0  0  0  0  0  0
  192.5200  173.0880  136.2500 C   0  0  0  0  0  1  0  0  0  0  0  0
  191.5830  174.0270  136.9830 C   0  0  0  0  0  3  0  0  0  0  0  0
  190.1520  173.6060  136.7050 C   0  0  0  0  0  1  0  0  0  0  0  0
  189.7900  177.5300  136.9280 C   0  0  0  0  0  2  0  0  0  0  0  0
  186.9270  177.9300  135.3500 C   0  0  0  0  0  2  0  0  0  0  0  0
  187.7000  176.1390  136.8220 C   0  0  0  0  0  2  0  0  0  0  0  0
  187.5310  178.5430  136.6030 C   0  0  0  0  0  2  0  0  0  0  0  0
  188.0110  175.9190  134.3780 C   0  0  0  0  0  1  0  0  0  0  0  0
  188.3100  177.4450  137.3080 C   0  0  2  0  0  3  0  0  0  0  0  0
  187.0850  176.4170  135.4680 C   0  0  2  0  0  0  0  0  0  0  0  0
  185.7690  175.7210  135.3320 C   0  0  0  0  0  3  0  0  0  0  0  0
  185.2390  175.0940  136.3210 N   0  0  0  0  0  0  0  0  0  0  0  0
  183.9730  174.4310  136.1680 C   0  0  0  0  0  2  0  0  0  0  0  0
  183.1910  174.4730  137.4700 C   0  0  1  0  0  3  0  0  0  0  0  0
  183.3440  175.7410  138.0620 O   0  0  0  0  0  0  0  0  0  0  0  0
  182.1340  175.5000  137.3900 C   0  0  2  0  0  3  0  0  0  0  0  0
  181.0470  175.1890  138.4010 C   0  0  0  0  0  2  0  0  0  0  0  0
  180.3210  176.4080  138.7360 N   0  0  0  0  0  2  0  0  0  0  0  0
  183.8550  178.6960  140.6710 C   0  0  0  0  0  2  0  0  0  0  0  0
  181.5090  178.1180  140.0150 C   0  0  2  0  0  0  0  0  0  0  0  0
  180.7740  176.8240  140.0580 C   0  0  1  0  0  3  0  0  0  0  0  0
  180.1620  178.0570  140.4050 O   0  0  0  0  0  0  0  0  0  0  0  0
  181.6680  178.7820  138.7200 N   0  0  0  0  0  2  0  0  0  0  0  0
  183.9250  179.5090  139.3720 C   0  0  0  0  0  2  0  0  0  0  0  0
  182.5510  179.9330  138.8560 C   0  0  0  0  0  2  0  0  0  0  0  0
  182.4330  178.4760  141.1760 C   0  0  0  0  0  2  0  0  0  0  0  0
  1 24  1  6  0  0  0
  1 12  1  0  0  0  0
  2 13  2  0  0  0  0
  3 11  1  0  0  0  0
  3  9  1  0  0  0  0
  4 17  1  0  0  0  0
  5  7  1  0  0  0  0
  6 14  1  0  0  0  0
  6  5  2  0  0  0  0
  7  4  2  0  0  0  0
  8 11  2  0  0  0  0
  9 10  1  6  0  0  0
  9  5  1  0  0  0  0
 11  6  1  0  0  0  0
 12  8  2  0  0  0  0
 13  4  1  0  0  0  0
 14  2  1  0  0  0  0
 17 16  2  0  0  0  0
 17 15  1  0  0  0  0
 18  1  1  0  0  0  0
 19 20  2  0  0  0  0
 20 22  1  0  0  0  0
 20 18  1  0  0  0  0
 21 22  1  0  0  0  0
 23 22  1  0  0  0  0
 25 30  1  0  0  0  0
 25 27  1  0  0  0  0
 26 29  1  0  0  0  0
 27 29  1  0  0  0  0
 29 24  1  6  0  0  0
 30 28  1  6  0  0  0
 30 26  1  0  0  0  0
 31 30  1  0  0  0  0
 31 32  2  0  0  0  0
 33 32  1  0  0  0  0
 34 33  1  6  0  0  0
 34 35  1  0  0  0  0
 36 34  1  0  0  0  0
 36 35  1  0  0  0  0
 36 37  1  1  0  0  0
 37 38  1  0  0  0  0
 39 46  1  0  0  0  0
 40 41  1  0  0  0  0
 40 42  1  0  0  0  0
 40 46  1  1  0  0  0
 41 38  1  6  0  0  0
 41 42  1  0  0  0  0
 43 45  1  0  0  0  0
 43 40  1  0  0  0  0
 44 39  1  0  0  0  0
 45 44  1  0  0  0  0
M  END
>  <MODEL>
8

>  <REMARK>
 VINA RESULT:      -7.5      3.237      6.614
  Name = 
  13 active torsions:
  status: ('A' for Active; 'I' for Inactive)
    1  A    between atoms: C_2  and  C_17
    2  A    between atoms: C_2  and  C_35
    3  A    between atoms: C_2  and  C_44
    4  A    between atoms: C_6  and  C_42
    5  A    between atoms: N_9  and  C_10
    6  A    between atoms: N_9  and  C_46
    7  A    between atoms: C_11  and  C_39
    8  A    between atoms: C_17  and  C_23
    9  A    between atoms: C_20  and  C_22
   10  A    between atoms: C_20  and  N_36
   11  A    between atoms: C_23  and  C_30
   12  A    between atoms: C_37  and  C_44
   13  A    between atoms: C_41  and  C_46
                            x       y       z     vdW  Elec       q    Type
                         _______ _______ _______ _____ _____    ______ ____

>  <TORSDO>
F 13

$$$$
=
 OpenBabel10232408013D

 46 51  0  0  1  0  0  0  0  0999 V2000
  189.6320  176.9660  138.1750 C   0  0  1  0  0  3  0  0  0  0  0  0
  186.9550  177.1380  143.2900 C   0  0  0  0  0  3  0  0  0  0  0  0
  191.8880  177.0740  142.2430 S   0  0  0  0  0  0  0  0  0  0  0  0
  187.9060  177.7160  145.5350 C   0  0  0  0  0  0  0  0  0  0  0  0
  189.8870  177.6860  143.9610 C   0  0  0  0  0  0  0  0  0  0  0  0
  189.3060  177.6680  142.7690 C   0  0  0  0  0  0  0  0  0  0  0  0
  189.1930  177.9600  145.2360 C   0  0  0  0  0  3  0  0  0  0  0  0
  189.9940  177.7300  140.4460 C   0  0  0  0  0  0  0  0  0  0  0  0
  191.3740  177.5020  143.9490 C   0  0  2  0  0  3  0  0  0  0  0  0
  191.9990  178.6670  144.3460 F   0  0  0  0  0  0  0  0  0  0  0  0
  190.2310  177.3920  141.6840 C   0  0  0  0  0  0  0  0  0  0  0  0
  189.7770  178.0490  139.1990 C   0  0  0  0  0  3  0  0  0  0  0  0
  186.9610  177.0340  144.6170 C   0  0  0  0  0  3  0  0  0  0  0  0
  187.8740  178.0390  142.5390 C   0  0  0  0  0  2  0  0  0  0  0  0
  188.2730  178.1360  147.8390 O   0  0  0  0  0  1  0  0  0  0  0  0
  186.0890  178.1930  147.1630 O   0  0  0  0  0  0  0  0  0  0  0  0
  187.4460  178.0300  146.8980 C   0  0  0  0  0  0  0  0  0  0  0  0
  190.7620  175.9300  138.2540 C   0  0  0  0  0  2  0  0  0  0  0  0
  193.0430  176.6740  138.4370 N   0  0  0  0  0  2  0  0  0  0  0  0
  192.0650  176.3960  137.6530 C   0  0  0  0  0  0  0  0  0  0  0  0
  191.4740  175.0760  135.6090 C   0  0  0  0  0  1  0  0  0  0  0  0
  192.3130  176.2000  136.1830 C   0  0  0  0  0  3  0  0  0  0  0  0
  193.7760  175.9120  135.9000 C   0  0  0  0  0  1  0  0  0  0  0  0
  188.2480  176.3280  138.2590 C   0  0  0  0  0  2  0  0  0  0  0  0
  186.9580  175.2040  135.4470 C   0  0  0  0  0  2  0  0  0  0  0  0
  185.9110  176.3460  137.3360 C   0  0  0  0  0  2  0  0  0  0  0  0
  187.7860  176.4260  135.8080 C   0  0  0  0  0  2  0  0  0  0  0  0
  185.9510  173.8730  137.2840 C   0  0  0  0  0  1  0  0  0  0  0  0
  187.3220  176.8910  137.1780 C   0  0  2  0  0  3  0  0  0  0  0  0
  185.8090  175.1260  136.4460 C   0  0  2  0  0  0  0  0  0  0  0  0
  184.4850  175.0890  135.7510 C   0  0  0  0  0  3  0  0  0  0  0  0
  183.6310  174.1590  135.9900 N   0  0  0  0  0  0  0  0  0  0  0  0
  182.3640  174.1440  135.3100 C   0  0  0  0  0  2  0  0  0  0  0  0
  181.4690  175.2560  135.8310 C   0  0  1  0  0  3  0  0  0  0  0  0
  180.1610  174.7610  135.9930 O   0  0  0  0  0  0  0  0  0  0  0  0
  180.9350  174.8930  137.1580 C   0  0  2  0  0  3  0  0  0  0  0  0
  180.5220  176.1500  137.9000 C   0  0  0  0  0  2  0  0  0  0  0  0
  181.3860  176.3480  139.0570 N   0  0  0  0  0  2  0  0  0  0  0  0
  182.2940  178.7660  142.9030 C   0  0  0  0  0  2  0  0  0  0  0  0
  181.8740  178.2690  140.4860 C   0  0  2  0  0  0  0  0  0  0  0  0
  180.8210  177.4510  139.8260 C   0  0  1  0  0  3  0  0  0  0  0  0
  181.2690  178.6860  139.2900 O   0  0  0  0  0  0  0  0  0  0  0  0
  183.2740  177.8930  140.2820 N   0  0  0  0  0  2  0  0  0  0  0  0
  183.7780  178.5110  142.6090 C   0  0  0  0  0  2  0  0  0  0  0  0
  184.1370  178.7000  141.1350 C   0  0  0  0  0  2  0  0  0  0  0  0
  181.4840  179.1510  141.6700 C   0  0  0  0  0  2  0  0  0  0  0  0
  1 18  1  1  0  0  0
  1 24  1  0  0  0  0
  1 12  1  0  0  0  0
  2 13  2  0  0  0  0
  3  9  1  0  0  0  0
  4 17  1  0  0  0  0
  5  7  1  0  0  0  0
  6  5  2  0  0  0  0
  7  4  2  0  0  0  0
  8 11  2  0  0  0  0
  9  5  1  0  0  0  0
  9 10  1  6  0  0  0
 11  3  1  0  0  0  0
 11  6  1  0  0  0  0
 12  8  2  0  0  0  0
 13  4  1  0  0  0  0
 14  6  1  0  0  0  0
 14  2  1  0  0  0  0
 17 16  2  0  0  0  0
 17 15  1  0  0  0  0
 20 18  1  0  0  0  0
 20 19  2  0  0  0  0
 21 22  1  0  0  0  0
 22 20  1  0  0  0  0
 23 22  1  0  0  0  0
 25 27  1  0  0  0  0
 25 30  1  0  0  0  0
 27 29  1  0  0  0  0
 29 26  1  0  0  0  0
 29 24  1  1  0  0  0
 30 28  1  1  0  0  0
 30 26  1  0  0  0  0
 31 32  2  0  0  0  0
 31 30  1  0  0  0  0
 33 32  1  0  0  0  0
 34 33  1  6  0  0  0
 34 35  1  0  0  0  0
 34 36  1  0  0  0  0
 35 36  1  0  0  0  0
 36 37  1  1  0  0  0
 37 38  1  0  0  0  0
 40 46  1  1  0  0  0
 41 38  1  6  0  0  0
 41 40  1  0  0  0  0
 42 41  1  0  0  0  0
 42 40  1  0  0  0  0
 43 40  1  0  0  0  0
 43 45  1  0  0  0  0
 44 39  1  0  0  0  0
 45 44  1  0  0  0  0
 46 39  1  0  0  0  0
M  END
>  <MODEL>
9

>  <REMARK>
 VINA RESULT:      -7.3      2.941      6.546
  Name = 
  13 active torsions:
  status: ('A' for Active; 'I' for Inactive)
    1  A    between atoms: C_2  and  C_17
    2  A    between atoms: C_2  and  C_35
    3  A    between atoms: C_2  and  C_44
    4  A    between atoms: C_6  and  C_42
    5  A    between atoms: N_9  and  C_10
    6  A    between atoms: N_9  and  C_46
    7  A    between atoms: C_11  and  C_39
    8  A    between atoms: C_17  and  C_23
    9  A    between atoms: C_20  and  C_22
   10  A    between atoms: C_20  and  N_36
   11  A    between atoms: C_23  and  C_30
   12  A    between atoms: C_37  and  C_44
   13  A    between atoms: C_41  and  C_46
                            x       y       z     vdW  Elec       q    Type
                         _______ _______ _______ _____ _____    ______ ____

>  <TORSDO>
F 13

$$$$
