=
 OpenBabel10232410423D

 50 55  0  0  1  0  0  0  0  0999 V2000
  189.4570  177.8510  139.3000 N   0  0  0  0  0  0  0  0  0  0  0  0
  190.7640  176.4600  140.6720 N   0  0  0  0  0  2  0  0  0  0  0  0
  190.2460  176.8160  139.3830 C   0  0  0  0  0  0  0  0  0  0  0  0
  190.1280  174.1320  136.6850 C   0  0  0  0  0  0  0  0  0  0  0  0
  190.6650  175.9830  138.2220 C   0  0  0  0  0  0  0  0  0  0  0  0
  191.9630  176.2820  137.4290 C   0  0  2  0  0  3  0  0  0  0  0  0
  192.0850  175.0660  136.8690 C   0  0  0  0  0  0  0  0  0  0  0  0
  193.0870  175.5540  137.7160 N   0  0  0  0  0  0  0  0  0  0  0  0
  191.3540  174.0610  136.2250 N   0  0  0  0  0  0  0  0  0  0  0  0
  189.8120  175.0530  137.7920 N   0  0  0  0  0  0  0  0  0  0  0  0
  186.2230  172.7210  135.1440 C   0  0  0  0  0  1  0  0  0  0  0  0
  188.4910  173.5970  134.9660 N   0  0  0  0  0  2  0  0  0  0  0  0
  187.8010  173.2730  136.9820 C   0  0  0  0  0  2  0  0  0  0  0  0
  187.2180  173.7420  135.6660 C   0  0  2  0  0  3  0  0  0  0  0  0
  189.1020  173.1420  136.2130 C   0  0  2  0  0  3  0  0  0  0  0  0
  191.5880  178.6420  143.7010 C   0  0  0  0  0  2  0  0  0  0  0  0
  189.6640  176.4560  142.8860 C   0  0  1  0  0  3  0  0  0  0  0  0
  190.1870  178.5260  144.3100 C   0  0  0  0  0  2  0  0  0  0  0  0
  190.5110  177.2470  141.8740 C   0  0  1  0  0  3  0  0  0  0  0  0
  191.8270  177.7060  142.5070 C   0  0  0  0  0  2  0  0  0  0  0  0
  190.0950  175.1300  142.9690 O   0  0  0  0  0  1  0  0  0  0  0  0
  189.6910  177.0770  144.2920 C   0  0  1  0  0  3  0  0  0  0  0  0
  188.3570  176.9140  145.0160 C   0  0  0  0  0  2  0  0  0  0  0  0
  188.1260  177.9550  146.1160 C   0  0  2  0  0  3  0  0  0  0  0  0
  187.7830  176.5840  148.4640 O   0  0  0  0  0  1  0  0  0  0  0  0
  188.8160  177.3870  147.7070 P   0  0  0  0  0  0  0  0  0  0  0  0
  189.2780  178.7210  148.6370 O   0  0  0  0  0  1  0  0  0  0  0  0
  190.1690  176.4170  147.4070 O   0  0  0  0  0  0  0  0  0  0  0  0
  186.7230  178.3650  146.2480 N   0  0  0  0  0  2  0  0  0  0  0  0
  185.9710  178.0880  145.0260 C   0  0  0  0  0  2  0  0  0  0  0  0
  183.9610  178.9980  145.9090 O   0  0  0  0  0  1  0  0  0  0  0  0
  184.8600  179.1090  144.8490 C   0  0  2  0  0  3  0  0  0  0  0  0
  184.1240  178.8690  143.5430 C   0  0  0  0  0  1  0  0  0  0  0  0
  188.8410  178.4190  138.1080 C   0  0  1  0  0  3  0  0  0  0  0  0
  189.6290  178.1310  136.9900 O   0  0  0  0  0  0  0  0  0  0  0  0
  188.7220  177.9510  135.9450 C   0  0  0  0  0  1  0  0  0  0  0  0
  187.4300  177.8580  137.9310 C   0  0  0  0  0  2  0  0  0  0  0  0
  186.4530  178.3480  138.9990 C   0  0  0  0  0  2  0  0  0  0  0  0
  181.8650  176.7580  138.8670 C   0  0  0  0  0  2  0  0  0  0  0  0
  180.9320  177.2020  139.9790 C   0  0  0  0  0  2  0  0  0  0  0  0
  181.8920  179.4290  140.0000 O   0  0  0  0  0  0  0  0  0  0  0  0
  182.8180  179.1060  138.9780 C   0  0  2  0  0  3  0  0  0  0  0  0
  182.3150  177.9700  138.0540 C   0  0  1  0  0  3  0  0  0  0  0  0
  185.1470  178.5950  138.4130 N   0  0  0  0  0  0  0  0  0  0  0  0
  183.3930  177.5650  137.0460 C   0  0  0  0  0  2  0  0  0  0  0  0
  184.7390  177.3570  137.7480 C   0  0  0  0  0  2  0  0  0  0  0  0
  184.2270  178.8370  139.5220 C   0  0  0  0  0  2  0  0  0  0  0  0
  181.6370  178.2860  140.7940 C   0  0  1  0  0  3  0  0  0  0  0  0
  180.7400  180.0550  142.1450 O   0  0  0  0  0  1  0  0  0  0  0  0
  180.8040  178.6680  142.0080 C   0  0  0  0  0  2  0  0  0  0  0  0
  1  3  2  0  0  0  0
  3  2  1  0  0  0  0
  4 10  1  0  0  0  0
  5  3  1  0  0  0  0
  6  7  1  6  0  0  0
  6  8  1  0  0  0  0
  6  5  1  0  0  0  0
  7  8  2  0  0  0  0
  9  4  2  0  0  0  0
  9  7  1  0  0  0  0
 10  5  2  0  0  0  0
 12 14  1  0  0  0  0
 12 15  1  0  0  0  0
 14 11  1  6  0  0  0
 14 13  1  0  0  0  0
 15  4  1  1  0  0  0
 15 13  1  0  0  0  0
 16 18  1  0  0  0  0
 17 21  1  1  0  0  0
 17 22  1  0  0  0  0
 19  2  1  6  0  0  0
 19 20  1  0  0  0  0
 19 17  1  0  0  0  0
 20 16  1  0  0  0  0
 22 18  1  0  0  0  0
 22 23  1  6  0  0  0
 24 23  1  6  0  0  0
 24 29  1  0  0  0  0
 24 26  1  0  0  0  0
 26 25  1  0  0  0  0
 26 27  1  0  0  0  0
 28 26  2  0  0  0  0
 30 29  1  0  0  0  0
 32 33  1  6  0  0  0
 32 30  1  0  0  0  0
 32 31  1  0  0  0  0
 34 37  1  6  0  0  0
 34  1  1  0  0  0  0
 35 34  1  0  0  0  0
 36 35  1  0  0  0  0
 37 38  1  0  0  0  0
 39 40  1  0  0  0  0
 40 48  1  0  0  0  0
 41 48  1  0  0  0  0
 42 47  1  1  0  0  0
 42 41  1  0  0  0  0
 43 45  1  6  0  0  0
 43 39  1  0  0  0  0
 43 42  1  0  0  0  0
 44 38  1  0  0  0  0
 44 47  1  0  0  0  0
 45 46  1  0  0  0  0
 46 44  1  0  0  0  0
 48 50  1  1  0  0  0
 50 49  1  0  0  0  0
M  END
>  <MODEL>
1

>  <REMARK>
 VINA RESULT:      -8.4      0.000      0.000
  Name = 
  15 active torsions:
  status: ('A' for Active; 'I' for Inactive)
    1  A    between atoms: C_1  and  C_49
    2  A    between atoms: N_4  and  C_33
    3  A    between atoms: C_6  and  C_35
    4  A    between atoms: C_7  and  N_24
    5  A    between atoms: C_7  and  C_42
    6  A    between atoms: C_10  and  C_16
    7  A    between atoms: C_10  and  C_44
    8  A    between atoms: O_15  and  C_33
    9  A    between atoms: C_16  and  P_23
   10  A    between atoms: C_16  and  N_50
   11  A    between atoms: C_21  and  N_27
   12  A    between atoms: C_33  and  C_42
   13  A    between atoms: C_34  and  C_48
   14  A    between atoms: C_36  and  C_38
   15  A    between atoms: C_38  and  N_50
                            x       y       z     vdW  Elec       q    Type
                         _______ _______ _______ _____ _____    ______ ____

>  <TORSDO>
F 15

$$$$
=
 OpenBabel10232410423D

 50 55  0  0  1  0  0  0  0  0999 V2000
  189.5060  177.8360  139.2110 N   0  0  0  0  0  0  0  0  0  0  0  0
  190.6810  176.3860  140.6410 N   0  0  0  0  0  2  0  0  0  0  0  0
  190.2260  176.7540  139.3330 C   0  0  0  0  0  0  0  0  0  0  0  0
  192.3880  175.1930  136.6150 C   0  0  0  0  0  0  0  0  0  0  0  0
  190.6250  175.8780  138.1960 C   0  0  0  0  0  0  0  0  0  0  0  0
  189.6800  174.7840  137.6370 C   0  0  2  0  0  3  0  0  0  0  0  0
  190.2870  174.6510  136.4450 C   0  0  0  0  0  0  0  0  0  0  0  0
  188.9520  175.0620  136.5120 N   0  0  0  0  0  0  0  0  0  0  0  0
  191.5470  174.5440  135.8460 N   0  0  0  0  0  0  0  0  0  0  0  0
  191.8830  175.9680  137.7630 N   0  0  0  0  0  0  0  0  0  0  0  0
  195.9860  176.9970  134.7690 C   0  0  0  0  0  1  0  0  0  0  0  0
  194.3560  176.6220  136.5420 N   0  0  0  0  0  2  0  0  0  0  0  0
  193.9780  175.5360  134.7200 C   0  0  0  0  0  2  0  0  0  0  0  0
  194.5120  176.8950  135.1170 C   0  0  2  0  0  3  0  0  0  0  0  0
  193.8310  175.2990  136.2100 C   0  0  2  0  0  3  0  0  0  0  0  0
  191.5420  178.6540  143.5960 C   0  0  0  0  0  2  0  0  0  0  0  0
  189.6120  176.4420  142.8700 C   0  0  1  0  0  3  0  0  0  0  0  0
  190.1500  178.5530  144.2280 C   0  0  0  0  0  2  0  0  0  0  0  0
  190.4430  177.2060  141.8250 C   0  0  1  0  0  3  0  0  0  0  0  0
  191.7660  177.6860  142.4250 C   0  0  0  0  0  2  0  0  0  0  0  0
  190.0480  175.1200  142.9840 O   0  0  0  0  0  1  0  0  0  0  0  0
  189.6570  177.1030  144.2580 C   0  0  1  0  0  3  0  0  0  0  0  0
  188.3340  176.9580  145.0050 C   0  0  0  0  0  2  0  0  0  0  0  0
  188.1370  178.0000  146.1100 C   0  0  2  0  0  3  0  0  0  0  0  0
  189.7930  176.2750  147.4480 O   0  0  0  0  0  0  0  0  0  0  0  0
  188.8260  177.4110  147.6930 P   0  0  0  0  0  0  0  0  0  0  0  0
  187.5750  176.8730  148.6950 O   0  0  0  0  0  1  0  0  0  0  0  0
  189.6410  178.6850  148.4490 O   0  0  0  0  0  1  0  0  0  0  0  0
  186.7450  178.4430  146.2540 N   0  0  0  0  0  2  0  0  0  0  0  0
  185.9290  178.0080  145.1230 C   0  0  0  0  0  2  0  0  0  0  0  0
  183.8590  179.0160  145.7110 O   0  0  0  0  0  1  0  0  0  0  0  0
  184.8960  179.0690  144.7820 C   0  0  2  0  0  3  0  0  0  0  0  0
  184.3340  178.8320  143.3910 C   0  0  0  0  0  1  0  0  0  0  0  0
  188.9640  178.4220  137.9930 C   0  0  1  0  0  3  0  0  0  0  0  0
  189.7960  178.1140  136.9120 O   0  0  0  0  0  0  0  0  0  0  0  0
  188.9780  178.2130  135.7870 C   0  0  0  0  0  1  0  0  0  0  0  0
  187.5480  177.9010  137.7470 C   0  0  0  0  0  2  0  0  0  0  0  0
  186.5690  178.2830  138.8560 C   0  0  0  0  0  2  0  0  0  0  0  0
  181.9380  176.8180  138.7830 C   0  0  0  0  0  2  0  0  0  0  0  0
  181.0370  177.2700  139.9180 C   0  0  0  0  0  2  0  0  0  0  0  0
  182.0560  179.4710  139.9520 O   0  0  0  0  0  0  0  0  0  0  0  0
  182.9550  179.1380  138.9090 C   0  0  2  0  0  3  0  0  0  0  0  0
  182.4070  178.0290  137.9790 C   0  0  1  0  0  3  0  0  0  0  0  0
  185.2610  178.5730  138.2970 N   0  0  0  0  0  0  0  0  0  0  0  0
  183.4570  177.6090  136.9480 C   0  0  0  0  0  2  0  0  0  0  0  0
  184.8070  177.3550  137.6230 C   0  0  0  0  0  2  0  0  0  0  0  0
  184.3660  178.8230  139.4250 C   0  0  0  0  0  2  0  0  0  0  0  0
  181.7840  178.3240  140.7340 C   0  0  1  0  0  3  0  0  0  0  0  0
  180.7150  180.0810  141.9710 O   0  0  0  0  0  1  0  0  0  0  0  0
  180.9830  178.7120  141.9670 C   0  0  0  0  0  2  0  0  0  0  0  0
  1  3  2  0  0  0  0
  3  2  1  0  0  0  0
  4 10  1  0  0  0  0
  5  3  1  0  0  0  0
  6  7  1  6  0  0  0
  6  5  1  0  0  0  0
  7  8  2  0  0  0  0
  8  6  1  0  0  0  0
  9  7  1  0  0  0  0
  9  4  2  0  0  0  0
 10  5  2  0  0  0  0
 13 14  1  0  0  0  0
 13 15  1  0  0  0  0
 14 11  1  1  0  0  0
 14 12  1  0  0  0  0
 15 12  1  0  0  0  0
 15  4  1  6  0  0  0
 16 18  1  0  0  0  0
 17 21  1  1  0  0  0
 17 22  1  0  0  0  0
 18 22  1  0  0  0  0
 19  2  1  6  0  0  0
 19 20  1  0  0  0  0
 19 17  1  0  0  0  0
 20 16  1  0  0  0  0
 22 23  1  6  0  0  0
 24 23  1  6  0  0  0
 24 29  1  0  0  0  0
 24 26  1  0  0  0  0
 25 26  2  0  0  0  0
 26 28  1  0  0  0  0
 26 27  1  0  0  0  0
 30 29  1  0  0  0  0
 32 33  1  6  0  0  0
 32 30  1  0  0  0  0
 32 31  1  0  0  0  0
 34 37  1  6  0  0  0
 34  1  1  0  0  0  0
 35 34  1  0  0  0  0
 36 35  1  0  0  0  0
 37 38  1  0  0  0  0
 39 40  1  0  0  0  0
 40 48  1  0  0  0  0
 41 48  1  0  0  0  0
 42 47  1  1  0  0  0
 42 41  1  0  0  0  0
 43 45  1  6  0  0  0
 43 39  1  0  0  0  0
 43 42  1  0  0  0  0
 44 38  1  0  0  0  0
 44 47  1  0  0  0  0
 45 46  1  0  0  0  0
 46 44  1  0  0  0  0
 48 50  1  1  0  0  0
 50 49  1  0  0  0  0
M  END
>  <MODEL>
2

>  <REMARK>
 VINA RESULT:      -8.2      1.091      2.680
  Name = 
  15 active torsions:
  status: ('A' for Active; 'I' for Inactive)
    1  A    between atoms: C_1  and  C_49
    2  A    between atoms: N_4  and  C_33
    3  A    between atoms: C_6  and  C_35
    4  A    between atoms: C_7  and  N_24
    5  A    between atoms: C_7  and  C_42
    6  A    between atoms: C_10  and  C_16
    7  A    between atoms: C_10  and  C_44
    8  A    between atoms: O_15  and  C_33
    9  A    between atoms: C_16  and  P_23
   10  A    between atoms: C_16  and  N_50
   11  A    between atoms: C_21  and  N_27
   12  A    between atoms: C_33  and  C_42
   13  A    between atoms: C_34  and  C_48
   14  A    between atoms: C_36  and  C_38
   15  A    between atoms: C_38  and  N_50
                            x       y       z     vdW  Elec       q    Type
                         _______ _______ _______ _____ _____    ______ ____

>  <TORSDO>
F 15

$$$$
=
 OpenBabel10232410423D

 50 55  0  0  1  0  0  0  0  0999 V2000
  188.9530  175.3520  137.5780 N   0  0  0  0  0  0  0  0  0  0  0  0
  190.5510  176.1520  139.1060 N   0  0  0  0  0  2  0  0  0  0  0  0
  190.2150  175.5270  137.8610 C   0  0  0  0  0  0  0  0  0  0  0  0
  193.6550  174.3150  136.7660 C   0  0  0  0  0  0  0  0  0  0  0  0
  191.3390  175.1350  136.9650 C   0  0  0  0  0  0  0  0  0  0  0  0
  191.1760  175.0870  135.4240 C   0  0  2  0  0  3  0  0  0  0  0  0
  192.4850  175.1450  135.1290 C   0  0  0  0  0  0  0  0  0  0  0  0
  191.6200  176.1510  134.6860 N   0  0  0  0  0  0  0  0  0  0  0  0
  193.7300  174.6200  135.4930 N   0  0  0  0  0  0  0  0  0  0  0  0
  192.4560  174.6870  137.5390 N   0  0  0  0  0  0  0  0  0  0  0  0
  197.9190  174.0170  137.9230 C   0  0  0  0  0  1  0  0  0  0  0  0
  195.6320  174.8480  138.0790 N   0  0  0  0  0  2  0  0  0  0  0  0
  195.9750  173.4300  136.4920 C   0  0  0  0  0  2  0  0  0  0  0  0
  196.7270  174.5630  137.1560 C   0  0  2  0  0  3  0  0  0  0  0  0
  194.8630  173.7650  137.4690 C   0  0  2  0  0  3  0  0  0  0  0  0
  188.0410  178.6440  140.5590 C   0  0  0  0  0  2  0  0  0  0  0  0
  190.0290  176.5620  141.4880 C   0  0  1  0  0  3  0  0  0  0  0  0
  187.8500  177.8660  141.8650 C   0  0  0  0  0  2  0  0  0  0  0  0
  189.5480  176.6700  140.0310 C   0  0  1  0  0  3  0  0  0  0  0  0
  189.1860  178.1160  139.6820 C   0  0  0  0  0  2  0  0  0  0  0  0
  191.3720  176.9330  141.5980 O   0  0  0  0  0  1  0  0  0  0  0  0
  189.1950  177.4230  142.4510 C   0  0  1  0  0  3  0  0  0  0  0  0
  189.0400  176.7660  143.8190 C   0  0  0  0  0  2  0  0  0  0  0  0
  189.5810  177.6170  144.9730 C   0  0  2  0  0  3  0  0  0  0  0  0
  191.7440  175.9810  144.5800 O   0  0  0  0  0  0  0  0  0  0  0  0
  191.3460  177.2650  145.2700 P   0  0  0  0  0  0  0  0  0  0  0  0
  191.6260  177.1160  146.9310 O   0  0  0  0  0  1  0  0  0  0  0  0
  192.2740  178.5400  144.6580 O   0  0  0  0  0  1  0  0  0  0  0  0
  188.7890  177.5050  146.2030 N   0  0  0  0  0  2  0  0  0  0  0  0
  187.3730  177.7570  145.9490 C   0  0  0  0  0  2  0  0  0  0  0  0
  185.9450  179.3040  147.0520 O   0  0  0  0  0  1  0  0  0  0  0  0
  186.6650  178.1270  147.2420 C   0  0  2  0  0  3  0  0  0  0  0  0
  187.6750  178.3330  148.3570 C   0  0  0  0  0  1  0  0  0  0  0  0
  188.3730  174.7770  136.3730 C   0  0  1  0  0  3  0  0  0  0  0  0
  188.1990  173.4000  136.5460 O   0  0  0  0  0  0  0  0  0  0  0  0
  186.9150  173.2620  137.0720 C   0  0  0  0  0  1  0  0  0  0  0  0
  187.0390  175.4530  136.0590 C   0  0  0  0  0  2  0  0  0  0  0  0
  187.0230  176.9390  136.4140 C   0  0  0  0  0  2  0  0  0  0  0  0
  182.9050  176.3210  138.9160 C   0  0  0  0  0  2  0  0  0  0  0  0
  182.7850  177.0170  140.2590 C   0  0  0  0  0  2  0  0  0  0  0  0
  183.9080  178.9960  139.4210 O   0  0  0  0  0  0  0  0  0  0  0  0
  184.0880  178.4250  138.1370 C   0  0  2  0  0  3  0  0  0  0  0  0
  183.0160  177.3600  137.8020 C   0  0  1  0  0  3  0  0  0  0  0  0
  185.6560  177.4110  136.5490 N   0  0  0  0  0  0  0  0  0  0  0  0
  183.3200  176.6780  136.4650 C   0  0  0  0  0  2  0  0  0  0  0  0
  184.7870  176.2430  136.4010 C   0  0  0  0  0  2  0  0  0  0  0  0
  185.5160  177.9080  137.9170 C   0  0  0  0  0  2  0  0  0  0  0  0
  183.9590  177.9830  140.4070 C   0  0  1  0  0  3  0  0  0  0  0  0
  184.9390  179.6030  141.8820 O   0  0  0  0  0  1  0  0  0  0  0  0
  183.9680  178.6060  141.7940 C   0  0  0  0  0  2  0  0  0  0  0  0
  1  3  2  0  0  0  0
  3  2  1  0  0  0  0
  4 10  1  0  0  0  0
  5 10  2  0  0  0  0
  5  3  1  0  0  0  0
  6  8  1  6  0  0  0
  6  5  1  0  0  0  0
  7  6  1  0  0  0  0
  7  9  1  0  0  0  0
  8  7  2  0  0  0  0
  9  4  2  0  0  0  0
 13 14  1  0  0  0  0
 13 15  1  0  0  0  0
 14 11  1  1  0  0  0
 14 12  1  0  0  0  0
 15  4  1  6  0  0  0
 15 12  1  0  0  0  0
 16 18  1  0  0  0  0
 17 21  1  6  0  0  0
 17 22  1  0  0  0  0
 18 22  1  0  0  0  0
 19  2  1  6  0  0  0
 19 17  1  0  0  0  0
 20 19  1  0  0  0  0
 20 16  1  0  0  0  0
 22 23  1  1  0  0  0
 24 23  1  6  0  0  0
 24 26  1  0  0  0  0
 24 29  1  0  0  0  0
 25 26  2  0  0  0  0
 26 27  1  0  0  0  0
 28 26  1  0  0  0  0
 30 29  1  0  0  0  0
 30 32  1  0  0  0  0
 31 32  1  0  0  0  0
 32 33  1  1  0  0  0
 34 37  1  1  0  0  0
 34 35  1  0  0  0  0
 34  1  1  0  0  0  0
 35 36  1  0  0  0  0
 37 38  1  0  0  0  0
 38 44  1  0  0  0  0
 39 40  1  0  0  0  0
 40 48  1  0  0  0  0
 41 48  1  0  0  0  0
 42 47  1  1  0  0  0
 42 41  1  0  0  0  0
 43 45  1  6  0  0  0
 43 42  1  0  0  0  0
 43 39  1  0  0  0  0
 44 47  1  0  0  0  0
 46 45  1  0  0  0  0
 46 44  1  0  0  0  0
 48 50  1  1  0  0  0
 50 49  1  0  0  0  0
M  END
>  <MODEL>
3

>  <REMARK>
 VINA RESULT:      -8.0      2.356      4.049
  Name = 
  15 active torsions:
  status: ('A' for Active; 'I' for Inactive)
    1  A    between atoms: C_1  and  C_49
    2  A    between atoms: N_4  and  C_33
    3  A    between atoms: C_6  and  C_35
    4  A    between atoms: C_7  and  N_24
    5  A    between atoms: C_7  and  C_42
    6  A    between atoms: C_10  and  C_16
    7  A    between atoms: C_10  and  C_44
    8  A    between atoms: O_15  and  C_33
    9  A    between atoms: C_16  and  P_23
   10  A    between atoms: C_16  and  N_50
   11  A    between atoms: C_21  and  N_27
   12  A    between atoms: C_33  and  C_42
   13  A    between atoms: C_34  and  C_48
   14  A    between atoms: C_36  and  C_38
   15  A    between atoms: C_38  and  N_50
                            x       y       z     vdW  Elec       q    Type
                         _______ _______ _______ _____ _____    ______ ____

>  <TORSDO>
F 15

$$$$
=
 OpenBabel10232410423D

 50 55  0  0  1  0  0  0  0  0999 V2000
  188.6260  176.4990  137.6080 N   0  0  0  0  0  0  0  0  0  0  0  0
  188.1400  174.4310  136.6010 N   0  0  0  0  0  2  0  0  0  0  0  0
  189.0550  175.4950  136.8950 C   0  0  0  0  0  0  0  0  0  0  0  0
  192.8210  174.9290  136.8730 C   0  0  0  0  0  0  0  0  0  0  0  0
  190.4460  175.3660  136.3770 C   0  0  0  0  0  0  0  0  0  0  0  0
  190.7630  175.4420  134.8610 C   0  0  2  0  0  3  0  0  0  0  0  0
  192.0700  175.7250  134.9910 C   0  0  0  0  0  0  0  0  0  0  0  0
  191.2160  176.6260  134.3460 N   0  0  0  0  0  0  0  0  0  0  0  0
  193.2200  175.3630  135.7010 N   0  0  0  0  0  0  0  0  0  0  0  0
  191.4000  175.0390  137.2500 N   0  0  0  0  0  0  0  0  0  0  0  0
  196.8110  173.8100  138.4330 C   0  0  0  0  0  1  0  0  0  0  0  0
  195.0290  175.3500  137.8030 N   0  0  0  0  0  2  0  0  0  0  0  0
  194.5970  173.2690  137.4450 C   0  0  0  0  0  2  0  0  0  0  0  0
  195.7970  174.1870  137.3680 C   0  0  2  0  0  3  0  0  0  0  0  0
  193.8400  174.5050  137.8920 C   0  0  2  0  0  3  0  0  0  0  0  0
  184.8390  172.8620  137.7200 C   0  0  0  0  0  2  0  0  0  0  0  0
  185.8640  175.3730  136.3820 C   0  0  1  0  0  3  0  0  0  0  0  0
  184.1110  174.2040  137.8490 C   0  0  0  0  0  2  0  0  0  0  0  0
  186.7800  174.3860  137.1270 C   0  0  1  0  0  3  0  0  0  0  0  0
  186.2200  172.9630  137.0570 C   0  0  0  0  0  2  0  0  0  0  0  0
  186.1080  175.3370  135.0070 O   0  0  0  0  0  1  0  0  0  0  0  0
  184.3730  175.0970  136.6310 C   0  0  1  0  0  3  0  0  0  0  0  0
  183.5510  176.3820  136.6710 C   0  0  0  0  0  2  0  0  0  0  0  0
  182.9800  176.7020  138.0570 C   0  0  2  0  0  3  0  0  0  0  0  0
  180.4860  177.8240  138.2180 O   0  0  0  0  0  1  0  0  0  0  0  0
  181.1690  176.4830  138.0820 P   0  0  0  0  0  0  0  0  0  0  0  0
  180.7320  175.4990  139.3860 O   0  0  0  0  0  1  0  0  0  0  0  0
  180.6810  175.7500  136.6390 O   0  0  0  0  0  0  0  0  0  0  0  0
  183.3760  178.0220  138.5610 N   0  0  0  0  0  2  0  0  0  0  0  0
  183.4500  178.0340  140.0200 C   0  0  0  0  0  2  0  0  0  0  0  0
  185.5850  178.9750  139.5660 O   0  0  0  0  0  1  0  0  0  0  0  0
  184.5360  178.9910  140.4830 C   0  0  2  0  0  3  0  0  0  0  0  0
  185.0590  178.5760  141.8480 C   0  0  0  0  0  1  0  0  0  0  0  0
  189.3720  177.6660  138.0570 C   0  0  1  0  0  3  0  0  0  0  0  0
  189.0180  178.7760  137.2850 O   0  0  0  0  0  0  0  0  0  0  0  0
  187.7120  178.5240  136.8650 C   0  0  0  0  0  1  0  0  0  0  0  0
  189.0920  177.9290  139.5370 C   0  0  0  0  0  2  0  0  0  0  0  0
  190.3580  177.9500  140.3920 C   0  0  0  0  0  2  0  0  0  0  0  0
  189.9760  177.5440  145.2170 C   0  0  0  0  0  2  0  0  0  0  0  0
  188.5950  177.6920  145.8300 C   0  0  0  0  0  2  0  0  0  0  0  0
  187.5680  176.4770  144.0000 O   0  0  0  0  0  0  0  0  0  0  0  0
  188.8080  176.3040  143.3380 C   0  0  2  0  0  3  0  0  0  0  0  0
  190.0110  176.3150  144.3110 C   0  0  1  0  0  3  0  0  0  0  0  0
  190.2490  176.9930  141.4790 N   0  0  0  0  0  0  0  0  0  0  0  0
  191.3360  176.2550  143.5470 C   0  0  0  0  0  2  0  0  0  0  0  0
  191.3480  177.2740  142.4040 C   0  0  0  0  0  2  0  0  0  0  0  0
  188.9930  177.2810  142.1680 C   0  0  0  0  0  2  0  0  0  0  0  0
  187.5660  177.7060  144.7010 C   0  0  1  0  0  3  0  0  0  0  0  0
  186.2400  178.3380  146.5980 O   0  0  0  0  0  1  0  0  0  0  0  0
  186.1770  177.9940  145.2470 C   0  0  0  0  0  2  0  0  0  0  0  0
  1 34  1  0  0  0  0
  2  3  1  0  0  0  0
  3  1  2  0  0  0  0
  4 10  1  0  0  0  0
  5  3  1  0  0  0  0
  5 10  2  0  0  0  0
  6  8  1  1  0  0  0
  6  7  1  0  0  0  0
  6  5  1  0  0  0  0
  7  9  1  0  0  0  0
  8  7  2  0  0  0  0
  9  4  2  0  0  0  0
 12 15  1  0  0  0  0
 13 15  1  0  0  0  0
 14 13  1  0  0  0  0
 14 12  1  0  0  0  0
 14 11  1  1  0  0  0
 15  4  1  6  0  0  0
 16 18  1  0  0  0  0
 17 21  1  6  0  0  0
 17 22  1  0  0  0  0
 17 19  1  0  0  0  0
 19  2  1  6  0  0  0
 20 19  1  0  0  0  0
 20 16  1  0  0  0  0
 22 23  1  1  0  0  0
 22 18  1  0  0  0  0
 24 23  1  6  0  0  0
 24 26  1  0  0  0  0
 24 29  1  0  0  0  0
 26 25  1  0  0  0  0
 26 27  1  0  0  0  0
 28 26  2  0  0  0  0
 29 30  1  0  0  0  0
 30 32  1  0  0  0  0
 31 32  1  0  0  0  0
 32 33  1  1  0  0  0
 34 37  1  1  0  0  0
 35 34  1  0  0  0  0
 36 35  1  0  0  0  0
 37 38  1  0  0  0  0
 38 44  1  0  0  0  0
 39 40  1  0  0  0  0
 41 48  1  0  0  0  0
 42 47  1  6  0  0  0
 42 41  1  0  0  0  0
 42 43  1  0  0  0  0
 43 45  1  6  0  0  0
 43 39  1  0  0  0  0
 44 47  1  0  0  0  0
 44 46  1  0  0  0  0
 46 45  1  0  0  0  0
 48 50  1  1  0  0  0
 48 40  1  0  0  0  0
 50 49  1  0  0  0  0
M  END
>  <MODEL>
4

>  <REMARK>
 VINA RESULT:      -7.7      2.904      7.566
  Name = 
  15 active torsions:
  status: ('A' for Active; 'I' for Inactive)
    1  A    between atoms: C_1  and  C_49
    2  A    between atoms: N_4  and  C_33
    3  A    between atoms: C_6  and  C_35
    4  A    between atoms: C_7  and  N_24
    5  A    between atoms: C_7  and  C_42
    6  A    between atoms: C_10  and  C_16
    7  A    between atoms: C_10  and  C_44
    8  A    between atoms: O_15  and  C_33
    9  A    between atoms: C_16  and  P_23
   10  A    between atoms: C_16  and  N_50
   11  A    between atoms: C_21  and  N_27
   12  A    between atoms: C_33  and  C_42
   13  A    between atoms: C_34  and  C_48
   14  A    between atoms: C_36  and  C_38
   15  A    between atoms: C_38  and  N_50
                            x       y       z     vdW  Elec       q    Type
                         _______ _______ _______ _____ _____    ______ ____

>  <TORSDO>
F 15

$$$$
=
 OpenBabel10232410423D

 50 55  0  0  1  0  0  0  0  0999 V2000
  189.3810  176.2100  137.0870 N   0  0  0  0  0  0  0  0  0  0  0  0
  191.4940  175.7740  138.0220 N   0  0  0  0  0  2  0  0  0  0  0  0
  190.1750  176.3270  138.1150 C   0  0  0  0  0  0  0  0  0  0  0  0
  189.8840  176.9500  141.8610 C   0  0  0  0  0  0  0  0  0  0  0  0
  189.7960  176.9850  139.3980 C   0  0  0  0  0  0  0  0  0  0  0  0
  189.0690  178.3530  139.4300 C   0  0  2  0  0  3  0  0  0  0  0  0
  188.5920  178.2450  140.6810 C   0  0  0  0  0  0  0  0  0  0  0  0
  187.7110  178.3690  139.6010 N   0  0  0  0  0  0  0  0  0  0  0  0
  188.9530  177.8670  141.9790 N   0  0  0  0  0  0  0  0  0  0  0  0
  190.2310  176.4250  140.5270 N   0  0  0  0  0  0  0  0  0  0  0  0
  191.4130  176.7220  146.0100 C   0  0  0  0  0  1  0  0  0  0  0  0
  189.7000  176.7260  144.2760 N   0  0  0  0  0  2  0  0  0  0  0  0
  191.7140  177.0030  143.5600 C   0  0  0  0  0  2  0  0  0  0  0  0
  190.8920  177.4130  144.7630 C   0  0  2  0  0  3  0  0  0  0  0  0
  190.4500  176.3060  143.0940 C   0  0  2  0  0  3  0  0  0  0  0  0
  191.8470  172.7870  135.6630 C   0  0  0  0  0  2  0  0  0  0  0  0
  193.4900  175.0880  136.7340 C   0  0  1  0  0  3  0  0  0  0  0  0
  192.9890  173.4120  134.8560 C   0  0  0  0  0  2  0  0  0  0  0  0
  191.9580  175.0220  136.8610 C   0  0  1  0  0  3  0  0  0  0  0  0
  191.4800  173.5690  136.9320 C   0  0  0  0  0  2  0  0  0  0  0  0
  194.1010  174.9410  137.9820 O   0  0  0  0  0  1  0  0  0  0  0  0
  194.0500  174.0240  135.7770 C   0  0  1  0  0  3  0  0  0  0  0  0
  195.2630  174.5310  135.0020 C   0  0  0  0  0  2  0  0  0  0  0  0
  196.5950  173.9760  135.5180 C   0  0  2  0  0  3  0  0  0  0  0  0
  197.7620  175.2260  137.6600 O   0  0  0  0  0  1  0  0  0  0  0  0
  197.6560  175.3170  136.1550 P   0  0  0  0  0  0  0  0  0  0  0  0
  196.9980  176.8150  135.7310 O   0  0  0  0  0  1  0  0  0  0  0  0
  199.1980  175.1700  135.4760 O   0  0  0  0  0  0  0  0  0  0  0  0
  197.3010  173.1440  134.5370 N   0  0  0  0  0  2  0  0  0  0  0  0
  197.6660  171.8480  135.1030 C   0  0  0  0  0  2  0  0  0  0  0  0
  197.5460  171.0430  137.3360 O   0  0  0  0  0  1  0  0  0  0  0  0
  196.7670  171.5170  136.2830 C   0  0  2  0  0  3  0  0  0  0  0  0
  195.7540  170.4550  135.8930 C   0  0  0  0  0  1  0  0  0  0  0  0
  188.0010  176.6570  136.9600 C   0  0  1  0  0  3  0  0  0  0  0  0
  187.8120  177.2520  135.7090 O   0  0  0  0  0  0  0  0  0  0  0  0
  187.5030  178.5840  135.9860 C   0  0  0  0  0  1  0  0  0  0  0  0
  187.0490  175.4750  137.1420 C   0  0  0  0  0  2  0  0  0  0  0  0
  186.3090  175.0990  135.8590 C   0  0  0  0  0  2  0  0  0  0  0  0
  182.8770  175.8670  139.2110 C   0  0  0  0  0  2  0  0  0  0  0  0
  182.5110  177.3050  139.5290 C   0  0  0  0  0  2  0  0  0  0  0  0
  182.6930  177.9470  137.1970 O   0  0  0  0  0  0  0  0  0  0  0  0
  183.0630  176.6380  136.8020 C   0  0  2  0  0  3  0  0  0  0  0  0
  182.5220  175.5500  137.7600 C   0  0  1  0  0  3  0  0  0  0  0  0
  184.8730  175.1560  136.0700 N   0  0  0  0  0  0  0  0  0  0  0  0
  183.0490  174.1660  137.3730 C   0  0  0  0  0  2  0  0  0  0  0  0
  184.5620  174.2090  137.1420 C   0  0  0  0  0  2  0  0  0  0  0  0
  184.5720  176.5010  136.5540 C   0  0  0  0  0  2  0  0  0  0  0  0
  183.1820  178.2110  138.4980 C   0  0  1  0  0  3  0  0  0  0  0  0
  184.1840  180.3140  139.0750 O   0  0  0  0  0  1  0  0  0  0  0  0
  182.9650  179.6750  138.8500 C   0  0  0  0  0  2  0  0  0  0  0  0
  1  3  2  0  0  0  0
  2  3  1  0  0  0  0
  3  5  1  0  0  0  0
  4  9  2  0  0  0  0
  5 10  2  0  0  0  0
  6  5  1  6  0  0  0
  6  8  1  0  0  0  0
  6  7  1  0  0  0  0
  7  9  1  0  0  0  0
  8  7  2  0  0  0  0
 10  4  1  0  0  0  0
 12 14  1  0  0  0  0
 13 14  1  0  0  0  0
 14 11  1  1  0  0  0
 15  4  1  6  0  0  0
 15 13  1  0  0  0  0
 15 12  1  0  0  0  0
 16 20  1  0  0  0  0
 17 19  1  0  0  0  0
 17 21  1  1  0  0  0
 18 16  1  0  0  0  0
 18 22  1  0  0  0  0
 19 20  1  0  0  0  0
 19  2  1  1  0  0  0
 22 23  1  6  0  0  0
 22 17  1  0  0  0  0
 24 23  1  6  0  0  0
 24 26  1  0  0  0  0
 26 25  1  0  0  0  0
 27 26  1  0  0  0  0
 28 26  2  0  0  0  0
 29 30  1  0  0  0  0
 29 24  1  0  0  0  0
 30 32  1  0  0  0  0
 32 33  1  6  0  0  0
 32 31  1  0  0  0  0
 34  1  1  0  0  0  0
 34 37  1  6  0  0  0
 35 36  1  0  0  0  0
 35 34  1  0  0  0  0
 38 44  1  0  0  0  0
 38 37  1  0  0  0  0
 39 40  1  0  0  0  0
 41 48  1  0  0  0  0
 42 47  1  1  0  0  0
 42 41  1  0  0  0  0
 42 43  1  0  0  0  0
 43 45  1  6  0  0  0
 43 39  1  0  0  0  0
 44 47  1  0  0  0  0
 44 46  1  0  0  0  0
 46 45  1  0  0  0  0
 48 50  1  1  0  0  0
 48 40  1  0  0  0  0
 50 49  1  0  0  0  0
M  END
>  <MODEL>
5

>  <REMARK>
 VINA RESULT:      -7.3      4.307      8.982
  Name = 
  15 active torsions:
  status: ('A' for Active; 'I' for Inactive)
    1  A    between atoms: C_1  and  C_49
    2  A    between atoms: N_4  and  C_33
    3  A    between atoms: C_6  and  C_35
    4  A    between atoms: C_7  and  N_24
    5  A    between atoms: C_7  and  C_42
    6  A    between atoms: C_10  and  C_16
    7  A    between atoms: C_10  and  C_44
    8  A    between atoms: O_15  and  C_33
    9  A    between atoms: C_16  and  P_23
   10  A    between atoms: C_16  and  N_50
   11  A    between atoms: C_21  and  N_27
   12  A    between atoms: C_33  and  C_42
   13  A    between atoms: C_34  and  C_48
   14  A    between atoms: C_36  and  C_38
   15  A    between atoms: C_38  and  N_50
                            x       y       z     vdW  Elec       q    Type
                         _______ _______ _______ _____ _____    ______ ____

>  <TORSDO>
F 15

$$$$
=
 OpenBabel10232410423D

 50 55  0  0  1  0  0  0  0  0999 V2000
  189.4250  177.8700  139.0800 N   0  0  0  0  0  0  0  0  0  0  0  0
  190.5520  176.3830  140.5100 N   0  0  0  0  0  2  0  0  0  0  0  0
  190.0410  176.7280  139.2160 C   0  0  0  0  0  0  0  0  0  0  0  0
  191.8160  174.8610  136.4120 C   0  0  0  0  0  0  0  0  0  0  0  0
  190.2680  175.7590  138.1080 C   0  0  0  0  0  0  0  0  0  0  0  0
  189.2070  174.6980  137.7200 C   0  0  2  0  0  3  0  0  0  0  0  0
  189.6790  174.4510  136.4860 C   0  0  0  0  0  0  0  0  0  0  0  0
  188.3850  174.9540  136.6560 N   0  0  0  0  0  0  0  0  0  0  0  0
  190.8620  174.2230  135.7750 N   0  0  0  0  0  0  0  0  0  0  0  0
  191.4790  175.7380  137.5480 N   0  0  0  0  0  0  0  0  0  0  0  0
  195.7600  176.5000  135.2440 C   0  0  0  0  0  1  0  0  0  0  0  0
  194.1260  175.5310  136.7720 N   0  0  0  0  0  2  0  0  0  0  0  0
  193.3980  175.8890  134.7760 C   0  0  0  0  0  2  0  0  0  0  0  0
  194.3330  176.5610  135.7580 C   0  0  2  0  0  3  0  0  0  0  0  0
  193.2130  174.8450  135.8600 C   0  0  2  0  0  3  0  0  0  0  0  0
  191.5860  177.9320  143.8480 C   0  0  0  0  0  2  0  0  0  0  0  0
  189.0810  177.2640  142.2920 C   0  0  1  0  0  3  0  0  0  0  0  0
  190.2940  178.7410  144.0050 C   0  0  0  0  0  2  0  0  0  0  0  0
  190.4830  177.2820  141.6570 C   0  0  1  0  0  3  0  0  0  0  0  0
  191.5530  176.9240  142.6900 C   0  0  0  0  0  2  0  0  0  0  0  0
  188.5850  175.9590  142.3660 O   0  0  0  0  0  1  0  0  0  0  0  0
  189.0620  177.8840  143.6980 C   0  0  1  0  0  3  0  0  0  0  0  0
  187.7580  178.6270  143.9790 C   0  0  0  0  0  2  0  0  0  0  0  0
  186.6300  177.7180  144.4770 C   0  0  2  0  0  3  0  0  0  0  0  0
  184.1390  178.0380  143.3800 O   0  0  0  0  0  0  0  0  0  0  0  0
  185.0310  178.5970  144.4640 P   0  0  0  0  0  0  0  0  0  0  0  0
  185.2880  180.2440  144.1820 O   0  0  0  0  0  1  0  0  0  0  0  0
  184.2790  178.3960  145.9660 O   0  0  0  0  0  1  0  0  0  0  0  0
  186.9050  177.1080  145.7830 N   0  0  0  0  0  2  0  0  0  0  0  0
  187.4320  178.0900  146.7280 C   0  0  0  0  0  2  0  0  0  0  0  0
  188.6410  178.3130  148.7620 O   0  0  0  0  0  1  0  0  0  0  0  0
  188.3230  177.4070  147.7530 C   0  0  2  0  0  3  0  0  0  0  0  0
  189.6040  176.9190  147.0980 C   0  0  0  0  0  1  0  0  0  0  0  0
  188.8560  178.4450  137.8700 C   0  0  1  0  0  3  0  0  0  0  0  0
  189.6400  178.0920  136.7670 O   0  0  0  0  0  0  0  0  0  0  0  0
  188.7560  178.0620  135.6890 C   0  0  0  0  0  1  0  0  0  0  0  0
  187.4180  177.9590  137.6850 C   0  0  0  0  0  2  0  0  0  0  0  0
  186.4830  178.4160  138.8030 C   0  0  0  0  0  2  0  0  0  0  0  0
  181.8640  176.9350  139.0670 C   0  0  0  0  0  2  0  0  0  0  0  0
  181.0120  177.4810  140.1980 C   0  0  0  0  0  2  0  0  0  0  0  0
  182.0160  179.6790  139.9970 O   0  0  0  0  0  0  0  0  0  0  0  0
  182.8700  179.2600  138.9470 C   0  0  2  0  0  3  0  0  0  0  0  0
  182.2880  178.0740  138.1420 C   0  0  1  0  0  3  0  0  0  0  0  0
  185.1490  178.6520  138.2810 N   0  0  0  0  0  0  0  0  0  0  0  0
  183.2930  177.5700  137.1030 C   0  0  0  0  0  2  0  0  0  0  0  0
  184.6750  177.3800  137.7350 C   0  0  0  0  0  2  0  0  0  0  0  0
  184.3050  178.9970  139.4230 C   0  0  0  0  0  2  0  0  0  0  0  0
  181.7880  178.6030  140.8860 C   0  0  1  0  0  3  0  0  0  0  0  0
  180.3570  180.2770  141.8400 O   0  0  0  0  0  1  0  0  0  0  0  0
  181.0400  179.0930  142.1170 C   0  0  0  0  0  2  0  0  0  0  0  0
  1  3  2  0  0  0  0
  3  2  1  0  0  0  0
  4 10  1  0  0  0  0
  5  3  1  0  0  0  0
  6  7  1  6  0  0  0
  6  5  1  0  0  0  0
  7  8  2  0  0  0  0
  8  6  1  0  0  0  0
  9  4  2  0  0  0  0
  9  7  1  0  0  0  0
 10  5  2  0  0  0  0
 13 14  1  0  0  0  0
 13 15  1  0  0  0  0
 14 11  1  6  0  0  0
 14 12  1  0  0  0  0
 15  4  1  1  0  0  0
 15 12  1  0  0  0  0
 16 18  1  0  0  0  0
 17 21  1  1  0  0  0
 17 22  1  0  0  0  0
 19  2  1  6  0  0  0
 19 17  1  0  0  0  0
 19 20  1  0  0  0  0
 20 16  1  0  0  0  0
 22 23  1  6  0  0  0
 22 18  1  0  0  0  0
 24 23  1  1  0  0  0
 24 29  1  0  0  0  0
 25 26  2  0  0  0  0
 26 24  1  0  0  0  0
 26 28  1  0  0  0  0
 27 26  1  0  0  0  0
 29 30  1  0  0  0  0
 30 32  1  0  0  0  0
 32 33  1  6  0  0  0
 32 31  1  0  0  0  0
 34 37  1  6  0  0  0
 34  1  1  0  0  0  0
 35 34  1  0  0  0  0
 36 35  1  0  0  0  0
 37 38  1  0  0  0  0
 39 40  1  0  0  0  0
 40 48  1  0  0  0  0
 41 48  1  0  0  0  0
 42 47  1  1  0  0  0
 42 41  1  0  0  0  0
 43 45  1  6  0  0  0
 43 42  1  0  0  0  0
 43 39  1  0  0  0  0
 44 38  1  0  0  0  0
 44 47  1  0  0  0  0
 45 46  1  0  0  0  0
 46 44  1  0  0  0  0
 48 50  1  1  0  0  0
 49 50  1  0  0  0  0
M  END
>  <MODEL>
6

>  <REMARK>
 VINA RESULT:      -7.1      1.507      3.421
  Name = 
  15 active torsions:
  status: ('A' for Active; 'I' for Inactive)
    1  A    between atoms: C_1  and  C_49
    2  A    between atoms: N_4  and  C_33
    3  A    between atoms: C_6  and  C_35
    4  A    between atoms: C_7  and  N_24
    5  A    between atoms: C_7  and  C_42
    6  A    between atoms: C_10  and  C_16
    7  A    between atoms: C_10  and  C_44
    8  A    between atoms: O_15  and  C_33
    9  A    between atoms: C_16  and  P_23
   10  A    between atoms: C_16  and  N_50
   11  A    between atoms: C_21  and  N_27
   12  A    between atoms: C_33  and  C_42
   13  A    between atoms: C_34  and  C_48
   14  A    between atoms: C_36  and  C_38
   15  A    between atoms: C_38  and  N_50
                            x       y       z     vdW  Elec       q    Type
                         _______ _______ _______ _____ _____    ______ ____

>  <TORSDO>
F 15

$$$$
=
 OpenBabel10232410423D

 50 55  0  0  1  0  0  0  0  0999 V2000
  189.4120  177.4150  139.7960 N   0  0  0  0  0  0  0  0  0  0  0  0
  191.3220  176.9370  141.0800 N   0  0  0  0  0  2  0  0  0  0  0  0
  190.6020  176.8830  139.8420 C   0  0  0  0  0  0  0  0  0  0  0  0
  191.3470  174.3410  137.1060 C   0  0  0  0  0  0  0  0  0  0  0  0
  191.2780  176.2340  138.6830 C   0  0  0  0  0  0  0  0  0  0  0  0
  192.4530  176.9160  137.9360 C   0  0  2  0  0  3  0  0  0  0  0  0
  192.9400  175.8020  137.3650 C   0  0  0  0  0  0  0  0  0  0  0  0
  193.7320  176.5430  138.2490 N   0  0  0  0  0  0  0  0  0  0  0  0
  192.5530  174.6420  136.6850 N   0  0  0  0  0  0  0  0  0  0  0  0
  190.7460  175.1040  138.2150 N   0  0  0  0  0  0  0  0  0  0  0  0
  188.4820  171.9510  134.7210 C   0  0  0  0  0  1  0  0  0  0  0  0
  190.5610  173.1550  135.1320 N   0  0  0  0  0  2  0  0  0  0  0  0
  189.1660  173.1700  136.7750 C   0  0  0  0  0  2  0  0  0  0  0  0
  189.1090  173.2230  135.2640 C   0  0  2  0  0  3  0  0  0  0  0  0
  190.6700  173.1040  136.5890 C   0  0  2  0  0  3  0  0  0  0  0  0
  191.4570  179.0780  144.2440 C   0  0  0  0  0  2  0  0  0  0  0  0
  189.9810  176.6800  143.1410 C   0  0  1  0  0  3  0  0  0  0  0  0
  190.0250  178.7390  144.6730 C   0  0  0  0  0  2  0  0  0  0  0  0
  190.8170  177.6270  142.2620 C   0  0  1  0  0  3  0  0  0  0  0  0
  191.9680  178.2400  143.0640 C   0  0  0  0  0  2  0  0  0  0  0  0
  190.5900  175.4260  143.2410 O   0  0  0  0  0  1  0  0  0  0  0  0
  189.7520  177.2360  144.5560 C   0  0  1  0  0  3  0  0  0  0  0  0
  188.3800  176.8540  145.1060 C   0  0  0  0  0  2  0  0  0  0  0  0
  187.8870  177.7830  146.2200 C   0  0  2  0  0  3  0  0  0  0  0  0
  189.6470  176.2290  147.6330 O   0  0  0  0  0  0  0  0  0  0  0  0
  188.7540  177.4390  147.7880 P   0  0  0  0  0  0  0  0  0  0  0  0
  187.6250  177.1460  149.0120 O   0  0  0  0  0  1  0  0  0  0  0  0
  189.6970  178.7800  148.2040 O   0  0  0  0  0  1  0  0  0  0  0  0
  186.4300  177.7680  146.3910 N   0  0  0  0  0  2  0  0  0  0  0  0
  185.8760  179.1200  146.3610 C   0  0  0  0  0  2  0  0  0  0  0  0
  183.6410  179.1620  145.5530 O   0  0  0  0  0  1  0  0  0  0  0  0
  184.9700  179.2900  145.1530 C   0  0  2  0  0  3  0  0  0  0  0  0
  185.2800  178.2330  144.1070 C   0  0  0  0  0  1  0  0  0  0  0  0
  188.5140  177.5100  138.6540 C   0  0  1  0  0  3  0  0  0  0  0  0
  187.1870  177.5060  139.0970 O   0  0  0  0  0  0  0  0  0  0  0  0
  187.1610  178.4000  140.1670 C   0  0  0  0  0  1  0  0  0  0  0  0
  188.8110  178.7820  137.8580 C   0  0  0  0  0  2  0  0  0  0  0  0
  189.3750  178.4990  136.4670 C   0  0  0  0  0  2  0  0  0  0  0  0
  185.9640  175.0720  136.0010 C   0  0  0  0  0  2  0  0  0  0  0  0
  184.6310  175.3060  136.6870 C   0  0  0  0  0  2  0  0  0  0  0  0
  184.6680  177.6650  136.1240 O   0  0  0  0  0  0  0  0  0  0  0  0
  185.9230  177.5530  135.4770 C   0  0  2  0  0  3  0  0  0  0  0  0
  186.1860  176.1320  134.9240 C   0  0  1  0  0  3  0  0  0  0  0  0
  188.3300  178.0030  135.5890 N   0  0  0  0  0  0  0  0  0  0  0  0
  187.6000  176.0200  134.3490 C   0  0  0  0  0  2  0  0  0  0  0  0
  188.6280  176.5940  135.3270 C   0  0  0  0  0  2  0  0  0  0  0  0
  187.0810  178.0670  136.3450 C   0  0  0  0  0  2  0  0  0  0  0  0
  184.5990  176.7460  137.1970 C   0  0  1  0  0  3  0  0  0  0  0  0
  183.6620  177.5760  139.2450 O   0  0  0  0  0  1  0  0  0  0  0  0
  183.3420  176.9950  138.0170 C   0  0  0  0  0  2  0  0  0  0  0  0
  1  3  2  0  0  0  0
  3  2  1  0  0  0  0
  4 10  1  0  0  0  0
  5  3  1  0  0  0  0
  6  7  1  6  0  0  0
  6  8  1  0  0  0  0
  6  5  1  0  0  0  0
  7  8  2  0  0  0  0
  9  4  2  0  0  0  0
  9  7  1  0  0  0  0
 10  5  2  0  0  0  0
 12 14  1  0  0  0  0
 12 15  1  0  0  0  0
 14 11  1  6  0  0  0
 14 13  1  0  0  0  0
 15 13  1  0  0  0  0
 15  4  1  1  0  0  0
 16 18  1  0  0  0  0
 17 21  1  1  0  0  0
 17 22  1  0  0  0  0
 19  2  1  6  0  0  0
 19 20  1  0  0  0  0
 19 17  1  0  0  0  0
 20 16  1  0  0  0  0
 22 18  1  0  0  0  0
 22 23  1  6  0  0  0
 24 23  1  6  0  0  0
 24 29  1  0  0  0  0
 24 26  1  0  0  0  0
 25 26  2  0  0  0  0
 26 28  1  0  0  0  0
 26 27  1  0  0  0  0
 30 29  1  0  0  0  0
 32 33  1  6  0  0  0
 32 31  1  0  0  0  0
 32 30  1  0  0  0  0
 34 37  1  1  0  0  0
 34 35  1  0  0  0  0
 34  1  1  0  0  0  0
 35 36  1  0  0  0  0
 38 37  1  0  0  0  0
 39 40  1  0  0  0  0
 40 48  1  0  0  0  0
 41 48  1  0  0  0  0
 42 41  1  0  0  0  0
 42 47  1  1  0  0  0
 43 45  1  1  0  0  0
 43 42  1  0  0  0  0
 43 39  1  0  0  0  0
 44 47  1  0  0  0  0
 44 38  1  0  0  0  0
 45 46  1  0  0  0  0
 46 44  1  0  0  0  0
 48 50  1  6  0  0  0
 50 49  1  0  0  0  0
M  END
>  <MODEL>
7

>  <REMARK>
 VINA RESULT:      -7.0      1.801      2.819
  Name = 
  15 active torsions:
  status: ('A' for Active; 'I' for Inactive)
    1  A    between atoms: C_1  and  C_49
    2  A    between atoms: N_4  and  C_33
    3  A    between atoms: C_6  and  C_35
    4  A    between atoms: C_7  and  N_24
    5  A    between atoms: C_7  and  C_42
    6  A    between atoms: C_10  and  C_16
    7  A    between atoms: C_10  and  C_44
    8  A    between atoms: O_15  and  C_33
    9  A    between atoms: C_16  and  P_23
   10  A    between atoms: C_16  and  N_50
   11  A    between atoms: C_21  and  N_27
   12  A    between atoms: C_33  and  C_42
   13  A    between atoms: C_34  and  C_48
   14  A    between atoms: C_36  and  C_38
   15  A    between atoms: C_38  and  N_50
                            x       y       z     vdW  Elec       q    Type
                         _______ _______ _______ _____ _____    ______ ____

>  <TORSDO>
F 15

$$$$
=
 OpenBabel10232410423D

 50 55  0  0  1  0  0  0  0  0999 V2000
  189.2600  175.9160  137.1670 N   0  0  0  0  0  0  0  0  0  0  0  0
  191.4580  175.8020  137.9920 N   0  0  0  0  0  2  0  0  0  0  0  0
  190.0900  176.2040  138.1320 C   0  0  0  0  0  0  0  0  0  0  0  0
  189.6820  176.9100  141.8510 C   0  0  0  0  0  0  0  0  0  0  0  0
  189.7070  176.9100  139.3860 C   0  0  0  0  0  0  0  0  0  0  0  0
  189.0870  178.3300  139.3670 C   0  0  2  0  0  3  0  0  0  0  0  0
  188.5470  178.2800  140.5970 C   0  0  0  0  0  0  0  0  0  0  0  0
  187.7280  178.4530  139.4760 N   0  0  0  0  0  0  0  0  0  0  0  0
  188.8210  177.8980  141.9150 N   0  0  0  0  0  0  0  0  0  0  0  0
  190.0460  176.3380  140.5420 N   0  0  0  0  0  0  0  0  0  0  0  0
  191.5050  176.6120  145.8750 C   0  0  0  0  0  1  0  0  0  0  0  0
  189.7050  177.0140  144.2820 N   0  0  0  0  0  2  0  0  0  0  0  0
  191.6060  176.5180  143.3950 C   0  0  0  0  0  2  0  0  0  0  0  0
  191.1030  177.3050  144.5860 C   0  0  2  0  0  3  0  0  0  0  0  0
  190.1400  176.2450  143.1180 C   0  0  2  0  0  3  0  0  0  0  0  0
  191.7910  172.7850  135.6670 C   0  0  0  0  0  2  0  0  0  0  0  0
  193.4830  175.0170  136.8090 C   0  0  1  0  0  3  0  0  0  0  0  0
  193.0000  173.3520  134.9160 C   0  0  0  0  0  2  0  0  0  0  0  0
  191.9450  175.0210  136.8600 C   0  0  1  0  0  3  0  0  0  0  0  0
  191.3980  173.5920  136.9130 C   0  0  0  0  0  2  0  0  0  0  0  0
  194.0230  174.8500  138.0870 O   0  0  0  0  0  1  0  0  0  0  0  0
  194.0400  173.9210  135.8860 C   0  0  1  0  0  3  0  0  0  0  0  0
  195.3130  174.3670  135.1710 C   0  0  0  0  0  2  0  0  0  0  0  0
  196.5900  173.7530  135.7530 C   0  0  2  0  0  3  0  0  0  0  0  0
  199.1050  174.7560  136.1750 O   0  0  0  0  0  1  0  0  0  0  0  0
  197.6540  175.0380  136.4900 P   0  0  0  0  0  0  0  0  0  0  0  0
  197.4420  175.0620  138.1670 O   0  0  0  0  0  1  0  0  0  0  0  0
  197.2250  176.5440  135.8490 O   0  0  0  0  0  0  0  0  0  0  0  0
  197.3270  172.9210  134.7950 N   0  0  0  0  0  2  0  0  0  0  0  0
  197.1940  171.5000  135.1110 C   0  0  0  0  0  2  0  0  0  0  0  0
  197.6720  170.7830  137.3260 O   0  0  0  0  0  1  0  0  0  0  0  0
  196.6680  171.3240  136.5260 C   0  0  2  0  0  3  0  0  0  0  0  0
  195.4680  170.3930  136.5320 C   0  0  0  0  0  1  0  0  0  0  0  0
  187.8310  176.1890  137.0980 C   0  0  1  0  0  3  0  0  0  0  0  0
  187.5470  176.9180  135.9400 O   0  0  0  0  0  0  0  0  0  0  0  0
  186.4310  177.6900  136.2630 C   0  0  0  0  0  1  0  0  0  0  0  0
  187.0460  174.8770  137.1150 C   0  0  0  0  0  2  0  0  0  0  0  0
  187.6520  173.8050  136.2100 C   0  0  0  0  0  2  0  0  0  0  0  0
  183.7130  170.9890  136.5990 C   0  0  0  0  0  2  0  0  0  0  0  0
  182.3940  171.6620  136.9300 C   0  0  0  0  0  2  0  0  0  0  0  0
  182.9170  173.5560  135.5080 O   0  0  0  0  0  0  0  0  0  0  0  0
  184.1790  173.0200  135.1540 C   0  0  2  0  0  3  0  0  0  0  0  0
  184.2180  171.4750  135.2430 C   0  0  1  0  0  3  0  0  0  0  0  0
  186.6100  173.1420  135.4460 N   0  0  0  0  0  0  0  0  0  0  0  0
  185.6290  170.9460  134.9780 C   0  0  0  0  0  2  0  0  0  0  0  0
  186.6610  171.7230  135.8000 C   0  0  0  0  0  2  0  0  0  0  0  0
  185.3350  173.6790  135.9190 C   0  0  0  0  0  2  0  0  0  0  0  0
  182.5880  173.1750  136.8300 C   0  0  1  0  0  3  0  0  0  0  0  0
  181.1620  175.0870  136.5660 O   0  0  0  0  0  1  0  0  0  0  0  0
  181.3360  173.9060  137.2880 C   0  0  0  0  0  2  0  0  0  0  0  0
  1  3  2  0  0  0  0
  2  3  1  0  0  0  0
  3  5  1  0  0  0  0
  4  9  2  0  0  0  0
  5 10  2  0  0  0  0
  6  5  1  6  0  0  0
  6  8  1  0  0  0  0
  6  7  1  0  0  0  0
  7  9  1  0  0  0  0
  8  7  2  0  0  0  0
 10  4  1  0  0  0  0
 12 14  1  0  0  0  0
 13 14  1  0  0  0  0
 14 11  1  1  0  0  0
 15  4  1  6  0  0  0
 15 13  1  0  0  0  0
 15 12  1  0  0  0  0
 16 20  1  0  0  0  0
 17 19  1  0  0  0  0
 17 21  1  1  0  0  0
 18 16  1  0  0  0  0
 18 22  1  0  0  0  0
 19 20  1  0  0  0  0
 19  2  1  1  0  0  0
 22 23  1  6  0  0  0
 22 17  1  0  0  0  0
 24 23  1  6  0  0  0
 24 26  1  0  0  0  0
 25 26  1  0  0  0  0
 26 27  1  0  0  0  0
 28 26  2  0  0  0  0
 29 30  1  0  0  0  0
 29 24  1  0  0  0  0
 30 32  1  0  0  0  0
 32 33  1  6  0  0  0
 32 31  1  0  0  0  0
 34 37  1  6  0  0  0
 34  1  1  0  0  0  0
 35 36  1  0  0  0  0
 35 34  1  0  0  0  0
 38 37  1  0  0  0  0
 39 40  1  0  0  0  0
 41 48  1  0  0  0  0
 42 43  1  0  0  0  0
 42 41  1  0  0  0  0
 42 47  1  1  0  0  0
 43 45  1  1  0  0  0
 43 39  1  0  0  0  0
 44 46  1  0  0  0  0
 44 47  1  0  0  0  0
 44 38  1  0  0  0  0
 45 46  1  0  0  0  0
 48 40  1  0  0  0  0
 48 50  1  6  0  0  0
 49 50  1  0  0  0  0
M  END
>  <MODEL>
8

>  <REMARK>
 VINA RESULT:      -6.9      4.934      9.405
  Name = 
  15 active torsions:
  status: ('A' for Active; 'I' for Inactive)
    1  A    between atoms: C_1  and  C_49
    2  A    between atoms: N_4  and  C_33
    3  A    between atoms: C_6  and  C_35
    4  A    between atoms: C_7  and  N_24
    5  A    between atoms: C_7  and  C_42
    6  A    between atoms: C_10  and  C_16
    7  A    between atoms: C_10  and  C_44
    8  A    between atoms: O_15  and  C_33
    9  A    between atoms: C_16  and  P_23
   10  A    between atoms: C_16  and  N_50
   11  A    between atoms: C_21  and  N_27
   12  A    between atoms: C_33  and  C_42
   13  A    between atoms: C_34  and  C_48
   14  A    between atoms: C_36  and  C_38
   15  A    between atoms: C_38  and  N_50
                            x       y       z     vdW  Elec       q    Type
                         _______ _______ _______ _____ _____    ______ ____

>  <TORSDO>
F 15

$$$$
=
 OpenBabel10232410423D

 50 55  0  0  1  0  0  0  0  0999 V2000
  184.9660  178.6320  140.4620 N   0  0  0  0  0  0  0  0  0  0  0  0
  187.2700  178.6670  140.9250 N   0  0  0  0  0  2  0  0  0  0  0  0
  185.9060  178.6960  141.3640 C   0  0  0  0  0  0  0  0  0  0  0  0
  186.2530  177.9910  145.0900 C   0  0  0  0  0  0  0  0  0  0  0  0
  185.6590  178.7780  142.8300 C   0  0  0  0  0  0  0  0  0  0  0  0
  184.6640  179.8020  143.4350 C   0  0  2  0  0  3  0  0  0  0  0  0
  184.4890  179.1720  144.6090 C   0  0  0  0  0  0  0  0  0  0  0  0
  183.4020  179.3780  143.7530 N   0  0  0  0  0  0  0  0  0  0  0  0
  185.1830  178.5210  145.6340 N   0  0  0  0  0  0  0  0  0  0  0  0
  186.4290  178.0360  143.6260 N   0  0  0  0  0  0  0  0  0  0  0  0
  189.8670  177.1160  147.4940 C   0  0  0  0  0  1  0  0  0  0  0  0
  187.6040  177.9380  147.1120 N   0  0  0  0  0  2  0  0  0  0  0  0
  188.5920  177.1590  145.3620 C   0  0  0  0  0  2  0  0  0  0  0  0
  188.9700  177.9490  146.5960 C   0  0  2  0  0  3  0  0  0  0  0  0
  187.1880  177.1760  145.9360 C   0  0  2  0  0  3  0  0  0  0  0  0
  186.8730  177.6660  137.2570 C   0  0  0  0  0  2  0  0  0  0  0  0
  188.9970  177.7550  139.4080 C   0  0  1  0  0  3  0  0  0  0  0  0
  188.3560  177.8570  136.9240 C   0  0  0  0  0  2  0  0  0  0  0  0
  187.6510  178.4920  139.5270 C   0  0  1  0  0  3  0  0  0  0  0  0
  186.5550  177.7520  138.7570 C   0  0  0  0  0  2  0  0  0  0  0  0
  189.0660  176.6940  140.3130 O   0  0  0  0  0  1  0  0  0  0  0  0
  189.2520  177.2180  137.9900 C   0  0  1  0  0  3  0  0  0  0  0  0
  190.7290  177.2760  137.6120 C   0  0  0  0  0  2  0  0  0  0  0  0
  191.4150  175.9060  137.6080 C   0  0  2  0  0  3  0  0  0  0  0  0
  193.8450  174.7150  138.0380 O   0  0  0  0  0  1  0  0  0  0  0  0
  193.2140  176.0760  137.8610 P   0  0  0  0  0  0  0  0  0  0  0  0
  193.5100  177.0120  139.2380 O   0  0  0  0  0  1  0  0  0  0  0  0
  193.8920  176.8360  136.5110 O   0  0  0  0  0  0  0  0  0  0  0  0
  191.1070  175.1020  136.4200 N   0  0  0  0  0  2  0  0  0  0  0  0
  190.6090  173.7780  136.7870 C   0  0  0  0  0  2  0  0  0  0  0  0
  188.6290  172.4860  137.0250 O   0  0  0  0  0  1  0  0  0  0  0  0
  189.0910  173.7900  136.8620 C   0  0  2  0  0  3  0  0  0  0  0  0
  188.5040  174.3730  135.5880 C   0  0  0  0  0  1  0  0  0  0  0  0
  183.5240  178.6110  140.6660 C   0  0  1  0  0  3  0  0  0  0  0  0
  182.9330  179.6590  139.9530 O   0  0  0  0  0  0  0  0  0  0  0  0
  183.8470  179.9740  138.9480 C   0  0  0  0  0  1  0  0  0  0  0  0
  182.9510  177.2660  140.2180 C   0  0  0  0  0  2  0  0  0  0  0  0
  181.5170  177.3690  139.7000 C   0  0  0  0  0  2  0  0  0  0  0  0
  183.9370  175.9120  135.7480 C   0  0  0  0  0  2  0  0  0  0  0  0
  184.7550  174.6380  135.8520 C   0  0  0  0  0  2  0  0  0  0  0  0
  183.0600  173.5690  137.2180 O   0  0  0  0  0  0  0  0  0  0  0  0
  182.2320  174.7190  137.1980 C   0  0  2  0  0  3  0  0  0  0  0  0
  182.4560  175.5940  135.9420 C   0  0  1  0  0  3  0  0  0  0  0  0
  181.3810  176.6500  138.4460 N   0  0  0  0  0  0  0  0  0  0  0  0
  181.6400  176.8870  136.0200 C   0  0  0  0  0  2  0  0  0  0  0  0
  181.8210  177.5580  137.3850 C   0  0  0  0  0  2  0  0  0  0  0  0
  182.3180  175.5300  138.4990 C   0  0  0  0  0  2  0  0  0  0  0  0
  184.4190  173.9570  137.1780 C   0  0  1  0  0  3  0  0  0  0  0  0
  185.0760  171.7750  136.4290 O   0  0  0  0  0  1  0  0  0  0  0  0
  185.3140  172.7470  137.4000 C   0  0  0  0  0  2  0  0  0  0  0  0
  1 34  1  0  0  0  0
  1  3  2  0  0  0  0
  2  3  1  0  0  0  0
  3  5  1  0  0  0  0
  4  9  2  0  0  0  0
  5 10  2  0  0  0  0
  6  5  1  6  0  0  0
  6  8  1  0  0  0  0
  6  7  1  0  0  0  0
  7  9  1  0  0  0  0
  8  7  2  0  0  0  0
 10  4  1  0  0  0  0
 13 15  1  0  0  0  0
 13 14  1  0  0  0  0
 14 12  1  0  0  0  0
 14 11  1  1  0  0  0
 15  4  1  6  0  0  0
 15 12  1  0  0  0  0
 16 20  1  0  0  0  0
 17 19  1  0  0  0  0
 17 21  1  1  0  0  0
 18 16  1  0  0  0  0
 18 22  1  0  0  0  0
 19  2  1  1  0  0  0
 20 19  1  0  0  0  0
 22 23  1  6  0  0  0
 22 17  1  0  0  0  0
 24 23  1  6  0  0  0
 24 26  1  0  0  0  0
 26 25  1  0  0  0  0
 26 27  1  0  0  0  0
 28 26  2  0  0  0  0
 29 30  1  0  0  0  0
 29 24  1  0  0  0  0
 30 32  1  0  0  0  0
 32 33  1  6  0  0  0
 32 31  1  0  0  0  0
 34 37  1  6  0  0  0
 35 34  1  0  0  0  0
 36 35  1  0  0  0  0
 38 37  1  0  0  0  0
 39 40  1  0  0  0  0
 40 48  1  0  0  0  0
 42 41  1  0  0  0  0
 42 47  1  1  0  0  0
 43 39  1  1  0  0  0
 43 45  1  0  0  0  0
 43 42  1  0  0  0  0
 44 47  1  0  0  0  0
 44 38  1  0  0  0  0
 45 46  1  0  0  0  0
 46 44  1  0  0  0  0
 48 41  1  0  0  0  0
 48 50  1  6  0  0  0
 49 50  1  0  0  0  0
M  END
>  <MODEL>
9

>  <REMARK>
 VINA RESULT:      -6.9      3.279      8.460
  Name = 
  15 active torsions:
  status: ('A' for Active; 'I' for Inactive)
    1  A    between atoms: C_1  and  C_49
    2  A    between atoms: N_4  and  C_33
    3  A    between atoms: C_6  and  C_35
    4  A    between atoms: C_7  and  N_24
    5  A    between atoms: C_7  and  C_42
    6  A    between atoms: C_10  and  C_16
    7  A    between atoms: C_10  and  C_44
    8  A    between atoms: O_15  and  C_33
    9  A    between atoms: C_16  and  P_23
   10  A    between atoms: C_16  and  N_50
   11  A    between atoms: C_21  and  N_27
   12  A    between atoms: C_33  and  C_42
   13  A    between atoms: C_34  and  C_48
   14  A    between atoms: C_36  and  C_38
   15  A    between atoms: C_38  and  N_50
                            x       y       z     vdW  Elec       q    Type
                         _______ _______ _______ _____ _____    ______ ____

>  <TORSDO>
F 15

$$$$
