=
 OpenBabel10232412323D

 29 33  0  0  1  0  0  0  0  0999 V2000
  190.6240  177.1150  142.8040 C   0  0  2  0  0  3  0  0  0  0  0  0
  190.4460  177.7840  144.1650 C   0  0  2  0  0  3  0  0  0  0  0  0
  184.5940  179.0860  141.6130 C   0  0  0  0  0  0  0  0  0  0  0  0
  185.8420  178.5500  142.1190 C   0  0  0  0  0  0  0  0  0  0  0  0
  188.0200  177.8150  143.7720 C   0  0  0  0  0  0  0  0  0  0  0  0
  184.3580  179.4150  140.4200 O   0  0  0  0  0  0  0  0  0  0  0  0
  183.6730  178.7550  145.0860 C   0  0  0  0  0  1  0  0  0  0  0  0
  183.6520  179.2050  142.6770 N   0  0  0  0  0  0  0  0  0  0  0  0
  189.0410  177.8520  144.5770 N   0  0  0  0  0  0  0  0  0  0  0  0
  187.3660  178.7360  140.3120 O   0  0  0  0  0  0  0  0  0  0  0  0
  186.7030  178.0260  144.3060 N   0  0  0  0  0  2  0  0  0  0  0  0
  188.1790  177.5460  142.2760 C   0  0  2  0  0  3  0  0  0  0  0  0
  185.6460  178.3640  143.4050 C   0  0  0  0  0  0  0  0  0  0  0  0
  189.6310  177.6950  141.7830 C   0  0  2  0  0  3  0  0  0  0  0  0
  187.1460  178.3290  141.4850 C   0  0  0  0  0  0  0  0  0  0  0  0
  191.0420  179.1800  144.1460 C   0  0  0  0  0  1  0  0  0  0  0  0
  184.2820  178.7820  143.7300 C   0  0  0  0  0  0  0  0  0  0  0  0
  190.5010  175.6050  142.9580 C   0  0  0  0  0  1  0  0  0  0  0  0
  189.4680  176.4940  138.3460 N   0  0  0  0  0  0  0  0  0  0  0  0
  191.6670  176.0690  137.6040 N   0  0  0  0  0  0  0  0  0  0  0  0
  189.8770  177.1110  140.4150 C   0  0  0  0  0  0  0  0  0  0  0  0
  192.7210  176.6620  138.0640 C   0  0  0  0  0  0  0  0  0  0  0  0
  190.6560  176.0560  138.5910 C   0  0  0  0  0  0  0  0  0  0  0  0
  192.5820  177.3920  139.7080 S   0  0  0  0  0  0  0  0  0  0  0  0
  188.9640  177.0990  139.5000 N   0  0  0  0  0  0  0  0  0  0  0  0
  193.9230  176.7640  137.3010 N   0  0  0  0  0  2  0  0  0  0  0  0
  191.0970  176.3700  139.9630 C   0  0  1  0  0  3  0  0  0  0  0  0
  194.0460  176.1940  135.9700 C   0  0  0  0  0  2  0  0  0  0  0  0
  195.0230  177.0170  135.1580 C   0  0  0  0  0  1  0  0  0  0  0  0
  1 18  1  1  0  0  0
  1  2  1  0  0  0  0
  2 16  1  6  0  0  0
  2  9  1  0  0  0  0
  3  4  1  0  0  0  0
  3  8  1  0  0  0  0
  4 13  2  0  0  0  0
  5 11  1  0  0  0  0
  5  9  2  0  0  0  0
  6  3  2  0  0  0  0
  8 17  2  0  0  0  0
 10 15  2  0  0  0  0
 12 15  1  6  0  0  0
 12  5  1  0  0  0  0
 13 17  1  0  0  0  0
 13 11  1  0  0  0  0
 14 21  1  6  0  0  0
 14 12  1  0  0  0  0
 14  1  1  0  0  0  0
 15  4  1  0  0  0  0
 17  7  1  0  0  0  0
 19 23  2  0  0  0  0
 19 25  1  0  0  0  0
 20 22  2  0  0  0  0
 20 23  1  0  0  0  0
 22 24  1  0  0  0  0
 24 27  1  0  0  0  0
 25 21  2  0  0  0  0
 26 22  1  0  0  0  0
 27 23  1  6  0  0  0
 27 21  1  0  0  0  0
 28 26  1  0  0  0  0
 29 28  1  0  0  0  0
M  END
>  <MODEL>
1

>  <REMARK>
 VINA RESULT:      -9.2      0.000      0.000
  Name = 
  2 active torsions:
  status: ('A' for Active; 'I' for Inactive)
    1  A    between atoms: C_6  and  N_24
    2  A    between atoms: C_9  and  C_22
                            x       y       z     vdW  Elec       q    Type
                         _______ _______ _______ _____ _____    ______ ____

>  <TORSDO>
F 2

$$$$
=
 OpenBabel10232412323D

 29 33  0  0  1  0  0  0  0  0999 V2000
  188.5870  177.8690  137.6020 C   0  0  2  0  0  3  0  0  0  0  0  0
  187.0620  177.8790  137.5270 C   0  0  2  0  0  3  0  0  0  0  0  0
  187.7630  177.3000  143.9790 C   0  0  0  0  0  0  0  0  0  0  0  0
  187.7640  177.6340  142.5680 C   0  0  0  0  0  0  0  0  0  0  0  0
  187.0000  178.3520  139.9380 C   0  0  0  0  0  0  0  0  0  0  0  0
  188.6220  176.5980  144.5750 O   0  0  0  0  0  0  0  0  0  0  0  0
  184.7190  179.2360  143.8770 C   0  0  0  0  0  1  0  0  0  0  0  0
  186.6240  177.8790  144.6120 N   0  0  0  0  0  0  0  0  0  0  0  0
  186.4430  178.3660  138.7630 N   0  0  0  0  0  0  0  0  0  0  0  0
  189.5110  176.3330  141.6320 O   0  0  0  0  0  0  0  0  0  0  0  0
  186.2230  178.7380  141.0830 N   0  0  0  0  0  2  0  0  0  0  0  0
  188.4600  177.9430  140.1360 C   0  0  2  0  0  3  0  0  0  0  0  0
  186.6890  178.3670  142.3820 C   0  0  0  0  0  0  0  0  0  0  0  0
  189.0590  177.2210  138.9140 C   0  0  2  0  0  3  0  0  0  0  0  0
  188.6310  177.2200  141.4600 C   0  0  0  0  0  0  0  0  0  0  0  0
  186.5420  176.4890  137.2070 C   0  0  0  0  0  1  0  0  0  0  0  0
  185.9940  178.5020  143.6630 C   0  0  0  0  0  0  0  0  0  0  0  0
  189.1160  179.2860  137.4170 C   0  0  0  0  0  1  0  0  0  0  0  0
  192.6180  177.3170  139.6910 N   0  0  0  0  0  0  0  0  0  0  0  0
  193.7450  175.8980  138.1800 N   0  0  0  0  0  0  0  0  0  0  0  0
  190.5620  177.1150  138.9420 C   0  0  0  0  0  0  0  0  0  0  0  0
  193.2080  174.8760  137.5980 C   0  0  0  0  0  0  0  0  0  0  0  0
  192.7480  176.8480  138.4970 C   0  0  0  0  0  0  0  0  0  0  0  0
  191.4080  174.8750  137.4700 S   0  0  0  0  0  0  0  0  0  0  0  0
  191.2620  177.5370  139.9440 N   0  0  0  0  0  0  0  0  0  0  0  0
  193.9910  173.7870  137.1090 N   0  0  0  0  0  2  0  0  0  0  0  0
  191.4490  176.6610  137.8250 C   0  0  1  0  0  3  0  0  0  0  0  0
  195.4400  173.7670  137.2160 C   0  0  0  0  0  2  0  0  0  0  0  0
  195.8450  172.9250  138.4070 C   0  0  0  0  0  1  0  0  0  0  0  0
  1 18  1  1  0  0  0
  1 14  1  0  0  0  0
  2 16  1  1  0  0  0
  2  1  1  0  0  0  0
  2  9  1  0  0  0  0
  3  6  2  0  0  0  0
  3  8  1  0  0  0  0
  4  3  1  0  0  0  0
  5 11  1  0  0  0  0
  9  5  2  0  0  0  0
 11 13  1  0  0  0  0
 12  5  1  6  0  0  0
 12 15  1  0  0  0  0
 13  4  2  0  0  0  0
 13 17  1  0  0  0  0
 14 21  1  1  0  0  0
 14 12  1  0  0  0  0
 15 10  2  0  0  0  0
 15  4  1  0  0  0  0
 17  7  1  0  0  0  0
 17  8  2  0  0  0  0
 19 25  1  0  0  0  0
 20 23  1  0  0  0  0
 21 25  2  0  0  0  0
 22 20  2  0  0  0  0
 23 19  2  0  0  0  0
 24 22  1  0  0  0  0
 26 28  1  0  0  0  0
 26 22  1  0  0  0  0
 27 24  1  1  0  0  0
 27 23  1  0  0  0  0
 27 21  1  0  0  0  0
 28 29  1  0  0  0  0
M  END
>  <MODEL>
2

>  <REMARK>
 VINA RESULT:      -9.0      2.592      4.124
  Name = 
  2 active torsions:
  status: ('A' for Active; 'I' for Inactive)
    1  A    between atoms: C_6  and  N_24
    2  A    between atoms: C_9  and  C_22
                            x       y       z     vdW  Elec       q    Type
                         _______ _______ _______ _____ _____    ______ ____

>  <TORSDO>
F 2

$$$$
=
 OpenBabel10232412323D

 29 33  0  0  1  0  0  0  0  0999 V2000
  191.3410  177.5940  143.0120 C   0  0  2  0  0  3  0  0  0  0  0  0
  191.2480  178.3540  144.3330 C   0  0  2  0  0  3  0  0  0  0  0  0
  184.9390  178.3690  142.7040 C   0  0  0  0  0  0  0  0  0  0  0  0
  186.3280  178.1080  143.0320 C   0  0  0  0  0  0  0  0  0  0  0  0
  188.8280  177.9270  144.3480 C   0  0  0  0  0  0  0  0  0  0  0  0
  184.4690  178.5310  141.5480 O   0  0  0  0  0  0  0  0  0  0  0  0
  184.6310  178.2310  146.2970 C   0  0  0  0  0  1  0  0  0  0  0  0
  184.1630  178.4290  143.8990 N   0  0  0  0  0  0  0  0  0  0  0  0
  189.9340  178.2190  144.9670 N   0  0  0  0  0  0  0  0  0  0  0  0
  187.5000  178.3730  140.9890 O   0  0  0  0  0  0  0  0  0  0  0  0
  187.5910  177.9610  145.0780 N   0  0  0  0  0  2  0  0  0  0  0  0
  188.8070  177.5420  142.8690 C   0  0  2  0  0  3  0  0  0  0  0  0
  186.3660  178.0210  144.3430 C   0  0  0  0  0  0  0  0  0  0  0  0
  190.1150  177.8900  142.1330 C   0  0  2  0  0  3  0  0  0  0  0  0
  187.5400  178.0530  142.2080 C   0  0  0  0  0  0  0  0  0  0  0  0
  191.5650  179.8230  144.1170 C   0  0  0  0  0  1  0  0  0  0  0  0
  185.0130  178.2270  144.8600 C   0  0  0  0  0  0  0  0  0  0  0  0
  191.5250  176.1080  143.2910 C   0  0  0  0  0  1  0  0  0  0  0  0
  190.4300  175.6080  139.3080 N   0  0  0  0  0  0  0  0  0  0  0  0
  190.0530  176.8290  137.3240 N   0  0  0  0  0  0  0  0  0  0  0  0
  190.2550  177.2240  140.7880 C   0  0  0  0  0  0  0  0  0  0  0  0
  189.3320  177.9000  137.2510 C   0  0  0  0  0  0  0  0  0  0  0  0
  190.5800  176.6940  138.6280 C   0  0  0  0  0  0  0  0  0  0  0  0
  189.0940  178.8180  138.7850 S   0  0  0  0  0  0  0  0  0  0  0  0
  190.2860  175.9380  140.6580 N   0  0  0  0  0  0  0  0  0  0  0  0
  188.7260  178.3200  136.0290 N   0  0  0  0  0  2  0  0  0  0  0  0
  190.5070  177.8990  139.4750 C   0  0  1  0  0  3  0  0  0  0  0  0
  188.8960  177.5840  134.7870 C   0  0  0  0  0  2  0  0  0  0  0  0
  187.5880  176.9240  134.4090 C   0  0  0  0  0  1  0  0  0  0  0  0
  1 18  1  1  0  0  0
  1  2  1  0  0  0  0
  2 16  1  6  0  0  0
  2  9  1  0  0  0  0
  3  4  1  0  0  0  0
  3  8  1  0  0  0  0
  4 13  2  0  0  0  0
  5  9  2  0  0  0  0
  5 11  1  0  0  0  0
  6  3  2  0  0  0  0
  8 17  2  0  0  0  0
 10 15  2  0  0  0  0
 12 15  1  6  0  0  0
 12  5  1  0  0  0  0
 13 17  1  0  0  0  0
 13 11  1  0  0  0  0
 14 21  1  6  0  0  0
 14 12  1  0  0  0  0
 14  1  1  0  0  0  0
 15  4  1  0  0  0  0
 17  7  1  0  0  0  0
 19 25  1  0  0  0  0
 20 23  1  0  0  0  0
 22 20  2  0  0  0  0
 22 24  1  0  0  0  0
 23 19  2  0  0  0  0
 24 27  1  0  0  0  0
 25 21  2  0  0  0  0
 26 22  1  0  0  0  0
 27 23  1  6  0  0  0
 27 21  1  0  0  0  0
 28 26  1  0  0  0  0
 29 28  1  0  0  0  0
M  END
>  <MODEL>
3

>  <REMARK>
 VINA RESULT:      -8.7      2.033      2.513
  Name = 
  2 active torsions:
  status: ('A' for Active; 'I' for Inactive)
    1  A    between atoms: C_6  and  N_24
    2  A    between atoms: C_9  and  C_22
                            x       y       z     vdW  Elec       q    Type
                         _______ _______ _______ _____ _____    ______ ____

>  <TORSDO>
F 2

$$$$
=
 OpenBabel10232412323D

 29 33  0  0  1  0  0  0  0  0999 V2000
  190.3330  177.4180  142.4060 C   0  0  2  0  0  3  0  0  0  0  0  0
  190.6750  177.8430  143.8320 C   0  0  2  0  0  3  0  0  0  0  0  0
  184.2760  179.0640  143.9120 C   0  0  0  0  0  0  0  0  0  0  0  0
  185.6300  178.5550  143.8140 C   0  0  0  0  0  0  0  0  0  0  0  0
  188.2810  177.7410  144.3800 C   0  0  0  0  0  0  0  0  0  0  0  0
  183.6000  179.5590  142.9720 O   0  0  0  0  0  0  0  0  0  0  0  0
  184.7470  178.1050  147.3590 C   0  0  0  0  0  1  0  0  0  0  0  0
  183.8060  178.9340  145.2530 N   0  0  0  0  0  0  0  0  0  0  0  0
  189.5310  177.7300  144.7410 N   0  0  0  0  0  0  0  0  0  0  0  0
  186.3510  179.1510  141.6360 O   0  0  0  0  0  0  0  0  0  0  0  0
  187.2630  177.7580  145.3930 N   0  0  0  0  0  2  0  0  0  0  0  0
  187.8650  177.7300  142.9090 C   0  0  2  0  0  3  0  0  0  0  0  0
  185.9390  178.1500  145.0250 C   0  0  0  0  0  0  0  0  0  0  0  0
  189.0190  178.0720  141.9490 C   0  0  2  0  0  3  0  0  0  0  0  0
  186.5990  178.5440  142.7130 C   0  0  0  0  0  0  0  0  0  0  0  0
  191.2010  179.2670  143.8440 C   0  0  0  0  0  1  0  0  0  0  0  0
  184.7950  178.3990  145.9020 C   0  0  0  0  0  0  0  0  0  0  0  0
  190.2980  175.8970  142.3220 C   0  0  0  0  0  1  0  0  0  0  0  0
  187.7650  177.8160  138.5360 N   0  0  0  0  0  0  0  0  0  0  0  0
  189.3330  176.6010  137.2600 N   0  0  0  0  0  0  0  0  0  0  0  0
  188.7350  177.7380  140.5070 C   0  0  0  0  0  0  0  0  0  0  0  0
  190.5980  176.5390  137.5210 C   0  0  0  0  0  0  0  0  0  0  0  0
  188.6090  176.8460  138.4480 C   0  0  0  0  0  0  0  0  0  0  0  0
  191.0880  176.8940  139.2210 S   0  0  0  0  0  0  0  0  0  0  0  0
  187.8040  178.3320  139.8340 N   0  0  0  0  0  0  0  0  0  0  0  0
  191.5640  176.2380  136.5140 N   0  0  0  0  0  2  0  0  0  0  0  0
  189.3520  176.6340  139.7040 C   0  0  1  0  0  3  0  0  0  0  0  0
  191.1870  175.9620  135.1380 C   0  0  0  0  0  2  0  0  0  0  0  0
  191.2010  174.4680  134.9010 C   0  0  0  0  0  1  0  0  0  0  0  0
  1 18  1  1  0  0  0
  1  2  1  0  0  0  0
  2 16  1  6  0  0  0
  2  9  1  0  0  0  0
  3  8  1  0  0  0  0
  4  3  1  0  0  0  0
  4 13  2  0  0  0  0
  5  9  2  0  0  0  0
  5 11  1  0  0  0  0
  6  3  2  0  0  0  0
  8 17  2  0  0  0  0
 10 15  2  0  0  0  0
 12 15  1  1  0  0  0
 12  5  1  0  0  0  0
 13 11  1  0  0  0  0
 13 17  1  0  0  0  0
 14 21  1  6  0  0  0
 14  1  1  0  0  0  0
 14 12  1  0  0  0  0
 15  4  1  0  0  0  0
 17  7  1  0  0  0  0
 19 25  1  0  0  0  0
 20 22  2  0  0  0  0
 20 23  1  0  0  0  0
 22 24  1  0  0  0  0
 23 19  2  0  0  0  0
 24 27  1  0  0  0  0
 25 21  2  0  0  0  0
 26 22  1  0  0  0  0
 27 23  1  6  0  0  0
 27 21  1  0  0  0  0
 28 26  1  0  0  0  0
 29 28  1  0  0  0  0
M  END
>  <MODEL>
4

>  <REMARK>
 VINA RESULT:      -7.9      1.658      1.978
  Name = 
  2 active torsions:
  status: ('A' for Active; 'I' for Inactive)
    1  A    between atoms: C_6  and  N_24
    2  A    between atoms: C_9  and  C_22
                            x       y       z     vdW  Elec       q    Type
                         _______ _______ _______ _____ _____    ______ ____

>  <TORSDO>
F 2

$$$$
=
 OpenBabel10232412323D

 29 33  0  0  1  0  0  0  0  0999 V2000
  189.4630  176.1120  135.3820 C   0  0  2  0  0  3  0  0  0  0  0  0
  187.9420  176.0480  135.5020 C   0  0  2  0  0  3  0  0  0  0  0  0
  189.3960  177.4480  141.6980 C   0  0  0  0  0  0  0  0  0  0  0  0
  189.2170  177.3450  140.2620 C   0  0  0  0  0  0  0  0  0  0  0  0
  188.1170  177.2180  137.6570 C   0  0  0  0  0  0  0  0  0  0  0  0
  190.3620  176.9840  142.3590 O   0  0  0  0  0  0  0  0  0  0  0  0
  186.2330  179.1620  141.4220 C   0  0  0  0  0  1  0  0  0  0  0  0
  188.2970  178.1510  142.2730 N   0  0  0  0  0  0  0  0  0  0  0  0
  187.4320  176.8620  136.6100 N   0  0  0  0  0  0  0  0  0  0  0  0
  190.9340  175.8820  139.5340 O   0  0  0  0  0  0  0  0  0  0  0  0
  187.4470  177.9020  138.7280 N   0  0  0  0  0  2  0  0  0  0  0  0
  189.6140  176.9350  137.7790 C   0  0  2  0  0  3  0  0  0  0  0  0
  188.0790  177.9520  140.0090 C   0  0  0  0  0  0  0  0  0  0  0  0
  190.1220  175.9010  136.7560 C   0  0  2  0  0  3  0  0  0  0  0  0
  189.9810  176.6470  139.2230 C   0  0  0  0  0  0  0  0  0  0  0  0
  187.4880  174.6100  135.6720 C   0  0  0  0  0  1  0  0  0  0  0  0
  187.5240  178.4400  141.2710 C   0  0  0  0  0  0  0  0  0  0  0  0
  189.8680  177.4250  134.7260 C   0  0  0  0  0  1  0  0  0  0  0  0
  193.7240  176.4350  136.9090 N   0  0  0  0  0  0  0  0  0  0  0  0
  194.7950  174.5100  136.0650 N   0  0  0  0  0  0  0  0  0  0  0  0
  191.6220  175.8590  136.6220 C   0  0  0  0  0  0  0  0  0  0  0  0
  194.2860  173.3210  136.0880 C   0  0  0  0  0  0  0  0  0  0  0  0
  193.7610  175.4730  136.0510 C   0  0  0  0  0  0  0  0  0  0  0  0
  192.4900  173.2150  136.2220 S   0  0  0  0  0  0  0  0  0  0  0  0
  192.3890  176.7110  137.2190 N   0  0  0  0  0  0  0  0  0  0  0  0
  195.1010  172.1500  136.0420 N   0  0  0  0  0  2  0  0  0  0  0  0
  192.4170  174.9650  135.7210 C   0  0  1  0  0  3  0  0  0  0  0  0
  196.5500  172.2180  135.9480 C   0  0  0  0  0  2  0  0  0  0  0  0
  197.1560  171.9650  137.3110 C   0  0  0  0  0  1  0  0  0  0  0  0
  1 18  1  1  0  0  0
  1  2  1  0  0  0  0
  1 14  1  0  0  0  0
  2 16  1  1  0  0  0
  2  9  1  0  0  0  0
  3  8  1  0  0  0  0
  3  6  2  0  0  0  0
  4  3  1  0  0  0  0
  5 11  1  0  0  0  0
  9  5  2  0  0  0  0
 11 13  1  0  0  0  0
 12  5  1  1  0  0  0
 12 15  1  0  0  0  0
 13  4  2  0  0  0  0
 13 17  1  0  0  0  0
 14 21  1  6  0  0  0
 14 12  1  0  0  0  0
 15 10  2  0  0  0  0
 15  4  1  0  0  0  0
 17  7  1  0  0  0  0
 17  8  2  0  0  0  0
 19 25  1  0  0  0  0
 20 22  2  0  0  0  0
 21 25  2  0  0  0  0
 22 24  1  0  0  0  0
 23 20  1  0  0  0  0
 23 19  2  0  0  0  0
 26 22  1  0  0  0  0
 27 23  1  1  0  0  0
 27 24  1  0  0  0  0
 27 21  1  0  0  0  0
 28 26  1  0  0  0  0
 28 29  1  0  0  0  0
M  END
>  <MODEL>
5

>  <REMARK>
 VINA RESULT:      -7.3      3.071      5.712
  Name = 
  2 active torsions:
  status: ('A' for Active; 'I' for Inactive)
    1  A    between atoms: C_6  and  N_24
    2  A    between atoms: C_9  and  C_22
                            x       y       z     vdW  Elec       q    Type
                         _______ _______ _______ _____ _____    ______ ____

>  <TORSDO>
F 2

$$$$
=
 OpenBabel10232412323D

 29 33  0  0  1  0  0  0  0  0999 V2000
  190.6050  175.1500  135.5140 C   0  0  2  0  0  3  0  0  0  0  0  0
  189.1620  174.7310  135.7860 C   0  0  2  0  0  3  0  0  0  0  0  0
  190.4580  177.6630  141.4580 C   0  0  0  0  0  0  0  0  0  0  0  0
  190.2510  177.2330  140.0880 C   0  0  0  0  0  0  0  0  0  0  0  0
  189.1130  176.3130  137.6650 C   0  0  0  0  0  0  0  0  0  0  0  0
  191.5400  177.6010  142.0980 O   0  0  0  0  0  0  0  0  0  0  0  0
  186.9440  178.4330  141.1730 C   0  0  0  0  0  1  0  0  0  0  0  0
  189.2370  178.1670  141.9960 N   0  0  0  0  0  0  0  0  0  0  0  0
  188.5030  175.5940  136.7690 N   0  0  0  0  0  0  0  0  0  0  0  0
  192.2620  176.1350  139.4810 O   0  0  0  0  0  0  0  0  0  0  0  0
  188.3320  177.0070  138.6510 N   0  0  0  0  0  2  0  0  0  0  0  0
  190.6350  176.4480  137.6950 C   0  0  2  0  0  3  0  0  0  0  0  0
  188.9830  177.4700  139.8370 C   0  0  0  0  0  0  0  0  0  0  0  0
  191.3550  175.3920  136.8340 C   0  0  2  0  0  3  0  0  0  0  0  0
  191.1280  176.5570  139.1270 C   0  0  0  0  0  0  0  0  0  0  0  0
  189.1140  173.2880  136.2560 C   0  0  0  0  0  1  0  0  0  0  0  0
  188.3730  178.0460  141.0350 C   0  0  0  0  0  0  0  0  0  0  0  0
  190.6180  176.3640  134.5940 C   0  0  0  0  0  1  0  0  0  0  0  0
  194.6060  176.8980  136.1690 N   0  0  0  0  0  0  0  0  0  0  0  0
  196.2720  175.2800  136.5850 N   0  0  0  0  0  0  0  0  0  0  0  0
  192.8050  175.7040  136.5700 C   0  0  0  0  0  0  0  0  0  0  0  0
  196.1400  174.2900  137.4070 C   0  0  0  0  0  0  0  0  0  0  0  0
  195.0030  175.6730  136.1020 C   0  0  0  0  0  0  0  0  0  0  0  0
  194.4530  173.7880  137.8010 S   0  0  0  0  0  0  0  0  0  0  0  0
  193.2290  176.9140  136.4030 N   0  0  0  0  0  0  0  0  0  0  0  0
  197.2680  173.6460  138.0000 N   0  0  0  0  0  2  0  0  0  0  0  0
  193.9060  174.7160  136.3330 C   0  0  1  0  0  3  0  0  0  0  0  0
  198.6330  174.0480  137.7040 C   0  0  0  0  0  2  0  0  0  0  0  0
  199.2260  173.0990  136.6840 C   0  0  0  0  0  1  0  0  0  0  0  0
  1 18  1  6  0  0  0
  1  2  1  0  0  0  0
  1 14  1  0  0  0  0
  2 16  1  1  0  0  0
  2  9  1  0  0  0  0
  3  8  1  0  0  0  0
  3  6  2  0  0  0  0
  4  3  1  0  0  0  0
  5 11  1  0  0  0  0
  9  5  2  0  0  0  0
 11 13  1  0  0  0  0
 12  5  1  1  0  0  0
 12 15  1  0  0  0  0
 13  4  2  0  0  0  0
 13 17  1  0  0  0  0
 14 21  1  6  0  0  0
 14 12  1  0  0  0  0
 15 10  2  0  0  0  0
 15  4  1  0  0  0  0
 17  7  1  0  0  0  0
 17  8  2  0  0  0  0
 19 25  1  0  0  0  0
 20 22  2  0  0  0  0
 22 24  1  0  0  0  0
 22 26  1  0  0  0  0
 23 19  2  0  0  0  0
 23 20  1  0  0  0  0
 25 21  2  0  0  0  0
 27 23  1  1  0  0  0
 27 21  1  0  0  0  0
 27 24  1  0  0  0  0
 28 26  1  0  0  0  0
 29 28  1  0  0  0  0
M  END
>  <MODEL>
6

>  <REMARK>
 VINA RESULT:      -7.3      3.008      6.092
  Name = 
  2 active torsions:
  status: ('A' for Active; 'I' for Inactive)
    1  A    between atoms: C_6  and  N_24
    2  A    between atoms: C_9  and  C_22
                            x       y       z     vdW  Elec       q    Type
                         _______ _______ _______ _____ _____    ______ ____

>  <TORSDO>
F 2

$$$$
=
 OpenBabel10232412323D

 29 33  0  0  1  0  0  0  0  0999 V2000
  189.4200  174.8110  135.4520 C   0  0  2  0  0  3  0  0  0  0  0  0
  190.8910  175.1690  135.6520 C   0  0  2  0  0  3  0  0  0  0  0  0
  188.3850  178.2160  140.8370 C   0  0  0  0  0  0  0  0  0  0  0  0
  188.8180  177.3290  139.7750 C   0  0  0  0  0  0  0  0  0  0  0  0
  190.3680  175.7940  137.9710 C   0  0  0  0  0  0  0  0  0  0  0  0
  187.3000  178.8530  140.8740 O   0  0  0  0  0  0  0  0  0  0  0  0
  191.6020  177.2880  142.1830 C   0  0  0  0  0  1  0  0  0  0  0  0
  189.3850  178.2790  141.8530 N   0  0  0  0  0  0  0  0  0  0  0  0
  191.2180  175.4300  137.0560 N   0  0  0  0  0  0  0  0  0  0  0  0
  187.2130  177.6070  138.0530 O   0  0  0  0  0  0  0  0  0  0  0  0
  190.8550  176.1460  139.2750 N   0  0  0  0  0  2  0  0  0  0  0  0
  188.8650  175.8520  137.6990 C   0  0  2  0  0  3  0  0  0  0  0  0
  190.0030  176.8960  140.1440 C   0  0  0  0  0  0  0  0  0  0  0  0
  188.5160  175.8050  136.2000 C   0  0  2  0  0  3  0  0  0  0  0  0
  188.2320  176.9940  138.4730 C   0  0  0  0  0  0  0  0  0  0  0  0
  191.2580  176.3760  134.8070 C   0  0  0  0  0  1  0  0  0  0  0  0
  190.3360  177.5010  141.4330 C   0  0  0  0  0  0  0  0  0  0  0  0
  189.1850  173.3650  135.8720 C   0  0  0  0  0  1  0  0  0  0  0  0
  185.1660  175.4380  134.8120 N   0  0  0  0  0  0  0  0  0  0  0  0
  183.9550  173.9490  136.1830 N   0  0  0  0  0  0  0  0  0  0  0  0
  187.0640  175.5160  135.9170 C   0  0  0  0  0  0  0  0  0  0  0  0
  184.4920  173.0220  136.9080 C   0  0  0  0  0  0  0  0  0  0  0  0
  184.8780  175.0010  135.9900 C   0  0  0  0  0  0  0  0  0  0  0  0
  186.2270  173.2450  137.3460 S   0  0  0  0  0  0  0  0  0  0  0  0
  186.5120  175.8120  134.7860 N   0  0  0  0  0  0  0  0  0  0  0  0
  183.7620  171.8640  137.3150 N   0  0  0  0  0  2  0  0  0  0  0  0
  186.0480  174.9980  136.8870 C   0  0  1  0  0  3  0  0  0  0  0  0
  182.3670  171.6630  136.9590 C   0  0  0  0  0  2  0  0  0  0  0  0
  182.2770  170.6770  135.8150 C   0  0  0  0  0  1  0  0  0  0  0  0
  1  2  1  0  0  0  0
  1 18  1  1  0  0  0
  1 14  1  0  0  0  0
  2 16  1  6  0  0  0
  2  9  1  0  0  0  0
  3  6  2  0  0  0  0
  3  8  1  0  0  0  0
  4 13  2  0  0  0  0
  4  3  1  0  0  0  0
  5 11  1  0  0  0  0
  9  5  2  0  0  0  0
 10 15  2  0  0  0  0
 11 13  1  0  0  0  0
 12  5  1  6  0  0  0
 12 15  1  0  0  0  0
 13 17  1  0  0  0  0
 14 21  1  1  0  0  0
 14 12  1  0  0  0  0
 15  4  1  0  0  0  0
 17  8  2  0  0  0  0
 17  7  1  0  0  0  0
 19 23  2  0  0  0  0
 20 22  2  0  0  0  0
 22 26  1  0  0  0  0
 22 24  1  0  0  0  0
 23 20  1  0  0  0  0
 23 27  1  0  0  0  0
 25 19  1  0  0  0  0
 25 21  2  0  0  0  0
 27 21  1  6  0  0  0
 27 24  1  0  0  0  0
 28 26  1  0  0  0  0
 29 28  1  0  0  0  0
M  END
>  <MODEL>
7

>  <REMARK>
 VINA RESULT:      -7.3      4.670      7.479
  Name = 
  2 active torsions:
  status: ('A' for Active; 'I' for Inactive)
    1  A    between atoms: C_6  and  N_24
    2  A    between atoms: C_9  and  C_22
                            x       y       z     vdW  Elec       q    Type
                         _______ _______ _______ _____ _____    ______ ____

>  <TORSDO>
F 2

$$$$
=
 OpenBabel10232412323D

 29 33  0  0  1  0  0  0  0  0999 V2000
  181.5080  179.5500  139.7360 C   0  0  2  0  0  3  0  0  0  0  0  0
  180.3730  179.4670  138.7180 C   0  0  2  0  0  3  0  0  0  0  0  0
  183.3870  173.8570  137.3420 C   0  0  0  0  0  0  0  0  0  0  0  0
  182.7150  175.0180  137.8930 C   0  0  0  0  0  0  0  0  0  0  0  0
  180.8490  177.0690  138.4620 C   0  0  0  0  0  0  0  0  0  0  0  0
  184.6320  173.6700  137.3060 O   0  0  0  0  0  0  0  0  0  0  0  0
  179.9820  172.8980  136.6310 C   0  0  0  0  0  1  0  0  0  0  0  0
  182.4250  172.9410  136.8240 N   0  0  0  0  0  0  0  0  0  0  0  0
  180.0440  178.0860  138.3560 N   0  0  0  0  0  0  0  0  0  0  0  0
  184.4510  176.5520  138.3910 O   0  0  0  0  0  0  0  0  0  0  0  0
  180.4360  175.7950  137.9420 N   0  0  0  0  0  2  0  0  0  0  0  0
  182.2190  177.1900  139.1300 C   0  0  2  0  0  3  0  0  0  0  0  0
  181.4320  174.7970  137.7090 C   0  0  0  0  0  0  0  0  0  0  0  0
  182.6790  178.6480  139.3120 C   0  0  2  0  0  3  0  0  0  0  0  0
  183.2220  176.2780  138.4460 C   0  0  0  0  0  0  0  0  0  0  0  0
  180.7280  180.2540  137.4690 C   0  0  0  0  0  1  0  0  0  0  0  0
  181.2760  173.5050  137.0410 C   0  0  0  0  0  0  0  0  0  0  0  0
  180.9750  179.2150  141.1230 C   0  0  0  0  0  1  0  0  0  0  0  0
  185.7690  179.5230  141.0360 N   0  0  0  0  0  0  0  0  0  0  0  0
  185.5820  178.8380  143.2850 N   0  0  0  0  0  0  0  0  0  0  0  0
  183.8410  178.8100  140.2590 C   0  0  0  0  0  0  0  0  0  0  0  0
  184.4630  178.7180  143.9230 C   0  0  0  0  0  0  0  0  0  0  0  0
  185.3670  178.6560  141.9010 C   0  0  0  0  0  0  0  0  0  0  0  0
  182.9830  178.4940  142.9160 S   0  0  0  0  0  0  0  0  0  0  0  0
  184.8470  179.5750  139.9870 N   0  0  0  0  0  0  0  0  0  0  0  0
  184.3930  178.7910  145.3470 N   0  0  0  0  0  2  0  0  0  0  0  0
  184.0750  178.0510  141.5280 C   0  0  1  0  0  3  0  0  0  0  0  0
  185.5750  178.9840  146.1710 C   0  0  0  0  0  2  0  0  0  0  0  0
  186.3630  177.6940  146.2310 C   0  0  0  0  0  1  0  0  0  0  0  0
  1 18  1  1  0  0  0
  2 16  1  6  0  0  0
  2  1  1  0  0  0  0
  3  4  1  0  0  0  0
  4 15  1  0  0  0  0
  5 12  1  0  0  0  0
  6  3  2  0  0  0  0
  7 17  1  0  0  0  0
  8 17  2  0  0  0  0
  8  3  1  0  0  0  0
  9  5  2  0  0  0  0
  9  2  1  0  0  0  0
 10 15  2  0  0  0  0
 11  5  1  0  0  0  0
 12 15  1  6  0  0  0
 12 14  1  0  0  0  0
 13  4  2  0  0  0  0
 13 11  1  0  0  0  0
 14  1  1  0  0  0  0
 14 21  1  1  0  0  0
 17 13  1  0  0  0  0
 19 23  2  0  0  0  0
 20 22  2  0  0  0  0
 22 26  1  0  0  0  0
 23 20  1  0  0  0  0
 24 22  1  0  0  0  0
 25 21  2  0  0  0  0
 25 19  1  0  0  0  0
 26 28  1  0  0  0  0
 27 21  1  6  0  0  0
 27 23  1  0  0  0  0
 27 24  1  0  0  0  0
 28 29  1  0  0  0  0
M  END
>  <MODEL>
8

>  <REMARK>
 VINA RESULT:      -7.1      5.725      9.123
  Name = 
  2 active torsions:
  status: ('A' for Active; 'I' for Inactive)
    1  A    between atoms: C_6  and  N_24
    2  A    between atoms: C_9  and  C_22
                            x       y       z     vdW  Elec       q    Type
                         _______ _______ _______ _____ _____    ______ ____

>  <TORSDO>
F 2

$$$$
=
 OpenBabel10232412323D

 29 33  0  0  1  0  0  0  0  0999 V2000
  191.0250  177.2810  142.6380 C   0  0  2  0  0  3  0  0  0  0  0  0
  190.5690  177.8260  143.9900 C   0  0  2  0  0  3  0  0  0  0  0  0
  185.2120  179.1120  140.5120 C   0  0  0  0  0  0  0  0  0  0  0  0
  186.3760  178.5830  141.1960 C   0  0  0  0  0  0  0  0  0  0  0  0
  188.2560  177.7960  143.1610 C   0  0  0  0  0  0  0  0  0  0  0  0
  185.1770  179.5300  139.3240 O   0  0  0  0  0  0  0  0  0  0  0  0
  183.7000  178.4550  143.7220 C   0  0  0  0  0  1  0  0  0  0  0  0
  184.0880  179.1050  141.3910 N   0  0  0  0  0  0  0  0  0  0  0  0
  189.1120  177.8050  144.1400 N   0  0  0  0  0  0  0  0  0  0  0  0
  188.1870  178.9790  139.7200 O   0  0  0  0  0  0  0  0  0  0  0  0
  186.8550  177.9120  143.4590 N   0  0  0  0  0  2  0  0  0  0  0  0
  188.6960  177.6600  141.7040 C   0  0  2  0  0  3  0  0  0  0  0  0
  185.9610  178.2830  142.4070 C   0  0  0  0  0  0  0  0  0  0  0  0
  190.2030  177.9060  141.4990 C   0  0  2  0  0  3  0  0  0  0  0  0
  187.7820  178.4670  140.7980 C   0  0  0  0  0  0  0  0  0  0  0  0
  191.0840  179.2410  144.1860 C   0  0  0  0  0  1  0  0  0  0  0  0
  184.5410  178.6190  142.5060 C   0  0  0  0  0  0  0  0  0  0  0  0
  190.9570  175.7600  142.6520 C   0  0  0  0  0  1  0  0  0  0  0  0
  192.1650  176.8370  138.6200 N   0  0  0  0  0  0  0  0  0  0  0  0
  190.6920  175.9440  137.0090 N   0  0  0  0  0  0  0  0  0  0  0  0
  190.7210  177.4490  140.1590 C   0  0  0  0  0  0  0  0  0  0  0  0
  189.5460  175.4090  137.2820 C   0  0  0  0  0  0  0  0  0  0  0  0
  191.0320  176.8840  138.0070 C   0  0  0  0  0  0  0  0  0  0  0  0
  188.7900  175.8820  138.8500 S   0  0  0  0  0  0  0  0  0  0  0  0
  191.9790  177.2450  139.9440 N   0  0  0  0  0  0  0  0  0  0  0  0
  188.9250  174.4670  136.4090 N   0  0  0  0  0  2  0  0  0  0  0  0
  189.9320  177.3000  138.8960 C   0  0  1  0  0  3  0  0  0  0  0  0
  189.5270  174.0650  135.1490 C   0  0  0  0  0  2  0  0  0  0  0  0
  190.1790  172.7090  135.3120 C   0  0  0  0  0  1  0  0  0  0  0  0
  1 18  1  1  0  0  0
  1  2  1  0  0  0  0
  2  9  1  0  0  0  0
  2 16  1  6  0  0  0
  3  4  1  0  0  0  0
  3  8  1  0  0  0  0
  4 13  2  0  0  0  0
  5 11  1  0  0  0  0
  5  9  2  0  0  0  0
  6  3  2  0  0  0  0
  8 17  2  0  0  0  0
 10 15  2  0  0  0  0
 12 15  1  6  0  0  0
 12  5  1  0  0  0  0
 13 17  1  0  0  0  0
 13 11  1  0  0  0  0
 14 21  1  6  0  0  0
 14 12  1  0  0  0  0
 14  1  1  0  0  0  0
 15  4  1  0  0  0  0
 17  7  1  0  0  0  0
 19 25  1  0  0  0  0
 20 22  2  0  0  0  0
 20 23  1  0  0  0  0
 22 24  1  0  0  0  0
 23 19  2  0  0  0  0
 24 27  1  0  0  0  0
 25 21  2  0  0  0  0
 26 22  1  0  0  0  0
 27 23  1  6  0  0  0
 27 21  1  0  0  0  0
 28 29  1  0  0  0  0
 28 26  1  0  0  0  0
M  END
>  <MODEL>
9

>  <REMARK>
 VINA RESULT:      -6.9      1.813      2.407
  Name = 
  2 active torsions:
  status: ('A' for Active; 'I' for Inactive)
    1  A    between atoms: C_6  and  N_24
    2  A    between atoms: C_9  and  C_22
                            x       y       z     vdW  Elec       q    Type
                         _______ _______ _______ _____ _____    ______ ____

>  <TORSDO>
F 2

$$$$
