=
 OpenBabel10232411583D

 41 44  0  0  1  0  0  0  0  0999 V2000
  187.4910  177.8340  138.5850 C   0  0  0  0  0  0  0  0  0  0  0  0
  189.4470  177.4630  141.0660 C   0  0  0  0  0  0  0  0  0  0  0  0
  188.3160  178.2500  141.5890 C   0  0  0  0  0  3  0  0  0  0  0  0
  188.6110  177.1280  138.7090 C   0  0  0  0  0  3  0  0  0  0  0  0
  189.5420  176.9100  139.8360 C   0  0  0  0  0  0  0  0  0  0  0  0
  187.2260  178.7240  140.9990 C   0  0  0  0  0  3  0  0  0  0  0  0
  186.8650  178.5740  139.6300 N   0  0  0  0  0  2  0  0  0  0  0  0
  190.1280  176.0200  143.0890 C   0  0  2  0  0  3  0  0  0  0  0  0
  190.0420  177.4630  143.5250 C   0  0  2  0  0  3  0  0  0  0  0  0
  190.5040  177.1440  142.1090 C   0  0  2  0  0  3  0  0  0  0  0  0
  188.8310  175.5350  142.9050 O   0  0  0  0  0  1  0  0  0  0  0  0
  191.2500  177.8010  144.3770 C   0  0  0  0  0  2  0  0  0  0  0  0
  191.5060  176.6960  145.3910 C   0  0  0  0  0  2  0  0  0  0  0  0
  192.0320  176.5570  147.7190 O   0  0  0  0  0  1  0  0  0  0  0  0
  191.1560  177.1470  146.8040 C   0  0  2  0  0  3  0  0  0  0  0  0
  189.7120  176.8070  147.1660 C   0  0  0  0  0  2  0  0  0  0  0  0
  188.9590  178.0100  147.4990 N   0  0  0  0  0  0  0  0  0  0  0  0
  189.0360  178.1630  148.8420 O   0  0  0  0  0  1  0  0  0  0  0  0
  187.5630  177.7420  147.1900 C   0  0  0  0  0  2  0  0  0  0  0  0
  187.4050  177.3600  145.7240 C   0  0  0  0  0  2  0  0  0  0  0  0
  185.3400  178.6900  146.1760 C   0  0  0  0  0  1  0  0  0  0  0  0
  186.1840  178.0240  145.1060 C   0  0  0  0  0  2  0  0  0  0  0  0
  186.8190  177.8110  137.2580 C   0  0  0  0  0  2  0  0  0  0  0  0
  185.9960  176.5440  137.1140 C   0  0  0  0  0  2  0  0  0  0  0  0
  185.0560  176.7120  136.0990 O   0  0  0  0  0  1  0  0  0  0  0  0
  190.6260  176.0470  139.5990 O   0  0  0  0  0  0  0  0  0  0  0  0
  191.1930  175.8140  138.3120 C   0  0  0  0  0  2  0  0  0  0  0  0
  192.5090  176.5680  138.1630 C   0  0  0  0  0  2  0  0  0  0  0  0
  193.5090  175.7970  137.3070 C   0  0  0  0  0  2  0  0  0  0  0  0
  193.2500  174.3000  137.3680 C   0  0  0  0  0  2  0  0  0  0  0  0
  194.5390  173.5550  137.6540 C   0  0  0  0  0  2  0  0  0  0  0  0
  195.5700  173.8980  136.5990 C   0  0  0  0  0  2  0  0  0  0  0  0
  196.8170  173.4130  136.9960 O   0  0  0  0  0  0  0  0  0  0  0  0
  197.9710  174.7270  138.5040 N   0  0  0  0  0  0  0  0  0  0  0  0
  199.0030  174.4080  137.4270 C   0  0  2  0  0  0  0  0  0  0  0  0
  198.5810  174.9890  140.8470 O   0  0  0  0  0  1  0  0  0  0  0  0
  196.4040  175.1870  140.1570 O   0  0  0  0  0  0  0  0  0  0  0  0
  197.6320  174.5600  137.0930 C   0  0  1  0  0  3  0  0  0  0  0  0
  199.5350  173.1930  137.9620 O   0  0  0  0  0  0  0  0  0  0  0  0
  197.6080  174.9770  139.8560 C   0  0  0  0  0  0  0  0  0  0  0  0
  199.2970  173.1550  136.6190 C   0  0  0  0  0  2  0  0  0  0  0  0
  1  4  2  0  0  0  0
  1  7  1  0  0  0  0
  2  3  1  0  0  0  0
  4  5  1  0  0  0  0
  5  2  2  0  0  0  0
  6  3  2  0  0  0  0
  7  6  1  0  0  0  0
  8 11  1  6  0  0  0
  8  9  1  0  0  0  0
  9 12  1  1  0  0  0
 10  2  1  6  0  0  0
 10  8  1  0  0  0  0
 10  9  1  0  0  0  0
 12 13  1  0  0  0  0
 13 15  1  0  0  0  0
 15 16  1  0  0  0  0
 15 14  1  1  0  0  0
 16 17  1  0  0  0  0
 17 18  1  0  0  0  0
 19 17  1  0  0  0  0
 20 19  1  0  0  0  0
 22 20  1  0  0  0  0
 22 21  1  0  0  0  0
 23  1  1  0  0  0  0
 24 23  1  0  0  0  0
 25 24  1  0  0  0  0
 26  5  1  0  0  0  0
 27 26  1  0  0  0  0
 28 27  1  0  0  0  0
 29 30  1  0  0  0  0
 29 28  1  0  0  0  0
 30 31  1  0  0  0  0
 32 33  1  0  0  0  0
 32 31  1  0  0  0  0
 34 40  1  0  0  0  0
 35 41  1  6  0  0  0
 35 39  1  0  0  0  0
 35 34  1  0  0  0  0
 38 33  1  1  0  0  0
 38 35  1  0  0  0  0
 38 34  1  0  0  0  0
 40 37  2  0  0  0  0
 40 36  1  0  0  0  0
 41 39  1  0  0  0  0
M  END
>  <MODEL>
1

>  <REMARK>
 VINA RESULT:      -7.1      0.000      0.000
  Name = 
  20 active torsions:
  status: ('A' for Active; 'I' for Inactive)
    1  A    between atoms: C_1  and  C_22
    2  A    between atoms: C_1  and  O_28
    3  A    between atoms: C_4  and  C_12
    4  A    between atoms: C_4  and  C_22
    5  A    between atoms: C_5  and  C_12
    6  A    between atoms: C_5  and  C_25
    7  A    between atoms: C_6  and  C_30
    8  A    between atoms: C_7  and  C_14
    9  A    between atoms: C_7  and  C_40
   10  A    between atoms: C_9  and  C_30
   11  A    between atoms: C_10  and  C_18
   12  A    between atoms: C_11  and  N_34
   13  A    between atoms: C_11  and  C_40
   14  A    between atoms: C_14  and  C_17
   15  A    between atoms: O_16  and  C_25
   16  A    between atoms: O_16  and  C_27
   17  A    between atoms: C_20  and  O_28
   18  A    between atoms: C_26  and  C_35
   19  A    between atoms: C_26  and  C_39
   20  A    between atoms: N_34  and  C_39
                            x       y       z     vdW  Elec       q    Type
                         _______ _______ _______ _____ _____    ______ ____

>  <TORSDO>
F 20

$$$$
=
 OpenBabel10232411583D

 41 44  0  0  1  0  0  0  0  0999 V2000
  187.3050  177.9320  138.6100 C   0  0  0  0  0  0  0  0  0  0  0  0
  189.2570  177.5480  141.0930 C   0  0  0  0  0  0  0  0  0  0  0  0
  188.0860  178.2590  141.6360 C   0  0  0  0  0  3  0  0  0  0  0  0
  188.4550  177.2730  138.7160 C   0  0  0  0  0  3  0  0  0  0  0  0
  189.3870  177.0530  139.8410 C   0  0  0  0  0  0  0  0  0  0  0  0
  186.9800  178.7070  141.0560 C   0  0  0  0  0  3  0  0  0  0  0  0
  186.6370  178.5980  139.6790 N   0  0  0  0  0  2  0  0  0  0  0  0
  189.9470  176.1200  143.1240 C   0  0  2  0  0  3  0  0  0  0  0  0
  189.8660  177.5680  143.5480 C   0  0  2  0  0  3  0  0  0  0  0  0
  190.3190  177.2360  142.1310 C   0  0  2  0  0  3  0  0  0  0  0  0
  188.6470  175.6370  142.9510 O   0  0  0  0  0  1  0  0  0  0  0  0
  191.0800  177.9100  144.3900 C   0  0  0  0  0  2  0  0  0  0  0  0
  191.4900  176.7130  145.2350 C   0  0  0  0  0  2  0  0  0  0  0  0
  192.1820  176.2290  147.4720 O   0  0  0  0  0  1  0  0  0  0  0  0
  191.2770  176.9830  146.7200 C   0  0  2  0  0  3  0  0  0  0  0  0
  189.8470  176.6690  147.1530 C   0  0  0  0  0  2  0  0  0  0  0  0
  189.0630  177.8910  147.2940 N   0  0  0  0  0  0  0  0  0  0  0  0
  189.2670  178.3440  148.5530 O   0  0  0  0  0  1  0  0  0  0  0  0
  187.6610  177.5130  147.2100 C   0  0  0  0  0  2  0  0  0  0  0  0
  187.1830  177.5540  145.7650 C   0  0  0  0  0  2  0  0  0  0  0  0
  185.0230  178.3890  146.7010 C   0  0  0  0  0  1  0  0  0  0  0  0
  186.0400  178.5420  145.5860 C   0  0  0  0  0  2  0  0  0  0  0  0
  186.6450  177.9330  137.2770 C   0  0  0  0  0  2  0  0  0  0  0  0
  187.4580  177.1110  136.2930 C   0  0  0  0  0  2  0  0  0  0  0  0
  187.8030  177.9030  135.1990 O   0  0  0  0  0  1  0  0  0  0  0  0
  190.5120  176.2520  139.5800 O   0  0  0  0  0  0  0  0  0  0  0  0
  191.3550  176.4080  138.4410 C   0  0  0  0  0  2  0  0  0  0  0  0
  191.7620  175.0480  137.8860 C   0  0  0  0  0  2  0  0  0  0  0  0
  191.4570  174.9320  136.3960 C   0  0  0  0  0  2  0  0  0  0  0  0
  192.2370  173.7930  135.7590 C   0  0  0  0  0  2  0  0  0  0  0  0
  193.0720  174.3110  134.6040 C   0  0  0  0  0  2  0  0  0  0  0  0
  194.5270  174.3750  135.0170 C   0  0  0  0  0  2  0  0  0  0  0  0
  194.6970  173.6870  136.2190 O   0  0  0  0  0  0  0  0  0  0  0  0
  196.9140  173.8010  136.8540 N   0  0  0  0  0  0  0  0  0  0  0  0
  196.5020  172.3760  137.2100 C   0  0  2  0  0  0  0  0  0  0  0  0
  198.5390  175.0470  138.1720 O   0  0  0  0  0  1  0  0  0  0  0  0
  197.5310  175.9800  136.3360 O   0  0  0  0  0  0  0  0  0  0  0  0
  195.9390  173.0320  136.0840 C   0  0  1  0  0  3  0  0  0  0  0  0
  196.0290  172.5940  138.5420 O   0  0  0  0  0  0  0  0  0  0  0  0
  197.6630  174.9860  137.0960 C   0  0  0  0  0  0  0  0  0  0  0  0
  195.2260  171.7860  137.7910 C   0  0  0  0  0  2  0  0  0  0  0  0
  1  4  2  0  0  0  0
  1  7  1  0  0  0  0
  2  3  1  0  0  0  0
  4  5  1  0  0  0  0
  5  2  2  0  0  0  0
  6  3  2  0  0  0  0
  7  6  1  0  0  0  0
  8 11  1  6  0  0  0
  8  9  1  0  0  0  0
  9 12  1  1  0  0  0
 10  2  1  6  0  0  0
 10  8  1  0  0  0  0
 10  9  1  0  0  0  0
 12 13  1  0  0  0  0
 13 15  1  0  0  0  0
 15 16  1  0  0  0  0
 15 14  1  1  0  0  0
 16 17  1  0  0  0  0
 17 18  1  0  0  0  0
 19 17  1  0  0  0  0
 20 19  1  0  0  0  0
 22 20  1  0  0  0  0
 22 21  1  0  0  0  0
 23  1  1  0  0  0  0
 24 23  1  0  0  0  0
 25 24  1  0  0  0  0
 26  5  1  0  0  0  0
 27 26  1  0  0  0  0
 28 27  1  0  0  0  0
 29 28  1  0  0  0  0
 30 29  1  0  0  0  0
 31 32  1  0  0  0  0
 31 30  1  0  0  0  0
 32 33  1  0  0  0  0
 34 40  1  0  0  0  0
 34 35  1  0  0  0  0
 35 41  1  6  0  0  0
 35 39  1  0  0  0  0
 37 40  2  0  0  0  0
 38 33  1  1  0  0  0
 38 34  1  0  0  0  0
 38 35  1  0  0  0  0
 40 36  1  0  0  0  0
 41 39  1  0  0  0  0
M  END
>  <MODEL>
2

>  <REMARK>
 VINA RESULT:      -7.1      1.334      1.813
  Name = 
  20 active torsions:
  status: ('A' for Active; 'I' for Inactive)
    1  A    between atoms: C_1  and  C_22
    2  A    between atoms: C_1  and  O_28
    3  A    between atoms: C_4  and  C_12
    4  A    between atoms: C_4  and  C_22
    5  A    between atoms: C_5  and  C_12
    6  A    between atoms: C_5  and  C_25
    7  A    between atoms: C_6  and  C_30
    8  A    between atoms: C_7  and  C_14
    9  A    between atoms: C_7  and  C_40
   10  A    between atoms: C_9  and  C_30
   11  A    between atoms: C_10  and  C_18
   12  A    between atoms: C_11  and  N_34
   13  A    between atoms: C_11  and  C_40
   14  A    between atoms: C_14  and  C_17
   15  A    between atoms: O_16  and  C_25
   16  A    between atoms: O_16  and  C_27
   17  A    between atoms: C_20  and  O_28
   18  A    between atoms: C_26  and  C_35
   19  A    between atoms: C_26  and  C_39
   20  A    between atoms: N_34  and  C_39
                            x       y       z     vdW  Elec       q    Type
                         _______ _______ _______ _____ _____    ______ ____

>  <TORSDO>
F 20

$$$$
=
 OpenBabel10232411583D

 41 44  0  0  1  0  0  0  0  0999 V2000
  183.0160  178.8370  143.9240 C   0  0  0  0  0  0  0  0  0  0  0  0
  182.7800  178.5770  140.7620 C   0  0  0  0  0  0  0  0  0  0  0  0
  181.3890  178.6890  141.2390 C   0  0  0  0  0  3  0  0  0  0  0  0
  183.9560  178.8070  142.9830 C   0  0  0  0  0  3  0  0  0  0  0  0
  183.8990  178.7040  141.5100 C   0  0  0  0  0  0  0  0  0  0  0  0
  180.8830  178.7880  142.4610 C   0  0  0  0  0  3  0  0  0  0  0  0
  181.6110  178.8160  143.6840 N   0  0  0  0  0  2  0  0  0  0  0  0
  182.3090  177.1820  138.6470 C   0  0  2  0  0  3  0  0  0  0  0  0
  183.8040  177.3180  138.8210 C   0  0  2  0  0  3  0  0  0  0  0  0
  182.9010  178.4670  139.2520 C   0  0  2  0  0  3  0  0  0  0  0  0
  181.8310  176.2870  139.6070 O   0  0  0  0  0  1  0  0  0  0  0  0
  184.4340  177.6560  137.4840 C   0  0  0  0  0  2  0  0  0  0  0  0
  184.7260  176.3850  136.7010 C   0  0  0  0  0  2  0  0  0  0  0  0
  186.9070  175.7700  137.4630 O   0  0  0  0  0  1  0  0  0  0  0  0
  186.2070  176.2700  136.3610 C   0  0  2  0  0  3  0  0  0  0  0  0
  186.7950  177.6110  135.9300 C   0  0  0  0  0  2  0  0  0  0  0  0
  187.8040  178.0690  136.8770 N   0  0  0  0  0  0  0  0  0  0  0  0
  187.5430  179.3740  137.1260 O   0  0  0  0  0  1  0  0  0  0  0  0
  189.0870  178.0240  136.1940 C   0  0  0  0  0  2  0  0  0  0  0  0
  190.0430  177.0850  136.9170 C   0  0  0  0  0  2  0  0  0  0  0  0
  190.9000  176.3190  139.1340 C   0  0  0  0  0  1  0  0  0  0  0  0
  190.0710  177.3640  138.4120 C   0  0  0  0  0  2  0  0  0  0  0  0
  183.4740  178.9460  145.3350 C   0  0  0  0  0  2  0  0  0  0  0  0
  184.9570  178.6330  145.4270 C   0  0  0  0  0  2  0  0  0  0  0  0
  185.5880  179.5970  146.2100 O   0  0  0  0  0  1  0  0  0  0  0  0
  185.1280  178.7420  140.8290 O   0  0  0  0  0  0  0  0  0  0  0  0
  186.3690  179.0840  141.4410 C   0  0  0  0  0  2  0  0  0  0  0  0
  187.5100  178.2890  140.8170 C   0  0  0  0  0  2  0  0  0  0  0  0
  188.6020  177.9760  141.8340 C   0  0  0  0  0  2  0  0  0  0  0  0
  188.3440  176.6520  142.5350 C   0  0  0  0  0  2  0  0  0  0  0  0
  188.0920  176.8800  144.0130 C   0  0  0  0  0  2  0  0  0  0  0  0
  189.0220  177.9590  144.5270 C   0  0  0  0  0  2  0  0  0  0  0  0
  188.6740  178.2830  145.8400 O   0  0  0  0  0  0  0  0  0  0  0  0
  190.0310  176.8550  147.0440 N   0  0  0  0  0  0  0  0  0  0  0  0
  188.8100  177.0440  147.9380 C   0  0  2  0  0  0  0  0  0  0  0  0
  192.2670  176.5410  147.9560 O   0  0  0  0  0  1  0  0  0  0  0  0
  191.9020  176.5910  145.6930 O   0  0  0  0  0  0  0  0  0  0  0  0
  188.6800  177.0500  146.5250 C   0  0  1  0  0  3  0  0  0  0  0  0
  189.2330  178.1930  148.6760 O   0  0  0  0  0  0  0  0  0  0  0  0
  191.4270  176.6580  146.8560 C   0  0  0  0  0  0  0  0  0  0  0  0
  187.9370  178.2500  148.2510 C   0  0  0  0  0  2  0  0  0  0  0  0
  1 23  1  0  0  0  0
  2  3  1  0  0  0  0
  2  5  2  0  0  0  0
  3  6  2  0  0  0  0
  4  1  2  0  0  0  0
  5  4  1  0  0  0  0
  6  7  1  0  0  0  0
  7  1  1  0  0  0  0
  8  9  1  0  0  0  0
  8 10  1  0  0  0  0
  8 11  1  1  0  0  0
  9 12  1  6  0  0  0
  9 10  1  0  0  0  0
 10  2  1  1  0  0  0
 13 12  1  0  0  0  0
 15 13  1  0  0  0  0
 15 14  1  1  0  0  0
 16 15  1  0  0  0  0
 16 17  1  0  0  0  0
 17 18  1  0  0  0  0
 19 17  1  0  0  0  0
 19 20  1  0  0  0  0
 20 22  1  0  0  0  0
 22 21  1  0  0  0  0
 23 24  1  0  0  0  0
 24 25  1  0  0  0  0
 26 27  1  0  0  0  0
 26  5  1  0  0  0  0
 28 27  1  0  0  0  0
 28 29  1  0  0  0  0
 29 30  1  0  0  0  0
 30 31  1  0  0  0  0
 31 32  1  0  0  0  0
 32 33  1  0  0  0  0
 34 35  1  0  0  0  0
 35 41  1  1  0  0  0
 35 39  1  0  0  0  0
 37 40  2  0  0  0  0
 38 33  1  6  0  0  0
 38 34  1  0  0  0  0
 38 35  1  0  0  0  0
 40 34  1  0  0  0  0
 40 36  1  0  0  0  0
 41 39  1  0  0  0  0
M  END
>  <MODEL>
3

>  <REMARK>
 VINA RESULT:      -6.9      4.715      9.863
  Name = 
  20 active torsions:
  status: ('A' for Active; 'I' for Inactive)
    1  A    between atoms: C_1  and  C_22
    2  A    between atoms: C_1  and  O_28
    3  A    between atoms: C_4  and  C_12
    4  A    between atoms: C_4  and  C_22
    5  A    between atoms: C_5  and  C_12
    6  A    between atoms: C_5  and  C_25
    7  A    between atoms: C_6  and  C_30
    8  A    between atoms: C_7  and  C_14
    9  A    between atoms: C_7  and  C_40
   10  A    between atoms: C_9  and  C_30
   11  A    between atoms: C_10  and  C_18
   12  A    between atoms: C_11  and  N_34
   13  A    between atoms: C_11  and  C_40
   14  A    between atoms: C_14  and  C_17
   15  A    between atoms: O_16  and  C_25
   16  A    between atoms: O_16  and  C_27
   17  A    between atoms: C_20  and  O_28
   18  A    between atoms: C_26  and  C_35
   19  A    between atoms: C_26  and  C_39
   20  A    between atoms: N_34  and  C_39
                            x       y       z     vdW  Elec       q    Type
                         _______ _______ _______ _____ _____    ______ ____

>  <TORSDO>
F 20

$$$$
=
 OpenBabel10232411583D

 41 44  0  0  1  0  0  0  0  0999 V2000
  191.7870  175.9640  146.5420 C   0  0  0  0  0  0  0  0  0  0  0  0
  190.0640  177.1780  144.1590 C   0  0  0  0  0  0  0  0  0  0  0  0
  190.9470  176.1830  143.5220 C   0  0  0  0  0  3  0  0  0  0  0  0
  190.7730  176.8240  146.5550 C   0  0  0  0  0  2  0  0  0  0  0  0
  189.9340  177.4040  145.4850 C   0  0  0  0  0  0  0  0  0  0  0  0
  191.8920  175.3980  144.0200 C   0  0  0  0  0  3  0  0  0  0  0  0
  192.3060  175.3200  145.3800 N   0  0  0  0  0  0  0  0  0  0  0  0
  187.8670  177.0640  142.8170 C   0  0  2  0  0  3  0  0  0  0  0  0
  189.0260  177.1470  141.8520 C   0  0  2  0  0  3  0  0  0  0  0  0
  189.1240  177.8710  143.1890 C   0  0  2  0  0  3  0  0  0  0  0  0
  187.8460  175.7830  143.3750 O   0  0  0  0  0  1  0  0  0  0  0  0
  188.7000  178.1530  140.7650 C   0  0  0  0  0  2  0  0  0  0  0  0
  189.5230  177.8690  139.5180 C   0  0  0  0  0  2  0  0  0  0  0  0
  187.4640  178.5990  138.5480 O   0  0  0  0  0  1  0  0  0  0  0  0
  188.6710  177.9570  138.2580 C   0  0  2  0  0  3  0  0  0  0  0  0
  188.4010  176.5790  137.6580 C   0  0  0  0  0  2  0  0  0  0  0  0
  188.7260  176.5540  136.2370 N   0  0  0  0  0  0  0  0  0  0  0  0
  187.8790  175.6720  135.6560 O   0  0  0  0  0  1  0  0  0  0  0  0
  190.0610  175.9930  136.1110 C   0  0  0  0  0  2  0  0  0  0  0  0
  190.1300  174.6250  136.7780 C   0  0  0  0  0  2  0  0  0  0  0  0
  192.0660  175.5810  138.0320 C   0  0  0  0  0  1  0  0  0  0  0  0
  191.5170  174.3500  137.3370 C   0  0  0  0  0  2  0  0  0  0  0  0
  192.3950  175.6140  147.8540 C   0  0  0  0  0  2  0  0  0  0  0  0
  192.3570  176.8140  148.7820 C   0  0  0  0  0  2  0  0  0  0  0  0
  193.5780  176.9310  149.4420 O   0  0  0  0  0  1  0  0  0  0  0  0
  188.9060  178.2720  145.8920 O   0  0  0  0  0  0  0  0  0  0  0  0
  187.7560  177.8580  146.6260 C   0  0  0  0  0  2  0  0  0  0  0  0
  186.6140  178.8480  146.4310 C   0  0  0  0  0  2  0  0  0  0  0  0
  185.3020  178.1390  146.1060 C   0  0  0  0  0  2  0  0  0  0  0  0
  184.7950  178.5200  144.7240 C   0  0  0  0  0  2  0  0  0  0  0  0
  183.4020  179.1120  144.8190 C   0  0  0  0  0  2  0  0  0  0  0  0
  182.6000  178.7250  143.5950 C   0  0  0  0  0  2  0  0  0  0  0  0
  183.1320  179.3630  142.4730 O   0  0  0  0  0  0  0  0  0  0  0  0
  182.5800  178.9680  140.2660 N   0  0  0  0  0  0  0  0  0  0  0  0
  184.0320  178.5120  140.3700 C   0  0  2  0  0  0  0  0  0  0  0  0
  181.6770  179.9670  138.2380 O   0  0  0  0  0  0  0  0  0  0  0  0
  180.3770  179.6880  140.1050 O   0  0  0  0  0  1  0  0  0  0  0  0
  183.1490  178.3700  141.4720 C   0  0  1  0  0  3  0  0  0  0  0  0
  184.6880  179.7460  140.0650 O   0  0  0  0  0  0  0  0  0  0  0  0
  181.4980  179.5500  139.5500 C   0  0  0  0  0  0  0  0  0  0  0  0
  185.2360  179.0670  141.1150 C   0  0  0  0  0  2  0  0  0  0  0  0
  1  4  1  0  0  0  0
  1 23  1  0  0  0  0
  2  5  2  0  0  0  0
  3  6  2  0  0  0  0
  3  2  1  0  0  0  0
  5 26  1  0  0  0  0
  5  4  1  0  0  0  0
  6  7  1  0  0  0  0
  7  1  2  0  0  0  0
  8 10  1  0  0  0  0
  8 11  1  1  0  0  0
  9 12  1  6  0  0  0
  9  8  1  0  0  0  0
  9 10  1  0  0  0  0
 10  2  1  1  0  0  0
 13 12  1  0  0  0  0
 15 14  1  1  0  0  0
 15 13  1  0  0  0  0
 16 15  1  0  0  0  0
 17 16  1  0  0  0  0
 18 17  1  0  0  0  0
 19 17  1  0  0  0  0
 19 20  1  0  0  0  0
 20 22  1  0  0  0  0
 22 21  1  0  0  0  0
 23 24  1  0  0  0  0
 24 25  1  0  0  0  0
 26 27  1  0  0  0  0
 28 27  1  0  0  0  0
 29 28  1  0  0  0  0
 30 31  1  0  0  0  0
 30 29  1  0  0  0  0
 32 31  1  0  0  0  0
 33 32  1  0  0  0  0
 34 35  1  0  0  0  0
 34 38  1  0  0  0  0
 35 41  1  6  0  0  0
 35 38  1  0  0  0  0
 36 40  2  0  0  0  0
 38 33  1  1  0  0  0
 39 35  1  0  0  0  0
 39 41  1  0  0  0  0
 40 37  1  0  0  0  0
 40 34  1  0  0  0  0
M  END
>  <MODEL>
4

>  <REMARK>
 VINA RESULT:      -6.8      4.493     11.473
  Name = 
  20 active torsions:
  status: ('A' for Active; 'I' for Inactive)
    1  A    between atoms: C_1  and  C_22
    2  A    between atoms: C_1  and  O_28
    3  A    between atoms: C_4  and  C_12
    4  A    between atoms: C_4  and  C_22
    5  A    between atoms: C_5  and  C_12
    6  A    between atoms: C_5  and  C_25
    7  A    between atoms: C_6  and  C_30
    8  A    between atoms: C_7  and  C_14
    9  A    between atoms: C_7  and  C_40
   10  A    between atoms: C_9  and  C_30
   11  A    between atoms: C_10  and  C_18
   12  A    between atoms: C_11  and  N_34
   13  A    between atoms: C_11  and  C_40
   14  A    between atoms: C_14  and  C_17
   15  A    between atoms: O_16  and  C_25
   16  A    between atoms: O_16  and  C_27
   17  A    between atoms: C_20  and  O_28
   18  A    between atoms: C_26  and  C_35
   19  A    between atoms: C_26  and  C_39
   20  A    between atoms: N_34  and  C_39
                            x       y       z     vdW  Elec       q    Type
                         _______ _______ _______ _____ _____    ______ ____

>  <TORSDO>
F 20

$$$$
=
 OpenBabel10232411583D

 41 44  0  0  1  0  0  0  0  0999 V2000
  183.2890  178.8470  143.7480 C   0  0  0  0  0  0  0  0  0  0  0  0
  183.4650  178.7180  140.5740 C   0  0  0  0  0  0  0  0  0  0  0  0
  182.0240  178.8010  140.8720 C   0  0  0  0  0  3  0  0  0  0  0  0
  184.3420  178.8610  142.9360 C   0  0  0  0  0  3  0  0  0  0  0  0
  184.4770  178.8200  141.4650 C   0  0  0  0  0  0  0  0  0  0  0  0
  181.3630  178.8470  142.0210 C   0  0  0  0  0  3  0  0  0  0  0  0
  181.9260  178.8280  143.3280 N   0  0  0  0  0  2  0  0  0  0  0  0
  183.4480  177.3390  138.3980 C   0  0  2  0  0  3  0  0  0  0  0  0
  184.8780  177.6670  138.7570 C   0  0  2  0  0  3  0  0  0  0  0  0
  183.7810  178.6720  139.0900 C   0  0  2  0  0  3  0  0  0  0  0  0
  182.9840  176.3580  139.2790 O   0  0  0  0  0  1  0  0  0  0  0  0
  185.6120  178.1280  137.5130 C   0  0  0  0  0  2  0  0  0  0  0  0
  185.6060  177.0310  136.4590 C   0  0  0  0  0  2  0  0  0  0  0  0
  186.2350  178.0890  134.4100 O   0  0  0  0  0  1  0  0  0  0  0  0
  186.7030  177.2490  135.4240 C   0  0  2  0  0  3  0  0  0  0  0  0
  187.1900  175.9300  134.8290 C   0  0  0  0  0  2  0  0  0  0  0  0
  188.6460  175.8470  134.8620 N   0  0  0  0  0  0  0  0  0  0  0  0
  188.9650  174.9230  135.7980 O   0  0  0  0  0  1  0  0  0  0  0  0
  189.1370  177.1240  135.3530 C   0  0  0  0  0  2  0  0  0  0  0  0
  190.1030  176.9140  136.5110 C   0  0  0  0  0  2  0  0  0  0  0  0
  189.1400  179.0170  137.4530 C   0  0  0  0  0  1  0  0  0  0  0  0
  189.6190  177.6140  137.7720 C   0  0  0  0  0  2  0  0  0  0  0  0
  183.5600  178.8990  145.2100 C   0  0  0  0  0  2  0  0  0  0  0  0
  185.0290  178.6260  145.4770 C   0  0  0  0  0  2  0  0  0  0  0  0
  185.5240  179.5750  146.3700 O   0  0  0  0  0  1  0  0  0  0  0  0
  185.7830  178.8930  140.9510 O   0  0  0  0  0  0  0  0  0  0  0  0
  186.9610  178.7550  141.7420 C   0  0  0  0  0  2  0  0  0  0  0  0
  188.0390  178.0040  140.9680 C   0  0  0  0  0  2  0  0  0  0  0  0
  189.3460  177.9290  141.7510 C   0  0  0  0  0  2  0  0  0  0  0  0
  190.0890  176.6340  141.4640 C   0  0  0  0  0  2  0  0  0  0  0  0
  190.3870  175.9020  142.7590 C   0  0  0  0  0  2  0  0  0  0  0  0
  191.3950  176.6910  143.5680 C   0  0  0  0  0  2  0  0  0  0  0  0
  191.5730  176.0780  144.8090 O   0  0  0  0  0  0  0  0  0  0  0  0
  190.1800  177.1470  146.3090 N   0  0  0  0  0  0  0  0  0  0  0  0
  191.4310  176.8370  147.1250 C   0  0  2  0  0  0  0  0  0  0  0  0
  187.9550  177.1460  147.2990 O   0  0  0  0  0  1  0  0  0  0  0  0
  188.2650  177.5940  145.0720 O   0  0  0  0  0  0  0  0  0  0  0  0
  191.5260  177.1360  145.7410 C   0  0  1  0  0  3  0  0  0  0  0  0
  191.0810  175.5370  147.6080 O   0  0  0  0  0  0  0  0  0  0  0  0
  188.7720  177.3070  146.1870 C   0  0  0  0  0  0  0  0  0  0  0  0
  192.3670  175.6380  147.1620 C   0  0  0  0  0  2  0  0  0  0  0  0
  1 23  1  0  0  0  0
  2  3  1  0  0  0  0
  2  5  2  0  0  0  0
  3  6  2  0  0  0  0
  4  1  2  0  0  0  0
  5  4  1  0  0  0  0
  6  7  1  0  0  0  0
  7  1  1  0  0  0  0
  8  9  1  0  0  0  0
  8 10  1  0  0  0  0
  8 11  1  1  0  0  0
  9 12  1  6  0  0  0
  9 10  1  0  0  0  0
 10  2  1  1  0  0  0
 13 12  1  0  0  0  0
 15 14  1  6  0  0  0
 15 13  1  0  0  0  0
 16 17  1  0  0  0  0
 16 15  1  0  0  0  0
 17 19  1  0  0  0  0
 17 18  1  0  0  0  0
 19 20  1  0  0  0  0
 20 22  1  0  0  0  0
 21 22  1  0  0  0  0
 23 24  1  0  0  0  0
 24 25  1  0  0  0  0
 26  5  1  0  0  0  0
 26 27  1  0  0  0  0
 28 27  1  0  0  0  0
 28 29  1  0  0  0  0
 30 29  1  0  0  0  0
 30 31  1  0  0  0  0
 31 32  1  0  0  0  0
 32 33  1  0  0  0  0
 34 35  1  0  0  0  0
 35 41  1  1  0  0  0
 35 39  1  0  0  0  0
 37 40  2  0  0  0  0
 38 33  1  6  0  0  0
 38 34  1  0  0  0  0
 38 35  1  0  0  0  0
 40 34  1  0  0  0  0
 40 36  1  0  0  0  0
 41 39  1  0  0  0  0
M  END
>  <MODEL>
5

>  <REMARK>
 VINA RESULT:      -6.6      4.746      9.523
  Name = 
  20 active torsions:
  status: ('A' for Active; 'I' for Inactive)
    1  A    between atoms: C_1  and  C_22
    2  A    between atoms: C_1  and  O_28
    3  A    between atoms: C_4  and  C_12
    4  A    between atoms: C_4  and  C_22
    5  A    between atoms: C_5  and  C_12
    6  A    between atoms: C_5  and  C_25
    7  A    between atoms: C_6  and  C_30
    8  A    between atoms: C_7  and  C_14
    9  A    between atoms: C_7  and  C_40
   10  A    between atoms: C_9  and  C_30
   11  A    between atoms: C_10  and  C_18
   12  A    between atoms: C_11  and  N_34
   13  A    between atoms: C_11  and  C_40
   14  A    between atoms: C_14  and  C_17
   15  A    between atoms: O_16  and  C_25
   16  A    between atoms: O_16  and  C_27
   17  A    between atoms: C_20  and  O_28
   18  A    between atoms: C_26  and  C_35
   19  A    between atoms: C_26  and  C_39
   20  A    between atoms: N_34  and  C_39
                            x       y       z     vdW  Elec       q    Type
                         _______ _______ _______ _____ _____    ______ ____

>  <TORSDO>
F 20

$$$$
=
 OpenBabel10232411583D

 41 44  0  0  1  0  0  0  0  0999 V2000
  188.3600  177.7120  146.8470 C   0  0  0  0  0  0  0  0  0  0  0  0
  185.8160  178.1260  144.9820 C   0  0  0  0  0  0  0  0  0  0  0  0
  185.3850  178.5750  146.3180 C   0  0  0  0  0  3  0  0  0  0  0  0
  188.2140  177.5650  145.5340 C   0  0  0  0  0  3  0  0  0  0  0  0
  187.0660  177.7580  144.6220 C   0  0  0  0  0  0  0  0  0  0  0  0
  186.0160  178.6010  147.4850 C   0  0  0  0  0  3  0  0  0  0  0  0
  187.3500  178.1750  147.7410 N   0  0  0  0  0  2  0  0  0  0  0  0
  184.5530  179.6910  143.3700 C   0  0  2  0  0  3  0  0  0  0  0  0
  183.5730  179.1260  144.3720 C   0  0  2  0  0  3  0  0  0  0  0  0
  184.7440  178.2640  143.9150 C   0  0  2  0  0  3  0  0  0  0  0  0
  185.3480  180.6420  144.0160 O   0  0  0  0  0  1  0  0  0  0  0  0
  182.3180  178.6820  143.6460 C   0  0  0  0  0  2  0  0  0  0  0  0
  182.5420  178.7010  142.1420 C   0  0  0  0  0  2  0  0  0  0  0  0
  180.2160  178.2050  141.9000 O   0  0  0  0  0  1  0  0  0  0  0  0
  181.2490  178.9970  141.3910 C   0  0  2  0  0  3  0  0  0  0  0  0
  181.3990  178.7620  139.8900 C   0  0  0  0  0  2  0  0  0  0  0  0
  182.4700  179.5830  139.3360 N   0  0  0  0  0  0  0  0  0  0  0  0
  181.8880  180.4740  138.4990 O   0  0  0  0  0  1  0  0  0  0  0  0
  183.2940  178.7130  138.5110 C   0  0  0  0  0  2  0  0  0  0  0  0
  184.7120  178.6430  139.0610 C   0  0  0  0  0  2  0  0  0  0  0  0
  185.0590  177.0000  137.2120 C   0  0  0  0  0  1  0  0  0  0  0  0
  185.6870  178.1230  138.0150 C   0  0  0  0  0  2  0  0  0  0  0  0
  189.7000  177.4110  147.4180 C   0  0  0  0  0  2  0  0  0  0  0  0
  190.6780  177.0810  146.3040 C   0  0  0  0  0  2  0  0  0  0  0  0
  191.9090  176.7290  146.8550 O   0  0  0  0  0  1  0  0  0  0  0  0
  187.3040  177.5360  143.2550 O   0  0  0  0  0  0  0  0  0  0  0  0
  188.5590  177.1220  142.7210 C   0  0  0  0  0  2  0  0  0  0  0  0
  188.5130  177.1080  141.1980 C   0  0  0  0  0  2  0  0  0  0  0  0
  188.5680  178.5180  140.6190 C   0  0  0  0  0  2  0  0  0  0  0  0
  189.0580  178.5070  139.1790 C   0  0  0  0  0  2  0  0  0  0  0  0
  189.6970  177.1720  138.8520 C   0  0  0  0  0  2  0  0  0  0  0  0
  189.9790  177.0930  137.3670 C   0  0  0  0  0  2  0  0  0  0  0  0
  190.4030  175.8020  137.0450 O   0  0  0  0  0  0  0  0  0  0  0  0
  192.7080  175.6930  136.9910 N   0  0  0  0  0  0  0  0  0  0  0  0
  192.2720  174.8640  135.7880 C   0  0  2  0  0  0  0  0  0  0  0  0
  194.7000  175.1540  138.2840 O   0  0  0  0  0  0  0  0  0  0  0  0
  193.3690  176.9350  138.8400 O   0  0  0  0  0  1  0  0  0  0  0  0
  191.5160  175.9920  136.2010 C   0  0  1  0  0  3  0  0  0  0  0  0
  192.1500  173.5850  136.4150 O   0  0  0  0  0  0  0  0  0  0  0  0
  193.5920  175.9630  138.0720 C   0  0  0  0  0  0  0  0  0  0  0  0
  191.1250  173.8900  135.5670 C   0  0  0  0  0  2  0  0  0  0  0  0
  1 23  1  0  0  0  0
  1  7  1  0  0  0  0
  2  3  1  0  0  0  0
  3  6  2  0  0  0  0
  4  1  2  0  0  0  0
  5  2  2  0  0  0  0
  5  4  1  0  0  0  0
  6  7  1  0  0  0  0
  8 10  1  0  0  0  0
  8 11  1  1  0  0  0
  8  9  1  0  0  0  0
  9 12  1  6  0  0  0
 10  9  1  0  0  0  0
 10  2  1  1  0  0  0
 13 12  1  0  0  0  0
 15 14  1  1  0  0  0
 15 13  1  0  0  0  0
 16 15  1  0  0  0  0
 17 16  1  0  0  0  0
 18 17  1  0  0  0  0
 19 20  1  0  0  0  0
 19 17  1  0  0  0  0
 21 22  1  0  0  0  0
 22 20  1  0  0  0  0
 24 25  1  0  0  0  0
 24 23  1  0  0  0  0
 26  5  1  0  0  0  0
 27 26  1  0  0  0  0
 28 27  1  0  0  0  0
 29 28  1  0  0  0  0
 30 29  1  0  0  0  0
 31 30  1  0  0  0  0
 32 31  1  0  0  0  0
 33 32  1  0  0  0  0
 34 40  1  0  0  0  0
 35 41  1  6  0  0  0
 35 38  1  0  0  0  0
 35 39  1  0  0  0  0
 35 34  1  0  0  0  0
 38 34  1  0  0  0  0
 38 33  1  1  0  0  0
 40 36  2  0  0  0  0
 40 37  1  0  0  0  0
 41 39  1  0  0  0  0
M  END
>  <MODEL>
6

>  <REMARK>
 VINA RESULT:      -6.5      3.188      7.991
  Name = 
  20 active torsions:
  status: ('A' for Active; 'I' for Inactive)
    1  A    between atoms: C_1  and  C_22
    2  A    between atoms: C_1  and  O_28
    3  A    between atoms: C_4  and  C_12
    4  A    between atoms: C_4  and  C_22
    5  A    between atoms: C_5  and  C_12
    6  A    between atoms: C_5  and  C_25
    7  A    between atoms: C_6  and  C_30
    8  A    between atoms: C_7  and  C_14
    9  A    between atoms: C_7  and  C_40
   10  A    between atoms: C_9  and  C_30
   11  A    between atoms: C_10  and  C_18
   12  A    between atoms: C_11  and  N_34
   13  A    between atoms: C_11  and  C_40
   14  A    between atoms: C_14  and  C_17
   15  A    between atoms: O_16  and  C_25
   16  A    between atoms: O_16  and  C_27
   17  A    between atoms: C_20  and  O_28
   18  A    between atoms: C_26  and  C_35
   19  A    between atoms: C_26  and  C_39
   20  A    between atoms: N_34  and  C_39
                            x       y       z     vdW  Elec       q    Type
                         _______ _______ _______ _____ _____    ______ ____

>  <TORSDO>
F 20

$$$$
=
 OpenBabel10232411583D

 41 44  0  0  1  0  0  0  0  0999 V2000
  187.6140  177.9080  146.7480 C   0  0  0  0  0  0  0  0  0  0  0  0
  185.7390  178.0050  144.1800 C   0  0  0  0  0  0  0  0  0  0  0  0
  184.9620  178.6680  145.2430 C   0  0  0  0  0  3  0  0  0  0  0  0
  187.8460  177.5460  145.4900 C   0  0  0  0  0  3  0  0  0  0  0  0
  187.0210  177.5840  144.2640 C   0  0  0  0  0  0  0  0  0  0  0  0
  185.2300  178.8870  146.5230 C   0  0  0  0  0  3  0  0  0  0  0  0
  186.4120  178.5110  147.2220 N   0  0  0  0  0  2  0  0  0  0  0  0
  185.2050  179.2230  141.9730 C   0  0  2  0  0  3  0  0  0  0  0  0
  183.9190  179.0020  142.7330 C   0  0  2  0  0  3  0  0  0  0  0  0
  185.0280  177.9640  142.8380 C   0  0  2  0  0  3  0  0  0  0  0  0
  185.9270  180.2360  142.6090 O   0  0  0  0  0  1  0  0  0  0  0  0
  182.8550  178.4970  141.7780 C   0  0  0  0  0  2  0  0  0  0  0  0
  183.4910  177.6820  140.6620 C   0  0  0  0  0  2  0  0  0  0  0  0
  181.2030  177.7650  139.9750 O   0  0  0  0  0  1  0  0  0  0  0  0
  182.4630  177.2850  139.6090 C   0  0  2  0  0  3  0  0  0  0  0  0
  182.4120  175.7720  139.4090 C   0  0  0  0  0  2  0  0  0  0  0  0
  183.1220  175.3800  138.1980 N   0  0  0  0  0  0  0  0  0  0  0  0
  183.2900  176.5030  137.4610 O   0  0  0  0  0  1  0  0  0  0  0  0
  182.2320  174.5140  137.4400 C   0  0  0  0  0  2  0  0  0  0  0  0
  183.0170  173.7130  136.4100 C   0  0  0  0  0  2  0  0  0  0  0  0
  184.9430  172.7850  137.7020 C   0  0  0  0  0  1  0  0  0  0  0  0
  183.6240  172.4620  137.0260 C   0  0  0  0  0  2  0  0  0  0  0  0
  188.7170  177.7070  147.7250 C   0  0  0  0  0  2  0  0  0  0  0  0
  189.8070  176.8490  147.1110 C   0  0  0  0  0  2  0  0  0  0  0  0
  191.0390  177.1950  147.6620 O   0  0  0  0  0  1  0  0  0  0  0  0
  187.6320  177.1400  143.0800 O   0  0  0  0  0  0  0  0  0  0  0  0
  188.6890  176.1830  143.0370 C   0  0  0  0  0  2  0  0  0  0  0  0
  190.0300  176.8770  142.8330 C   0  0  0  0  0  2  0  0  0  0  0  0
  190.2280  177.3070  141.3830 C   0  0  0  0  0  2  0  0  0  0  0  0
  191.5900  176.8790  140.8600 C   0  0  0  0  0  2  0  0  0  0  0  0
  191.7230  177.2320  139.3910 C   0  0  0  0  0  2  0  0  0  0  0  0
  191.0190  176.1870  138.5520 C   0  0  0  0  0  2  0  0  0  0  0  0
  190.1700  176.8200  137.6420 O   0  0  0  0  0  0  0  0  0  0  0  0
  187.8840  177.0500  137.8700 N   0  0  0  0  0  0  0  0  0  0  0  0
  188.0440  176.1770  136.6300 C   0  0  2  0  0  0  0  0  0  0  0  0
  186.0640  178.6510  138.1010 O   0  0  0  0  0  0  0  0  0  0  0  0
  187.6430  178.4030  139.7440 O   0  0  0  0  0  1  0  0  0  0  0  0
  188.9680  176.0850  137.7040 C   0  0  1  0  0  3  0  0  0  0  0  0
  188.1250  177.1970  135.6320 O   0  0  0  0  0  0  0  0  0  0  0  0
  187.2070  178.0540  138.6170 C   0  0  0  0  0  0  0  0  0  0  0  0
  189.0370  176.1940  135.4780 C   0  0  0  0  0  2  0  0  0  0  0  0
  1  7  1  0  0  0  0
  1 23  1  0  0  0  0
  2  5  2  0  0  0  0
  2  3  1  0  0  0  0
  3  6  2  0  0  0  0
  4  1  2  0  0  0  0
  5  4  1  0  0  0  0
  6  7  1  0  0  0  0
  8 11  1  1  0  0  0
  8  9  1  0  0  0  0
  8 10  1  0  0  0  0
  9 12  1  6  0  0  0
  9 10  1  0  0  0  0
 10  2  1  1  0  0  0
 13 12  1  0  0  0  0
 15 14  1  1  0  0  0
 15 13  1  0  0  0  0
 16 15  1  0  0  0  0
 17 16  1  0  0  0  0
 18 17  1  0  0  0  0
 19 17  1  0  0  0  0
 20 22  1  0  0  0  0
 20 19  1  0  0  0  0
 22 21  1  0  0  0  0
 24 25  1  0  0  0  0
 24 23  1  0  0  0  0
 26  5  1  0  0  0  0
 27 26  1  0  0  0  0
 28 27  1  0  0  0  0
 29 28  1  0  0  0  0
 30 29  1  0  0  0  0
 31 30  1  0  0  0  0
 32 31  1  0  0  0  0
 33 32  1  0  0  0  0
 34 40  1  0  0  0  0
 35 41  1  6  0  0  0
 35 38  1  0  0  0  0
 35 34  1  0  0  0  0
 36 40  2  0  0  0  0
 38 33  1  6  0  0  0
 38 34  1  0  0  0  0
 39 35  1  0  0  0  0
 40 37  1  0  0  0  0
 41 39  1  0  0  0  0
M  END
>  <MODEL>
7

>  <REMARK>
 VINA RESULT:      -6.4      4.347      9.052
  Name = 
  20 active torsions:
  status: ('A' for Active; 'I' for Inactive)
    1  A    between atoms: C_1  and  C_22
    2  A    between atoms: C_1  and  O_28
    3  A    between atoms: C_4  and  C_12
    4  A    between atoms: C_4  and  C_22
    5  A    between atoms: C_5  and  C_12
    6  A    between atoms: C_5  and  C_25
    7  A    between atoms: C_6  and  C_30
    8  A    between atoms: C_7  and  C_14
    9  A    between atoms: C_7  and  C_40
   10  A    between atoms: C_9  and  C_30
   11  A    between atoms: C_10  and  C_18
   12  A    between atoms: C_11  and  N_34
   13  A    between atoms: C_11  and  C_40
   14  A    between atoms: C_14  and  C_17
   15  A    between atoms: O_16  and  C_25
   16  A    between atoms: O_16  and  C_27
   17  A    between atoms: C_20  and  O_28
   18  A    between atoms: C_26  and  C_35
   19  A    between atoms: C_26  and  C_39
   20  A    between atoms: N_34  and  C_39
                            x       y       z     vdW  Elec       q    Type
                         _______ _______ _______ _____ _____    ______ ____

>  <TORSDO>
F 20

$$$$
=
 OpenBabel10232411583D

 41 44  0  0  1  0  0  0  0  0999 V2000
  183.6740  178.7630  142.6240 C   0  0  0  0  0  0  0  0  0  0  0  0
  184.3700  178.7640  139.5190 C   0  0  0  0  0  0  0  0  0  0  0  0
  182.9000  178.8610  139.5790 C   0  0  0  0  0  3  0  0  0  0  0  0
  184.8470  178.7930  141.9970 C   0  0  0  0  0  2  0  0  0  0  0  0
  185.2220  178.8110  140.5680 C   0  0  0  0  0  0  0  0  0  0  0  0
  182.0600  178.8700  140.6050 C   0  0  0  0  0  3  0  0  0  0  0  0
  182.3990  178.7870  141.9850 N   0  0  0  0  0  0  0  0  0  0  0  0
  184.7670  177.4510  137.3380 C   0  0  2  0  0  3  0  0  0  0  0  0
  186.1040  177.8220  137.9350 C   0  0  2  0  0  3  0  0  0  0  0  0
  184.9270  178.7750  138.1070 C   0  0  2  0  0  3  0  0  0  0  0  0
  184.2070  176.4280  138.1070 O   0  0  0  0  0  1  0  0  0  0  0  0
  187.0120  178.3470  136.8400 C   0  0  0  0  0  2  0  0  0  0  0  0
  187.5860  177.1940  136.0320 C   0  0  0  0  0  2  0  0  0  0  0  0
  189.9060  177.4310  136.5560 O   0  0  0  0  0  1  0  0  0  0  0  0
  188.8040  176.5870  136.7180 C   0  0  2  0  0  3  0  0  0  0  0  0
  189.1240  175.1950  136.1770 C   0  0  0  0  0  2  0  0  0  0  0  0
  188.7990  174.1650  137.1560 N   0  0  0  0  0  0  0  0  0  0  0  0
  189.9240  173.4360  137.3460 O   0  0  0  0  0  1  0  0  0  0  0  0
  187.8280  173.2770  136.5380 C   0  0  0  0  0  2  0  0  0  0  0  0
  186.4520  173.4760  137.1590 C   0  0  0  0  0  2  0  0  0  0  0  0
  185.0610  174.3760  135.2890 C   0  0  0  0  0  1  0  0  0  0  0  0
  185.3440  173.1690  136.1630 C   0  0  0  0  0  2  0  0  0  0  0  0
  183.7000  178.7500  144.1110 C   0  0  0  0  0  2  0  0  0  0  0  0
  185.1350  178.7250  144.6060 C   0  0  0  0  0  2  0  0  0  0  0  0
  185.1940  179.2670  145.8880 O   0  0  0  0  0  1  0  0  0  0  0  0
  186.5960  178.8820  140.2790 O   0  0  0  0  0  0  0  0  0  0  0  0
  187.6250  178.6030  141.2250 C   0  0  0  0  0  2  0  0  0  0  0  0
  188.5600  177.5230  140.6950 C   0  0  0  0  0  2  0  0  0  0  0  0
  189.9710  177.6720  141.2570 C   0  0  0  0  0  2  0  0  0  0  0  0
  190.1450  176.8670  142.5360 C   0  0  0  0  0  2  0  0  0  0  0  0
  190.0200  177.7710  143.7460 C   0  0  0  0  0  2  0  0  0  0  0  0
  188.7160  177.4870  144.4610 C   0  0  0  0  0  2  0  0  0  0  0  0
  188.7590  178.0460  145.7400 O   0  0  0  0  0  0  0  0  0  0  0  0
  190.0730  176.8330  147.2000 N   0  0  0  0  0  0  0  0  0  0  0  0
  188.8250  177.1600  148.0130 C   0  0  2  0  0  0  0  0  0  0  0  0
  192.2790  176.6730  148.2200 O   0  0  0  0  0  1  0  0  0  0  0  0
  191.9850  176.3590  145.9680 O   0  0  0  0  0  0  0  0  0  0  0  0
  188.7390  176.9390  146.6140 C   0  0  1  0  0  3  0  0  0  0  0  0
  189.2280  178.4140  148.5700 O   0  0  0  0  0  0  0  0  0  0  0  0
  191.4740  176.6100  147.0900 C   0  0  0  0  0  0  0  0  0  0  0  0
  187.9470  178.3990  148.1020 C   0  0  0  0  0  2  0  0  0  0  0  0
  1 23  1  0  0  0  0
  2  3  1  0  0  0  0
  2  5  2  0  0  0  0
  3  6  2  0  0  0  0
  4  1  1  0  0  0  0
  5  4  1  0  0  0  0
  6  7  1  0  0  0  0
  7  1  2  0  0  0  0
  8  9  1  0  0  0  0
  8 10  1  0  0  0  0
  8 11  1  1  0  0  0
  9 12  1  6  0  0  0
  9 10  1  0  0  0  0
 10  2  1  1  0  0  0
 13 15  1  0  0  0  0
 13 12  1  0  0  0  0
 15 14  1  6  0  0  0
 16 15  1  0  0  0  0
 16 17  1  0  0  0  0
 17 18  1  0  0  0  0
 19 17  1  0  0  0  0
 19 20  1  0  0  0  0
 21 22  1  0  0  0  0
 22 20  1  0  0  0  0
 23 24  1  0  0  0  0
 24 25  1  0  0  0  0
 26  5  1  0  0  0  0
 26 27  1  0  0  0  0
 28 27  1  0  0  0  0
 28 29  1  0  0  0  0
 29 30  1  0  0  0  0
 30 31  1  0  0  0  0
 31 32  1  0  0  0  0
 32 33  1  0  0  0  0
 34 35  1  0  0  0  0
 35 41  1  1  0  0  0
 35 39  1  0  0  0  0
 37 40  2  0  0  0  0
 38 33  1  6  0  0  0
 38 34  1  0  0  0  0
 38 35  1  0  0  0  0
 40 34  1  0  0  0  0
 40 36  1  0  0  0  0
 41 39  1  0  0  0  0
M  END
>  <MODEL>
8

>  <REMARK>
 VINA RESULT:      -6.4      4.763      9.547
  Name = 
  20 active torsions:
  status: ('A' for Active; 'I' for Inactive)
    1  A    between atoms: C_1  and  C_22
    2  A    between atoms: C_1  and  O_28
    3  A    between atoms: C_4  and  C_12
    4  A    between atoms: C_4  and  C_22
    5  A    between atoms: C_5  and  C_12
    6  A    between atoms: C_5  and  C_25
    7  A    between atoms: C_6  and  C_30
    8  A    between atoms: C_7  and  C_14
    9  A    between atoms: C_7  and  C_40
   10  A    between atoms: C_9  and  C_30
   11  A    between atoms: C_10  and  C_18
   12  A    between atoms: C_11  and  N_34
   13  A    between atoms: C_11  and  C_40
   14  A    between atoms: C_14  and  C_17
   15  A    between atoms: O_16  and  C_25
   16  A    between atoms: O_16  and  C_27
   17  A    between atoms: C_20  and  O_28
   18  A    between atoms: C_26  and  C_35
   19  A    between atoms: C_26  and  C_39
   20  A    between atoms: N_34  and  C_39
                            x       y       z     vdW  Elec       q    Type
                         _______ _______ _______ _____ _____    ______ ____

>  <TORSDO>
F 20

$$$$
=
 OpenBabel10232411583D

 41 44  0  0  1  0  0  0  0  0999 V2000
  188.6130  177.7440  147.2270 C   0  0  0  0  0  0  0  0  0  0  0  0
  185.9790  178.0120  145.4620 C   0  0  0  0  0  0  0  0  0  0  0  0
  185.6730  178.7310  146.7130 C   0  0  0  0  0  3  0  0  0  0  0  0
  188.3660  177.3720  145.9740 C   0  0  0  0  0  3  0  0  0  0  0  0
  187.1730  177.4860  145.1090 C   0  0  0  0  0  0  0  0  0  0  0  0
  186.3840  178.9180  147.8170 C   0  0  0  0  0  3  0  0  0  0  0  0
  187.7010  178.4420  148.0730 N   0  0  0  0  0  2  0  0  0  0  0  0
  184.6980  179.3610  143.6800 C   0  0  2  0  0  3  0  0  0  0  0  0
  183.7580  179.0380  144.8170 C   0  0  2  0  0  3  0  0  0  0  0  0
  184.8470  178.0380  144.4500 C   0  0  2  0  0  3  0  0  0  0  0  0
  185.5840  180.3540  144.1060 O   0  0  0  0  0  1  0  0  0  0  0  0
  182.4350  178.5600  144.2520 C   0  0  0  0  0  2  0  0  0  0  0  0
  182.2100  179.1460  142.8660 C   0  0  0  0  0  2  0  0  0  0  0  0
  179.9910  179.1340  143.7550 O   0  0  0  0  0  1  0  0  0  0  0  0
  180.7560  179.5570  142.6650 C   0  0  2  0  0  3  0  0  0  0  0  0
  180.1810  178.9900  141.3690 C   0  0  0  0  0  2  0  0  0  0  0  0
  181.1800  178.9970  140.3070 N   0  0  0  0  0  0  0  0  0  0  0  0
  180.9860  180.1310  139.5930 O   0  0  0  0  0  1  0  0  0  0  0  0
  180.8680  177.8880  139.4180 C   0  0  0  0  0  2  0  0  0  0  0  0
  182.1460  177.2650  138.8740 C   0  0  0  0  0  2  0  0  0  0  0  0
  180.8600  175.2430  139.5750 C   0  0  0  0  0  1  0  0  0  0  0  0
  182.2290  175.7840  139.2100 C   0  0  0  0  0  2  0  0  0  0  0  0
  189.9660  177.4470  147.7680 C   0  0  0  0  0  2  0  0  0  0  0  0
  190.7870  176.6990  146.7330 C   0  0  0  0  0  2  0  0  0  0  0  0
  192.0760  176.4940  147.2220 O   0  0  0  0  0  1  0  0  0  0  0  0
  187.2990  176.9990  143.7960 O   0  0  0  0  0  0  0  0  0  0  0  0
  188.5020  176.4510  143.2610 C   0  0  0  0  0  2  0  0  0  0  0  0
  189.1170  177.4050  142.2440 C   0  0  0  0  0  2  0  0  0  0  0  0
  190.5780  177.0670  141.9650 C   0  0  0  0  0  2  0  0  0  0  0  0
  190.9300  177.2980  140.5040 C   0  0  0  0  0  2  0  0  0  0  0  0
  189.7320  177.0070  139.6220 C   0  0  0  0  0  2  0  0  0  0  0  0
  189.7930  177.8700  138.3790 C   0  0  0  0  0  2  0  0  0  0  0  0
  189.4540  177.1010  137.2650 O   0  0  0  0  0  0  0  0  0  0  0  0
  187.1770  176.7400  137.3840 N   0  0  0  0  0  0  0  0  0  0  0  0
  187.7260  175.4400  136.8050 C   0  0  2  0  0  0  0  0  0  0  0  0
  184.9930  177.6170  136.7580 O   0  0  0  0  0  0  0  0  0  0  0  0
  186.3410  178.7310  138.2410 O   0  0  0  0  0  1  0  0  0  0  0  0
  188.4840  176.1930  137.7390 C   0  0  1  0  0  3  0  0  0  0  0  0
  187.6790  175.7640  135.4130 O   0  0  0  0  0  0  0  0  0  0  0  0
  186.1680  177.7370  137.4880 C   0  0  0  0  0  0  0  0  0  0  0  0
  188.8300  175.1430  135.8020 C   0  0  0  0  0  2  0  0  0  0  0  0
  1 23  1  0  0  0  0
  1  7  1  0  0  0  0
  2  3  1  0  0  0  0
  3  6  2  0  0  0  0
  4  1  2  0  0  0  0
  5  2  2  0  0  0  0
  5  4  1  0  0  0  0
  6  7  1  0  0  0  0
  8 11  1  1  0  0  0
  8 10  1  0  0  0  0
  8  9  1  0  0  0  0
  9 12  1  6  0  0  0
 10  9  1  0  0  0  0
 10  2  1  1  0  0  0
 13 12  1  0  0  0  0
 15 13  1  0  0  0  0
 15 14  1  1  0  0  0
 16 15  1  0  0  0  0
 17 16  1  0  0  0  0
 18 17  1  0  0  0  0
 19 17  1  0  0  0  0
 20 22  1  0  0  0  0
 20 19  1  0  0  0  0
 22 21  1  0  0  0  0
 24 25  1  0  0  0  0
 24 23  1  0  0  0  0
 26  5  1  0  0  0  0
 27 26  1  0  0  0  0
 28 27  1  0  0  0  0
 29 28  1  0  0  0  0
 30 29  1  0  0  0  0
 31 30  1  0  0  0  0
 32 31  1  0  0  0  0
 33 32  1  0  0  0  0
 34 40  1  0  0  0  0
 34 38  1  0  0  0  0
 35 41  1  1  0  0  0
 35 34  1  0  0  0  0
 35 38  1  0  0  0  0
 36 40  2  0  0  0  0
 38 33  1  6  0  0  0
 39 41  1  0  0  0  0
 39 35  1  0  0  0  0
 40 37  1  0  0  0  0
M  END
>  <MODEL>
9

>  <REMARK>
 VINA RESULT:      -6.4      4.852      9.210
  Name = 
  20 active torsions:
  status: ('A' for Active; 'I' for Inactive)
    1  A    between atoms: C_1  and  C_22
    2  A    between atoms: C_1  and  O_28
    3  A    between atoms: C_4  and  C_12
    4  A    between atoms: C_4  and  C_22
    5  A    between atoms: C_5  and  C_12
    6  A    between atoms: C_5  and  C_25
    7  A    between atoms: C_6  and  C_30
    8  A    between atoms: C_7  and  C_14
    9  A    between atoms: C_7  and  C_40
   10  A    between atoms: C_9  and  C_30
   11  A    between atoms: C_10  and  C_18
   12  A    between atoms: C_11  and  N_34
   13  A    between atoms: C_11  and  C_40
   14  A    between atoms: C_14  and  C_17
   15  A    between atoms: O_16  and  C_25
   16  A    between atoms: O_16  and  C_27
   17  A    between atoms: C_20  and  O_28
   18  A    between atoms: C_26  and  C_35
   19  A    between atoms: C_26  and  C_39
   20  A    between atoms: N_34  and  C_39
                            x       y       z     vdW  Elec       q    Type
                         _______ _______ _______ _____ _____    ______ ____

>  <TORSDO>
F 20

$$$$
