=
 OpenBabel10232411093D

 36 41  0  0  1  0  0  0  0  0999 V2000
  190.3450  176.6130  138.1910 C   0  0  0  0  0  0  0  0  0  0  0  0
  190.6190  177.2860  140.6080 C   0  0  0  0  0  0  0  0  0  0  0  0
  192.8150  176.1450  138.3110 C   0  0  0  0  0  0  0  0  0  0  0  0
  193.0650  177.5080  138.8510 C   0  0  0  0  0  2  0  0  0  0  0  0
  189.4380  177.4160  141.4660 C   0  0  0  0  0  0  0  0  0  0  0  0
  193.6960  173.9990  137.5810 C   0  0  0  0  0  0  0  0  0  0  0  0
  190.9690  177.1110  144.6980 N   0  0  0  0  0  0  0  0  0  0  0  0
  193.8980  175.2830  138.1040 C   0  0  0  0  0  3  0  0  0  0  0  0
  188.3610  177.5630  143.6770 C   0  0  0  0  0  3  0  0  0  0  0  0
  189.1260  176.5130  137.3250 C   0  0  0  0  0  3  0  0  0  0  0  0
  191.8730  177.2560  141.1260 C   0  0  0  0  0  0  0  0  0  0  0  0
  189.5160  177.3590  142.7980 C   0  0  0  0  0  0  0  0  0  0  0  0
  190.8440  177.1900  143.4060 C   0  0  0  0  0  0  0  0  0  0  0  0
  193.1580  177.4520  140.3630 C   0  0  0  0  0  2  0  0  0  0  0  0
  191.5100  175.7220  138.0150 C   0  0  0  0  0  0  0  0  0  0  0  0
  188.5150  177.4590  144.9970 C   0  0  0  0  0  3  0  0  0  0  0  0
  190.0820  177.3770  139.2480 C   0  0  2  0  0  3  0  0  0  0  0  0
  188.2100  177.6820  140.6480 C   0  0  0  0  0  2  0  0  0  0  0  0
  188.0330  177.2310  138.1260 C   0  0  1  0  0  3  0  0  0  0  0  0
  189.8310  177.0680  145.6300 C   0  0  0  0  0  2  0  0  0  0  0  0
  191.3150  174.4440  137.4730 C   0  0  0  0  0  3  0  0  0  0  0  0
  192.0020  177.1820  142.5580 N   0  0  0  0  0  2  0  0  0  0  0  0
  192.3970  173.5870  137.2620 C   0  0  0  0  0  3  0  0  0  0  0  0
  188.7240  177.7620  139.2850 N   0  0  2  0  0  0  0  0  0  0  0  0
  195.3280  172.9540  136.2120 O   0  0  0  0  0  0  0  0  0  0  0  0
  195.3840  172.3860  138.4270 O   0  0  0  0  0  1  0  0  0  0  0  0
  194.8350  173.0930  137.3620 C   0  0  0  0  0  0  0  0  0  0  0  0
  187.4510  178.3710  137.3130 C   0  0  0  0  0  2  0  0  0  0  0  0
  186.1370  177.9410  136.6890 C   0  0  0  0  0  2  0  0  0  0  0  0
  185.3380  177.2390  137.6800 N   0  0  0  0  0  2  0  0  0  0  0  0
  184.2380  178.1150  138.0430 C   0  0  0  0  0  2  0  0  0  0  0  0
  184.0860  178.1540  139.5550 C   0  0  0  0  0  2  0  0  0  0  0  0
  184.2460  179.5170  140.0420 N   0  0  0  0  0  0  0  0  0  0  0  0
  184.4200  180.2950  138.9480 O   0  0  0  0  0  1  0  0  0  0  0  0
  185.0660  179.1510  142.0330 C   0  0  0  0  0  1  0  0  0  0  0  0
  185.4090  179.5550  140.7410 O   0  0  0  0  0  0  0  0  0  0  0  0
  2 11  2  0  0  0  0
  2  5  1  0  0  0  0
  3  4  1  0  0  0  0
  4 14  1  0  0  0  0
  5 12  2  0  0  0  0
  6  8  2  0  0  0  0
  7 20  1  0  0  0  0
  8  3  1  0  0  0  0
  9 16  2  0  0  0  0
 10 19  1  0  0  0  0
 10  1  2  0  0  0  0
 11 22  1  0  0  0  0
 12 13  1  0  0  0  0
 12  9  1  0  0  0  0
 13  7  2  0  0  0  0
 14 11  1  0  0  0  0
 15  1  1  0  0  0  0
 15  3  2  0  0  0  0
 16 20  1  0  0  0  0
 17  1  1  1  0  0  0
 17 24  1  0  0  0  0
 17  2  1  0  0  0  0
 18  5  1  0  0  0  0
 19 28  1  6  0  0  0
 19 24  1  0  0  0  0
 21 15  1  0  0  0  0
 22 13  1  0  0  0  0
 23 21  2  0  0  0  0
 23  6  1  0  0  0  0
 24 18  1  1  0  0  0
 25 27  2  0  0  0  0
 27  6  1  0  0  0  0
 27 26  1  0  0  0  0
 29 28  1  0  0  0  0
 29 30  1  0  0  0  0
 30 31  1  0  0  0  0
 31 32  1  0  0  0  0
 32 33  1  0  0  0  0
 33 36  1  0  0  0  0
 34 33  1  0  0  0  0
 36 35  1  0  0  0  0
M  END
>  <MODEL>
1

>  <REMARK>
 VINA RESULT:      -7.7      0.000      0.000
  Name = 
  8 active torsions:
  status: ('A' for Active; 'I' for Inactive)
    1  A    between atoms: N_2  and  C_16
    2  A    between atoms: N_2  and  O_24
    3  A    between atoms: C_8  and  C_33
    4  A    between atoms: N_9  and  C_22
    5  A    between atoms: N_9  and  C_29
    6  A    between atoms: C_16  and  C_29
    7  A    between atoms: C_22  and  C_31
    8  A    between atoms: C_27  and  C_31
                            x       y       z     vdW  Elec       q    Type
                         _______ _______ _______ _____ _____    ______ ____

>  <TORSDO>
F 8

$$$$
=
 OpenBabel10232411093D

 36 41  0  0  1  0  0  0  0  0999 V2000
  185.7690  178.0610  138.3380 C   0  0  0  0  0  0  0  0  0  0  0  0
  186.9890  178.2980  140.5340 C   0  0  0  0  0  0  0  0  0  0  0  0
  188.0470  177.4850  137.4330 C   0  0  0  0  0  0  0  0  0  0  0  0
  188.6150  178.7250  138.0250 C   0  0  0  0  0  2  0  0  0  0  0  0
  186.2310  178.3250  141.7880 C   0  0  0  0  0  0  0  0  0  0  0  0
  188.3720  175.4630  136.1200 C   0  0  0  0  0  0  0  0  0  0  0  0
  188.8160  177.4120  144.1060 N   0  0  0  0  0  0  0  0  0  0  0  0
  188.8810  176.6300  136.7040 C   0  0  0  0  0  3  0  0  0  0  0  0
  186.0760  178.1320  144.2400 C   0  0  0  0  0  3  0  0  0  0  0  0
  184.3120  178.1570  138.0010 C   0  0  0  0  0  3  0  0  0  0  0  0
  188.3360  178.1320  140.5210 C   0  0  0  0  0  0  0  0  0  0  0  0
  186.7930  178.0380  142.9650 C   0  0  0  0  0  0  0  0  0  0  0  0
  188.2280  177.7160  142.9870 C   0  0  0  0  0  0  0  0  0  0  0  0
  189.2580  178.4070  139.3610 C   0  0  0  0  0  2  0  0  0  0  0  0
  186.6890  177.1690  137.6020 C   0  0  0  0  0  0  0  0  0  0  0  0
  186.6980  177.7980  145.3700 C   0  0  0  0  0  3  0  0  0  0  0  0
  185.9970  178.6410  139.5130 C   0  0  2  0  0  3  0  0  0  0  0  0
  184.8210  178.7730  141.5520 C   0  0  0  0  0  2  0  0  0  0  0  0
  183.6740  178.7680  139.2540 C   0  0  1  0  0  3  0  0  0  0  0  0
  188.1090  177.2540  145.3860 C   0  0  0  0  0  2  0  0  0  0  0  0
  186.1790  176.0110  136.9980 C   0  0  0  0  0  3  0  0  0  0  0  0
  188.9800  177.8100  141.7680 N   0  0  0  0  0  2  0  0  0  0  0  0
  187.0130  175.1620  136.2680 C   0  0  0  0  0  3  0  0  0  0  0  0
  184.7960  179.0660  140.1220 N   0  0  2  0  0  0  0  0  0  0  0  0
  188.8650  173.4080  135.0420 O   0  0  0  0  0  1  0  0  0  0  0  0
  190.5150  174.9900  134.9590 O   0  0  0  0  0  0  0  0  0  0  0  0
  189.2510  174.5650  135.3530 C   0  0  0  0  0  0  0  0  0  0  0  0
  182.9490  180.0520  138.8990 C   0  0  0  0  0  2  0  0  0  0  0  0
  181.5080  179.9760  139.3640 C   0  0  0  0  0  2  0  0  0  0  0  0
  180.7220  180.9840  138.6720 N   0  0  0  0  0  2  0  0  0  0  0  0
  181.6520  181.9660  138.1450 C   0  0  0  0  0  2  0  0  0  0  0  0
  180.8900  183.1890  137.6570 C   0  0  0  0  0  2  0  0  0  0  0  0
  181.7590  184.0340  136.8500 N   0  0  0  0  0  0  0  0  0  0  0  0
  182.3080  184.9380  137.6960 O   0  0  0  0  0  1  0  0  0  0  0  0
  180.3620  183.7530  135.1950 C   0  0  0  0  0  1  0  0  0  0  0  0
  180.9610  184.7260  135.9980 O   0  0  0  0  0  0  0  0  0  0  0  0
  2  5  1  0  0  0  0
  3 15  1  0  0  0  0
  3  4  1  0  0  0  0
  4 14  1  0  0  0  0
  5 12  2  0  0  0  0
  6 23  2  0  0  0  0
  6  8  1  0  0  0  0
  7 20  1  0  0  0  0
  8  3  2  0  0  0  0
  9 16  2  0  0  0  0
 10  1  2  0  0  0  0
 10 19  1  0  0  0  0
 11  2  2  0  0  0  0
 11 22  1  0  0  0  0
 12 13  1  0  0  0  0
 12  9  1  0  0  0  0
 13  7  2  0  0  0  0
 14 11  1  0  0  0  0
 15  1  1  0  0  0  0
 16 20  1  0  0  0  0
 17  1  1  1  0  0  0
 17 24  1  0  0  0  0
 17  2  1  0  0  0  0
 18  5  1  0  0  0  0
 19 28  1  6  0  0  0
 19 24  1  0  0  0  0
 21 15  2  0  0  0  0
 22 13  1  0  0  0  0
 23 21  1  0  0  0  0
 24 18  1  1  0  0  0
 25 27  1  0  0  0  0
 26 27  2  0  0  0  0
 27  6  1  0  0  0  0
 28 29  1  0  0  0  0
 30 29  1  0  0  0  0
 31 30  1  0  0  0  0
 32 31  1  0  0  0  0
 33 32  1  0  0  0  0
 33 34  1  0  0  0  0
 35 36  1  0  0  0  0
 36 33  1  0  0  0  0
M  END
>  <MODEL>
2

>  <REMARK>
 VINA RESULT:      -7.1      3.318      5.052
  Name = 
  8 active torsions:
  status: ('A' for Active; 'I' for Inactive)
    1  A    between atoms: N_2  and  C_16
    2  A    between atoms: N_2  and  O_24
    3  A    between atoms: C_8  and  C_33
    4  A    between atoms: N_9  and  C_22
    5  A    between atoms: N_9  and  C_29
    6  A    between atoms: C_16  and  C_29
    7  A    between atoms: C_22  and  C_31
    8  A    between atoms: C_27  and  C_31
                            x       y       z     vdW  Elec       q    Type
                         _______ _______ _______ _____ _____    ______ ____

>  <TORSDO>
F 8

$$$$
=
 OpenBabel10232411093D

 36 41  0  0  1  0  0  0  0  0999 V2000
  190.4910  176.7350  138.0110 C   0  0  0  0  0  0  0  0  0  0  0  0
  190.5920  177.3680  140.4520 C   0  0  0  0  0  0  0  0  0  0  0  0
  192.9280  176.1860  138.3200 C   0  0  0  0  0  0  0  0  0  0  0  0
  193.1770  177.5330  138.8980 C   0  0  0  0  0  2  0  0  0  0  0  0
  189.3510  177.5260  141.2150 C   0  0  0  0  0  0  0  0  0  0  0  0
  193.7960  174.0210  137.6300 C   0  0  0  0  0  0  0  0  0  0  0  0
  190.6090  177.1320  144.5540 N   0  0  0  0  0  0  0  0  0  0  0  0
  193.9960  175.2910  138.1860 C   0  0  0  0  0  3  0  0  0  0  0  0
  188.1070  177.6810  143.3360 C   0  0  0  0  0  3  0  0  0  0  0  0
  189.3420  176.6850  137.0490 C   0  0  0  0  0  3  0  0  0  0  0  0
  191.8000  177.2910  141.0670 C   0  0  0  0  0  0  0  0  0  0  0  0
  189.3210  177.4510  142.5480 C   0  0  0  0  0  0  0  0  0  0  0  0
  190.5900  177.2310  143.2570 C   0  0  0  0  0  0  0  0  0  0  0  0
  193.1470  177.4560  140.4120 C   0  0  0  0  0  2  0  0  0  0  0  0
  191.6370  175.8090  137.9150 C   0  0  0  0  0  0  0  0  0  0  0  0
  188.1510  177.5560  144.6620 C   0  0  0  0  0  3  0  0  0  0  0  0
  190.1680  177.4940  139.0550 C   0  0  2  0  0  3  0  0  0  0  0  0
  188.2010  177.8420  140.3070 C   0  0  0  0  0  2  0  0  0  0  0  0
  188.2120  177.4280  137.7720 C   0  0  1  0  0  3  0  0  0  0  0  0
  189.4000  177.1140  145.3920 C   0  0  0  0  0  2  0  0  0  0  0  0
  191.4460  174.5440  137.3400 C   0  0  0  0  0  3  0  0  0  0  0  0
  191.8110  177.1960  142.5040 N   0  0  0  0  0  2  0  0  0  0  0  0
  192.5150  173.6560  137.2030 C   0  0  0  0  0  3  0  0  0  0  0  0
  188.8250  177.9220  138.9900 N   0  0  2  0  0  0  0  0  0  0  0  0
  195.5750  173.0260  136.4140 O   0  0  0  0  0  0  0  0  0  0  0  0
  195.2760  172.2500  138.5450 O   0  0  0  0  0  1  0  0  0  0  0  0
  194.9210  173.0810  137.4890 C   0  0  0  0  0  0  0  0  0  0  0  0
  187.7330  178.5970  136.9320 C   0  0  0  0  0  2  0  0  0  0  0  0
  187.0400  178.0840  135.6850 C   0  0  0  0  0  2  0  0  0  0  0  0
  185.9030  177.2620  136.0660 N   0  0  0  0  0  2  0  0  0  0  0  0
  185.9290  176.0780  135.2250 C   0  0  0  0  0  2  0  0  0  0  0  0
  185.4080  174.8800  136.0050 C   0  0  0  0  0  2  0  0  0  0  0  0
  186.4240  174.4050  136.9330 N   0  0  0  0  0  0  0  0  0  0  0  0
  187.4250  173.8960  136.1770 O   0  0  0  0  0  1  0  0  0  0  0  0
  184.5090  173.6230  137.6330 C   0  0  0  0  0  1  0  0  0  0  0  0
  185.8810  173.3660  137.6180 O   0  0  0  0  0  0  0  0  0  0  0  0
  2 11  2  0  0  0  0
  2  5  1  0  0  0  0
  3  4  1  0  0  0  0
  4 14  1  0  0  0  0
  5 12  2  0  0  0  0
  6  8  2  0  0  0  0
  7 20  1  0  0  0  0
  8  3  1  0  0  0  0
  9 16  2  0  0  0  0
 10 19  1  0  0  0  0
 10  1  2  0  0  0  0
 11 22  1  0  0  0  0
 12 13  1  0  0  0  0
 12  9  1  0  0  0  0
 13  7  2  0  0  0  0
 14 11  1  0  0  0  0
 15  1  1  0  0  0  0
 15  3  2  0  0  0  0
 16 20  1  0  0  0  0
 17  1  1  1  0  0  0
 17  2  1  0  0  0  0
 18  5  1  0  0  0  0
 19 28  1  6  0  0  0
 19 24  1  0  0  0  0
 21 15  1  0  0  0  0
 22 13  1  0  0  0  0
 23 21  2  0  0  0  0
 23  6  1  0  0  0  0
 24 17  1  0  0  0  0
 24 18  1  1  0  0  0
 25 27  2  0  0  0  0
 27  6  1  0  0  0  0
 27 26  1  0  0  0  0
 29 30  1  0  0  0  0
 29 28  1  0  0  0  0
 31 32  1  0  0  0  0
 31 30  1  0  0  0  0
 32 33  1  0  0  0  0
 33 36  1  0  0  0  0
 34 33  1  0  0  0  0
 36 35  1  0  0  0  0
M  END
>  <MODEL>
3

>  <REMARK>
 VINA RESULT:      -6.8      2.207      2.604
  Name = 
  8 active torsions:
  status: ('A' for Active; 'I' for Inactive)
    1  A    between atoms: N_2  and  C_16
    2  A    between atoms: N_2  and  O_24
    3  A    between atoms: C_8  and  C_33
    4  A    between atoms: N_9  and  C_22
    5  A    between atoms: N_9  and  C_29
    6  A    between atoms: C_16  and  C_29
    7  A    between atoms: C_22  and  C_31
    8  A    between atoms: C_27  and  C_31
                            x       y       z     vdW  Elec       q    Type
                         _______ _______ _______ _____ _____    ______ ____

>  <TORSDO>
F 8

$$$$
=
 OpenBabel10232411093D

 36 41  0  0  1  0  0  0  0  0999 V2000
  183.9350  178.2100  141.1730 C   0  0  0  0  0  0  0  0  0  0  0  0
  186.3320  178.4130  140.4080 C   0  0  0  0  0  0  0  0  0  0  0  0
  183.4220  178.1980  138.7090 C   0  0  0  0  0  0  0  0  0  0  0  0
  184.2120  179.4440  138.5200 C   0  0  0  0  0  2  0  0  0  0  0  0
  187.4220  178.1420  141.3500 C   0  0  0  0  0  0  0  0  0  0  0  0
  182.0270  176.4500  137.7530 C   0  0  0  0  0  0  0  0  0  0  0  0
  190.0920  177.4740  139.0460 N   0  0  0  0  0  0  0  0  0  0  0  0
  182.7910  177.6150  137.6040 C   0  0  0  0  0  3  0  0  0  0  0  0
  189.7770  177.6300  141.8610 C   0  0  0  0  0  3  0  0  0  0  0  0
  183.3440  178.0630  142.5430 C   0  0  0  0  0  3  0  0  0  0  0  0
  186.5540  178.5130  139.0730 C   0  0  0  0  0  0  0  0  0  0  0  0
  188.6540  177.8300  140.9410 C   0  0  0  0  0  0  0  0  0  0  0  0
  188.9130  177.7910  139.4940 C   0  0  0  0  0  0  0  0  0  0  0  0
  185.6120  179.0980  138.0530 C   0  0  0  0  0  2  0  0  0  0  0  0
  183.3100  177.6080  139.9780 C   0  0  0  0  0  0  0  0  0  0  0  0
  190.9710  177.2890  141.3760 C   0  0  0  0  0  3  0  0  0  0  0  0
  185.1770  178.6790  141.2700 C   0  0  2  0  0  3  0  0  0  0  0  0
  186.9670  178.3350  142.7650 C   0  0  0  0  0  2  0  0  0  0  0  0
  184.5040  178.3840  143.4920 C   0  0  1  0  0  3  0  0  0  0  0  0
  191.2020  177.0300  139.9040 C   0  0  0  0  0  2  0  0  0  0  0  0
  182.5270  176.4540  140.1260 C   0  0  0  0  0  3  0  0  0  0  0  0
  187.8670  178.1740  138.5890 N   0  0  0  0  0  2  0  0  0  0  0  0
  181.8950  175.8760  139.0230 C   0  0  0  0  0  3  0  0  0  0  0  0
  185.5870  178.7870  142.6160 N   0  0  2  0  0  0  0  0  0  0  0  0
  181.6430  176.2170  135.4230 O   0  0  0  0  0  0  0  0  0  0  0  0
  180.4250  174.8270  136.7710 O   0  0  0  0  0  1  0  0  0  0  0  0
  181.3630  175.8370  136.5910 C   0  0  0  0  0  0  0  0  0  0  0  0
  184.1300  179.5380  144.4030 C   0  0  0  0  0  2  0  0  0  0  0  0
  184.2300  179.1020  145.8520 C   0  0  0  0  0  2  0  0  0  0  0  0
  185.5850  179.3190  146.3310 N   0  0  0  0  0  2  0  0  0  0  0  0
  186.0820  178.0400  146.8060 C   0  0  0  0  0  2  0  0  0  0  0  0
  187.5510  177.8890  146.4390 C   0  0  0  0  0  2  0  0  0  0  0  0
  188.2730  177.2320  147.5190 N   0  0  0  0  0  0  0  0  0  0  0  0
  188.4620  178.1690  148.4780 O   0  0  0  0  0  1  0  0  0  0  0  0
  189.5870  177.5640  145.8060 C   0  0  0  0  0  1  0  0  0  0  0  0
  189.5010  176.9100  147.0370 O   0  0  0  0  0  0  0  0  0  0  0  0
  1 17  1  0  0  0  0
  1 10  2  0  0  0  0
  2  5  1  0  0  0  0
  3 15  1  0  0  0  0
  4  3  1  0  0  0  0
  5 18  1  0  0  0  0
  6 23  2  0  0  0  0
  7 13  2  0  0  0  0
  7 20  1  0  0  0  0
  8  6  1  0  0  0  0
  8  3  2  0  0  0  0
 10 19  1  0  0  0  0
 11  2  2  0  0  0  0
 12  5  2  0  0  0  0
 12  9  1  0  0  0  0
 13 12  1  0  0  0  0
 14  4  1  0  0  0  0
 14 11  1  0  0  0  0
 15 21  2  0  0  0  0
 15  1  1  0  0  0  0
 16  9  2  0  0  0  0
 17  2  1  6  0  0  0
 17 24  1  0  0  0  0
 19 28  1  1  0  0  0
 20 16  1  0  0  0  0
 22 11  1  0  0  0  0
 22 13  1  0  0  0  0
 23 21  1  0  0  0  0
 24 18  1  6  0  0  0
 24 19  1  0  0  0  0
 25 27  2  0  0  0  0
 27 26  1  0  0  0  0
 27  6  1  0  0  0  0
 28 29  1  0  0  0  0
 29 30  1  0  0  0  0
 30 31  1  0  0  0  0
 32 31  1  0  0  0  0
 32 33  1  0  0  0  0
 33 34  1  0  0  0  0
 35 36  1  0  0  0  0
 36 33  1  0  0  0  0
M  END
>  <MODEL>
4

>  <REMARK>
 VINA RESULT:      -6.7      4.071      8.330
  Name = 
  8 active torsions:
  status: ('A' for Active; 'I' for Inactive)
    1  A    between atoms: N_2  and  C_16
    2  A    between atoms: N_2  and  O_24
    3  A    between atoms: C_8  and  C_33
    4  A    between atoms: N_9  and  C_22
    5  A    between atoms: N_9  and  C_29
    6  A    between atoms: C_16  and  C_29
    7  A    between atoms: C_22  and  C_31
    8  A    between atoms: C_27  and  C_31
                            x       y       z     vdW  Elec       q    Type
                         _______ _______ _______ _____ _____    ______ ____

>  <TORSDO>
F 8

$$$$
=
 OpenBabel10232411093D

 36 41  0  0  1  0  0  0  0  0999 V2000
  190.8920  176.7320  138.8090 C   0  0  0  0  0  0  0  0  0  0  0  0
  189.1170  175.8150  137.2670 C   0  0  0  0  0  0  0  0  0  0  0  0
  188.9440  177.7960  139.9960 C   0  0  0  0  0  0  0  0  0  0  0  0
  188.4620  178.3820  138.7170 C   0  0  0  0  0  2  0  0  0  0  0  0
  189.4370  174.7040  136.3670 C   0  0  0  0  0  0  0  0  0  0  0  0
  188.6700  177.5230  142.3970 C   0  0  0  0  0  0  0  0  0  0  0  0
  186.1380  173.4590  135.7010 N   0  0  0  0  0  0  0  0  0  0  0  0
  188.2320  178.0480  141.1740 C   0  0  0  0  0  3  0  0  0  0  0  0
  188.7840  172.8490  134.8840 C   0  0  0  0  0  3  0  0  0  0  0  0
  192.3720  176.5040  138.8580 C   0  0  0  0  0  3  0  0  0  0  0  0
  187.8340  176.1980  137.4940 C   0  0  0  0  0  0  0  0  0  0  0  0
  188.4940  173.9160  135.8440 C   0  0  0  0  0  0  0  0  0  0  0  0
  187.0900  174.2080  136.1710 C   0  0  0  0  0  0  0  0  0  0  0  0
  187.3880  177.4950  138.1180 C   0  0  0  0  0  2  0  0  0  0  0  0
  190.0960  176.9950  140.0260 C   0  0  0  0  0  0  0  0  0  0  0  0
  187.7900  172.0840  134.4310 C   0  0  0  0  0  3  0  0  0  0  0  0
  190.4230  176.3780  137.6150 C   0  0  2  0  0  3  0  0  0  0  0  0
  190.9100  174.6480  136.0890 C   0  0  0  0  0  2  0  0  0  0  0  0
  192.6910  175.8080  137.5290 C   0  0  1  0  0  3  0  0  0  0  0  0
  186.3690  172.2300  134.9250 C   0  0  0  0  0  2  0  0  0  0  0  0
  190.5420  176.4890  141.2550 C   0  0  0  0  0  3  0  0  0  0  0  0
  186.7860  175.3690  136.9570 N   0  0  0  0  0  2  0  0  0  0  0  0
  189.8330  176.7460  142.4300 C   0  0  0  0  0  3  0  0  0  0  0  0
  191.4320  175.8040  136.8120 N   0  0  2  0  0  0  0  0  0  0  0  0
  188.5270  177.9170  144.7330 O   0  0  0  0  0  1  0  0  0  0  0  0
  186.5360  177.9110  143.6060 O   0  0  0  0  0  0  0  0  0  0  0  0
  187.9210  177.7900  143.6360 C   0  0  0  0  0  0  0  0  0  0  0  0
  193.7180  176.6100  136.7530 C   0  0  0  0  0  2  0  0  0  0  0  0
  194.5640  175.6800  135.9040 C   0  0  0  0  0  2  0  0  0  0  0  0
  194.8310  174.4580  136.6440 N   0  0  0  0  0  2  0  0  0  0  0  0
  196.2200  174.5050  137.0650 C   0  0  0  0  0  2  0  0  0  0  0  0
  196.3850  173.7710  138.3870 C   0  0  0  0  0  2  0  0  0  0  0  0
  196.8420  174.6910  139.4190 N   0  0  0  0  0  0  0  0  0  0  0  0
  195.7860  175.4840  139.7180 O   0  0  0  0  0  1  0  0  0  0  0  0
  198.9850  175.1040  139.4530 C   0  0  0  0  0  1  0  0  0  0  0  0
  197.7840  175.4870  138.8530 O   0  0  0  0  0  0  0  0  0  0  0  0
  1 10  2  0  0  0  0
  1 15  1  0  0  0  0
  2 11  2  0  0  0  0
  3 15  2  0  0  0  0
  3  8  1  0  0  0  0
  4  3  1  0  0  0  0
  5  2  1  0  0  0  0
  6 23  1  0  0  0  0
  6 27  1  0  0  0  0
  7 13  2  0  0  0  0
  8  6  2  0  0  0  0
  9 12  1  0  0  0  0
 11 14  1  0  0  0  0
 12 13  1  0  0  0  0
 12  5  2  0  0  0  0
 13 22  1  0  0  0  0
 14  4  1  0  0  0  0
 15 21  1  0  0  0  0
 16  9  2  0  0  0  0
 16 20  1  0  0  0  0
 17  2  1  1  0  0  0
 17  1  1  0  0  0  0
 18  5  1  0  0  0  0
 19 28  1  6  0  0  0
 19 10  1  0  0  0  0
 20  7  1  0  0  0  0
 21 23  2  0  0  0  0
 22 11  1  0  0  0  0
 24 18  1  1  0  0  0
 24 19  1  0  0  0  0
 24 17  1  0  0  0  0
 26 27  2  0  0  0  0
 27 25  1  0  0  0  0
 29 30  1  0  0  0  0
 29 28  1  0  0  0  0
 30 31  1  0  0  0  0
 31 32  1  0  0  0  0
 32 33  1  0  0  0  0
 33 34  1  0  0  0  0
 36 33  1  0  0  0  0
 36 35  1  0  0  0  0
M  END
>  <MODEL>
5

>  <REMARK>
 VINA RESULT:      -6.5      3.140      8.827
  Name = 
  8 active torsions:
  status: ('A' for Active; 'I' for Inactive)
    1  A    between atoms: N_2  and  C_16
    2  A    between atoms: N_2  and  O_24
    3  A    between atoms: C_8  and  C_33
    4  A    between atoms: N_9  and  C_22
    5  A    between atoms: N_9  and  C_29
    6  A    between atoms: C_16  and  C_29
    7  A    between atoms: C_22  and  C_31
    8  A    between atoms: C_27  and  C_31
                            x       y       z     vdW  Elec       q    Type
                         _______ _______ _______ _____ _____    ______ ____

>  <TORSDO>
F 8

$$$$
=
 OpenBabel10232411093D

 36 41  0  0  1  0  0  0  0  0999 V2000
  184.6500  178.0240  138.7590 C   0  0  0  0  0  0  0  0  0  0  0  0
  183.5560  176.0560  137.6190 C   0  0  0  0  0  0  0  0  0  0  0  0
  182.3140  178.5360  139.5440 C   0  0  0  0  0  0  0  0  0  0  0  0
  181.8100  178.4620  138.1470 C   0  0  0  0  0  2  0  0  0  0  0  0
  184.3800  174.9460  137.1330 C   0  0  0  0  0  0  0  0  0  0  0  0
  181.8680  178.9260  141.9030 C   0  0  0  0  0  0  0  0  0  0  0  0
  181.9010  172.3570  136.9410 N   0  0  0  0  0  0  0  0  0  0  0  0
  181.4200  178.8330  140.5790 C   0  0  0  0  0  3  0  0  0  0  0  0
  184.6610  172.6270  136.3490 C   0  0  0  0  0  3  0  0  0  0  0  0
  186.0890  178.4280  138.8680 C   0  0  0  0  0  3  0  0  0  0  0  0
  182.2060  175.9490  137.7170 C   0  0  0  0  0  0  0  0  0  0  0  0
  183.8750  173.7300  136.9070 C   0  0  0  0  0  0  0  0  0  0  0  0
  182.4350  173.5270  137.1300 C   0  0  0  0  0  0  0  0  0  0  0  0
  181.2310  177.0860  137.8820 C   0  0  0  0  0  2  0  0  0  0  0  0
  183.6700  178.3090  139.8270 C   0  0  0  0  0  0  0  0  0  0  0  0
  184.0920  171.4330  136.1810 C   0  0  0  0  0  3  0  0  0  0  0  0
  184.5010  177.1670  137.7520 C   0  0  2  0  0  3  0  0  0  0  0  0
  185.7870  175.3960  136.8780 C   0  0  0  0  0  2  0  0  0  0  0  0
  186.8080  177.5460  137.8410 C   0  0  1  0  0  3  0  0  0  0  0  0
  182.6710  171.1480  136.6120 C   0  0  0  0  0  2  0  0  0  0  0  0
  184.1180  178.4230  141.1510 C   0  0  0  0  0  3  0  0  0  0  0  0
  181.6220  174.6520  137.4920 N   0  0  0  0  0  2  0  0  0  0  0  0
  183.2250  178.7240  142.1810 C   0  0  0  0  0  3  0  0  0  0  0  0
  185.7420  176.8240  137.1750 N   0  0  2  0  0  0  0  0  0  0  0  0
  180.7750  178.4400  143.9520 O   0  0  0  0  0  1  0  0  0  0  0  0
  180.2010  180.4250  142.9700 O   0  0  0  0  0  0  0  0  0  0  0  0
  180.9270  179.2390  142.9910 C   0  0  0  0  0  0  0  0  0  0  0  0
  187.5460  178.4090  136.8350 C   0  0  0  0  0  2  0  0  0  0  0  0
  188.8970  178.8100  137.3930 C   0  0  0  0  0  2  0  0  0  0  0  0
  189.5320  177.6540  138.0030 N   0  0  0  0  0  2  0  0  0  0  0  0
  189.8090  177.9970  139.3870 C   0  0  0  0  0  2  0  0  0  0  0  0
  190.3360  176.7760  140.1250 C   0  0  0  0  0  2  0  0  0  0  0  0
  190.3870  177.0380  141.5560 N   0  0  0  0  0  0  0  0  0  0  0  0
  191.6750  177.3420  141.8430 O   0  0  0  0  0  1  0  0  0  0  0  0
  189.0530  176.1630  143.0470 C   0  0  0  0  0  1  0  0  0  0  0  0
  190.1110  175.8670  142.1850 O   0  0  0  0  0  0  0  0  0  0  0  0
  1 10  2  0  0  0  0
  1 15  1  0  0  0  0
  2 11  2  0  0  0  0
  3 15  2  0  0  0  0
  3  8  1  0  0  0  0
  4  3  1  0  0  0  0
  5  2  1  0  0  0  0
  6 23  1  0  0  0  0
  6 27  1  0  0  0  0
  7 13  2  0  0  0  0
  8  6  2  0  0  0  0
  9 12  1  0  0  0  0
 11 14  1  0  0  0  0
 12 13  1  0  0  0  0
 12  5  2  0  0  0  0
 13 22  1  0  0  0  0
 14  4  1  0  0  0  0
 15 21  1  0  0  0  0
 16  9  2  0  0  0  0
 16 20  1  0  0  0  0
 17  2  1  1  0  0  0
 17  1  1  0  0  0  0
 18  5  1  0  0  0  0
 19 28  1  6  0  0  0
 19 10  1  0  0  0  0
 20  7  1  0  0  0  0
 21 23  2  0  0  0  0
 22 11  1  0  0  0  0
 24 18  1  1  0  0  0
 24 17  1  0  0  0  0
 24 19  1  0  0  0  0
 26 27  2  0  0  0  0
 27 25  1  0  0  0  0
 28 29  1  0  0  0  0
 29 30  1  0  0  0  0
 30 31  1  0  0  0  0
 31 32  1  0  0  0  0
 32 33  1  0  0  0  0
 33 34  1  0  0  0  0
 33 36  1  0  0  0  0
 36 35  1  0  0  0  0
M  END
>  <MODEL>
6

>  <REMARK>
 VINA RESULT:      -6.5      3.708      9.780
  Name = 
  8 active torsions:
  status: ('A' for Active; 'I' for Inactive)
    1  A    between atoms: N_2  and  C_16
    2  A    between atoms: N_2  and  O_24
    3  A    between atoms: C_8  and  C_33
    4  A    between atoms: N_9  and  C_22
    5  A    between atoms: N_9  and  C_29
    6  A    between atoms: C_16  and  C_29
    7  A    between atoms: C_22  and  C_31
    8  A    between atoms: C_27  and  C_31
                            x       y       z     vdW  Elec       q    Type
                         _______ _______ _______ _____ _____    ______ ____

>  <TORSDO>
F 8

$$$$
=
 OpenBabel10232411093D

 36 41  0  0  1  0  0  0  0  0999 V2000
  189.9220  176.8400  138.8380 C   0  0  0  0  0  0  0  0  0  0  0  0
  188.4960  175.4600  137.2790 C   0  0  0  0  0  0  0  0  0  0  0  0
  187.7660  178.0450  139.3250 C   0  0  0  0  0  0  0  0  0  0  0  0
  187.5390  178.2620  137.8710 C   0  0  0  0  0  2  0  0  0  0  0  0
  189.0010  174.1810  136.7710 C   0  0  0  0  0  0  0  0  0  0  0  0
  187.0280  178.3640  141.6200 C   0  0  0  0  0  0  0  0  0  0  0  0
  185.9110  172.6080  135.8400 N   0  0  0  0  0  0  0  0  0  0  0  0
  186.8340  178.5390  140.2440 C   0  0  0  0  0  3  0  0  0  0  0  0
  188.6740  171.9780  135.7180 C   0  0  0  0  0  3  0  0  0  0  0  0
  191.3670  176.7230  139.2200 C   0  0  0  0  0  3  0  0  0  0  0  0
  187.1900  175.8080  137.1550 C   0  0  0  0  0  0  0  0  0  0  0  0
  188.1880  173.2310  136.3010 C   0  0  0  0  0  0  0  0  0  0  0  0
  186.7440  173.5080  136.2720 C   0  0  0  0  0  0  0  0  0  0  0  0
  186.6150  177.1890  137.3290 C   0  0  0  0  0  2  0  0  0  0  0  0
  188.9000  177.3490  139.7740 C   0  0  0  0  0  0  0  0  0  0  0  0
  187.7980  171.0650  135.2990 C   0  0  0  0  0  3  0  0  0  0  0  0
  189.7020  176.1710  137.7090 C   0  0  2  0  0  3  0  0  0  0  0  0
  190.4990  174.1480  136.7980 C   0  0  0  0  0  2  0  0  0  0  0  0
  191.9490  175.7390  138.1990 C   0  0  1  0  0  3  0  0  0  0  0  0
  186.3050  171.2410  135.4640 C   0  0  0  0  0  2  0  0  0  0  0  0
  189.1010  177.1950  141.1540 C   0  0  0  0  0  3  0  0  0  0  0  0
  186.2780  174.8080  136.6620 N   0  0  0  0  0  2  0  0  0  0  0  0
  188.1710  177.6930  142.0690 C   0  0  0  0  0  3  0  0  0  0  0  0
  190.8550  175.4780  137.2840 N   0  0  2  0  0  0  0  0  0  0  0  0
  185.2530  179.8040  142.2560 O   0  0  0  0  0  0  0  0  0  0  0  0
  185.9830  178.3590  143.8720 O   0  0  0  0  0  1  0  0  0  0  0  0
  186.0470  178.8840  142.5860 C   0  0  0  0  0  0  0  0  0  0  0  0
  193.1000  176.3830  137.4490 C   0  0  0  0  0  2  0  0  0  0  0  0
  194.0020  175.3110  136.8700 C   0  0  0  0  0  2  0  0  0  0  0  0
  194.2070  175.5630  135.4530 N   0  0  0  0  0  2  0  0  0  0  0  0
  195.5890  175.9770  135.2860 C   0  0  0  0  0  2  0  0  0  0  0  0
  196.5030  175.0550  136.0790 C   0  0  0  0  0  2  0  0  0  0  0  0
  197.6590  175.7920  136.5680 N   0  0  0  0  0  0  0  0  0  0  0  0
  198.7230  175.3540  135.8540 O   0  0  0  0  0  1  0  0  0  0  0  0
  198.5930  174.2210  137.7620 C   0  0  0  0  0  1  0  0  0  0  0  0
  197.8620  175.4070  137.8540 O   0  0  0  0  0  0  0  0  0  0  0  0
  1 10  2  0  0  0  0
  1 15  1  0  0  0  0
  3 15  2  0  0  0  0
  3  8  1  0  0  0  0
  4  3  1  0  0  0  0
  5 18  1  0  0  0  0
  5  2  1  0  0  0  0
  6 23  1  0  0  0  0
  6 27  1  0  0  0  0
  7 13  2  0  0  0  0
  8  6  2  0  0  0  0
  9 12  1  0  0  0  0
 11  2  2  0  0  0  0
 11 14  1  0  0  0  0
 12  5  2  0  0  0  0
 13 12  1  0  0  0  0
 13 22  1  0  0  0  0
 14  4  1  0  0  0  0
 15 21  1  0  0  0  0
 16 20  1  0  0  0  0
 16  9  2  0  0  0  0
 17  2  1  1  0  0  0
 17  1  1  0  0  0  0
 19 28  1  6  0  0  0
 19 10  1  0  0  0  0
 20  7  1  0  0  0  0
 21 23  2  0  0  0  0
 22 11  1  0  0  0  0
 24 18  1  1  0  0  0
 24 17  1  0  0  0  0
 24 19  1  0  0  0  0
 25 27  2  0  0  0  0
 27 26  1  0  0  0  0
 29 28  1  0  0  0  0
 30 29  1  0  0  0  0
 31 30  1  0  0  0  0
 31 32  1  0  0  0  0
 32 33  1  0  0  0  0
 33 36  1  0  0  0  0
 34 33  1  0  0  0  0
 35 36  1  0  0  0  0
M  END
>  <MODEL>
7

>  <REMARK>
 VINA RESULT:      -6.5      3.300      9.248
  Name = 
  8 active torsions:
  status: ('A' for Active; 'I' for Inactive)
    1  A    between atoms: N_2  and  C_16
    2  A    between atoms: N_2  and  O_24
    3  A    between atoms: C_8  and  C_33
    4  A    between atoms: N_9  and  C_22
    5  A    between atoms: N_9  and  C_29
    6  A    between atoms: C_16  and  C_29
    7  A    between atoms: C_22  and  C_31
    8  A    between atoms: C_27  and  C_31
                            x       y       z     vdW  Elec       q    Type
                         _______ _______ _______ _____ _____    ______ ____

>  <TORSDO>
F 8

$$$$
=
 OpenBabel10232411093D

 36 41  0  0  1  0  0  0  0  0999 V2000
  189.7520  176.7710  138.4520 C   0  0  0  0  0  0  0  0  0  0  0  0
  190.2930  177.3400  140.8510 C   0  0  0  0  0  0  0  0  0  0  0  0
  192.2220  176.3220  138.2740 C   0  0  0  0  0  0  0  0  0  0  0  0
  192.5250  177.6620  138.8420 C   0  0  0  0  0  2  0  0  0  0  0  0
  189.2150  177.4210  141.8400 C   0  0  0  0  0  0  0  0  0  0  0  0
  193.0250  174.2180  137.3540 C   0  0  0  0  0  0  0  0  0  0  0  0
  191.1010  176.9890  144.8640 N   0  0  0  0  0  0  0  0  0  0  0  0
  193.2790  175.4800  137.9080 C   0  0  0  0  0  3  0  0  0  0  0  0
  188.3940  177.4610  144.1630 C   0  0  0  0  0  3  0  0  0  0  0  0
  188.4440  176.6970  137.7240 C   0  0  0  0  0  3  0  0  0  0  0  0
  191.5980  177.2990  141.2230 C   0  0  0  0  0  0  0  0  0  0  0  0
  189.4430  177.3070  143.1510 C   0  0  0  0  0  0  0  0  0  0  0  0
  190.8310  177.1230  143.5990 C   0  0  0  0  0  0  0  0  0  0  0  0
  192.7880  177.5410  140.3310 C   0  0  0  0  0  2  0  0  0  0  0  0
  190.8940  175.9000  138.1070 C   0  0  0  0  0  0  0  0  0  0  0  0
  188.6950  177.3010  145.4510 C   0  0  0  0  0  3  0  0  0  0  0  0
  189.6060  177.4850  139.5650 C   0  0  2  0  0  3  0  0  0  0  0  0
  187.9020  177.7110  141.1780 C   0  0  0  0  0  2  0  0  0  0  0  0
  187.4450  177.3690  138.6740 C   0  0  1  0  0  3  0  0  0  0  0  0
  190.0760  176.8940  145.9150 C   0  0  0  0  0  2  0  0  0  0  0  0
  190.6450  174.6450  137.5330 C   0  0  0  0  0  3  0  0  0  0  0  0
  191.8870  177.1640  142.6270 N   0  0  0  0  0  2  0  0  0  0  0  0
  191.7000  173.8080  137.1640 C   0  0  0  0  0  3  0  0  0  0  0  0
  188.2600  177.8550  139.7710 N   0  0  2  0  0  0  0  0  0  0  0  0
  193.9170  172.2820  136.3120 O   0  0  0  0  0  0  0  0  0  0  0  0
  195.4430  173.6540  137.3220 O   0  0  0  0  0  1  0  0  0  0  0  0
  194.1370  173.3330  136.9690 C   0  0  0  0  0  0  0  0  0  0  0  0
  186.7700  178.5380  137.9830 C   0  0  0  0  0  2  0  0  0  0  0  0
  185.2750  178.4880  138.2260 C   0  0  0  0  0  2  0  0  0  0  0  0
  184.9180  179.4490  139.2550 N   0  0  0  0  0  2  0  0  0  0  0  0
  184.3710  178.7000  140.3720 C   0  0  0  0  0  2  0  0  0  0  0  0
  182.8850  178.9900  140.5110 C   0  0  0  0  0  2  0  0  0  0  0  0
  182.1060  177.9490  139.8560 N   0  0  0  0  0  0  0  0  0  0  0  0
  181.4740  178.5430  138.8160 O   0  0  0  0  0  1  0  0  0  0  0  0
  180.9520  178.6650  141.5650 C   0  0  0  0  0  1  0  0  0  0  0  0
  181.1440  177.5620  140.7320 O   0  0  0  0  0  0  0  0  0  0  0  0
  2 11  2  0  0  0  0
  2  5  1  0  0  0  0
  3  4  1  0  0  0  0
  4 14  1  0  0  0  0
  5 12  2  0  0  0  0
  6  8  1  0  0  0  0
  7 20  1  0  0  0  0
  8  3  2  0  0  0  0
  9 16  2  0  0  0  0
 10  1  2  0  0  0  0
 10 19  1  0  0  0  0
 11 22  1  0  0  0  0
 12 13  1  0  0  0  0
 12  9  1  0  0  0  0
 13  7  2  0  0  0  0
 14 11  1  0  0  0  0
 15  3  1  0  0  0  0
 15  1  1  0  0  0  0
 16 20  1  0  0  0  0
 17  1  1  1  0  0  0
 17 24  1  0  0  0  0
 17  2  1  0  0  0  0
 18  5  1  0  0  0  0
 19 28  1  6  0  0  0
 19 24  1  0  0  0  0
 21 15  2  0  0  0  0
 22 13  1  0  0  0  0
 23  6  2  0  0  0  0
 23 21  1  0  0  0  0
 24 18  1  1  0  0  0
 25 27  2  0  0  0  0
 27 26  1  0  0  0  0
 27  6  1  0  0  0  0
 28 29  1  0  0  0  0
 29 30  1  0  0  0  0
 30 31  1  0  0  0  0
 31 32  1  0  0  0  0
 33 32  1  0  0  0  0
 33 36  1  0  0  0  0
 34 33  1  0  0  0  0
 36 35  1  0  0  0  0
M  END
>  <MODEL>
8

>  <REMARK>
 VINA RESULT:      -6.4      1.436      1.605
  Name = 
  8 active torsions:
  status: ('A' for Active; 'I' for Inactive)
    1  A    between atoms: N_2  and  C_16
    2  A    between atoms: N_2  and  O_24
    3  A    between atoms: C_8  and  C_33
    4  A    between atoms: N_9  and  C_22
    5  A    between atoms: N_9  and  C_29
    6  A    between atoms: C_16  and  C_29
    7  A    between atoms: C_22  and  C_31
    8  A    between atoms: C_27  and  C_31
                            x       y       z     vdW  Elec       q    Type
                         _______ _______ _______ _____ _____    ______ ____

>  <TORSDO>
F 8

$$$$
=
 OpenBabel10232411093D

 36 41  0  0  1  0  0  0  0  0999 V2000
  185.5350  178.3580  139.8710 C   0  0  0  0  0  0  0  0  0  0  0  0
  183.4790  177.1500  139.0460 C   0  0  0  0  0  0  0  0  0  0  0  0
  184.0520  179.0300  141.7910 C   0  0  0  0  0  0  0  0  0  0  0  0
  183.0220  179.5330  140.8430 C   0  0  0  0  0  2  0  0  0  0  0  0
  183.6040  176.1280  138.0020 C   0  0  0  0  0  0  0  0  0  0  0  0
  184.7790  178.6800  144.0860 C   0  0  0  0  0  0  0  0  0  0  0  0
  180.5590  174.3040  138.5340 N   0  0  0  0  0  0  0  0  0  0  0  0
  183.8210  179.1310  143.1680 C   0  0  0  0  0  3  0  0  0  0  0  0
  182.7430  174.2040  136.7280 C   0  0  0  0  0  3  0  0  0  0  0  0
  186.9340  178.4070  139.3370 C   0  0  0  0  0  3  0  0  0  0  0  0
  182.3400  177.2870  139.7720 C   0  0  0  0  0  0  0  0  0  0  0  0
  182.6760  175.1870  137.8120 C   0  0  0  0  0  0  0  0  0  0  0  0
  181.4820  175.2100  138.6690 C   0  0  0  0  0  0  0  0  0  0  0  0
  181.9630  178.4710  140.6240 C   0  0  0  0  0  2  0  0  0  0  0  0
  185.2410  178.4550  141.3150 C   0  0  0  0  0  0  0  0  0  0  0  0
  181.7930  173.2750  136.6230 C   0  0  0  0  0  3  0  0  0  0  0  0
  184.7050  177.9400  138.9180 C   0  0  2  0  0  3  0  0  0  0  0  0
  184.8410  176.3490  137.1840 C   0  0  0  0  0  2  0  0  0  0  0  0
  186.8230  177.7990  137.9330 C   0  0  1  0  0  3  0  0  0  0  0  0
  180.6710  173.1490  137.6300 C   0  0  0  0  0  2  0  0  0  0  0  0
  186.2060  178.0240  142.2380 C   0  0  0  0  0  3  0  0  0  0  0  0
  181.3180  176.2860  139.6060 N   0  0  0  0  0  2  0  0  0  0  0  0
  185.9760  178.1310  143.6110 C   0  0  0  0  0  3  0  0  0  0  0  0
  185.4030  177.5720  137.7480 N   0  0  2  0  0  0  0  0  0  0  0  0
  183.4140  179.1620  145.9660 O   0  0  0  0  0  0  0  0  0  0  0  0
  185.5420  178.4710  146.4390 O   0  0  0  0  0  1  0  0  0  0  0  0
  184.5360  178.7880  145.5330 C   0  0  0  0  0  0  0  0  0  0  0  0
  187.3210  178.7870  136.8950 C   0  0  0  0  0  2  0  0  0  0  0  0
  188.8370  178.7900  136.8720 C   0  0  0  0  0  2  0  0  0  0  0  0
  189.3240  177.4220  136.8130 N   0  0  0  0  0  2  0  0  0  0  0  0
  190.4830  177.3400  137.6850 C   0  0  0  0  0  2  0  0  0  0  0  0
  190.1330  176.5490  138.9360 C   0  0  0  0  0  2  0  0  0  0  0  0
  190.4760  177.3140  140.1260 N   0  0  0  0  0  0  0  0  0  0  0  0
  191.8270  177.3110  140.2070 O   0  0  0  0  0  1  0  0  0  0  0  0
  189.9170  177.5530  142.2230 C   0  0  0  0  0  1  0  0  0  0  0  0
  190.0160  176.6140  141.1940 O   0  0  0  0  0  0  0  0  0  0  0  0
  1 15  1  0  0  0  0
  2 11  2  0  0  0  0
  3  8  1  0  0  0  0
  4  3  1  0  0  0  0
  5  2  1  0  0  0  0
  6 27  1  0  0  0  0
  7 13  2  0  0  0  0
  8  6  2  0  0  0  0
  9 12  1  0  0  0  0
 10  1  2  0  0  0  0
 11 14  1  0  0  0  0
 12  5  2  0  0  0  0
 12 13  1  0  0  0  0
 13 22  1  0  0  0  0
 14  4  1  0  0  0  0
 15  3  2  0  0  0  0
 15 21  1  0  0  0  0
 16  9  2  0  0  0  0
 16 20  1  0  0  0  0
 17  2  1  1  0  0  0
 17  1  1  0  0  0  0
 18  5  1  0  0  0  0
 19 28  1  6  0  0  0
 19 10  1  0  0  0  0
 20  7  1  0  0  0  0
 21 23  2  0  0  0  0
 22 11  1  0  0  0  0
 23  6  1  0  0  0  0
 24 18  1  1  0  0  0
 24 19  1  0  0  0  0
 24 17  1  0  0  0  0
 27 25  2  0  0  0  0
 27 26  1  0  0  0  0
 29 28  1  0  0  0  0
 30 29  1  0  0  0  0
 30 31  1  0  0  0  0
 31 32  1  0  0  0  0
 32 33  1  0  0  0  0
 33 34  1  0  0  0  0
 33 36  1  0  0  0  0
 36 35  1  0  0  0  0
M  END
>  <MODEL>
9

>  <REMARK>
 VINA RESULT:      -6.3      3.302      9.050
  Name = 
  8 active torsions:
  status: ('A' for Active; 'I' for Inactive)
    1  A    between atoms: N_2  and  C_16
    2  A    between atoms: N_2  and  O_24
    3  A    between atoms: C_8  and  C_33
    4  A    between atoms: N_9  and  C_22
    5  A    between atoms: N_9  and  C_29
    6  A    between atoms: C_16  and  C_29
    7  A    between atoms: C_22  and  C_31
    8  A    between atoms: C_27  and  C_31
                            x       y       z     vdW  Elec       q    Type
                         _______ _______ _______ _____ _____    ______ ____

>  <TORSDO>
F 8

$$$$
