=
 OpenBabel10232412053D

 42 47  0  0  1  0  0  0  0  0999 V2000
  181.5720  177.4260  137.9670 C   0  0  1  0  0  3  0  0  0  0  0  0
  184.5150  178.0250  141.2590 S   0  0  0  0  0  0  0  0  0  0  0  0
  183.1290  178.6750  142.1740 C   0  0  0  0  0  0  0  0  0  0  0  0
  181.3990  177.6410  139.4780 C   0  0  0  0  0  2  0  0  0  0  0  0
  182.9860  177.7510  137.4650 C   0  0  0  0  0  2  0  0  0  0  0  0
  182.0660  178.9970  141.4390 C   0  0  0  0  0  0  0  0  0  0  0  0
  180.7900  179.5160  142.0230 C   0  0  0  0  0  1  0  0  0  0  0  0
  182.2310  178.8260  139.9700 C   0  0  1  0  0  3  0  0  0  0  0  0
  184.0340  177.6260  138.5740 C   0  0  2  0  0  3  0  0  0  0  0  0
  183.7360  178.6060  139.7150 C   0  0  2  0  0  3  0  0  0  0  0  0
  186.0670  176.9230  137.5850 C   0  0  0  0  0  3  0  0  0  0  0  0
  185.3500  177.8810  138.0480 N   0  0  0  0  0  0  0  0  0  0  0  0
  188.4750  176.9640  138.1380 C   0  0  2  0  0  3  0  0  0  0  0  0
  187.5630  178.6310  136.6650 C   0  0  0  0  0  3  0  0  0  0  0  0
  189.9060  177.0820  137.6360 C   0  0  1  0  0  0  0  0  0  0  0  0
  187.4320  177.1950  137.0420 C   0  0  2  0  0  3  0  0  0  0  0  0
  190.1480  177.1520  136.2580 O   0  0  0  0  0  1  0  0  0  0  0  0
  188.5610  179.2090  137.3150 C   0  0  0  0  0  3  0  0  0  0  0  0
  189.2430  178.2910  138.2800 C   0  0  1  0  0  3  0  0  0  0  0  0
  190.9360  176.4630  138.4590 N   0  0  0  0  0  2  0  0  0  0  0  0
  192.4190  174.7510  137.5950 C   0  0  0  0  0  1  0  0  0  0  0  0
  192.1040  176.2320  137.6240 C   0  0  0  0  0  2  0  0  0  0  0  0
  181.2150  175.9940  137.5950 C   0  0  0  0  0  2  0  0  0  0  0  0
  182.0580  175.5000  136.4300 C   0  0  0  0  0  2  0  0  0  0  0  0
  182.5860  174.1930  136.7160 N   0  0  0  0  0  0  0  0  0  0  0  0
  183.6250  174.0690  137.4540 C   0  0  0  0  0  2  0  0  0  0  0  0
  183.1900  178.8070  143.6650 C   0  0  0  0  0  2  0  0  0  0  0  0
  184.6180  179.0450  144.1160 C   0  0  0  0  0  2  0  0  0  0  0  0
  184.7660  178.6290  145.5660 C   0  0  0  0  0  2  0  0  0  0  0  0
  186.9340  177.8850  144.7970 C   0  0  0  0  0  0  0  0  0  0  0  0
  187.9180  177.1540  147.2310 N   0  0  0  0  0  2  0  0  0  0  0  0
  187.8790  177.6750  143.9300 C   0  0  0  0  0  3  0  0  0  0  0  0
  186.6490  177.8890  147.2010 C   0  0  0  0  0  2  0  0  0  0  0  0
  190.1370  176.7720  143.3080 N   0  0  0  0  0  0  0  0  0  0  0  0
  191.1610  177.0390  145.9400 C   0  0  0  0  0  2  0  0  0  0  0  0
  191.5520  176.5260  143.5650 C   0  0  0  0  0  2  0  0  0  0  0  0
  188.9760  178.0390  146.7510 C   0  0  0  0  0  2  0  0  0  0  0  0
  191.7240  176.0040  144.9780 C   0  0  0  0  0  2  0  0  0  0  0  0
  189.7360  177.4020  145.6160 C   0  0  0  0  0  0  0  0  0  0  0  0
  189.6260  176.4170  141.9920 C   0  0  0  0  0  1  0  0  0  0  0  0
  189.2660  177.3010  144.3340 C   0  0  0  0  0  0  0  0  0  0  0  0
  186.1200  178.0550  145.8000 C   0  0  0  0  0  0  0  0  0  0  0  0
  1 23  1  1  0  0  0
  1  4  1  0  0  0  0
  2  3  1  0  0  0  0
  3 27  1  0  0  0  0
  5  1  1  0  0  0  0
  5  9  1  0  0  0  0
  6  7  1  0  0  0  0
  6  3  2  0  0  0  0
  8  4  1  1  0  0  0
  8  6  1  0  0  0  0
  9 12  1  6  0  0  0
  9 10  1  0  0  0  0
 10  8  1  0  0  0  0
 10  2  1  1  0  0  0
 11 12  2  0  0  0  0
 13 19  1  0  0  0  0
 14 16  1  0  0  0  0
 14 18  2  0  0  0  0
 15 13  1  0  0  0  0
 15 19  1  0  0  0  0
 15 20  1  0  0  0  0
 16 11  1  0  0  0  0
 16 13  1  0  0  0  0
 17 15  1  0  0  0  0
 18 19  1  0  0  0  0
 21 22  1  0  0  0  0
 22 20  1  0  0  0  0
 24 25  1  0  0  0  0
 24 23  1  0  0  0  0
 25 26  2  0  0  0  0
 27 28  1  0  0  0  0
 28 29  1  0  0  0  0
 29 42  1  0  0  0  0
 30 42  2  0  0  0  0
 32 41  1  0  0  0  0
 32 30  2  0  0  0  0
 33 31  1  0  0  0  0
 34 36  1  0  0  0  0
 34 41  1  0  0  0  0
 36 38  1  0  0  0  0
 37 31  1  0  0  0  0
 38 35  1  0  0  0  0
 39 35  1  0  0  0  0
 39 37  1  0  0  0  0
 40 34  1  0  0  0  0
 41 39  2  0  0  0  0
 42 33  1  0  0  0  0
M  END
>  <MODEL>
1

>  <REMARK>
 VINA RESULT:      -8.4      0.000      0.000
  Name = 
  11 active torsions:
  status: ('A' for Active; 'I' for Inactive)
    1  A    between atoms: N_1  and  C_9
    2  A    between atoms: C_3  and  C_6
    3  A    between atoms: C_6  and  C_9
    4  A    between atoms: C_10  and  C_18
    5  A    between atoms: C_10  and  C_35
    6  A    between atoms: C_11  and  C_35
    7  A    between atoms: C_16  and  C_27
    8  A    between atoms: C_18  and  C_41
    9  A    between atoms: N_21  and  C_25
   10  A    between atoms: N_21  and  C_40
   11  A    between atoms: N_29  and  C_38
                            x       y       z     vdW  Elec       q    Type
                         _______ _______ _______ _____ _____    ______ ____

>  <TORSDO>
F 11

$$$$
=
 OpenBabel10232412053D

 42 47  0  0  1  0  0  0  0  0999 V2000
  180.7210  177.5240  137.3820 C   0  0  1  0  0  3  0  0  0  0  0  0
  183.6220  177.9040  140.7430 S   0  0  0  0  0  0  0  0  0  0  0  0
  182.2700  178.6660  141.6220 C   0  0  0  0  0  0  0  0  0  0  0  0
  180.5300  177.7610  138.8870 C   0  0  0  0  0  2  0  0  0  0  0  0
  182.1690  177.7330  136.9130 C   0  0  0  0  0  2  0  0  0  0  0  0
  181.2550  179.0690  140.8600 C   0  0  0  0  0  0  0  0  0  0  0  0
  180.0100  179.6910  141.4100 C   0  0  0  0  0  1  0  0  0  0  0  0
  181.4410  178.8780  139.3960 C   0  0  1  0  0  3  0  0  0  0  0  0
  183.1760  177.5310  138.0480 C   0  0  2  0  0  3  0  0  0  0  0  0
  182.9300  178.5380  139.1790 C   0  0  2  0  0  3  0  0  0  0  0  0
  185.2630  176.6500  137.3600 C   0  0  0  0  0  3  0  0  0  0  0  0
  184.5210  177.6770  137.5550 N   0  0  0  0  0  0  0  0  0  0  0  0
  187.6130  177.0260  138.0240 C   0  0  2  0  0  3  0  0  0  0  0  0
  186.7660  178.0400  136.0160 C   0  0  0  0  0  3  0  0  0  0  0  0
  189.0760  177.0590  137.6080 C   0  0  1  0  0  0  0  0  0  0  0  0
  186.6570  176.8090  136.8490 C   0  0  2  0  0  3  0  0  0  0  0  0
  189.4300  176.6770  136.3070 O   0  0  0  0  0  1  0  0  0  0  0  0
  187.6840  178.8650  136.4960 C   0  0  0  0  0  3  0  0  0  0  0  0
  188.3160  178.3690  137.7580 C   0  0  1  0  0  3  0  0  0  0  0  0
  190.0560  176.8190  138.6590 N   0  0  0  0  0  2  0  0  0  0  0  0
  190.4940  177.1010  141.0260 C   0  0  0  0  0  1  0  0  0  0  0  0
  189.4520  177.1810  139.9310 C   0  0  0  0  0  2  0  0  0  0  0  0
  180.2610  176.1240  137.0050 C   0  0  0  0  0  2  0  0  0  0  0  0
  180.4720  175.1460  138.1500 C   0  0  0  0  0  2  0  0  0  0  0  0
  180.8950  173.8690  137.6420 N   0  0  0  0  0  0  0  0  0  0  0  0
  181.9090  173.7930  136.8640 C   0  0  0  0  0  2  0  0  0  0  0  0
  182.3050  178.8010  143.1130 C   0  0  0  0  0  2  0  0  0  0  0  0
  183.6190  179.4150  143.5580 C   0  0  0  0  0  2  0  0  0  0  0  0
  184.1510  178.6550  144.7560 C   0  0  0  0  0  2  0  0  0  0  0  0
  186.3510  178.1480  145.6210 C   0  0  0  0  0  0  0  0  0  0  0  0
  187.6290  178.0090  143.2170 N   0  0  0  0  0  2  0  0  0  0  0  0
  187.2350  177.8760  146.5340 C   0  0  0  0  0  3  0  0  0  0  0  0
  186.1650  178.0980  143.2070 C   0  0  0  0  0  2  0  0  0  0  0  0
  189.6020  177.4390  147.2470 N   0  0  0  0  0  0  0  0  0  0  0  0
  190.3650  176.4320  144.7080 C   0  0  0  0  0  2  0  0  0  0  0  0
  190.9220  176.8450  147.0690 C   0  0  0  0  0  2  0  0  0  0  0  0
  188.0110  176.7330  143.8160 C   0  0  0  0  0  2  0  0  0  0  0  0
  191.3850  177.0650  145.6430 C   0  0  0  0  0  2  0  0  0  0  0  0
  188.9710  176.9410  144.9590 C   0  0  0  0  0  0  0  0  0  0  0  0
  189.3430  178.1260  148.5050 C   0  0  0  0  0  1  0  0  0  0  0  0
  188.6070  177.3910  146.1990 C   0  0  0  0  0  0  0  0  0  0  0  0
  185.6020  178.3680  144.5780 C   0  0  0  0  0  0  0  0  0  0  0  0
  1 23  1  1  0  0  0
  1  4  1  0  0  0  0
  2  3  1  0  0  0  0
  3 27  1  0  0  0  0
  5  1  1  0  0  0  0
  5  9  1  0  0  0  0
  6  7  1  0  0  0  0
  6  3  2  0  0  0  0
  8  4  1  1  0  0  0
  8  6  1  0  0  0  0
  9 12  1  6  0  0  0
  9 10  1  0  0  0  0
 10  8  1  0  0  0  0
 10  2  1  1  0  0  0
 11 12  2  0  0  0  0
 14 18  2  0  0  0  0
 14 16  1  0  0  0  0
 15 19  1  0  0  0  0
 15 13  1  0  0  0  0
 15 20  1  0  0  0  0
 16 11  1  0  0  0  0
 16 13  1  0  0  0  0
 17 15  1  0  0  0  0
 18 19  1  0  0  0  0
 19 13  1  0  0  0  0
 20 22  1  0  0  0  0
 22 21  1  0  0  0  0
 23 24  1  0  0  0  0
 25 24  1  0  0  0  0
 26 25  2  0  0  0  0
 27 28  1  0  0  0  0
 28 29  1  0  0  0  0
 30 32  2  0  0  0  0
 31 37  1  0  0  0  0
 33 31  1  0  0  0  0
 33 42  1  0  0  0  0
 34 40  1  0  0  0  0
 35 39  1  0  0  0  0
 35 38  1  0  0  0  0
 36 34  1  0  0  0  0
 37 39  1  0  0  0  0
 38 36  1  0  0  0  0
 39 41  2  0  0  0  0
 41 32  1  0  0  0  0
 41 34  1  0  0  0  0
 42 29  1  0  0  0  0
 42 30  2  0  0  0  0
M  END
>  <MODEL>
2

>  <REMARK>
 VINA RESULT:      -8.4      1.380      2.238
  Name = 
  11 active torsions:
  status: ('A' for Active; 'I' for Inactive)
    1  A    between atoms: N_1  and  C_9
    2  A    between atoms: C_3  and  C_6
    3  A    between atoms: C_6  and  C_9
    4  A    between atoms: C_10  and  C_18
    5  A    between atoms: C_10  and  C_35
    6  A    between atoms: C_11  and  C_35
    7  A    between atoms: C_16  and  C_27
    8  A    between atoms: C_18  and  C_41
    9  A    between atoms: N_21  and  C_25
   10  A    between atoms: N_21  and  C_40
   11  A    between atoms: N_29  and  C_38
                            x       y       z     vdW  Elec       q    Type
                         _______ _______ _______ _____ _____    ______ ____

>  <TORSDO>
F 11

$$$$
=
 OpenBabel10232412053D

 42 47  0  0  1  0  0  0  0  0999 V2000
  191.5450  175.8710  137.4590 C   0  0  1  0  0  3  0  0  0  0  0  0
  187.9840  177.6320  139.4770 S   0  0  0  0  0  0  0  0  0  0  0  0
  187.4390  178.0370  137.8280 C   0  0  0  0  0  0  0  0  0  0  0  0
  190.1470  176.2440  136.9430 C   0  0  0  0  0  2  0  0  0  0  0  0
  191.8620  176.4640  138.8390 C   0  0  0  0  0  2  0  0  0  0  0  0
  188.3840  177.9810  136.8910 C   0  0  0  0  0  0  0  0  0  0  0  0
  188.1200  178.2430  135.4410 C   0  0  0  0  0  1  0  0  0  0  0  0
  189.7500  177.6550  137.3810 C   0  0  1  0  0  3  0  0  0  0  0  0
  190.5930  176.7580  139.6440 C   0  0  2  0  0  3  0  0  0  0  0  0
  189.7130  177.7820  138.9170 C   0  0  2  0  0  3  0  0  0  0  0  0
  190.9190  176.4810  141.9740 C   0  0  0  0  0  3  0  0  0  0  0  0
  190.9350  177.2560  140.9520 N   0  0  0  0  0  0  0  0  0  0  0  0
  190.0930  176.8060  144.2790 C   0  0  2  0  0  3  0  0  0  0  0  0
  191.4950  178.4770  143.2700 C   0  0  0  0  0  3  0  0  0  0  0  0
  190.4150  177.1840  145.7180 C   0  0  1  0  0  0  0  0  0  0  0  0
  191.2740  177.0050  143.3260 C   0  0  2  0  0  3  0  0  0  0  0  0
  191.7440  177.4410  146.0800 O   0  0  0  0  0  1  0  0  0  0  0  0
  190.6840  179.1170  144.0970 C   0  0  0  0  0  3  0  0  0  0  0  0
  189.7390  178.2050  144.8150 C   0  0  1  0  0  3  0  0  0  0  0  0
  189.5420  176.6330  146.7450 N   0  0  0  0  0  2  0  0  0  0  0  0
  188.7090  178.2230  148.3730 C   0  0  0  0  0  1  0  0  0  0  0  0
  188.4900  177.6010  147.0110 C   0  0  0  0  0  2  0  0  0  0  0  0
  191.7040  174.3590  137.5050 C   0  0  0  0  0  2  0  0  0  0  0  0
  192.9690  173.9140  136.7880 C   0  0  0  0  0  2  0  0  0  0  0  0
  194.0750  173.8800  137.7060 N   0  0  0  0  0  0  0  0  0  0  0  0
  195.1300  174.5630  137.4630 C   0  0  0  0  0  2  0  0  0  0  0  0
  186.0080  178.3850  137.5580 C   0  0  0  0  0  2  0  0  0  0  0  0
  185.1540  177.1320  137.5460 C   0  0  0  0  0  2  0  0  0  0  0  0
  183.6940  177.5170  137.4160 C   0  0  0  0  0  2  0  0  0  0  0  0
  183.8050  177.9820  139.7860 C   0  0  0  0  0  0  0  0  0  0  0  0
  181.1680  177.5590  140.3320 N   0  0  0  0  0  2  0  0  0  0  0  0
  184.3680  178.3400  140.9010 C   0  0  0  0  0  3  0  0  0  0  0  0
  181.5750  177.5980  138.9230 C   0  0  0  0  0  2  0  0  0  0  0  0
  184.3060  178.6930  143.3860 N   0  0  0  0  0  0  0  0  0  0  0  0
  181.5060  179.1400  143.4280 C   0  0  0  0  0  2  0  0  0  0  0  0
  183.6590  179.1260  144.6190 C   0  0  0  0  0  2  0  0  0  0  0  0
  181.3690  178.8860  140.9090 C   0  0  0  0  0  2  0  0  0  0  0  0
  182.2360  178.6050  144.6510 C   0  0  0  0  0  2  0  0  0  0  0  0
  182.2250  178.8110  142.1470 C   0  0  0  0  0  0  0  0  0  0  0  0
  185.6990  178.2770  143.4730 C   0  0  0  0  0  1  0  0  0  0  0  0
  183.5820  178.6320  142.1360 C   0  0  0  0  0  0  0  0  0  0  0  0
  183.0730  177.6380  138.7640 C   0  0  0  0  0  0  0  0  0  0  0  0
  1 23  1  1  0  0  0
  1  5  1  0  0  0  0
  3  2  1  0  0  0  0
  4  1  1  0  0  0  0
  5  9  1  0  0  0  0
  6  8  1  0  0  0  0
  6  3  2  0  0  0  0
  7  6  1  0  0  0  0
  8  4  1  1  0  0  0
  8 10  1  0  0  0  0
  9 12  1  1  0  0  0
 10  2  1  1  0  0  0
 10  9  1  0  0  0  0
 11 16  1  0  0  0  0
 12 11  2  0  0  0  0
 13 19  1  0  0  0  0
 13 15  1  0  0  0  0
 14 16  1  0  0  0  0
 14 18  2  0  0  0  0
 15 17  1  0  0  0  0
 15 20  1  0  0  0  0
 16 13  1  0  0  0  0
 18 19  1  0  0  0  0
 19 15  1  0  0  0  0
 20 22  1  0  0  0  0
 22 21  1  0  0  0  0
 24 23  1  0  0  0  0
 24 25  1  0  0  0  0
 26 25  2  0  0  0  0
 27  3  1  0  0  0  0
 28 27  1  0  0  0  0
 29 28  1  0  0  0  0
 29 42  1  0  0  0  0
 30 32  2  0  0  0  0
 31 37  1  0  0  0  0
 32 41  1  0  0  0  0
 33 31  1  0  0  0  0
 34 40  1  0  0  0  0
 34 36  1  0  0  0  0
 35 38  1  0  0  0  0
 36 38  1  0  0  0  0
 37 39  1  0  0  0  0
 39 35  1  0  0  0  0
 41 39  2  0  0  0  0
 41 34  1  0  0  0  0
 42 33  1  0  0  0  0
 42 30  2  0  0  0  0
M  END
>  <MODEL>
3

>  <REMARK>
 VINA RESULT:      -8.2      2.447      8.362
  Name = 
  11 active torsions:
  status: ('A' for Active; 'I' for Inactive)
    1  A    between atoms: N_1  and  C_9
    2  A    between atoms: C_3  and  C_6
    3  A    between atoms: C_6  and  C_9
    4  A    between atoms: C_10  and  C_18
    5  A    between atoms: C_10  and  C_35
    6  A    between atoms: C_11  and  C_35
    7  A    between atoms: C_16  and  C_27
    8  A    between atoms: C_18  and  C_41
    9  A    between atoms: N_21  and  C_25
   10  A    between atoms: N_21  and  C_40
   11  A    between atoms: N_29  and  C_38
                            x       y       z     vdW  Elec       q    Type
                         _______ _______ _______ _____ _____    ______ ____

>  <TORSDO>
F 11

$$$$
=
 OpenBabel10232412053D

 42 47  0  0  1  0  0  0  0  0999 V2000
  189.7250  177.2770  143.7900 C   0  0  1  0  0  3  0  0  0  0  0  0
  186.0250  179.1430  142.1500 S   0  0  0  0  0  0  0  0  0  0  0  0
  185.3390  178.8420  143.7680 C   0  0  0  0  0  0  0  0  0  0  0  0
  188.4900  177.8880  144.4690 C   0  0  0  0  0  2  0  0  0  0  0  0
  189.5250  177.0110  142.2910 C   0  0  0  0  0  2  0  0  0  0  0  0
  186.0170  177.9750  144.5180 C   0  0  0  0  0  0  0  0  0  0  0  0
  185.6290  177.6220  145.9200 C   0  0  0  0  0  1  0  0  0  0  0  0
  187.1950  177.3480  143.8610 C   0  0  1  0  0  3  0  0  0  0  0  0
  188.4500  177.9170  141.6840 C   0  0  2  0  0  3  0  0  0  0  0  0
  187.0930  177.6790  142.3580 C   0  0  2  0  0  3  0  0  0  0  0  0
  189.3830  177.5530  139.5380 C   0  0  0  0  0  3  0  0  0  0  0  0
  188.3360  177.6770  140.2690 N   0  0  0  0  0  0  0  0  0  0  0  0
  188.3940  176.0640  137.8330 C   0  0  2  0  0  3  0  0  0  0  0  0
  190.5870  176.9840  137.4830 C   0  0  0  0  0  3  0  0  0  0  0  0
  188.0950  175.8170  136.3610 C   0  0  1  0  0  0  0  0  0  0  0  0
  189.2560  177.3060  138.0710 C   0  0  2  0  0  3  0  0  0  0  0  0
  188.4080  176.8060  135.4200 O   0  0  0  0  0  1  0  0  0  0  0  0
  190.5760  175.8010  136.8880 C   0  0  0  0  0  3  0  0  0  0  0  0
  189.2640  175.0940  137.0140 C   0  0  1  0  0  3  0  0  0  0  0  0
  186.9570  174.9570  136.0660 N   0  0  0  0  0  2  0  0  0  0  0  0
  185.6960  173.0400  136.8470 C   0  0  0  0  0  1  0  0  0  0  0  0
  186.9420  173.8770  137.0400 C   0  0  0  0  0  2  0  0  0  0  0  0
  190.9360  178.1760  143.9910 C   0  0  0  0  0  2  0  0  0  0  0  0
  191.5870  177.9320  145.3440 C   0  0  0  0  0  2  0  0  0  0  0  0
  191.4500  176.5510  145.7210 N   0  0  0  0  0  0  0  0  0  0  0  0
  191.8620  176.1560  146.8670 C   0  0  0  0  0  2  0  0  0  0  0  0
  184.1030  179.5560  144.2210 C   0  0  0  0  0  2  0  0  0  0  0  0
  182.8910  178.6550  144.0770 C   0  0  0  0  0  2  0  0  0  0  0  0
  181.7800  179.4100  143.3740 C   0  0  0  0  0  2  0  0  0  0  0  0
  182.4760  178.4340  141.2750 C   0  0  0  0  0  0  0  0  0  0  0  0
  179.9820  177.9170  140.3050 N   0  0  0  0  0  2  0  0  0  0  0  0
  183.3230  177.9960  140.3910 C   0  0  0  0  0  3  0  0  0  0  0  0
  180.0950  178.3450  141.7030 C   0  0  0  0  0  2  0  0  0  0  0  0
  183.8500  177.0440  138.1290 N   0  0  0  0  0  0  0  0  0  0  0  0
  181.3150  175.7990  137.8690 C   0  0  0  0  0  2  0  0  0  0  0  0
  183.5910  176.1520  137.0040 C   0  0  0  0  0  2  0  0  0  0  0  0
  180.6170  176.6090  140.1680 C   0  0  0  0  0  2  0  0  0  0  0  0
  182.1190  176.2090  136.6450 C   0  0  0  0  0  2  0  0  0  0  0  0
  181.6580  176.6270  139.0790 C   0  0  0  0  0  0  0  0  0  0  0  0
  185.0840  177.8160  138.0990 C   0  0  0  0  0  1  0  0  0  0  0  0
  182.8980  177.1930  139.2070 C   0  0  0  0  0  0  0  0  0  0  0  0
  181.4930  178.7870  142.0530 C   0  0  0  0  0  0  0  0  0  0  0  0
  1 23  1  6  0  0  0
  1  4  1  0  0  0  0
  2  3  1  0  0  0  0
  3 27  1  0  0  0  0
  3  6  2  0  0  0  0
  5  1  1  0  0  0  0
  6  7  1  0  0  0  0
  8  4  1  1  0  0  0
  8  6  1  0  0  0  0
  9 12  1  6  0  0  0
  9  5  1  0  0  0  0
  9 10  1  0  0  0  0
 10  2  1  1  0  0  0
 10  8  1  0  0  0  0
 11 12  2  0  0  0  0
 13 16  1  0  0  0  0
 14 16  1  0  0  0  0
 15 19  1  0  0  0  0
 15 13  1  0  0  0  0
 16 11  1  0  0  0  0
 17 15  1  0  0  0  0
 18 19  1  0  0  0  0
 18 14  2  0  0  0  0
 19 13  1  0  0  0  0
 20 15  1  0  0  0  0
 20 22  1  0  0  0  0
 21 22  1  0  0  0  0
 23 24  1  0  0  0  0
 24 25  1  0  0  0  0
 25 26  2  0  0  0  0
 28 27  1  0  0  0  0
 29 28  1  0  0  0  0
 30 42  2  0  0  0  0
 31 33  1  0  0  0  0
 32 30  2  0  0  0  0
 33 42  1  0  0  0  0
 34 41  1  0  0  0  0
 35 39  1  0  0  0  0
 36 34  1  0  0  0  0
 37 31  1  0  0  0  0
 38 36  1  0  0  0  0
 38 35  1  0  0  0  0
 39 41  2  0  0  0  0
 39 37  1  0  0  0  0
 40 34  1  0  0  0  0
 41 32  1  0  0  0  0
 42 29  1  0  0  0  0
M  END
>  <MODEL>
4

>  <REMARK>
 VINA RESULT:      -7.9      1.858      7.524
  Name = 
  11 active torsions:
  status: ('A' for Active; 'I' for Inactive)
    1  A    between atoms: N_1  and  C_9
    2  A    between atoms: C_3  and  C_6
    3  A    between atoms: C_6  and  C_9
    4  A    between atoms: C_10  and  C_18
    5  A    between atoms: C_10  and  C_35
    6  A    between atoms: C_11  and  C_35
    7  A    between atoms: C_16  and  C_27
    8  A    between atoms: C_18  and  C_41
    9  A    between atoms: N_21  and  C_25
   10  A    between atoms: N_21  and  C_40
   11  A    between atoms: N_29  and  C_38
                            x       y       z     vdW  Elec       q    Type
                         _______ _______ _______ _____ _____    ______ ____

>  <TORSDO>
F 11

$$$$
=
 OpenBabel10232412053D

 42 47  0  0  1  0  0  0  0  0999 V2000
  185.9810  176.1900  136.2030 C   0  0  1  0  0  3  0  0  0  0  0  0
  187.6600  178.0150  139.9050 S   0  0  0  0  0  0  0  0  0  0  0  0
  186.0210  178.6750  140.1410 C   0  0  0  0  0  0  0  0  0  0  0  0
  185.3160  176.7570  137.4660 C   0  0  0  0  0  2  0  0  0  0  0  0
  187.4630  176.5710  136.0720 C   0  0  0  0  0  2  0  0  0  0  0  0
  185.2390  178.6470  139.0630 C   0  0  0  0  0  0  0  0  0  0  0  0
  183.8170  179.1130  139.0660 C   0  0  0  0  0  1  0  0  0  0  0  0
  185.8810  178.1320  137.8230 C   0  0  1  0  0  3  0  0  0  0  0  0
  188.0990  176.8810  137.4300 C   0  0  2  0  0  3  0  0  0  0  0  0
  187.3960  178.0690  138.1010 C   0  0  2  0  0  3  0  0  0  0  0  0
  190.3660  176.2320  137.2160 C   0  0  0  0  0  3  0  0  0  0  0  0
  189.4990  177.1760  137.2700 N   0  0  0  0  0  0  0  0  0  0  0  0
  192.5230  175.3650  136.3810 C   0  0  2  0  0  3  0  0  0  0  0  0
  192.4690  176.6960  138.3820 C   0  0  0  0  0  3  0  0  0  0  0  0
  193.9800  175.6520  136.0450 C   0  0  1  0  0  0  0  0  0  0  0  0
  191.8160  176.5450  137.0510 C   0  0  2  0  0  3  0  0  0  0  0  0
  194.4650  176.9620  136.1500 O   0  0  0  0  0  1  0  0  0  0  0  0
  193.4730  175.8450  138.5240 C   0  0  0  0  0  3  0  0  0  0  0  0
  193.6440  174.9370  137.3460 C   0  0  1  0  0  3  0  0  0  0  0  0
  194.5960  174.7960  135.0420 N   0  0  0  0  0  2  0  0  0  0  0  0
  195.3630  172.5370  134.6100 C   0  0  0  0  0  1  0  0  0  0  0  0
  194.9140  173.5220  135.6680 C   0  0  0  0  0  2  0  0  0  0  0  0
  185.8400  174.6750  136.1670 C   0  0  0  0  0  2  0  0  0  0  0  0
  185.0540  174.1650  137.3640 C   0  0  0  0  0  2  0  0  0  0  0  0
  185.1060  172.7290  137.4190 N   0  0  0  0  0  0  0  0  0  0  0  0
  184.1380  172.0340  136.9520 C   0  0  0  0  0  2  0  0  0  0  0  0
  185.5870  179.1890  141.4790 C   0  0  0  0  0  2  0  0  0  0  0  0
  185.1020  178.0470  142.3510 C   0  0  0  0  0  2  0  0  0  0  0  0
  184.8070  178.5660  143.7440 C   0  0  0  0  0  2  0  0  0  0  0  0
  187.0440  177.8190  144.2750 C   0  0  0  0  0  0  0  0  0  0  0  0
  186.6500  177.4550  146.9470 N   0  0  0  0  0  2  0  0  0  0  0  0
  188.2910  177.5370  144.0360 C   0  0  0  0  0  3  0  0  0  0  0  0
  185.5900  178.1260  146.1860 C   0  0  0  0  0  2  0  0  0  0  0  0
  190.5270  176.6550  144.7600 N   0  0  0  0  0  0  0  0  0  0  0  0
  190.0970  177.3080  147.4860 C   0  0  0  0  0  2  0  0  0  0  0  0
  191.6130  176.5050  145.7220 C   0  0  0  0  0  2  0  0  0  0  0  0
  187.8320  178.3130  146.9490 C   0  0  0  0  0  2  0  0  0  0  0  0
  191.0360  176.1800  147.0860 C   0  0  0  0  0  2  0  0  0  0  0  0
  189.0400  177.5650  146.4460 C   0  0  0  0  0  0  0  0  0  0  0  0
  190.7370  176.1090  143.4260 C   0  0  0  0  0  1  0  0  0  0  0  0
  189.2750  177.2770  145.1280 C   0  0  0  0  0  0  0  0  0  0  0  0
  185.8430  178.0850  144.7010 C   0  0  0  0  0  0  0  0  0  0  0  0
  1 23  1  1  0  0  0
  1  4  1  0  0  0  0
  2  3  1  0  0  0  0
  3 27  1  0  0  0  0
  5  1  1  0  0  0  0
  5  9  1  0  0  0  0
  6  7  1  0  0  0  0
  6  3  2  0  0  0  0
  8  4  1  1  0  0  0
  8 10  1  0  0  0  0
  8  6  1  0  0  0  0
  9 12  1  6  0  0  0
  9 10  1  0  0  0  0
 10  2  1  1  0  0  0
 11 12  2  0  0  0  0
 13 16  1  0  0  0  0
 13 19  1  0  0  0  0
 14 18  2  0  0  0  0
 15 17  1  0  0  0  0
 15 13  1  0  0  0  0
 15 19  1  0  0  0  0
 16 11  1  0  0  0  0
 16 14  1  0  0  0  0
 19 18  1  0  0  0  0
 20 22  1  0  0  0  0
 20 15  1  0  0  0  0
 21 22  1  0  0  0  0
 23 24  1  0  0  0  0
 24 25  1  0  0  0  0
 26 25  2  0  0  0  0
 27 28  1  0  0  0  0
 28 29  1  0  0  0  0
 29 42  1  0  0  0  0
 30 42  2  0  0  0  0
 31 37  1  0  0  0  0
 32 30  2  0  0  0  0
 32 41  1  0  0  0  0
 33 31  1  0  0  0  0
 34 41  1  0  0  0  0
 34 36  1  0  0  0  0
 36 38  1  0  0  0  0
 38 35  1  0  0  0  0
 39 37  1  0  0  0  0
 39 35  1  0  0  0  0
 40 34  1  0  0  0  0
 41 39  2  0  0  0  0
 42 33  1  0  0  0  0
M  END
>  <MODEL>
5

>  <REMARK>
 VINA RESULT:      -7.8      2.100      3.661
  Name = 
  11 active torsions:
  status: ('A' for Active; 'I' for Inactive)
    1  A    between atoms: N_1  and  C_9
    2  A    between atoms: C_3  and  C_6
    3  A    between atoms: C_6  and  C_9
    4  A    between atoms: C_10  and  C_18
    5  A    between atoms: C_10  and  C_35
    6  A    between atoms: C_11  and  C_35
    7  A    between atoms: C_16  and  C_27
    8  A    between atoms: C_18  and  C_41
    9  A    between atoms: N_21  and  C_25
   10  A    between atoms: N_21  and  C_40
   11  A    between atoms: N_29  and  C_38
                            x       y       z     vdW  Elec       q    Type
                         _______ _______ _______ _____ _____    ______ ____

>  <TORSDO>
F 11

$$$$
=
 OpenBabel10232412053D

 42 47  0  0  1  0  0  0  0  0999 V2000
  188.3680  177.6310  137.5410 C   0  0  1  0  0  3  0  0  0  0  0  0
  190.0140  176.3150  141.4670 S   0  0  0  0  0  0  0  0  0  0  0  0
  189.0040  177.6140  142.1540 C   0  0  0  0  0  0  0  0  0  0  0  0
  187.8960  177.8560  138.9840 C   0  0  0  0  0  2  0  0  0  0  0  0
  189.8060  177.0980  137.4480 C   0  0  0  0  0  2  0  0  0  0  0  0
  188.5650  178.5140  141.2750 C   0  0  0  0  0  0  0  0  0  0  0  0
  187.6690  179.6540  141.6450 C   0  0  0  0  0  1  0  0  0  0  0  0
  189.0430  178.3280  139.8780 C   0  0  1  0  0  3  0  0  0  0  0  0
  190.2270  176.3550  138.7190 C   0  0  2  0  0  3  0  0  0  0  0  0
  190.1820  177.2890  139.9340 C   0  0  2  0  0  3  0  0  0  0  0  0
  192.3230  176.2290  137.6230 C   0  0  0  0  0  3  0  0  0  0  0  0
  191.5560  175.8220  138.5680 N   0  0  0  0  0  0  0  0  0  0  0  0
  194.2720  176.0760  136.1130 C   0  0  2  0  0  3  0  0  0  0  0  0
  193.6550  174.1810  137.4560 C   0  0  0  0  0  3  0  0  0  0  0  0
  195.7260  175.6690  135.9290 C   0  0  1  0  0  0  0  0  0  0  0  0
  193.6990  175.6700  137.4720 C   0  0  2  0  0  3  0  0  0  0  0  0
  196.4520  175.1970  137.0310 O   0  0  0  0  0  1  0  0  0  0  0  0
  194.1840  173.6970  136.3430 C   0  0  0  0  0  3  0  0  0  0  0  0
  194.6270  174.7630  135.3920 C   0  0  1  0  0  3  0  0  0  0  0  0
  196.4720  176.3720  134.8950 N   0  0  0  0  0  2  0  0  0  0  0  0
  196.3310  178.7840  134.7070 C   0  0  0  0  0  1  0  0  0  0  0  0
  195.6480  177.4670  134.4080 C   0  0  0  0  0  2  0  0  0  0  0  0
  187.4250  176.6800  136.8190 C   0  0  0  0  0  2  0  0  0  0  0  0
  186.0370  177.2850  136.6710 C   0  0  0  0  0  2  0  0  0  0  0  0
  185.0340  176.3320  137.0630 N   0  0  0  0  0  0  0  0  0  0  0  0
  185.2780  175.0780  136.9870 C   0  0  0  0  0  2  0  0  0  0  0  0
  188.6750  177.6380  143.6140 C   0  0  0  0  0  2  0  0  0  0  0  0
  187.3310  176.9800  143.8630 C   0  0  0  0  0  2  0  0  0  0  0  0
  186.6320  177.6780  145.0130 C   0  0  0  0  0  2  0  0  0  0  0  0
  184.9900  178.1490  143.3030 C   0  0  0  0  0  0  0  0  0  0  0  0
  183.2840  179.5900  144.8660 N   0  0  0  0  0  2  0  0  0  0  0  0
  184.4530  178.0820  142.1210 C   0  0  0  0  0  3  0  0  0  0  0  0
  184.3850  178.8820  145.5300 C   0  0  0  0  0  2  0  0  0  0  0  0
  182.6920  178.7500  140.4610 N   0  0  0  0  0  0  0  0  0  0  0  0
  180.7640  179.3010  142.4670 C   0  0  0  0  0  2  0  0  0  0  0  0
  181.3180  179.0610  140.0820 C   0  0  0  0  0  2  0  0  0  0  0  0
  182.3770  178.5990  144.2930 C   0  0  0  0  0  2  0  0  0  0  0  0
  180.7090  179.9910  141.1130 C   0  0  0  0  0  2  0  0  0  0  0  0
  182.1570  178.8570  142.8250 C   0  0  0  0  0  0  0  0  0  0  0  0
  183.6810  178.6850  139.3950 C   0  0  0  0  0  1  0  0  0  0  0  0
  183.0660  178.5610  141.8450 C   0  0  0  0  0  0  0  0  0  0  0  0
  185.3610  178.2950  144.5430 C   0  0  0  0  0  0  0  0  0  0  0  0
  1 23  1  1  0  0  0
  1  4  1  0  0  0  0
  2  3  1  0  0  0  0
  3 27  1  0  0  0  0
  5  1  1  0  0  0  0
  5  9  1  0  0  0  0
  6  7  1  0  0  0  0
  6  3  2  0  0  0  0
  8  4  1  6  0  0  0
  8 10  1  0  0  0  0
  8  6  1  0  0  0  0
  9 12  1  6  0  0  0
  9 10  1  0  0  0  0
 10  2  1  1  0  0  0
 11 12  2  0  0  0  0
 13 16  1  0  0  0  0
 14 16  1  0  0  0  0
 15 13  1  0  0  0  0
 15 17  1  0  0  0  0
 16 11  1  0  0  0  0
 18 14  2  0  0  0  0
 19 15  1  0  0  0  0
 19 13  1  0  0  0  0
 19 18  1  0  0  0  0
 20 15  1  0  0  0  0
 22 21  1  0  0  0  0
 22 20  1  0  0  0  0
 24 23  1  0  0  0  0
 24 25  1  0  0  0  0
 26 25  2  0  0  0  0
 27 28  1  0  0  0  0
 28 29  1  0  0  0  0
 30 42  2  0  0  0  0
 31 33  1  0  0  0  0
 32 30  2  0  0  0  0
 34 41  1  0  0  0  0
 35 39  1  0  0  0  0
 36 34  1  0  0  0  0
 36 38  1  0  0  0  0
 37 31  1  0  0  0  0
 38 35  1  0  0  0  0
 39 37  1  0  0  0  0
 40 34  1  0  0  0  0
 41 32  1  0  0  0  0
 41 39  2  0  0  0  0
 42 29  1  0  0  0  0
 42 33  1  0  0  0  0
M  END
>  <MODEL>
6

>  <REMARK>
 VINA RESULT:      -7.3      2.745      6.572
  Name = 
  11 active torsions:
  status: ('A' for Active; 'I' for Inactive)
    1  A    between atoms: N_1  and  C_9
    2  A    between atoms: C_3  and  C_6
    3  A    between atoms: C_6  and  C_9
    4  A    between atoms: C_10  and  C_18
    5  A    between atoms: C_10  and  C_35
    6  A    between atoms: C_11  and  C_35
    7  A    between atoms: C_16  and  C_27
    8  A    between atoms: C_18  and  C_41
    9  A    between atoms: N_21  and  C_25
   10  A    between atoms: N_21  and  C_40
   11  A    between atoms: N_29  and  C_38
                            x       y       z     vdW  Elec       q    Type
                         _______ _______ _______ _____ _____    ______ ____

>  <TORSDO>
F 11

$$$$
=
 OpenBabel10232412053D

 42 47  0  0  1  0  0  0  0  0999 V2000
  184.5050  177.8490  137.7510 C   0  0  1  0  0  3  0  0  0  0  0  0
  188.0750  175.1880  137.5980 S   0  0  0  0  0  0  0  0  0  0  0  0
  189.0070  176.7010  137.4460 C   0  0  0  0  0  0  0  0  0  0  0  0
  186.0000  178.1160  137.9790 C   0  0  0  0  0  2  0  0  0  0  0  0
  184.2240  176.4950  137.0840 C   0  0  0  0  0  2  0  0  0  0  0  0
  188.2930  177.7740  137.1110 C   0  0  0  0  0  0  0  0  0  0  0  0
  188.8810  179.1440  136.9770 C   0  0  0  0  0  1  0  0  0  0  0  0
  186.8490  177.5240  136.8530 C   0  0  1  0  0  3  0  0  0  0  0  0
  185.3480  175.4860  137.3340 C   0  0  2  0  0  3  0  0  0  0  0  0
  186.6740  175.9950  136.7550 C   0  0  2  0  0  3  0  0  0  0  0  0
  184.3590  173.3350  137.4030 C   0  0  0  0  0  3  0  0  0  0  0  0
  185.0180  174.2150  136.7420 N   0  0  0  0  0  0  0  0  0  0  0  0
  185.0420  171.6900  135.6910 C   0  0  2  0  0  3  0  0  0  0  0  0
  182.7060  172.0950  136.0890 C   0  0  0  0  0  3  0  0  0  0  0  0
  184.8590  170.3000  135.1000 C   0  0  1  0  0  0  0  0  0  0  0  0
  184.0230  172.0190  136.7840 C   0  0  2  0  0  3  0  0  0  0  0  0
  183.9840  169.3990  135.7200 O   0  0  0  0  0  1  0  0  0  0  0  0
  182.8210  171.7830  134.8070 C   0  0  0  0  0  3  0  0  0  0  0  0
  184.2310  171.4950  134.3970 C   0  0  1  0  0  3  0  0  0  0  0  0
  186.0040  169.7360  134.3990 N   0  0  0  0  0  2  0  0  0  0  0  0
  188.2210  169.9630  135.3550 C   0  0  0  0  0  1  0  0  0  0  0  0
  187.1270  170.6460  134.5620 C   0  0  0  0  0  2  0  0  0  0  0  0
  183.7470  177.9350  139.0680 C   0  0  0  0  0  2  0  0  0  0  0  0
  184.2540  179.0850  139.9240 C   0  0  0  0  0  2  0  0  0  0  0  0
  184.7630  178.5900  141.1740 N   0  0  0  0  0  0  0  0  0  0  0  0
  185.5710  179.3030  141.8640 C   0  0  0  0  0  2  0  0  0  0  0  0
  190.4810  176.7230  137.7110 C   0  0  0  0  0  2  0  0  0  0  0  0
  190.7570  177.2160  139.1190 C   0  0  0  0  0  2  0  0  0  0  0  0
  189.5310  176.9920  139.9820 C   0  0  0  0  0  2  0  0  0  0  0  0
  188.9320  177.1330  142.3190 C   0  0  0  0  0  0  0  0  0  0  0  0
  191.4280  177.6780  143.2710 N   0  0  0  0  0  2  0  0  0  0  0  0
  188.1430  177.0630  143.3500 C   0  0  0  0  0  3  0  0  0  0  0  0
  191.3050  177.2890  141.8620 C   0  0  0  0  0  2  0  0  0  0  0  0
  187.6970  177.3410  145.8050 N   0  0  0  0  0  0  0  0  0  0  0  0
  190.4080  176.9180  146.5230 C   0  0  0  0  0  2  0  0  0  0  0  0
  188.0660  177.2280  147.2110 C   0  0  0  0  0  2  0  0  0  0  0  0
  191.0510  176.5360  144.1000 C   0  0  0  0  0  2  0  0  0  0  0  0
  189.4790  177.7410  147.4040 C   0  0  0  0  0  2  0  0  0  0  0  0
  189.9730  176.9170  145.0820 C   0  0  0  0  0  0  0  0  0  0  0  0
  186.3370  177.7650  145.5030 C   0  0  0  0  0  1  0  0  0  0  0  0
  188.6550  177.0870  144.7520 C   0  0  0  0  0  0  0  0  0  0  0  0
  189.8670  177.2110  141.4160 C   0  0  0  0  0  0  0  0  0  0  0  0
  1  4  1  0  0  0  0
  1 23  1  1  0  0  0
  3  2  1  0  0  0  0
  3 27  1  0  0  0  0
  5  9  1  0  0  0  0
  5  1  1  0  0  0  0
  6  3  2  0  0  0  0
  7  6  1  0  0  0  0
  8  6  1  0  0  0  0
  8  4  1  1  0  0  0
  9 12  1  6  0  0  0
 10  8  1  0  0  0  0
 10  9  1  0  0  0  0
 10  2  1  1  0  0  0
 12 11  2  0  0  0  0
 13 16  1  0  0  0  0
 14 16  1  0  0  0  0
 15 13  1  0  0  0  0
 15 17  1  0  0  0  0
 16 11  1  0  0  0  0
 18 14  2  0  0  0  0
 19 18  1  0  0  0  0
 19 15  1  0  0  0  0
 19 13  1  0  0  0  0
 20 22  1  0  0  0  0
 20 15  1  0  0  0  0
 22 21  1  0  0  0  0
 23 24  1  0  0  0  0
 24 25  1  0  0  0  0
 25 26  2  0  0  0  0
 27 28  1  0  0  0  0
 28 29  1  0  0  0  0
 29 42  1  0  0  0  0
 30 32  2  0  0  0  0
 31 37  1  0  0  0  0
 32 41  1  0  0  0  0
 33 31  1  0  0  0  0
 34 36  1  0  0  0  0
 35 38  1  0  0  0  0
 36 38  1  0  0  0  0
 37 39  1  0  0  0  0
 39 35  1  0  0  0  0
 40 34  1  0  0  0  0
 41 39  2  0  0  0  0
 41 34  1  0  0  0  0
 42 33  1  0  0  0  0
 42 30  2  0  0  0  0
M  END
>  <MODEL>
7

>  <REMARK>
 VINA RESULT:      -7.1      3.002      6.270
  Name = 
  11 active torsions:
  status: ('A' for Active; 'I' for Inactive)
    1  A    between atoms: N_1  and  C_9
    2  A    between atoms: C_3  and  C_6
    3  A    between atoms: C_6  and  C_9
    4  A    between atoms: C_10  and  C_18
    5  A    between atoms: C_10  and  C_35
    6  A    between atoms: C_11  and  C_35
    7  A    between atoms: C_16  and  C_27
    8  A    between atoms: C_18  and  C_41
    9  A    between atoms: N_21  and  C_25
   10  A    between atoms: N_21  and  C_40
   11  A    between atoms: N_29  and  C_38
                            x       y       z     vdW  Elec       q    Type
                         _______ _______ _______ _____ _____    ______ ____

>  <TORSDO>
F 11

$$$$
=
 OpenBabel10232412053D

 42 47  0  0  1  0  0  0  0  0999 V2000
  188.6530  174.9190  134.4680 C   0  0  1  0  0  3  0  0  0  0  0  0
  190.8080  176.3570  138.0930 S   0  0  0  0  0  0  0  0  0  0  0  0
  189.6020  177.6700  138.1030 C   0  0  0  0  0  0  0  0  0  0  0  0
  188.2470  175.8790  135.5960 C   0  0  0  0  0  2  0  0  0  0  0  0
  190.1590  174.6210  134.4360 C   0  0  0  0  0  2  0  0  0  0  0  0
  188.9250  177.8260  136.9660 C   0  0  0  0  0  0  0  0  0  0  0  0
  187.8410  178.8420  136.7870 C   0  0  0  0  0  1  0  0  0  0  0  0
  189.3320  176.9250  135.8540 C   0  0  1  0  0  3  0  0  0  0  0  0
  190.8140  174.8180  135.8060 C   0  0  2  0  0  3  0  0  0  0  0  0
  190.6620  176.2700  136.2770 C   0  0  2  0  0  3  0  0  0  0  0  0
  192.6750  173.4990  136.4410 C   0  0  0  0  0  3  0  0  0  0  0  0
  192.2110  174.4720  135.7470 N   0  0  0  0  0  0  0  0  0  0  0  0
  194.8790  173.8670  137.4950 C   0  0  2  0  0  3  0  0  0  0  0  0
  194.7230  173.6500  135.1060 C   0  0  0  0  0  3  0  0  0  0  0  0
  196.3420  173.4580  137.5910 C   0  0  1  0  0  0  0  0  0  0  0  0
  194.1250  173.1470  136.3750 C   0  0  2  0  0  3  0  0  0  0  0  0
  196.7970  172.3560  136.8550 O   0  0  0  0  0  1  0  0  0  0  0  0
  195.7370  174.4670  135.3430 C   0  0  0  0  0  3  0  0  0  0  0  0
  195.9700  174.7050  136.8020 C   0  0  1  0  0  3  0  0  0  0  0  0
  197.0120  173.7350  138.8540 N   0  0  0  0  0  2  0  0  0  0  0  0
  197.0360  175.3610  140.6520 C   0  0  0  0  0  1  0  0  0  0  0  0
  196.1870  174.6650  139.6090 C   0  0  0  0  0  2  0  0  0  0  0  0
  187.8780  173.6140  134.5820 C   0  0  0  0  0  2  0  0  0  0  0  0
  186.5690  173.8130  135.3310 C   0  0  0  0  0  2  0  0  0  0  0  0
  186.4560  172.8550  136.3970 N   0  0  0  0  0  0  0  0  0  0  0  0
  185.7920  173.1470  137.4520 C   0  0  0  0  0  2  0  0  0  0  0  0
  189.3790  178.4970  139.3320 C   0  0  0  0  0  2  0  0  0  0  0  0
  188.5760  177.7160  140.3550 C   0  0  0  0  0  2  0  0  0  0  0  0
  189.4780  176.7150  141.0480 C   0  0  0  0  0  2  0  0  0  0  0  0
  188.7390  177.1250  143.3130 C   0  0  0  0  0  0  0  0  0  0  0  0
  191.1490  177.9120  144.3140 N   0  0  0  0  0  2  0  0  0  0  0  0
  187.8950  177.1500  144.3010 C   0  0  0  0  0  3  0  0  0  0  0  0
  191.1250  177.3390  142.9630 C   0  0  0  0  0  2  0  0  0  0  0  0
  187.2940  177.7180  146.6720 N   0  0  0  0  0  0  0  0  0  0  0  0
  189.9740  177.5270  147.5790 C   0  0  0  0  0  2  0  0  0  0  0  0
  187.5850  177.8060  148.0980 C   0  0  0  0  0  2  0  0  0  0  0  0
  190.7730  176.8690  145.2650 C   0  0  0  0  0  2  0  0  0  0  0  0
  188.9620  178.4090  148.2950 C   0  0  0  0  0  2  0  0  0  0  0  0
  189.6250  177.3190  146.1300 C   0  0  0  0  0  0  0  0  0  0  0  0
  185.9380  178.0320  146.2460 C   0  0  0  0  0  1  0  0  0  0  0  0
  188.3220  177.3800  145.7130 C   0  0  0  0  0  0  0  0  0  0  0  0
  189.7200  177.1330  142.4570 C   0  0  0  0  0  0  0  0  0  0  0  0
  1 23  1  1  0  0  0
  1  4  1  0  0  0  0
  2  3  1  0  0  0  0
  3 27  1  0  0  0  0
  5  1  1  0  0  0  0
  5  9  1  0  0  0  0
  6  3  2  0  0  0  0
  7  6  1  0  0  0  0
  8  4  1  1  0  0  0
  8 10  1  0  0  0  0
  8  6  1  0  0  0  0
  9 12  1  6  0  0  0
  9 10  1  0  0  0  0
 10  2  1  1  0  0  0
 12 11  2  0  0  0  0
 13 15  1  0  0  0  0
 14 18  2  0  0  0  0
 14 16  1  0  0  0  0
 15 20  1  0  0  0  0
 16 11  1  0  0  0  0
 16 13  1  0  0  0  0
 17 15  1  0  0  0  0
 18 19  1  0  0  0  0
 19 13  1  0  0  0  0
 19 15  1  0  0  0  0
 20 22  1  0  0  0  0
 22 21  1  0  0  0  0
 23 24  1  0  0  0  0
 24 25  1  0  0  0  0
 25 26  2  0  0  0  0
 27 28  1  0  0  0  0
 28 29  1  0  0  0  0
 29 42  1  0  0  0  0
 30 32  2  0  0  0  0
 31 37  1  0  0  0  0
 32 41  1  0  0  0  0
 33 31  1  0  0  0  0
 34 36  1  0  0  0  0
 35 38  1  0  0  0  0
 36 38  1  0  0  0  0
 37 39  1  0  0  0  0
 39 35  1  0  0  0  0
 40 34  1  0  0  0  0
 41 39  2  0  0  0  0
 41 34  1  0  0  0  0
 42 33  1  0  0  0  0
 42 30  2  0  0  0  0
M  END
>  <MODEL>
8

>  <REMARK>
 VINA RESULT:      -7.1      3.767      6.532
  Name = 
  11 active torsions:
  status: ('A' for Active; 'I' for Inactive)
    1  A    between atoms: N_1  and  C_9
    2  A    between atoms: C_3  and  C_6
    3  A    between atoms: C_6  and  C_9
    4  A    between atoms: C_10  and  C_18
    5  A    between atoms: C_10  and  C_35
    6  A    between atoms: C_11  and  C_35
    7  A    between atoms: C_16  and  C_27
    8  A    between atoms: C_18  and  C_41
    9  A    between atoms: N_21  and  C_25
   10  A    between atoms: N_21  and  C_40
   11  A    between atoms: N_29  and  C_38
                            x       y       z     vdW  Elec       q    Type
                         _______ _______ _______ _____ _____    ______ ____

>  <TORSDO>
F 11

$$$$
=
 OpenBabel10232412053D

 42 47  0  0  1  0  0  0  0  0999 V2000
  191.4610  176.7050  144.2170 C   0  0  1  0  0  3  0  0  0  0  0  0
  189.2340  176.7090  140.3570 S   0  0  0  0  0  0  0  0  0  0  0  0
  190.8200  177.0550  139.6180 C   0  0  0  0  0  0  0  0  0  0  0  0
  191.9240  176.5630  142.7590 C   0  0  0  0  0  2  0  0  0  0  0  0
  190.0180  177.2150  144.3490 C   0  0  0  0  0  2  0  0  0  0  0  0
  191.7590  177.4750  140.4630 C   0  0  0  0  0  0  0  0  0  0  0  0
  193.1650  177.7750  140.0480 C   0  0  0  0  0  1  0  0  0  0  0  0
  191.3150  177.6510  141.8730 C   0  0  1  0  0  3  0  0  0  0  0  0
  189.1810  176.9020  143.1060 C   0  0  2  0  0  3  0  0  0  0  0  0
  189.7750  177.5800  141.8650 C   0  0  2  0  0  3  0  0  0  0  0  0
  187.2460  177.2220  144.4350 C   0  0  0  0  0  3  0  0  0  0  0  0
  187.8230  177.3430  143.2950 N   0  0  0  0  0  0  0  0  0  0  0  0
  185.3260  178.3100  143.3250 C   0  0  2  0  0  3  0  0  0  0  0  0
  185.7770  178.7650  145.6420 C   0  0  0  0  0  3  0  0  0  0  0  0
  183.8510  178.6790  143.3800 C   0  0  1  0  0  0  0  0  0  0  0  0
  185.8380  177.6800  144.6220 C   0  0  2  0  0  3  0  0  0  0  0  0
  183.0690  178.2300  144.4520 O   0  0  0  0  0  1  0  0  0  0  0  0
  185.2410  179.8660  145.1400 C   0  0  0  0  0  3  0  0  0  0  0  0
  184.8950  179.7420  143.6890 C   0  0  1  0  0  3  0  0  0  0  0  0
  183.1790  178.8640  142.1010 N   0  0  0  0  0  2  0  0  0  0  0  0
  184.2130  179.1720  139.9300 C   0  0  0  0  0  1  0  0  0  0  0  0
  183.9750  178.2100  141.0740 C   0  0  0  0  0  2  0  0  0  0  0  0
  191.6010  175.3780  144.9470 C   0  0  0  0  0  2  0  0  0  0  0  0
  192.3090  175.5530  146.2810 C   0  0  0  0  0  2  0  0  0  0  0  0
  191.9800  176.8300  146.8560 N   0  0  0  0  0  0  0  0  0  0  0  0
  191.0800  176.9110  147.7630 C   0  0  0  0  0  2  0  0  0  0  0  0
  191.0430  176.8490  138.1510 C   0  0  0  0  0  2  0  0  0  0  0  0
  191.5900  175.4580  137.8910 C   0  0  0  0  0  2  0  0  0  0  0  0
  192.9480  175.5660  137.2270 C   0  0  0  0  0  2  0  0  0  0  0  0
  193.6290  173.2730  136.8770 C   0  0  0  0  0  0  0  0  0  0  0  0
  195.5220  173.1850  138.8370 N   0  0  0  0  0  2  0  0  0  0  0  0
  193.6400  172.1130  136.2910 C   0  0  0  0  0  3  0  0  0  0  0  0
  194.9430  174.4920  138.5060 C   0  0  0  0  0  2  0  0  0  0  0  0
  194.4100  169.7280  136.1390 N   0  0  0  0  0  0  0  0  0  0  0  0
  196.8490  170.2490  137.4900 C   0  0  0  0  0  2  0  0  0  0  0  0
  195.4240  168.6850  136.2340 C   0  0  0  0  0  2  0  0  0  0  0  0
  196.2850  172.7130  137.6830 C   0  0  0  0  0  2  0  0  0  0  0  0
  196.2160  168.8660  137.5150 C   0  0  0  0  0  2  0  0  0  0  0  0
  195.8330  171.3370  137.2670 C   0  0  0  0  0  0  0  0  0  0  0  0
  193.1030  169.3450  135.6250 C   0  0  0  0  0  1  0  0  0  0  0  0
  194.6760  171.0790  136.5830 C   0  0  0  0  0  0  0  0  0  0  0  0
  193.7770  174.3740  137.5580 C   0  0  0  0  0  0  0  0  0  0  0  0
  1  5  1  0  0  0  0
  1 23  1  6  0  0  0
  3  2  1  0  0  0  0
  3  6  2  0  0  0  0
  4  1  1  0  0  0  0
  6  8  1  0  0  0  0
  7  6  1  0  0  0  0
  8  4  1  1  0  0  0
  9 12  1  1  0  0  0
  9  5  1  0  0  0  0
 10  2  1  6  0  0  0
 10  8  1  0  0  0  0
 10  9  1  0  0  0  0
 11 16  1  0  0  0  0
 12 11  2  0  0  0  0
 13 15  1  0  0  0  0
 13 19  1  0  0  0  0
 13 16  1  0  0  0  0
 15 19  1  0  0  0  0
 15 17  1  0  0  0  0
 16 14  1  0  0  0  0
 18 14  2  0  0  0  0
 19 18  1  0  0  0  0
 20 15  1  0  0  0  0
 21 22  1  0  0  0  0
 22 20  1  0  0  0  0
 23 24  1  0  0  0  0
 24 25  1  0  0  0  0
 25 26  2  0  0  0  0
 27  3  1  0  0  0  0
 28 27  1  0  0  0  0
 29 42  1  0  0  0  0
 29 28  1  0  0  0  0
 30 42  2  0  0  0  0
 32 41  1  0  0  0  0
 32 30  2  0  0  0  0
 33 31  1  0  0  0  0
 34 36  1  0  0  0  0
 34 41  1  0  0  0  0
 35 38  1  0  0  0  0
 36 38  1  0  0  0  0
 37 31  1  0  0  0  0
 39 35  1  0  0  0  0
 39 37  1  0  0  0  0
 40 34  1  0  0  0  0
 41 39  2  0  0  0  0
 42 33  1  0  0  0  0
M  END
>  <MODEL>
9

>  <REMARK>
 VINA RESULT:      -7.0      3.744     10.405
  Name = 
  11 active torsions:
  status: ('A' for Active; 'I' for Inactive)
    1  A    between atoms: N_1  and  C_9
    2  A    between atoms: C_3  and  C_6
    3  A    between atoms: C_6  and  C_9
    4  A    between atoms: C_10  and  C_18
    5  A    between atoms: C_10  and  C_35
    6  A    between atoms: C_11  and  C_35
    7  A    between atoms: C_16  and  C_27
    8  A    between atoms: C_18  and  C_41
    9  A    between atoms: N_21  and  C_25
   10  A    between atoms: N_21  and  C_40
   11  A    between atoms: N_29  and  C_38
                            x       y       z     vdW  Elec       q    Type
                         _______ _______ _______ _____ _____    ______ ____

>  <TORSDO>
F 11

$$$$
