=
 OpenBabel10232409273D

 53 60  0  0  1  0  0  0  0  0999 V2000
  190.4420  177.0620  146.2620 C   0  0  0  0  0  0  0  0  0  0  0  0
  189.3520  177.5640  146.7730 N   0  0  0  0  0  0  0  0  0  0  0  0
  187.0760  177.4180  144.0060 C   0  0  0  0  0  3  0  0  0  0  0  0
  188.2830  177.2830  143.4400 C   0  0  0  0  0  0  0  0  0  0  0  0
  190.4020  176.9420  144.7790 C   0  0  0  0  0  3  0  0  0  0  0  0
  188.5900  177.8930  145.6300 C   0  0  0  0  0  0  0  0  0  0  0  0
  189.2780  177.5560  144.4580 C   0  0  0  0  0  0  0  0  0  0  0  0
  187.2860  177.7750  145.4270 C   0  0  0  0  0  0  0  0  0  0  0  0
  193.1310  175.3310  147.8670 O   0  0  0  0  0  0  0  0  0  0  0  0
  193.0250  176.3360  148.6850 N   0  0  0  0  0  0  0  0  0  0  0  0
  191.5400  176.5560  147.0920 C   0  0  0  0  0  0  0  0  0  0  0  0
  192.2640  175.4020  146.8830 C   0  0  0  0  0  3  0  0  0  0  0  0
  192.0370  177.1330  148.2410 C   0  0  0  0  0  3  0  0  0  0  0  0
  188.5530  176.8710  142.0330 C   0  0  0  0  0  2  0  0  0  0  0  0
  188.5480  178.3080  140.9030 S   0  0  0  0  0  0  0  0  0  0  0  0
  189.8920  177.7420  139.7950 C   0  0  1  0  0  3  0  0  0  0  0  0
  192.0580  177.6880  140.7250 O   0  0  0  0  0  0  0  0  0  0  0  0
  191.0030  177.1010  140.5600 C   0  0  0  0  0  3  0  0  0  0  0  0
  189.3890  176.8350  138.7750 N   0  0  0  0  0  2  0  0  0  0  0  0
  189.8090  177.7040  136.6620 O   0  0  0  0  0  1  0  0  0  0  0  0
  190.3260  176.8800  137.6610 C   0  0  2  0  0  3  0  0  0  0  0  0
  190.5560  175.4780  137.1060 C   0  0  2  0  0  3  0  0  0  0  0  0
  190.9650  174.6230  138.1320 O   0  0  0  0  0  1  0  0  0  0  0  0
  191.5830  175.5190  136.0770 N   0  0  0  0  0  2  0  0  0  0  0  0
  193.9930  175.5490  135.8310 C   0  0  0  0  0  2  0  0  0  0  0  0
  193.6350  176.3270  137.0790 C   0  0  0  0  0  2  0  0  0  0  0  0
  192.8310  175.1000  136.6960 C   0  0  0  0  0  3  0  0  0  0  0  0
  186.2450  177.7250  146.4960 C   0  0  0  0  0  2  0  0  0  0  0  0
  183.7420  178.5960  143.5280 C   0  0  2  0  0  3  0  0  0  0  0  0
  185.1110  178.6860  146.1830 C   0  0  1  0  0  3  0  0  0  0  0  0
  185.4920  179.5520  145.0090 C   0  0  0  0  0  2  0  0  0  0  0  0
  183.2400  178.8070  144.9430 C   0  0  2  0  0  3  0  0  0  0  0  0
  184.1860  179.8130  144.3180 C   0  0  2  0  0  3  0  0  0  0  0  0
  183.9530  177.9770  145.8270 O   0  0  0  0  0  0  0  0  0  0  0  0
  182.8700  178.8420  141.1770 C   0  0  0  0  0  0  0  0  0  0  0  0
  181.7850  179.1690  140.3090 N   0  0  0  0  0  2  0  0  0  0  0  0
  183.9640  178.4310  140.7020 O   0  0  0  0  0  0  0  0  0  0  0  0
  182.7020  178.9770  142.5880 N   0  0  0  0  0  2  0  0  0  0  0  0
  180.2080  178.6660  137.1000 C   0  0  1  0  0  3  0  0  0  0  0  0
  180.6190  177.3020  137.6190 C   0  0  0  0  0  2  0  0  0  0  0  0
  181.8570  179.0060  138.8650 C   0  0  2  0  0  3  0  0  0  0  0  0
  180.6220  179.6090  138.2200 C   0  0  1  0  0  3  0  0  0  0  0  0
  181.8350  177.5270  138.5030 C   0  0  0  0  0  2  0  0  0  0  0  0
  180.7900  181.0420  137.8060 C   0  0  0  0  0  0  0  0  0  0  0  0
  181.0880  183.6970  136.9600 C   0  0  0  0  0  3  0  0  0  0  0  0
  181.7090  181.8880  138.4450 C   0  0  0  0  0  3  0  0  0  0  0  0
  181.8550  183.2130  138.0230 C   0  0  0  0  0  3  0  0  0  0  0  0
  180.1750  182.8550  136.3160 C   0  0  0  0  0  3  0  0  0  0  0  0
  180.0290  181.5300  136.7370 C   0  0  0  0  0  3  0  0  0  0  0  0
  180.9270  178.9530  135.9040 O   0  0  0  0  0  0  0  0  0  0  0  0
  182.4980  177.7130  134.4250 C   0  0  0  0  0  1  0  0  0  0  0  0
  180.1440  177.3960  134.3830 O   0  0  0  0  0  0  0  0  0  0  0  0
  181.1200  178.0050  134.8970 C   0  0  0  0  0  0  0  0  0  0  0  0
  1  2  1  0  0  0  0
  1 11  1  0  0  0  0
  3  8  2  0  0  0  0
  4  3  1  0  0  0  0
  4  7  2  0  0  0  0
  5  1  2  0  0  0  0
  6  2  2  0  0  0  0
  7  5  1  0  0  0  0
  7  6  1  0  0  0  0
  8  6  1  0  0  0  0
  8 28  1  0  0  0  0
  9 10  1  0  0  0  0
 11 13  1  0  0  0  0
 12 11  2  0  0  0  0
 12  9  1  0  0  0  0
 13 10  2  0  0  0  0
 14  4  1  0  0  0  0
 15 14  1  0  0  0  0
 16 18  1  1  0  0  0
 16 15  1  0  0  0  0
 18 17  2  0  0  0  0
 19 16  1  0  0  0  0
 21 20  1  6  0  0  0
 21 19  1  0  0  0  0
 22 21  1  0  0  0  0
 22 23  1  1  0  0  0
 24 27  1  0  0  0  0
 24 22  1  0  0  0  0
 25 27  1  0  0  0  0
 25 26  1  0  0  0  0
 27 26  1  0  0  0  0
 29 38  1  6  0  0  0
 29 33  1  0  0  0  0
 29 32  1  0  0  0  0
 30 28  1  6  0  0  0
 31 30  1  0  0  0  0
 32 34  1  1  0  0  0
 33 32  1  0  0  0  0
 33 31  1  1  0  0  0
 34 30  1  0  0  0  0
 35 38  1  0  0  0  0
 36 35  1  0  0  0  0
 37 35  2  0  0  0  0
 39 50  1  6  0  0  0
 39 40  1  0  0  0  0
 39 42  1  0  0  0  0
 40 43  1  0  0  0  0
 41 36  1  1  0  0  0
 42 44  1  6  0  0  0
 42 41  1  0  0  0  0
 43 41  1  0  0  0  0
 44 46  1  0  0  0  0
 45 47  1  0  0  0  0
 47 46  2  0  0  0  0
 48 49  1  0  0  0  0
 48 45  2  0  0  0  0
 49 44  2  0  0  0  0
 51 53  1  0  0  0  0
 52 53  2  0  0  0  0
 53 50  1  0  0  0  0
M  END
>  <MODEL>
1

>  <REMARK>
 VINA RESULT:      -8.1      0.000      0.000
  Name = 
  17 active torsions:
  status: ('A' for Active; 'I' for Inactive)
    1  A    between atoms: C_1  and  N_37
    2  A    between atoms: C_5  and  C_7
    3  A    between atoms: O_6  and  C_9
    4  A    between atoms: O_6  and  C_51
    5  A    between atoms: C_7  and  N_43
    6  A    between atoms: C_7  and  S_44
    7  A    between atoms: C_8  and  C_36
    8  A    between atoms: C_10  and  C_17
    9  A    between atoms: C_12  and  C_42
   10  A    between atoms: N_15  and  C_38
   11  A    between atoms: N_15  and  C_45
   12  A    between atoms: C_23  and  C_29
   13  A    between atoms: N_25  and  C_39
   14  A    between atoms: C_29  and  S_44
   15  A    between atoms: C_30  and  N_43
   16  A    between atoms: C_30  and  C_45
   17  A    between atoms: C_36  and  C_49
                            x       y       z     vdW  Elec       q    Type
                         _______ _______ _______ _____ _____    ______ ____

>  <TORSDO>
F 17

$$$$
=
 OpenBabel10232409273D

 53 60  0  0  1  0  0  0  0  0999 V2000
  186.5880  173.4570  136.2270 C   0  0  0  0  0  0  0  0  0  0  0  0
  186.8330  174.7220  136.0300 N   0  0  0  0  0  0  0  0  0  0  0  0
  190.2500  174.6770  134.9440 C   0  0  0  0  0  3  0  0  0  0  0  0
  190.0760  173.4790  135.5170 C   0  0  0  0  0  0  0  0  0  0  0  0
  187.8110  172.6090  136.2330 C   0  0  0  0  0  3  0  0  0  0  0  0
  188.2450  174.7710  136.0050 C   0  0  0  0  0  0  0  0  0  0  0  0
  188.7910  173.4940  136.1850 C   0  0  0  0  0  0  0  0  0  0  0  0
  189.0460  175.4890  135.2340 C   0  0  0  0  0  0  0  0  0  0  0  0
  183.2490  172.4370  137.0100 O   0  0  0  0  0  0  0  0  0  0  0  0
  183.3660  171.8580  135.8510 N   0  0  0  0  0  0  0  0  0  0  0  0
  185.2250  172.9210  136.3090 C   0  0  0  0  0  0  0  0  0  0  0  0
  184.3340  173.0950  137.3460 C   0  0  0  0  0  3  0  0  0  0  0  0
  184.5930  172.1320  135.3720 C   0  0  0  0  0  3  0  0  0  0  0  0
  191.0110  172.3210  135.4340 C   0  0  0  0  0  2  0  0  0  0  0  0
  192.6340  172.8190  134.7550 S   0  0  0  0  0  0  0  0  0  0  0  0
  193.6260  172.5090  136.2630 C   0  0  1  0  0  3  0  0  0  0  0  0
  193.6770  170.1830  136.6510 O   0  0  0  0  0  0  0  0  0  0  0  0
  194.2700  171.1620  136.2310 C   0  0  0  0  0  3  0  0  0  0  0  0
  194.6280  173.5450  136.4600 N   0  0  0  0  0  2  0  0  0  0  0  0
  194.3450  175.5280  137.6380 O   0  0  0  0  0  1  0  0  0  0  0  0
  194.3800  174.1390  137.7660 C   0  0  2  0  0  3  0  0  0  0  0  0
  195.4790  173.7400  138.7460 C   0  0  2  0  0  3  0  0  0  0  0  0
  195.8420  174.8400  139.5250 O   0  0  0  0  0  1  0  0  0  0  0  0
  196.6430  173.2660  138.0120 N   0  0  0  0  0  2  0  0  0  0  0  0
  198.9640  173.7860  137.5610 C   0  0  0  0  0  2  0  0  0  0  0  0
  198.1050  174.6090  136.6260 C   0  0  0  0  0  2  0  0  0  0  0  0
  197.6330  174.3310  138.0390 C   0  0  0  0  0  3  0  0  0  0  0  0
  188.6750  176.7620  134.5480 C   0  0  0  0  0  2  0  0  0  0  0  0
  188.3490  177.7040  138.4000 C   0  0  2  0  0  3  0  0  0  0  0  0
  188.8900  177.9500  135.4720 C   0  0  1  0  0  3  0  0  0  0  0  0
  187.5830  178.3270  136.1210 C   0  0  0  0  0  2  0  0  0  0  0  0
  189.4330  178.4050  137.6050 C   0  0  2  0  0  3  0  0  0  0  0  0
  187.9900  178.8470  137.4680 C   0  0  2  0  0  3  0  0  0  0  0  0
  189.7910  177.6160  136.4960 O   0  0  0  0  0  0  0  0  0  0  0  0
  188.9030  177.3970  140.8390 C   0  0  0  0  0  0  0  0  0  0  0  0
  188.9640  177.9520  142.1530 N   0  0  0  0  0  2  0  0  0  0  0  0
  189.3190  176.2250  140.6220 O   0  0  0  0  0  0  0  0  0  0  0  0
  188.3740  178.1830  139.7720 N   0  0  0  0  0  2  0  0  0  0  0  0
  190.8480  177.8940  145.2320 C   0  0  1  0  0  3  0  0  0  0  0  0
  191.8170  177.5890  144.1060 C   0  0  0  0  0  2  0  0  0  0  0  0
  189.5400  177.2360  143.2810 C   0  0  2  0  0  3  0  0  0  0  0  0
  189.5300  178.1280  144.5100 C   0  0  1  0  0  3  0  0  0  0  0  0
  191.0050  176.9190  143.0100 C   0  0  0  0  0  2  0  0  0  0  0  0
  188.3080  177.9690  145.3670 C   0  0  0  0  0  0  0  0  0  0  0  0
  185.9840  177.7080  146.9110 C   0  0  0  0  0  3  0  0  0  0  0  0
  188.3820  178.0070  146.7680 C   0  0  0  0  0  3  0  0  0  0  0  0
  187.2230  177.8750  147.5370 C   0  0  0  0  0  3  0  0  0  0  0  0
  185.9040  177.6750  145.5160 C   0  0  0  0  0  3  0  0  0  0  0  0
  187.0640  177.8080  144.7460 C   0  0  0  0  0  3  0  0  0  0  0  0
  190.7600  176.7650  146.0970 O   0  0  0  0  0  0  0  0  0  0  0  0
  192.3210  175.2100  147.2540 C   0  0  0  0  0  1  0  0  0  0  0  0
  191.9380  177.4430  147.9680 O   0  0  0  0  0  0  0  0  0  0  0  0
  191.6680  176.5380  147.1340 C   0  0  0  0  0  0  0  0  0  0  0  0
  1  5  1  0  0  0  0
  1 11  1  0  0  0  0
  2  1  2  0  0  0  0
  3  8  1  0  0  0  0
  3  4  2  0  0  0  0
  4  7  1  0  0  0  0
  6  2  1  0  0  0  0
  6  7  1  0  0  0  0
  7  5  2  0  0  0  0
  8  6  2  0  0  0  0
  9 12  1  0  0  0  0
 10  9  1  0  0  0  0
 11 12  2  0  0  0  0
 13 10  2  0  0  0  0
 13 11  1  0  0  0  0
 14  4  1  0  0  0  0
 15 14  1  0  0  0  0
 15 16  1  0  0  0  0
 16 18  1  6  0  0  0
 16 19  1  0  0  0  0
 18 17  2  0  0  0  0
 19 21  1  0  0  0  0
 21 20  1  6  0  0  0
 21 22  1  0  0  0  0
 22 23  1  6  0  0  0
 24 27  1  0  0  0  0
 24 22  1  0  0  0  0
 25 27  1  0  0  0  0
 26 25  1  0  0  0  0
 26 27  1  0  0  0  0
 28  8  1  0  0  0  0
 29 38  1  1  0  0  0
 30 28  1  6  0  0  0
 30 31  1  0  0  0  0
 30 34  1  0  0  0  0
 32 34  1  6  0  0  0
 32 29  1  0  0  0  0
 33 31  1  6  0  0  0
 33 32  1  0  0  0  0
 33 29  1  0  0  0  0
 35 36  1  0  0  0  0
 37 35  2  0  0  0  0
 38 35  1  0  0  0  0
 39 50  1  1  0  0  0
 40 39  1  0  0  0  0
 41 36  1  6  0  0  0
 41 42  1  0  0  0  0
 42 39  1  0  0  0  0
 42 44  1  1  0  0  0
 43 41  1  0  0  0  0
 43 40  1  0  0  0  0
 44 46  1  0  0  0  0
 45 47  1  0  0  0  0
 46 47  2  0  0  0  0
 48 45  2  0  0  0  0
 49 44  2  0  0  0  0
 49 48  1  0  0  0  0
 50 53  1  0  0  0  0
 53 51  1  0  0  0  0
 53 52  2  0  0  0  0
M  END
>  <MODEL>
2

>  <REMARK>
 VINA RESULT:      -7.8      4.801     10.576
  Name = 
  17 active torsions:
  status: ('A' for Active; 'I' for Inactive)
    1  A    between atoms: C_1  and  N_37
    2  A    between atoms: C_5  and  C_7
    3  A    between atoms: O_6  and  C_9
    4  A    between atoms: O_6  and  C_51
    5  A    between atoms: C_7  and  N_43
    6  A    between atoms: C_7  and  S_44
    7  A    between atoms: C_8  and  C_36
    8  A    between atoms: C_10  and  C_17
    9  A    between atoms: C_12  and  C_42
   10  A    between atoms: N_15  and  C_38
   11  A    between atoms: N_15  and  C_45
   12  A    between atoms: C_23  and  C_29
   13  A    between atoms: N_25  and  C_39
   14  A    between atoms: C_29  and  S_44
   15  A    between atoms: C_30  and  N_43
   16  A    between atoms: C_30  and  C_45
   17  A    between atoms: C_36  and  C_49
                            x       y       z     vdW  Elec       q    Type
                         _______ _______ _______ _____ _____    ______ ____

>  <TORSDO>
F 17

$$$$
=
 OpenBabel10232409273D

 53 60  0  0  1  0  0  0  0  0999 V2000
  190.4970  177.0860  146.3590 C   0  0  0  0  0  0  0  0  0  0  0  0
  189.4220  177.5990  146.8930 N   0  0  0  0  0  0  0  0  0  0  0  0
  187.1360  177.6230  144.1300 C   0  0  0  0  0  3  0  0  0  0  0  0
  188.3370  177.4760  143.5560 C   0  0  0  0  0  0  0  0  0  0  0  0
  190.4490  177.0250  144.8730 C   0  0  0  0  0  3  0  0  0  0  0  0
  188.6670  177.9930  145.7660 C   0  0  0  0  0  0  0  0  0  0  0  0
  189.3420  177.6820  144.5790 C   0  0  0  0  0  0  0  0  0  0  0  0
  187.3600  177.9190  145.5640 C   0  0  0  0  0  0  0  0  0  0  0  0
  193.1810  175.2530  147.8540 O   0  0  0  0  0  0  0  0  0  0  0  0
  193.0240  176.1600  148.7730 N   0  0  0  0  0  0  0  0  0  0  0  0
  191.5820  176.5180  147.1640 C   0  0  0  0  0  0  0  0  0  0  0  0
  192.3420  175.4110  146.8560 C   0  0  0  0  0  3  0  0  0  0  0  0
  192.0290  176.9780  148.3850 C   0  0  0  0  0  3  0  0  0  0  0  0
  188.5920  177.1110  142.1330 C   0  0  0  0  0  2  0  0  0  0  0  0
  187.5390  178.0800  140.9960 S   0  0  0  0  0  0  0  0  0  0  0  0
  188.6690  178.0620  139.5550 C   0  0  1  0  0  3  0  0  0  0  0  0
  190.8180  177.1100  139.7540 O   0  0  0  0  0  0  0  0  0  0  0  0
  189.6220  176.9140  139.6160 C   0  0  0  0  0  3  0  0  0  0  0  0
  187.9300  178.0410  138.3020 N   0  0  0  0  0  2  0  0  0  0  0  0
  188.7800  179.6840  136.8970 O   0  0  0  0  0  1  0  0  0  0  0  0
  188.8790  178.3340  137.2380 C   0  0  2  0  0  3  0  0  0  0  0  0
  188.5860  177.4710  136.0150 C   0  0  2  0  0  3  0  0  0  0  0  0
  187.6170  178.0880  135.2210 O   0  0  0  0  0  1  0  0  0  0  0  0
  188.1000  176.1670  136.4390 N   0  0  0  0  0  2  0  0  0  0  0  0
  188.7600  173.8440  136.6100 C   0  0  0  0  0  2  0  0  0  0  0  0
  188.2670  174.0930  135.2010 C   0  0  0  0  0  2  0  0  0  0  0  0
  189.0340  175.1730  135.9360 C   0  0  0  0  0  3  0  0  0  0  0  0
  186.3210  177.8580  146.6340 C   0  0  0  0  0  2  0  0  0  0  0  0
  183.8370  178.5940  143.6140 C   0  0  2  0  0  3  0  0  0  0  0  0
  185.1490  178.7620  146.2940 C   0  0  1  0  0  3  0  0  0  0  0  0
  185.5110  179.6390  145.1220 C   0  0  0  0  0  2  0  0  0  0  0  0
  183.2980  178.7890  145.0180 C   0  0  2  0  0  3  0  0  0  0  0  0
  184.2080  179.8350  144.4050 C   0  0  2  0  0  3  0  0  0  0  0  0
  184.0320  177.9970  145.9200 O   0  0  0  0  0  0  0  0  0  0  0  0
  182.9870  178.7530  141.2480 C   0  0  0  0  0  0  0  0  0  0  0  0
  181.9030  179.0260  140.3590 N   0  0  0  0  0  2  0  0  0  0  0  0
  184.0980  178.3600  140.7960 O   0  0  0  0  0  0  0  0  0  0  0  0
  182.7980  178.9210  142.6520 N   0  0  0  0  0  2  0  0  0  0  0  0
  180.3830  178.3660  137.1510 C   0  0  1  0  0  3  0  0  0  0  0  0
  180.8490  177.0360  137.7110 C   0  0  0  0  0  2  0  0  0  0  0  0
  181.9980  178.8260  138.9210 C   0  0  2  0  0  3  0  0  0  0  0  0
  180.7440  179.3560  138.2480 C   0  0  1  0  0  3  0  0  0  0  0  0
  182.0440  177.3390  138.6000 C   0  0  0  0  0  2  0  0  0  0  0  0
  180.8540  180.7830  137.7950 C   0  0  0  0  0  0  0  0  0  0  0  0
  181.0730  183.4680  137.0230 C   0  0  0  0  0  3  0  0  0  0  0  0
  180.0850  181.2770  136.7300 C   0  0  0  0  0  3  0  0  0  0  0  0
  180.1960  182.6160  136.3440 C   0  0  0  0  0  3  0  0  0  0  0  0
  181.8370  182.9820  138.0880 C   0  0  0  0  0  3  0  0  0  0  0  0
  181.7250  181.6430  138.4750 C   0  0  0  0  0  3  0  0  0  0  0  0
  181.1010  178.6510  135.9540 O   0  0  0  0  0  0  0  0  0  0  0  0
  180.2060  176.9740  134.3480 C   0  0  0  0  0  1  0  0  0  0  0  0
  182.5260  177.4070  134.6230 O   0  0  0  0  0  0  0  0  0  0  0  0
  181.3490  177.6850  134.9770 C   0  0  0  0  0  0  0  0  0  0  0  0
  1  2  1  0  0  0  0
  1 11  1  0  0  0  0
  3  8  2  0  0  0  0
  4  3  1  0  0  0  0
  4  7  2  0  0  0  0
  5  1  2  0  0  0  0
  6  2  2  0  0  0  0
  7  5  1  0  0  0  0
  7  6  1  0  0  0  0
  8  6  1  0  0  0  0
  8 28  1  0  0  0  0
  9 10  1  0  0  0  0
 11 13  1  0  0  0  0
 12 11  2  0  0  0  0
 12  9  1  0  0  0  0
 13 10  2  0  0  0  0
 14  4  1  0  0  0  0
 15 14  1  0  0  0  0
 16 18  1  1  0  0  0
 16 15  1  0  0  0  0
 18 17  2  0  0  0  0
 19 16  1  0  0  0  0
 21 20  1  6  0  0  0
 21 19  1  0  0  0  0
 22 23  1  6  0  0  0
 22 24  1  0  0  0  0
 22 21  1  0  0  0  0
 26 27  1  0  0  0  0
 26 25  1  0  0  0  0
 27 24  1  0  0  0  0
 27 25  1  0  0  0  0
 29 38  1  6  0  0  0
 29 33  1  0  0  0  0
 29 32  1  0  0  0  0
 30 28  1  6  0  0  0
 31 30  1  0  0  0  0
 32 34  1  1  0  0  0
 33 32  1  0  0  0  0
 33 31  1  1  0  0  0
 34 30  1  0  0  0  0
 35 38  1  0  0  0  0
 36 35  1  0  0  0  0
 37 35  2  0  0  0  0
 39 50  1  6  0  0  0
 39 40  1  0  0  0  0
 39 42  1  0  0  0  0
 40 43  1  0  0  0  0
 41 36  1  1  0  0  0
 42 44  1  6  0  0  0
 42 41  1  0  0  0  0
 43 41  1  0  0  0  0
 44 49  1  0  0  0  0
 45 48  1  0  0  0  0
 46 44  2  0  0  0  0
 47 46  1  0  0  0  0
 47 45  2  0  0  0  0
 48 49  2  0  0  0  0
 51 53  1  0  0  0  0
 52 53  2  0  0  0  0
 53 50  1  0  0  0  0
M  END
>  <MODEL>
3

>  <REMARK>
 VINA RESULT:      -7.8      1.486      1.919
  Name = 
  17 active torsions:
  status: ('A' for Active; 'I' for Inactive)
    1  A    between atoms: C_1  and  N_37
    2  A    between atoms: C_5  and  C_7
    3  A    between atoms: O_6  and  C_9
    4  A    between atoms: O_6  and  C_51
    5  A    between atoms: C_7  and  N_43
    6  A    between atoms: C_7  and  S_44
    7  A    between atoms: C_8  and  C_36
    8  A    between atoms: C_10  and  C_17
    9  A    between atoms: C_12  and  C_42
   10  A    between atoms: N_15  and  C_38
   11  A    between atoms: N_15  and  C_45
   12  A    between atoms: C_23  and  C_29
   13  A    between atoms: N_25  and  C_39
   14  A    between atoms: C_29  and  S_44
   15  A    between atoms: C_30  and  N_43
   16  A    between atoms: C_30  and  C_45
   17  A    between atoms: C_36  and  C_49
                            x       y       z     vdW  Elec       q    Type
                         _______ _______ _______ _____ _____    ______ ____

>  <TORSDO>
F 17

$$$$
=
 OpenBabel10232409273D

 53 60  0  0  1  0  0  0  0  0999 V2000
  184.0940  178.6480  138.4350 C   0  0  0  0  0  0  0  0  0  0  0  0
  183.4070  179.5840  139.0280 N   0  0  0  0  0  0  0  0  0  0  0  0
  180.0650  178.2930  138.8770 C   0  0  0  0  0  3  0  0  0  0  0  0
  180.7320  177.5750  137.9630 C   0  0  0  0  0  0  0  0  0  0  0  0
  183.2480  177.6600  137.7100 C   0  0  0  0  0  3  0  0  0  0  0  0
  182.0810  179.3070  138.6270 C   0  0  0  0  0  0  0  0  0  0  0  0
  182.0370  178.1820  137.7950 C   0  0  0  0  0  0  0  0  0  0  0  0
  180.9590  179.3850  139.3260 C   0  0  0  0  0  0  0  0  0  0  0  0
  187.6420  178.2940  138.1400 O   0  0  0  0  0  0  0  0  0  0  0  0
  187.5570  178.3660  139.4370 N   0  0  0  0  0  0  0  0  0  0  0  0
  185.5480  178.5240  138.5800 C   0  0  0  0  0  0  0  0  0  0  0  0
  186.4660  178.3820  137.5630 C   0  0  0  0  0  3  0  0  0  0  0  0
  186.2590  178.5090  139.7610 C   0  0  0  0  0  3  0  0  0  0  0  0
  180.2400  176.3430  137.2840 C   0  0  0  0  0  2  0  0  0  0  0  0
  181.3900  175.7990  135.9710 S   0  0  0  0  0  0  0  0  0  0  0  0
  181.9030  174.2200  136.7460 C   0  0  1  0  0  3  0  0  0  0  0  0
  180.8600  172.2590  137.5370 O   0  0  0  0  0  0  0  0  0  0  0  0
  180.7610  173.2640  136.8540 C   0  0  0  0  0  3  0  0  0  0  0  0
  183.0080  173.6100  136.0230 N   0  0  0  0  0  2  0  0  0  0  0  0
  184.0380  174.3360  137.9750 O   0  0  0  0  0  1  0  0  0  0  0  0
  184.0620  173.3460  136.9930 C   0  0  2  0  0  3  0  0  0  0  0  0
  185.4230  173.3340  136.3050 C   0  0  2  0  0  3  0  0  0  0  0  0
  185.9220  172.0300  136.2640 O   0  0  0  0  0  1  0  0  0  0  0  0
  186.3510  174.1800  137.0390 N   0  0  0  0  0  2  0  0  0  0  0  0
  187.8830  175.4850  135.6910 C   0  0  0  0  0  2  0  0  0  0  0  0
  188.5840  175.1170  136.9800 C   0  0  0  0  0  2  0  0  0  0  0  0
  187.6230  174.1370  136.3360 C   0  0  0  0  0  3  0  0  0  0  0  0
  180.7510  180.2310  140.5370 C   0  0  0  0  0  2  0  0  0  0  0  0
  182.9530  179.1520  143.6700 C   0  0  2  0  0  3  0  0  0  0  0  0
  180.6470  179.3670  141.7830 C   0  0  1  0  0  3  0  0  0  0  0  0
  181.6820  178.2730  141.7260 C   0  0  0  0  0  2  0  0  0  0  0  0
  181.4540  179.2480  143.8770 C   0  0  2  0  0  3  0  0  0  0  0  0
  182.0440  178.0480  143.1640 C   0  0  2  0  0  3  0  0  0  0  0  0
  180.9020  180.1320  142.9320 O   0  0  0  0  0  0  0  0  0  0  0  0
  184.9940  178.8170  145.1090 C   0  0  0  0  0  0  0  0  0  0  0  0
  185.5440  178.4570  146.3770 N   0  0  0  0  0  2  0  0  0  0  0  0
  185.7470  179.2090  144.1760 O   0  0  0  0  0  0  0  0  0  0  0  0
  183.5830  178.7350  144.9110 N   0  0  0  0  0  2  0  0  0  0  0  0
  188.6950  176.9820  147.3440 C   0  0  1  0  0  3  0  0  0  0  0  0
  188.0400  177.5120  148.6050 C   0  0  0  0  0  2  0  0  0  0  0  0
  186.9640  178.5660  146.6760 C   0  0  2  0  0  3  0  0  0  0  0  0
  187.6730  177.2900  146.2600 C   0  0  1  0  0  3  0  0  0  0  0  0
  187.1760  178.6880  148.1790 C   0  0  0  0  0  2  0  0  0  0  0  0
  188.2290  177.3290  144.8660 C   0  0  0  0  0  0  0  0  0  0  0  0
  189.2590  177.3270  142.2590 C   0  0  0  0  0  3  0  0  0  0  0  0
  189.1740  178.2910  144.4780 C   0  0  0  0  0  3  0  0  0  0  0  0
  189.6860  178.2910  143.1780 C   0  0  0  0  0  3  0  0  0  0  0  0
  188.3210  176.3630  142.6420 C   0  0  0  0  0  3  0  0  0  0  0  0
  187.8100  176.3630  143.9440 C   0  0  0  0  0  3  0  0  0  0  0  0
  189.9100  177.6890  147.1110 O   0  0  0  0  0  0  0  0  0  0  0  0
  191.6610  176.2630  146.0640 C   0  0  0  0  0  1  0  0  0  0  0  0
  191.8770  177.2140  148.2310 O   0  0  0  0  0  0  0  0  0  0  0  0
  191.1640  177.0800  147.2010 C   0  0  0  0  0  0  0  0  0  0  0  0
  1 11  1  0  0  0  0
  1  2  1  0  0  0  0
  3  8  2  0  0  0  0
  4  3  1  0  0  0  0
  5  7  1  0  0  0  0
  5  1  2  0  0  0  0
  6  2  2  0  0  0  0
  6  8  1  0  0  0  0
  7  4  2  0  0  0  0
  7  6  1  0  0  0  0
  8 28  1  0  0  0  0
  9 10  1  0  0  0  0
 10 13  2  0  0  0  0
 11 13  1  0  0  0  0
 12  9  1  0  0  0  0
 12 11  2  0  0  0  0
 14  4  1  0  0  0  0
 15 16  1  0  0  0  0
 15 14  1  0  0  0  0
 16 18  1  6  0  0  0
 18 17  2  0  0  0  0
 19 16  1  0  0  0  0
 19 21  1  0  0  0  0
 21 20  1  1  0  0  0
 22 23  1  1  0  0  0
 22 21  1  0  0  0  0
 22 24  1  0  0  0  0
 25 27  1  0  0  0  0
 25 26  1  0  0  0  0
 27 26  1  0  0  0  0
 27 24  1  0  0  0  0
 29 32  1  0  0  0  0
 29 38  1  1  0  0  0
 30 28  1  6  0  0  0
 30 34  1  0  0  0  0
 31 30  1  0  0  0  0
 32 34  1  6  0  0  0
 33 31  1  6  0  0  0
 33 29  1  0  0  0  0
 33 32  1  0  0  0  0
 35 36  1  0  0  0  0
 37 35  2  0  0  0  0
 38 35  1  0  0  0  0
 39 50  1  6  0  0  0
 39 40  1  0  0  0  0
 41 36  1  1  0  0  0
 41 43  1  0  0  0  0
 42 44  1  6  0  0  0
 42 41  1  0  0  0  0
 42 39  1  0  0  0  0
 43 40  1  0  0  0  0
 45 48  2  0  0  0  0
 45 47  1  0  0  0  0
 46 44  1  0  0  0  0
 47 46  2  0  0  0  0
 48 49  1  0  0  0  0
 49 44  2  0  0  0  0
 50 53  1  0  0  0  0
 51 53  1  0  0  0  0
 53 52  2  0  0  0  0
M  END
>  <MODEL>
4

>  <REMARK>
 VINA RESULT:      -7.6      3.375      9.686
  Name = 
  17 active torsions:
  status: ('A' for Active; 'I' for Inactive)
    1  A    between atoms: C_1  and  N_37
    2  A    between atoms: C_5  and  C_7
    3  A    between atoms: O_6  and  C_9
    4  A    between atoms: O_6  and  C_51
    5  A    between atoms: C_7  and  N_43
    6  A    between atoms: C_7  and  S_44
    7  A    between atoms: C_8  and  C_36
    8  A    between atoms: C_10  and  C_17
    9  A    between atoms: C_12  and  C_42
   10  A    between atoms: N_15  and  C_38
   11  A    between atoms: N_15  and  C_45
   12  A    between atoms: C_23  and  C_29
   13  A    between atoms: N_25  and  C_39
   14  A    between atoms: C_29  and  S_44
   15  A    between atoms: C_30  and  N_43
   16  A    between atoms: C_30  and  C_45
   17  A    between atoms: C_36  and  C_49
                            x       y       z     vdW  Elec       q    Type
                         _______ _______ _______ _____ _____    ______ ____

>  <TORSDO>
F 17

$$$$
=
 OpenBabel10232409273D

 53 60  0  0  1  0  0  0  0  0999 V2000
  186.5770  177.7870  137.8050 C   0  0  0  0  0  0  0  0  0  0  0  0
  185.7650  178.7470  138.1530 N   0  0  0  0  0  0  0  0  0  0  0  0
  182.5670  177.4050  137.2380 C   0  0  0  0  0  3  0  0  0  0  0  0
  183.4420  176.6470  136.5640 C   0  0  0  0  0  0  0  0  0  0  0  0
  185.9400  176.7500  136.9480 C   0  0  0  0  0  3  0  0  0  0  0  0
  184.5820  178.4300  137.4460 C   0  0  0  0  0  0  0  0  0  0  0  0
  184.7480  177.2600  136.6960 C   0  0  0  0  0  0  0  0  0  0  0  0
  183.3210  178.5320  137.8350 C   0  0  0  0  0  0  0  0  0  0  0  0
  189.8760  178.1970  139.1280 O   0  0  0  0  0  0  0  0  0  0  0  0
  189.9040  176.9130  138.9190 N   0  0  0  0  0  0  0  0  0  0  0  0
  187.9480  177.6910  138.3180 C   0  0  0  0  0  0  0  0  0  0  0  0
  188.7250  178.7270  138.7870 C   0  0  0  0  0  3  0  0  0  0  0  0
  188.7150  176.5490  138.4080 C   0  0  0  0  0  3  0  0  0  0  0  0
  183.1360  175.3730  135.8530 C   0  0  0  0  0  2  0  0  0  0  0  0
  183.0430  173.9650  137.0150 S   0  0  0  0  0  0  0  0  0  0  0  0
  182.5560  172.6860  135.7980 C   0  0  1  0  0  3  0  0  0  0  0  0
  180.2420  173.1230  135.9420 O   0  0  0  0  0  0  0  0  0  0  0  0
  181.2090  172.9640  135.2150 C   0  0  0  0  0  3  0  0  0  0  0  0
  183.5480  172.5560  134.7410 N   0  0  0  0  0  2  0  0  0  0  0  0
  184.0890  170.9210  136.3000 O   0  0  0  0  0  1  0  0  0  0  0  0
  184.2570  171.3060  134.9700 C   0  0  2  0  0  3  0  0  0  0  0  0
  185.7430  171.4780  134.6680 C   0  0  2  0  0  3  0  0  0  0  0  0
  186.4800  170.5100  135.3530 O   0  0  0  0  0  1  0  0  0  0  0  0
  186.1790  172.8010  135.0860 N   0  0  0  0  0  2  0  0  0  0  0  0
  187.6960  174.5420  134.3570 C   0  0  0  0  0  2  0  0  0  0  0  0
  188.3760  173.7510  135.4540 C   0  0  0  0  0  2  0  0  0  0  0  0
  187.4700  173.0470  134.4640 C   0  0  0  0  0  3  0  0  0  0  0  0
  182.8150  179.4410  138.9050 C   0  0  0  0  0  2  0  0  0  0  0  0
  184.2720  178.8070  142.5520 C   0  0  2  0  0  3  0  0  0  0  0  0
  182.4840  178.6560  140.1630 C   0  0  1  0  0  3  0  0  0  0  0  0
  183.5910  177.6730  140.4500 C   0  0  0  0  0  2  0  0  0  0  0  0
  182.7650  178.7600  142.3900 C   0  0  2  0  0  3  0  0  0  0  0  0
  183.6090  177.5830  141.9470 C   0  0  2  0  0  3  0  0  0  0  0  0
  182.3870  179.5180  141.2660 O   0  0  0  0  0  0  0  0  0  0  0  0
  185.9640  178.5460  144.4000 C   0  0  0  0  0  0  0  0  0  0  0  0
  186.2300  178.3460  145.7890 N   0  0  0  0  0  2  0  0  0  0  0  0
  186.9140  178.7330  143.5910 O   0  0  0  0  0  0  0  0  0  0  0  0
  184.6140  178.5400  143.9390 N   0  0  0  0  0  2  0  0  0  0  0  0
  189.1100  176.7250  147.2410 C   0  0  1  0  0  3  0  0  0  0  0  0
  188.2490  177.2230  148.3860 C   0  0  0  0  0  2  0  0  0  0  0  0
  187.5730  178.3940  146.3470 C   0  0  2  0  0  3  0  0  0  0  0  0
  188.3130  177.1130  146.0060 C   0  0  1  0  0  3  0  0  0  0  0  0
  187.5090  178.4450  147.8670 C   0  0  0  0  0  2  0  0  0  0  0  0
  189.1160  177.1930  144.7400 C   0  0  0  0  0  0  0  0  0  0  0  0
  190.6120  177.4190  142.3810 C   0  0  0  0  0  3  0  0  0  0  0  0
  188.9870  176.2310  143.7260 C   0  0  0  0  0  3  0  0  0  0  0  0
  189.7350  176.3440  142.5500 C   0  0  0  0  0  3  0  0  0  0  0  0
  190.7400  178.3830  143.3850 C   0  0  0  0  0  3  0  0  0  0  0  0
  189.9910  178.2710  144.5610 C   0  0  0  0  0  3  0  0  0  0  0  0
  190.3660  177.4000  147.2680 O   0  0  0  0  0  0  0  0  0  0  0  0
  191.9710  175.5130  147.0280 C   0  0  0  0  0  1  0  0  0  0  0  0
  192.2530  177.2720  148.6000 O   0  0  0  0  0  0  0  0  0  0  0  0
  191.5460  176.7770  147.6810 C   0  0  0  0  0  0  0  0  0  0  0  0
  1  2  1  0  0  0  0
  1 11  1  0  0  0  0
  3  8  2  0  0  0  0
  4  7  2  0  0  0  0
  4  3  1  0  0  0  0
  5  1  2  0  0  0  0
  6  8  1  0  0  0  0
  6  2  2  0  0  0  0
  7  5  1  0  0  0  0
  7  6  1  0  0  0  0
  8 28  1  0  0  0  0
 10  9  1  0  0  0  0
 11 13  1  0  0  0  0
 11 12  2  0  0  0  0
 12  9  1  0  0  0  0
 13 10  2  0  0  0  0
 14  4  1  0  0  0  0
 14 15  1  0  0  0  0
 16 18  1  6  0  0  0
 16 15  1  0  0  0  0
 18 17  2  0  0  0  0
 19 21  1  0  0  0  0
 19 16  1  0  0  0  0
 21 20  1  1  0  0  0
 22 21  1  0  0  0  0
 22 24  1  0  0  0  0
 22 23  1  1  0  0  0
 25 27  1  0  0  0  0
 25 26  1  0  0  0  0
 27 24  1  0  0  0  0
 27 26  1  0  0  0  0
 29 38  1  1  0  0  0
 30 28  1  6  0  0  0
 30 31  1  0  0  0  0
 30 34  1  0  0  0  0
 32 34  1  6  0  0  0
 32 29  1  0  0  0  0
 33 31  1  6  0  0  0
 33 32  1  0  0  0  0
 33 29  1  0  0  0  0
 35 36  1  0  0  0  0
 37 35  2  0  0  0  0
 38 35  1  0  0  0  0
 39 50  1  6  0  0  0
 39 40  1  0  0  0  0
 41 36  1  6  0  0  0
 41 43  1  0  0  0  0
 42 44  1  6  0  0  0
 42 41  1  0  0  0  0
 42 39  1  0  0  0  0
 43 40  1  0  0  0  0
 45 47  2  0  0  0  0
 45 48  1  0  0  0  0
 46 44  2  0  0  0  0
 47 46  1  0  0  0  0
 48 49  2  0  0  0  0
 49 44  1  0  0  0  0
 50 53  1  0  0  0  0
 51 53  1  0  0  0  0
 53 52  2  0  0  0  0
M  END
>  <MODEL>
5

>  <REMARK>
 VINA RESULT:      -7.3      3.616      9.813
  Name = 
  17 active torsions:
  status: ('A' for Active; 'I' for Inactive)
    1  A    between atoms: C_1  and  N_37
    2  A    between atoms: C_5  and  C_7
    3  A    between atoms: O_6  and  C_9
    4  A    between atoms: O_6  and  C_51
    5  A    between atoms: C_7  and  N_43
    6  A    between atoms: C_7  and  S_44
    7  A    between atoms: C_8  and  C_36
    8  A    between atoms: C_10  and  C_17
    9  A    between atoms: C_12  and  C_42
   10  A    between atoms: N_15  and  C_38
   11  A    between atoms: N_15  and  C_45
   12  A    between atoms: C_23  and  C_29
   13  A    between atoms: N_25  and  C_39
   14  A    between atoms: C_29  and  S_44
   15  A    between atoms: C_30  and  N_43
   16  A    between atoms: C_30  and  C_45
   17  A    between atoms: C_36  and  C_49
                            x       y       z     vdW  Elec       q    Type
                         _______ _______ _______ _____ _____    ______ ____

>  <TORSDO>
F 17

$$$$
=
 OpenBabel10232409273D

 53 60  0  0  1  0  0  0  0  0999 V2000
  187.4960  177.1530  137.5660 C   0  0  0  0  0  0  0  0  0  0  0  0
  186.7230  178.1940  137.7030 N   0  0  0  0  0  0  0  0  0  0  0  0
  183.4630  176.7950  137.1750 C   0  0  0  0  0  3  0  0  0  0  0  0
  184.2970  175.8740  136.6720 C   0  0  0  0  0  0  0  0  0  0  0  0
  186.8060  175.9730  136.9770 C   0  0  0  0  0  3  0  0  0  0  0  0
  185.5130  177.7690  137.1080 C   0  0  0  0  0  0  0  0  0  0  0  0
  185.6240  176.4550  136.6380 C   0  0  0  0  0  0  0  0  0  0  0  0
  184.2650  178.0000  137.4870 C   0  0  0  0  0  0  0  0  0  0  0  0
  191.0190  177.2920  138.1800 O   0  0  0  0  0  0  0  0  0  0  0  0
  190.6330  176.8440  139.3390 N   0  0  0  0  0  0  0  0  0  0  0  0
  188.8760  177.1260  138.0620 C   0  0  0  0  0  0  0  0  0  0  0  0
  190.0080  177.4830  137.3640 C   0  0  0  0  0  3  0  0  0  0  0  0
  189.2930  176.7210  139.3130 C   0  0  0  0  0  3  0  0  0  0  0  0
  183.9340  174.4840  136.2740 C   0  0  0  0  0  2  0  0  0  0  0  0
  184.4570  173.2680  137.5340 S   0  0  0  0  0  0  0  0  0  0  0  0
  185.2690  172.0840  136.3970 C   0  0  1  0  0  3  0  0  0  0  0  0
  184.6620  170.6590  134.6190 O   0  0  0  0  0  0  0  0  0  0  0  0
  184.2920  171.4760  135.4460 C   0  0  0  0  0  3  0  0  0  0  0  0
  186.3610  172.7130  135.6700 N   0  0  0  0  0  2  0  0  0  0  0  0
  187.8730  172.2090  137.3590 O   0  0  0  0  0  1  0  0  0  0  0  0
  187.5780  171.9920  136.0130 C   0  0  2  0  0  3  0  0  0  0  0  0
  188.7380  172.4710  135.1470 C   0  0  2  0  0  3  0  0  0  0  0  0
  189.6860  171.4530  135.0200 O   0  0  0  0  0  1  0  0  0  0  0  0
  189.3620  173.6330  135.7600 N   0  0  0  0  0  2  0  0  0  0  0  0
  191.5400  174.6930  135.7700 C   0  0  0  0  0  2  0  0  0  0  0  0
  191.3550  173.9790  137.0910 C   0  0  0  0  0  2  0  0  0  0  0  0
  190.7920  173.3750  135.8210 C   0  0  0  0  0  3  0  0  0  0  0  0
  183.8150  179.1440  138.3330 C   0  0  0  0  0  2  0  0  0  0  0  0
  184.8070  178.3250  142.0980 C   0  0  2  0  0  3  0  0  0  0  0  0
  183.1740  178.6410  139.6160 C   0  0  1  0  0  3  0  0  0  0  0  0
  183.8280  177.3490  140.0350 C   0  0  0  0  0  2  0  0  0  0  0  0
  183.3960  178.8200  141.8450 C   0  0  2  0  0  3  0  0  0  0  0  0
  183.7600  177.3830  141.5330 C   0  0  2  0  0  3  0  0  0  0  0  0
  183.3640  179.5670  140.6540 O   0  0  0  0  0  0  0  0  0  0  0  0
  186.2490  178.1690  144.1590 C   0  0  0  0  0  0  0  0  0  0  0  0
  186.3380  177.9730  145.5700 N   0  0  0  0  0  2  0  0  0  0  0  0
  187.2820  178.4360  143.4860 O   0  0  0  0  0  0  0  0  0  0  0  0
  184.9770  178.0680  143.5180 N   0  0  0  0  0  2  0  0  0  0  0  0
  189.1620  176.5470  147.3110 C   0  0  1  0  0  3  0  0  0  0  0  0
  188.1140  176.8830  148.3530 C   0  0  0  0  0  2  0  0  0  0  0  0
  187.5860  178.1140  146.3050 C   0  0  2  0  0  3  0  0  0  0  0  0
  188.4940  176.9350  146.0010 C   0  0  1  0  0  3  0  0  0  0  0  0
  187.3230  178.0590  147.8030 C   0  0  0  0  0  2  0  0  0  0  0  0
  189.4400  177.1740  144.8600 C   0  0  0  0  0  0  0  0  0  0  0  0
  191.2230  177.5460  142.7300 C   0  0  0  0  0  3  0  0  0  0  0  0
  190.1280  178.3890  144.7180 C   0  0  0  0  0  3  0  0  0  0  0  0
  191.0170  178.5740  143.6550 C   0  0  0  0  0  3  0  0  0  0  0  0
  190.5430  176.3320  142.8700 C   0  0  0  0  0  3  0  0  0  0  0  0
  189.6550  176.1460  143.9350 C   0  0  0  0  0  3  0  0  0  0  0  0
  190.3260  177.3360  147.5400 O   0  0  0  0  0  0  0  0  0  0  0  0
  191.9640  175.5560  146.9540 C   0  0  0  0  0  1  0  0  0  0  0  0
  192.4220  177.2860  148.5180 O   0  0  0  0  0  0  0  0  0  0  0  0
  191.5920  176.7750  147.7180 C   0  0  0  0  0  0  0  0  0  0  0  0
  1  2  1  0  0  0  0
  1 11  1  0  0  0  0
  3  8  2  0  0  0  0
  4  3  1  0  0  0  0
  5  1  2  0  0  0  0
  6  8  1  0  0  0  0
  6  2  2  0  0  0  0
  7  4  2  0  0  0  0
  7  5  1  0  0  0  0
  7  6  1  0  0  0  0
  8 28  1  0  0  0  0
  9 10  1  0  0  0  0
 11 13  1  0  0  0  0
 12 11  2  0  0  0  0
 12  9  1  0  0  0  0
 13 10  2  0  0  0  0
 14  4  1  0  0  0  0
 14 15  1  0  0  0  0
 16 18  1  6  0  0  0
 16 15  1  0  0  0  0
 17 18  2  0  0  0  0
 19 21  1  0  0  0  0
 19 16  1  0  0  0  0
 21 20  1  1  0  0  0
 22 23  1  1  0  0  0
 22 24  1  0  0  0  0
 22 21  1  0  0  0  0
 24 27  1  0  0  0  0
 25 27  1  0  0  0  0
 25 26  1  0  0  0  0
 27 26  1  0  0  0  0
 29 38  1  1  0  0  0
 30 28  1  6  0  0  0
 30 31  1  0  0  0  0
 30 34  1  0  0  0  0
 32 34  1  6  0  0  0
 32 29  1  0  0  0  0
 33 31  1  6  0  0  0
 33 32  1  0  0  0  0
 33 29  1  0  0  0  0
 35 36  1  0  0  0  0
 37 35  2  0  0  0  0
 38 35  1  0  0  0  0
 39 50  1  1  0  0  0
 39 40  1  0  0  0  0
 41 36  1  6  0  0  0
 41 43  1  0  0  0  0
 42 44  1  6  0  0  0
 42 41  1  0  0  0  0
 42 39  1  0  0  0  0
 43 40  1  0  0  0  0
 45 48  2  0  0  0  0
 45 47  1  0  0  0  0
 46 44  1  0  0  0  0
 47 46  2  0  0  0  0
 48 49  1  0  0  0  0
 49 44  2  0  0  0  0
 50 53  1  0  0  0  0
 51 53  1  0  0  0  0
 53 52  2  0  0  0  0
M  END
>  <MODEL>
6

>  <REMARK>
 VINA RESULT:      -7.3      3.230      9.436
  Name = 
  17 active torsions:
  status: ('A' for Active; 'I' for Inactive)
    1  A    between atoms: C_1  and  N_37
    2  A    between atoms: C_5  and  C_7
    3  A    between atoms: O_6  and  C_9
    4  A    between atoms: O_6  and  C_51
    5  A    between atoms: C_7  and  N_43
    6  A    between atoms: C_7  and  S_44
    7  A    between atoms: C_8  and  C_36
    8  A    between atoms: C_10  and  C_17
    9  A    between atoms: C_12  and  C_42
   10  A    between atoms: N_15  and  C_38
   11  A    between atoms: N_15  and  C_45
   12  A    between atoms: C_23  and  C_29
   13  A    between atoms: N_25  and  C_39
   14  A    between atoms: C_29  and  S_44
   15  A    between atoms: C_30  and  N_43
   16  A    between atoms: C_30  and  C_45
   17  A    between atoms: C_36  and  C_49
                            x       y       z     vdW  Elec       q    Type
                         _______ _______ _______ _____ _____    ______ ____

>  <TORSDO>
F 17

$$$$
=
 OpenBabel10232409273D

 53 60  0  0  1  0  0  0  0  0999 V2000
  193.4400  173.6850  136.9810 C   0  0  0  0  0  0  0  0  0  0  0  0
  192.4790  172.9630  136.4750 N   0  0  0  0  0  0  0  0  0  0  0  0
  189.6960  175.2240  136.5730 C   0  0  0  0  0  3  0  0  0  0  0  0
  190.5850  175.7660  137.4160 C   0  0  0  0  0  0  0  0  0  0  0  0
  192.9630  174.9340  137.6360 C   0  0  0  0  0  3  0  0  0  0  0  0
  191.3170  173.6620  136.8740 C   0  0  0  0  0  0  0  0  0  0  0  0
  191.6490  174.8030  137.6120 C   0  0  0  0  0  0  0  0  0  0  0  0
  190.1980  173.8810  136.2000 C   0  0  0  0  0  0  0  0  0  0  0  0
  196.7010  172.2490  136.6560 O   0  0  0  0  0  0  0  0  0  0  0  0
  197.0180  173.5000  136.4930 N   0  0  0  0  0  0  0  0  0  0  0  0
  194.8560  173.3470  136.8040 C   0  0  0  0  0  0  0  0  0  0  0  0
  195.4120  172.0880  136.8480 C   0  0  0  0  0  3  0  0  0  0  0  0
  195.8910  174.2300  136.5810 C   0  0  0  0  0  3  0  0  0  0  0  0
  190.5180  177.1360  138.0010 C   0  0  0  0  0  2  0  0  0  0  0  0
  189.2340  177.2460  139.2980 S   0  0  0  0  0  0  0  0  0  0  0  0
  190.3450  177.0900  140.7450 C   0  0  1  0  0  3  0  0  0  0  0  0
  192.5870  177.6370  141.2320 O   0  0  0  0  0  0  0  0  0  0  0  0
  191.7700  177.3450  140.3750 C   0  0  0  0  0  3  0  0  0  0  0  0
  189.9360  177.9750  141.8250 N   0  0  0  0  0  2  0  0  0  0  0  0
  188.3120  176.4520  142.4880 O   0  0  0  0  0  1  0  0  0  0  0  0
  189.4540  177.1340  142.9100 C   0  0  2  0  0  3  0  0  0  0  0  0
  189.1230  177.9850  144.1320 C   0  0  2  0  0  3  0  0  0  0  0  0
  190.2290  178.7650  144.4790 O   0  0  0  0  0  1  0  0  0  0  0  0
  188.7740  177.1230  145.2510 N   0  0  0  0  0  2  0  0  0  0  0  0
  188.8400  176.9740  147.6680 C   0  0  0  0  0  2  0  0  0  0  0  0
  190.2270  176.6810  147.1380 C   0  0  0  0  0  2  0  0  0  0  0  0
  189.3560  177.7110  146.4470 C   0  0  0  0  0  3  0  0  0  0  0  0
  189.6940  173.0540  135.0640 C   0  0  0  0  0  2  0  0  0  0  0  0
  186.3910  174.4830  136.7610 C   0  0  2  0  0  3  0  0  0  0  0  0
  188.2460  172.6570  135.2920 C   0  0  1  0  0  3  0  0  0  0  0  0
  187.9730  172.5680  136.7720 C   0  0  0  0  0  2  0  0  0  0  0  0
  186.2170  173.5900  135.5480 C   0  0  2  0  0  3  0  0  0  0  0  0
  186.5360  172.9780  136.8970 C   0  0  2  0  0  3  0  0  0  0  0  0
  187.3830  173.6280  134.7610 O   0  0  0  0  0  0  0  0  0  0  0  0
  184.7730  176.2580  137.5210 C   0  0  0  0  0  0  0  0  0  0  0  0
  183.4500  176.6050  137.9290 N   0  0  0  0  0  2  0  0  0  0  0  0
  185.6570  177.1500  137.3990 O   0  0  0  0  0  0  0  0  0  0  0  0
  185.0850  174.8930  137.2460 N   0  0  0  0  0  2  0  0  0  0  0  0
  181.1850  179.0200  139.3710 C   0  0  1  0  0  3  0  0  0  0  0  0
  180.7380  178.7800  137.9420 C   0  0  0  0  0  2  0  0  0  0  0  0
  183.0390  177.9800  138.1740 C   0  0  2  0  0  3  0  0  0  0  0  0
  182.3690  178.0780  139.5320 C   0  0  1  0  0  3  0  0  0  0  0  0
  181.9840  178.4010  137.1590 C   0  0  0  0  0  2  0  0  0  0  0  0
  183.3070  178.4340  140.6490 C   0  0  0  0  0  0  0  0  0  0  0  0
  184.9990  179.1270  142.7730 C   0  0  0  0  0  3  0  0  0  0  0  0
  184.6390  178.7980  140.4010 C   0  0  0  0  0  3  0  0  0  0  0  0
  185.4830  179.1420  141.4610 C   0  0  0  0  0  3  0  0  0  0  0  0
  183.6710  178.7700  143.0240 C   0  0  0  0  0  3  0  0  0  0  0  0
  182.8260  178.4270  141.9630 C   0  0  0  0  0  3  0  0  0  0  0  0
  181.5940  180.3770  139.5150 O   0  0  0  0  0  0  0  0  0  0  0  0
  182.1350  182.4310  138.2170 C   0  0  0  0  0  1  0  0  0  0  0  0
  179.9820  181.4260  138.2300 O   0  0  0  0  0  0  0  0  0  0  0  0
  181.1700  181.3870  138.6490 C   0  0  0  0  0  0  0  0  0  0  0  0
  1  5  1  0  0  0  0
  2  6  1  0  0  0  0
  2  1  2  0  0  0  0
  3  4  2  0  0  0  0
  4  7  1  0  0  0  0
  4 14  1  0  0  0  0
  6  7  1  0  0  0  0
  7  5  2  0  0  0  0
  8  3  1  0  0  0  0
  8  6  2  0  0  0  0
  9 12  1  0  0  0  0
 10 13  2  0  0  0  0
 10  9  1  0  0  0  0
 11 12  2  0  0  0  0
 11  1  1  0  0  0  0
 13 11  1  0  0  0  0
 14 15  1  0  0  0  0
 15 16  1  0  0  0  0
 16 18  1  6  0  0  0
 16 19  1  0  0  0  0
 18 17  2  0  0  0  0
 19 21  1  0  0  0  0
 21 20  1  6  0  0  0
 21 22  1  0  0  0  0
 22 23  1  1  0  0  0
 22 24  1  0  0  0  0
 24 27  1  0  0  0  0
 26 25  1  0  0  0  0
 27 26  1  0  0  0  0
 27 25  1  0  0  0  0
 28  8  1  0  0  0  0
 29 33  1  0  0  0  0
 29 38  1  1  0  0  0
 30 28  1  1  0  0  0
 30 31  1  0  0  0  0
 32 34  1  6  0  0  0
 32 29  1  0  0  0  0
 32 33  1  0  0  0  0
 33 31  1  6  0  0  0
 34 30  1  0  0  0  0
 35 36  1  0  0  0  0
 37 35  2  0  0  0  0
 38 35  1  0  0  0  0
 39 50  1  6  0  0  0
 39 42  1  0  0  0  0
 40 39  1  0  0  0  0
 41 36  1  6  0  0  0
 41 42  1  0  0  0  0
 42 44  1  1  0  0  0
 43 40  1  0  0  0  0
 43 41  1  0  0  0  0
 44 49  1  0  0  0  0
 45 48  1  0  0  0  0
 46 44  2  0  0  0  0
 46 47  1  0  0  0  0
 47 45  2  0  0  0  0
 49 48  2  0  0  0  0
 51 53  1  0  0  0  0
 52 53  2  0  0  0  0
 53 50  1  0  0  0  0
M  END
>  <MODEL>
7

>  <REMARK>
 VINA RESULT:      -7.3      2.867      8.173
  Name = 
  17 active torsions:
  status: ('A' for Active; 'I' for Inactive)
    1  A    between atoms: C_1  and  N_37
    2  A    between atoms: C_5  and  C_7
    3  A    between atoms: O_6  and  C_9
    4  A    between atoms: O_6  and  C_51
    5  A    between atoms: C_7  and  N_43
    6  A    between atoms: C_7  and  S_44
    7  A    between atoms: C_8  and  C_36
    8  A    between atoms: C_10  and  C_17
    9  A    between atoms: C_12  and  C_42
   10  A    between atoms: N_15  and  C_38
   11  A    between atoms: N_15  and  C_45
   12  A    between atoms: C_23  and  C_29
   13  A    between atoms: N_25  and  C_39
   14  A    between atoms: C_29  and  S_44
   15  A    between atoms: C_30  and  N_43
   16  A    between atoms: C_30  and  C_45
   17  A    between atoms: C_36  and  C_49
                            x       y       z     vdW  Elec       q    Type
                         _______ _______ _______ _____ _____    ______ ____

>  <TORSDO>
F 17

$$$$
=
 OpenBabel10232409273D

 53 60  0  0  1  0  0  0  0  0999 V2000
  183.3990  178.5600  140.5840 C   0  0  0  0  0  0  0  0  0  0  0  0
  183.7080  178.5110  139.3180 N   0  0  0  0  0  0  0  0  0  0  0  0
  187.2480  177.9460  139.4170 C   0  0  0  0  0  3  0  0  0  0  0  0
  186.9540  178.3830  140.6500 C   0  0  0  0  0  0  0  0  0  0  0  0
  184.5820  178.6770  141.4790 C   0  0  0  0  0  3  0  0  0  0  0  0
  185.1080  178.7010  139.3260 C   0  0  0  0  0  0  0  0  0  0  0  0
  185.5830  178.8510  140.6350 C   0  0  0  0  0  0  0  0  0  0  0  0
  186.0380  178.1210  138.5820 C   0  0  0  0  0  0  0  0  0  0  0  0
  180.1950  178.6290  142.1750 O   0  0  0  0  0  0  0  0  0  0  0  0
  179.9840  177.6490  141.3460 N   0  0  0  0  0  0  0  0  0  0  0  0
  182.0250  178.3920  141.0670 C   0  0  0  0  0  0  0  0  0  0  0  0
  181.4070  179.1220  142.0580 C   0  0  0  0  0  3  0  0  0  0  0  0
  181.1070  177.4610  140.6300 C   0  0  0  0  0  3  0  0  0  0  0  0
  187.8570  178.3420  141.8350 C   0  0  0  0  0  2  0  0  0  0  0  0
  189.4080  177.4490  141.4640 S   0  0  0  0  0  0  0  0  0  0  0  0
  190.1950  177.6500  143.1050 C   0  0  1  0  0  3  0  0  0  0  0  0
  191.8480  179.1500  143.8670 O   0  0  0  0  0  0  0  0  0  0  0  0
  191.5050  178.3600  143.0040 C   0  0  0  0  0  3  0  0  0  0  0  0
  189.3140  178.3410  144.0330 N   0  0  0  0  0  2  0  0  0  0  0  0
  190.3160  176.6000  145.1990 O   0  0  0  0  0  1  0  0  0  0  0  0
  189.3690  177.6190  145.2960 C   0  0  2  0  0  3  0  0  0  0  0  0
  188.0040  177.0250  145.6260 C   0  0  2  0  0  3  0  0  0  0  0  0
  187.3860  176.5800  144.4560 O   0  0  0  0  0  1  0  0  0  0  0  0
  187.1680  178.0350  146.2570 N   0  0  0  0  0  2  0  0  0  0  0  0
  184.8700  178.6910  146.6490 C   0  0  0  0  0  2  0  0  0  0  0  0
  185.1470  178.8050  145.1660 C   0  0  0  0  0  2  0  0  0  0  0  0
  185.7840  177.6900  145.9710 C   0  0  0  0  0  3  0  0  0  0  0  0
  185.8120  177.5000  137.2440 C   0  0  0  0  0  2  0  0  0  0  0  0
  189.7240  176.7810  137.1460 C   0  0  2  0  0  3  0  0  0  0  0  0
  187.0090  177.7320  136.3370 C   0  0  1  0  0  3  0  0  0  0  0  0
  188.0240  178.5890  137.0510 C   0  0  0  0  0  2  0  0  0  0  0  0
  188.9910  176.8070  135.8190 C   0  0  2  0  0  3  0  0  0  0  0  0
  189.3390  178.1070  136.5150 C   0  0  2  0  0  3  0  0  0  0  0  0
  187.6310  176.5120  136.0250 O   0  0  0  0  0  0  0  0  0  0  0  0
  191.7290  175.2560  137.2000 C   0  0  0  0  0  0  0  0  0  0  0  0
  193.1040  175.0400  136.8790 N   0  0  0  0  0  2  0  0  0  0  0  0
  191.0460  174.3360  137.7280 O   0  0  0  0  0  0  0  0  0  0  0  0
  191.1340  176.5200  136.9090 N   0  0  0  0  0  2  0  0  0  0  0  0
  195.5200  172.5340  135.9220 C   0  0  1  0  0  3  0  0  0  0  0  0
  194.1880  172.1280  135.3200 C   0  0  0  0  0  2  0  0  0  0  0  0
  193.7680  173.7630  137.0920 C   0  0  2  0  0  3  0  0  0  0  0  0
  195.2070  173.8500  136.6160 C   0  0  1  0  0  3  0  0  0  0  0  0
  193.1140  172.6830  136.2420 C   0  0  0  0  0  2  0  0  0  0  0  0
  196.1810  174.2410  137.6900 C   0  0  0  0  0  0  0  0  0  0  0  0
  198.0540  174.9360  139.6550 C   0  0  0  0  0  3  0  0  0  0  0  0
  195.7890  174.3470  139.0330 C   0  0  0  0  0  3  0  0  0  0  0  0
  196.7240  174.6950  140.0130 C   0  0  0  0  0  3  0  0  0  0  0  0
  198.4490  174.8270  138.3180 C   0  0  0  0  0  3  0  0  0  0  0  0
  197.5150  174.4770  137.3390 C   0  0  0  0  0  3  0  0  0  0  0  0
  195.9310  171.5480  136.8650 O   0  0  0  0  0  0  0  0  0  0  0  0
  197.8180  170.8300  135.4100 C   0  0  0  0  0  1  0  0  0  0  0  0
  197.5510  170.0980  137.6540 O   0  0  0  0  0  0  0  0  0  0  0  0
  197.1000  170.7990  136.7100 C   0  0  0  0  0  0  0  0  0  0  0  0
  1 11  1  0  0  0  0
  1  5  1  0  0  0  0
  2  6  1  0  0  0  0
  2  1  2  0  0  0  0
  3  4  2  0  0  0  0
  4 14  1  0  0  0  0
  6  7  1  0  0  0  0
  7  4  1  0  0  0  0
  7  5  2  0  0  0  0
  8  6  2  0  0  0  0
  8  3  1  0  0  0  0
 10  9  1  0  0  0  0
 11 12  2  0  0  0  0
 12  9  1  0  0  0  0
 13 11  1  0  0  0  0
 13 10  2  0  0  0  0
 15 14  1  0  0  0  0
 15 16  1  0  0  0  0
 16 18  1  6  0  0  0
 16 19  1  0  0  0  0
 18 17  2  0  0  0  0
 19 21  1  0  0  0  0
 21 20  1  6  0  0  0
 21 22  1  0  0  0  0
 22 23  1  6  0  0  0
 22 24  1  0  0  0  0
 26 27  1  0  0  0  0
 26 25  1  0  0  0  0
 27 24  1  0  0  0  0
 27 25  1  0  0  0  0
 28  8  1  0  0  0  0
 29 38  1  6  0  0  0
 30 31  1  0  0  0  0
 30 28  1  1  0  0  0
 32 34  1  1  0  0  0
 32 33  1  0  0  0  0
 32 29  1  0  0  0  0
 33 31  1  1  0  0  0
 33 29  1  0  0  0  0
 34 30  1  0  0  0  0
 35 37  2  0  0  0  0
 36 35  1  0  0  0  0
 38 35  1  0  0  0  0
 39 42  1  0  0  0  0
 39 50  1  1  0  0  0
 40 39  1  0  0  0  0
 40 43  1  0  0  0  0
 41 36  1  6  0  0  0
 42 41  1  0  0  0  0
 42 44  1  1  0  0  0
 43 41  1  0  0  0  0
 44 46  1  0  0  0  0
 45 47  1  0  0  0  0
 46 47  2  0  0  0  0
 48 45  2  0  0  0  0
 49 44  2  0  0  0  0
 49 48  1  0  0  0  0
 51 53  1  0  0  0  0
 53 50  1  0  0  0  0
 53 52  2  0  0  0  0
M  END
>  <MODEL>
8

>  <REMARK>
 VINA RESULT:      -7.2      3.421     11.998
  Name = 
  17 active torsions:
  status: ('A' for Active; 'I' for Inactive)
    1  A    between atoms: C_1  and  N_37
    2  A    between atoms: C_5  and  C_7
    3  A    between atoms: O_6  and  C_9
    4  A    between atoms: O_6  and  C_51
    5  A    between atoms: C_7  and  N_43
    6  A    between atoms: C_7  and  S_44
    7  A    between atoms: C_8  and  C_36
    8  A    between atoms: C_10  and  C_17
    9  A    between atoms: C_12  and  C_42
   10  A    between atoms: N_15  and  C_38
   11  A    between atoms: N_15  and  C_45
   12  A    between atoms: C_23  and  C_29
   13  A    between atoms: N_25  and  C_39
   14  A    between atoms: C_29  and  S_44
   15  A    between atoms: C_30  and  N_43
   16  A    between atoms: C_30  and  C_45
   17  A    between atoms: C_36  and  C_49
                            x       y       z     vdW  Elec       q    Type
                         _______ _______ _______ _____ _____    ______ ____

>  <TORSDO>
F 17

$$$$
=
 OpenBabel10232409273D

 53 60  0  0  1  0  0  0  0  0999 V2000
  188.1000  177.4890  145.1000 C   0  0  0  0  0  0  0  0  0  0  0  0
  188.9570  176.9020  144.3110 N   0  0  0  0  0  0  0  0  0  0  0  0
  187.8970  178.0170  141.0710 C   0  0  0  0  0  3  0  0  0  0  0  0
  186.8440  178.2680  141.8620 C   0  0  0  0  0  0  0  0  0  0  0  0
  186.9330  178.0710  144.3820 C   0  0  0  0  0  3  0  0  0  0  0  0
  188.3300  176.9850  143.0470 C   0  0  0  0  0  0  0  0  0  0  0  0
  187.0980  177.6420  143.1440 C   0  0  0  0  0  0  0  0  0  0  0  0
  188.8660  177.2210  141.8590 C   0  0  0  0  0  0  0  0  0  0  0  0
  189.2490  177.6020  148.4870 O   0  0  0  0  0  0  0  0  0  0  0  0
  188.0810  178.1510  148.6550 N   0  0  0  0  0  0  0  0  0  0  0  0
  188.3390  177.6560  146.5370 C   0  0  0  0  0  0  0  0  0  0  0  0
  189.4670  177.2810  147.2330 C   0  0  0  0  0  3  0  0  0  0  0  0
  187.4700  178.2040  147.4580 C   0  0  0  0  0  3  0  0  0  0  0  0
  185.6520  179.0890  141.5030 C   0  0  0  0  0  2  0  0  0  0  0  0
  185.1080  178.7650  139.7890 S   0  0  0  0  0  0  0  0  0  0  0  0
  183.3320  178.5020  140.1500 C   0  0  1  0  0  3  0  0  0  0  0  0
  181.8770  178.8690  141.9690 O   0  0  0  0  0  0  0  0  0  0  0  0
  183.0270  178.7130  141.5970 C   0  0  0  0  0  3  0  0  0  0  0  0
  182.4920  179.3560  139.3250 N   0  0  0  0  0  2  0  0  0  0  0  0
  181.6420  177.3290  138.5720 O   0  0  0  0  0  1  0  0  0  0  0  0
  181.2850  178.6030  139.0170 C   0  0  2  0  0  3  0  0  0  0  0  0
  180.4760  179.3170  137.9390 C   0  0  2  0  0  3  0  0  0  0  0  0
  180.3800  178.5080  136.8050 O   0  0  0  0  0  1  0  0  0  0  0  0
  181.1290  180.5670  137.5830 N   0  0  0  0  0  2  0  0  0  0  0  0
  179.9920  182.6540  138.0530 C   0  0  0  0  0  2  0  0  0  0  0  0
  180.7270  182.8010  136.7390 C   0  0  0  0  0  2  0  0  0  0  0  0
  180.0960  181.4740  137.1070 C   0  0  0  0  0  3  0  0  0  0  0  0
  190.2910  176.9800  141.4890 C   0  0  0  0  0  2  0  0  0  0  0  0
  192.1110  175.2330  138.4120 C   0  0  2  0  0  3  0  0  0  0  0  0
  190.4990  177.1870  139.9980 C   0  0  1  0  0  3  0  0  0  0  0  0
  191.9710  177.3450  139.7110 C   0  0  0  0  0  2  0  0  0  0  0  0
  190.8370  176.0010  138.1190 C   0  0  2  0  0  3  0  0  0  0  0  0
  192.1350  176.7490  138.3450 C   0  0  2  0  0  3  0  0  0  0  0  0
  190.0470  176.0680  139.2810 O   0  0  0  0  0  0  0  0  0  0  0  0
  193.8080  173.8700  137.1430 C   0  0  0  0  0  0  0  0  0  0  0  0
  194.2320  173.3010  135.9040 N   0  0  0  0  0  2  0  0  0  0  0  0
  194.4610  173.6540  138.2000 O   0  0  0  0  0  0  0  0  0  0  0  0
  192.6340  174.6810  137.1740 N   0  0  0  0  0  2  0  0  0  0  0  0
  197.1180  171.6820  137.3500 C   0  0  1  0  0  3  0  0  0  0  0  0
  197.6020  172.9550  136.6830 C   0  0  0  0  0  2  0  0  0  0  0  0
  195.3850  172.4180  135.7990 C   0  0  2  0  0  3  0  0  0  0  0  0
  195.6140  171.7180  137.1270 C   0  0  1  0  0  3  0  0  0  0  0  0
  196.6450  173.2310  135.5350 C   0  0  0  0  0  2  0  0  0  0  0  0
  194.9310  170.3860  137.2370 C   0  0  0  0  0  0  0  0  0  0  0  0
  193.5980  167.9260  137.4000 C   0  0  0  0  0  3  0  0  0  0  0  0
  195.0370  169.5990  138.3950 C   0  0  0  0  0  3  0  0  0  0  0  0
  194.3730  168.3720  138.4740 C   0  0  0  0  0  3  0  0  0  0  0  0
  193.4840  168.7080  136.2470 C   0  0  0  0  0  3  0  0  0  0  0  0
  194.1470  169.9370  136.1680 C   0  0  0  0  0  3  0  0  0  0  0  0
  197.7010  170.5570  136.6980 O   0  0  0  0  0  0  0  0  0  0  0  0
  198.6160  168.2790  137.1040 C   0  0  0  0  0  1  0  0  0  0  0  0
  199.5690  170.2500  138.0270 O   0  0  0  0  0  0  0  0  0  0  0  0
  198.6630  169.7500  137.3070 C   0  0  0  0  0  0  0  0  0  0  0  0
  1 11  1  0  0  0  0
  2  1  2  0  0  0  0
  3  8  1  0  0  0  0
  3  4  2  0  0  0  0
  4  7  1  0  0  0  0
  5  1  1  0  0  0  0
  6  7  1  0  0  0  0
  6  2  1  0  0  0  0
  7  5  2  0  0  0  0
  8  6  2  0  0  0  0
  9 10  1  0  0  0  0
 11 12  2  0  0  0  0
 11 13  1  0  0  0  0
 12  9  1  0  0  0  0
 13 10  2  0  0  0  0
 14  4  1  0  0  0  0
 15 16  1  0  0  0  0
 15 14  1  0  0  0  0
 16 18  1  1  0  0  0
 18 17  2  0  0  0  0
 19 16  1  0  0  0  0
 21 20  1  6  0  0  0
 21 19  1  0  0  0  0
 22 23  1  6  0  0  0
 22 21  1  0  0  0  0
 24 22  1  0  0  0  0
 26 27  1  0  0  0  0
 26 25  1  0  0  0  0
 27 24  1  0  0  0  0
 27 25  1  0  0  0  0
 28  8  1  0  0  0  0
 29 38  1  6  0  0  0
 30 28  1  1  0  0  0
 31 30  1  0  0  0  0
 32 33  1  0  0  0  0
 32 29  1  0  0  0  0
 32 34  1  1  0  0  0
 33 29  1  0  0  0  0
 33 31  1  1  0  0  0
 34 30  1  0  0  0  0
 35 38  1  0  0  0  0
 35 37  2  0  0  0  0
 36 35  1  0  0  0  0
 39 50  1  6  0  0  0
 40 39  1  0  0  0  0
 41 36  1  1  0  0  0
 41 42  1  0  0  0  0
 42 44  1  6  0  0  0
 42 39  1  0  0  0  0
 43 41  1  0  0  0  0
 43 40  1  0  0  0  0
 44 46  1  0  0  0  0
 45 47  1  0  0  0  0
 46 47  2  0  0  0  0
 48 45  2  0  0  0  0
 49 48  1  0  0  0  0
 49 44  2  0  0  0  0
 50 53  1  0  0  0  0
 51 53  1  0  0  0  0
 53 52  2  0  0  0  0
M  END
>  <MODEL>
9

>  <REMARK>
 VINA RESULT:      -6.8      3.816     12.288
  Name = 
  17 active torsions:
  status: ('A' for Active; 'I' for Inactive)
    1  A    between atoms: C_1  and  N_37
    2  A    between atoms: C_5  and  C_7
    3  A    between atoms: O_6  and  C_9
    4  A    between atoms: O_6  and  C_51
    5  A    between atoms: C_7  and  N_43
    6  A    between atoms: C_7  and  S_44
    7  A    between atoms: C_8  and  C_36
    8  A    between atoms: C_10  and  C_17
    9  A    between atoms: C_12  and  C_42
   10  A    between atoms: N_15  and  C_38
   11  A    between atoms: N_15  and  C_45
   12  A    between atoms: C_23  and  C_29
   13  A    between atoms: N_25  and  C_39
   14  A    between atoms: C_29  and  S_44
   15  A    between atoms: C_30  and  N_43
   16  A    between atoms: C_30  and  C_45
   17  A    between atoms: C_36  and  C_49
                            x       y       z     vdW  Elec       q    Type
                         _______ _______ _______ _____ _____    ______ ____

>  <TORSDO>
F 17

$$$$
