=
 OpenBabel10232411513D

 47 52  0  0  1  0  0  0  0  0999 V2000
  188.5490  177.1460  135.9600 C   0  0  0  0  0  2  0  0  0  0  0  0
  190.5700  176.2620  137.2290 C   0  0  0  0  0  0  0  0  0  0  0  0
  189.5190  177.1160  139.2960 C   0  0  0  0  0  3  0  0  0  0  0  0
  190.6860  176.7490  138.4710 C   0  0  0  0  0  3  0  0  0  0  0  0
  189.2180  175.9600  136.6610 C   0  0  0  0  0  2  0  0  0  0  0  0
  188.6110  178.0380  138.9520 C   0  0  0  0  0  0  0  0  0  0  0  0
  188.8430  178.5220  136.4980 C   0  0  0  0  0  3  0  0  0  0  0  0
  188.8180  178.9120  137.7770 C   0  0  0  0  0  3  0  0  0  0  0  0
  193.0890  174.0530  135.6620 C   0  0  0  0  0  2  0  0  0  0  0  0
  193.8300  174.6710  136.8350 C   0  0  2  0  0  3  0  0  0  0  0  0
  191.7820  175.9200  136.4140 C   0  0  2  0  0  3  0  0  0  0  0  0
  191.6680  174.5570  135.7580 C   0  0  0  0  0  2  0  0  0  0  0  0
  193.0410  175.8940  137.2630 C   0  0  0  0  0  2  0  0  0  0  0  0
  195.2300  175.0860  136.4130 C   0  0  0  0  0  2  0  0  0  0  0  0
  196.2810  174.1450  137.0000 C   0  0  1  0  0  3  0  0  0  0  0  0
  197.8530  174.7130  135.0990 C   0  0  0  0  0  2  0  0  0  0  0  0
  199.2790  175.1330  134.6950 C   0  0  0  0  0  2  0  0  0  0  0  0
  198.7600  173.6430  137.1860 C   0  0  0  0  0  2  0  0  0  0  0  0
  200.1090  173.7680  136.4630 C   0  0  0  0  0  2  0  0  0  0  0  0
  197.6980  174.5990  136.6190 C   0  0  0  0  0  3  0  0  0  0  0  0
  200.2270  175.0700  135.8120 N   0  0  0  0  0  2  0  0  0  0  0  0
  196.1090  174.0710  138.4890 C   0  0  0  0  0  0  0  0  0  0  0  0
  195.5980  172.9150  139.0650 O   0  0  0  0  0  0  0  0  0  0  0  0
  196.4210  175.0490  139.2220 O   0  0  0  0  0  1  0  0  0  0  0  0
  187.5390  178.2790  139.8730 N   0  0  0  0  0  2  0  0  0  0  0  0
  188.6720  177.9220  141.9340 N   0  0  0  0  0  0  0  0  0  0  0  0
  187.5890  178.2750  141.3070 C   0  0  0  0  0  0  0  0  0  0  0  0
  186.3640  178.6970  142.0580 C   0  0  0  0  0  2  0  0  0  0  0  0
  185.1440  178.6370  141.1510 C   0  0  0  0  0  2  0  0  0  0  0  0
  183.9850  178.8290  141.9040 O   0  0  0  0  0  0  0  0  0  0  0  0
  182.9400  178.7300  140.9810 C   0  0  0  0  0  2  0  0  0  0  0  0
  183.2280  178.3260  138.4030 C   0  0  2  0  0  3  0  0  0  0  0  0
  183.7370  177.2200  137.5890 N   0  0  0  0  0  0  0  0  0  0  0  0
  185.1780  177.3800  137.4470 C   0  0  0  0  0  1  0  0  0  0  0  0
  183.3490  177.8310  139.8290 C   0  0  2  0  0  0  0  0  0  0  0  0
  183.4880  176.0090  138.4120 C   0  0  0  0  0  2  0  0  0  0  0  0
  182.0570  177.7000  139.1150 C   0  0  2  0  0  3  0  0  0  0  0  0
  182.7330  176.4700  139.6560 C   0  0  2  0  0  3  0  0  0  0  0  0
  188.7840  177.8880  143.3850 C   0  0  0  0  0  2  0  0  0  0  0  0
  189.3920  176.5710  143.8190 C   0  0  0  0  0  2  0  0  0  0  0  0
  191.7160  177.7920  143.1200 O   0  0  0  0  0  0  0  0  0  0  0  0
  191.9540  175.3070  143.9110 O   0  0  0  0  0  1  0  0  0  0  0  0
  191.1670  176.7910  144.1110 P   0  0  2  0  0  0  0  0  0  0  0  0
  191.4100  177.3680  145.7150 O   0  0  0  0  0  0  0  0  0  0  0  0
  191.1420  176.6010  146.8540 C   0  0  0  0  0  0  0  0  0  0  0  0
  192.2010  175.8030  147.5400 C   0  0  0  0  0  1  0  0  0  0  0  0
  189.9730  176.5810  147.3170 O   0  0  0  0  0  0  0  0  0  0  0  0
  1  7  1  0  0  0  0
  1  5  1  0  0  0  0
  2  4  2  0  0  0  0
  4  3  1  0  0  0  0
  5  2  1  0  0  0  0
  6  3  2  0  0  0  0
  6 25  1  0  0  0  0
  7  8  2  0  0  0  0
  8  6  1  0  0  0  0
  9 12  1  0  0  0  0
  9 10  1  0  0  0  0
 10 14  1  6  0  0  0
 10 13  1  0  0  0  0
 11  2  1  1  0  0  0
 11 13  1  0  0  0  0
 12 11  1  0  0  0  0
 15 14  1  1  0  0  0
 15 22  1  0  0  0  0
 16 20  1  0  0  0  0
 17 16  1  0  0  0  0
 17 21  1  0  0  0  0
 19 18  1  0  0  0  0
 20 15  1  0  0  0  0
 20 18  1  0  0  0  0
 21 19  1  0  0  0  0
 22 23  2  0  0  0  0
 22 24  1  0  0  0  0
 25 27  1  0  0  0  0
 26 39  1  0  0  0  0
 27 26  2  0  0  0  0
 27 28  1  0  0  0  0
 29 30  1  0  0  0  0
 29 28  1  0  0  0  0
 31 30  1  0  0  0  0
 32 33  1  6  0  0  0
 32 37  1  0  0  0  0
 32 35  1  0  0  0  0
 33 36  1  0  0  0  0
 34 33  1  0  0  0  0
 35 31  1  1  0  0  0
 36 38  1  0  0  0  0
 37 38  1  0  0  0  0
 37 35  1  0  0  0  0
 38 35  1  0  0  0  0
 39 40  1  0  0  0  0
 40 43  1  0  0  0  0
 41 43  2  0  0  0  0
 42 43  1  0  0  0  0
 43 44  1  0  0  0  0
 44 45  1  0  0  0  0
 45 47  2  0  0  0  0
 45 46  1  0  0  0  0
M  END
>  <MODEL>
1

>  <REMARK>
 VINA RESULT:      -7.6      0.000      0.000
  Name = 
  16 active torsions:
  status: ('A' for Active; 'I' for Inactive)
    1  A    between atoms: C_4  and  C_33
    2  A    between atoms: C_5  and  O_21
    3  A    between atoms: C_6  and  C_23
    4  A    between atoms: C_9  and  C_22
    5  A    between atoms: C_9  and  C_33
    6  A    between atoms: N_12  and  C_18
    7  A    between atoms: C_13  and  C_36
    8  A    between atoms: C_13  and  C_40
    9  A    between atoms: O_21  and  P_42
   10  A    between atoms: C_28  and  C_33
   11  A    between atoms: C_32  and  C_35
   12  A    between atoms: C_32  and  O_46
   13  A    between atoms: C_36  and  O_46
   14  A    between atoms: N_39  and  C_41
   15  A    between atoms: C_41  and  C_45
   16  A    between atoms: P_42  and  C_45
                            x       y       z     vdW  Elec       q    Type
                         _______ _______ _______ _____ _____    ______ ____

>  <TORSDO>
F 16

$$$$
=
 OpenBabel10232411513D

 47 52  0  0  1  0  0  0  0  0999 V2000
  188.2710  177.3570  136.4030 C   0  0  0  0  0  2  0  0  0  0  0  0
  190.0350  176.0170  137.6550 C   0  0  0  0  0  0  0  0  0  0  0  0
  189.2140  177.0730  139.7340 C   0  0  0  0  0  3  0  0  0  0  0  0
  190.2630  176.4520  138.9010 C   0  0  0  0  0  3  0  0  0  0  0  0
  188.6480  176.0420  137.0900 C   0  0  0  0  0  2  0  0  0  0  0  0
  188.5440  178.1830  139.4020 C   0  0  0  0  0  0  0  0  0  0  0  0
  188.8760  178.6230  136.9510 C   0  0  0  0  0  3  0  0  0  0  0  0
  188.9460  178.9960  138.2330 C   0  0  0  0  0  3  0  0  0  0  0  0
  192.4870  173.4400  136.6450 C   0  0  0  0  0  2  0  0  0  0  0  0
  193.3370  174.4990  137.3240 C   0  0  2  0  0  3  0  0  0  0  0  0
  191.1320  175.4110  136.8320 C   0  0  2  0  0  3  0  0  0  0  0  0
  191.0550  173.8980  136.7950 C   0  0  0  0  0  2  0  0  0  0  0  0
  192.5050  175.7680  137.3770 C   0  0  0  0  0  2  0  0  0  0  0  0
  194.6040  174.7510  136.5250 C   0  0  0  0  0  2  0  0  0  0  0  0
  195.7460  173.8610  137.0140 C   0  0  1  0  0  3  0  0  0  0  0  0
  197.1310  174.7330  135.0820 C   0  0  0  0  0  2  0  0  0  0  0  0
  198.5000  175.2710  134.6260 C   0  0  0  0  0  2  0  0  0  0  0  0
  198.2500  173.4680  136.9450 C   0  0  0  0  0  2  0  0  0  0  0  0
  199.5290  173.7470  136.1420 C   0  0  0  0  0  2  0  0  0  0  0  0
  197.1070  174.4290  136.5840 C   0  0  0  0  0  3  0  0  0  0  0  0
  199.5400  175.1220  135.6500 N   0  0  0  0  0  2  0  0  0  0  0  0
  195.6590  173.7110  138.5040 C   0  0  0  0  0  0  0  0  0  0  0  0
  195.2270  172.5080  139.0480 O   0  0  0  0  0  0  0  0  0  0  0  0
  195.9700  174.6660  139.2660 O   0  0  0  0  0  1  0  0  0  0  0  0
  187.5600  178.6570  140.3290 N   0  0  0  0  0  2  0  0  0  0  0  0
  185.6070  178.5070  138.9790 N   0  0  0  0  0  0  0  0  0  0  0  0
  186.1410  178.7580  140.1370 C   0  0  0  0  0  0  0  0  0  0  0  0
  185.2960  179.1520  141.3090 C   0  0  0  0  0  2  0  0  0  0  0  0
  185.3040  178.0490  142.3580 C   0  0  0  0  0  2  0  0  0  0  0  0
  186.2140  178.3650  143.3680 O   0  0  0  0  0  0  0  0  0  0  0  0
  187.0970  177.2810  143.4020 C   0  0  0  0  0  2  0  0  0  0  0  0
  189.7080  177.5360  143.2900 C   0  0  2  0  0  3  0  0  0  0  0  0
  190.7260  178.0670  144.1990 N   0  0  0  0  0  0  0  0  0  0  0  0
  190.8510  179.4980  143.9620 C   0  0  0  0  0  1  0  0  0  0  0  0
  188.4060  177.6990  144.0460 C   0  0  2  0  0  0  0  0  0  0  0  0
  190.1510  177.8750  145.5550 C   0  0  0  0  0  2  0  0  0  0  0  0
  189.1180  176.4000  144.0850 C   0  0  2  0  0  3  0  0  0  0  0  0
  188.8320  177.1270  145.3710 C   0  0  2  0  0  3  0  0  0  0  0  0
  184.1780  178.6000  138.7180 C   0  0  0  0  0  2  0  0  0  0  0  0
  183.5730  177.2120  138.6960 C   0  0  0  0  0  2  0  0  0  0  0  0
  182.1030  178.4740  136.7900 O   0  0  0  0  0  0  0  0  0  0  0  0
  180.9550  176.3930  137.8900 O   0  0  0  0  0  1  0  0  0  0  0  0
  182.3900  177.0900  137.3270 P   0  0  2  0  0  0  0  0  0  0  0  0
  183.0640  176.1120  136.0810 O   0  0  0  0  0  0  0  0  0  0  0  0
  184.4150  176.1540  135.7210 C   0  0  0  0  0  0  0  0  0  0  0  0
  185.2560  174.9220  135.6470 C   0  0  0  0  0  1  0  0  0  0  0  0
  184.9420  177.2630  135.4500 O   0  0  0  0  0  0  0  0  0  0  0  0
  1  7  1  0  0  0  0
  1  5  1  0  0  0  0
  2  4  2  0  0  0  0
  4  3  1  0  0  0  0
  5  2  1  0  0  0  0
  6  3  2  0  0  0  0
  6 25  1  0  0  0  0
  7  8  2  0  0  0  0
  8  6  1  0  0  0  0
  9 12  1  0  0  0  0
  9 10  1  0  0  0  0
 10 14  1  6  0  0  0
 10 13  1  0  0  0  0
 11 13  1  0  0  0  0
 11  2  1  1  0  0  0
 12 11  1  0  0  0  0
 15 14  1  1  0  0  0
 15 22  1  0  0  0  0
 16 20  1  0  0  0  0
 17 16  1  0  0  0  0
 17 21  1  0  0  0  0
 19 18  1  0  0  0  0
 20 18  1  0  0  0  0
 20 15  1  0  0  0  0
 21 19  1  0  0  0  0
 22 23  2  0  0  0  0
 22 24  1  0  0  0  0
 26 27  2  0  0  0  0
 27 25  1  0  0  0  0
 27 28  1  0  0  0  0
 28 29  1  0  0  0  0
 29 30  1  0  0  0  0
 30 31  1  0  0  0  0
 32 35  1  0  0  0  0
 32 37  1  0  0  0  0
 32 33  1  1  0  0  0
 33 36  1  0  0  0  0
 34 33  1  0  0  0  0
 35 31  1  6  0  0  0
 35 37  1  0  0  0  0
 35 38  1  0  0  0  0
 37 38  1  0  0  0  0
 38 36  1  0  0  0  0
 39 26  1  0  0  0  0
 40 39  1  0  0  0  0
 41 43  2  0  0  0  0
 43 42  1  0  0  0  0
 43 40  1  0  0  0  0
 44 43  1  0  0  0  0
 45 44  1  0  0  0  0
 46 45  1  0  0  0  0
 47 45  2  0  0  0  0
M  END
>  <MODEL>
2

>  <REMARK>
 VINA RESULT:      -7.4      2.714      6.203
  Name = 
  16 active torsions:
  status: ('A' for Active; 'I' for Inactive)
    1  A    between atoms: C_4  and  C_33
    2  A    between atoms: C_5  and  O_21
    3  A    between atoms: C_6  and  C_23
    4  A    between atoms: C_9  and  C_22
    5  A    between atoms: C_9  and  C_33
    6  A    between atoms: N_12  and  C_18
    7  A    between atoms: C_13  and  C_36
    8  A    between atoms: C_13  and  C_40
    9  A    between atoms: O_21  and  P_42
   10  A    between atoms: C_28  and  C_33
   11  A    between atoms: C_32  and  C_35
   12  A    between atoms: C_32  and  O_46
   13  A    between atoms: C_36  and  O_46
   14  A    between atoms: N_39  and  C_41
   15  A    between atoms: C_41  and  C_45
   16  A    between atoms: P_42  and  C_45
                            x       y       z     vdW  Elec       q    Type
                         _______ _______ _______ _____ _____    ______ ____

>  <TORSDO>
F 16

$$$$
=
 OpenBabel10232411513D

 47 52  0  0  1  0  0  0  0  0999 V2000
  191.2830  177.1740  141.9950 C   0  0  0  0  0  2  0  0  0  0  0  0
  190.2440  177.5350  139.7000 C   0  0  0  0  0  0  0  0  0  0  0  0
  188.0960  177.9490  140.8490 C   0  0  0  0  0  3  0  0  0  0  0  0
  188.9060  177.5020  139.6990 C   0  0  0  0  0  3  0  0  0  0  0  0
  190.9830  178.1460  140.8510 C   0  0  0  0  0  2  0  0  0  0  0  0
  188.1710  177.4200  142.0770 C   0  0  0  0  0  0  0  0  0  0  0  0
  190.2850  176.0730  142.2480 C   0  0  0  0  0  3  0  0  0  0  0  0
  188.9550  176.1920  142.3320 C   0  0  0  0  0  3  0  0  0  0  0  0
  190.7930  175.8990  136.4290 C   0  0  0  0  0  2  0  0  0  0  0  0
  191.3340  174.8930  137.4300 C   0  0  2  0  0  3  0  0  0  0  0  0
  191.0340  177.0520  138.5200 C   0  0  2  0  0  3  0  0  0  0  0  0
  190.2090  177.0270  137.2480 C   0  0  0  0  0  2  0  0  0  0  0  0
  191.5550  175.6400  138.7330 C   0  0  0  0  0  2  0  0  0  0  0  0
  192.6530  174.3190  136.9400 C   0  0  0  0  0  2  0  0  0  0  0  0
  193.8120  175.2650  137.2510 C   0  0  1  0  0  3  0  0  0  0  0  0
  196.1610  174.6200  136.5630 C   0  0  0  0  0  2  0  0  0  0  0  0
  197.4230  173.8090  136.9130 C   0  0  0  0  0  2  0  0  0  0  0  0
  194.7560  172.9940  137.8690 C   0  0  0  0  0  2  0  0  0  0  0  0
  196.0040  172.1040  137.7840 C   0  0  0  0  0  2  0  0  0  0  0  0
  195.0740  174.4790  137.6340 C   0  0  0  0  0  3  0  0  0  0  0  0
  197.2130  172.8860  138.0330 N   0  0  0  0  0  2  0  0  0  0  0  0
  194.0570  176.1600  136.0720 C   0  0  0  0  0  0  0  0  0  0  0  0
  193.7170  175.7230  134.7970 O   0  0  0  0  0  0  0  0  0  0  0  0
  194.5700  177.3010  136.2260 O   0  0  0  0  0  1  0  0  0  0  0  0
  187.3070  177.9680  143.0810 N   0  0  0  0  0  2  0  0  0  0  0  0
  185.3340  178.3040  141.7960 N   0  0  0  0  0  0  0  0  0  0  0  0
  185.9270  178.3400  142.9520 C   0  0  0  0  0  0  0  0  0  0  0  0
  185.1900  178.7600  144.1860 C   0  0  0  0  0  2  0  0  0  0  0  0
  185.8370  178.1470  145.4190 C   0  0  0  0  0  2  0  0  0  0  0  0
  186.0740  179.1400  146.3710 O   0  0  0  0  0  0  0  0  0  0  0  0
  186.4730  178.4470  147.5180 C   0  0  0  0  0  2  0  0  0  0  0  0
  188.4070  176.7220  147.1000 C   0  0  2  0  0  3  0  0  0  0  0  0
  189.8690  176.8050  147.0860 N   0  0  0  0  0  0  0  0  0  0  0  0
  190.2950  177.1900  145.7480 C   0  0  0  0  0  1  0  0  0  0  0  0
  187.9530  178.1250  147.4410 C   0  0  2  0  0  0  0  0  0  0  0  0
  190.1860  177.9240  148.0090 C   0  0  0  0  0  2  0  0  0  0  0  0
  188.0680  177.1110  148.5150 C   0  0  2  0  0  3  0  0  0  0  0  0
  188.8610  178.3860  148.6120 C   0  0  2  0  0  3  0  0  0  0  0  0
  183.9410  178.6770  141.5970 C   0  0  0  0  0  2  0  0  0  0  0  0
  183.3790  177.9300  140.4060 C   0  0  0  0  0  2  0  0  0  0  0  0
  184.4210  180.0780  139.1080 O   0  0  0  0  0  1  0  0  0  0  0  0
  182.9030  178.5210  137.6490 O   0  0  0  0  0  0  0  0  0  0  0  0
  184.0610  178.6280  138.8780 P   0  0  2  0  0  0  0  0  0  0  0  0
  185.4700  177.7440  138.4310 O   0  0  0  0  0  0  0  0  0  0  0  0
  186.2640  178.0750  137.3290 C   0  0  0  0  0  0  0  0  0  0  0  0
  186.3730  177.1870  136.1330 C   0  0  0  0  0  1  0  0  0  0  0  0
  186.9100  179.1540  137.3420 O   0  0  0  0  0  0  0  0  0  0  0  0
  1  7  1  0  0  0  0
  2  5  1  0  0  0  0
  3  6  2  0  0  0  0
  4  2  2  0  0  0  0
  4  3  1  0  0  0  0
  5  1  1  0  0  0  0
  6  8  1  0  0  0  0
  6 25  1  0  0  0  0
  7  8  2  0  0  0  0
  9 12  1  0  0  0  0
  9 10  1  0  0  0  0
 10 14  1  6  0  0  0
 10 13  1  0  0  0  0
 11 13  1  0  0  0  0
 11  2  1  1  0  0  0
 12 11  1  0  0  0  0
 15 14  1  6  0  0  0
 15 20  1  0  0  0  0
 16 17  1  0  0  0  0
 16 20  1  0  0  0  0
 17 21  1  0  0  0  0
 19 18  1  0  0  0  0
 19 21  1  0  0  0  0
 20 18  1  0  0  0  0
 22 24  1  0  0  0  0
 22 15  1  0  0  0  0
 23 22  2  0  0  0  0
 26 27  2  0  0  0  0
 27 25  1  0  0  0  0
 27 28  1  0  0  0  0
 28 29  1  0  0  0  0
 29 30  1  0  0  0  0
 30 31  1  0  0  0  0
 32 33  1  1  0  0  0
 32 35  1  0  0  0  0
 32 37  1  0  0  0  0
 33 36  1  0  0  0  0
 34 33  1  0  0  0  0
 35 31  1  6  0  0  0
 35 37  1  0  0  0  0
 35 38  1  0  0  0  0
 36 38  1  0  0  0  0
 37 38  1  0  0  0  0
 39 26  1  0  0  0  0
 40 39  1  0  0  0  0
 42 43  2  0  0  0  0
 43 41  1  0  0  0  0
 43 40  1  0  0  0  0
 44 43  1  0  0  0  0
 45 47  2  0  0  0  0
 45 44  1  0  0  0  0
 46 45  1  0  0  0  0
M  END
>  <MODEL>
3

>  <REMARK>
 VINA RESULT:      -7.4      3.054      6.744
  Name = 
  16 active torsions:
  status: ('A' for Active; 'I' for Inactive)
    1  A    between atoms: C_4  and  C_33
    2  A    between atoms: C_5  and  O_21
    3  A    between atoms: C_6  and  C_23
    4  A    between atoms: C_9  and  C_22
    5  A    between atoms: C_9  and  C_33
    6  A    between atoms: N_12  and  C_18
    7  A    between atoms: C_13  and  C_36
    8  A    between atoms: C_13  and  C_40
    9  A    between atoms: O_21  and  P_42
   10  A    between atoms: C_28  and  C_33
   11  A    between atoms: C_32  and  C_35
   12  A    between atoms: C_32  and  O_46
   13  A    between atoms: C_36  and  O_46
   14  A    between atoms: N_39  and  C_41
   15  A    between atoms: C_41  and  C_45
   16  A    between atoms: P_42  and  C_45
                            x       y       z     vdW  Elec       q    Type
                         _______ _______ _______ _____ _____    ______ ____

>  <TORSDO>
F 16

$$$$
=
 OpenBabel10232411513D

 47 52  0  0  1  0  0  0  0  0999 V2000
  189.1720  176.7660  136.1110 C   0  0  0  0  0  2  0  0  0  0  0  0
  188.4160  177.3920  138.4590 C   0  0  0  0  0  0  0  0  0  0  0  0
  186.0920  177.3020  137.6250 C   0  0  0  0  0  3  0  0  0  0  0  0
  187.1450  177.8070  138.5270 C   0  0  0  0  0  3  0  0  0  0  0  0
  188.8010  176.2920  137.5180 C   0  0  0  0  0  2  0  0  0  0  0  0
  186.1220  177.4110  136.2920 C   0  0  0  0  0  0  0  0  0  0  0  0
  188.4620  177.9860  135.5820 C   0  0  0  0  0  3  0  0  0  0  0  0
  187.1490  178.2350  135.6170 C   0  0  0  0  0  3  0  0  0  0  0  0
  191.4720  177.3340  140.5410 C   0  0  0  0  0  2  0  0  0  0  0  0
  190.3430  177.2970  141.5560 C   0  0  2  0  0  3  0  0  0  0  0  0
  189.4640  177.9460  139.3790 C   0  0  2  0  0  3  0  0  0  0  0  0
  190.8110  177.2780  139.1840 C   0  0  0  0  0  2  0  0  0  0  0  0
  189.0860  177.7540  140.8380 C   0  0  0  0  0  2  0  0  0  0  0  0
  190.6420  178.2380  142.7120 C   0  0  0  0  0  2  0  0  0  0  0  0
  190.9180  177.4570  143.9960 C   0  0  1  0  0  3  0  0  0  0  0  0
  190.0430  176.8850  146.3020 C   0  0  0  0  0  2  0  0  0  0  0  0
  188.9800  177.1740  147.3780 C   0  0  0  0  0  2  0  0  0  0  0  0
  188.4440  177.6500  144.5180 C   0  0  0  0  0  2  0  0  0  0  0  0
  187.3950  177.4980  145.6290 C   0  0  0  0  0  2  0  0  0  0  0  0
  189.8720  177.7820  145.0720 C   0  0  0  0  0  3  0  0  0  0  0  0
  187.8970  178.0350  146.8910 N   0  0  0  0  0  2  0  0  0  0  0  0
  190.9540  175.9880  143.6900 C   0  0  0  0  0  0  0  0  0  0  0  0
  189.8230  175.3670  143.1760 O   0  0  0  0  0  0  0  0  0  0  0  0
  191.9980  175.3130  143.8980 O   0  0  0  0  0  1  0  0  0  0  0  0
  185.0120  176.8710  135.5640 N   0  0  0  0  0  2  0  0  0  0  0  0
  183.2070  177.7950  136.8070 N   0  0  0  0  0  0  0  0  0  0  0  0
  183.6130  177.1040  135.7840 C   0  0  0  0  0  0  0  0  0  0  0  0
  182.6380  176.5370  134.7990 C   0  0  0  0  0  2  0  0  0  0  0  0
  182.6770  175.0160  134.8360 C   0  0  0  0  0  2  0  0  0  0  0  0
  182.1240  174.5580  136.0330 O   0  0  0  0  0  0  0  0  0  0  0  0
  182.6830  173.2910  136.2230 C   0  0  0  0  0  2  0  0  0  0  0  0
  185.0980  172.4120  135.6860 C   0  0  2  0  0  3  0  0  0  0  0  0
  186.4500  172.8530  136.0320 N   0  0  0  0  0  0  0  0  0  0  0  0
  186.8820  173.8290  135.0410 C   0  0  0  0  0  1  0  0  0  0  0  0
  184.1880  173.4060  136.3770 C   0  0  2  0  0  0  0  0  0  0  0  0
  186.2900  173.5580  137.3300 C   0  0  0  0  0  2  0  0  0  0  0  0
  184.4930  172.1130  137.0340 C   0  0  2  0  0  3  0  0  0  0  0  0
  184.8270  173.3990  137.7390 C   0  0  2  0  0  3  0  0  0  0  0  0
  181.8040  178.0590  137.0910 C   0  0  0  0  0  2  0  0  0  0  0  0
  181.3730  177.2680  138.3080 C   0  0  0  0  0  2  0  0  0  0  0  0
  180.9200  177.7260  140.9480 O   0  0  0  0  0  1  0  0  0  0  0  0
  181.5620  179.8400  139.5420 O   0  0  0  0  0  0  0  0  0  0  0  0
  181.8030  178.1880  139.8100 P   0  0  2  0  0  0  0  0  0  0  0  0
  183.4540  177.8940  140.2010 O   0  0  0  0  0  0  0  0  0  0  0  0
  184.3130  178.8830  140.6910 C   0  0  0  0  0  0  0  0  0  0  0  0
  184.7530  178.9160  142.1180 C   0  0  0  0  0  1  0  0  0  0  0  0
  184.7300  179.7750  139.9080 O   0  0  0  0  0  0  0  0  0  0  0  0
  1  5  1  0  0  0  0
  2  4  2  0  0  0  0
  3  4  1  0  0  0  0
  5  2  1  0  0  0  0
  6  3  2  0  0  0  0
  7  8  2  0  0  0  0
  7  1  1  0  0  0  0
  8  6  1  0  0  0  0
  9 10  1  0  0  0  0
 10 14  1  1  0  0  0
 11  2  1  6  0  0  0
 11 13  1  0  0  0  0
 12 11  1  0  0  0  0
 12  9  1  0  0  0  0
 13 10  1  0  0  0  0
 15 14  1  6  0  0  0
 15 20  1  0  0  0  0
 16 17  1  0  0  0  0
 18 20  1  0  0  0  0
 18 19  1  0  0  0  0
 19 21  1  0  0  0  0
 20 16  1  0  0  0  0
 21 17  1  0  0  0  0
 22 24  1  0  0  0  0
 22 15  1  0  0  0  0
 23 22  2  0  0  0  0
 25 27  1  0  0  0  0
 25  6  1  0  0  0  0
 26 39  1  0  0  0  0
 27 26  2  0  0  0  0
 28 29  1  0  0  0  0
 28 27  1  0  0  0  0
 29 30  1  0  0  0  0
 30 31  1  0  0  0  0
 32 33  1  1  0  0  0
 32 35  1  0  0  0  0
 32 37  1  0  0  0  0
 33 36  1  0  0  0  0
 34 33  1  0  0  0  0
 35 31  1  6  0  0  0
 35 37  1  0  0  0  0
 35 38  1  0  0  0  0
 36 38  1  0  0  0  0
 37 38  1  0  0  0  0
 39 40  1  0  0  0  0
 40 43  1  0  0  0  0
 42 43  2  0  0  0  0
 43 44  1  0  0  0  0
 43 41  1  0  0  0  0
 44 45  1  0  0  0  0
 45 46  1  0  0  0  0
 47 45  2  0  0  0  0
M  END
>  <MODEL>
4

>  <REMARK>
 VINA RESULT:      -7.4      4.896      8.444
  Name = 
  16 active torsions:
  status: ('A' for Active; 'I' for Inactive)
    1  A    between atoms: C_4  and  C_33
    2  A    between atoms: C_5  and  O_21
    3  A    between atoms: C_6  and  C_23
    4  A    between atoms: C_9  and  C_22
    5  A    between atoms: C_9  and  C_33
    6  A    between atoms: N_12  and  C_18
    7  A    between atoms: C_13  and  C_36
    8  A    between atoms: C_13  and  C_40
    9  A    between atoms: O_21  and  P_42
   10  A    between atoms: C_28  and  C_33
   11  A    between atoms: C_32  and  C_35
   12  A    between atoms: C_32  and  O_46
   13  A    between atoms: C_36  and  O_46
   14  A    between atoms: N_39  and  C_41
   15  A    between atoms: C_41  and  C_45
   16  A    between atoms: P_42  and  C_45
                            x       y       z     vdW  Elec       q    Type
                         _______ _______ _______ _____ _____    ______ ____

>  <TORSDO>
F 16

$$$$
=
 OpenBabel10232411513D

 47 52  0  0  1  0  0  0  0  0999 V2000
  191.9030  176.5100  142.5030 C   0  0  0  0  0  2  0  0  0  0  0  0
  189.4820  176.9410  141.8480 C   0  0  0  0  0  0  0  0  0  0  0  0
  190.1600  176.5750  139.4990 C   0  0  0  0  0  3  0  0  0  0  0  0
  189.3090  177.1810  140.5410 C   0  0  0  0  0  3  0  0  0  0  0  0
  190.4980  175.9380  142.3010 C   0  0  0  0  0  2  0  0  0  0  0  0
  191.4860  176.7380  139.4170 C   0  0  0  0  0  0  0  0  0  0  0  0
  192.3240  177.6440  141.6050 C   0  0  0  0  0  3  0  0  0  0  0  0
  192.1890  177.7150  140.2770 C   0  0  0  0  0  3  0  0  0  0  0  0
  188.4880  178.0580  145.2300 C   0  0  0  0  0  2  0  0  0  0  0  0
  187.5910  176.8610  144.9670 C   0  0  2  0  0  3  0  0  0  0  0  0
  188.6100  177.5930  142.8790 C   0  0  2  0  0  3  0  0  0  0  0  0
  189.4110  178.1540  144.0380 C   0  0  0  0  0  2  0  0  0  0  0  0
  187.6120  176.6120  143.4700 C   0  0  0  0  0  2  0  0  0  0  0  0
  186.1710  177.1570  145.4170 C   0  0  0  0  0  2  0  0  0  0  0  0
  185.9070  178.6630  145.4410 C   0  0  1  0  0  3  0  0  0  0  0  0
  183.4390  178.6560  144.8780 C   0  0  0  0  0  2  0  0  0  0  0  0
  182.3600  179.0050  143.8360 C   0  0  0  0  0  2  0  0  0  0  0  0
  185.1360  178.4100  143.0390 C   0  0  0  0  0  2  0  0  0  0  0  0
  183.8980  178.3700  142.1300 C   0  0  0  0  0  2  0  0  0  0  0  0
  184.8420  179.0500  144.4050 C   0  0  0  0  0  3  0  0  0  0  0  0
  182.9260  179.3810  142.5360 N   0  0  0  0  0  2  0  0  0  0  0  0
  185.5040  179.0770  146.8260 C   0  0  0  0  0  0  0  0  0  0  0  0
  184.6160  178.2890  147.5470 O   0  0  0  0  0  1  0  0  0  0  0  0
  185.9610  180.1340  147.3390 O   0  0  0  0  0  0  0  0  0  0  0  0
  192.1620  176.0830  138.3360 N   0  0  0  0  0  2  0  0  0  0  0  0
  190.6140  176.4790  136.5740 N   0  0  0  0  0  0  0  0  0  0  0  0
  191.7630  176.0100  136.9600 C   0  0  0  0  0  0  0  0  0  0  0  0
  192.7110  175.3870  135.9820 C   0  0  0  0  0  2  0  0  0  0  0  0
  193.9970  176.1970  135.9060 C   0  0  0  0  0  2  0  0  0  0  0  0
  195.0800  175.3450  135.6870 O   0  0  0  0  0  0  0  0  0  0  0  0
  195.5660  175.0510  136.9650 C   0  0  0  0  0  2  0  0  0  0  0  0
  195.0050  172.7660  138.1290 C   0  0  2  0  0  3  0  0  0  0  0  0
  195.4570  171.3850  137.9490 N   0  0  0  0  0  0  0  0  0  0  0  0
  194.6230  170.7580  136.9330 C   0  0  0  0  0  1  0  0  0  0  0  0
  195.7900  173.5570  137.1040 C   0  0  2  0  0  0  0  0  0  0  0  0
  196.8320  171.5140  137.4000 C   0  0  0  0  0  2  0  0  0  0  0  0
  196.2760  173.4840  138.5020 C   0  0  2  0  0  3  0  0  0  0  0  0
  197.1610  173.0050  137.3830 C   0  0  2  0  0  3  0  0  0  0  0  0
  190.1480  176.4280  135.1970 C   0  0  0  0  0  2  0  0  0  0  0  0
  188.9450  175.5140  135.0990 C   0  0  0  0  0  2  0  0  0  0  0  0
  186.2350  175.6730  134.9890 O   0  0  0  0  0  1  0  0  0  0  0  0
  187.5010  177.9420  134.6600 O   0  0  0  0  0  0  0  0  0  0  0  0
  187.4390  176.4550  135.4640 P   0  0  2  0  0  0  0  0  0  0  0  0
  187.3300  176.7140  137.1620 O   0  0  0  0  0  0  0  0  0  0  0  0
  186.9180  177.9260  137.7280 C   0  0  0  0  0  0  0  0  0  0  0  0
  185.5070  178.1650  138.1530 C   0  0  0  0  0  1  0  0  0  0  0  0
  187.7620  178.8450  137.8850 O   0  0  0  0  0  0  0  0  0  0  0  0
  2  5  1  0  0  0  0
  3  4  1  0  0  0  0
  4  2  2  0  0  0  0
  5  1  1  0  0  0  0
  6  3  2  0  0  0  0
  6  8  1  0  0  0  0
  7  1  1  0  0  0  0
  8  7  2  0  0  0  0
 10  9  1  0  0  0  0
 10 14  1  6  0  0  0
 11  2  1  6  0  0  0
 11 13  1  0  0  0  0
 11 12  1  0  0  0  0
 12  9  1  0  0  0  0
 13 10  1  0  0  0  0
 15 14  1  1  0  0  0
 15 22  1  0  0  0  0
 17 16  1  0  0  0  0
 18 20  1  0  0  0  0
 19 21  1  0  0  0  0
 19 18  1  0  0  0  0
 20 16  1  0  0  0  0
 20 15  1  0  0  0  0
 21 17  1  0  0  0  0
 22 24  2  0  0  0  0
 22 23  1  0  0  0  0
 25  6  1  0  0  0  0
 26 27  2  0  0  0  0
 27 25  1  0  0  0  0
 28 27  1  0  0  0  0
 29 28  1  0  0  0  0
 30 29  1  0  0  0  0
 30 31  1  0  0  0  0
 32 33  1  6  0  0  0
 32 37  1  0  0  0  0
 34 33  1  0  0  0  0
 35 31  1  6  0  0  0
 35 38  1  0  0  0  0
 35 32  1  0  0  0  0
 35 37  1  0  0  0  0
 36 33  1  0  0  0  0
 38 36  1  0  0  0  0
 38 37  1  0  0  0  0
 39 26  1  0  0  0  0
 40 39  1  0  0  0  0
 40 43  1  0  0  0  0
 41 43  1  0  0  0  0
 42 43  2  0  0  0  0
 43 44  1  0  0  0  0
 44 45  1  0  0  0  0
 45 47  2  0  0  0  0
 45 46  1  0  0  0  0
M  END
>  <MODEL>
5

>  <REMARK>
 VINA RESULT:      -7.3      3.753     11.624
  Name = 
  16 active torsions:
  status: ('A' for Active; 'I' for Inactive)
    1  A    between atoms: C_4  and  C_33
    2  A    between atoms: C_5  and  O_21
    3  A    between atoms: C_6  and  C_23
    4  A    between atoms: C_9  and  C_22
    5  A    between atoms: C_9  and  C_33
    6  A    between atoms: N_12  and  C_18
    7  A    between atoms: C_13  and  C_36
    8  A    between atoms: C_13  and  C_40
    9  A    between atoms: O_21  and  P_42
   10  A    between atoms: C_28  and  C_33
   11  A    between atoms: C_32  and  C_35
   12  A    between atoms: C_32  and  O_46
   13  A    between atoms: C_36  and  O_46
   14  A    between atoms: N_39  and  C_41
   15  A    between atoms: C_41  and  C_45
   16  A    between atoms: P_42  and  C_45
                            x       y       z     vdW  Elec       q    Type
                         _______ _______ _______ _____ _____    ______ ____

>  <TORSDO>
F 16

$$$$
=
 OpenBabel10232411513D

 47 52  0  0  1  0  0  0  0  0999 V2000
  188.7560  176.8310  136.2830 C   0  0  0  0  0  2  0  0  0  0  0  0
  190.9950  176.2600  137.3490 C   0  0  0  0  0  0  0  0  0  0  0  0
  190.2130  177.4340  139.3790 C   0  0  0  0  0  3  0  0  0  0  0  0
  191.2640  176.9660  138.4550 C   0  0  0  0  0  3  0  0  0  0  0  0
  189.5940  175.8140  137.0620 C   0  0  0  0  0  2  0  0  0  0  0  0
  189.2080  178.2470  139.0290 C   0  0  0  0  0  0  0  0  0  0  0  0
  189.0400  178.2910  136.5230 C   0  0  0  0  0  3  0  0  0  0  0  0
  189.1830  178.9030  137.7040 C   0  0  0  0  0  3  0  0  0  0  0  0
  193.0980  173.8520  135.4900 C   0  0  0  0  0  2  0  0  0  0  0  0
  193.9970  174.3180  136.6230 C   0  0  2  0  0  3  0  0  0  0  0  0
  192.0890  175.8200  136.4230 C   0  0  2  0  0  3  0  0  0  0  0  0
  191.7610  174.5150  135.7240 C   0  0  0  0  0  2  0  0  0  0  0  0
  193.3980  175.6030  137.1650 C   0  0  0  0  0  2  0  0  0  0  0  0
  195.4000  174.5870  136.1050 C   0  0  0  0  0  2  0  0  0  0  0  0
  196.4540  174.0480  137.0720 C   0  0  1  0  0  3  0  0  0  0  0  0
  196.6870  172.4300  135.1390 C   0  0  0  0  0  2  0  0  0  0  0  0
  197.1420  171.0300  134.6860 C   0  0  0  0  0  2  0  0  0  0  0  0
  196.2850  171.5470  137.4590 C   0  0  0  0  0  2  0  0  0  0  0  0
  196.3670  170.1770  136.7720 C   0  0  0  0  0  2  0  0  0  0  0  0
  196.9450  172.6610  136.6310 C   0  0  0  0  0  3  0  0  0  0  0  0
  197.4660  170.1460  135.8110 N   0  0  0  0  0  2  0  0  0  0  0  0
  197.5860  175.0270  137.1730 C   0  0  0  0  0  0  0  0  0  0  0  0
  198.1130  175.5890  136.0180 O   0  0  0  0  0  0  0  0  0  0  0  0
  198.0670  175.3410  138.2960 O   0  0  0  0  0  1  0  0  0  0  0  0
  188.2740  178.6120  140.0530 N   0  0  0  0  0  2  0  0  0  0  0  0
  188.7980  176.9770  141.6990 N   0  0  0  0  0  0  0  0  0  0  0  0
  188.1200  178.0310  141.3560 C   0  0  0  0  0  0  0  0  0  0  0  0
  187.1630  178.6790  142.3100 C   0  0  0  0  0  2  0  0  0  0  0  0
  185.8510  178.9930  141.6060 C   0  0  0  0  0  2  0  0  0  0  0  0
  184.8820  178.0580  141.9740 O   0  0  0  0  0  0  0  0  0  0  0  0
  183.7290  178.4510  141.2890 C   0  0  0  0  0  2  0  0  0  0  0  0
  183.5730  178.4680  138.6680 C   0  0  2  0  0  3  0  0  0  0  0  0
  183.5130  177.4290  137.6380 N   0  0  0  0  0  0  0  0  0  0  0  0
  184.8740  177.0570  137.2810 C   0  0  0  0  0  1  0  0  0  0  0  0
  183.6260  177.7020  139.9730 C   0  0  2  0  0  0  0  0  0  0  0  0
  182.8820  176.2680  138.3180 C   0  0  0  0  0  2  0  0  0  0  0  0
  182.3270  178.2080  139.4730 C   0  0  2  0  0  3  0  0  0  0  0  0
  182.5020  176.7340  139.7220 C   0  0  2  0  0  3  0  0  0  0  0  0
  188.6810  176.3360  143.0010 C   0  0  0  0  0  2  0  0  0  0  0  0
  190.0440  176.2600  143.6550 C   0  0  0  0  0  2  0  0  0  0  0  0
  190.0360  178.7340  144.7790 O   0  0  0  0  0  0  0  0  0  0  0  0
  191.4460  176.9330  146.0550 O   0  0  0  0  0  1  0  0  0  0  0  0
  190.0500  177.2710  145.1610 P   0  0  2  0  0  0  0  0  0  0  0  0
  188.6530  176.9010  146.0960 O   0  0  0  0  0  0  0  0  0  0  0  0
  188.1790  177.7240  147.1230 C   0  0  0  0  0  0  0  0  0  0  0  0
  189.0610  178.2070  148.2260 C   0  0  0  0  0  1  0  0  0  0  0  0
  186.9690  178.0710  147.1190 O   0  0  0  0  0  0  0  0  0  0  0  0
  1  7  1  0  0  0  0
  1  5  1  0  0  0  0
  2  4  2  0  0  0  0
  4  3  1  0  0  0  0
  5  2  1  0  0  0  0
  6  3  2  0  0  0  0
  6 25  1  0  0  0  0
  7  8  2  0  0  0  0
  8  6  1  0  0  0  0
  9 12  1  0  0  0  0
  9 10  1  0  0  0  0
 10 14  1  6  0  0  0
 10 13  1  0  0  0  0
 11 13  1  0  0  0  0
 11  2  1  1  0  0  0
 12 11  1  0  0  0  0
 15 14  1  6  0  0  0
 15 22  1  0  0  0  0
 16 20  1  0  0  0  0
 17 16  1  0  0  0  0
 17 21  1  0  0  0  0
 19 18  1  0  0  0  0
 20 15  1  0  0  0  0
 20 18  1  0  0  0  0
 21 19  1  0  0  0  0
 22 24  1  0  0  0  0
 23 22  2  0  0  0  0
 25 27  1  0  0  0  0
 26 39  1  0  0  0  0
 27 26  2  0  0  0  0
 27 28  1  0  0  0  0
 29 30  1  0  0  0  0
 29 28  1  0  0  0  0
 31 30  1  0  0  0  0
 32 33  1  6  0  0  0
 32 37  1  0  0  0  0
 32 35  1  0  0  0  0
 33 36  1  0  0  0  0
 34 33  1  0  0  0  0
 35 31  1  1  0  0  0
 36 38  1  0  0  0  0
 37 38  1  0  0  0  0
 37 35  1  0  0  0  0
 38 35  1  0  0  0  0
 39 40  1  0  0  0  0
 40 43  1  0  0  0  0
 41 43  2  0  0  0  0
 43 42  1  0  0  0  0
 43 44  1  0  0  0  0
 44 45  1  0  0  0  0
 45 46  1  0  0  0  0
 47 45  2  0  0  0  0
M  END
>  <MODEL>
6

>  <REMARK>
 VINA RESULT:      -7.2      1.781      2.108
  Name = 
  16 active torsions:
  status: ('A' for Active; 'I' for Inactive)
    1  A    between atoms: C_4  and  C_33
    2  A    between atoms: C_5  and  O_21
    3  A    between atoms: C_6  and  C_23
    4  A    between atoms: C_9  and  C_22
    5  A    between atoms: C_9  and  C_33
    6  A    between atoms: N_12  and  C_18
    7  A    between atoms: C_13  and  C_36
    8  A    between atoms: C_13  and  C_40
    9  A    between atoms: O_21  and  P_42
   10  A    between atoms: C_28  and  C_33
   11  A    between atoms: C_32  and  C_35
   12  A    between atoms: C_32  and  O_46
   13  A    between atoms: C_36  and  O_46
   14  A    between atoms: N_39  and  C_41
   15  A    between atoms: C_41  and  C_45
   16  A    between atoms: P_42  and  C_45
                            x       y       z     vdW  Elec       q    Type
                         _______ _______ _______ _____ _____    ______ ____

>  <TORSDO>
F 16

$$$$
=
 OpenBabel10232411513D

 47 52  0  0  1  0  0  0  0  0999 V2000
  188.5490  177.4240  136.2920 C   0  0  0  0  0  2  0  0  0  0  0  0
  190.3400  176.2290  137.6490 C   0  0  0  0  0  0  0  0  0  0  0  0
  189.2670  177.1430  139.6790 C   0  0  0  0  0  3  0  0  0  0  0  0
  190.4310  176.6510  138.9170 C   0  0  0  0  0  3  0  0  0  0  0  0
  189.0030  176.1340  136.9800 C   0  0  0  0  0  2  0  0  0  0  0  0
  188.5160  178.1910  139.3180 C   0  0  0  0  0  0  0  0  0  0  0  0
  188.9840  178.7280  136.9090 C   0  0  0  0  0  3  0  0  0  0  0  0
  188.9210  179.0710  138.2000 C   0  0  0  0  0  3  0  0  0  0  0  0
  192.9660  173.8400  136.6140 C   0  0  0  0  0  2  0  0  0  0  0  0
  193.6940  174.7940  137.5450 C   0  0  2  0  0  3  0  0  0  0  0  0
  191.5500  175.7560  136.9000 C   0  0  2  0  0  3  0  0  0  0  0  0
  191.5160  174.2630  136.6370 C   0  0  0  0  0  2  0  0  0  0  0  0
  192.8310  176.0370  137.6680 C   0  0  0  0  0  2  0  0  0  0  0  0
  195.0480  175.1670  136.9660 C   0  0  0  0  0  2  0  0  0  0  0  0
  196.0570  174.0350  137.1600 C   0  0  1  0  0  3  0  0  0  0  0  0
  197.5860  174.6940  135.2530 C   0  0  0  0  0  2  0  0  0  0  0  0
  199.0080  175.1150  134.8360 C   0  0  0  0  0  2  0  0  0  0  0  0
  198.5300  173.4810  137.2430 C   0  0  0  0  0  2  0  0  0  0  0  0
  199.8610  173.6280  136.4920 C   0  0  0  0  0  2  0  0  0  0  0  0
  197.4710  174.4870  136.7670 C   0  0  0  0  0  3  0  0  0  0  0  0
  199.9860  174.9650  135.9190 N   0  0  0  0  0  2  0  0  0  0  0  0
  196.0070  173.5600  138.5820 C   0  0  0  0  0  0  0  0  0  0  0  0
  195.4570  172.3170  138.8710 O   0  0  0  0  0  0  0  0  0  0  0  0
  196.4550  174.2780  139.5170 O   0  0  0  0  0  1  0  0  0  0  0  0
  187.4240  178.5420  140.1770 N   0  0  0  0  0  2  0  0  0  0  0  0
  185.5930  178.1280  138.7150 N   0  0  0  0  0  0  0  0  0  0  0  0
  186.0180  178.4570  139.8990 C   0  0  0  0  0  0  0  0  0  0  0  0
  185.0580  178.7480  141.0110 C   0  0  0  0  0  2  0  0  0  0  0  0
  185.7770  178.6990  142.3510 C   0  0  0  0  0  2  0  0  0  0  0  0
  185.1720  179.5860  143.2440 O   0  0  0  0  0  0  0  0  0  0  0  0
  184.7230  178.7820  144.2960 C   0  0  0  0  0  2  0  0  0  0  0  0
  186.3670  177.2740  145.6800 C   0  0  2  0  0  3  0  0  0  0  0  0
  187.4000  177.5370  146.6850 N   0  0  0  0  0  0  0  0  0  0  0  0
  188.6550  177.7990  145.9960 C   0  0  0  0  0  1  0  0  0  0  0  0
  185.8120  178.6420  145.3430 C   0  0  2  0  0  0  0  0  0  0  0  0
  186.9650  178.7970  147.3420 C   0  0  0  0  0  2  0  0  0  0  0  0
  185.1200  177.7960  146.3440 C   0  0  2  0  0  3  0  0  0  0  0  0
  185.6100  179.1620  146.7400 C   0  0  2  0  0  3  0  0  0  0  0  0
  184.1840  178.0330  138.3660 C   0  0  0  0  0  2  0  0  0  0  0  0
  184.0190  177.1550  137.1440 C   0  0  0  0  0  2  0  0  0  0  0  0
  181.3790  176.5200  137.0710 O   0  0  0  0  0  0  0  0  0  0  0  0
  182.7120  175.5180  139.0900 O   0  0  0  0  0  1  0  0  0  0  0  0
  182.7180  175.9300  137.4490 P   0  0  2  0  0  0  0  0  0  0  0  0
  183.0240  174.5290  136.4970 O   0  0  0  0  0  0  0  0  0  0  0  0
  183.4650  173.3160  137.0380 C   0  0  0  0  0  0  0  0  0  0  0  0
  184.9110  173.0380  137.2880 C   0  0  0  0  0  1  0  0  0  0  0  0
  182.6200  172.4300  137.3230 O   0  0  0  0  0  0  0  0  0  0  0  0
  1  7  1  0  0  0  0
  1  5  1  0  0  0  0
  2  4  2  0  0  0  0
  4  3  1  0  0  0  0
  5  2  1  0  0  0  0
  6  3  2  0  0  0  0
  6 25  1  0  0  0  0
  7  8  2  0  0  0  0
  8  6  1  0  0  0  0
  9 12  1  0  0  0  0
  9 10  1  0  0  0  0
 10 14  1  6  0  0  0
 10 13  1  0  0  0  0
 11  2  1  1  0  0  0
 11 13  1  0  0  0  0
 12 11  1  0  0  0  0
 15 14  1  1  0  0  0
 15 22  1  0  0  0  0
 16 20  1  0  0  0  0
 17 16  1  0  0  0  0
 17 21  1  0  0  0  0
 19 18  1  0  0  0  0
 20 15  1  0  0  0  0
 20 18  1  0  0  0  0
 21 19  1  0  0  0  0
 22 23  2  0  0  0  0
 22 24  1  0  0  0  0
 26 27  2  0  0  0  0
 27 25  1  0  0  0  0
 27 28  1  0  0  0  0
 28 29  1  0  0  0  0
 29 30  1  0  0  0  0
 30 31  1  0  0  0  0
 32 37  1  0  0  0  0
 32 33  1  1  0  0  0
 33 36  1  0  0  0  0
 34 33  1  0  0  0  0
 35 31  1  6  0  0  0
 35 32  1  0  0  0  0
 35 37  1  0  0  0  0
 35 38  1  0  0  0  0
 37 38  1  0  0  0  0
 38 36  1  0  0  0  0
 39 26  1  0  0  0  0
 40 43  1  0  0  0  0
 40 39  1  0  0  0  0
 41 43  2  0  0  0  0
 43 42  1  0  0  0  0
 44 45  1  0  0  0  0
 44 43  1  0  0  0  0
 45 46  1  0  0  0  0
 45 47  2  0  0  0  0
M  END
>  <MODEL>
7

>  <REMARK>
 VINA RESULT:      -7.2      3.102      6.051
  Name = 
  16 active torsions:
  status: ('A' for Active; 'I' for Inactive)
    1  A    between atoms: C_4  and  C_33
    2  A    between atoms: C_5  and  O_21
    3  A    between atoms: C_6  and  C_23
    4  A    between atoms: C_9  and  C_22
    5  A    between atoms: C_9  and  C_33
    6  A    between atoms: N_12  and  C_18
    7  A    between atoms: C_13  and  C_36
    8  A    between atoms: C_13  and  C_40
    9  A    between atoms: O_21  and  P_42
   10  A    between atoms: C_28  and  C_33
   11  A    between atoms: C_32  and  C_35
   12  A    between atoms: C_32  and  O_46
   13  A    between atoms: C_36  and  O_46
   14  A    between atoms: N_39  and  C_41
   15  A    between atoms: C_41  and  C_45
   16  A    between atoms: P_42  and  C_45
                            x       y       z     vdW  Elec       q    Type
                         _______ _______ _______ _____ _____    ______ ____

>  <TORSDO>
F 16

$$$$
=
 OpenBabel10232411513D

 47 52  0  0  1  0  0  0  0  0999 V2000
  188.3290  177.2520  136.7860 C   0  0  0  0  0  2  0  0  0  0  0  0
  190.2760  175.9950  137.8380 C   0  0  0  0  0  0  0  0  0  0  0  0
  189.6860  177.0800  139.9790 C   0  0  0  0  0  3  0  0  0  0  0  0
  190.6430  176.4680  139.0360 C   0  0  0  0  0  3  0  0  0  0  0  0
  188.8290  175.9670  137.4490 C   0  0  0  0  0  2  0  0  0  0  0  0
  188.9460  178.1620  139.7090 C   0  0  0  0  0  0  0  0  0  0  0  0
  188.9580  178.5490  137.2270 C   0  0  0  0  0  3  0  0  0  0  0  0
  189.1740  178.9560  138.4820 C   0  0  0  0  0  3  0  0  0  0  0  0
  192.4270  173.3500  136.4060 C   0  0  0  0  0  2  0  0  0  0  0  0
  193.3990  174.2280  137.1750 C   0  0  2  0  0  3  0  0  0  0  0  0
  191.2810  175.4000  136.8970 C   0  0  2  0  0  3  0  0  0  0  0  0
  191.0530  173.9180  136.6750 C   0  0  0  0  0  2  0  0  0  0  0  0
  192.6990  175.5520  137.4220 C   0  0  0  0  0  2  0  0  0  0  0  0
  194.6590  174.4600  136.3580 C   0  0  0  0  0  2  0  0  0  0  0  0
  195.8970  173.9730  137.1100 C   0  0  1  0  0  3  0  0  0  0  0  0
  195.7090  172.2050  135.3080 C   0  0  0  0  0  2  0  0  0  0  0  0
  196.0330  170.7580  134.8920 C   0  0  0  0  0  2  0  0  0  0  0  0
  195.7480  171.5170  137.7270 C   0  0  0  0  0  2  0  0  0  0  0  0
  195.6620  170.0970  137.1510 C   0  0  0  0  0  2  0  0  0  0  0  0
  196.2600  172.5390  136.6980 C   0  0  0  0  0  3  0  0  0  0  0  0
  196.5500  169.9500  136.0020 N   0  0  0  0  0  2  0  0  0  0  0  0
  197.0350  174.9200  136.8660 C   0  0  0  0  0  0  0  0  0  0  0  0
  197.3830  175.2530  135.5630 O   0  0  0  0  0  0  0  0  0  0  0  0
  197.6790  175.4130  137.8310 O   0  0  0  0  0  1  0  0  0  0  0  0
  188.0700  178.6310  140.7410 N   0  0  0  0  0  2  0  0  0  0  0  0
  185.9930  178.5790  139.5820 N   0  0  0  0  0  0  0  0  0  0  0  0
  186.6430  178.7770  140.6900 C   0  0  0  0  0  0  0  0  0  0  0  0
  185.9260  179.1550  141.9500 C   0  0  0  0  0  2  0  0  0  0  0  0
  186.0620  178.0480  142.9850 C   0  0  0  0  0  2  0  0  0  0  0  0
  187.2140  178.2520  143.7460 O   0  0  0  0  0  0  0  0  0  0  0  0
  187.4570  177.0210  144.3620 C   0  0  0  0  0  2  0  0  0  0  0  0
  189.6710  177.9280  145.4420 C   0  0  2  0  0  3  0  0  0  0  0  0
  191.0430  177.4280  145.5420 N   0  0  0  0  0  0  0  0  0  0  0  0
  191.1380  176.5810  146.7230 C   0  0  0  0  0  1  0  0  0  0  0  0
  188.9390  176.8670  144.6480 C   0  0  2  0  0  0  0  0  0  0  0  0
  191.2120  176.5660  144.3440 C   0  0  0  0  0  2  0  0  0  0  0  0
  189.4750  178.0620  143.9550 C   0  0  2  0  0  3  0  0  0  0  0  0
  189.9280  176.6920  143.5280 C   0  0  2  0  0  3  0  0  0  0  0  0
  184.5490  178.7190  139.4630 C   0  0  0  0  0  2  0  0  0  0  0  0
  184.0730  178.0280  138.2030 C   0  0  0  0  0  2  0  0  0  0  0  0
  182.6210  176.5630  139.9720 O   0  0  0  0  0  1  0  0  0  0  0  0
  182.4260  175.8080  137.4720 O   0  0  0  0  0  0  0  0  0  0  0  0
  182.5580  177.0970  138.5590 P   0  0  2  0  0  0  0  0  0  0  0  0
  181.1990  178.1420  138.3940 O   0  0  0  0  0  0  0  0  0  0  0  0
  181.2570  179.3760  137.7380 C   0  0  0  0  0  0  0  0  0  0  0  0
  181.4590  180.6580  138.4750 C   0  0  0  0  0  1  0  0  0  0  0  0
  181.1350  179.4090  136.4860 O   0  0  0  0  0  0  0  0  0  0  0  0
  1  7  1  0  0  0  0
  1  5  1  0  0  0  0
  2  4  2  0  0  0  0
  4  3  1  0  0  0  0
  5  2  1  0  0  0  0
  6  3  2  0  0  0  0
  6 25  1  0  0  0  0
  7  8  2  0  0  0  0
  8  6  1  0  0  0  0
  9 12  1  0  0  0  0
  9 10  1  0  0  0  0
 10 14  1  6  0  0  0
 10 13  1  0  0  0  0
 11 13  1  0  0  0  0
 11  2  1  1  0  0  0
 12 11  1  0  0  0  0
 15 14  1  6  0  0  0
 16 20  1  0  0  0  0
 17 16  1  0  0  0  0
 17 21  1  0  0  0  0
 19 18  1  0  0  0  0
 20 15  1  0  0  0  0
 20 18  1  0  0  0  0
 21 19  1  0  0  0  0
 22 15  1  0  0  0  0
 22 24  1  0  0  0  0
 23 22  2  0  0  0  0
 26 27  2  0  0  0  0
 27 25  1  0  0  0  0
 27 28  1  0  0  0  0
 28 29  1  0  0  0  0
 29 30  1  0  0  0  0
 30 31  1  0  0  0  0
 32 33  1  6  0  0  0
 33 34  1  0  0  0  0
 35 31  1  1  0  0  0
 35 32  1  0  0  0  0
 36 33  1  0  0  0  0
 37 35  1  0  0  0  0
 37 32  1  0  0  0  0
 38 37  1  0  0  0  0
 38 36  1  0  0  0  0
 38 35  1  0  0  0  0
 39 26  1  0  0  0  0
 40 43  1  0  0  0  0
 40 39  1  0  0  0  0
 42 43  2  0  0  0  0
 43 41  1  0  0  0  0
 44 43  1  0  0  0  0
 45 44  1  0  0  0  0
 45 46  1  0  0  0  0
 47 45  2  0  0  0  0
M  END
>  <MODEL>
8

>  <REMARK>
 VINA RESULT:      -7.1      2.898      6.634
  Name = 
  16 active torsions:
  status: ('A' for Active; 'I' for Inactive)
    1  A    between atoms: C_4  and  C_33
    2  A    between atoms: C_5  and  O_21
    3  A    between atoms: C_6  and  C_23
    4  A    between atoms: C_9  and  C_22
    5  A    between atoms: C_9  and  C_33
    6  A    between atoms: N_12  and  C_18
    7  A    between atoms: C_13  and  C_36
    8  A    between atoms: C_13  and  C_40
    9  A    between atoms: O_21  and  P_42
   10  A    between atoms: C_28  and  C_33
   11  A    between atoms: C_32  and  C_35
   12  A    between atoms: C_32  and  O_46
   13  A    between atoms: C_36  and  O_46
   14  A    between atoms: N_39  and  C_41
   15  A    between atoms: C_41  and  C_45
   16  A    between atoms: P_42  and  C_45
                            x       y       z     vdW  Elec       q    Type
                         _______ _______ _______ _____ _____    ______ ____

>  <TORSDO>
F 16

$$$$
=
 OpenBabel10232411513D

 47 52  0  0  1  0  0  0  0  0999 V2000
  191.1520  176.8970  142.1900 C   0  0  0  0  0  2  0  0  0  0  0  0
  189.9930  177.6830  140.0660 C   0  0  0  0  0  0  0  0  0  0  0  0
  188.0070  178.1750  141.4530 C   0  0  0  0  0  3  0  0  0  0  0  0
  188.6640  177.8010  140.1850 C   0  0  0  0  0  3  0  0  0  0  0  0
  190.8870  178.0440  141.2120 C   0  0  0  0  0  2  0  0  0  0  0  0
  188.1100  177.4770  142.5910 C   0  0  0  0  0  0  0  0  0  0  0  0
  190.0480  175.8910  142.3930 C   0  0  0  0  0  3  0  0  0  0  0  0
  188.7540  176.1460  142.6150 C   0  0  0  0  0  3  0  0  0  0  0  0
  190.0750  176.6110  136.5270 C   0  0  0  0  0  2  0  0  0  0  0  0
  190.4260  175.3480  137.2950 C   0  0  2  0  0  3  0  0  0  0  0  0
  190.6230  177.2810  138.7660 C   0  0  2  0  0  3  0  0  0  0  0  0
  189.7690  177.6590  137.5710 C   0  0  0  0  0  2  0  0  0  0  0  0
  190.8430  175.7790  138.6900 C   0  0  0  0  0  2  0  0  0  0  0  0
  191.5780  174.6230  136.6190 C   0  0  0  0  0  2  0  0  0  0  0  0
  192.9230  175.0990  137.1680 C   0  0  1  0  0  3  0  0  0  0  0  0
  195.1920  174.3510  138.0040 C   0  0  0  0  0  2  0  0  0  0  0  0
  196.0610  173.1670  138.4700 C   0  0  0  0  0  2  0  0  0  0  0  0
  193.7930  172.7800  136.6260 C   0  0  0  0  0  2  0  0  0  0  0  0
  194.9630  171.8100  136.8480 C   0  0  0  0  0  2  0  0  0  0  0  0
  193.7640  173.9140  137.6630 C   0  0  0  0  0  3  0  0  0  0  0  0
  195.4260  171.8670  138.2320 N   0  0  0  0  0  2  0  0  0  0  0  0
  193.6440  175.8820  136.1110 C   0  0  0  0  0  0  0  0  0  0  0  0
  193.6590  175.4170  134.8020 O   0  0  0  0  0  0  0  0  0  0  0  0
  194.2400  176.9550  136.4000 O   0  0  0  0  0  1  0  0  0  0  0  0
  187.4010  177.9760  143.7320 N   0  0  0  0  0  2  0  0  0  0  0  0
  185.2160  178.1770  142.8120 N   0  0  0  0  0  0  0  0  0  0  0  0
  185.9980  178.2580  143.8470 C   0  0  0  0  0  0  0  0  0  0  0  0
  185.4620  178.6390  145.1920 C   0  0  0  0  0  2  0  0  0  0  0  0
  186.0420  177.7310  146.2660 C   0  0  0  0  0  2  0  0  0  0  0  0
  187.3170  178.1740  146.6220 O   0  0  0  0  0  0  0  0  0  0  0  0
  187.8680  177.1200  147.3570 C   0  0  0  0  0  2  0  0  0  0  0  0
  190.4350  177.2930  147.8780 C   0  0  2  0  0  3  0  0  0  0  0  0
  191.6540  176.9020  147.1670 N   0  0  0  0  0  0  0  0  0  0  0  0
  191.9580  175.5180  147.5030 C   0  0  0  0  0  1  0  0  0  0  0  0
  189.3100  176.8970  146.9450 C   0  0  2  0  0  0  0  0  0  0  0  0
  191.2780  176.9540  145.7300 C   0  0  0  0  0  2  0  0  0  0  0  0
  189.8110  178.2920  146.9390 C   0  0  2  0  0  3  0  0  0  0  0  0
  189.8480  177.4870  145.6690 C   0  0  2  0  0  3  0  0  0  0  0  0
  183.7890  178.4570  142.8600 C   0  0  0  0  0  2  0  0  0  0  0  0
  183.2130  178.4090  141.4610 C   0  0  0  0  0  2  0  0  0  0  0  0
  181.0670  179.2000  142.9280 O   0  0  0  0  0  1  0  0  0  0  0  0
  180.5630  177.3990  141.0940 O   0  0  0  0  0  0  0  0  0  0  0  0
  181.4400  178.7810  141.5240 P   0  0  2  0  0  0  0  0  0  0  0  0
  181.0900  180.0590  140.4240 O   0  0  0  0  0  0  0  0  0  0  0  0
  181.4110  180.0090  139.0640 C   0  0  0  0  0  0  0  0  0  0  0  0
  181.2170  181.1800  138.1590 C   0  0  0  0  0  1  0  0  0  0  0  0
  181.8780  178.9430  138.5850 O   0  0  0  0  0  0  0  0  0  0  0  0
  1  7  1  0  0  0  0
  2  4  2  0  0  0  0
  2  5  1  0  0  0  0
  3  6  2  0  0  0  0
  4  3  1  0  0  0  0
  5  1  1  0  0  0  0
  6  8  1  0  0  0  0
  6 25  1  0  0  0  0
  7  8  2  0  0  0  0
  9 10  1  0  0  0  0
  9 12  1  0  0  0  0
 10 14  1  6  0  0  0
 10 13  1  0  0  0  0
 11  2  1  1  0  0  0
 12 11  1  0  0  0  0
 13 11  1  0  0  0  0
 15 14  1  6  0  0  0
 15 20  1  0  0  0  0
 16 17  1  0  0  0  0
 18 19  1  0  0  0  0
 18 20  1  0  0  0  0
 19 21  1  0  0  0  0
 20 16  1  0  0  0  0
 21 17  1  0  0  0  0
 22 24  1  0  0  0  0
 22 15  1  0  0  0  0
 23 22  2  0  0  0  0
 25 27  1  0  0  0  0
 26 39  1  0  0  0  0
 26 27  2  0  0  0  0
 27 28  1  0  0  0  0
 28 29  1  0  0  0  0
 29 30  1  0  0  0  0
 30 31  1  0  0  0  0
 32 33  1  6  0  0  0
 33 34  1  0  0  0  0
 35 31  1  1  0  0  0
 35 32  1  0  0  0  0
 36 33  1  0  0  0  0
 37 35  1  0  0  0  0
 37 32  1  0  0  0  0
 38 36  1  0  0  0  0
 38 37  1  0  0  0  0
 38 35  1  0  0  0  0
 40 43  1  0  0  0  0
 40 39  1  0  0  0  0
 42 43  2  0  0  0  0
 43 41  1  0  0  0  0
 44 43  1  0  0  0  0
 45 44  1  0  0  0  0
 46 45  1  0  0  0  0
 47 45  2  0  0  0  0
M  END
>  <MODEL>
9

>  <REMARK>
 VINA RESULT:      -7.1      3.330      7.517
  Name = 
  16 active torsions:
  status: ('A' for Active; 'I' for Inactive)
    1  A    between atoms: C_4  and  C_33
    2  A    between atoms: C_5  and  O_21
    3  A    between atoms: C_6  and  C_23
    4  A    between atoms: C_9  and  C_22
    5  A    between atoms: C_9  and  C_33
    6  A    between atoms: N_12  and  C_18
    7  A    between atoms: C_13  and  C_36
    8  A    between atoms: C_13  and  C_40
    9  A    between atoms: O_21  and  P_42
   10  A    between atoms: C_28  and  C_33
   11  A    between atoms: C_32  and  C_35
   12  A    between atoms: C_32  and  O_46
   13  A    between atoms: C_36  and  O_46
   14  A    between atoms: N_39  and  C_41
   15  A    between atoms: C_41  and  C_45
   16  A    between atoms: P_42  and  C_45
                            x       y       z     vdW  Elec       q    Type
                         _______ _______ _______ _____ _____    ______ ____

>  <TORSDO>
F 16

$$$$
