=
 OpenBabel10222421313D

 34 37  0  0  1  0  0  0  0  0999 V2000
  188.6460  178.8430  136.5910 C   0  0  0  0  0  1  0  0  0  0  0  0
  189.7800  178.1470  138.6910 C   0  0  0  0  0  2  0  0  0  0  0  0
  188.9070  177.6760  137.5370 C   0  0  2  0  0  0  0  0  0  0  0  0
  189.7670  176.6370  136.8340 C   0  0  0  0  0  2  0  0  0  0  0  0
  190.6080  175.9880  137.9130 C   0  0  2  0  0  3  0  0  0  0  0  0
  190.6860  176.9840  139.0590 C   0  0  2  0  0  3  0  0  0  0  0  0
  185.4370  177.1390  136.2420 C   0  0  2  0  0  3  0  0  0  0  0  0
  186.3880  178.5220  139.4750 N   0  0  0  0  0  1  0  0  0  0  0  0
  186.5010  176.0510  136.0600 C   0  0  0  0  0  2  0  0  0  0  0  0
  187.3000  175.8160  137.3470 C   0  0  0  0  0  2  0  0  0  0  0  0
  187.6520  177.0690  138.0490 N   0  0  2  0  0  0  0  0  0  0  0  0
  185.2750  177.4850  137.6490 N   0  0  0  0  0  2  0  0  0  0  0  0
  186.5420  178.0500  138.1110 C   0  0  1  0  0  3  0  0  0  0  0  0
  184.1080  176.6760  135.6760 C   0  0  0  0  0  2  0  0  0  0  0  0
  183.8260  177.3790  134.4380 N   0  0  0  0  0  1  0  0  0  0  0  0
  191.5480  177.6480  141.7620 N   0  0  0  0  0  0  0  0  0  0  0  0
  191.7430  177.8500  143.1270 N   0  0  0  0  0  2  0  0  0  0  0  0
  190.6430  176.7530  141.5750 C   0  0  0  0  0  0  0  0  0  0  0  0
  190.0820  176.1970  142.8330 C   0  0  0  0  0  2  0  0  0  0  0  0
  190.8470  176.9970  143.8940 C   0  0  1  0  0  3  0  0  0  0  0  0
  190.2060  176.3490  140.2750 N   0  0  0  0  0  2  0  0  0  0  0  0
  191.6260  176.0820  144.7810 C   0  0  0  0  0  0  0  0  0  0  0  0
  192.1420  174.9020  144.2640 O   0  0  0  0  0  0  0  0  0  0  0  0
  191.8360  176.3820  145.9870 O   0  0  0  0  0  1  0  0  0  0  0  0
  191.8890  175.7260  137.4220 O   0  0  0  0  0  0  0  0  0  0  0  0
  192.0080  174.3330  137.4520 C   0  0  0  0  0  2  0  0  0  0  0  0
  193.3530  173.9110  136.8890 C   0  0  0  0  0  2  0  0  0  0  0  0
  194.2240  173.5950  137.9340 O   0  0  0  0  0  0  0  0  0  0  0  0
  197.6230  174.5070  138.3830 C   0  0  1  0  0  3  0  0  0  0  0  0
  196.0320  174.3390  136.5770 C   0  0  0  0  0  2  0  0  0  0  0  0
  195.2470  174.5410  137.8510 C   0  0  2  0  0  3  0  0  0  0  0  0
  197.4320  174.7980  136.9060 C   0  0  0  0  0  2  0  0  0  0  0  0
  198.2690  175.5830  138.9900 O   0  0  0  0  0  1  0  0  0  0  0  0
  196.2370  174.3330  138.9810 C   0  0  0  0  0  2  0  0  0  0  0  0
  2  6  1  0  0  0  0
  3  1  1  6  0  0  0
  3 11  1  0  0  0  0
  3  2  1  0  0  0  0
  4  3  1  0  0  0  0
  4  5  1  0  0  0  0
  5 25  1  6  0  0  0
  5  6  1  0  0  0  0
  6 21  1  1  0  0  0
  7 14  1  1  0  0  0
  7 12  1  0  0  0  0
  9  7  1  0  0  0  0
  9 10  1  0  0  0  0
 11 10  1  6  0  0  0
 11 13  1  0  0  0  0
 12 13  1  0  0  0  0
 13  8  1  1  0  0  0
 15 14  1  0  0  0  0
 16 17  1  0  0  0  0
 17 20  1  0  0  0  0
 18 16  2  0  0  0  0
 18 19  1  0  0  0  0
 19 20  1  0  0  0  0
 20 22  1  1  0  0  0
 21 18  1  0  0  0  0
 22 24  1  0  0  0  0
 23 22  2  0  0  0  0
 25 26  1  0  0  0  0
 27 26  1  0  0  0  0
 27 28  1  0  0  0  0
 29 34  1  0  0  0  0
 29 33  1  1  0  0  0
 30 32  1  0  0  0  0
 30 31  1  0  0  0  0
 31 28  1  1  0  0  0
 31 34  1  0  0  0  0
 32 29  1  0  0  0  0
M  END
>  <MODEL>
1

>  <REMARK>
 VINA RESULT:      -6.9      0.000      0.000
  Name = 
  9 active torsions:
  status: ('A' for Active; 'I' for Inactive)
    1  A    between atoms: C_1  and  C_10
    2  A    between atoms: C_6  and  C_30
    3  A    between atoms: O_11  and  C_12
    4  A    between atoms: O_11  and  C_31
    5  A    between atoms: C_12  and  C_26
    6  A    between atoms: O_15  and  C_16
    7  A    between atoms: O_15  and  C_26
    8  A    between atoms: N_20  and  C_25
    9  A    between atoms: N_33  and  C_34
                            x       y       z     vdW  Elec       q    Type
                         _______ _______ _______ _____ _____    ______ ____

>  <TORSDO>
F 9

$$$$
=
 OpenBabel10222421313D

 34 37  0  0  1  0  0  0  0  0999 V2000
  189.3430  179.0270  137.7970 C   0  0  0  0  0  1  0  0  0  0  0  0
  188.6090  178.8540  140.1650 C   0  0  0  0  0  2  0  0  0  0  0  0
  188.9120  178.0660  138.8990 C   0  0  2  0  0  0  0  0  0  0  0  0
  190.0880  177.1870  139.2930 C   0  0  0  0  0  2  0  0  0  0  0  0
  189.9070  176.8770  140.7640 C   0  0  2  0  0  3  0  0  0  0  0  0
  189.0370  177.9840  141.3360 C   0  0  2  0  0  3  0  0  0  0  0  0
  187.2040  177.1400  135.7000 C   0  0  2  0  0  3  0  0  0  0  0  0
  185.6410  178.3730  138.7490 N   0  0  0  0  0  1  0  0  0  0  0  0
  188.3030  176.2370  136.2730 C   0  0  0  0  0  2  0  0  0  0  0  0
  188.1260  176.0140  137.7800 C   0  0  0  0  0  2  0  0  0  0  0  0
  187.7390  177.2430  138.5070 N   0  0  2  0  0  0  0  0  0  0  0  0
  186.1310  177.3400  136.6670 N   0  0  0  0  0  2  0  0  0  0  0  0
  186.7010  178.0440  137.8150 C   0  0  1  0  0  3  0  0  0  0  0  0
  186.6380  176.5370  134.4290 C   0  0  0  0  0  2  0  0  0  0  0  0
  186.6890  175.0880  134.5040 N   0  0  0  0  0  1  0  0  0  0  0  0
  186.6110  179.4210  142.0730 N   0  0  0  0  0  0  0  0  0  0  0  0
  185.3430  179.8750  142.4270 N   0  0  0  0  0  2  0  0  0  0  0  0
  186.6920  178.1510  142.2630 C   0  0  0  0  0  0  0  0  0  0  0  0
  185.4460  177.5470  142.8000 C   0  0  0  0  0  2  0  0  0  0  0  0
  184.5190  178.7640  142.8790 C   0  0  1  0  0  3  0  0  0  0  0  0
  187.8670  177.3930  141.9650 N   0  0  0  0  0  2  0  0  0  0  0  0
  184.0620  178.9880  144.2840 C   0  0  0  0  0  0  0  0  0  0  0  0
  184.9760  179.4030  145.2430 O   0  0  0  0  0  1  0  0  0  0  0  0
  182.8540  178.8220  144.6000 O   0  0  0  0  0  0  0  0  0  0  0  0
  191.1490  176.8690  141.4030 O   0  0  0  0  0  0  0  0  0  0  0  0
  191.0130  177.7690  142.4650 C   0  0  0  0  0  2  0  0  0  0  0  0
  191.3690  177.0890  143.7740 C   0  0  0  0  0  2  0  0  0  0  0  0
  190.2280  176.5090  144.3320 O   0  0  0  0  0  0  0  0  0  0  0  0
  188.1070  177.3110  147.0600 C   0  0  1  0  0  3  0  0  0  0  0  0
  190.4590  176.9570  146.6580 C   0  0  0  0  0  2  0  0  0  0  0  0
  189.8370  177.3810  145.3490 C   0  0  2  0  0  3  0  0  0  0  0  0
  189.4720  177.3910  147.7150 C   0  0  0  0  0  2  0  0  0  0  0  0
  187.3560  178.4320  147.4100 O   0  0  0  0  0  1  0  0  0  0  0  0
  188.3380  177.2940  145.5580 C   0  0  0  0  0  2  0  0  0  0  0  0
  2  6  1  0  0  0  0
  3  1  1  6  0  0  0
  3  4  1  0  0  0  0
  3  2  1  0  0  0  0
  4  5  1  0  0  0  0
  5  6  1  0  0  0  0
  5 25  1  1  0  0  0
  6 21  1  6  0  0  0
  7 14  1  6  0  0  0
  7  9  1  0  0  0  0
  7 12  1  0  0  0  0
  9 10  1  0  0  0  0
 11 10  1  6  0  0  0
 11  3  1  0  0  0  0
 12 13  1  0  0  0  0
 13 11  1  0  0  0  0
 13  8  1  1  0  0  0
 14 15  1  0  0  0  0
 16 18  2  0  0  0  0
 16 17  1  0  0  0  0
 17 20  1  0  0  0  0
 18 19  1  0  0  0  0
 19 20  1  0  0  0  0
 20 22  1  1  0  0  0
 21 18  1  0  0  0  0
 22 24  2  0  0  0  0
 22 23  1  0  0  0  0
 25 26  1  0  0  0  0
 26 27  1  0  0  0  0
 27 28  1  0  0  0  0
 29 33  1  6  0  0  0
 29 32  1  0  0  0  0
 30 32  1  0  0  0  0
 31 28  1  6  0  0  0
 31 34  1  0  0  0  0
 31 30  1  0  0  0  0
 34 29  1  0  0  0  0
M  END
>  <MODEL>
2

>  <REMARK>
 VINA RESULT:      -6.8      3.875      6.750
  Name = 
  9 active torsions:
  status: ('A' for Active; 'I' for Inactive)
    1  A    between atoms: C_1  and  C_10
    2  A    between atoms: C_6  and  C_30
    3  A    between atoms: O_11  and  C_12
    4  A    between atoms: O_11  and  C_31
    5  A    between atoms: C_12  and  C_26
    6  A    between atoms: O_15  and  C_16
    7  A    between atoms: O_15  and  C_26
    8  A    between atoms: N_20  and  C_25
    9  A    between atoms: N_33  and  C_34
                            x       y       z     vdW  Elec       q    Type
                         _______ _______ _______ _____ _____    ______ ____

>  <TORSDO>
F 9

$$$$
=
 OpenBabel10222421313D

 34 37  0  0  1  0  0  0  0  0999 V2000
  190.2780  176.7430  135.6170 C   0  0  0  0  0  1  0  0  0  0  0  0
  188.0820  177.7040  136.2760 C   0  0  0  0  0  2  0  0  0  0  0  0
  189.0900  176.6010  136.5620 C   0  0  2  0  0  0  0  0  0  0  0  0
  189.5400  176.8840  137.9870 C   0  0  0  0  0  2  0  0  0  0  0  0
  188.3470  177.4940  138.6910 C   0  0  2  0  0  3  0  0  0  0  0  0
  187.4620  178.0900  137.6090 C   0  0  2  0  0  3  0  0  0  0  0  0
  189.9410  173.2860  135.0490 C   0  0  2  0  0  3  0  0  0  0  0  0
  186.8090  175.1150  134.7170 N   0  0  0  0  0  1  0  0  0  0  0  0
  190.3030  173.5780  136.5100 C   0  0  0  0  0  2  0  0  0  0  0  0
  189.1410  174.2370  137.2620 C   0  0  0  0  0  2  0  0  0  0  0  0
  188.4420  175.2680  136.4630 N   0  0  2  0  0  0  0  0  0  0  0  0
  188.5130  173.4610  134.8160 N   0  0  0  0  0  2  0  0  0  0  0  0
  188.1980  174.8690  135.0560 C   0  0  1  0  0  3  0  0  0  0  0  0
  190.3470  171.8710  134.6800 C   0  0  0  0  0  2  0  0  0  0  0  0
  189.1900  170.9960  134.7330 N   0  0  0  0  0  1  0  0  0  0  0  0
  185.2100  179.3180  138.9910 N   0  0  0  0  0  0  0  0  0  0  0  0
  183.9910  179.7470  139.5100 N   0  0  0  0  0  2  0  0  0  0  0  0
  185.0580  178.1990  138.3760 C   0  0  0  0  0  0  0  0  0  0  0  0
  183.6620  177.6900  138.3990 C   0  0  0  0  0  2  0  0  0  0  0  0
  182.9400  178.8000  139.1720 C   0  0  1  0  0  3  0  0  0  0  0  0
  186.1290  177.5210  137.7160 N   0  0  0  0  0  2  0  0  0  0  0  0
  182.3080  178.2530  140.4100 C   0  0  0  0  0  0  0  0  0  0  0  0
  182.7280  178.7090  141.6510 O   0  0  0  0  0  1  0  0  0  0  0  0
  181.3850  177.3990  140.3370 O   0  0  0  0  0  0  0  0  0  0  0  0
  188.7740  178.4970  139.5640 O   0  0  0  0  0  0  0  0  0  0  0  0
  188.1350  178.2160  140.7760 C   0  0  0  0  0  2  0  0  0  0  0  0
  188.9980  177.2940  141.6190 C   0  0  0  0  0  2  0  0  0  0  0  0
  188.2090  176.6550  142.5780 O   0  0  0  0  0  0  0  0  0  0  0  0
  186.7980  177.6220  145.6860 C   0  0  1  0  0  3  0  0  0  0  0  0
  188.9840  177.1800  144.7660 C   0  0  0  0  0  2  0  0  0  0  0  0
  188.0840  177.5750  143.6190 C   0  0  2  0  0  3  0  0  0  0  0  0
  188.2800  177.6830  146.0030 C   0  0  0  0  0  2  0  0  0  0  0  0
  186.1740  178.7780  146.1520 O   0  0  0  0  0  1  0  0  0  0  0  0
  186.6730  177.5430  144.1740 C   0  0  0  0  0  2  0  0  0  0  0  0
  2  3  1  0  0  0  0
  2  6  1  0  0  0  0
  3  1  1  6  0  0  0
  3  4  1  0  0  0  0
  4  5  1  0  0  0  0
  5 25  1  1  0  0  0
  6 21  1  6  0  0  0
  6  5  1  0  0  0  0
  7 14  1  1  0  0  0
  7  9  1  0  0  0  0
  9 10  1  0  0  0  0
 11  3  1  0  0  0  0
 11 10  1  6  0  0  0
 12  7  1  0  0  0  0
 12 13  1  0  0  0  0
 13  8  1  1  0  0  0
 13 11  1  0  0  0  0
 14 15  1  0  0  0  0
 16 17  1  0  0  0  0
 18 19  1  0  0  0  0
 18 16  2  0  0  0  0
 19 20  1  0  0  0  0
 20 17  1  0  0  0  0
 20 22  1  1  0  0  0
 21 18  1  0  0  0  0
 22 23  1  0  0  0  0
 24 22  2  0  0  0  0
 25 26  1  0  0  0  0
 26 27  1  0  0  0  0
 27 28  1  0  0  0  0
 29 32  1  0  0  0  0
 29 33  1  6  0  0  0
 30 32  1  0  0  0  0
 31 28  1  6  0  0  0
 31 34  1  0  0  0  0
 31 30  1  0  0  0  0
 34 29  1  0  0  0  0
M  END
>  <MODEL>
3

>  <REMARK>
 VINA RESULT:      -6.7      4.365      7.930
  Name = 
  9 active torsions:
  status: ('A' for Active; 'I' for Inactive)
    1  A    between atoms: C_1  and  C_10
    2  A    between atoms: C_6  and  C_30
    3  A    between atoms: O_11  and  C_12
    4  A    between atoms: O_11  and  C_31
    5  A    between atoms: C_12  and  C_26
    6  A    between atoms: O_15  and  C_16
    7  A    between atoms: O_15  and  C_26
    8  A    between atoms: N_20  and  C_25
    9  A    between atoms: N_33  and  C_34
                            x       y       z     vdW  Elec       q    Type
                         _______ _______ _______ _____ _____    ______ ____

>  <TORSDO>
F 9

$$$$
=
 OpenBabel10222421313D

 34 37  0  0  1  0  0  0  0  0999 V2000
  191.8260  176.8730  137.4870 C   0  0  0  0  0  1  0  0  0  0  0  0
  189.6350  178.0300  137.6750 C   0  0  0  0  0  2  0  0  0  0  0  0
  190.3710  176.7200  137.9140 C   0  0  2  0  0  0  0  0  0  0  0  0
  190.3030  176.5370  139.4220 C   0  0  0  0  0  2  0  0  0  0  0  0
  188.9950  177.1600  139.8620 C   0  0  2  0  0  3  0  0  0  0  0  0
  188.6140  178.1700  138.7930 C   0  0  2  0  0  3  0  0  0  0  0  0
  191.2690  174.2420  135.2570 C   0  0  2  0  0  3  0  0  0  0  0  0
  188.2800  176.3170  135.4080 N   0  0  0  0  0  1  0  0  0  0  0  0
  191.4570  173.8840  136.7360 C   0  0  0  0  0  2  0  0  0  0  0  0
  190.2380  174.2810  137.5760 C   0  0  0  0  0  2  0  0  0  0  0  0
  189.6870  175.6050  137.2110 N   0  0  2  0  0  0  0  0  0  0  0  0
  189.8890  174.6220  134.9800 N   0  0  0  0  0  2  0  0  0  0  0  0
  189.6040  175.8330  135.7480 C   0  0  1  0  0  3  0  0  0  0  0  0
  191.6590  173.0690  134.3780 C   0  0  0  0  0  2  0  0  0  0  0  0
  192.9580  172.5610  134.7810 N   0  0  0  0  0  1  0  0  0  0  0  0
  186.1070  179.0510  139.9880 N   0  0  0  0  0  0  0  0  0  0  0  0
  184.8070  179.4190  140.3300 N   0  0  0  0  0  2  0  0  0  0  0  0
  186.0970  178.3560  138.9060 C   0  0  0  0  0  0  0  0  0  0  0  0
  184.7380  178.1420  138.3460 C   0  0  0  0  0  2  0  0  0  0  0  0
  183.8660  178.9140  139.3430 C   0  0  1  0  0  3  0  0  0  0  0  0
  187.2860  177.8560  138.2910 N   0  0  0  0  0  2  0  0  0  0  0  0
  182.8700  178.0040  139.9850 C   0  0  0  0  0  0  0  0  0  0  0  0
  182.7480  176.6970  139.5350 O   0  0  0  0  0  0  0  0  0  0  0  0
  182.1570  178.4060  140.9420 O   0  0  0  0  0  1  0  0  0  0  0  0
  189.1660  177.8060  141.0890 O   0  0  0  0  0  0  0  0  0  0  0  0
  189.0000  176.8040  142.0500 C   0  0  0  0  0  2  0  0  0  0  0  0
  189.3600  177.3350  143.4260 C   0  0  0  0  0  2  0  0  0  0  0  0
  188.5660  176.7150  144.3940 O   0  0  0  0  0  0  0  0  0  0  0  0
  186.1060  178.1670  146.4970 C   0  0  1  0  0  3  0  0  0  0  0  0
  188.3750  177.3660  146.6750 C   0  0  0  0  0  2  0  0  0  0  0  0
  188.1440  177.7480  145.2320 C   0  0  2  0  0  3  0  0  0  0  0  0
  187.2880  178.0780  147.4430 C   0  0  0  0  0  2  0  0  0  0  0  0
  185.5310  179.4340  146.5890 O   0  0  0  0  0  1  0  0  0  0  0  0
  186.6470  177.9470  145.0940 C   0  0  0  0  0  2  0  0  0  0  0  0
  2  3  1  0  0  0  0
  2  6  1  0  0  0  0
  3  1  1  6  0  0  0
  3  4  1  0  0  0  0
  4  5  1  0  0  0  0
  5 25  1  1  0  0  0
  6 21  1  6  0  0  0
  6  5  1  0  0  0  0
  7 14  1  6  0  0  0
  7  9  1  0  0  0  0
  9 10  1  0  0  0  0
 11 10  1  6  0  0  0
 11  3  1  0  0  0  0
 12  7  1  0  0  0  0
 12 13  1  0  0  0  0
 13  8  1  1  0  0  0
 13 11  1  0  0  0  0
 14 15  1  0  0  0  0
 16 17  1  0  0  0  0
 18 16  2  0  0  0  0
 19 18  1  0  0  0  0
 19 20  1  0  0  0  0
 20 22  1  1  0  0  0
 20 17  1  0  0  0  0
 21 18  1  0  0  0  0
 22 24  1  0  0  0  0
 23 22  2  0  0  0  0
 25 26  1  0  0  0  0
 26 27  1  0  0  0  0
 27 28  1  0  0  0  0
 29 33  1  6  0  0  0
 29 32  1  0  0  0  0
 30 32  1  0  0  0  0
 31 28  1  6  0  0  0
 31 30  1  0  0  0  0
 34 31  1  0  0  0  0
 34 29  1  0  0  0  0
M  END
>  <MODEL>
4

>  <REMARK>
 VINA RESULT:      -6.7      4.020      8.241
  Name = 
  9 active torsions:
  status: ('A' for Active; 'I' for Inactive)
    1  A    between atoms: C_1  and  C_10
    2  A    between atoms: C_6  and  C_30
    3  A    between atoms: O_11  and  C_12
    4  A    between atoms: O_11  and  C_31
    5  A    between atoms: C_12  and  C_26
    6  A    between atoms: O_15  and  C_16
    7  A    between atoms: O_15  and  C_26
    8  A    between atoms: N_20  and  C_25
    9  A    between atoms: N_33  and  C_34
                            x       y       z     vdW  Elec       q    Type
                         _______ _______ _______ _____ _____    ______ ____

>  <TORSDO>
F 9

$$$$
=
 OpenBabel10222421313D

 34 37  0  0  1  0  0  0  0  0999 V2000
  191.6930  176.9280  137.4260 C   0  0  0  0  0  1  0  0  0  0  0  0
  189.5790  178.1840  137.7850 C   0  0  0  0  0  2  0  0  0  0  0  0
  190.2370  176.8150  137.8630 C   0  0  2  0  0  0  0  0  0  0  0  0
  190.1780  176.4700  139.3430 C   0  0  0  0  0  2  0  0  0  0  0  0
  188.9160  177.1160  139.8750 C   0  0  2  0  0  3  0  0  0  0  0  0
  188.5830  178.2600  138.9310 C   0  0  2  0  0  3  0  0  0  0  0  0
  191.0410  174.2880  135.2230 C   0  0  2  0  0  3  0  0  0  0  0  0
  188.3830  176.7760  135.1470 N   0  0  0  0  0  1  0  0  0  0  0  0
  191.0210  173.8750  136.6990 C   0  0  0  0  0  2  0  0  0  0  0  0
  189.7900  174.4300  137.4270 C   0  0  0  0  0  2  0  0  0  0  0  0
  189.4770  175.8270  137.0560 N   0  0  2  0  0  0  0  0  0  0  0  0
  189.7670  174.8720  134.8230 N   0  0  0  0  0  2  0  0  0  0  0  0
  189.5810  176.0960  135.6010 C   0  0  1  0  0  3  0  0  0  0  0  0
  191.3490  173.0890  134.3460 C   0  0  0  0  0  2  0  0  0  0  0  0
  191.0310  171.8630  135.0560 N   0  0  0  0  0  1  0  0  0  0  0  0
  186.1410  178.9510  140.3620 N   0  0  0  0  0  0  0  0  0  0  0  0
  184.8640  179.2760  140.8140 N   0  0  0  0  0  2  0  0  0  0  0  0
  186.0770  178.4810  139.1660 C   0  0  0  0  0  0  0  0  0  0  0  0
  184.6970  178.4150  138.6230 C   0  0  0  0  0  2  0  0  0  0  0  0
  183.8790  178.9970  139.7810 C   0  0  1  0  0  3  0  0  0  0  0  0
  187.2320  178.0820  138.4250 N   0  0  0  0  0  2  0  0  0  0  0  0
  182.8750  178.0040  140.2680 C   0  0  0  0  0  0  0  0  0  0  0  0
  181.7990  178.4360  141.0320 O   0  0  0  0  0  1  0  0  0  0  0  0
  182.9840  176.7840  139.9740 O   0  0  0  0  0  0  0  0  0  0  0  0
  189.1430  177.6110  141.1610 O   0  0  0  0  0  0  0  0  0  0  0  0
  189.9220  176.6350  141.7910 C   0  0  0  0  0  2  0  0  0  0  0  0
  189.9120  176.8460  143.2930 C   0  0  0  0  0  2  0  0  0  0  0  0
  191.1860  176.6070  143.8130 O   0  0  0  0  0  0  0  0  0  0  0  0
  189.7450  176.9120  147.0400 C   0  0  1  0  0  3  0  0  0  0  0  0
  191.8560  176.2610  146.0700 C   0  0  0  0  0  2  0  0  0  0  0  0
  191.1720  177.1790  145.0850 C   0  0  2  0  0  3  0  0  0  0  0  0
  191.1700  176.5250  147.3880 C   0  0  0  0  0  2  0  0  0  0  0  0
  189.3490  177.9900  147.8300 O   0  0  0  0  0  1  0  0  0  0  0  0
  189.7430  177.3180  145.5760 C   0  0  0  0  0  2  0  0  0  0  0  0
  2  3  1  0  0  0  0
  2  6  1  0  0  0  0
  3  1  1  6  0  0  0
  3  4  1  0  0  0  0
  4  5  1  0  0  0  0
  5 25  1  1  0  0  0
  6 21  1  6  0  0  0
  6  5  1  0  0  0  0
  7 14  1  6  0  0  0
  7  9  1  0  0  0  0
  9 10  1  0  0  0  0
 11 10  1  6  0  0  0
 11  3  1  0  0  0  0
 12  7  1  0  0  0  0
 12 13  1  0  0  0  0
 13  8  1  6  0  0  0
 13 11  1  0  0  0  0
 14 15  1  0  0  0  0
 16 17  1  0  0  0  0
 18 16  2  0  0  0  0
 19 18  1  0  0  0  0
 19 20  1  0  0  0  0
 20 22  1  1  0  0  0
 20 17  1  0  0  0  0
 21 18  1  0  0  0  0
 22 23  1  0  0  0  0
 24 22  2  0  0  0  0
 25 26  1  0  0  0  0
 26 27  1  0  0  0  0
 27 28  1  0  0  0  0
 29 32  1  0  0  0  0
 29 33  1  1  0  0  0
 30 32  1  0  0  0  0
 31 28  1  6  0  0  0
 31 34  1  0  0  0  0
 31 30  1  0  0  0  0
 34 29  1  0  0  0  0
M  END
>  <MODEL>
5

>  <REMARK>
 VINA RESULT:      -6.6      3.765      7.386
  Name = 
  9 active torsions:
  status: ('A' for Active; 'I' for Inactive)
    1  A    between atoms: C_1  and  C_10
    2  A    between atoms: C_6  and  C_30
    3  A    between atoms: O_11  and  C_12
    4  A    between atoms: O_11  and  C_31
    5  A    between atoms: C_12  and  C_26
    6  A    between atoms: O_15  and  C_16
    7  A    between atoms: O_15  and  C_26
    8  A    between atoms: N_20  and  C_25
    9  A    between atoms: N_33  and  C_34
                            x       y       z     vdW  Elec       q    Type
                         _______ _______ _______ _____ _____    ______ ____

>  <TORSDO>
F 9

$$$$
=
 OpenBabel10222421313D

 34 37  0  0  1  0  0  0  0  0999 V2000
  183.1730  176.6810  135.2880 C   0  0  0  0  0  1  0  0  0  0  0  0
  182.9990  177.9390  137.4250 C   0  0  0  0  0  2  0  0  0  0  0  0
  183.6380  176.7400  136.7390 C   0  0  2  0  0  0  0  0  0  0  0  0
  185.1260  177.0500  136.7810 C   0  0  0  0  0  2  0  0  0  0  0  0
  185.3540  177.8410  138.0530 C   0  0  2  0  0  3  0  0  0  0  0  0
  184.0210  178.4750  138.4140 C   0  0  2  0  0  3  0  0  0  0  0  0
  182.9100  173.1750  135.8620 C   0  0  2  0  0  3  0  0  0  0  0  0
  181.0390  175.3020  138.1520 N   0  0  0  0  0  1  0  0  0  0  0  0
  184.3490  173.6150  136.1560 C   0  0  0  0  0  2  0  0  0  0  0  0
  184.4280  174.5010  137.4050 C   0  0  0  0  0  2  0  0  0  0  0  0
  183.3320  175.4920  137.4840 N   0  0  2  0  0  0  0  0  0  0  0  0
  182.0270  173.4860  136.9800 N   0  0  0  0  0  2  0  0  0  0  0  0
  182.0020  174.9410  137.1290 C   0  0  1  0  0  3  0  0  0  0  0  0
  182.8630  171.6860  135.5760 C   0  0  0  0  0  2  0  0  0  0  0  0
  183.7600  170.9820  136.4740 N   0  0  0  0  0  1  0  0  0  0  0  0
  185.3110  179.4120  140.8530 N   0  0  0  0  0  0  0  0  0  0  0  0
  185.7120  179.7820  142.1350 N   0  0  0  0  0  2  0  0  0  0  0  0
  184.3060  178.6110  140.9210 C   0  0  0  0  0  0  0  0  0  0  0  0
  183.8760  178.3090  142.3100 C   0  0  0  0  0  2  0  0  0  0  0  0
  184.8540  179.1560  143.1300 C   0  0  1  0  0  3  0  0  0  0  0  0
  183.6560  178.0790  139.7640 N   0  0  0  0  0  2  0  0  0  0  0  0
  185.6570  178.2930  144.0470 C   0  0  0  0  0  0  0  0  0  0  0  0
  186.6310  177.4550  143.5200 O   0  0  0  0  0  0  0  0  0  0  0  0
  185.4740  178.3340  145.2920 O   0  0  0  0  0  1  0  0  0  0  0  0
  186.3090  178.8350  137.8270 O   0  0  0  0  0  0  0  0  0  0  0  0
  187.1440  178.3130  136.8340 C   0  0  0  0  0  2  0  0  0  0  0  0
  188.5960  178.4130  137.2660 C   0  0  0  0  0  2  0  0  0  0  0  0
  188.9370  177.3000  138.0380 O   0  0  0  0  0  0  0  0  0  0  0  0
  189.4710  177.3940  141.5440 C   0  0  1  0  0  3  0  0  0  0  0  0
  190.7330  176.9010  139.5480 C   0  0  0  0  0  2  0  0  0  0  0  0
  189.6010  177.8190  139.1500 C   0  0  2  0  0  3  0  0  0  0  0  0
  190.8650  177.0740  141.0410 C   0  0  0  0  0  2  0  0  0  0  0  0
  189.5400  178.4170  142.4890 O   0  0  0  0  0  1  0  0  0  0  0  0
  188.6650  177.8580  140.3420 C   0  0  0  0  0  2  0  0  0  0  0  0
  2  6  1  0  0  0  0
  3  1  1  6  0  0  0
  3  4  1  0  0  0  0
  3  2  1  0  0  0  0
  3 11  1  0  0  0  0
  4  5  1  0  0  0  0
  5 25  1  6  0  0  0
  5  6  1  0  0  0  0
  6 21  1  1  0  0  0
  7 14  1  1  0  0  0
  7  9  1  0  0  0  0
  7 12  1  0  0  0  0
  9 10  1  0  0  0  0
 11 10  1  6  0  0  0
 12 13  1  0  0  0  0
 13 11  1  0  0  0  0
 13  8  1  1  0  0  0
 14 15  1  0  0  0  0
 16 18  2  0  0  0  0
 16 17  1  0  0  0  0
 17 20  1  0  0  0  0
 18 19  1  0  0  0  0
 19 20  1  0  0  0  0
 20 22  1  1  0  0  0
 21 18  1  0  0  0  0
 22 24  1  0  0  0  0
 23 22  2  0  0  0  0
 26 27  1  0  0  0  0
 26 25  1  0  0  0  0
 27 28  1  0  0  0  0
 29 33  1  1  0  0  0
 30 32  1  0  0  0  0
 31 28  1  6  0  0  0
 31 30  1  0  0  0  0
 31 34  1  0  0  0  0
 32 29  1  0  0  0  0
 34 29  1  0  0  0  0
M  END
>  <MODEL>
6

>  <REMARK>
 VINA RESULT:      -6.6      4.375      6.420
  Name = 
  9 active torsions:
  status: ('A' for Active; 'I' for Inactive)
    1  A    between atoms: C_1  and  C_10
    2  A    between atoms: C_6  and  C_30
    3  A    between atoms: O_11  and  C_12
    4  A    between atoms: O_11  and  C_31
    5  A    between atoms: C_12  and  C_26
    6  A    between atoms: O_15  and  C_16
    7  A    between atoms: O_15  and  C_26
    8  A    between atoms: N_20  and  C_25
    9  A    between atoms: N_33  and  C_34
                            x       y       z     vdW  Elec       q    Type
                         _______ _______ _______ _____ _____    ______ ____

>  <TORSDO>
F 9

$$$$
=
 OpenBabel10222421313D

 34 37  0  0  1  0  0  0  0  0999 V2000
  191.2040  175.6430  144.2890 C   0  0  0  0  0  1  0  0  0  0  0  0
  190.0900  175.9570  142.0890 C   0  0  0  0  0  2  0  0  0  0  0  0
  190.7580  176.6710  143.2550 C   0  0  2  0  0  0  0  0  0  0  0  0
  191.9820  177.3200  142.6270 C   0  0  0  0  0  2  0  0  0  0  0  0
  191.5920  177.6630  141.2050 C   0  0  2  0  0  3  0  0  0  0  0  0
  190.4450  176.7380  140.8340 C   0  0  2  0  0  3  0  0  0  0  0  0
  188.8390  177.1050  146.4380 C   0  0  2  0  0  3  0  0  0  0  0  0
  187.5900  177.5270  143.0430 N   0  0  0  0  0  1  0  0  0  0  0  0
  190.2520  177.6830  146.3100 C   0  0  0  0  0  2  0  0  0  0  0  0
  190.4490  178.4110  144.9740 C   0  0  0  0  0  2  0  0  0  0  0  0
  189.8470  177.6940  143.8280 N   0  0  2  0  0  0  0  0  0  0  0  0
  187.9650  177.6130  145.3880 N   0  0  0  0  0  2  0  0  0  0  0  0
  188.4980  177.1470  144.1090 C   0  0  1  0  0  3  0  0  0  0  0  0
  188.2530  177.4440  147.7960 C   0  0  0  0  0  2  0  0  0  0  0  0
  189.1400  178.3490  148.5050 N   0  0  0  0  0  1  0  0  0  0  0  0
  189.0290  176.4470  138.3040 N   0  0  0  0  0  0  0  0  0  0  0  0
  188.1620  176.4340  137.2140 N   0  0  0  0  0  2  0  0  0  0  0  0
  188.6330  177.3120  139.1700 C   0  0  0  0  0  0  0  0  0  0  0  0
  187.4010  178.0380  138.7690 C   0  0  0  0  0  2  0  0  0  0  0  0
  187.0830  177.3880  137.4170 C   0  0  1  0  0  3  0  0  0  0  0  0
  189.3070  177.5360  140.4110 N   0  0  0  0  0  2  0  0  0  0  0  0
  187.0770  178.4120  136.3300 C   0  0  0  0  0  0  0  0  0  0  0  0
  186.6800  178.0500  135.0500 O   0  0  0  0  0  0  0  0  0  0  0  0
  187.4070  179.6040  136.5690 O   0  0  0  0  0  1  0  0  0  0  0  0
  192.6760  177.4450  140.3510 O   0  0  0  0  0  0  0  0  0  0  0  0
  192.1060  177.0080  139.1510 C   0  0  0  0  0  2  0  0  0  0  0  0
  193.1890  176.5220  138.2050 C   0  0  0  0  0  2  0  0  0  0  0  0
  194.2310  175.9480  138.9350 O   0  0  0  0  0  0  0  0  0  0  0  0
  195.3570  172.6640  138.2030 C   0  0  1  0  0  3  0  0  0  0  0  0
  193.7620  174.2510  137.3330 C   0  0  0  0  0  2  0  0  0  0  0  0
  194.8260  175.0360  138.0620 C   0  0  2  0  0  3  0  0  0  0  0  0
  194.3900  172.9060  137.0600 C   0  0  0  0  0  2  0  0  0  0  0  0
  196.5450  172.1320  137.7040 O   0  0  0  0  0  1  0  0  0  0  0  0
  195.6270  174.0140  138.8460 C   0  0  0  0  0  2  0  0  0  0  0  0
  2  3  1  0  0  0  0
  3 11  1  0  0  0  0
  3  1  1  1  0  0  0
  4  3  1  0  0  0  0
  5 25  1  6  0  0  0
  5  4  1  0  0  0  0
  6 21  1  1  0  0  0
  6  5  1  0  0  0  0
  6  2  1  0  0  0  0
  7 14  1  1  0  0  0
  9  7  1  0  0  0  0
 10  9  1  0  0  0  0
 11 13  1  0  0  0  0
 11 10  1  1  0  0  0
 12  7  1  0  0  0  0
 13  8  1  6  0  0  0
 13 12  1  0  0  0  0
 14 15  1  0  0  0  0
 16 18  2  0  0  0  0
 17 20  1  0  0  0  0
 17 16  1  0  0  0  0
 18 21  1  0  0  0  0
 19 18  1  0  0  0  0
 20 22  1  6  0  0  0
 20 19  1  0  0  0  0
 22 24  1  0  0  0  0
 23 22  2  0  0  0  0
 26 25  1  0  0  0  0
 27 28  1  0  0  0  0
 27 26  1  0  0  0  0
 29 33  1  6  0  0  0
 29 34  1  0  0  0  0
 30 31  1  0  0  0  0
 31 34  1  0  0  0  0
 31 28  1  1  0  0  0
 32 30  1  0  0  0  0
 32 29  1  0  0  0  0
M  END
>  <MODEL>
7

>  <REMARK>
 VINA RESULT:      -6.4      2.761      6.945
  Name = 
  9 active torsions:
  status: ('A' for Active; 'I' for Inactive)
    1  A    between atoms: C_1  and  C_10
    2  A    between atoms: C_6  and  C_30
    3  A    between atoms: O_11  and  C_12
    4  A    between atoms: O_11  and  C_31
    5  A    between atoms: C_12  and  C_26
    6  A    between atoms: O_15  and  C_16
    7  A    between atoms: O_15  and  C_26
    8  A    between atoms: N_20  and  C_25
    9  A    between atoms: N_33  and  C_34
                            x       y       z     vdW  Elec       q    Type
                         _______ _______ _______ _____ _____    ______ ____

>  <TORSDO>
F 9

$$$$
=
 OpenBabel10222421313D

 34 37  0  0  1  0  0  0  0  0999 V2000
  182.2390  178.0540  137.0160 C   0  0  0  0  0  1  0  0  0  0  0  0
  182.7790  178.7170  139.3500 C   0  0  0  0  0  2  0  0  0  0  0  0
  182.9600  177.6380  138.2930 C   0  0  2  0  0  0  0  0  0  0  0  0
  184.4600  177.6230  138.0460 C   0  0  0  0  0  2  0  0  0  0  0  0
  185.1070  177.9910  139.3650 C   0  0  2  0  0  3  0  0  0  0  0  0
  184.0650  178.7610  140.1590 C   0  0  2  0  0  3  0  0  0  0  0  0
  181.2250  174.6410  136.8740 C   0  0  2  0  0  3  0  0  0  0  0  0
  180.3800  176.4260  139.9350 N   0  0  0  0  0  1  0  0  0  0  0  0
  182.7560  174.6950  136.9110 C   0  0  0  0  0  2  0  0  0  0  0  0
  183.2740  175.1920  138.2660 C   0  0  0  0  0  2  0  0  0  0  0  0
  182.4910  176.3250  138.8070 N   0  0  2  0  0  0  0  0  0  0  0  0
  180.6600  174.8190  138.2070 N   0  0  0  0  0  2  0  0  0  0  0  0
  181.0250  176.1600  138.6630 C   0  0  1  0  0  3  0  0  0  0  0  0
  180.7590  173.3180  136.2970 C   0  0  0  0  0  2  0  0  0  0  0  0
  181.0990  172.2360  137.2040 N   0  0  0  0  0  1  0  0  0  0  0  0
  184.7170  179.9060  142.7570 N   0  0  0  0  0  0  0  0  0  0  0  0
  184.8670  180.2780  144.0920 N   0  0  0  0  0  2  0  0  0  0  0  0
  184.1700  178.7440  142.6830 C   0  0  0  0  0  0  0  0  0  0  0  0
  183.8670  178.1410  144.0060 C   0  0  0  0  0  2  0  0  0  0  0  0
  184.3390  179.2400  144.9650 C   0  0  1  0  0  3  0  0  0  0  0  0
  183.8640  178.1070  141.4410 N   0  0  0  0  0  2  0  0  0  0  0  0
  185.4080  178.7240  145.8710 C   0  0  0  0  0  0  0  0  0  0  0  0
  186.1950  177.6560  145.4640 O   0  0  0  0  0  0  0  0  0  0  0  0
  185.6150  179.2620  146.9920 O   0  0  0  0  0  1  0  0  0  0  0  0
  186.2230  178.7980  139.1360 O   0  0  0  0  0  0  0  0  0  0  0  0
  187.0400  178.0500  138.2820 C   0  0  0  0  0  2  0  0  0  0  0  0
  188.5020  178.3380  138.5720 C   0  0  0  0  0  2  0  0  0  0  0  0
  188.6430  178.7890  139.8860 O   0  0  0  0  0  0  0  0  0  0  0  0
  189.9920  176.7730  142.4740 C   0  0  1  0  0  3  0  0  0  0  0  0
  187.9370  177.9410  141.9950 C   0  0  0  0  0  2  0  0  0  0  0  0
  188.6010  177.6380  140.6730 C   0  0  2  0  0  3  0  0  0  0  0  0
  188.5790  176.9930  142.9780 C   0  0  0  0  0  2  0  0  0  0  0  0
  190.3200  175.4220  142.5830 O   0  0  0  0  0  1  0  0  0  0  0  0
  190.0100  177.1910  141.0130 C   0  0  0  0  0  2  0  0  0  0  0  0
  2  6  1  0  0  0  0
  3  1  1  6  0  0  0
  3 11  1  0  0  0  0
  3  2  1  0  0  0  0
  4  3  1  0  0  0  0
  4  5  1  0  0  0  0
  5 25  1  6  0  0  0
  5  6  1  0  0  0  0
  6 21  1  1  0  0  0
  7 14  1  1  0  0  0
  7  9  1  0  0  0  0
  7 12  1  0  0  0  0
  9 10  1  0  0  0  0
 11 10  1  6  0  0  0
 12 13  1  0  0  0  0
 13 11  1  0  0  0  0
 13  8  1  1  0  0  0
 14 15  1  0  0  0  0
 16 17  1  0  0  0  0
 17 20  1  0  0  0  0
 18 16  2  0  0  0  0
 18 19  1  0  0  0  0
 19 20  1  0  0  0  0
 20 22  1  1  0  0  0
 21 18  1  0  0  0  0
 22 24  1  0  0  0  0
 23 22  2  0  0  0  0
 26 27  1  0  0  0  0
 26 25  1  0  0  0  0
 27 28  1  0  0  0  0
 29 33  1  6  0  0  0
 29 32  1  0  0  0  0
 30 32  1  0  0  0  0
 31 28  1  6  0  0  0
 31 34  1  0  0  0  0
 31 30  1  0  0  0  0
 34 29  1  0  0  0  0
M  END
>  <MODEL>
8

>  <REMARK>
 VINA RESULT:      -6.4      4.931      6.894
  Name = 
  9 active torsions:
  status: ('A' for Active; 'I' for Inactive)
    1  A    between atoms: C_1  and  C_10
    2  A    between atoms: C_6  and  C_30
    3  A    between atoms: O_11  and  C_12
    4  A    between atoms: O_11  and  C_31
    5  A    between atoms: C_12  and  C_26
    6  A    between atoms: O_15  and  C_16
    7  A    between atoms: O_15  and  C_26
    8  A    between atoms: N_20  and  C_25
    9  A    between atoms: N_33  and  C_34
                            x       y       z     vdW  Elec       q    Type
                         _______ _______ _______ _____ _____    ______ ____

>  <TORSDO>
F 9

$$$$
=
 OpenBabel10222421313D

 34 37  0  0  1  0  0  0  0  0999 V2000
  189.8680  176.0290  143.1060 C   0  0  0  0  0  1  0  0  0  0  0  0
  187.5610  176.8190  142.6210 C   0  0  0  0  0  2  0  0  0  0  0  0
  188.9560  177.2500  143.0500 C   0  0  2  0  0  0  0  0  0  0  0  0
  189.4100  178.1700  141.9280 C   0  0  0  0  0  2  0  0  0  0  0  0
  188.1600  178.8490  141.4080 C   0  0  2  0  0  3  0  0  0  0  0  0
  186.9930  177.9470  141.7750 C   0  0  2  0  0  3  0  0  0  0  0  0
  190.4640  176.8390  146.4500 C   0  0  2  0  0  3  0  0  0  0  0  0
  186.9640  177.4600  145.6580 N   0  0  0  0  0  1  0  0  0  0  0  0
  191.1660  177.7070  145.3990 C   0  0  0  0  0  2  0  0  0  0  0  0
  190.1800  178.6360  144.6810 C   0  0  0  0  0  2  0  0  0  0  0  0
  188.9000  177.9760  144.3440 N   0  0  2  0  0  0  0  0  0  0  0  0
  189.1000  177.2970  146.6850 N   0  0  0  0  0  2  0  0  0  0  0  0
  188.3590  177.1310  145.4360 C   0  0  1  0  0  3  0  0  0  0  0  0
  191.2400  176.8600  147.7530 C   0  0  0  0  0  2  0  0  0  0  0  0
  192.3900  175.9790  147.6580 N   0  0  0  0  0  1  0  0  0  0  0  0
  184.0980  177.6660  141.6080 N   0  0  0  0  0  0  0  0  0  0  0  0
  182.7130  177.6470  141.7580 N   0  0  0  0  0  2  0  0  0  0  0  0
  184.6190  178.4900  142.4480 C   0  0  0  0  0  0  0  0  0  0  0  0
  183.6230  179.1740  143.3110 C   0  0  0  0  0  2  0  0  0  0  0  0
  182.3100  178.5490  142.8260 C   0  0  1  0  0  3  0  0  0  0  0  0
  186.0280  178.7080  142.5510 N   0  0  0  0  0  2  0  0  0  0  0  0
  181.3880  179.6020  142.3030 C   0  0  0  0  0  0  0  0  0  0  0  0
  181.2710  179.7910  140.9330 O   0  0  0  0  0  0  0  0  0  0  0  0
  180.7010  180.3030  143.0930 O   0  0  0  0  0  1  0  0  0  0  0  0
  188.2380  178.9870  140.0210 O   0  0  0  0  0  0  0  0  0  0  0  0
  189.3460  178.2220  139.6440 C   0  0  0  0  0  2  0  0  0  0  0  0
  189.4340  178.1400  138.1310 C   0  0  0  0  0  2  0  0  0  0  0  0
  188.6720  179.1590  137.5570 O   0  0  0  0  0  0  0  0  0  0  0  0
  187.6320  176.2220  135.8620 C   0  0  1  0  0  3  0  0  0  0  0  0
  186.6260  178.0330  137.0970 C   0  0  0  0  0  2  0  0  0  0  0  0
  187.9380  178.5380  136.5450 C   0  0  2  0  0  3  0  0  0  0  0  0
  186.2970  176.8180  136.2640 C   0  0  0  0  0  2  0  0  0  0  0  0
  187.5850  175.8370  134.5220 O   0  0  0  0  0  1  0  0  0  0  0  0
  188.6760  177.3090  136.0490 C   0  0  0  0  0  2  0  0  0  0  0  0
  2  3  1  0  0  0  0
  3  1  1  1  0  0  0
  3 11  1  0  0  0  0
  4  3  1  0  0  0  0
  5 25  1  6  0  0  0
  5  6  1  0  0  0  0
  5  4  1  0  0  0  0
  6 21  1  1  0  0  0
  6  2  1  0  0  0  0
  7 12  1  0  0  0  0
  7 14  1  1  0  0  0
  9  7  1  0  0  0  0
 10  9  1  0  0  0  0
 11 10  1  1  0  0  0
 11 13  1  0  0  0  0
 13  8  1  1  0  0  0
 13 12  1  0  0  0  0
 15 14  1  0  0  0  0
 16 17  1  0  0  0  0
 16 18  2  0  0  0  0
 17 20  1  0  0  0  0
 18 21  1  0  0  0  0
 18 19  1  0  0  0  0
 20 22  1  6  0  0  0
 20 19  1  0  0  0  0
 22 24  1  0  0  0  0
 23 22  2  0  0  0  0
 26 25  1  0  0  0  0
 27 26  1  0  0  0  0
 28 27  1  0  0  0  0
 29 33  1  6  0  0  0
 29 34  1  0  0  0  0
 29 32  1  0  0  0  0
 31 30  1  0  0  0  0
 31 28  1  1  0  0  0
 32 30  1  0  0  0  0
 34 31  1  0  0  0  0
M  END
>  <MODEL>
9

>  <REMARK>
 VINA RESULT:      -6.3      5.020      8.925
  Name = 
  9 active torsions:
  status: ('A' for Active; 'I' for Inactive)
    1  A    between atoms: C_1  and  C_10
    2  A    between atoms: C_6  and  C_30
    3  A    between atoms: O_11  and  C_12
    4  A    between atoms: O_11  and  C_31
    5  A    between atoms: C_12  and  C_26
    6  A    between atoms: O_15  and  C_16
    7  A    between atoms: O_15  and  C_26
    8  A    between atoms: N_20  and  C_25
    9  A    between atoms: N_33  and  C_34
                            x       y       z     vdW  Elec       q    Type
                         _______ _______ _______ _____ _____    ______ ____

>  <TORSDO>
F 9

$$$$
