=
 OpenBabel10232410453D

 56 60  0  0  1  0  0  0  0  0999 V2000
  190.5770  177.3730  141.2770 C   0  0  1  0  0  3  0  0  0  0  0  0
  189.5260  177.3480  140.2660 N   0  0  0  0  0  2  0  0  0  0  0  0
  188.3820  178.2040  140.3050 C   0  0  0  0  0  0  0  0  0  0  0  0
  188.1800  178.9700  141.2890 O   0  0  0  0  0  0  0  0  0  0  0  0
  187.4010  178.1680  139.1840 C   0  0  0  0  0  2  0  0  0  0  0  0
  187.6500  177.0150  138.3380 N   0  0  0  0  0  2  0  0  0  0  0  0
  186.0380  175.7910  135.9300 C   0  0  0  0  0  0  0  0  0  0  0  0
  185.8760  177.5140  136.3910 S   0  0  0  0  0  0  0  0  0  0  0  0
  187.4350  175.3260  135.7340 C   0  0  0  0  0  2  0  0  0  0  0  0
  188.3350  176.5080  136.0270 C   0  0  1  0  0  3  0  0  0  0  0  0
  187.6000  177.4740  136.9540 C   0  0  2  0  0  3  0  0  0  0  0  0
  189.5380  176.0780  136.5880 O   0  0  0  0  0  1  0  0  0  0  0  0
  185.0460  174.8910  135.9120 C   0  0  0  0  0  3  0  0  0  0  0  0
  183.6530  175.1520  136.1430 N   0  0  0  0  0  2  0  0  0  0  0  0
  182.7620  174.3870  137.0010 C   0  0  0  0  0  2  0  0  0  0  0  0
  182.0220  175.3130  137.9450 C   0  0  0  0  0  2  0  0  0  0  0  0
  182.0730  178.1920  136.6250 C   0  0  0  0  0  1  0  0  0  0  0  0
  182.9980  175.9950  138.8910 C   0  0  1  0  0  3  0  0  0  0  0  0
  183.9210  178.2700  139.3920 O   0  0  0  0  0  0  0  0  0  0  0  0
  182.1930  179.7080  138.5490 C   0  0  0  0  0  2  0  0  0  0  0  0
  182.8550  177.5150  138.8870 C   0  0  1  0  0  0  0  0  0  0  0  0
  181.8310  178.3180  138.1200 C   0  0  2  0  0  3  0  0  0  0  0  0
  183.6370  179.6010  139.0270 C   0  0  0  0  0  2  0  0  0  0  0  0
  182.2170  176.6960  139.9890 C   0  0  0  0  0  2  0  0  0  0  0  0
  190.3710  176.2450  142.2830 C   0  0  0  0  0  2  0  0  0  0  0  0
  191.2260  176.4480  143.4970 C   0  0  0  0  0  0  0  0  0  0  0  0
  191.9200  175.5400  143.9260 O   0  0  0  0  0  0  0  0  0  0  0  0
  191.2200  177.7760  144.1850 C   0  0  0  0  0  2  0  0  0  0  0  0
  189.8020  178.2580  144.4700 C   0  0  0  0  0  2  0  0  0  0  0  0
  186.8810  177.9170  146.5320 C   0  0  0  0  0  3  0  0  0  0  0  0
  189.0850  177.3710  145.4840 C   0  0  1  0  0  3  0  0  0  0  0  0
  189.7120  177.5880  146.8730 C   0  0  0  0  0  2  0  0  0  0  0  0
  188.7500  177.2220  147.9940 C   0  0  0  0  0  2  0  0  0  0  0  0
  187.5840  177.6160  145.4280 C   0  0  0  0  0  0  0  0  0  0  0  0
  187.5240  178.1170  147.8670 C   0  0  0  0  0  2  0  0  0  0  0  0
  187.2050  176.4740  143.3790 O   0  0  0  0  0  0  0  0  0  0  0  0
  185.7390  178.1640  143.8500 O   0  0  0  0  0  1  0  0  0  0  0  0
  186.8470  177.3850  144.1720 C   0  0  0  0  0  0  0  0  0  0  0  0
  191.9240  177.1920  140.6030 C   0  0  0  0  0  2  0  0  0  0  0  0
  191.7500  176.6670  139.1930 C   0  0  0  0  0  2  0  0  0  0  0  0
  193.0820  176.6890  138.4640 C   0  0  0  0  0  2  0  0  0  0  0  0
  192.9890  176.0460  137.0880 C   0  0  0  0  0  2  0  0  0  0  0  0
  194.3520  175.9750  136.4210 C   0  0  0  0  0  2  0  0  0  0  0  0
  194.7650  174.5270  136.2240 C   0  0  0  0  0  2  0  0  0  0  0  0
  195.4770  174.0380  137.4060 N   0  0  0  0  0  0  0  0  0  0  0  0
  196.0320  172.6970  137.1600 C   0  0  2  0  0  3  0  0  0  0  0  0
  195.3580  170.7120  136.2070 O   0  0  0  0  0  0  0  0  0  0  0  0
  195.5280  172.0540  135.8960 C   0  0  0  0  0  2  0  0  0  0  0  0
  195.7220  171.8320  138.2080 O   0  0  0  0  0  0  0  0  0  0  0  0
  195.7650  169.4420  138.1850 C   0  0  0  0  0  1  0  0  0  0  0  0
  195.1570  170.6980  137.5960 C   0  0  2  0  0  3  0  0  0  0  0  0
  196.5150  174.8820  137.6440 O   0  0  0  0  0  0  0  0  0  0  0  0
  198.0300  175.1510  135.8120 C   0  0  0  0  0  1  0  0  0  0  0  0
  197.6120  174.3020  136.9990 C   0  0  1  0  0  3  0  0  0  0  0  0
  198.7680  174.1100  137.9740 C   0  0  0  0  0  2  0  0  0  0  0  0
  198.7020  175.0750  139.1470 C   0  0  0  0  0  1  0  0  0  0  0  0
  1 39  1  6  0  0  0
  1 25  1  0  0  0  0
  2  3  1  0  0  0  0
  2  1  1  0  0  0  0
  3  4  2  0  0  0  0
  5  3  1  0  0  0  0
  6  5  1  0  0  0  0
  7  8  1  0  0  0  0
  8 11  1  0  0  0  0
  9  7  1  0  0  0  0
  9 10  1  0  0  0  0
 10 12  1  1  0  0  0
 10 11  1  0  0  0  0
 11  6  1  1  0  0  0
 13  7  2  0  0  0  0
 13 14  1  0  0  0  0
 14 15  1  0  0  0  0
 15 16  1  0  0  0  0
 18 16  1  6  0  0  0
 18 24  1  0  0  0  0
 20 23  1  0  0  0  0
 21 18  1  0  0  0  0
 21 19  1  0  0  0  0
 21 24  1  1  0  0  0
 22 17  1  6  0  0  0
 22 20  1  0  0  0  0
 22 21  1  0  0  0  0
 23 19  1  0  0  0  0
 25 26  1  0  0  0  0
 26 27  2  0  0  0  0
 26 28  1  0  0  0  0
 28 29  1  0  0  0  0
 30 35  1  0  0  0  0
 31 29  1  6  0  0  0
 31 32  1  0  0  0  0
 32 33  1  0  0  0  0
 34 31  1  0  0  0  0
 34 30  2  0  0  0  0
 35 33  1  0  0  0  0
 36 38  2  0  0  0  0
 37 38  1  0  0  0  0
 38 34  1  0  0  0  0
 40 39  1  0  0  0  0
 41 40  1  0  0  0  0
 42 41  1  0  0  0  0
 43 42  1  0  0  0  0
 44 43  1  0  0  0  0
 44 45  1  0  0  0  0
 45 52  1  0  0  0  0
 46 45  1  1  0  0  0
 46 49  1  0  0  0  0
 47 51  1  0  0  0  0
 48 47  1  0  0  0  0
 48 46  1  0  0  0  0
 51 50  1  1  0  0  0
 51 49  1  0  0  0  0
 54 53  1  6  0  0  0
 54 52  1  0  0  0  0
 54 55  1  0  0  0  0
 55 56  1  0  0  0  0
M  END
>  <MODEL>
1

>  <REMARK>
 VINA RESULT:      -6.9      0.000      0.000
  Name = 
  25 active torsions:
  status: ('A' for Active; 'I' for Inactive)
    1  A    between atoms: C_1  and  C_32
    2  A    between atoms: C_3  and  C_9
    3  A    between atoms: C_3  and  C_25
    4  A    between atoms: C_4  and  C_35
    5  A    between atoms: C_5  and  C_25
    6  A    between atoms: C_5  and  C_35
    7  A    between atoms: C_7  and  N_13
    8  A    between atoms: C_9  and  N_11
    9  A    between atoms: C_9  and  C_15
   10  A    between atoms: C_12  and  C_21
   11  A    between atoms: C_12  and  C_55
   12  A    between atoms: N_13  and  O_51
   13  A    between atoms: N_13  and  C_53
   14  A    between atoms: C_14  and  N_54
   15  A    between atoms: C_14  and  C_56
   16  A    between atoms: C_15  and  C_21
   17  A    between atoms: C_27  and  N_46
   18  A    between atoms: C_28  and  C_44
   19  A    between atoms: C_29  and  C_53
   20  A    between atoms: C_29  and  C_55
   21  A    between atoms: C_32  and  O_51
   22  A    between atoms: C_33  and  C_56
   23  A    between atoms: C_36  and  N_54
   24  A    between atoms: C_42  and  C_47
   25  A    between atoms: N_46  and  C_47
                            x       y       z     vdW  Elec       q    Type
                         _______ _______ _______ _____ _____    ______ ____

>  <TORSDO>
F 25

$$$$
=
 OpenBabel10232410453D

 56 60  0  0  1  0  0  0  0  0999 V2000
  189.6410  175.9400  137.9970 C   0  0  1  0  0  3  0  0  0  0  0  0
  188.3930  176.4390  137.4300 N   0  0  0  0  0  2  0  0  0  0  0  0
  187.2810  175.5950  137.1210 C   0  0  0  0  0  0  0  0  0  0  0  0
  187.3690  174.3400  137.2400 O   0  0  0  0  0  0  0  0  0  0  0  0
  186.0150  176.2030  136.6240 C   0  0  0  0  0  2  0  0  0  0  0  0
  184.8830  175.3710  136.9910 N   0  0  0  0  0  2  0  0  0  0  0  0
  181.8800  176.1490  136.4710 C   0  0  0  0  0  0  0  0  0  0  0  0
  183.1930  176.6880  135.3790 S   0  0  0  0  0  0  0  0  0  0  0  0
  181.8570  174.6900  136.7470 C   0  0  0  0  0  2  0  0  0  0  0  0
  183.0290  174.0850  136.0040 C   0  0  1  0  0  3  0  0  0  0  0  0
  184.0880  175.1630  135.7850 C   0  0  2  0  0  3  0  0  0  0  0  0
  183.5450  172.9980  136.7080 O   0  0  0  0  0  1  0  0  0  0  0  0
  181.0550  176.9530  137.1560 C   0  0  0  0  0  3  0  0  0  0  0  0
  180.9860  178.3840  137.0630 N   0  0  0  0  0  2  0  0  0  0  0  0
  180.8830  179.3170  138.1740 C   0  0  0  0  0  2  0  0  0  0  0  0
  181.7170  178.8330  139.3430 C   0  0  0  0  0  2  0  0  0  0  0  0
  182.5350  178.8950  142.4020 C   0  0  0  0  0  1  0  0  0  0  0  0
  183.1550  179.3080  139.1990 C   0  0  1  0  0  3  0  0  0  0  0  0
  185.2180  179.6440  140.5810 O   0  0  0  0  0  0  0  0  0  0  0  0
  184.8590  178.1140  142.3960 C   0  0  0  0  0  2  0  0  0  0  0  0
  184.0160  178.9450  140.4060 C   0  0  1  0  0  0  0  0  0  0  0  0
  183.5840  178.1380  141.6070 C   0  0  2  0  0  3  0  0  0  0  0  0
  185.6580  179.3040  141.8750 C   0  0  0  0  0  2  0  0  0  0  0  0
  184.0740  178.1000  139.1510 C   0  0  0  0  0  2  0  0  0  0  0  0
  190.7160  175.8550  136.9170 C   0  0  0  0  0  2  0  0  0  0  0  0
  190.9960  174.4280  136.5530 C   0  0  0  0  0  0  0  0  0  0  0  0
  190.9040  173.5460  137.3910 O   0  0  0  0  0  0  0  0  0  0  0  0
  191.3950  174.0940  135.1520 C   0  0  0  0  0  2  0  0  0  0  0  0
  192.9100  174.0920  134.9800 C   0  0  0  0  0  2  0  0  0  0  0  0
  196.0760  172.9760  136.2560 C   0  0  0  0  0  3  0  0  0  0  0  0
  193.5990  173.1470  135.9610 C   0  0  1  0  0  3  0  0  0  0  0  0
  193.6520  171.7370  135.3480 C   0  0  0  0  0  2  0  0  0  0  0  0
  194.7720  170.8990  135.9470 C   0  0  0  0  0  2  0  0  0  0  0  0
  194.9560  173.7070  136.3650 C   0  0  0  0  0  0  0  0  0  0  0  0
  196.0900  171.6060  135.6570 C   0  0  0  0  0  2  0  0  0  0  0  0
  194.8410  175.1370  138.2590 O   0  0  0  0  0  1  0  0  0  0  0  0
  195.3590  176.1620  136.2820 O   0  0  0  0  0  0  0  0  0  0  0  0
  195.0420  175.0250  137.0200 C   0  0  0  0  0  0  0  0  0  0  0  0
  190.1100  176.8880  139.0850 C   0  0  0  0  0  2  0  0  0  0  0  0
  188.9650  177.7530  139.5700 C   0  0  0  0  0  2  0  0  0  0  0  0
  189.2060  178.1690  141.0110 C   0  0  0  0  0  2  0  0  0  0  0  0
  188.5720  177.1980  141.9970 C   0  0  0  0  0  2  0  0  0  0  0  0
  189.5850  176.7150  143.0220 C   0  0  0  0  0  2  0  0  0  0  0  0
  189.8340  177.7930  144.0610 C   0  0  0  0  0  2  0  0  0  0  0  0
  189.8110  177.2160  145.4070 N   0  0  0  0  0  0  0  0  0  0  0  0
  191.1800  176.9890  145.8980 C   0  0  2  0  0  3  0  0  0  0  0  0
  192.5350  175.2050  146.4340 O   0  0  0  0  0  0  0  0  0  0  0  0
  191.8140  175.7300  145.3700 C   0  0  0  0  0  2  0  0  0  0  0  0
  191.1990  176.9010  147.2890 O   0  0  0  0  0  0  0  0  0  0  0  0
  192.9120  175.9600  148.6660 C   0  0  0  0  0  1  0  0  0  0  0  0
  191.8910  175.7100  147.5740 C   0  0  2  0  0  3  0  0  0  0  0  0
  189.2140  178.1140  146.2320 O   0  0  0  0  0  0  0  0  0  0  0  0
  187.7350  177.8680  148.0970 C   0  0  0  0  0  1  0  0  0  0  0  0
  188.0360  177.4920  146.6570 C   0  0  1  0  0  3  0  0  0  0  0  0
  186.8750  177.8550  145.7380 C   0  0  0  0  0  2  0  0  0  0  0  0
  185.7020  178.4540  146.4980 C   0  0  0  0  0  1  0  0  0  0  0  0
  1 25  1  6  0  0  0
  1 39  1  0  0  0  0
  2  1  1  0  0  0  0
  3  4  2  0  0  0  0
  3  2  1  0  0  0  0
  5  6  1  0  0  0  0
  5  3  1  0  0  0  0
  7  9  1  0  0  0  0
  7 13  2  0  0  0  0
  8 11  1  0  0  0  0
  8  7  1  0  0  0  0
 10 12  1  1  0  0  0
 10  9  1  0  0  0  0
 11 10  1  0  0  0  0
 11  6  1  1  0  0  0
 14 13  1  0  0  0  0
 14 15  1  0  0  0  0
 15 16  1  0  0  0  0
 18 16  1  1  0  0  0
 18 21  1  0  0  0  0
 19 23  1  0  0  0  0
 21 24  1  6  0  0  0
 21 19  1  0  0  0  0
 21 22  1  0  0  0  0
 22 20  1  0  0  0  0
 22 17  1  1  0  0  0
 23 20  1  0  0  0  0
 24 18  1  0  0  0  0
 26 25  1  0  0  0  0
 26 27  2  0  0  0  0
 28 26  1  0  0  0  0
 29 28  1  0  0  0  0
 30 34  2  0  0  0  0
 31 29  1  6  0  0  0
 31 34  1  0  0  0  0
 32 33  1  0  0  0  0
 32 31  1  0  0  0  0
 34 38  1  0  0  0  0
 35 33  1  0  0  0  0
 35 30  1  0  0  0  0
 37 38  2  0  0  0  0
 38 36  1  0  0  0  0
 39 40  1  0  0  0  0
 40 41  1  0  0  0  0
 41 42  1  0  0  0  0
 42 43  1  0  0  0  0
 43 44  1  0  0  0  0
 44 45  1  0  0  0  0
 45 52  1  0  0  0  0
 46 45  1  6  0  0  0
 46 49  1  0  0  0  0
 47 51  1  0  0  0  0
 48 46  1  0  0  0  0
 48 47  1  0  0  0  0
 49 51  1  0  0  0  0
 51 50  1  1  0  0  0
 52 54  1  0  0  0  0
 54 53  1  1  0  0  0
 55 56  1  0  0  0  0
 55 54  1  0  0  0  0
M  END
>  <MODEL>
2

>  <REMARK>
 VINA RESULT:      -6.8      2.362      8.986
  Name = 
  25 active torsions:
  status: ('A' for Active; 'I' for Inactive)
    1  A    between atoms: C_1  and  C_32
    2  A    between atoms: C_3  and  C_9
    3  A    between atoms: C_3  and  C_25
    4  A    between atoms: C_4  and  C_35
    5  A    between atoms: C_5  and  C_25
    6  A    between atoms: C_5  and  C_35
    7  A    between atoms: C_7  and  N_13
    8  A    between atoms: C_9  and  N_11
    9  A    between atoms: C_9  and  C_15
   10  A    between atoms: C_12  and  C_21
   11  A    between atoms: C_12  and  C_55
   12  A    between atoms: N_13  and  O_51
   13  A    between atoms: N_13  and  C_53
   14  A    between atoms: C_14  and  N_54
   15  A    between atoms: C_14  and  C_56
   16  A    between atoms: C_15  and  C_21
   17  A    between atoms: C_27  and  N_46
   18  A    between atoms: C_28  and  C_44
   19  A    between atoms: C_29  and  C_53
   20  A    between atoms: C_29  and  C_55
   21  A    between atoms: C_32  and  O_51
   22  A    between atoms: C_33  and  C_56
   23  A    between atoms: C_36  and  N_54
   24  A    between atoms: C_42  and  C_47
   25  A    between atoms: N_46  and  C_47
                            x       y       z     vdW  Elec       q    Type
                         _______ _______ _______ _____ _____    ______ ____

>  <TORSDO>
F 25

$$$$
=
 OpenBabel10232410453D

 56 60  0  0  1  0  0  0  0  0999 V2000
  191.3850  176.1160  138.5130 C   0  0  1  0  0  3  0  0  0  0  0  0
  190.2120  176.2140  137.6510 N   0  0  0  0  0  2  0  0  0  0  0  0
  189.4650  175.0760  137.2130 C   0  0  0  0  0  0  0  0  0  0  0  0
  189.8540  173.9050  137.4820 O   0  0  0  0  0  0  0  0  0  0  0  0
  188.2310  175.2770  136.4030 C   0  0  0  0  0  2  0  0  0  0  0  0
  187.2250  174.2970  136.7720 N   0  0  0  0  0  2  0  0  0  0  0  0
  184.3130  173.2190  136.2730 C   0  0  0  0  0  0  0  0  0  0  0  0
  185.0170  174.5250  135.2690 S   0  0  0  0  0  0  0  0  0  0  0  0
  185.1570  172.0030  136.3960 C   0  0  0  0  0  2  0  0  0  0  0  0
  186.4280  172.2720  135.6190 C   0  0  1  0  0  3  0  0  0  0  0  0
  186.6490  173.7800  135.5350 C   0  0  2  0  0  3  0  0  0  0  0  0
  187.5110  171.6290  136.2170 O   0  0  0  0  0  1  0  0  0  0  0  0
  183.2050  173.3200  137.0200 C   0  0  0  0  0  3  0  0  0  0  0  0
  182.3110  174.4410  137.0740 N   0  0  0  0  0  2  0  0  0  0  0  0
  180.9980  174.4700  137.7010 C   0  0  0  0  0  2  0  0  0  0  0  0
  180.7410  175.8320  138.3130 C   0  0  0  0  0  2  0  0  0  0  0  0
  182.6920  178.0210  137.1150 C   0  0  0  0  0  1  0  0  0  0  0  0
  181.6370  176.0460  139.5230 C   0  0  1  0  0  3  0  0  0  0  0  0
  183.4700  177.5570  140.3170 O   0  0  0  0  0  0  0  0  0  0  0  0
  183.0960  179.5320  139.0030 C   0  0  0  0  0  2  0  0  0  0  0  0
  182.3460  177.3970  139.4970 C   0  0  1  0  0  0  0  0  0  0  0  0
  182.1690  178.4840  138.4630 C   0  0  2  0  0  3  0  0  0  0  0  0
  184.0620  178.7660  139.9010 C   0  0  0  0  0  2  0  0  0  0  0  0
  181.1000  177.2110  140.3370 C   0  0  0  0  0  2  0  0  0  0  0  0
  192.6380  176.5370  137.7520 C   0  0  0  0  0  2  0  0  0  0  0  0
  192.9630  175.5510  136.6700 C   0  0  0  0  0  0  0  0  0  0  0  0
  192.9030  175.8770  135.4960 O   0  0  0  0  0  0  0  0  0  0  0  0
  193.3570  174.1580  137.0420 C   0  0  0  0  0  2  0  0  0  0  0  0
  194.7580  173.8140  136.5450 C   0  0  0  0  0  2  0  0  0  0  0  0
  197.9090  172.3940  137.5190 C   0  0  0  0  0  3  0  0  0  0  0  0
  195.4380  172.7650  137.4200 C   0  0  1  0  0  3  0  0  0  0  0  0
  195.3360  171.3930  136.7310 C   0  0  0  0  0  2  0  0  0  0  0  0
  196.4270  170.4410  137.1990 C   0  0  0  0  0  2  0  0  0  0  0  0
  196.8600  173.1980  137.7500 C   0  0  0  0  0  0  0  0  0  0  0  0
  197.7720  171.0640  136.8490 C   0  0  0  0  0  2  0  0  0  0  0  0
  196.3780  174.7870  139.4500 O   0  0  0  0  0  1  0  0  0  0  0  0
  198.1210  175.3200  138.0710 O   0  0  0  0  0  0  0  0  0  0  0  0
  197.0960  174.4660  138.4660 C   0  0  0  0  0  0  0  0  0  0  0  0
  191.2040  177.0320  139.7090 C   0  0  0  0  0  2  0  0  0  0  0  0
  189.7450  177.3990  139.8850 C   0  0  0  0  0  2  0  0  0  0  0  0
  189.4410  177.6150  141.3580 C   0  0  0  0  0  2  0  0  0  0  0  0
  189.4070  176.3030  142.1300 C   0  0  0  0  0  2  0  0  0  0  0  0
  189.3060  176.5480  143.6260 C   0  0  0  0  0  2  0  0  0  0  0  0
  188.8470  177.9690  143.8950 C   0  0  0  0  0  2  0  0  0  0  0  0
  187.9560  178.0030  145.0560 N   0  0  0  0  0  0  0  0  0  0  0  0
  186.5740  177.6880  144.6610 C   0  0  2  0  0  3  0  0  0  0  0  0
  184.9670  178.5190  143.2350 O   0  0  0  0  0  0  0  0  0  0  0  0
  186.2620  178.0200  143.2260 C   0  0  0  0  0  2  0  0  0  0  0  0
  185.6600  178.3870  145.4470 O   0  0  0  0  0  0  0  0  0  0  0  0
  183.3580  178.8200  144.9710 C   0  0  0  0  0  1  0  0  0  0  0  0
  184.7950  179.0190  144.5350 C   0  0  2  0  0  3  0  0  0  0  0  0
  188.3710  177.0450  145.9250 O   0  0  0  0  0  0  0  0  0  0  0  0
  188.3640  178.1940  148.0240 C   0  0  0  0  0  1  0  0  0  0  0  0
  189.1880  177.7130  146.8420 C   0  0  1  0  0  3  0  0  0  0  0  0
  190.3320  176.8150  147.2970 C   0  0  0  0  0  2  0  0  0  0  0  0
  191.5280  176.8840  146.3610 C   0  0  0  0  0  1  0  0  0  0  0  0
  1 25  1  6  0  0  0
  1 39  1  0  0  0  0
  2  1  1  0  0  0  0
  3  4  2  0  0  0  0
  3  2  1  0  0  0  0
  5  6  1  0  0  0  0
  5  3  1  0  0  0  0
  7  9  1  0  0  0  0
  7 13  2  0  0  0  0
  8 11  1  0  0  0  0
  8  7  1  0  0  0  0
 10 12  1  1  0  0  0
 10  9  1  0  0  0  0
 11 10  1  0  0  0  0
 11  6  1  1  0  0  0
 13 14  1  0  0  0  0
 14 15  1  0  0  0  0
 15 16  1  0  0  0  0
 18 16  1  6  0  0  0
 18 24  1  0  0  0  0
 20 23  1  0  0  0  0
 21 18  1  0  0  0  0
 21 19  1  0  0  0  0
 21 24  1  1  0  0  0
 22 17  1  6  0  0  0
 22 20  1  0  0  0  0
 22 21  1  0  0  0  0
 23 19  1  0  0  0  0
 26 28  1  0  0  0  0
 26 25  1  0  0  0  0
 27 26  2  0  0  0  0
 29 28  1  0  0  0  0
 30 34  2  0  0  0  0
 31 29  1  6  0  0  0
 31 34  1  0  0  0  0
 32 33  1  0  0  0  0
 32 31  1  0  0  0  0
 34 38  1  0  0  0  0
 35 33  1  0  0  0  0
 35 30  1  0  0  0  0
 37 38  2  0  0  0  0
 38 36  1  0  0  0  0
 39 40  1  0  0  0  0
 40 41  1  0  0  0  0
 41 42  1  0  0  0  0
 42 43  1  0  0  0  0
 43 44  1  0  0  0  0
 44 45  1  0  0  0  0
 45 52  1  0  0  0  0
 46 45  1  1  0  0  0
 46 49  1  0  0  0  0
 47 51  1  0  0  0  0
 48 47  1  0  0  0  0
 48 46  1  0  0  0  0
 51 50  1  1  0  0  0
 51 49  1  0  0  0  0
 52 54  1  0  0  0  0
 54 55  1  0  0  0  0
 54 53  1  1  0  0  0
 56 55  1  0  0  0  0
M  END
>  <MODEL>
3

>  <REMARK>
 VINA RESULT:      -6.7      2.070      9.156
  Name = 
  25 active torsions:
  status: ('A' for Active; 'I' for Inactive)
    1  A    between atoms: C_1  and  C_32
    2  A    between atoms: C_3  and  C_9
    3  A    between atoms: C_3  and  C_25
    4  A    between atoms: C_4  and  C_35
    5  A    between atoms: C_5  and  C_25
    6  A    between atoms: C_5  and  C_35
    7  A    between atoms: C_7  and  N_13
    8  A    between atoms: C_9  and  N_11
    9  A    between atoms: C_9  and  C_15
   10  A    between atoms: C_12  and  C_21
   11  A    between atoms: C_12  and  C_55
   12  A    between atoms: N_13  and  O_51
   13  A    between atoms: N_13  and  C_53
   14  A    between atoms: C_14  and  N_54
   15  A    between atoms: C_14  and  C_56
   16  A    between atoms: C_15  and  C_21
   17  A    between atoms: C_27  and  N_46
   18  A    between atoms: C_28  and  C_44
   19  A    between atoms: C_29  and  C_53
   20  A    between atoms: C_29  and  C_55
   21  A    between atoms: C_32  and  O_51
   22  A    between atoms: C_33  and  C_56
   23  A    between atoms: C_36  and  N_54
   24  A    between atoms: C_42  and  C_47
   25  A    between atoms: N_46  and  C_47
                            x       y       z     vdW  Elec       q    Type
                         _______ _______ _______ _____ _____    ______ ____

>  <TORSDO>
F 25

$$$$
=
 OpenBabel10232410453D

 56 60  0  0  1  0  0  0  0  0999 V2000
  187.5950  178.6260  140.9430 C   0  0  1  0  0  3  0  0  0  0  0  0
  187.0370  178.3800  139.6180 N   0  0  0  0  0  2  0  0  0  0  0  0
  187.7680  178.5980  138.4080 C   0  0  0  0  0  0  0  0  0  0  0  0
  188.9200  179.1150  138.4330 O   0  0  0  0  0  0  0  0  0  0  0  0
  187.1470  178.2390  137.1020 C   0  0  0  0  0  2  0  0  0  0  0  0
  188.0460  177.3940  136.3360 N   0  0  0  0  0  2  0  0  0  0  0  0
  189.7510  174.8360  135.6700 C   0  0  0  0  0  0  0  0  0  0  0  0
  189.3930  175.3140  137.3590 S   0  0  0  0  0  0  0  0  0  0  0  0
  188.5640  174.7490  134.7820 C   0  0  0  0  0  2  0  0  0  0  0  0
  187.3620  175.1400  135.6170 C   0  0  1  0  0  3  0  0  0  0  0  0
  187.8280  176.0190  136.7750 C   0  0  2  0  0  3  0  0  0  0  0  0
  186.4130  175.7920  134.8300 O   0  0  0  0  0  1  0  0  0  0  0  0
  190.9730  174.7170  135.1350 C   0  0  0  0  0  3  0  0  0  0  0  0
  192.2240  174.8340  135.8290 N   0  0  0  0  0  2  0  0  0  0  0  0
  192.8720  176.0710  136.2370 C   0  0  0  0  0  2  0  0  0  0  0  0
  194.2250  175.7750  136.8500 C   0  0  0  0  0  2  0  0  0  0  0  0
  196.0100  173.7410  135.2040 C   0  0  0  0  0  1  0  0  0  0  0  0
  194.1340  174.5710  137.7750 C   0  0  1  0  0  3  0  0  0  0  0  0
  195.1260  172.2880  138.0650 O   0  0  0  0  0  0  0  0  0  0  0  0
  197.2340  172.5120  136.9370 C   0  0  0  0  0  2  0  0  0  0  0  0
  195.2900  173.5920  137.5790 C   0  0  1  0  0  0  0  0  0  0  0  0
  196.4690  173.7690  136.6520 C   0  0  2  0  0  3  0  0  0  0  0  0
  196.2020  171.5560  137.5250 C   0  0  0  0  0  2  0  0  0  0  0  0
  195.3200  174.5830  138.7240 C   0  0  0  0  0  2  0  0  0  0  0  0
  186.7070  178.0020  142.0150 C   0  0  0  0  0  2  0  0  0  0  0  0
  185.5410  178.8910  142.3280 C   0  0  0  0  0  0  0  0  0  0  0  0
  185.7100  180.0790  142.5480 O   0  0  0  0  0  0  0  0  0  0  0  0
  184.1650  178.3080  142.3740 C   0  0  0  0  0  2  0  0  0  0  0  0
  183.6280  178.0150  140.9770 C   0  0  0  0  0  2  0  0  0  0  0  0
  180.7400  179.5190  139.4630 C   0  0  0  0  0  3  0  0  0  0  0  0
  182.1030  178.0240  140.9340 C   0  0  1  0  0  3  0  0  0  0  0  0
  181.5710  178.8410  142.1250 C   0  0  0  0  0  2  0  0  0  0  0  0
  180.1720  179.3800  141.8650 C   0  0  0  0  0  2  0  0  0  0  0  0
  181.6190  178.5100  139.5750 C   0  0  0  0  0  0  0  0  0  0  0  0
  180.2420  180.2890  140.6440 C   0  0  0  0  0  2  0  0  0  0  0  0
  182.5200  178.3930  137.3790 O   0  0  0  0  0  0  0  0  0  0  0  0
  181.8160  176.4050  138.2620 O   0  0  0  0  0  1  0  0  0  0  0  0
  182.0050  177.7810  138.3530 C   0  0  0  0  0  0  0  0  0  0  0  0
  188.9770  178.0070  141.0260 C   0  0  0  0  0  2  0  0  0  0  0  0
  188.9310  176.6960  141.7840 C   0  0  0  0  0  2  0  0  0  0  0  0
  190.2020  176.5250  142.5990 C   0  0  0  0  0  2  0  0  0  0  0  0
  191.1620  177.6910  142.4070 C   0  0  0  0  0  2  0  0  0  0  0  0
  191.6220  178.2490  143.7430 C   0  0  0  0  0  2  0  0  0  0  0  0
  190.4260  178.5340  144.6330 C   0  0  0  0  0  2  0  0  0  0  0  0
  190.2730  177.4740  145.6320 N   0  0  0  0  0  0  0  0  0  0  0  0
  191.5870  176.9860  146.0770 C   0  0  2  0  0  3  0  0  0  0  0  0
  192.5330  175.0050  146.7760 O   0  0  0  0  0  0  0  0  0  0  0  0
  191.8680  175.5580  145.6910 C   0  0  0  0  0  2  0  0  0  0  0  0
  191.7000  177.0600  147.4650 O   0  0  0  0  0  0  0  0  0  0  0  0
  193.2560  175.9050  148.8650 C   0  0  0  0  0  1  0  0  0  0  0  0
  192.1200  175.7800  147.8700 C   0  0  2  0  0  3  0  0  0  0  0  0
  189.6390  178.0070  146.7080 O   0  0  0  0  0  0  0  0  0  0  0  0
  187.6400  177.7920  148.0060 C   0  0  0  0  0  1  0  0  0  0  0  0
  188.4290  177.3120  146.8000 C   0  0  1  0  0  3  0  0  0  0  0  0
  187.6210  177.4660  145.5160 C   0  0  0  0  0  2  0  0  0  0  0  0
  186.1370  177.6580  145.7870 C   0  0  0  0  0  1  0  0  0  0  0  0
  1 39  1  6  0  0  0
  1 25  1  0  0  0  0
  2  1  1  0  0  0  0
  3  4  2  0  0  0  0
  3  2  1  0  0  0  0
  5  3  1  0  0  0  0
  6  5  1  0  0  0  0
  7  8  1  0  0  0  0
  9 10  1  0  0  0  0
  9  7  1  0  0  0  0
 10 12  1  6  0  0  0
 10 11  1  0  0  0  0
 11  6  1  6  0  0  0
 11  8  1  0  0  0  0
 13  7  2  0  0  0  0
 13 14  1  0  0  0  0
 14 15  1  0  0  0  0
 15 16  1  0  0  0  0
 18 16  1  6  0  0  0
 18 24  1  0  0  0  0
 20 23  1  0  0  0  0
 21 18  1  0  0  0  0
 21 19  1  0  0  0  0
 21 24  1  1  0  0  0
 22 17  1  6  0  0  0
 22 20  1  0  0  0  0
 22 21  1  0  0  0  0
 23 19  1  0  0  0  0
 25 26  1  0  0  0  0
 26 28  1  0  0  0  0
 26 27  2  0  0  0  0
 29 28  1  0  0  0  0
 30 34  2  0  0  0  0
 30 35  1  0  0  0  0
 31 29  1  6  0  0  0
 31 32  1  0  0  0  0
 33 32  1  0  0  0  0
 34 31  1  0  0  0  0
 35 33  1  0  0  0  0
 36 38  2  0  0  0  0
 37 38  1  0  0  0  0
 38 34  1  0  0  0  0
 39 40  1  0  0  0  0
 40 41  1  0  0  0  0
 42 41  1  0  0  0  0
 42 43  1  0  0  0  0
 43 44  1  0  0  0  0
 44 45  1  0  0  0  0
 45 52  1  0  0  0  0
 46 45  1  1  0  0  0
 46 49  1  0  0  0  0
 47 51  1  0  0  0  0
 48 46  1  0  0  0  0
 48 47  1  0  0  0  0
 49 51  1  0  0  0  0
 51 50  1  1  0  0  0
 52 54  1  0  0  0  0
 54 53  1  1  0  0  0
 55 56  1  0  0  0  0
 55 54  1  0  0  0  0
M  END
>  <MODEL>
4

>  <REMARK>
 VINA RESULT:      -6.6      2.370      9.598
  Name = 
  25 active torsions:
  status: ('A' for Active; 'I' for Inactive)
    1  A    between atoms: C_1  and  C_32
    2  A    between atoms: C_3  and  C_9
    3  A    between atoms: C_3  and  C_25
    4  A    between atoms: C_4  and  C_35
    5  A    between atoms: C_5  and  C_25
    6  A    between atoms: C_5  and  C_35
    7  A    between atoms: C_7  and  N_13
    8  A    between atoms: C_9  and  N_11
    9  A    between atoms: C_9  and  C_15
   10  A    between atoms: C_12  and  C_21
   11  A    between atoms: C_12  and  C_55
   12  A    between atoms: N_13  and  O_51
   13  A    between atoms: N_13  and  C_53
   14  A    between atoms: C_14  and  N_54
   15  A    between atoms: C_14  and  C_56
   16  A    between atoms: C_15  and  C_21
   17  A    between atoms: C_27  and  N_46
   18  A    between atoms: C_28  and  C_44
   19  A    between atoms: C_29  and  C_53
   20  A    between atoms: C_29  and  C_55
   21  A    between atoms: C_32  and  O_51
   22  A    between atoms: C_33  and  C_56
   23  A    between atoms: C_36  and  N_54
   24  A    between atoms: C_42  and  C_47
   25  A    between atoms: N_46  and  C_47
                            x       y       z     vdW  Elec       q    Type
                         _______ _______ _______ _____ _____    ______ ____

>  <TORSDO>
F 25

$$$$
=
 OpenBabel10232410453D

 56 60  0  0  1  0  0  0  0  0999 V2000
  187.6980  177.8290  138.1100 C   0  0  1  0  0  3  0  0  0  0  0  0
  186.8250  176.9260  137.3680 N   0  0  0  0  0  2  0  0  0  0  0  0
  185.4060  177.0880  137.3030 C   0  0  0  0  0  0  0  0  0  0  0  0
  184.8260  177.9840  137.9780 O   0  0  0  0  0  0  0  0  0  0  0  0
  184.6010  176.1680  136.4520 C   0  0  0  0  0  2  0  0  0  0  0  0
  183.5270  175.5770  137.2300 N   0  0  0  0  0  2  0  0  0  0  0  0
  180.6730  176.5110  138.1660 C   0  0  0  0  0  0  0  0  0  0  0  0
  181.5080  177.2840  136.7830 S   0  0  0  0  0  0  0  0  0  0  0  0
  180.5890  175.0300  138.0960 C   0  0  0  0  0  2  0  0  0  0  0  0
  181.2980  174.6110  136.8250 C   0  0  1  0  0  3  0  0  0  0  0  0
  182.3050  175.6910  136.4390 C   0  0  2  0  0  3  0  0  0  0  0  0
  181.9170  173.3730  136.9970 O   0  0  0  0  0  1  0  0  0  0  0  0
  180.2820  177.1320  139.2870 C   0  0  0  0  0  3  0  0  0  0  0  0
  180.3500  178.5420  139.5510 N   0  0  0  0  0  2  0  0  0  0  0  0
  181.1500  179.1900  140.5780 C   0  0  0  0  0  2  0  0  0  0  0  0
  182.1320  178.2030  141.1760 C   0  0  0  0  0  2  0  0  0  0  0  0
  181.7670  179.1610  144.1730 C   0  0  0  0  0  1  0  0  0  0  0  0
  183.4860  178.8650  141.3850 C   0  0  1  0  0  3  0  0  0  0  0  0
  184.8710  179.8790  143.2100 O   0  0  0  0  0  0  0  0  0  0  0  0
  183.9810  178.8090  145.1670 C   0  0  0  0  0  2  0  0  0  0  0  0
  183.8690  178.9650  142.8590 C   0  0  1  0  0  0  0  0  0  0  0  0
  183.0850  178.4200  144.0300 C   0  0  2  0  0  3  0  0  0  0  0  0
  184.8290  179.9500  144.6170 C   0  0  0  0  0  2  0  0  0  0  0  0
  184.4410  177.8570  142.0000 C   0  0  0  0  0  2  0  0  0  0  0  0
  188.0810  177.2110  139.4510 C   0  0  0  0  0  2  0  0  0  0  0  0
  187.9250  178.2050  140.5620 C   0  0  0  0  0  0  0  0  0  0  0  0
  187.1490  179.1400  140.4520 O   0  0  0  0  0  0  0  0  0  0  0  0
  188.7350  178.0450  141.8090 C   0  0  0  0  0  2  0  0  0  0  0  0
  187.9760  177.2680  142.8800 C   0  0  0  0  0  2  0  0  0  0  0  0
  190.1770  177.6420  145.6930 C   0  0  0  0  0  3  0  0  0  0  0  0
  188.9160  176.5390  143.8370 C   0  0  1  0  0  3  0  0  0  0  0  0
  190.2730  176.3270  143.1430 C   0  0  0  0  0  2  0  0  0  0  0  0
  191.4020  176.1510  144.1480 C   0  0  0  0  0  2  0  0  0  0  0  0
  188.9970  177.2840  145.1620 C   0  0  0  0  0  0  0  0  0  0  0  0
  191.4780  177.4170  144.9920 C   0  0  0  0  0  2  0  0  0  0  0  0
  187.7810  178.3110  146.9250 O   0  0  0  0  0  1  0  0  0  0  0  0
  186.6000  176.8260  145.6510 O   0  0  0  0  0  0  0  0  0  0  0  0
  187.7770  177.5020  145.9600 C   0  0  0  0  0  0  0  0  0  0  0  0
  188.9590  178.0780  137.3040 C   0  0  0  0  0  2  0  0  0  0  0  0
  188.8970  177.3550  135.9750 C   0  0  0  0  0  2  0  0  0  0  0  0
  190.2080  177.5300  135.2290 C   0  0  0  0  0  2  0  0  0  0  0  0
  190.5250  176.3310  134.3460 C   0  0  0  0  0  2  0  0  0  0  0  0
  191.9130  175.7860  134.6360 C   0  0  0  0  0  2  0  0  0  0  0  0
  191.8140  174.4240  135.2990 C   0  0  0  0  0  2  0  0  0  0  0  0
  191.1940  174.5450  136.6190 N   0  0  0  0  0  0  0  0  0  0  0  0
  190.1300  173.5430  136.7880 C   0  0  2  0  0  3  0  0  0  0  0  0
  188.4280  172.6230  135.5370 O   0  0  0  0  0  0  0  0  0  0  0  0
  189.8070  172.7830  135.5290 C   0  0  0  0  0  2  0  0  0  0  0  0
  188.9470  174.1420  137.2160 O   0  0  0  0  0  0  0  0  0  0  0  0
  186.7340  173.2460  137.0980 C   0  0  0  0  0  1  0  0  0  0  0  0
  187.9590  173.6870  136.3230 C   0  0  2  0  0  3  0  0  0  0  0  0
  192.1510  174.2990  137.5510 O   0  0  0  0  0  0  0  0  0  0  0  0
  192.0090  176.4350  138.6200 C   0  0  0  0  0  1  0  0  0  0  0  0
  192.8170  175.5170  137.7200 C   0  0  1  0  0  3  0  0  0  0  0  0
  194.2170  175.2910  138.2780 C   0  0  0  0  0  2  0  0  0  0  0  0
  194.6980  173.8630  138.0710 C   0  0  0  0  0  1  0  0  0  0  0  0
  1 39  1  6  0  0  0
  1 25  1  0  0  0  0
  2  1  1  0  0  0  0
  3  2  1  0  0  0  0
  3  4  2  0  0  0  0
  5  6  1  0  0  0  0
  5  3  1  0  0  0  0
  7 13  2  0  0  0  0
  8  7  1  0  0  0  0
  9  7  1  0  0  0  0
 10 12  1  1  0  0  0
 10  9  1  0  0  0  0
 11  8  1  0  0  0  0
 11 10  1  0  0  0  0
 11  6  1  1  0  0  0
 13 14  1  0  0  0  0
 14 15  1  0  0  0  0
 15 16  1  0  0  0  0
 18 16  1  1  0  0  0
 18 24  1  0  0  0  0
 18 21  1  0  0  0  0
 19 23  1  0  0  0  0
 21 24  1  6  0  0  0
 21 19  1  0  0  0  0
 21 22  1  0  0  0  0
 22 17  1  1  0  0  0
 22 20  1  0  0  0  0
 23 20  1  0  0  0  0
 25 26  1  0  0  0  0
 26 28  1  0  0  0  0
 27 26  2  0  0  0  0
 28 29  1  0  0  0  0
 31 29  1  6  0  0  0
 31 34  1  0  0  0  0
 32 31  1  0  0  0  0
 32 33  1  0  0  0  0
 33 35  1  0  0  0  0
 34 30  2  0  0  0  0
 34 38  1  0  0  0  0
 35 30  1  0  0  0  0
 37 38  2  0  0  0  0
 38 36  1  0  0  0  0
 40 39  1  0  0  0  0
 41 40  1  0  0  0  0
 42 43  1  0  0  0  0
 42 41  1  0  0  0  0
 43 44  1  0  0  0  0
 44 45  1  0  0  0  0
 45 52  1  0  0  0  0
 46 45  1  6  0  0  0
 46 49  1  0  0  0  0
 47 51  1  0  0  0  0
 48 47  1  0  0  0  0
 48 46  1  0  0  0  0
 51 50  1  1  0  0  0
 51 49  1  0  0  0  0
 52 54  1  0  0  0  0
 54 55  1  0  0  0  0
 54 53  1  1  0  0  0
 56 55  1  0  0  0  0
M  END
>  <MODEL>
5

>  <REMARK>
 VINA RESULT:      -6.6      2.590      5.219
  Name = 
  25 active torsions:
  status: ('A' for Active; 'I' for Inactive)
    1  A    between atoms: C_1  and  C_32
    2  A    between atoms: C_3  and  C_9
    3  A    between atoms: C_3  and  C_25
    4  A    between atoms: C_4  and  C_35
    5  A    between atoms: C_5  and  C_25
    6  A    between atoms: C_5  and  C_35
    7  A    between atoms: C_7  and  N_13
    8  A    between atoms: C_9  and  N_11
    9  A    between atoms: C_9  and  C_15
   10  A    between atoms: C_12  and  C_21
   11  A    between atoms: C_12  and  C_55
   12  A    between atoms: N_13  and  O_51
   13  A    between atoms: N_13  and  C_53
   14  A    between atoms: C_14  and  N_54
   15  A    between atoms: C_14  and  C_56
   16  A    between atoms: C_15  and  C_21
   17  A    between atoms: C_27  and  N_46
   18  A    between atoms: C_28  and  C_44
   19  A    between atoms: C_29  and  C_53
   20  A    between atoms: C_29  and  C_55
   21  A    between atoms: C_32  and  O_51
   22  A    between atoms: C_33  and  C_56
   23  A    between atoms: C_36  and  N_54
   24  A    between atoms: C_42  and  C_47
   25  A    between atoms: N_46  and  C_47
                            x       y       z     vdW  Elec       q    Type
                         _______ _______ _______ _____ _____    ______ ____

>  <TORSDO>
F 25

$$$$
=
 OpenBabel10232410453D

 56 60  0  0  1  0  0  0  0  0999 V2000
  190.8680  177.5770  139.6290 C   0  0  1  0  0  3  0  0  0  0  0  0
  189.5460  177.1580  139.1780 N   0  0  0  0  0  2  0  0  0  0  0  0
  188.6350  178.0320  138.5050 C   0  0  0  0  0  0  0  0  0  0  0  0
  188.9070  179.2570  138.3540 O   0  0  0  0  0  0  0  0  0  0  0  0
  187.3390  177.4960  138.0050 C   0  0  0  0  0  2  0  0  0  0  0  0
  187.4680  176.0840  137.6930 N   0  0  0  0  0  2  0  0  0  0  0  0
  185.1670  174.8520  135.9370 C   0  0  0  0  0  0  0  0  0  0  0  0
  185.7840  176.5090  135.6500 S   0  0  0  0  0  0  0  0  0  0  0  0
  186.2120  173.7990  135.9950 C   0  0  0  0  0  2  0  0  0  0  0  0
  187.5450  174.4940  135.8140 C   0  0  1  0  0  3  0  0  0  0  0  0
  187.4060  175.9530  136.2410 C   0  0  2  0  0  3  0  0  0  0  0  0
  188.5400  173.8410  136.5420 O   0  0  0  0  0  1  0  0  0  0  0  0
  183.9050  174.5330  136.2520 C   0  0  0  0  0  3  0  0  0  0  0  0
  182.7860  175.4310  136.3080 N   0  0  0  0  0  2  0  0  0  0  0  0
  181.9070  175.6440  137.4480 C   0  0  0  0  0  2  0  0  0  0  0  0
  182.4770  176.7160  138.3540 C   0  0  0  0  0  2  0  0  0  0  0  0
  182.4630  179.8060  139.0530 C   0  0  0  0  0  1  0  0  0  0  0  0
  181.8240  176.6510  139.7260 C   0  0  1  0  0  3  0  0  0  0  0  0
  180.8940  178.1690  141.4900 O   0  0  0  0  0  0  0  0  0  0  0  0
  180.3290  180.1260  140.2180 C   0  0  0  0  0  2  0  0  0  0  0  0
  181.1750  177.9720  140.1310 C   0  0  1  0  0  0  0  0  0  0  0  0
  181.0800  179.2220  139.2880 C   0  0  2  0  0  3  0  0  0  0  0  0
  180.5610  179.5330  141.6040 C   0  0  0  0  0  2  0  0  0  0  0  0
  180.3250  176.8500  139.5720 C   0  0  0  0  0  2  0  0  0  0  0  0
  190.8750  177.7690  141.1430 C   0  0  0  0  0  2  0  0  0  0  0  0
  190.0530  176.7120  141.8190 C   0  0  0  0  0  0  0  0  0  0  0  0
  190.5170  175.6020  142.0220 O   0  0  0  0  0  0  0  0  0  0  0  0
  188.6540  177.0290  142.2390 C   0  0  0  0  0  2  0  0  0  0  0  0
  188.3370  176.4650  143.6200 C   0  0  0  0  0  2  0  0  0  0  0  0
  189.2880  177.3210  146.9760 C   0  0  0  0  0  3  0  0  0  0  0  0
  188.2980  177.5520  144.6910 C   0  0  1  0  0  3  0  0  0  0  0  0
  186.9180  177.5380  145.3710 C   0  0  0  0  0  2  0  0  0  0  0  0
  186.9660  178.1450  146.7660 C   0  0  0  0  0  2  0  0  0  0  0  0
  189.4710  177.3890  145.6480 C   0  0  0  0  0  0  0  0  0  0  0  0
  187.9300  177.3140  147.6030 C   0  0  0  0  0  2  0  0  0  0  0  0
  191.2720  178.4710  144.5390 O   0  0  0  0  0  0  0  0  0  0  0  0
  191.7150  176.3660  145.3110 O   0  0  0  0  0  1  0  0  0  0  0  0
  190.8520  177.4440  145.1340 C   0  0  0  0  0  0  0  0  0  0  0  0
  191.8810  176.5080  139.2640 C   0  0  0  0  0  2  0  0  0  0  0  0
  191.3260  175.5870  138.1970 C   0  0  0  0  0  2  0  0  0  0  0  0
  192.4620  175.0100  137.3700 C   0  0  0  0  0  2  0  0  0  0  0  0
  192.0740  173.6950  136.7090 C   0  0  0  0  0  2  0  0  0  0  0  0
  193.0720  173.3060  135.6310 C   0  0  0  0  0  2  0  0  0  0  0  0
  194.4380  173.8860  135.9470 C   0  0  0  0  0  2  0  0  0  0  0  0
  195.4330  172.8160  136.0480 N   0  0  0  0  0  0  0  0  0  0  0  0
  196.7410  173.3590  136.4480 C   0  0  2  0  0  3  0  0  0  0  0  0
  197.7190  175.4220  136.7560 O   0  0  0  0  0  0  0  0  0  0  0  0
  196.6540  174.6560  137.2080 C   0  0  0  0  0  2  0  0  0  0  0  0
  197.5420  173.5960  135.3320 O   0  0  0  0  0  0  0  0  0  0  0  0
  199.4730  174.9980  135.1960 C   0  0  0  0  0  1  0  0  0  0  0  0
  197.9860  174.9240  135.4710 C   0  0  2  0  0  3  0  0  0  0  0  0
  195.0220  171.9600  137.0190 O   0  0  0  0  0  0  0  0  0  0  0  0
  195.6900  169.8430  137.9140 C   0  0  0  0  0  1  0  0  0  0  0  0
  195.5920  170.7280  136.6830 C   0  0  1  0  0  3  0  0  0  0  0  0
  194.7920  170.0490  135.5780 C   0  0  0  0  0  2  0  0  0  0  0  0
  193.4370  169.5560  136.0650 C   0  0  0  0  0  1  0  0  0  0  0  0
  1 39  1  1  0  0  0
  1 25  1  0  0  0  0
  2  1  1  0  0  0  0
  3  2  1  0  0  0  0
  4  3  2  0  0  0  0
  5  3  1  0  0  0  0
  6  5  1  0  0  0  0
  7  9  1  0  0  0  0
  7 13  2  0  0  0  0
  8  7  1  0  0  0  0
  8 11  1  0  0  0  0
 10  9  1  0  0  0  0
 10 11  1  0  0  0  0
 10 12  1  1  0  0  0
 11  6  1  1  0  0  0
 13 14  1  0  0  0  0
 14 15  1  0  0  0  0
 15 16  1  0  0  0  0
 18 16  1  6  0  0  0
 18 21  1  0  0  0  0
 19 23  1  0  0  0  0
 20 23  1  0  0  0  0
 21 24  1  6  0  0  0
 21 19  1  0  0  0  0
 22 17  1  1  0  0  0
 22 21  1  0  0  0  0
 22 20  1  0  0  0  0
 24 18  1  0  0  0  0
 25 26  1  0  0  0  0
 26 27  2  0  0  0  0
 26 28  1  0  0  0  0
 28 29  1  0  0  0  0
 30 35  1  0  0  0  0
 31 29  1  6  0  0  0
 31 32  1  0  0  0  0
 31 34  1  0  0  0  0
 32 33  1  0  0  0  0
 33 35  1  0  0  0  0
 34 30  2  0  0  0  0
 36 38  2  0  0  0  0
 38 37  1  0  0  0  0
 38 34  1  0  0  0  0
 40 39  1  0  0  0  0
 41 40  1  0  0  0  0
 42 41  1  0  0  0  0
 43 44  1  0  0  0  0
 43 42  1  0  0  0  0
 44 45  1  0  0  0  0
 45 52  1  0  0  0  0
 46 45  1  6  0  0  0
 46 48  1  0  0  0  0
 47 48  1  0  0  0  0
 49 51  1  0  0  0  0
 49 46  1  0  0  0  0
 51 50  1  1  0  0  0
 51 47  1  0  0  0  0
 54 52  1  0  0  0  0
 54 53  1  1  0  0  0
 55 56  1  0  0  0  0
 55 54  1  0  0  0  0
M  END
>  <MODEL>
6

>  <REMARK>
 VINA RESULT:      -6.5      1.669      3.227
  Name = 
  25 active torsions:
  status: ('A' for Active; 'I' for Inactive)
    1  A    between atoms: C_1  and  C_32
    2  A    between atoms: C_3  and  C_9
    3  A    between atoms: C_3  and  C_25
    4  A    between atoms: C_4  and  C_35
    5  A    between atoms: C_5  and  C_25
    6  A    between atoms: C_5  and  C_35
    7  A    between atoms: C_7  and  N_13
    8  A    between atoms: C_9  and  N_11
    9  A    between atoms: C_9  and  C_15
   10  A    between atoms: C_12  and  C_21
   11  A    between atoms: C_12  and  C_55
   12  A    between atoms: N_13  and  O_51
   13  A    between atoms: N_13  and  C_53
   14  A    between atoms: C_14  and  N_54
   15  A    between atoms: C_14  and  C_56
   16  A    between atoms: C_15  and  C_21
   17  A    between atoms: C_27  and  N_46
   18  A    between atoms: C_28  and  C_44
   19  A    between atoms: C_29  and  C_53
   20  A    between atoms: C_29  and  C_55
   21  A    between atoms: C_32  and  O_51
   22  A    between atoms: C_33  and  C_56
   23  A    between atoms: C_36  and  N_54
   24  A    between atoms: C_42  and  C_47
   25  A    between atoms: N_46  and  C_47
                            x       y       z     vdW  Elec       q    Type
                         _______ _______ _______ _____ _____    ______ ____

>  <TORSDO>
F 25

$$$$
=
 OpenBabel10232410453D

 56 60  0  0  1  0  0  0  0  0999 V2000
  189.2480  177.6420  137.9870 C   0  0  1  0  0  3  0  0  0  0  0  0
  188.4990  176.4020  137.8150 N   0  0  0  0  0  2  0  0  0  0  0  0
  187.3750  176.2820  136.9380 C   0  0  0  0  0  0  0  0  0  0  0  0
  186.9150  177.2910  136.3340 O   0  0  0  0  0  0  0  0  0  0  0  0
  186.7230  174.9540  136.7610 C   0  0  0  0  0  2  0  0  0  0  0  0
  185.3270  175.0250  137.1570 N   0  0  0  0  0  2  0  0  0  0  0  0
  182.3040  175.5680  136.4800 C   0  0  0  0  0  0  0  0  0  0  0  0
  183.6000  175.8350  135.2730 S   0  0  0  0  0  0  0  0  0  0  0  0
  182.3200  174.2310  137.1260 C   0  0  0  0  0  2  0  0  0  0  0  0
  183.5050  173.4820  136.5550 C   0  0  1  0  0  3  0  0  0  0  0  0
  184.5350  174.4910  136.0540 C   0  0  2  0  0  3  0  0  0  0  0  0
  184.0510  172.6280  137.5140 O   0  0  0  0  0  1  0  0  0  0  0  0
  181.4610  176.5020  136.9390 C   0  0  0  0  0  3  0  0  0  0  0  0
  181.3550  177.8570  136.4780 N   0  0  0  0  0  2  0  0  0  0  0  0
  181.4510  179.0570  137.2940 C   0  0  0  0  0  2  0  0  0  0  0  0
  182.0390  178.7210  138.6500 C   0  0  0  0  0  2  0  0  0  0  0  0
  182.3190  178.6940  141.8050 C   0  0  0  0  0  1  0  0  0  0  0  0
  183.4440  179.2900  138.7720 C   0  0  1  0  0  3  0  0  0  0  0  0
  185.2150  179.6880  140.4990 O   0  0  0  0  0  0  0  0  0  0  0  0
  184.6590  178.0580  142.1720 C   0  0  0  0  0  2  0  0  0  0  0  0
  184.1110  178.9260  140.0960 C   0  0  1  0  0  0  0  0  0  0  0  0
  183.5380  178.0390  141.1770 C   0  0  2  0  0  3  0  0  0  0  0  0
  185.4510  179.3170  141.8380 C   0  0  0  0  0  2  0  0  0  0  0  0
  184.4390  178.1440  138.8410 C   0  0  0  0  0  2  0  0  0  0  0  0
  188.8720  178.3080  139.3070 C   0  0  0  0  0  2  0  0  0  0  0  0
  189.3550  177.4970  140.4710 C   0  0  0  0  0  0  0  0  0  0  0  0
  190.4140  176.8930  140.4090 O   0  0  0  0  0  0  0  0  0  0  0  0
  188.5260  177.4300  141.7130 C   0  0  0  0  0  2  0  0  0  0  0  0
  189.2680  177.9920  142.9210 C   0  0  0  0  0  2  0  0  0  0  0  0
  189.7970  177.3130  146.4070 C   0  0  0  0  0  3  0  0  0  0  0  0
  189.6000  176.9120  143.9470 C   0  0  1  0  0  3  0  0  0  0  0  0
  191.1190  176.6650  143.9430 C   0  0  0  0  0  2  0  0  0  0  0  0
  191.6010  176.0720  145.2600 C   0  0  0  0  0  2  0  0  0  0  0  0
  189.0280  177.2870  145.3070 C   0  0  0  0  0  0  0  0  0  0  0  0
  191.2710  177.0640  146.3670 C   0  0  0  0  0  2  0  0  0  0  0  0
  186.7620  176.8900  144.7160 O   0  0  0  0  0  0  0  0  0  0  0  0
  187.0860  178.3460  146.4480 O   0  0  0  0  0  1  0  0  0  0  0  0
  187.5760  177.4920  145.4640 C   0  0  0  0  0  0  0  0  0  0  0  0
  190.7320  177.3310  137.9970 C   0  0  0  0  0  2  0  0  0  0  0  0
  191.0550  176.2290  137.0100 C   0  0  0  0  0  2  0  0  0  0  0  0
  192.5330  175.8860  137.0830 C   0  0  0  0  0  2  0  0  0  0  0  0
  193.0060  175.1370  135.8440 C   0  0  0  0  0  2  0  0  0  0  0  0
  194.4920  174.8340  135.9190 C   0  0  0  0  0  2  0  0  0  0  0  0
  194.7410  173.6500  136.8360 C   0  0  0  0  0  2  0  0  0  0  0  0
  196.1790  173.4540  137.0330 N   0  0  0  0  0  0  0  0  0  0  0  0
  196.7610  174.5850  137.7720 C   0  0  2  0  0  3  0  0  0  0  0  0
  198.5730  174.9900  139.1360 O   0  0  0  0  0  0  0  0  0  0  0  0
  198.2640  174.5450  137.8580 C   0  0  0  0  0  2  0  0  0  0  0  0
  196.2810  174.6230  139.0800 O   0  0  0  0  0  0  0  0  0  0  0  0
  197.2330  175.7680  140.9500 C   0  0  0  0  0  1  0  0  0  0  0  0
  197.4270  174.7010  139.8930 C   0  0  2  0  0  3  0  0  0  0  0  0
  196.3440  172.3340  137.7840 O   0  0  0  0  0  0  0  0  0  0  0  0
  197.5450  171.0480  136.1620 C   0  0  0  0  0  1  0  0  0  0  0  0
  196.2280  171.2710  136.8840 C   0  0  1  0  0  3  0  0  0  0  0  0
  195.7720  170.0060  137.6020 C   0  0  0  0  0  2  0  0  0  0  0  0
  194.3520  169.6090  137.2280 C   0  0  0  0  0  1  0  0  0  0  0  0
  1 39  1  1  0  0  0
  1 25  1  0  0  0  0
  2  1  1  0  0  0  0
  3  2  1  0  0  0  0
  4  3  2  0  0  0  0
  5  3  1  0  0  0  0
  5  6  1  0  0  0  0
  7 13  2  0  0  0  0
  7  9  1  0  0  0  0
  8 11  1  0  0  0  0
  8  7  1  0  0  0  0
 10  9  1  0  0  0  0
 10 12  1  1  0  0  0
 11 10  1  0  0  0  0
 11  6  1  1  0  0  0
 14 13  1  0  0  0  0
 14 15  1  0  0  0  0
 15 16  1  0  0  0  0
 18 16  1  1  0  0  0
 18 24  1  0  0  0  0
 18 21  1  0  0  0  0
 19 23  1  0  0  0  0
 21 24  1  6  0  0  0
 21 19  1  0  0  0  0
 21 22  1  0  0  0  0
 22 17  1  1  0  0  0
 22 20  1  0  0  0  0
 23 20  1  0  0  0  0
 25 26  1  0  0  0  0
 26 28  1  0  0  0  0
 27 26  2  0  0  0  0
 28 29  1  0  0  0  0
 31 29  1  6  0  0  0
 31 34  1  0  0  0  0
 32 31  1  0  0  0  0
 32 33  1  0  0  0  0
 33 35  1  0  0  0  0
 34 38  1  0  0  0  0
 34 30  2  0  0  0  0
 35 30  1  0  0  0  0
 36 38  2  0  0  0  0
 38 37  1  0  0  0  0
 40 41  1  0  0  0  0
 40 39  1  0  0  0  0
 42 43  1  0  0  0  0
 42 41  1  0  0  0  0
 43 44  1  0  0  0  0
 44 45  1  0  0  0  0
 45 52  1  0  0  0  0
 46 45  1  1  0  0  0
 46 48  1  0  0  0  0
 46 49  1  0  0  0  0
 47 51  1  0  0  0  0
 48 47  1  0  0  0  0
 49 51  1  0  0  0  0
 51 50  1  1  0  0  0
 54 53  1  1  0  0  0
 54 55  1  0  0  0  0
 54 52  1  0  0  0  0
 56 55  1  0  0  0  0
M  END
>  <MODEL>
7

>  <REMARK>
 VINA RESULT:      -6.5      1.927      3.832
  Name = 
  25 active torsions:
  status: ('A' for Active; 'I' for Inactive)
    1  A    between atoms: C_1  and  C_32
    2  A    between atoms: C_3  and  C_9
    3  A    between atoms: C_3  and  C_25
    4  A    between atoms: C_4  and  C_35
    5  A    between atoms: C_5  and  C_25
    6  A    between atoms: C_5  and  C_35
    7  A    between atoms: C_7  and  N_13
    8  A    between atoms: C_9  and  N_11
    9  A    between atoms: C_9  and  C_15
   10  A    between atoms: C_12  and  C_21
   11  A    between atoms: C_12  and  C_55
   12  A    between atoms: N_13  and  O_51
   13  A    between atoms: N_13  and  C_53
   14  A    between atoms: C_14  and  N_54
   15  A    between atoms: C_14  and  C_56
   16  A    between atoms: C_15  and  C_21
   17  A    between atoms: C_27  and  N_46
   18  A    between atoms: C_28  and  C_44
   19  A    between atoms: C_29  and  C_53
   20  A    between atoms: C_29  and  C_55
   21  A    between atoms: C_32  and  O_51
   22  A    between atoms: C_33  and  C_56
   23  A    between atoms: C_36  and  N_54
   24  A    between atoms: C_42  and  C_47
   25  A    between atoms: N_46  and  C_47
                            x       y       z     vdW  Elec       q    Type
                         _______ _______ _______ _____ _____    ______ ____

>  <TORSDO>
F 25

$$$$
=
 OpenBabel10232410453D

 56 60  0  0  1  0  0  0  0  0999 V2000
  190.1310  177.1960  139.5390 C   0  0  1  0  0  3  0  0  0  0  0  0
  189.4350  176.4920  138.4680 N   0  0  0  0  0  2  0  0  0  0  0  0
  188.2370  176.9810  137.8580 C   0  0  0  0  0  0  0  0  0  0  0  0
  187.6670  178.0190  138.2960 O   0  0  0  0  0  0  0  0  0  0  0  0
  187.6420  176.2380  136.7130 C   0  0  0  0  0  2  0  0  0  0  0  0
  186.5530  175.3950  137.1750 N   0  0  0  0  0  2  0  0  0  0  0  0
  183.8810  173.7850  136.7670 C   0  0  0  0  0  0  0  0  0  0  0  0
  184.4990  174.9140  135.5210 S   0  0  0  0  0  0  0  0  0  0  0  0
  184.8670  172.7810  137.2420 C   0  0  0  0  0  2  0  0  0  0  0  0
  186.1620  173.0570  136.5070 C   0  0  1  0  0  3  0  0  0  0  0  0
  186.1820  174.5190  136.0680 C   0  0  2  0  0  3  0  0  0  0  0  0
  187.2570  172.7520  137.3160 O   0  0  0  0  0  1  0  0  0  0  0  0
  182.7000  173.8820  137.3920 C   0  0  0  0  0  3  0  0  0  0  0  0
  181.6600  174.8300  137.1080 N   0  0  0  0  0  2  0  0  0  0  0  0
  180.6660  175.3270  138.0470 C   0  0  0  0  0  2  0  0  0  0  0  0
  180.8780  176.8060  138.2970 C   0  0  0  0  0  2  0  0  0  0  0  0
  183.8340  177.7830  137.7160 C   0  0  0  0  0  1  0  0  0  0  0  0
  181.3400  177.0390  139.7270 C   0  0  1  0  0  3  0  0  0  0  0  0
  183.2760  178.0080  140.9900 O   0  0  0  0  0  0  0  0  0  0  0  0
  184.2030  179.5380  139.3880 C   0  0  0  0  0  2  0  0  0  0  0  0
  182.5160  178.0100  139.8130 C   0  0  1  0  0  0  0  0  0  0  0  0
  183.1510  178.7550  138.6620 C   0  0  2  0  0  3  0  0  0  0  0  0
  184.4170  178.7800  140.6940 C   0  0  0  0  0  2  0  0  0  0  0  0
  181.1090  178.4960  140.0920 C   0  0  0  0  0  2  0  0  0  0  0  0
  190.0560  176.3950  140.8350 C   0  0  0  0  0  2  0  0  0  0  0  0
  189.3370  177.1680  141.9010 C   0  0  0  0  0  0  0  0  0  0  0  0
  188.8360  178.2510  141.6490 O   0  0  0  0  0  0  0  0  0  0  0  0
  189.2440  176.6010  143.2810 C   0  0  0  0  0  2  0  0  0  0  0  0
  187.8010  176.5440  143.7720 C   0  0  0  0  0  2  0  0  0  0  0  0
  186.5220  177.9600  146.8150 C   0  0  0  0  0  3  0  0  0  0  0  0
  187.3790  177.8350  144.4690 C   0  0  1  0  0  3  0  0  0  0  0  0
  185.9590  178.2120  144.0110 C   0  0  0  0  0  2  0  0  0  0  0  0
  185.2530  179.1010  145.0260 C   0  0  0  0  0  2  0  0  0  0  0  0
  187.5360  177.6930  145.9760 C   0  0  0  0  0  0  0  0  0  0  0  0
  185.1540  178.3270  146.3340 C   0  0  0  0  0  2  0  0  0  0  0  0
  188.9770  176.5390  147.4720 O   0  0  0  0  0  1  0  0  0  0  0  0
  189.9980  178.0400  146.0840 O   0  0  0  0  0  0  0  0  0  0  0  0
  188.8590  177.3930  146.5540 C   0  0  0  0  0  0  0  0  0  0  0  0
  191.5870  177.3760  139.1550 C   0  0  0  0  0  2  0  0  0  0  0  0
  192.1240  176.1240  138.4940 C   0  0  0  0  0  2  0  0  0  0  0  0
  192.6640  176.4580  137.1140 C   0  0  0  0  0  2  0  0  0  0  0  0
  193.7690  175.5020  136.6880 C   0  0  0  0  0  2  0  0  0  0  0  0
  193.8910  174.3360  137.6550 C   0  0  0  0  0  2  0  0  0  0  0  0
  194.4480  173.1180  136.9410 C   0  0  0  0  0  2  0  0  0  0  0  0
  195.8800  172.9790  137.2160 N   0  0  0  0  0  0  0  0  0  0  0  0
  196.2170  171.5800  137.5180 C   0  0  2  0  0  3  0  0  0  0  0  0
  195.6140  169.4770  136.7960 O   0  0  0  0  0  0  0  0  0  0  0  0
  196.1480  170.6670  136.3220 C   0  0  0  0  0  2  0  0  0  0  0  0
  195.3540  171.0560  138.4780 O   0  0  0  0  0  0  0  0  0  0  0  0
  194.9410  168.7530  138.9670 C   0  0  0  0  0  1  0  0  0  0  0  0
  194.8750  169.8530  137.9280 C   0  0  2  0  0  3  0  0  0  0  0  0
  196.5540  173.3390  136.0930 O   0  0  0  0  0  0  0  0  0  0  0  0
  198.0140  174.2610  137.7500 C   0  0  0  0  0  1  0  0  0  0  0  0
  197.2660  174.4890  136.4480 C   0  0  1  0  0  3  0  0  0  0  0  0
  198.2180  174.8980  135.3310 C   0  0  0  0  0  2  0  0  0  0  0  0
  199.6760  174.6810  135.7060 C   0  0  0  0  0  1  0  0  0  0  0  0
  1 39  1  6  0  0  0
  1 25  1  0  0  0  0
  2  1  1  0  0  0  0
  3  4  2  0  0  0  0
  3  2  1  0  0  0  0
  5  6  1  0  0  0  0
  5  3  1  0  0  0  0
  7  9  1  0  0  0  0
  7 13  2  0  0  0  0
  8 11  1  0  0  0  0
  8  7  1  0  0  0  0
 10  9  1  0  0  0  0
 10 12  1  1  0  0  0
 11 10  1  0  0  0  0
 11  6  1  1  0  0  0
 14 13  1  0  0  0  0
 14 15  1  0  0  0  0
 15 16  1  0  0  0  0
 18 16  1  6  0  0  0
 18 21  1  0  0  0  0
 18 24  1  0  0  0  0
 20 23  1  0  0  0  0
 21 24  1  1  0  0  0
 21 19  1  0  0  0  0
 22 17  1  6  0  0  0
 22 20  1  0  0  0  0
 22 21  1  0  0  0  0
 23 19  1  0  0  0  0
 25 26  1  0  0  0  0
 26 28  1  0  0  0  0
 27 26  2  0  0  0  0
 28 29  1  0  0  0  0
 31 29  1  6  0  0  0
 31 34  1  0  0  0  0
 32 31  1  0  0  0  0
 32 33  1  0  0  0  0
 33 35  1  0  0  0  0
 34 38  1  0  0  0  0
 34 30  2  0  0  0  0
 35 30  1  0  0  0  0
 37 38  2  0  0  0  0
 38 36  1  0  0  0  0
 40 39  1  0  0  0  0
 41 40  1  0  0  0  0
 42 41  1  0  0  0  0
 42 43  1  0  0  0  0
 44 45  1  0  0  0  0
 44 43  1  0  0  0  0
 46 45  1  6  0  0  0
 46 49  1  0  0  0  0
 47 51  1  0  0  0  0
 48 47  1  0  0  0  0
 48 46  1  0  0  0  0
 51 49  1  0  0  0  0
 51 50  1  1  0  0  0
 52 54  1  0  0  0  0
 52 45  1  0  0  0  0
 54 53  1  1  0  0  0
 55 56  1  0  0  0  0
 55 54  1  0  0  0  0
M  END
>  <MODEL>
8

>  <REMARK>
 VINA RESULT:      -6.4      1.776      2.617
  Name = 
  25 active torsions:
  status: ('A' for Active; 'I' for Inactive)
    1  A    between atoms: C_1  and  C_32
    2  A    between atoms: C_3  and  C_9
    3  A    between atoms: C_3  and  C_25
    4  A    between atoms: C_4  and  C_35
    5  A    between atoms: C_5  and  C_25
    6  A    between atoms: C_5  and  C_35
    7  A    between atoms: C_7  and  N_13
    8  A    between atoms: C_9  and  N_11
    9  A    between atoms: C_9  and  C_15
   10  A    between atoms: C_12  and  C_21
   11  A    between atoms: C_12  and  C_55
   12  A    between atoms: N_13  and  O_51
   13  A    between atoms: N_13  and  C_53
   14  A    between atoms: C_14  and  N_54
   15  A    between atoms: C_14  and  C_56
   16  A    between atoms: C_15  and  C_21
   17  A    between atoms: C_27  and  N_46
   18  A    between atoms: C_28  and  C_44
   19  A    between atoms: C_29  and  C_53
   20  A    between atoms: C_29  and  C_55
   21  A    between atoms: C_32  and  O_51
   22  A    between atoms: C_33  and  C_56
   23  A    between atoms: C_36  and  N_54
   24  A    between atoms: C_42  and  C_47
   25  A    between atoms: N_46  and  C_47
                            x       y       z     vdW  Elec       q    Type
                         _______ _______ _______ _____ _____    ______ ____

>  <TORSDO>
F 25

$$$$
=
 OpenBabel10232410453D

 56 60  0  0  1  0  0  0  0  0999 V2000
  190.7540  177.4460  140.1770 C   0  0  1  0  0  3  0  0  0  0  0  0
  189.8270  177.2470  139.0690 N   0  0  0  0  0  2  0  0  0  0  0  0
  188.6150  177.9920  138.9190 C   0  0  0  0  0  0  0  0  0  0  0  0
  188.2420  178.8050  139.8110 O   0  0  0  0  0  0  0  0  0  0  0  0
  187.7700  177.7810  137.7110 C   0  0  0  0  0  2  0  0  0  0  0  0
  187.2200  176.4370  137.7120 N   0  0  0  0  0  2  0  0  0  0  0  0
  185.7490  174.0160  136.3460 C   0  0  0  0  0  0  0  0  0  0  0  0
  185.8390  175.6250  135.5630 S   0  0  0  0  0  0  0  0  0  0  0  0
  187.0530  173.4680  136.7970 C   0  0  0  0  0  2  0  0  0  0  0  0
  188.1040  174.5070  136.4640 C   0  0  1  0  0  3  0  0  0  0  0  0
  187.4370  175.8780  136.3820 C   0  0  2  0  0  3  0  0  0  0  0  0
  189.1250  174.4910  137.4140 O   0  0  0  0  0  1  0  0  0  0  0  0
  184.6230  173.3750  136.6860 C   0  0  0  0  0  3  0  0  0  0  0  0
  183.2810  173.7920  136.3900 N   0  0  0  0  0  2  0  0  0  0  0  0
  182.3070  174.3050  137.3410 C   0  0  0  0  0  2  0  0  0  0  0  0
  182.8140  175.5890  137.9660 C   0  0  0  0  0  2  0  0  0  0  0  0
  183.4130  177.6160  140.3260 C   0  0  0  0  0  1  0  0  0  0  0  0
  181.9900  176.7730  137.4830 C   0  0  1  0  0  3  0  0  0  0  0  0
  181.5730  179.1810  138.0370 O   0  0  0  0  0  0  0  0  0  0  0  0
  183.5870  179.7850  139.1960 C   0  0  0  0  0  2  0  0  0  0  0  0
  182.4600  178.0980  138.0810 C   0  0  1  0  0  0  0  0  0  0  0  0
  183.6480  178.3010  138.9910 C   0  0  2  0  0  3  0  0  0  0  0  0
  182.1460  180.1610  138.8720 C   0  0  0  0  0  2  0  0  0  0  0  0
  182.8830  177.7040  136.6810 C   0  0  0  0  0  2  0  0  0  0  0  0
  190.3720  176.5520  141.3530 C   0  0  0  0  0  2  0  0  0  0  0  0
  189.6190  177.3290  142.3920 C   0  0  0  0  0  0  0  0  0  0  0  0
  190.0990  178.3390  142.8780 O   0  0  0  0  0  0  0  0  0  0  0  0
  188.2730  176.8500  142.8310 C   0  0  0  0  0  2  0  0  0  0  0  0
  188.1240  176.8980  144.3490 C   0  0  0  0  0  2  0  0  0  0  0  0
  185.7950  178.1400  146.7830 C   0  0  0  0  0  3  0  0  0  0  0  0
  187.3310  178.1180  144.8110 C   0  0  1  0  0  3  0  0  0  0  0  0
  186.0780  178.2660  143.9300 C   0  0  0  0  0  2  0  0  0  0  0  0
  184.9790  179.0490  144.6340 C   0  0  0  0  0  2  0  0  0  0  0  0
  187.0420  178.0220  146.3020 C   0  0  0  0  0  0  0  0  0  0  0  0
  184.6000  178.2870  145.8970 C   0  0  0  0  0  2  0  0  0  0  0  0
  189.3490  177.8990  146.8590 O   0  0  0  0  0  0  0  0  0  0  0  0
  187.9080  177.9070  148.6330 O   0  0  0  0  0  1  0  0  0  0  0  0
  188.1570  177.9360  147.2640 C   0  0  0  0  0  0  0  0  0  0  0  0
  192.1580  177.0900  139.7240 C   0  0  0  0  0  2  0  0  0  0  0  0
  192.1150  176.2030  138.4970 C   0  0  0  0  0  2  0  0  0  0  0  0
  193.4760  176.1880  137.8220 C   0  0  0  0  0  2  0  0  0  0  0  0
  193.3810  176.5300  136.3420 C   0  0  0  0  0  2  0  0  0  0  0  0
  194.1490  175.5280  135.4960 C   0  0  0  0  0  2  0  0  0  0  0  0
  194.9250  174.5750  136.3860 C   0  0  0  0  0  2  0  0  0  0  0  0
  196.2770  174.3760  135.8590 N   0  0  0  0  0  0  0  0  0  0  0  0
  197.2730  175.0230  136.7260 C   0  0  2  0  0  3  0  0  0  0  0  0
  199.0600  174.4040  138.0420 O   0  0  0  0  0  0  0  0  0  0  0  0
  198.6130  174.3360  136.7300 C   0  0  0  0  0  2  0  0  0  0  0  0
  196.8320  175.0590  138.0480 O   0  0  0  0  0  0  0  0  0  0  0  0
  198.1500  175.3890  140.0160 C   0  0  0  0  0  1  0  0  0  0  0  0
  197.8880  174.5170  138.8050 C   0  0  2  0  0  3  0  0  0  0  0  0
  196.5280  173.0410  135.8590 O   0  0  0  0  0  0  0  0  0  0  0  0
  194.9560  172.0530  134.3490 C   0  0  0  0  0  1  0  0  0  0  0  0
  195.2710  172.4330  135.7850 C   0  0  1  0  0  3  0  0  0  0  0  0
  195.2060  171.2190  136.7040 C   0  0  0  0  0  2  0  0  0  0  0  0
  196.2480  171.2750  137.8110 C   0  0  0  0  0  1  0  0  0  0  0  0
  1 39  1  6  0  0  0
  1 25  1  0  0  0  0
  2  1  1  0  0  0  0
  3  2  1  0  0  0  0
  3  4  2  0  0  0  0
  5  6  1  0  0  0  0
  5  3  1  0  0  0  0
  7 13  2  0  0  0  0
  7  9  1  0  0  0  0
  8  7  1  0  0  0  0
  8 11  1  0  0  0  0
 10  9  1  0  0  0  0
 10 12  1  1  0  0  0
 11 10  1  0  0  0  0
 11  6  1  1  0  0  0
 14 13  1  0  0  0  0
 14 15  1  0  0  0  0
 15 16  1  0  0  0  0
 18 16  1  1  0  0  0
 18 21  1  0  0  0  0
 19 21  1  0  0  0  0
 19 23  1  0  0  0  0
 21 24  1  6  0  0  0
 21 22  1  0  0  0  0
 22 20  1  0  0  0  0
 22 17  1  1  0  0  0
 23 20  1  0  0  0  0
 24 18  1  0  0  0  0
 25 26  1  0  0  0  0
 26 28  1  0  0  0  0
 26 27  2  0  0  0  0
 28 29  1  0  0  0  0
 31 29  1  6  0  0  0
 31 34  1  0  0  0  0
 32 33  1  0  0  0  0
 32 31  1  0  0  0  0
 33 35  1  0  0  0  0
 34 30  2  0  0  0  0
 34 38  1  0  0  0  0
 35 30  1  0  0  0  0
 36 38  2  0  0  0  0
 38 37  1  0  0  0  0
 40 39  1  0  0  0  0
 41 40  1  0  0  0  0
 42 41  1  0  0  0  0
 43 42  1  0  0  0  0
 43 44  1  0  0  0  0
 45 44  1  0  0  0  0
 46 45  1  6  0  0  0
 46 48  1  0  0  0  0
 46 49  1  0  0  0  0
 47 51  1  0  0  0  0
 48 47  1  0  0  0  0
 49 51  1  0  0  0  0
 51 50  1  1  0  0  0
 52 45  1  0  0  0  0
 54 53  1  6  0  0  0
 54 52  1  0  0  0  0
 54 55  1  0  0  0  0
 55 56  1  0  0  0  0
M  END
>  <MODEL>
9

>  <REMARK>
 VINA RESULT:      -6.3      1.665      2.913
  Name = 
  25 active torsions:
  status: ('A' for Active; 'I' for Inactive)
    1  A    between atoms: C_1  and  C_32
    2  A    between atoms: C_3  and  C_9
    3  A    between atoms: C_3  and  C_25
    4  A    between atoms: C_4  and  C_35
    5  A    between atoms: C_5  and  C_25
    6  A    between atoms: C_5  and  C_35
    7  A    between atoms: C_7  and  N_13
    8  A    between atoms: C_9  and  N_11
    9  A    between atoms: C_9  and  C_15
   10  A    between atoms: C_12  and  C_21
   11  A    between atoms: C_12  and  C_55
   12  A    between atoms: N_13  and  O_51
   13  A    between atoms: N_13  and  C_53
   14  A    between atoms: C_14  and  N_54
   15  A    between atoms: C_14  and  C_56
   16  A    between atoms: C_15  and  C_21
   17  A    between atoms: C_27  and  N_46
   18  A    between atoms: C_28  and  C_44
   19  A    between atoms: C_29  and  C_53
   20  A    between atoms: C_29  and  C_55
   21  A    between atoms: C_32  and  O_51
   22  A    between atoms: C_33  and  C_56
   23  A    between atoms: C_36  and  N_54
   24  A    between atoms: C_42  and  C_47
   25  A    between atoms: N_46  and  C_47
                            x       y       z     vdW  Elec       q    Type
                         _______ _______ _______ _____ _____    ______ ____

>  <TORSDO>
F 25

$$$$
