=
 OpenBabel10232411553D

 37 39  0  0  1  0  0  0  0  0999 V2000
  188.0170  177.3600  142.3610 C   0  0  0  0  0  2  0  0  0  0  0  0
  190.8830  177.3500  142.1410 C   0  0  0  0  0  0  0  0  0  0  0  0
  188.8630  177.8280  143.5420 C   0  0  0  0  0  2  0  0  0  0  0  0
  188.6990  177.6390  141.0430 C   0  0  0  0  0  0  0  0  0  0  0  0
  192.1380  177.0960  141.9710 N   0  0  0  0  0  2  0  0  0  0  0  0
  190.0370  177.5820  140.9590 C   0  0  0  0  0  3  0  0  0  0  0  0
  190.2450  177.1750  143.5000 C   0  0  2  0  0  3  0  0  0  0  0  0
  187.9850  178.0850  137.3100 C   0  0  1  0  0  3  0  0  0  0  0  0
  185.6480  178.5510  137.7770 N   0  0  0  0  0  0  0  0  0  0  0  0
  187.8850  177.8740  139.8250 C   0  0  0  0  0  0  0  0  0  0  0  0
  185.6880  178.8710  139.0380 C   0  0  0  0  0  0  0  0  0  0  0  0
  186.7340  178.4820  139.9530 N   0  0  0  0  0  0  0  0  0  0  0  0
  186.5580  177.6980  137.0350 C   0  0  0  0  0  2  0  0  0  0  0  0
  188.4130  177.3190  138.5330 C   0  0  0  0  0  2  0  0  0  0  0  0
  184.6400  179.6870  139.5490 N   0  0  0  0  0  1  0  0  0  0  0  0
  189.0610  177.6810  135.8870 S   0  0  0  0  0  0  0  0  0  0  0  0
  189.8860  173.8100  137.0420 C   0  0  0  0  0  2  0  0  0  0  0  0
  188.7730  173.6780  136.1610 O   0  0  0  0  0  0  0  0  0  0  0  0
  189.1850  175.9470  136.2470 N   0  0  0  0  0  0  0  0  0  0  0  0
  190.1960  175.3230  137.0910 C   0  0  2  0  0  3  0  0  0  0  0  0
  187.3870  175.1070  134.8550 C   0  0  0  0  0  2  0  0  0  0  0  0
  188.3830  174.9160  135.7090 C   0  0  0  0  0  0  0  0  0  0  0  0
  191.6100  175.6200  136.5900 C   0  0  0  0  0  2  0  0  0  0  0  0
  193.5790  175.6190  138.0920 C   0  0  0  0  0  1  0  0  0  0  0  0
  192.4200  176.4450  137.5790 C   0  0  0  0  0  2  0  0  0  0  0  0
  191.1030  177.7260  144.6040 C   0  0  0  0  0  0  0  0  0  0  0  0
  191.7170  178.7710  144.4500 O   0  0  0  0  0  0  0  0  0  0  0  0
  191.2350  176.9710  145.8870 C   0  0  0  0  0  2  0  0  0  0  0  0
  189.2720  177.9180  146.9160 N   0  0  0  0  0  0  0  0  0  0  0  0
  189.9140  176.8620  146.5760 C   0  0  0  0  0  3  0  0  0  0  0  0
  188.0040  177.8070  147.5860 C   0  0  0  0  0  2  0  0  0  0  0  0
  186.9290  177.8220  146.6070 N   0  0  0  0  0  2  0  0  0  0  0  0
  185.8640  179.6910  147.5130 O   0  0  0  0  0  0  0  0  0  0  0  0
  185.8890  178.8040  146.6180 C   0  0  0  0  0  0  0  0  0  0  0  0
  185.1820  178.4780  144.1680 C   0  0  0  0  0  1  0  0  0  0  0  0
  184.8430  178.7810  145.5860 C   0  0  0  0  0  0  0  0  0  0  0  0
  183.6460  179.0200  145.8940 O   0  0  0  0  0  0  0  0  0  0  0  0
  1  3  1  0  0  0  0
  2  7  1  0  0  0  0
  4  1  1  0  0  0  0
  5  2  2  0  0  0  0
  6  4  2  0  0  0  0
  6  2  1  0  0  0  0
  7  3  1  0  0  0  0
  7 26  1  1  0  0  0
  8 16  1  6  0  0  0
  8 14  1  0  0  0  0
  9 11  2  0  0  0  0
 10 12  2  0  0  0  0
 10  4  1  0  0  0  0
 11 15  1  0  0  0  0
 11 12  1  0  0  0  0
 13  8  1  0  0  0  0
 13  9  1  0  0  0  0
 14 10  1  0  0  0  0
 16 19  1  0  0  0  0
 17 20  1  0  0  0  0
 18 17  1  0  0  0  0
 19 20  1  0  0  0  0
 20 23  1  6  0  0  0
 21 22  2  0  0  0  0
 22 18  1  0  0  0  0
 22 19  1  0  0  0  0
 23 25  1  0  0  0  0
 25 24  1  0  0  0  0
 26 28  1  0  0  0  0
 27 26  2  0  0  0  0
 28 30  1  0  0  0  0
 29 31  1  0  0  0  0
 30 29  2  0  0  0  0
 32 34  1  0  0  0  0
 32 31  1  0  0  0  0
 34 33  2  0  0  0  0
 35 36  1  0  0  0  0
 36 37  2  0  0  0  0
 36 34  1  0  0  0  0
M  END
>  <MODEL>
1

>  <REMARK>
 VINA RESULT:      -8.2      0.000      0.000
  Name = 
  11 active torsions:
  status: ('A' for Active; 'I' for Inactive)
    1  A    between atoms: C_2  and  C_7
    2  A    between atoms: C_2  and  C_33
    3  A    between atoms: C_3  and  S_37
    4  A    between atoms: N_6  and  C_16
    5  A    between atoms: C_7  and  C_24
    6  A    between atoms: C_8  and  C_27
    7  A    between atoms: C_10  and  C_25
    8  A    between atoms: C_12  and  C_28
    9  A    between atoms: C_16  and  N_18
   10  A    between atoms: N_26  and  S_37
   11  A    between atoms: C_27  and  C_31
                            x       y       z     vdW  Elec       q    Type
                         _______ _______ _______ _____ _____    ______ ____

>  <TORSDO>
F 11

$$$$
=
 OpenBabel10232411553D

 37 39  0  0  1  0  0  0  0  0999 V2000
  186.3700  177.8810  143.7290 C   0  0  0  0  0  2  0  0  0  0  0  0
  185.9830  178.8920  146.3920 C   0  0  0  0  0  0  0  0  0  0  0  0
  187.1220  177.2410  144.8940 C   0  0  0  0  0  2  0  0  0  0  0  0
  185.0350  178.4350  144.1680 C   0  0  0  0  0  0  0  0  0  0  0  0
  185.8690  179.5790  147.4810 N   0  0  0  0  0  2  0  0  0  0  0  0
  184.8960  178.9430  145.4010 C   0  0  0  0  0  3  0  0  0  0  0  0
  187.3010  178.2470  146.0310 C   0  0  2  0  0  3  0  0  0  0  0  0
  183.3170  179.0080  140.7970 C   0  0  1  0  0  3  0  0  0  0  0  0
  181.1410  178.6060  141.7970 N   0  0  0  0  0  0  0  0  0  0  0  0
  183.9130  178.5090  143.2000 C   0  0  0  0  0  0  0  0  0  0  0  0
  181.3930  178.7840  143.0620 C   0  0  0  0  0  0  0  0  0  0  0  0
  182.7010  178.6760  143.6640 N   0  0  0  0  0  0  0  0  0  0  0  0
  182.0530  178.1940  140.7460 C   0  0  0  0  0  2  0  0  0  0  0  0
  184.2460  178.3060  141.7500 C   0  0  0  0  0  2  0  0  0  0  0  0
  180.3080  179.1390  143.9110 N   0  0  0  0  0  1  0  0  0  0  0  0
  184.0760  179.1450  139.1390 S   0  0  0  0  0  0  0  0  0  0  0  0
  180.7250  178.2820  136.8980 C   0  0  0  0  0  2  0  0  0  0  0  0
  180.5820  179.6640  137.2140 O   0  0  0  0  0  0  0  0  0  0  0  0
  182.5510  179.0300  138.2360 N   0  0  0  0  0  0  0  0  0  0  0  0
  182.0550  177.8440  137.5520 C   0  0  2  0  0  3  0  0  0  0  0  0
  181.7950  181.3270  138.4110 C   0  0  0  0  0  2  0  0  0  0  0  0
  181.6430  180.0810  137.9830 C   0  0  0  0  0  0  0  0  0  0  0  0
  183.0510  177.3380  136.5070 C   0  0  0  0  0  2  0  0  0  0  0  0
  183.1590  175.5300  138.1960 C   0  0  0  0  0  1  0  0  0  0  0  0
  183.5020  175.9100  136.7720 C   0  0  0  0  0  2  0  0  0  0  0  0
  187.9450  177.5750  147.2100 C   0  0  0  0  0  0  0  0  0  0  0  0
  187.2830  176.8780  147.9650 O   0  0  0  0  0  0  0  0  0  0  0  0
  189.3990  177.7880  147.4820 C   0  0  0  0  0  2  0  0  0  0  0  0
  190.7900  177.5940  145.5230 N   0  0  0  0  0  0  0  0  0  0  0  0
  190.2380  177.0100  146.5210 C   0  0  0  0  0  3  0  0  0  0  0  0
  191.5890  176.8390  144.5970 C   0  0  0  0  0  2  0  0  0  0  0  0
  191.2240  177.1890  143.2330 N   0  0  0  0  0  2  0  0  0  0  0  0
  189.7270  175.4170  142.9710 O   0  0  0  0  0  0  0  0  0  0  0  0
  190.2710  176.4400  142.4730 C   0  0  0  0  0  0  0  0  0  0  0  0
  188.9180  177.9310  140.8750 C   0  0  0  0  0  1  0  0  0  0  0  0
  189.9240  176.8600  141.1090 C   0  0  0  0  0  0  0  0  0  0  0  0
  190.4790  176.3120  140.1200 O   0  0  0  0  0  0  0  0  0  0  0  0
  1  4  1  0  0  0  0
  1  3  1  0  0  0  0
  2  5  2  0  0  0  0
  3  7  1  0  0  0  0
  4  6  2  0  0  0  0
  6  2  1  0  0  0  0
  7  2  1  0  0  0  0
  7 26  1  1  0  0  0
  8 16  1  6  0  0  0
  8 14  1  0  0  0  0
  9 11  2  0  0  0  0
 10 12  2  0  0  0  0
 10  4  1  0  0  0  0
 11 12  1  0  0  0  0
 11 15  1  0  0  0  0
 13  8  1  0  0  0  0
 13  9  1  0  0  0  0
 14 10  1  0  0  0  0
 17 18  1  0  0  0  0
 17 20  1  0  0  0  0
 18 22  1  0  0  0  0
 19 16  1  0  0  0  0
 20 23  1  6  0  0  0
 20 19  1  0  0  0  0
 22 19  1  0  0  0  0
 22 21  2  0  0  0  0
 23 25  1  0  0  0  0
 25 24  1  0  0  0  0
 26 28  1  0  0  0  0
 26 27  2  0  0  0  0
 29 30  2  0  0  0  0
 30 28  1  0  0  0  0
 31 29  1  0  0  0  0
 32 31  1  0  0  0  0
 34 33  2  0  0  0  0
 34 32  1  0  0  0  0
 35 36  1  0  0  0  0
 36 34  1  0  0  0  0
 37 36  2  0  0  0  0
M  END
>  <MODEL>
2

>  <REMARK>
 VINA RESULT:      -8.1      3.554      6.695
  Name = 
  11 active torsions:
  status: ('A' for Active; 'I' for Inactive)
    1  A    between atoms: C_2  and  C_7
    2  A    between atoms: C_2  and  C_33
    3  A    between atoms: C_3  and  S_37
    4  A    between atoms: N_6  and  C_16
    5  A    between atoms: C_7  and  C_24
    6  A    between atoms: C_8  and  C_27
    7  A    between atoms: C_10  and  C_25
    8  A    between atoms: C_12  and  C_28
    9  A    between atoms: C_16  and  N_18
   10  A    between atoms: N_26  and  S_37
   11  A    between atoms: C_27  and  C_31
                            x       y       z     vdW  Elec       q    Type
                         _______ _______ _______ _____ _____    ______ ____

>  <TORSDO>
F 11

$$$$
=
 OpenBabel10232411553D

 37 39  0  0  1  0  0  0  0  0999 V2000
  188.9560  177.7570  141.8770 C   0  0  0  0  0  2  0  0  0  0  0  0
  190.9630  176.2480  143.2770 C   0  0  0  0  0  0  0  0  0  0  0  0
  189.5210  178.2930  143.1900 C   0  0  0  0  0  2  0  0  0  0  0  0
  189.9780  176.9330  141.1290 C   0  0  0  0  0  0  0  0  0  0  0  0
  191.6930  175.3730  143.8860 N   0  0  0  0  0  2  0  0  0  0  0  0
  190.8730  176.2020  141.8090 C   0  0  0  0  0  3  0  0  0  0  0  0
  190.0320  177.1440  144.0600 C   0  0  2  0  0  3  0  0  0  0  0  0
  188.5680  177.5070  137.6180 C   0  0  1  0  0  3  0  0  0  0  0  0
  190.3630  176.1930  136.6440 N   0  0  0  0  0  0  0  0  0  0  0  0
  189.9220  176.8550  139.6490 C   0  0  0  0  0  0  0  0  0  0  0  0
  190.7850  175.5150  137.6730 C   0  0  0  0  0  0  0  0  0  0  0  0
  190.5900  175.9040  139.0490 N   0  0  0  0  0  0  0  0  0  0  0  0
  189.6990  177.4830  136.6260 C   0  0  0  0  0  2  0  0  0  0  0  0
  189.1570  177.9340  138.9350 C   0  0  0  0  0  2  0  0  0  0  0  0
  191.4620  174.2890  137.4260 N   0  0  0  0  0  1  0  0  0  0  0  0
  187.2570  178.6680  137.0910 S   0  0  0  0  0  0  0  0  0  0  0  0
  184.3890  175.7300  137.4700 C   0  0  0  0  0  2  0  0  0  0  0  0
  183.8790  176.8120  138.2450 O   0  0  0  0  0  0  0  0  0  0  0  0
  185.9020  177.5730  137.4370 N   0  0  0  0  0  0  0  0  0  0  0  0
  185.7340  176.2310  136.8970 C   0  0  2  0  0  3  0  0  0  0  0  0
  184.5450  179.0230  138.8260 C   0  0  0  0  0  2  0  0  0  0  0  0
  184.7610  177.8670  138.2140 C   0  0  0  0  0  0  0  0  0  0  0  0
  185.7210  176.2360  135.3670 C   0  0  0  0  0  2  0  0  0  0  0  0
  187.3120  174.4110  135.8840 C   0  0  0  0  0  1  0  0  0  0  0  0
  186.6110  175.1570  134.7700 C   0  0  0  0  0  2  0  0  0  0  0  0
  190.6810  177.6920  145.2990 C   0  0  0  0  0  0  0  0  0  0  0  0
  191.6500  178.4330  145.2160 O   0  0  0  0  0  0  0  0  0  0  0  0
  190.1600  177.3010  146.6440 C   0  0  0  0  0  2  0  0  0  0  0  0
  187.9140  178.1740  146.6680 N   0  0  0  0  0  0  0  0  0  0  0  0
  188.6750  177.1440  146.6130 C   0  0  0  0  0  3  0  0  0  0  0  0
  186.4850  178.0170  146.6450 C   0  0  0  0  0  2  0  0  0  0  0  0
  186.0090  178.0560  145.2710 N   0  0  0  0  0  2  0  0  0  0  0  0
  183.9650  179.0510  145.8010 O   0  0  0  0  0  0  0  0  0  0  0  0
  184.7360  178.6010  144.9110 C   0  0  0  0  0  0  0  0  0  0  0  0
  185.3260  178.5030  142.4110 C   0  0  0  0  0  1  0  0  0  0  0  0
  184.3220  178.6360  143.5020 C   0  0  0  0  0  0  0  0  0  0  0  0
  183.1070  178.7790  143.2040 O   0  0  0  0  0  0  0  0  0  0  0  0
  1  3  1  0  0  0  0
  2  5  2  0  0  0  0
  2  7  1  0  0  0  0
  3  7  1  0  0  0  0
  4  6  2  0  0  0  0
  4  1  1  0  0  0  0
  6  2  1  0  0  0  0
  7 26  1  1  0  0  0
  8 16  1  6  0  0  0
  8 14  1  0  0  0  0
  9 11  2  0  0  0  0
 10  4  1  0  0  0  0
 11 12  1  0  0  0  0
 12 10  2  0  0  0  0
 13  9  1  0  0  0  0
 13  8  1  0  0  0  0
 14 10  1  0  0  0  0
 15 11  1  0  0  0  0
 16 19  1  0  0  0  0
 17 18  1  0  0  0  0
 19 22  1  0  0  0  0
 20 23  1  6  0  0  0
 20 19  1  0  0  0  0
 20 17  1  0  0  0  0
 22 18  1  0  0  0  0
 22 21  2  0  0  0  0
 25 23  1  0  0  0  0
 25 24  1  0  0  0  0
 26 28  1  0  0  0  0
 27 26  2  0  0  0  0
 30 28  1  0  0  0  0
 30 29  2  0  0  0  0
 31 29  1  0  0  0  0
 32 31  1  0  0  0  0
 34 32  1  0  0  0  0
 34 33  2  0  0  0  0
 35 36  1  0  0  0  0
 36 34  1  0  0  0  0
 37 36  2  0  0  0  0
M  END
>  <MODEL>
3

>  <REMARK>
 VINA RESULT:      -7.9      1.865      3.858
  Name = 
  11 active torsions:
  status: ('A' for Active; 'I' for Inactive)
    1  A    between atoms: C_2  and  C_7
    2  A    between atoms: C_2  and  C_33
    3  A    between atoms: C_3  and  S_37
    4  A    between atoms: N_6  and  C_16
    5  A    between atoms: C_7  and  C_24
    6  A    between atoms: C_8  and  C_27
    7  A    between atoms: C_10  and  C_25
    8  A    between atoms: C_12  and  C_28
    9  A    between atoms: C_16  and  N_18
   10  A    between atoms: N_26  and  S_37
   11  A    between atoms: C_27  and  C_31
                            x       y       z     vdW  Elec       q    Type
                         _______ _______ _______ _____ _____    ______ ____

>  <TORSDO>
F 11

$$$$
=
 OpenBabel10232411553D

 37 39  0  0  1  0  0  0  0  0999 V2000
  182.9970  178.5970  142.4100 C   0  0  0  0  0  2  0  0  0  0  0  0
  184.1820  179.2880  139.8840 C   0  0  0  0  0  0  0  0  0  0  0  0
  182.2730  178.2370  141.1150 C   0  0  0  0  0  2  0  0  0  0  0  0
  184.4970  178.5990  142.2250 C   0  0  0  0  0  0  0  0  0  0  0  0
  184.7280  179.8400  138.8510 N   0  0  0  0  0  2  0  0  0  0  0  0
  185.0230  178.9710  141.0490 C   0  0  0  0  0  3  0  0  0  0  0  0
  182.6790  179.1930  139.9930 C   0  0  2  0  0  3  0  0  0  0  0  0
  187.3160  176.8530  144.1350 C   0  0  1  0  0  3  0  0  0  0  0  0
  186.7350  178.0560  146.1630 N   0  0  0  0  0  0  0  0  0  0  0  0
  185.3820  178.2890  143.3740 C   0  0  0  0  0  0  0  0  0  0  0  0
  185.5170  178.4390  145.9050 C   0  0  0  0  0  0  0  0  0  0  0  0
  184.9620  178.5760  144.5790 N   0  0  0  0  0  0  0  0  0  0  0  0
  187.8050  177.7640  145.2270 C   0  0  0  0  0  2  0  0  0  0  0  0
  186.7430  177.7360  143.0590 C   0  0  0  0  0  2  0  0  0  0  0  0
  184.6620  178.7180  147.0060 N   0  0  0  0  0  1  0  0  0  0  0  0
  188.6800  175.8320  143.4720 S   0  0  0  0  0  0  0  0  0  0  0  0
  191.4360  178.8850  143.1830 C   0  0  0  0  0  2  0  0  0  0  0  0
  191.6780  178.3220  144.4690 O   0  0  0  0  0  0  0  0  0  0  0  0
  189.9260  177.0890  143.6120 N   0  0  0  0  0  0  0  0  0  0  0  0
  190.2810  178.0530  142.5790 C   0  0  2  0  0  3  0  0  0  0  0  0
  190.8050  176.5570  145.8080 C   0  0  0  0  0  2  0  0  0  0  0  0
  190.8030  177.2870  144.7010 C   0  0  0  0  0  0  0  0  0  0  0  0
  190.7100  177.3610  141.2850 C   0  0  0  0  0  2  0  0  0  0  0  0
  188.7300  178.5330  140.3690 C   0  0  0  0  0  1  0  0  0  0  0  0
  189.5890  177.2920  140.2590 C   0  0  0  0  0  2  0  0  0  0  0  0
  182.0420  178.7610  138.7020 C   0  0  0  0  0  0  0  0  0  0  0  0
  181.6390  179.5920  137.9010 O   0  0  0  0  0  0  0  0  0  0  0  0
  181.8690  177.3060  138.4110 C   0  0  0  0  0  2  0  0  0  0  0  0
  183.3950  177.0670  136.5600 N   0  0  0  0  0  0  0  0  0  0  0  0
  183.0930  176.7450  137.7640 C   0  0  0  0  0  3  0  0  0  0  0  0
  184.5710  176.5180  135.9400 C   0  0  0  0  0  2  0  0  0  0  0  0
  185.6540  177.4870  135.9990 N   0  0  0  0  0  2  0  0  0  0  0  0
  186.9680  176.2220  137.4560 O   0  0  0  0  0  0  0  0  0  0  0  0
  186.8400  177.2730  136.7710 C   0  0  0  0  0  0  0  0  0  0  0  0
  189.3310  177.8740  136.5780 C   0  0  0  0  0  1  0  0  0  0  0  0
  187.9110  178.2780  136.7690 C   0  0  0  0  0  0  0  0  0  0  0  0
  187.6350  179.4950  136.9310 O   0  0  0  0  0  0  0  0  0  0  0  0
  2  7  1  0  0  0  0
  2  6  1  0  0  0  0
  3  1  1  0  0  0  0
  4  1  1  0  0  0  0
  4 10  1  0  0  0  0
  5  2  2  0  0  0  0
  6  4  2  0  0  0  0
  7 26  1  6  0  0  0
  7  3  1  0  0  0  0
  8 16  1  6  0  0  0
  8 13  1  0  0  0  0
 10 12  2  0  0  0  0
 11  9  2  0  0  0  0
 11 15  1  0  0  0  0
 12 11  1  0  0  0  0
 13  9  1  0  0  0  0
 14 10  1  0  0  0  0
 14  8  1  0  0  0  0
 16 19  1  0  0  0  0
 17 18  1  0  0  0  0
 18 22  1  0  0  0  0
 19 22  1  0  0  0  0
 20 23  1  6  0  0  0
 20 17  1  0  0  0  0
 20 19  1  0  0  0  0
 22 21  2  0  0  0  0
 25 24  1  0  0  0  0
 25 23  1  0  0  0  0
 27 26  2  0  0  0  0
 28 26  1  0  0  0  0
 29 30  2  0  0  0  0
 30 28  1  0  0  0  0
 31 32  1  0  0  0  0
 31 29  1  0  0  0  0
 32 34  1  0  0  0  0
 34 33  2  0  0  0  0
 35 36  1  0  0  0  0
 36 34  1  0  0  0  0
 36 37  2  0  0  0  0
M  END
>  <MODEL>
4

>  <REMARK>
 VINA RESULT:      -7.7      3.037      8.571
  Name = 
  11 active torsions:
  status: ('A' for Active; 'I' for Inactive)
    1  A    between atoms: C_2  and  C_7
    2  A    between atoms: C_2  and  C_33
    3  A    between atoms: C_3  and  S_37
    4  A    between atoms: N_6  and  C_16
    5  A    between atoms: C_7  and  C_24
    6  A    between atoms: C_8  and  C_27
    7  A    between atoms: C_10  and  C_25
    8  A    between atoms: C_12  and  C_28
    9  A    between atoms: C_16  and  N_18
   10  A    between atoms: N_26  and  S_37
   11  A    between atoms: C_27  and  C_31
                            x       y       z     vdW  Elec       q    Type
                         _______ _______ _______ _____ _____    ______ ____

>  <TORSDO>
F 11

$$$$
=
 OpenBabel10232411553D

 37 39  0  0  1  0  0  0  0  0999 V2000
  182.7470  178.4410  142.8800 C   0  0  0  0  0  2  0  0  0  0  0  0
  185.5690  178.2120  143.3740 C   0  0  0  0  0  0  0  0  0  0  0  0
  183.3450  179.0760  144.1330 C   0  0  0  0  0  2  0  0  0  0  0  0
  183.7400  178.4170  141.7410 C   0  0  0  0  0  0  0  0  0  0  0  0
  186.7960  177.8520  143.5640 N   0  0  0  0  0  2  0  0  0  0  0  0
  185.0470  178.2620  141.9990 C   0  0  0  0  0  3  0  0  0  0  0  0
  184.6230  178.3430  144.5440 C   0  0  2  0  0  3  0  0  0  0  0  0
  183.5160  177.4140  138.0550 C   0  0  1  0  0  3  0  0  0  0  0  0
  181.9200  179.1950  137.6310 N   0  0  0  0  0  0  0  0  0  0  0  0
  183.2560  178.4610  140.3400 C   0  0  0  0  0  0  0  0  0  0  0  0
  182.1180  179.9780  138.6530 C   0  0  0  0  0  0  0  0  0  0  0  0
  182.7000  179.5630  139.9070 N   0  0  0  0  0  0  0  0  0  0  0  0
  182.1490  177.7660  137.5340 C   0  0  0  0  0  2  0  0  0  0  0  0
  183.3710  177.1960  139.5370 C   0  0  0  0  0  2  0  0  0  0  0  0
  181.7610  181.3480  138.5170 N   0  0  0  0  0  1  0  0  0  0  0  0
  184.1620  175.9100  137.2410 S   0  0  0  0  0  0  0  0  0  0  0  0
  187.4640  177.7720  135.6210 C   0  0  0  0  0  2  0  0  0  0  0  0
  186.4520  177.9440  134.6330 O   0  0  0  0  0  0  0  0  0  0  0  0
  185.4300  176.7410  136.3160 N   0  0  0  0  0  0  0  0  0  0  0  0
  186.7900  176.9910  136.7710 C   0  0  2  0  0  3  0  0  0  0  0  0
  184.1600  177.3630  134.3460 C   0  0  0  0  0  2  0  0  0  0  0  0
  185.2850  177.3470  135.0490 C   0  0  0  0  0  0  0  0  0  0  0  0
  186.8100  177.7900  138.0760 C   0  0  0  0  0  2  0  0  0  0  0  0
  188.2610  178.0740  140.0630 C   0  0  0  0  0  1  0  0  0  0  0  0
  188.2220  178.1010  138.5500 C   0  0  0  0  0  2  0  0  0  0  0  0
  185.2580  179.0440  145.7120 C   0  0  0  0  0  0  0  0  0  0  0  0
  185.4020  180.2570  145.7040 O   0  0  0  0  0  0  0  0  0  0  0  0
  185.7500  178.2460  146.8760 C   0  0  0  0  0  2  0  0  0  0  0  0
  187.8380  177.3380  147.6670 N   0  0  0  0  0  0  0  0  0  0  0  0
  187.2340  178.0880  146.8210 C   0  0  0  0  0  3  0  0  0  0  0  0
  189.2680  177.1950  147.6130 C   0  0  0  0  0  2  0  0  0  0  0  0
  189.7050  177.1490  146.2270 N   0  0  0  0  0  2  0  0  0  0  0  0
  191.9500  176.7710  146.7430 O   0  0  0  0  0  0  0  0  0  0  0  0
  191.0670  176.9190  145.8550 C   0  0  0  0  0  0  0  0  0  0  0  0
  191.6080  178.1040  143.6390 C   0  0  0  0  0  1  0  0  0  0  0  0
  191.4420  176.8570  144.4360 C   0  0  0  0  0  0  0  0  0  0  0  0
  191.6280  175.7430  143.8790 O   0  0  0  0  0  0  0  0  0  0  0  0
  1  3  1  0  0  0  0
  2  5  2  0  0  0  0
  2  7  1  0  0  0  0
  3  7  1  0  0  0  0
  4  6  2  0  0  0  0
  4  1  1  0  0  0  0
  6  2  1  0  0  0  0
  7 26  1  1  0  0  0
  8 16  1  6  0  0  0
  8 14  1  0  0  0  0
  9 11  2  0  0  0  0
 10  4  1  0  0  0  0
 11 12  1  0  0  0  0
 12 10  2  0  0  0  0
 13  9  1  0  0  0  0
 13  8  1  0  0  0  0
 14 10  1  0  0  0  0
 15 11  1  0  0  0  0
 17 20  1  0  0  0  0
 18 22  1  0  0  0  0
 18 17  1  0  0  0  0
 19 20  1  0  0  0  0
 19 16  1  0  0  0  0
 20 23  1  1  0  0  0
 21 22  2  0  0  0  0
 22 19  1  0  0  0  0
 23 25  1  0  0  0  0
 25 24  1  0  0  0  0
 26 28  1  0  0  0  0
 27 26  2  0  0  0  0
 30 28  1  0  0  0  0
 30 29  2  0  0  0  0
 31 29  1  0  0  0  0
 32 31  1  0  0  0  0
 34 32  1  0  0  0  0
 34 33  2  0  0  0  0
 35 36  1  0  0  0  0
 36 34  1  0  0  0  0
 37 36  2  0  0  0  0
M  END
>  <MODEL>
5

>  <REMARK>
 VINA RESULT:      -7.6      2.851      5.113
  Name = 
  11 active torsions:
  status: ('A' for Active; 'I' for Inactive)
    1  A    between atoms: C_2  and  C_7
    2  A    between atoms: C_2  and  C_33
    3  A    between atoms: C_3  and  S_37
    4  A    between atoms: N_6  and  C_16
    5  A    between atoms: C_7  and  C_24
    6  A    between atoms: C_8  and  C_27
    7  A    between atoms: C_10  and  C_25
    8  A    between atoms: C_12  and  C_28
    9  A    between atoms: C_16  and  N_18
   10  A    between atoms: N_26  and  S_37
   11  A    between atoms: C_27  and  C_31
                            x       y       z     vdW  Elec       q    Type
                         _______ _______ _______ _____ _____    ______ ____

>  <TORSDO>
F 11

$$$$
=
 OpenBabel10232411553D

 37 39  0  0  1  0  0  0  0  0999 V2000
  187.9800  178.2600  141.3080 C   0  0  0  0  0  2  0  0  0  0  0  0
  185.3170  178.9990  140.5200 C   0  0  0  0  0  0  0  0  0  0  0  0
  186.8350  178.1250  142.3090 C   0  0  0  0  0  2  0  0  0  0  0  0
  187.5030  178.0630  139.8880 C   0  0  0  0  0  0  0  0  0  0  0  0
  184.2320  179.5580  140.0950 N   0  0  0  0  0  2  0  0  0  0  0  0
  186.2710  178.4610  139.5370 C   0  0  0  0  0  3  0  0  0  0  0  0
  185.7150  179.1100  141.9730 C   0  0  2  0  0  3  0  0  0  0  0  0
  188.5690  176.1900  136.7270 C   0  0  1  0  0  3  0  0  0  0  0  0
  190.9090  176.6130  137.2220 N   0  0  0  0  0  0  0  0  0  0  0  0
  188.4340  177.5280  138.8650 C   0  0  0  0  0  0  0  0  0  0  0  0
  190.8640  176.8970  138.4920 C   0  0  0  0  0  0  0  0  0  0  0  0
  189.6910  177.3670  139.1890 N   0  0  0  0  0  0  0  0  0  0  0  0
  189.8640  176.7700  136.2270 C   0  0  0  0  0  2  0  0  0  0  0  0
  187.8740  177.2820  137.4930 C   0  0  0  0  0  2  0  0  0  0  0  0
  192.0480  176.7040  139.2570 N   0  0  0  0  0  1  0  0  0  0  0  0
  187.5290  175.6130  135.3380 S   0  0  0  0  0  0  0  0  0  0  0  0
  184.7470  173.4880  137.5160 C   0  0  0  0  0  2  0  0  0  0  0  0
  185.9560  172.7530  137.6890 O   0  0  0  0  0  0  0  0  0  0  0  0
  186.5330  174.5110  136.3100 N   0  0  0  0  0  0  0  0  0  0  0  0
  185.1200  174.6880  136.6160 C   0  0  2  0  0  3  0  0  0  0  0  0
  188.2240  172.9100  136.9820 C   0  0  0  0  0  2  0  0  0  0  0  0
  186.9750  173.3560  136.9910 C   0  0  0  0  0  0  0  0  0  0  0  0
  184.8580  176.0190  137.3240 C   0  0  0  0  0  2  0  0  0  0  0  0
  183.5380  176.3100  135.2490 C   0  0  0  0  0  1  0  0  0  0  0  0
  184.1540  177.0280  136.4310 C   0  0  0  0  0  2  0  0  0  0  0  0
  184.5510  178.8930  142.8980 C   0  0  0  0  0  0  0  0  0  0  0  0
  183.7420  178.0030  142.6790 O   0  0  0  0  0  0  0  0  0  0  0  0
  184.3610  179.7940  144.0750 C   0  0  0  0  0  2  0  0  0  0  0  0
  184.9460  178.7370  146.1610 N   0  0  0  0  0  0  0  0  0  0  0  0
  185.3230  179.4510  145.1660 C   0  0  0  0  0  3  0  0  0  0  0  0
  185.8730  178.4160  147.2110 C   0  0  0  0  0  2  0  0  0  0  0  0
  187.0970  177.8790  146.6380 N   0  0  0  0  0  2  0  0  0  0  0  0
  188.3740  178.2040  148.5650 O   0  0  0  0  0  0  0  0  0  0  0  0
  188.3200  177.7870  147.3760 C   0  0  0  0  0  0  0  0  0  0  0  0
  189.6720  177.2070  145.2690 C   0  0  0  0  0  1  0  0  0  0  0  0
  189.5170  177.2110  146.7500 C   0  0  0  0  0  0  0  0  0  0  0  0
  190.4260  176.7130  147.4640 O   0  0  0  0  0  0  0  0  0  0  0  0
  1  3  1  0  0  0  0
  2  7  1  0  0  0  0
  4  1  1  0  0  0  0
  5  2  2  0  0  0  0
  6  4  2  0  0  0  0
  6  2  1  0  0  0  0
  7  3  1  0  0  0  0
  7 26  1  1  0  0  0
  8 16  1  6  0  0  0
  8 14  1  0  0  0  0
  9 11  2  0  0  0  0
 10 12  2  0  0  0  0
 10  4  1  0  0  0  0
 11 12  1  0  0  0  0
 11 15  1  0  0  0  0
 13  8  1  0  0  0  0
 13  9  1  0  0  0  0
 14 10  1  0  0  0  0
 16 19  1  0  0  0  0
 17 18  1  0  0  0  0
 19 20  1  0  0  0  0
 19 22  1  0  0  0  0
 20 23  1  1  0  0  0
 20 17  1  0  0  0  0
 21 22  2  0  0  0  0
 22 18  1  0  0  0  0
 24 25  1  0  0  0  0
 25 23  1  0  0  0  0
 26 28  1  0  0  0  0
 27 26  2  0  0  0  0
 28 30  1  0  0  0  0
 29 31  1  0  0  0  0
 30 29  2  0  0  0  0
 32 31  1  0  0  0  0
 32 34  1  0  0  0  0
 34 33  2  0  0  0  0
 35 36  1  0  0  0  0
 36 34  1  0  0  0  0
 36 37  2  0  0  0  0
M  END
>  <MODEL>
6

>  <REMARK>
 VINA RESULT:      -7.4      2.220      5.169
  Name = 
  11 active torsions:
  status: ('A' for Active; 'I' for Inactive)
    1  A    between atoms: C_2  and  C_7
    2  A    between atoms: C_2  and  C_33
    3  A    between atoms: C_3  and  S_37
    4  A    between atoms: N_6  and  C_16
    5  A    between atoms: C_7  and  C_24
    6  A    between atoms: C_8  and  C_27
    7  A    between atoms: C_10  and  C_25
    8  A    between atoms: C_12  and  C_28
    9  A    between atoms: C_16  and  N_18
   10  A    between atoms: N_26  and  S_37
   11  A    between atoms: C_27  and  C_31
                            x       y       z     vdW  Elec       q    Type
                         _______ _______ _______ _____ _____    ______ ____

>  <TORSDO>
F 11

$$$$
=
 OpenBabel10232411553D

 37 39  0  0  1  0  0  0  0  0999 V2000
  187.8800  178.3390  141.4560 C   0  0  0  0  0  2  0  0  0  0  0  0
  185.2160  179.0060  140.6100 C   0  0  0  0  0  0  0  0  0  0  0  0
  186.7190  178.1760  142.4330 C   0  0  0  0  0  2  0  0  0  0  0  0
  187.4380  178.1260  140.0270 C   0  0  0  0  0  0  0  0  0  0  0  0
  184.1260  179.5360  140.1620 N   0  0  0  0  0  2  0  0  0  0  0  0
  186.2040  178.4910  139.6500 C   0  0  0  0  0  3  0  0  0  0  0  0
  185.5800  179.1310  142.0710 C   0  0  2  0  0  3  0  0  0  0  0  0
  188.6170  176.2800  136.8890 C   0  0  1  0  0  3  0  0  0  0  0  0
  190.9350  176.7550  137.4370 N   0  0  0  0  0  0  0  0  0  0  0  0
  188.4030  177.6130  139.0240 C   0  0  0  0  0  0  0  0  0  0  0  0
  190.8550  177.0370  138.7060 C   0  0  0  0  0  0  0  0  0  0  0  0
  189.6560  177.4800  139.3770 N   0  0  0  0  0  0  0  0  0  0  0  0
  189.9100  176.8890  136.4190 C   0  0  0  0  0  2  0  0  0  0  0  0
  187.8800  177.3560  137.6400 C   0  0  0  0  0  2  0  0  0  0  0  0
  192.0260  176.8700  139.4970 N   0  0  0  0  0  1  0  0  0  0  0  0
  187.6220  175.6800  135.4770 S   0  0  0  0  0  0  0  0  0  0  0  0
  185.2560  173.1560  137.7200 C   0  0  0  0  0  2  0  0  0  0  0  0
  184.4530  174.3220  137.5510 O   0  0  0  0  0  0  0  0  0  0  0  0
  186.4280  174.8080  136.4610 N   0  0  0  0  0  0  0  0  0  0  0  0
  186.5750  173.4510  136.9710 C   0  0  2  0  0  3  0  0  0  0  0  0
  184.6390  176.4430  136.4850 C   0  0  0  0  0  2  0  0  0  0  0  0
  185.1410  175.2630  136.8220 C   0  0  0  0  0  0  0  0  0  0  0  0
  186.8140  172.4470  135.8420 C   0  0  0  0  0  2  0  0  0  0  0  0
  188.0630  170.3460  135.4460 C   0  0  0  0  0  1  0  0  0  0  0  0
  188.1740  171.7730  135.9350 C   0  0  0  0  0  2  0  0  0  0  0  0
  184.4040  178.8860  142.9730 C   0  0  0  0  0  0  0  0  0  0  0  0
  183.4960  178.1470  142.6210 O   0  0  0  0  0  0  0  0  0  0  0  0
  184.3250  179.5780  144.2950 C   0  0  0  0  0  2  0  0  0  0  0  0
  185.0960  179.0210  146.5100 N   0  0  0  0  0  0  0  0  0  0  0  0
  185.3260  179.0130  145.2490 C   0  0  0  0  0  3  0  0  0  0  0  0
  186.0660  178.4830  147.4240 C   0  0  0  0  0  2  0  0  0  0  0  0
  187.2430  178.0460  146.6900 N   0  0  0  0  0  2  0  0  0  0  0  0
  188.5580  177.7390  148.5940 O   0  0  0  0  0  0  0  0  0  0  0  0
  188.4630  177.6740  147.3380 C   0  0  0  0  0  0  0  0  0  0  0  0
  189.5030  177.0800  145.0640 C   0  0  0  0  0  1  0  0  0  0  0  0
  189.6100  177.2160  146.5430 C   0  0  0  0  0  0  0  0  0  0  0  0
  190.6990  176.9340  147.1080 O   0  0  0  0  0  0  0  0  0  0  0  0
  1  3  1  0  0  0  0
  2  7  1  0  0  0  0
  4  1  1  0  0  0  0
  5  2  2  0  0  0  0
  6  4  2  0  0  0  0
  6  2  1  0  0  0  0
  7  3  1  0  0  0  0
  7 26  1  1  0  0  0
  8 16  1  6  0  0  0
  8 14  1  0  0  0  0
  9 11  2  0  0  0  0
 10 12  2  0  0  0  0
 10  4  1  0  0  0  0
 11 12  1  0  0  0  0
 11 15  1  0  0  0  0
 13  8  1  0  0  0  0
 13  9  1  0  0  0  0
 14 10  1  0  0  0  0
 16 19  1  0  0  0  0
 18 17  1  0  0  0  0
 19 22  1  0  0  0  0
 19 20  1  0  0  0  0
 20 23  1  6  0  0  0
 20 17  1  0  0  0  0
 21 22  2  0  0  0  0
 22 18  1  0  0  0  0
 23 25  1  0  0  0  0
 24 25  1  0  0  0  0
 26 28  1  0  0  0  0
 27 26  2  0  0  0  0
 28 30  1  0  0  0  0
 29 31  1  0  0  0  0
 30 29  2  0  0  0  0
 32 34  1  0  0  0  0
 32 31  1  0  0  0  0
 34 33  2  0  0  0  0
 35 36  1  0  0  0  0
 36 37  2  0  0  0  0
 36 34  1  0  0  0  0
M  END
>  <MODEL>
7

>  <REMARK>
 VINA RESULT:      -7.3      2.337      4.960
  Name = 
  11 active torsions:
  status: ('A' for Active; 'I' for Inactive)
    1  A    between atoms: C_2  and  C_7
    2  A    between atoms: C_2  and  C_33
    3  A    between atoms: C_3  and  S_37
    4  A    between atoms: N_6  and  C_16
    5  A    between atoms: C_7  and  C_24
    6  A    between atoms: C_8  and  C_27
    7  A    between atoms: C_10  and  C_25
    8  A    between atoms: C_12  and  C_28
    9  A    between atoms: C_16  and  N_18
   10  A    between atoms: N_26  and  S_37
   11  A    between atoms: C_27  and  C_31
                            x       y       z     vdW  Elec       q    Type
                         _______ _______ _______ _____ _____    ______ ____

>  <TORSDO>
F 11

$$$$
=
 OpenBabel10232411553D

 37 39  0  0  1  0  0  0  0  0999 V2000
  190.6090  176.8920  139.4060 C   0  0  0  0  0  2  0  0  0  0  0  0
  188.7470  178.2370  141.1330 C   0  0  0  0  0  0  0  0  0  0  0  0
  190.8320  176.8690  140.9160 C   0  0  0  0  0  2  0  0  0  0  0  0
  189.1400  176.9670  139.0620 C   0  0  0  0  0  0  0  0  0  0  0  0
  187.9550  179.0490  141.7530 N   0  0  0  0  0  2  0  0  0  0  0  0
  188.3020  177.6420  139.8630 C   0  0  0  0  0  3  0  0  0  0  0  0
  190.1860  178.0910  141.5690 C   0  0  2  0  0  3  0  0  0  0  0  0
  186.7010  176.3330  136.1830 C   0  0  1  0  0  3  0  0  0  0  0  0
  188.2210  174.7120  135.2050 N   0  0  0  0  0  0  0  0  0  0  0  0
  188.6490  176.3840  137.7900 C   0  0  0  0  0  0  0  0  0  0  0  0
  188.9850  174.4190  136.2180 C   0  0  0  0  0  0  0  0  0  0  0  0
  189.1820  175.2650  137.3710 N   0  0  0  0  0  0  0  0  0  0  0  0
  187.4800  175.9350  134.9600 C   0  0  0  0  0  2  0  0  0  0  0  0
  187.6210  177.1710  137.0290 C   0  0  0  0  0  2  0  0  0  0  0  0
  189.6550  173.1640  136.2020 N   0  0  0  0  0  1  0  0  0  0  0  0
  185.2020  177.2770  135.7290 S   0  0  0  0  0  0  0  0  0  0  0  0
  182.7530  176.1860  138.8610 C   0  0  0  0  0  2  0  0  0  0  0  0
  183.0580  174.9520  138.2160 O   0  0  0  0  0  0  0  0  0  0  0  0
  184.1550  176.5530  136.9680 N   0  0  0  0  0  0  0  0  0  0  0  0
  183.5030  177.2700  138.0550 C   0  0  2  0  0  3  0  0  0  0  0  0
  184.3370  174.2180  136.3460 C   0  0  0  0  0  2  0  0  0  0  0  0
  183.8690  175.1800  137.1290 C   0  0  0  0  0  0  0  0  0  0  0  0
  184.5150  178.0140  138.9270 C   0  0  0  0  0  2  0  0  0  0  0  0
  182.7530  179.7390  138.6960 C   0  0  0  0  0  1  0  0  0  0  0  0
  184.2050  179.4980  139.0480 C   0  0  0  0  0  2  0  0  0  0  0  0
  190.3190  178.0010  143.0630 C   0  0  0  0  0  0  0  0  0  0  0  0
  190.7870  178.9310  143.7020 O   0  0  0  0  0  0  0  0  0  0  0  0
  189.9090  176.7490  143.7690 C   0  0  0  0  0  2  0  0  0  0  0  0
  188.8230  177.3010  145.8490 N   0  0  0  0  0  0  0  0  0  0  0  0
  188.6990  176.9880  144.6120 C   0  0  0  0  0  3  0  0  0  0  0  0
  187.6540  177.5220  146.6570 C   0  0  0  0  0  2  0  0  0  0  0  0
  186.4950  177.7180  145.8010 N   0  0  0  0  0  2  0  0  0  0  0  0
  185.6480  179.5140  147.0280 O   0  0  0  0  0  0  0  0  0  0  0  0
  185.5290  178.7470  146.0350 C   0  0  0  0  0  0  0  0  0  0  0  0
  184.5810  178.8020  143.6460 C   0  0  0  0  0  1  0  0  0  0  0  0
  184.3920  178.9120  145.1190 C   0  0  0  0  0  0  0  0  0  0  0  0
  183.2430  179.1490  145.5750 O   0  0  0  0  0  0  0  0  0  0  0  0
  1  3  1  0  0  0  0
  2  7  1  0  0  0  0
  2  5  2  0  0  0  0
  3  7  1  0  0  0  0
  4  1  1  0  0  0  0
  4  6  2  0  0  0  0
  6  2  1  0  0  0  0
  7 26  1  1  0  0  0
  8 16  1  6  0  0  0
  8 14  1  0  0  0  0
  9 11  2  0  0  0  0
 10  4  1  0  0  0  0
 11 12  1  0  0  0  0
 12 10  2  0  0  0  0
 13  9  1  0  0  0  0
 13  8  1  0  0  0  0
 14 10  1  0  0  0  0
 15 11  1  0  0  0  0
 16 19  1  0  0  0  0
 18 17  1  0  0  0  0
 19 22  1  0  0  0  0
 19 20  1  0  0  0  0
 20 17  1  0  0  0  0
 20 23  1  1  0  0  0
 21 22  2  0  0  0  0
 22 18  1  0  0  0  0
 23 25  1  0  0  0  0
 24 25  1  0  0  0  0
 26 27  2  0  0  0  0
 26 28  1  0  0  0  0
 28 30  1  0  0  0  0
 29 31  1  0  0  0  0
 30 29  2  0  0  0  0
 32 34  1  0  0  0  0
 32 31  1  0  0  0  0
 34 33  2  0  0  0  0
 35 36  1  0  0  0  0
 36 37  2  0  0  0  0
 36 34  1  0  0  0  0
M  END
>  <MODEL>
8

>  <REMARK>
 VINA RESULT:      -7.2      2.169      4.597
  Name = 
  11 active torsions:
  status: ('A' for Active; 'I' for Inactive)
    1  A    between atoms: C_2  and  C_7
    2  A    between atoms: C_2  and  C_33
    3  A    between atoms: C_3  and  S_37
    4  A    between atoms: N_6  and  C_16
    5  A    between atoms: C_7  and  C_24
    6  A    between atoms: C_8  and  C_27
    7  A    between atoms: C_10  and  C_25
    8  A    between atoms: C_12  and  C_28
    9  A    between atoms: C_16  and  N_18
   10  A    between atoms: N_26  and  S_37
   11  A    between atoms: C_27  and  C_31
                            x       y       z     vdW  Elec       q    Type
                         _______ _______ _______ _____ _____    ______ ____

>  <TORSDO>
F 11

$$$$
=
 OpenBabel10232411553D

 37 39  0  0  1  0  0  0  0  0999 V2000
  186.1830  178.4500  141.8830 C   0  0  0  0  0  2  0  0  0  0  0  0
  184.7440  178.7530  144.3530 C   0  0  0  0  0  0  0  0  0  0  0  0
  186.6940  177.7530  143.1410 C   0  0  0  0  0  2  0  0  0  0  0  0
  184.6790  178.5910  141.8980 C   0  0  0  0  0  0  0  0  0  0  0  0
  184.1210  179.1450  145.4140 N   0  0  0  0  0  2  0  0  0  0  0  0
  184.0390  178.7780  143.0620 C   0  0  0  0  0  3  0  0  0  0  0  0
  186.2340  178.5040  144.3910 C   0  0  2  0  0  3  0  0  0  0  0  0
  183.5200  177.3910  138.4540 C   0  0  1  0  0  3  0  0  0  0  0  0
  182.2010  179.4080  138.1560 N   0  0  0  0  0  0  0  0  0  0  0  0
  183.9280  178.6270  140.6190 C   0  0  0  0  0  0  0  0  0  0  0  0
  182.7400  180.2090  139.0300 C   0  0  0  0  0  0  0  0  0  0  0  0
  183.4910  179.7810  140.1850 N   0  0  0  0  0  0  0  0  0  0  0  0
  182.1560  177.9580  138.1720 C   0  0  0  0  0  2  0  0  0  0  0  0
  183.6530  177.3100  139.9510 C   0  0  0  0  0  2  0  0  0  0  0  0
  182.6030  181.6100  138.8180 N   0  0  0  0  0  1  0  0  0  0  0  0
  183.7140  175.7370  137.6980 S   0  0  0  0  0  0  0  0  0  0  0  0
  186.6090  176.8640  134.9880 C   0  0  0  0  0  2  0  0  0  0  0  0
  185.3840  177.2070  134.3460 O   0  0  0  0  0  0  0  0  0  0  0  0
  184.7500  176.2760  136.3600 N   0  0  0  0  0  0  0  0  0  0  0  0
  186.2060  176.2630  136.3530 C   0  0  2  0  0  3  0  0  0  0  0  0
  183.0550  177.0840  134.8270 C   0  0  0  0  0  2  0  0  0  0  0  0
  184.3220  176.8640  135.1500 C   0  0  0  0  0  0  0  0  0  0  0  0
  186.7820  177.0770  137.5140 C   0  0  0  0  0  2  0  0  0  0  0  0
  188.7740  178.4450  136.9730 C   0  0  0  0  0  1  0  0  0  0  0  0
  187.2640  178.4530  137.0810 C   0  0  0  0  0  2  0  0  0  0  0  0
  186.6520  177.7490  145.6210 C   0  0  0  0  0  0  0  0  0  0  0  0
  185.9200  176.9000  146.1060 O   0  0  0  0  0  0  0  0  0  0  0  0
  187.9570  178.0650  146.2770 C   0  0  0  0  0  2  0  0  0  0  0  0
  190.0070  178.2980  145.0310 N   0  0  0  0  0  0  0  0  0  0  0  0
  189.0970  177.5170  145.4820 C   0  0  0  0  0  3  0  0  0  0  0  0
  191.0970  177.7660  144.2600 C   0  0  0  0  0  2  0  0  0  0  0  0
  190.8520  177.9890  142.8440 N   0  0  0  0  0  2  0  0  0  0  0  0
  190.1570  175.8010  142.4190 O   0  0  0  0  0  0  0  0  0  0  0  0
  190.3670  176.9620  141.9730 C   0  0  0  0  0  0  0  0  0  0  0  0
  190.9800  176.6760  139.4940 C   0  0  0  0  0  1  0  0  0  0  0  0
  190.1140  177.2560  140.5570 C   0  0  0  0  0  0  0  0  0  0  0  0
  189.1580  178.0070  140.2280 O   0  0  0  0  0  0  0  0  0  0  0  0
  1  4  1  0  0  0  0
  1  3  1  0  0  0  0
  2  7  1  0  0  0  0
  2  5  2  0  0  0  0
  3  7  1  0  0  0  0
  4  6  2  0  0  0  0
  6  2  1  0  0  0  0
  7 26  1  1  0  0  0
  8 16  1  6  0  0  0
  8 14  1  0  0  0  0
  9 13  1  0  0  0  0
  9 11  2  0  0  0  0
 10  4  1  0  0  0  0
 11 12  1  0  0  0  0
 12 10  2  0  0  0  0
 13  8  1  0  0  0  0
 14 10  1  0  0  0  0
 15 11  1  0  0  0  0
 17 20  1  0  0  0  0
 18 17  1  0  0  0  0
 18 22  1  0  0  0  0
 19 16  1  0  0  0  0
 20 19  1  0  0  0  0
 20 23  1  1  0  0  0
 21 22  2  0  0  0  0
 22 19  1  0  0  0  0
 24 25  1  0  0  0  0
 25 23  1  0  0  0  0
 26 27  2  0  0  0  0
 26 28  1  0  0  0  0
 29 30  2  0  0  0  0
 30 28  1  0  0  0  0
 31 29  1  0  0  0  0
 32 31  1  0  0  0  0
 34 33  2  0  0  0  0
 34 32  1  0  0  0  0
 35 36  1  0  0  0  0
 36 34  1  0  0  0  0
 37 36  2  0  0  0  0
M  END
>  <MODEL>
9

>  <REMARK>
 VINA RESULT:      -7.1      2.681      5.223
  Name = 
  11 active torsions:
  status: ('A' for Active; 'I' for Inactive)
    1  A    between atoms: C_2  and  C_7
    2  A    between atoms: C_2  and  C_33
    3  A    between atoms: C_3  and  S_37
    4  A    between atoms: N_6  and  C_16
    5  A    between atoms: C_7  and  C_24
    6  A    between atoms: C_8  and  C_27
    7  A    between atoms: C_10  and  C_25
    8  A    between atoms: C_12  and  C_28
    9  A    between atoms: C_16  and  N_18
   10  A    between atoms: N_26  and  S_37
   11  A    between atoms: C_27  and  C_31
                            x       y       z     vdW  Elec       q    Type
                         _______ _______ _______ _____ _____    ______ ____

>  <TORSDO>
F 11

$$$$
