=
 OpenBabel10232409493D

 45 50  0  0  1  0  0  0  0  0999 V2000
  189.5790  177.1810  140.3250 C   0  0  0  0  0  2  0  0  0  0  0  0
  193.2590  177.1180  138.2480 C   0  0  0  0  0  2  0  0  0  0  0  0
  192.7510  175.1690  136.6610 C   0  0  0  0  0  0  0  0  0  0  0  0
  189.6510  176.3710  139.1780 O   0  0  0  0  0  0  0  0  0  0  0  0
  192.0440  176.6380  139.0480 C   0  0  1  0  0  3  0  0  0  0  0  0
  189.1500  174.5750  136.3420 O   0  0  0  0  0  0  0  0  0  0  0  0
  192.0610  177.2930  140.4260 C   0  0  0  0  0  2  0  0  0  0  0  0
  190.5730  176.3790  136.9170 C   0  0  2  0  0  3  0  0  0  0  0  0
  190.4310  174.0700  136.4220 C   0  0  0  0  0  0  0  0  0  0  0  0
  190.6760  176.9050  138.3700 C   0  0  1  0  0  3  0  0  0  0  0  0
  189.1280  175.9860  136.5270 C   0  0  1  0  0  3  0  0  0  0  0  0
  190.8030  176.9310  141.2080 C   0  0  1  0  0  3  0  0  0  0  0  0
  191.3920  175.1360  136.6840 C   0  0  0  0  0  0  0  0  0  0  0  0
  193.3990  176.5210  136.8390 C   0  0  0  0  0  2  0  0  0  0  0  0
  190.6730  172.8410  136.3150 O   0  0  0  0  0  0  0  0  0  0  0  0
  194.3360  173.2440  137.5270 C   0  0  1  0  0  3  0  0  0  0  0  0
  195.1630  174.2270  136.6870 C   0  0  0  0  0  2  0  0  0  0  0  0
  193.7050  174.0200  136.3820 C   0  0  2  0  0  0  0  0  0  0  0  0
  193.5080  173.3110  135.1890 O   0  0  0  0  0  1  0  0  0  0  0  0
  194.7000  171.8480  137.1440 C   0  0  0  0  0  3  0  0  0  0  0  0
  195.3560  171.0720  137.9970 C   0  0  0  0  0  3  0  0  0  0  0  0
  195.7230  169.6940  137.6560 C   0  0  0  0  0  0  0  0  0  0  0  0
  195.6140  168.7910  138.5250 O   0  0  0  0  0  0  0  0  0  0  0  0
  196.1990  169.3630  136.3530 N   0  0  0  0  0  1  0  0  0  0  0  0
  188.6690  176.6760  135.2430 C   0  0  1  0  0  3  0  0  0  0  0  0
  187.9320  175.6950  134.3460 C   0  0  0  0  0  1  0  0  0  0  0  0
  187.8190  177.8240  135.5450 N   0  0  0  0  0  2  0  0  0  0  0  0
  184.7950  179.0290  140.8080 C   0  0  0  0  0  2  0  0  0  0  0  0
  186.7140  177.7840  136.4510 C   0  0  0  0  0  0  0  0  0  0  0  0
  183.7750  177.9060  140.6320 C   0  0  0  0  0  2  0  0  0  0  0  0
  183.5110  177.6810  139.2110 N   0  0  0  0  0  2  0  0  0  0  0  0
  186.8850  178.2710  137.7510 C   0  0  0  0  0  3  0  0  0  0  0  0
  185.4620  177.2850  136.0540 C   0  0  0  0  0  3  0  0  0  0  0  0
  185.8180  178.2540  138.6510 C   0  0  0  0  0  0  0  0  0  0  0  0
  184.5780  177.7290  138.2610 C   0  0  0  0  0  0  0  0  0  0  0  0
  185.9690  178.7800  139.9730 N   0  0  0  0  0  2  0  0  0  0  0  0
  184.3960  177.2560  136.9590 C   0  0  0  0  0  3  0  0  0  0  0  0
  190.7280  177.7200  142.3580 O   0  0  0  0  0  0  0  0  0  0  0  0
  190.6020  176.6360  143.6580 P   0  0  2  0  0  0  0  0  0  0  0  0
  191.9580  176.4440  144.3020 O   0  0  0  0  0  1  0  0  0  0  0  0
  190.0490  175.1470  143.0790 O   0  0  0  0  0  0  0  0  0  0  0  0
  187.4500  176.9400  143.3190 C   0  0  0  0  0  1  0  0  0  0  0  0
  187.3100  177.7790  145.5330 O   0  0  0  0  0  0  0  0  0  0  0  0
  188.0570  177.3420  144.6210 C   0  0  0  0  0  0  0  0  0  0  0  0
  189.4660  177.2500  144.8510 N   0  0  0  0  0  2  0  0  0  0  0  0
  1 12  1  0  0  0  0
  3 13  2  0  0  0  0
  3 14  1  0  0  0  0
  4  1  1  0  0  0  0
  5  2  1  6  0  0  0
  5  7  1  0  0  0  0
  6  9  1  0  0  0  0
  6 11  1  0  0  0  0
  7 12  1  0  0  0  0
  8 13  1  1  0  0  0
  8 10  1  0  0  0  0
  9 13  1  0  0  0  0
 10  5  1  0  0  0  0
 10  4  1  1  0  0  0
 11 25  1  6  0  0  0
 11  8  1  0  0  0  0
 12 38  1  1  0  0  0
 14  2  1  0  0  0  0
 15  9  2  0  0  0  0
 16 20  1  6  0  0  0
 17 16  1  0  0  0  0
 18 19  1  6  0  0  0
 18  3  1  0  0  0  0
 18 17  1  0  0  0  0
 18 16  1  0  0  0  0
 20 21  2  0  0  0  0
 22 21  1  0  0  0  0
 22 23  2  0  0  0  0
 24 22  1  0  0  0  0
 25 26  1  6  0  0  0
 25 27  1  0  0  0  0
 27 29  1  0  0  0  0
 29 32  1  0  0  0  0
 30 28  1  0  0  0  0
 31 30  1  0  0  0  0
 32 34  2  0  0  0  0
 33 29  2  0  0  0  0
 33 37  1  0  0  0  0
 34 36  1  0  0  0  0
 35 34  1  0  0  0  0
 35 31  1  0  0  0  0
 36 28  1  0  0  0  0
 37 35  2  0  0  0  0
 38 39  1  0  0  0  0
 39 41  2  6  0  0  0
 39 40  1  0  0  0  0
 39 45  1  0  0  0  0
 42 44  1  0  0  0  0
 44 45  1  0  0  0  0
 44 43  2  0  0  0  0
M  END
>  <MODEL>
1

>  <REMARK>
 VINA RESULT:      -7.2      0.000      0.000
  Name = 
  9 active torsions:
  status: ('A' for Active; 'I' for Inactive)
    1  A    between atoms: C_2  and  C_3
    2  A    between atoms: C_7  and  N_30
    3  A    between atoms: C_9  and  N_30
    4  A    between atoms: C_9  and  C_33
    5  A    between atoms: P_10  and  N_41
    6  A    between atoms: P_10  and  O_43
    7  A    between atoms: C_11  and  C_13
    8  A    between atoms: C_15  and  C_26
    9  A    between atoms: C_34  and  O_43
                            x       y       z     vdW  Elec       q    Type
                         _______ _______ _______ _____ _____    ______ ____

>  <TORSDO>
F 9

$$$$
=
 OpenBabel10232409493D

 45 50  0  0  1  0  0  0  0  0999 V2000
  187.5740  178.3190  140.1870 C   0  0  0  0  0  2  0  0  0  0  0  0
  186.9190  177.9200  136.0320 C   0  0  0  0  0  2  0  0  0  0  0  0
  184.8470  176.4120  136.1310 C   0  0  0  0  0  0  0  0  0  0  0  0
  186.3650  177.7240  139.7860 O   0  0  0  0  0  0  0  0  0  0  0  0
  187.1230  177.5480  137.5030 C   0  0  1  0  0  3  0  0  0  0  0  0
  183.1920  176.5820  139.3950 O   0  0  0  0  0  0  0  0  0  0  0  0
  188.5360  177.9350  137.9270 C   0  0  0  0  0  2  0  0  0  0  0  0
  184.6200  177.9510  138.0920 C   0  0  2  0  0  3  0  0  0  0  0  0
  183.5840  175.8360  138.3040 C   0  0  0  0  0  0  0  0  0  0  0  0
  186.1010  178.1860  138.4790 C   0  0  1  0  0  3  0  0  0  0  0  0
  183.6820  177.9160  139.3230 C   0  0  1  0  0  3  0  0  0  0  0  0
  188.7370  177.6880  139.4190 C   0  0  1  0  0  3  0  0  0  0  0  0
  184.3970  176.6360  137.3940 C   0  0  0  0  0  0  0  0  0  0  0  0
  185.5440  177.5620  135.4460 C   0  0  0  0  0  2  0  0  0  0  0  0
  183.2830  174.6220  138.1810 O   0  0  0  0  0  0  0  0  0  0  0  0
  185.4370  173.9010  135.5680 C   0  0  1  0  0  3  0  0  0  0  0  0
  185.7600  174.7730  134.3460 C   0  0  0  0  0  2  0  0  0  0  0  0
  184.6490  175.1690  135.2790 C   0  0  2  0  0  0  0  0  0  0  0  0
  183.3840  174.9930  134.7040 O   0  0  0  0  0  1  0  0  0  0  0  0
  184.7290  172.6680  135.1160 C   0  0  0  0  0  3  0  0  0  0  0  0
  184.2380  171.8170  136.0080 C   0  0  0  0  0  3  0  0  0  0  0  0
  183.5310  170.6000  135.5990 C   0  0  0  0  0  0  0  0  0  0  0  0
  184.0060  169.4750  135.9040 O   0  0  0  0  0  0  0  0  0  0  0  0
  182.3120  170.6720  134.8610 N   0  0  0  0  0  1  0  0  0  0  0  0
  182.5160  178.8960  139.1870 C   0  0  1  0  0  3  0  0  0  0  0  0
  181.7040  178.5860  137.9410 C   0  0  0  0  0  1  0  0  0  0  0  0
  181.6640  178.8560  140.3720 N   0  0  0  0  0  2  0  0  0  0  0  0
  186.0000  178.7710  144.7860 C   0  0  0  0  0  2  0  0  0  0  0  0
  182.1570  178.8570  141.7130 C   0  0  0  0  0  0  0  0  0  0  0  0
  185.0540  178.3000  145.8880 C   0  0  0  0  0  2  0  0  0  0  0  0
  183.7040  178.8110  145.6490 N   0  0  0  0  0  2  0  0  0  0  0  0
  183.5220  178.6480  141.9330 C   0  0  0  0  0  3  0  0  0  0  0  0
  181.3020  179.0800  142.8050 C   0  0  0  0  0  3  0  0  0  0  0  0
  184.0310  178.6550  143.2340 C   0  0  0  0  0  0  0  0  0  0  0  0
  183.1710  178.8500  144.3240 C   0  0  0  0  0  0  0  0  0  0  0  0
  185.4300  178.4770  143.4720 N   0  0  0  0  0  2  0  0  0  0  0  0
  181.8090  179.0750  144.1090 C   0  0  0  0  0  3  0  0  0  0  0  0
  189.9430  178.2630  139.8260 O   0  0  0  0  0  0  0  0  0  0  0  0
  190.9060  176.9800  140.3790 P   0  0  2  0  0  0  0  0  0  0  0  0
  192.2850  177.4890  140.7370 O   0  0  0  0  0  1  0  0  0  0  0  0
  191.0430  175.8280  139.1490 O   0  0  0  0  0  0  0  0  0  0  0  0
  190.1110  178.4170  143.1080 C   0  0  0  0  0  1  0  0  0  0  0  0
  189.2920  176.3530  143.9380 O   0  0  0  0  0  0  0  0  0  0  0  0
  189.8310  176.9590  142.9770 C   0  0  0  0  0  0  0  0  0  0  0  0
  190.1690  176.2340  141.7910 N   0  0  0  0  0  2  0  0  0  0  0  0
  3 13  2  0  0  0  0
  4  1  1  0  0  0  0
  5  2  1  6  0  0  0
  5  7  1  0  0  0  0
  5 10  1  0  0  0  0
  7 12  1  0  0  0  0
  8 13  1  1  0  0  0
  8 10  1  0  0  0  0
  8 11  1  0  0  0  0
  9  6  1  0  0  0  0
 10  4  1  1  0  0  0
 11 25  1  6  0  0  0
 11  6  1  0  0  0  0
 12 38  1  1  0  0  0
 12  1  1  0  0  0  0
 13  9  1  0  0  0  0
 14  2  1  0  0  0  0
 14  3  1  0  0  0  0
 15  9  2  0  0  0  0
 16 20  1  6  0  0  0
 17 18  1  0  0  0  0
 17 16  1  0  0  0  0
 18 19  1  6  0  0  0
 18 16  1  0  0  0  0
 18  3  1  0  0  0  0
 20 21  2  0  0  0  0
 22 23  2  0  0  0  0
 22 21  1  0  0  0  0
 24 22  1  0  0  0  0
 25 26  1  6  0  0  0
 25 27  1  0  0  0  0
 27 29  1  0  0  0  0
 28 30  1  0  0  0  0
 29 32  2  0  0  0  0
 29 33  1  0  0  0  0
 31 30  1  0  0  0  0
 32 34  1  0  0  0  0
 33 37  2  0  0  0  0
 34 36  1  0  0  0  0
 34 35  2  0  0  0  0
 35 31  1  0  0  0  0
 36 28  1  0  0  0  0
 37 35  1  0  0  0  0
 38 39  1  0  0  0  0
 39 41  2  6  0  0  0
 39 40  1  0  0  0  0
 39 45  1  0  0  0  0
 44 42  1  0  0  0  0
 44 43  2  0  0  0  0
 45 44  1  0  0  0  0
M  END
>  <MODEL>
2

>  <REMARK>
 VINA RESULT:      -6.9      4.683      7.142
  Name = 
  9 active torsions:
  status: ('A' for Active; 'I' for Inactive)
    1  A    between atoms: C_2  and  C_3
    2  A    between atoms: C_7  and  N_30
    3  A    between atoms: C_9  and  N_30
    4  A    between atoms: C_9  and  C_33
    5  A    between atoms: P_10  and  N_41
    6  A    between atoms: P_10  and  O_43
    7  A    between atoms: C_11  and  C_13
    8  A    between atoms: C_15  and  C_26
    9  A    between atoms: C_34  and  O_43
                            x       y       z     vdW  Elec       q    Type
                         _______ _______ _______ _____ _____    ______ ____

>  <TORSDO>
F 9

$$$$
=
 OpenBabel10232409493D

 45 50  0  0  1  0  0  0  0  0999 V2000
  188.0050  178.3590  137.8850 C   0  0  0  0  0  2  0  0  0  0  0  0
  189.4180  174.4900  136.9390 C   0  0  0  0  0  2  0  0  0  0  0  0
  191.8740  174.8260  137.5980 C   0  0  0  0  0  0  0  0  0  0  0  0
  189.3050  178.0320  138.3100 O   0  0  0  0  0  0  0  0  0  0  0  0
  189.3120  176.0170  136.9850 C   0  0  1  0  0  3  0  0  0  0  0  0
  192.2990  177.6700  139.8680 O   0  0  0  0  0  0  0  0  0  0  0  0
  188.0260  176.4520  136.2890 C   0  0  0  0  0  2  0  0  0  0  0  0
  190.5690  176.1710  139.2590 C   0  0  2  0  0  3  0  0  0  0  0  0
  192.7690  176.9160  138.8120 C   0  0  0  0  0  0  0  0  0  0  0  0
  189.3560  176.6260  138.4100 C   0  0  1  0  0  3  0  0  0  0  0  0
  191.0090  177.2390  140.2880 C   0  0  1  0  0  3  0  0  0  0  0  0
  187.8280  177.9590  136.4190 C   0  0  1  0  0  3  0  0  0  0  0  0
  191.7960  175.8980  138.4300 C   0  0  0  0  0  0  0  0  0  0  0  0
  190.6830  173.8970  137.5780 C   0  0  0  0  0  2  0  0  0  0  0  0
  193.8780  177.1460  138.2680 O   0  0  0  0  0  0  0  0  0  0  0  0
  193.4660  175.1890  135.5240 C   0  0  1  0  0  3  0  0  0  0  0  0
  192.7720  173.8270  135.3840 C   0  0  0  0  0  2  0  0  0  0  0  0
  193.0560  174.3890  136.7500 C   0  0  2  0  0  0  0  0  0  0  0  0
  194.0810  173.6950  137.4060 O   0  0  0  0  0  1  0  0  0  0  0  0
  194.9130  175.0370  135.1950 C   0  0  0  0  0  3  0  0  0  0  0  0
  195.8190  175.7850  135.8120 C   0  0  0  0  0  3  0  0  0  0  0  0
  197.2500  175.6570  135.5180 C   0  0  0  0  0  0  0  0  0  0  0  0
  197.6660  175.8890  134.3540 O   0  0  0  0  0  0  0  0  0  0  0  0
  198.1760  175.2740  136.5330 N   0  0  0  0  0  1  0  0  0  0  0  0
  191.0820  176.6760  141.7080 C   0  0  1  0  0  3  0  0  0  0  0  0
  191.5130  177.7570  142.6860 C   0  0  0  0  0  1  0  0  0  0  0  0
  189.7970  176.1120  142.1100 N   0  0  0  0  0  2  0  0  0  0  0  0
  188.1360  178.1140  147.7250 C   0  0  0  0  0  2  0  0  0  0  0  0
  188.9280  176.7080  143.0760 C   0  0  0  0  0  0  0  0  0  0  0  0
  186.6390  178.1190  147.4240 C   0  0  0  0  0  2  0  0  0  0  0  0
  186.4080  178.4190  146.0110 N   0  0  0  0  0  2  0  0  0  0  0  0
  189.2910  176.6740  144.4260 C   0  0  0  0  0  3  0  0  0  0  0  0
  187.7340  177.3400  142.6930 C   0  0  0  0  0  3  0  0  0  0  0  0
  188.4650  177.2590  145.3880 C   0  0  0  0  0  0  0  0  0  0  0  0
  187.2600  177.8630  145.0060 C   0  0  0  0  0  0  0  0  0  0  0  0
  188.8410  177.2620  146.7690 N   0  0  0  0  0  2  0  0  0  0  0  0
  186.9000  177.9150  143.6570 C   0  0  0  0  0  3  0  0  0  0  0  0
  186.5440  178.2970  135.9870 O   0  0  0  0  0  0  0  0  0  0  0  0
  185.4900  177.7850  137.2140 P   0  0  2  0  0  0  0  0  0  0  0  0
  185.7930  176.3510  137.5880 O   0  0  0  0  0  1  0  0  0  0  0  0
  183.8990  177.8840  136.6470 O   0  0  0  0  0  0  0  0  0  0  0  0
  183.5750  177.8770  139.7560 C   0  0  0  0  0  1  0  0  0  0  0  0
  184.9640  179.5390  140.7220 O   0  0  0  0  0  0  0  0  0  0  0  0
  184.7610  178.7810  139.7390 C   0  0  0  0  0  0  0  0  0  0  0  0
  185.6630  178.8120  138.6300 N   0  0  0  0  0  2  0  0  0  0  0  0
  1  4  1  0  0  0  0
  2  5  1  0  0  0  0
  2 14  1  0  0  0  0
  3 13  2  0  0  0  0
  5  7  1  1  0  0  0
  5 10  1  0  0  0  0
  6 11  1  0  0  0  0
  7 12  1  0  0  0  0
  8 13  1  6  0  0  0
  8 11  1  0  0  0  0
  9  6  1  0  0  0  0
 10  4  1  6  0  0  0
 10  8  1  0  0  0  0
 11 25  1  1  0  0  0
 12 38  1  1  0  0  0
 12  1  1  0  0  0  0
 13  9  1  0  0  0  0
 14  3  1  0  0  0  0
 15  9  2  0  0  0  0
 16 20  1  1  0  0  0
 16 18  1  0  0  0  0
 17 16  1  0  0  0  0
 17 18  1  0  0  0  0
 18 19  1  1  0  0  0
 18  3  1  0  0  0  0
 20 21  2  0  0  0  0
 22 21  1  0  0  0  0
 22 24  1  0  0  0  0
 23 22  2  0  0  0  0
 25 27  1  0  0  0  0
 25 26  1  1  0  0  0
 27 29  1  0  0  0  0
 29 32  1  0  0  0  0
 30 28  1  0  0  0  0
 31 30  1  0  0  0  0
 32 34  2  0  0  0  0
 33 29  2  0  0  0  0
 33 37  1  0  0  0  0
 34 36  1  0  0  0  0
 35 34  1  0  0  0  0
 35 31  1  0  0  0  0
 36 28  1  0  0  0  0
 37 35  2  0  0  0  0
 38 39  1  0  0  0  0
 39 41  2  6  0  0  0
 39 40  1  0  0  0  0
 39 45  1  0  0  0  0
 44 42  1  0  0  0  0
 44 43  2  0  0  0  0
 45 44  1  0  0  0  0
M  END
>  <MODEL>
3

>  <REMARK>
 VINA RESULT:      -6.5      2.969      6.025
  Name = 
  9 active torsions:
  status: ('A' for Active; 'I' for Inactive)
    1  A    between atoms: C_2  and  C_3
    2  A    between atoms: C_7  and  N_30
    3  A    between atoms: C_9  and  N_30
    4  A    between atoms: C_9  and  C_33
    5  A    between atoms: P_10  and  N_41
    6  A    between atoms: P_10  and  O_43
    7  A    between atoms: C_11  and  C_13
    8  A    between atoms: C_15  and  C_26
    9  A    between atoms: C_34  and  O_43
                            x       y       z     vdW  Elec       q    Type
                         _______ _______ _______ _____ _____    ______ ____

>  <TORSDO>
F 9

$$$$
=
 OpenBabel10232409493D

 45 50  0  0  1  0  0  0  0  0999 V2000
  189.0060  174.0670  136.5800 C   0  0  0  0  0  2  0  0  0  0  0  0
  187.3520  177.8250  137.5810 C   0  0  0  0  0  2  0  0  0  0  0  0
  188.4600  178.1130  139.8760 C   0  0  0  0  0  0  0  0  0  0  0  0
  189.5370  174.7190  137.7070 O   0  0  0  0  0  0  0  0  0  0  0  0
  187.7650  176.3540  137.6900 C   0  0  1  0  0  3  0  0  0  0  0  0
  191.4130  175.9750  140.2420 O   0  0  0  0  0  0  0  0  0  0  0  0
  187.0040  175.5410  136.6470 C   0  0  0  0  0  2  0  0  0  0  0  0
  190.1750  176.9480  138.4720 C   0  0  2  0  0  3  0  0  0  0  0  0
  190.2910  176.5510  140.8010 C   0  0  0  0  0  0  0  0  0  0  0  0
  189.2850  176.0960  137.5340 C   0  0  1  0  0  3  0  0  0  0  0  0
  191.4980  176.2370  138.8450 C   0  0  1  0  0  3  0  0  0  0  0  0
  187.4770  174.0910  136.6460 C   0  0  1  0  0  3  0  0  0  0  0  0
  189.5120  177.2570  139.7890 C   0  0  0  0  0  0  0  0  0  0  0  0
  188.0150  178.7720  138.5930 C   0  0  0  0  0  2  0  0  0  0  0  0
  190.0080  176.4190  142.0180 O   0  0  0  0  0  0  0  0  0  0  0  0
  186.7710  177.6290  141.8460 C   0  0  1  0  0  3  0  0  0  0  0  0
  186.2510  178.8200  141.0290 C   0  0  0  0  0  2  0  0  0  0  0  0
  187.7300  178.5660  141.1300 C   0  0  2  0  0  0  0  0  0  0  0  0
  188.3790  179.5160  141.9290 O   0  0  0  0  0  1  0  0  0  0  0  0
  186.6420  177.9400  143.3000 C   0  0  0  0  0  3  0  0  0  0  0  0
  187.2130  177.1540  144.2030 C   0  0  0  0  0  3  0  0  0  0  0  0
  187.1120  177.4340  145.6390 C   0  0  0  0  0  0  0  0  0  0  0  0
  186.0010  177.7620  146.1290 O   0  0  0  0  0  0  0  0  0  0  0  0
  188.2550  177.3390  146.4870 N   0  0  0  0  0  1  0  0  0  0  0  0
  192.7220  177.1040  138.5490 C   0  0  1  0  0  3  0  0  0  0  0  0
  193.5860  177.2470  139.7910 C   0  0  0  0  0  1  0  0  0  0  0  0
  193.5030  176.5420  137.4500 N   0  0  0  0  0  2  0  0  0  0  0  0
  195.2700  170.6500  138.1150 C   0  0  0  0  0  2  0  0  0  0  0  0
  193.5440  175.1510  137.1280 C   0  0  0  0  0  0  0  0  0  0  0  0
  194.9010  170.2420  136.6910 C   0  0  0  0  0  2  0  0  0  0  0  0
  193.7590  171.0250  136.2200 N   0  0  0  0  0  2  0  0  0  0  0  0
  194.4570  174.3270  137.7940 C   0  0  0  0  0  3  0  0  0  0  0  0
  192.6750  174.5960  136.1730 C   0  0  0  0  0  3  0  0  0  0  0  0
  194.5090  172.9620  137.5050 C   0  0  0  0  0  0  0  0  0  0  0  0
  193.6610  172.4170  136.5310 C   0  0  0  0  0  0  0  0  0  0  0  0
  195.4140  172.1020  138.2030 N   0  0  0  0  0  2  0  0  0  0  0  0
  192.7350  173.2310  135.8740 C   0  0  0  0  0  3  0  0  0  0  0  0
  186.9440  173.4300  135.5380 O   0  0  0  0  0  0  0  0  0  0  0  0
  185.4890  172.7340  136.0670 P   0  0  2  0  0  0  0  0  0  0  0  0
  184.3170  173.5540  135.5750 O   0  0  0  0  0  0  0  0  0  0  0  0
  185.4760  172.7110  137.7590 O   0  0  0  0  0  1  0  0  0  0  0  0
  183.0660  170.7230  136.5390 C   0  0  0  0  0  1  0  0  0  0  0  0
  184.1880  169.0900  135.2360 O   0  0  0  0  0  0  0  0  0  0  0  0
  184.2160  170.2530  135.7150 C   0  0  0  0  0  0  0  0  0  0  0  0
  185.3510  171.0880  135.4660 N   0  0  0  0  0  2  0  0  0  0  0  0
  1 12  1  0  0  0  0
  1  4  1  0  0  0  0
  2  5  1  0  0  0  0
  2 14  1  0  0  0  0
  3 18  1  0  0  0  0
  5  7  1  6  0  0  0
  6  9  1  0  0  0  0
  8 11  1  0  0  0  0
  8 13  1  1  0  0  0
  9 15  2  0  0  0  0
 10  5  1  0  0  0  0
 10  4  1  1  0  0  0
 10  8  1  0  0  0  0
 11 25  1  1  0  0  0
 11  6  1  0  0  0  0
 12 38  1  6  0  0  0
 12  7  1  0  0  0  0
 13  3  2  0  0  0  0
 13  9  1  0  0  0  0
 14  3  1  0  0  0  0
 16 20  1  1  0  0  0
 17 18  1  0  0  0  0
 17 16  1  0  0  0  0
 18 16  1  0  0  0  0
 18 19  1  1  0  0  0
 20 21  2  0  0  0  0
 21 22  1  0  0  0  0
 22 23  2  0  0  0  0
 22 24  1  0  0  0  0
 25 26  1  1  0  0  0
 27 25  1  0  0  0  0
 28 36  1  0  0  0  0
 29 27  1  0  0  0  0
 29 32  1  0  0  0  0
 30 28  1  0  0  0  0
 31 35  1  0  0  0  0
 31 30  1  0  0  0  0
 33 29  2  0  0  0  0
 34 32  2  0  0  0  0
 34 36  1  0  0  0  0
 35 34  1  0  0  0  0
 37 33  1  0  0  0  0
 37 35  2  0  0  0  0
 38 39  1  0  0  0  0
 39 40  2  6  0  0  0
 39 41  1  0  0  0  0
 43 44  2  0  0  0  0
 44 42  1  0  0  0  0
 45 44  1  0  0  0  0
 45 39  1  0  0  0  0
M  END
>  <MODEL>
4

>  <REMARK>
 VINA RESULT:      -6.4      3.266      9.397
  Name = 
  9 active torsions:
  status: ('A' for Active; 'I' for Inactive)
    1  A    between atoms: C_2  and  C_3
    2  A    between atoms: C_7  and  N_30
    3  A    between atoms: C_9  and  N_30
    4  A    between atoms: C_9  and  C_33
    5  A    between atoms: P_10  and  N_41
    6  A    between atoms: P_10  and  O_43
    7  A    between atoms: C_11  and  C_13
    8  A    between atoms: C_15  and  C_26
    9  A    between atoms: C_34  and  O_43
                            x       y       z     vdW  Elec       q    Type
                         _______ _______ _______ _____ _____    ______ ____

>  <TORSDO>
F 9

$$$$
=
 OpenBabel10232409493D

 45 50  0  0  1  0  0  0  0  0999 V2000
  187.8450  174.0830  136.1880 C   0  0  0  0  0  2  0  0  0  0  0  0
  186.8780  177.9500  137.5910 C   0  0  0  0  0  2  0  0  0  0  0  0
  188.4630  178.0150  139.6060 C   0  0  0  0  0  0  0  0  0  0  0  0
  188.6690  174.6230  137.1900 O   0  0  0  0  0  0  0  0  0  0  0  0
  187.1320  176.4400  137.5800 C   0  0  1  0  0  3  0  0  0  0  0  0
  191.1610  175.5560  139.2980 O   0  0  0  0  0  0  0  0  0  0  0  0
  186.0840  175.7610  136.7040 C   0  0  0  0  0  2  0  0  0  0  0  0
  189.7050  176.7340  137.8490 C   0  0  2  0  0  3  0  0  0  0  0  0
  190.2530  176.2250  140.0930 C   0  0  0  0  0  0  0  0  0  0  0  0
  188.5480  176.0250  137.1020 C   0  0  1  0  0  3  0  0  0  0  0  0
  190.9850  175.8690  137.9210 C   0  0  1  0  0  3  0  0  0  0  0  0
  186.3770  174.2690  136.5750 C   0  0  1  0  0  3  0  0  0  0  0  0
  189.3690  177.0550  139.2820 C   0  0  0  0  0  0  0  0  0  0  0  0
  187.8410  178.7750  138.4590 C   0  0  0  0  0  2  0  0  0  0  0  0
  190.2150  176.0710  141.3390 O   0  0  0  0  0  0  0  0  0  0  0  0
  187.2030  177.6170  141.8910 C   0  0  1  0  0  3  0  0  0  0  0  0
  186.6290  178.8730  141.2210 C   0  0  0  0  0  2  0  0  0  0  0  0
  188.0660  178.4890  140.9940 C   0  0  2  0  0  0  0  0  0  0  0  0
  188.9550  179.3550  141.6440 O   0  0  0  0  0  1  0  0  0  0  0  0
  187.4200  177.8910  143.3410 C   0  0  0  0  0  3  0  0  0  0  0  0
  188.0730  177.0160  144.0950 C   0  0  0  0  0  3  0  0  0  0  0  0
  188.3100  177.2580  145.5220 C   0  0  0  0  0  0  0  0  0  0  0  0
  187.3570  177.6290  146.2540 O   0  0  0  0  0  0  0  0  0  0  0  0
  189.6050  177.0760  146.0920 N   0  0  0  0  0  1  0  0  0  0  0  0
  192.2130  176.6100  137.3910 C   0  0  1  0  0  3  0  0  0  0  0  0
  193.2590  176.7540  138.4840 C   0  0  0  0  0  1  0  0  0  0  0  0
  192.7780  175.9190  136.2350 N   0  0  0  0  0  2  0  0  0  0  0  0
  198.8260  174.6080  136.2520 C   0  0  0  0  0  2  0  0  0  0  0  0
  193.9270  175.0700  136.2940 C   0  0  0  0  0  0  0  0  0  0  0  0
  198.6420  173.1410  135.8740 C   0  0  0  0  0  2  0  0  0  0  0  0
  197.3810  172.6330  136.4140 N   0  0  0  0  0  2  0  0  0  0  0  0
  195.1890  175.6210  136.0530 C   0  0  0  0  0  3  0  0  0  0  0  0
  193.8120  173.7060  136.6050 C   0  0  0  0  0  3  0  0  0  0  0  0
  196.3290  174.8160  136.1150 C   0  0  0  0  0  0  0  0  0  0  0  0
  196.2080  173.4490  136.3980 C   0  0  0  0  0  0  0  0  0  0  0  0
  197.6290  175.3730  135.9050 N   0  0  0  0  0  2  0  0  0  0  0  0
  194.9510  172.8950  136.6550 C   0  0  0  0  0  3  0  0  0  0  0  0
  185.5530  173.7190  135.5910 O   0  0  0  0  0  0  0  0  0  0  0  0
  184.6800  172.4800  136.3550 P   0  0  2  0  0  0  0  0  0  0  0  0
  184.8710  172.5650  137.8530 O   0  0  0  0  0  1  0  0  0  0  0  0
  185.2540  170.9870  135.8070 O   0  0  0  0  0  0  0  0  0  0  0  0
  182.6450  174.6750  137.4440 C   0  0  0  0  0  1  0  0  0  0  0  0
  180.9150  173.6850  136.1590 O   0  0  0  0  0  0  0  0  0  0  0  0
  182.1260  173.6480  136.4960 C   0  0  0  0  0  0  0  0  0  0  0  0
  182.9700  172.6190  135.9700 N   0  0  0  0  0  2  0  0  0  0  0  0
  1 12  1  0  0  0  0
  1  4  1  0  0  0  0
  2 14  1  0  0  0  0
  3 18  1  0  0  0  0
  5  7  1  6  0  0  0
  5  2  1  0  0  0  0
  6  9  1  0  0  0  0
  8 11  1  0  0  0  0
  8 13  1  1  0  0  0
  9 15  2  0  0  0  0
 10  4  1  1  0  0  0
 10  5  1  0  0  0  0
 10  8  1  0  0  0  0
 11 25  1  1  0  0  0
 11  6  1  0  0  0  0
 12 38  1  6  0  0  0
 12  7  1  0  0  0  0
 13  3  2  0  0  0  0
 13  9  1  0  0  0  0
 14  3  1  0  0  0  0
 16 20  1  1  0  0  0
 17 16  1  0  0  0  0
 18 17  1  0  0  0  0
 18 19  1  1  0  0  0
 18 16  1  0  0  0  0
 20 21  2  0  0  0  0
 21 22  1  0  0  0  0
 22 24  1  0  0  0  0
 22 23  2  0  0  0  0
 25 26  1  1  0  0  0
 27 29  1  0  0  0  0
 27 25  1  0  0  0  0
 29 33  1  0  0  0  0
 30 28  1  0  0  0  0
 30 31  1  0  0  0  0
 32 34  1  0  0  0  0
 32 29  2  0  0  0  0
 33 37  2  0  0  0  0
 34 35  2  0  0  0  0
 35 31  1  0  0  0  0
 35 37  1  0  0  0  0
 36 34  1  0  0  0  0
 36 28  1  0  0  0  0
 38 39  1  0  0  0  0
 39 41  2  6  0  0  0
 39 40  1  0  0  0  0
 43 44  2  0  0  0  0
 44 42  1  0  0  0  0
 45 39  1  0  0  0  0
 45 44  1  0  0  0  0
M  END
>  <MODEL>
5

>  <REMARK>
 VINA RESULT:      -6.1      3.280      9.506
  Name = 
  9 active torsions:
  status: ('A' for Active; 'I' for Inactive)
    1  A    between atoms: C_2  and  C_3
    2  A    between atoms: C_7  and  N_30
    3  A    between atoms: C_9  and  N_30
    4  A    between atoms: C_9  and  C_33
    5  A    between atoms: P_10  and  N_41
    6  A    between atoms: P_10  and  O_43
    7  A    between atoms: C_11  and  C_13
    8  A    between atoms: C_15  and  C_26
    9  A    between atoms: C_34  and  O_43
                            x       y       z     vdW  Elec       q    Type
                         _______ _______ _______ _____ _____    ______ ____

>  <TORSDO>
F 9

$$$$
=
 OpenBabel10232409493D

 45 50  0  0  1  0  0  0  0  0999 V2000
  187.1190  178.3950  140.9330 C   0  0  0  0  0  2  0  0  0  0  0  0
  188.9170  178.0510  137.1240 C   0  0  0  0  0  2  0  0  0  0  0  0
  187.4320  176.1820  136.1860 C   0  0  0  0  0  0  0  0  0  0  0  0
  186.4530  177.6030  139.9810 O   0  0  0  0  0  0  0  0  0  0  0  0
  188.3490  177.6640  138.4930 C   0  0  1  0  0  3  0  0  0  0  0  0
  184.2670  175.9100  138.0110 O   0  0  0  0  0  0  0  0  0  0  0  0
  189.2070  178.2890  139.5870 C   0  0  0  0  0  2  0  0  0  0  0  0
  185.9050  177.5720  137.6020 C   0  0  2  0  0  3  0  0  0  0  0  0
  185.3160  175.2940  137.3600 C   0  0  0  0  0  0  0  0  0  0  0  0
  186.8660  178.0610  138.7130 C   0  0  1  0  0  3  0  0  0  0  0  0
  184.4720  177.3140  138.1260 C   0  0  1  0  0  3  0  0  0  0  0  0
  188.6030  178.0230  140.9620 C   0  0  1  0  0  3  0  0  0  0  0  0
  186.3360  176.2670  136.9850 C   0  0  0  0  0  0  0  0  0  0  0  0
  188.1730  177.4690  135.9120 C   0  0  0  0  0  2  0  0  0  0  0  0
  185.3510  174.0510  137.1760 O   0  0  0  0  0  0  0  0  0  0  0  0
  188.7500  173.8950  136.1880 C   0  0  1  0  0  3  0  0  0  0  0  0
  189.4370  174.8620  135.2130 C   0  0  0  0  0  2  0  0  0  0  0  0
  187.9550  174.9600  135.4500 C   0  0  2  0  0  0  0  0  0  0  0  0
  187.2110  174.5220  134.3460 O   0  0  0  0  0  1  0  0  0  0  0  0
  188.6430  172.5510  135.5490 C   0  0  0  0  0  3  0  0  0  0  0  0
  187.7550  171.6700  135.9930 C   0  0  0  0  0  3  0  0  0  0  0  0
  187.6180  170.3440  135.3840 C   0  0  0  0  0  0  0  0  0  0  0  0
  186.7150  170.1440  134.5310 O   0  0  0  0  0  0  0  0  0  0  0  0
  188.4950  169.2780  135.7420 N   0  0  0  0  0  1  0  0  0  0  0  0
  183.4160  178.0650  137.3140 C   0  0  1  0  0  3  0  0  0  0  0  0
  182.3370  177.1100  136.8330 C   0  0  0  0  0  1  0  0  0  0  0  0
  182.8260  179.1440  138.1010 N   0  0  0  0  0  2  0  0  0  0  0  0
  184.1640  179.5220  144.1310 C   0  0  0  0  0  2  0  0  0  0  0  0
  182.5590  179.0570  139.5030 C   0  0  0  0  0  0  0  0  0  0  0  0
  183.0050  178.6340  144.5770 C   0  0  0  0  0  2  0  0  0  0  0  0
  181.8710  178.7870  143.6670 N   0  0  0  0  0  2  0  0  0  0  0  0
  183.6180  179.1970  140.4050 C   0  0  0  0  0  3  0  0  0  0  0  0
  181.2560  178.8540  139.9870 C   0  0  0  0  0  3  0  0  0  0  0  0
  183.3820  179.1290  141.7790 C   0  0  0  0  0  0  0  0  0  0  0  0
  182.0850  178.8970  142.2580 C   0  0  0  0  0  0  0  0  0  0  0  0
  184.4500  179.3040  142.7140 N   0  0  0  0  0  2  0  0  0  0  0  0
  181.0200  178.7730  141.3630 C   0  0  0  0  0  3  0  0  0  0  0  0
  189.2670  178.7950  141.9180 O   0  0  0  0  0  0  0  0  0  0  0  0
  190.1500  177.7000  142.8670 P   0  0  2  0  0  0  0  0  0  0  0  0
  191.6280  178.0050  142.7650 O   0  0  0  0  0  1  0  0  0  0  0  0
  189.8690  176.1310  142.3000 O   0  0  0  0  0  0  0  0  0  0  0  0
  191.5810  176.3790  145.3870 C   0  0  0  0  0  1  0  0  0  0  0  0
  189.9310  177.3270  146.8010 O   0  0  0  0  0  0  0  0  0  0  0  0
  190.3530  177.1900  145.6240 C   0  0  0  0  0  0  0  0  0  0  0  0
  189.6420  177.8060  144.5470 N   0  0  0  0  0  2  0  0  0  0  0  0
  1 12  1  0  0  0  0
  3 13  2  0  0  0  0
  4  1  1  0  0  0  0
  5  2  1  6  0  0  0
  5 10  1  0  0  0  0
  5  7  1  0  0  0  0
  6 11  1  0  0  0  0
  7 12  1  0  0  0  0
  8 13  1  1  0  0  0
  8 11  1  0  0  0  0
  8 10  1  0  0  0  0
  9  6  1  0  0  0  0
 10  4  1  1  0  0  0
 11 25  1  6  0  0  0
 12 38  1  1  0  0  0
 13  9  1  0  0  0  0
 14  3  1  0  0  0  0
 14  2  1  0  0  0  0
 15  9  2  0  0  0  0
 16 20  1  6  0  0  0
 17 18  1  0  0  0  0
 17 16  1  0  0  0  0
 18 19  1  6  0  0  0
 18  3  1  0  0  0  0
 18 16  1  0  0  0  0
 20 21  2  0  0  0  0
 22 24  1  0  0  0  0
 22 21  1  0  0  0  0
 23 22  2  0  0  0  0
 25 26  1  1  0  0  0
 25 27  1  0  0  0  0
 27 29  1  0  0  0  0
 28 30  1  0  0  0  0
 29 33  2  0  0  0  0
 29 32  1  0  0  0  0
 31 30  1  0  0  0  0
 32 34  2  0  0  0  0
 33 37  1  0  0  0  0
 34 35  1  0  0  0  0
 34 36  1  0  0  0  0
 35 31  1  0  0  0  0
 36 28  1  0  0  0  0
 37 35  2  0  0  0  0
 38 39  1  0  0  0  0
 39 41  2  6  0  0  0
 39 45  1  0  0  0  0
 40 39  1  0  0  0  0
 42 44  1  0  0  0  0
 44 43  2  0  0  0  0
 45 44  1  0  0  0  0
M  END
>  <MODEL>
6

>  <REMARK>
 VINA RESULT:      -6.1      3.884      5.076
  Name = 
  9 active torsions:
  status: ('A' for Active; 'I' for Inactive)
    1  A    between atoms: C_2  and  C_3
    2  A    between atoms: C_7  and  N_30
    3  A    between atoms: C_9  and  N_30
    4  A    between atoms: C_9  and  C_33
    5  A    between atoms: P_10  and  N_41
    6  A    between atoms: P_10  and  O_43
    7  A    between atoms: C_11  and  C_13
    8  A    between atoms: C_15  and  C_26
    9  A    between atoms: C_34  and  O_43
                            x       y       z     vdW  Elec       q    Type
                         _______ _______ _______ _____ _____    ______ ____

>  <TORSDO>
F 9

$$$$
=
 OpenBabel10232409493D

 45 50  0  0  1  0  0  0  0  0999 V2000
  187.9960  178.2190  137.2940 C   0  0  0  0  0  2  0  0  0  0  0  0
  189.4040  174.2910  136.6250 C   0  0  0  0  0  2  0  0  0  0  0  0
  191.8360  174.6440  137.3590 C   0  0  0  0  0  0  0  0  0  0  0  0
  189.2750  177.9070  137.7870 O   0  0  0  0  0  0  0  0  0  0  0  0
  189.3120  175.8190  136.5800 C   0  0  1  0  0  3  0  0  0  0  0  0
  192.2030  177.6100  139.4780 O   0  0  0  0  0  0  0  0  0  0  0  0
  188.0580  176.2240  135.8110 C   0  0  0  0  0  2  0  0  0  0  0  0
  190.4820  176.0930  138.8890 C   0  0  2  0  0  3  0  0  0  0  0  0
  192.7050  176.7930  138.4870 C   0  0  0  0  0  0  0  0  0  0  0  0
  189.3080  176.5090  137.9690 C   0  0  1  0  0  3  0  0  0  0  0  0
  190.8940  177.2140  139.8720 C   0  0  1  0  0  3  0  0  0  0  0  0
  187.8710  177.7370  135.8470 C   0  0  1  0  0  3  0  0  0  0  0  0
  191.7380  175.7620  138.1250 C   0  0  0  0  0  0  0  0  0  0  0  0
  190.6380  173.7260  137.3460 C   0  0  0  0  0  2  0  0  0  0  0  0
  193.8370  176.9830  137.9740 O   0  0  0  0  0  0  0  0  0  0  0  0
  193.5100  174.8750  135.3320 C   0  0  1  0  0  3  0  0  0  0  0  0
  192.8080  173.5130  135.2420 C   0  0  0  0  0  2  0  0  0  0  0  0
  193.0450  174.1490  136.5840 C   0  0  2  0  0  0  0  0  0  0  0  0
  194.0380  173.4860  137.3180 O   0  0  0  0  0  1  0  0  0  0  0  0
  194.9670  174.6930  135.0690 C   0  0  0  0  0  3  0  0  0  0  0  0
  195.8600  175.4150  135.7330 C   0  0  0  0  0  3  0  0  0  0  0  0
  197.3000  175.2560  135.5040 C   0  0  0  0  0  0  0  0  0  0  0  0
  197.7180  174.9960  134.3470 O   0  0  0  0  0  0  0  0  0  0  0  0
  198.2330  175.3940  136.5740 N   0  0  0  0  0  1  0  0  0  0  0  0
  190.9060  176.7340  141.3240 C   0  0  1  0  0  3  0  0  0  0  0  0
  191.2860  177.8710  142.2570 C   0  0  0  0  0  1  0  0  0  0  0  0
  189.6070  176.1820  141.6990 N   0  0  0  0  0  2  0  0  0  0  0  0
  185.4510  178.5010  145.6530 C   0  0  0  0  0  2  0  0  0  0  0  0
  188.4850  176.9730  142.0920 C   0  0  0  0  0  0  0  0  0  0  0  0
  184.4470  178.8930  144.5710 C   0  0  0  0  0  2  0  0  0  0  0  0
  185.1470  179.2530  143.3380 N   0  0  0  0  0  2  0  0  0  0  0  0
  187.9800  176.8360  143.3890 C   0  0  0  0  0  3  0  0  0  0  0  0
  187.8960  177.8940  141.2100 C   0  0  0  0  0  3  0  0  0  0  0  0
  186.8910  177.6080  143.8020 C   0  0  0  0  0  0  0  0  0  0  0  0
  186.2870  178.5050  142.9100 C   0  0  0  0  0  0  0  0  0  0  0  0
  186.3860  177.5030  145.1360 N   0  0  0  0  0  2  0  0  0  0  0  0
  186.7970  178.6580  141.6190 C   0  0  0  0  0  3  0  0  0  0  0  0
  186.6080  178.0610  135.3460 O   0  0  0  0  0  0  0  0  0  0  0  0
  185.4980  177.1860  136.2850 P   0  0  2  0  0  0  0  0  0  0  0  0
  184.0930  177.4250  135.7770 O   0  0  0  0  0  0  0  0  0  0  0  0
  185.6020  177.7130  137.8890 O   0  0  0  0  0  1  0  0  0  0  0  0
  183.9070  174.8300  137.7200 C   0  0  0  0  0  1  0  0  0  0  0  0
  185.4090  173.2600  136.7700 O   0  0  0  0  0  0  0  0  0  0  0  0
  185.0870  174.4710  136.8830 C   0  0  0  0  0  0  0  0  0  0  0  0
  185.8650  175.4690  136.2160 N   0  0  0  0  0  2  0  0  0  0  0  0
  1  4  1  0  0  0  0
  2 14  1  0  0  0  0
  3 13  2  0  0  0  0
  5  7  1  1  0  0  0
  5  2  1  0  0  0  0
  5 10  1  0  0  0  0
  6 11  1  0  0  0  0
  7 12  1  0  0  0  0
  8 13  1  6  0  0  0
  8 11  1  0  0  0  0
  9  6  1  0  0  0  0
 10  4  1  6  0  0  0
 10  8  1  0  0  0  0
 11 25  1  1  0  0  0
 12 38  1  1  0  0  0
 12  1  1  0  0  0  0
 13  9  1  0  0  0  0
 14  3  1  0  0  0  0
 15  9  2  0  0  0  0
 16 20  1  1  0  0  0
 16 18  1  0  0  0  0
 17 16  1  0  0  0  0
 17 18  1  0  0  0  0
 18 19  1  1  0  0  0
 18  3  1  0  0  0  0
 20 21  2  0  0  0  0
 22 21  1  0  0  0  0
 22 24  1  0  0  0  0
 23 22  2  0  0  0  0
 25 27  1  0  0  0  0
 25 26  1  1  0  0  0
 27 29  1  0  0  0  0
 29 32  1  0  0  0  0
 30 28  1  0  0  0  0
 31 30  1  0  0  0  0
 32 34  2  0  0  0  0
 33 37  1  0  0  0  0
 33 29  2  0  0  0  0
 34 36  1  0  0  0  0
 35 31  1  0  0  0  0
 35 34  1  0  0  0  0
 36 28  1  0  0  0  0
 37 35  2  0  0  0  0
 38 39  1  0  0  0  0
 39 40  2  6  0  0  0
 39 41  1  0  0  0  0
 43 44  2  0  0  0  0
 44 42  1  0  0  0  0
 45 39  1  0  0  0  0
 45 44  1  0  0  0  0
M  END
>  <MODEL>
7

>  <REMARK>
 VINA RESULT:      -6.0      3.265      5.855
  Name = 
  9 active torsions:
  status: ('A' for Active; 'I' for Inactive)
    1  A    between atoms: C_2  and  C_3
    2  A    between atoms: C_7  and  N_30
    3  A    between atoms: C_9  and  N_30
    4  A    between atoms: C_9  and  C_33
    5  A    between atoms: P_10  and  N_41
    6  A    between atoms: P_10  and  O_43
    7  A    between atoms: C_11  and  C_13
    8  A    between atoms: C_15  and  C_26
    9  A    between atoms: C_34  and  O_43
                            x       y       z     vdW  Elec       q    Type
                         _______ _______ _______ _____ _____    ______ ____

>  <TORSDO>
F 9

$$$$
=
 OpenBabel10232409493D

 45 50  0  0  1  0  0  0  0  0999 V2000
  184.7070  175.0740  136.5030 C   0  0  0  0  0  2  0  0  0  0  0  0
  183.1020  178.3310  138.6650 C   0  0  0  0  0  2  0  0  0  0  0  0
  185.1380  178.8300  140.1420 C   0  0  0  0  0  0  0  0  0  0  0  0
  185.5990  175.8120  137.3010 O   0  0  0  0  0  0  0  0  0  0  0  0
  183.7860  176.9940  138.3650 C   0  0  1  0  0  3  0  0  0  0  0  0
  188.2170  177.4270  138.7370 O   0  0  0  0  0  0  0  0  0  0  0  0
  182.7740  176.0450  137.7300 C   0  0  0  0  0  2  0  0  0  0  0  0
  186.0950  178.1160  137.9410 C   0  0  2  0  0  3  0  0  0  0  0  0
  187.4450  177.7180  139.8420 C   0  0  0  0  0  0  0  0  0  0  0  0
  185.0360  177.0970  137.4540 C   0  0  1  0  0  3  0  0  0  0  0  0
  187.5340  177.7240  137.5250 C   0  0  1  0  0  3  0  0  0  0  0  0
  183.4490  174.7440  137.3090 C   0  0  1  0  0  3  0  0  0  0  0  0
  186.1430  178.2420  139.4410 C   0  0  0  0  0  0  0  0  0  0  0  0
  183.9900  179.3900  139.3380 C   0  0  0  0  0  2  0  0  0  0  0  0
  187.8470  177.5040  141.0140 O   0  0  0  0  0  0  0  0  0  0  0  0
  184.8330  177.9320  142.6060 C   0  0  1  0  0  3  0  0  0  0  0  0
  183.7310  178.9600  142.3120 C   0  0  0  0  0  2  0  0  0  0  0  0
  185.0700  179.0810  141.6390 C   0  0  2  0  0  0  0  0  0  0  0  0
  185.8160  180.1600  142.1320 O   0  0  0  0  0  1  0  0  0  0  0  0
  185.3990  178.1950  143.9610 C   0  0  0  0  0  3  0  0  0  0  0  0
  186.5180  177.5940  144.3450 C   0  0  0  0  0  3  0  0  0  0  0  0
  187.1040  177.8350  145.6670 C   0  0  0  0  0  0  0  0  0  0  0  0
  186.4410  178.4620  146.5330 O   0  0  0  0  0  0  0  0  0  0  0  0
  188.4130  177.3680  145.9850 N   0  0  0  0  0  1  0  0  0  0  0  0
  188.2480  178.8550  136.7840 C   0  0  1  0  0  3  0  0  0  0  0  0
  189.2850  179.5080  137.6850 C   0  0  0  0  0  1  0  0  0  0  0  0
  188.8770  178.3610  135.5630 N   0  0  0  0  0  2  0  0  0  0  0  0
  192.0310  173.0790  136.2330 C   0  0  0  0  0  2  0  0  0  0  0  0
  189.1810  176.9860  135.3200 C   0  0  0  0  0  0  0  0  0  0  0  0
  191.5330  172.4640  134.9270 C   0  0  0  0  0  2  0  0  0  0  0  0
  190.1810  172.9340  134.6290 N   0  0  0  0  0  2  0  0  0  0  0  0
  190.3560  176.4470  135.8530 C   0  0  0  0  0  3  0  0  0  0  0  0
  188.3160  176.1670  134.5750 C   0  0  0  0  0  3  0  0  0  0  0  0
  190.6700  175.1030  135.6400 C   0  0  0  0  0  0  0  0  0  0  0  0
  189.8200  174.2960  134.8720 C   0  0  0  0  0  0  0  0  0  0  0  0
  191.8510  174.5300  136.2080 N   0  0  0  0  0  2  0  0  0  0  0  0
  188.6360  174.8240  134.3500 C   0  0  0  0  0  3  0  0  0  0  0  0
  182.5670  173.9950  136.5270 O   0  0  0  0  0  0  0  0  0  0  0  0
  183.3280  172.5000  136.2690 P   0  0  2  0  0  0  0  0  0  0  0  0
  184.0670  172.0770  137.5190 O   0  0  0  0  0  1  0  0  0  0  0  0
  184.4340  172.6600  135.0000 O   0  0  0  0  0  0  0  0  0  0  0  0
  183.8830  169.4360  135.6030 C   0  0  0  0  0  1  0  0  0  0  0  0
  181.5560  169.0990  135.2930 O   0  0  0  0  0  0  0  0  0  0  0  0
  182.4710  169.9150  135.5730 C   0  0  0  0  0  0  0  0  0  0  0  0
  182.1360  171.2790  135.8470 N   0  0  0  0  0  2  0  0  0  0  0  0
  1  4  1  0  0  0  0
  1 12  1  0  0  0  0
  2 14  1  0  0  0  0
  3 18  1  0  0  0  0
  5  7  1  6  0  0  0
  5  2  1  0  0  0  0
  6  9  1  0  0  0  0
  8 13  1  1  0  0  0
  9 15  2  0  0  0  0
 10  4  1  1  0  0  0
 10  8  1  0  0  0  0
 10  5  1  0  0  0  0
 11 25  1  1  0  0  0
 11  8  1  0  0  0  0
 11  6  1  0  0  0  0
 12 38  1  6  0  0  0
 12  7  1  0  0  0  0
 13  9  1  0  0  0  0
 13  3  2  0  0  0  0
 14  3  1  0  0  0  0
 16 20  1  1  0  0  0
 17 16  1  0  0  0  0
 18 19  1  1  0  0  0
 18 17  1  0  0  0  0
 18 16  1  0  0  0  0
 20 21  2  0  0  0  0
 21 22  1  0  0  0  0
 22 24  1  0  0  0  0
 22 23  2  0  0  0  0
 25 26  1  1  0  0  0
 27 25  1  0  0  0  0
 29 27  1  0  0  0  0
 29 32  1  0  0  0  0
 30 28  1  0  0  0  0
 31 35  1  0  0  0  0
 31 30  1  0  0  0  0
 33 29  2  0  0  0  0
 34 32  2  0  0  0  0
 34 36  1  0  0  0  0
 35 34  1  0  0  0  0
 36 28  1  0  0  0  0
 37 33  1  0  0  0  0
 37 35  2  0  0  0  0
 39 41  2  6  0  0  0
 39 38  1  0  0  0  0
 39 40  1  0  0  0  0
 43 44  2  0  0  0  0
 44 42  1  0  0  0  0
 44 45  1  0  0  0  0
 45 39  1  0  0  0  0
M  END
>  <MODEL>
8

>  <REMARK>
 VINA RESULT:      -5.9      4.019      9.590
  Name = 
  9 active torsions:
  status: ('A' for Active; 'I' for Inactive)
    1  A    between atoms: C_2  and  C_3
    2  A    between atoms: C_7  and  N_30
    3  A    between atoms: C_9  and  N_30
    4  A    between atoms: C_9  and  C_33
    5  A    between atoms: P_10  and  N_41
    6  A    between atoms: P_10  and  O_43
    7  A    between atoms: C_11  and  C_13
    8  A    between atoms: C_15  and  C_26
    9  A    between atoms: C_34  and  O_43
                            x       y       z     vdW  Elec       q    Type
                         _______ _______ _______ _____ _____    ______ ____

>  <TORSDO>
F 9

$$$$
=
 OpenBabel10232409493D

 45 50  0  0  1  0  0  0  0  0999 V2000
  193.4790  176.1790  138.2940 C   0  0  0  0  0  2  0  0  0  0  0  0
  191.5390  175.5920  134.5860 C   0  0  0  0  0  2  0  0  0  0  0  0
  189.1850  175.1020  135.4770 C   0  0  0  0  0  0  0  0  0  0  0  0
  192.0760  176.0950  138.3140 O   0  0  0  0  0  0  0  0  0  0  0  0
  192.0130  175.3480  136.0220 C   0  0  1  0  0  3  0  0  0  0  0  0
  188.7400  176.3330  138.9000 O   0  0  0  0  0  0  0  0  0  0  0  0
  193.5270  175.1630  136.0250 C   0  0  0  0  0  2  0  0  0  0  0  0
  190.1230  176.8200  137.0390 C   0  0  2  0  0  3  0  0  0  0  0  0
  188.4940  175.3660  137.9470 C   0  0  0  0  0  0  0  0  0  0  0  0
  191.6300  176.4640  137.0270 C   0  0  1  0  0  3  0  0  0  0  0  0
  189.6420  177.3250  138.4200 C   0  0  1  0  0  3  0  0  0  0  0  0
  194.0500  175.0360  137.4520 C   0  0  1  0  0  3  0  0  0  0  0  0
  189.2390  175.6420  136.7240 C   0  0  0  0  0  0  0  0  0  0  0  0
  190.0220  175.7690  134.4130 C   0  0  0  0  0  2  0  0  0  0  0  0
  187.7470  174.3810  138.1730 O   0  0  0  0  0  0  0  0  0  0  0  0
  188.3060  172.6250  135.7220 C   0  0  1  0  0  3  0  0  0  0  0  0
  188.9780  172.7790  134.3500 C   0  0  0  0  0  2  0  0  0  0  0  0
  188.3060  173.9600  134.9950 C   0  0  2  0  0  0  0  0  0  0  0  0
  187.1140  174.3110  134.3480 O   0  0  0  0  0  1  0  0  0  0  0  0
  187.0240  171.8800  135.5570 C   0  0  0  0  0  3  0  0  0  0  0  0
  185.9040  172.3550  136.0870 C   0  0  0  0  0  3  0  0  0  0  0  0
  184.6260  171.6530  135.9380 C   0  0  0  0  0  0  0  0  0  0  0  0
  184.3800  171.0330  134.8720 O   0  0  0  0  0  0  0  0  0  0  0  0
  183.6570  171.6610  136.9860 N   0  0  0  0  0  1  0  0  0  0  0  0
  188.9320  178.6760  138.3250 C   0  0  1  0  0  3  0  0  0  0  0  0
  188.8740  179.1450  136.8810 C   0  0  0  0  0  1  0  0  0  0  0  0
  187.5870  178.5970  138.8880 N   0  0  0  0  0  2  0  0  0  0  0  0
  188.9700  177.7230  144.8550 C   0  0  0  0  0  2  0  0  0  0  0  0
  187.3090  178.4700  140.2840 C   0  0  0  0  0  0  0  0  0  0  0  0
  187.5490  177.3390  145.2630 C   0  0  0  0  0  2  0  0  0  0  0  0
  186.5760  178.0400  144.4270 N   0  0  0  0  0  2  0  0  0  0  0  0
  188.3350  178.0660  141.1450 C   0  0  0  0  0  3  0  0  0  0  0  0
  186.0380  178.7610  140.8050 C   0  0  0  0  0  3  0  0  0  0  0  0
  188.0920  177.9470  142.5150 C   0  0  0  0  0  0  0  0  0  0  0  0
  186.8140  178.2100  143.0280 C   0  0  0  0  0  0  0  0  0  0  0  0
  189.1400  177.5680  143.4120 N   0  0  0  0  0  2  0  0  0  0  0  0
  185.7900  178.6290  142.1750 C   0  0  0  0  0  3  0  0  0  0  0  0
  195.4450  175.1040  137.4430 O   0  0  0  0  0  0  0  0  0  0  0  0
  195.9790  173.8270  138.4250 P   0  0  2  0  0  0  0  0  0  0  0  0
  197.2390  173.2240  137.8450 O   0  0  0  0  0  0  0  0  0  0  0  0
  194.7750  172.6400  138.4840 O   0  0  0  0  0  1  0  0  0  0  0  0
  198.5410  175.4400  139.4120 C   0  0  0  0  0  1  0  0  0  0  0  0
  197.6220  175.5320  141.5960 O   0  0  0  0  0  0  0  0  0  0  0  0
  197.4750  175.1380  140.4100 C   0  0  0  0  0  0  0  0  0  0  0  0
  196.2990  174.4070  140.0530 N   0  0  0  0  0  2  0  0  0  0  0  0
  1  4  1  0  0  0  0
  3 13  2  0  0  0  0
  5  2  1  6  0  0  0
  5  7  1  0  0  0  0
  5 10  1  0  0  0  0
  7 12  1  0  0  0  0
  8 13  1  1  0  0  0
  8 11  1  0  0  0  0
  9 15  2  0  0  0  0
  9  6  1  0  0  0  0
 10  8  1  0  0  0  0
 10  4  1  1  0  0  0
 11 25  1  6  0  0  0
 11  6  1  0  0  0  0
 12 38  1  6  0  0  0
 12  1  1  0  0  0  0
 13  9  1  0  0  0  0
 14  2  1  0  0  0  0
 14  3  1  0  0  0  0
 16 20  1  6  0  0  0
 17 18  1  0  0  0  0
 17 16  1  0  0  0  0
 18 19  1  6  0  0  0
 18  3  1  0  0  0  0
 18 16  1  0  0  0  0
 20 21  2  0  0  0  0
 22 21  1  0  0  0  0
 22 24  1  0  0  0  0
 23 22  2  0  0  0  0
 25 26  1  6  0  0  0
 25 27  1  0  0  0  0
 27 29  1  0  0  0  0
 28 30  1  0  0  0  0
 29 33  2  0  0  0  0
 29 32  1  0  0  0  0
 31 30  1  0  0  0  0
 32 34  2  0  0  0  0
 33 37  1  0  0  0  0
 34 35  1  0  0  0  0
 34 36  1  0  0  0  0
 35 31  1  0  0  0  0
 36 28  1  0  0  0  0
 37 35  2  0  0  0  0
 38 39  1  0  0  0  0
 39 40  2  6  0  0  0
 39 41  1  0  0  0  0
 39 45  1  0  0  0  0
 42 44  1  0  0  0  0
 44 43  2  0  0  0  0
 45 44  1  0  0  0  0
M  END
>  <MODEL>
9

>  <REMARK>
 VINA RESULT:      -5.3      3.285      6.591
  Name = 
  9 active torsions:
  status: ('A' for Active; 'I' for Inactive)
    1  A    between atoms: C_2  and  C_3
    2  A    between atoms: C_7  and  N_30
    3  A    between atoms: C_9  and  N_30
    4  A    between atoms: C_9  and  C_33
    5  A    between atoms: P_10  and  N_41
    6  A    between atoms: P_10  and  O_43
    7  A    between atoms: C_11  and  C_13
    8  A    between atoms: C_15  and  C_26
    9  A    between atoms: C_34  and  O_43
                            x       y       z     vdW  Elec       q    Type
                         _______ _______ _______ _____ _____    ______ ____

>  <TORSDO>
F 9

$$$$
