=
 OpenBabel10232408103D

 38 42  0  0  1  0  0  0  0  0999 V2000
  186.4910  178.7800  138.2010 O   0  0  0  0  0  1  0  0  0  0  0  0
  184.7970  178.6320  139.9010 C   0  0  2  0  0  3  0  0  0  0  0  0
  186.8100  178.6600  141.9380 C   0  0  2  0  0  3  0  0  0  0  0  0
  186.2440  178.3370  139.5030 C   0  0  2  0  0  3  0  0  0  0  0  0
  188.3720  176.9570  142.1880 C   0  0  2  0  0  3  0  0  0  0  0  0
  188.6610  178.5950  140.2110 C   0  0  0  0  0  2  0  0  0  0  0  0
  188.9890  177.2760  140.8500 C   0  0  0  0  0  0  0  0  0  0  0  0
  189.8670  176.4120  140.3160 C   0  0  0  0  0  3  0  0  0  0  0  0
  186.9960  177.2880  142.2470 O   0  0  0  0  0  0  0  0  0  0  0  0
  184.4860  179.9750  139.6750 O   0  0  0  0  0  1  0  0  0  0  0  0
  184.6040  178.2990  141.3820 C   0  0  0  0  0  2  0  0  0  0  0  0
  185.4770  179.0580  142.1940 O   0  0  0  0  0  0  0  0  0  0  0  0
  187.2120  178.9990  140.4860 C   0  0  2  0  0  3  0  0  0  0  0  0
  189.7480  175.8360  136.9490 C   0  0  0  0  0  1  0  0  0  0  0  0
  194.0980  175.9920  138.5100 N   0  0  0  0  0  2  0  0  0  0  0  0
  191.8220  175.0860  137.7390 C   0  0  0  0  0  2  0  0  0  0  0  0
  192.6730  176.0130  138.5090 C   0  0  0  0  0  0  0  0  0  0  0  0
  192.0040  176.8410  139.2200 N   0  0  0  0  0  0  0  0  0  0  0  0
  190.5890  176.6000  139.0070 C   0  0  1  0  0  3  0  0  0  0  0  0
  190.4570  175.4160  138.1460 N   0  0  0  0  0  0  0  0  0  0  0  0
  194.8030  175.0460  137.7570 N   0  0  0  0  0  2  0  0  0  0  0  0
  195.9140  174.2210  139.6210 O   0  0  0  0  0  0  0  0  0  0  0  0
  195.7220  174.1450  138.3760 C   0  0  0  0  0  0  0  0  0  0  0  0
  198.0290  174.8430  136.4930 C   0  0  0  0  0  1  0  0  0  0  0  0
  196.1950  169.1210  137.1380 Cl  0  0  0  0  0  0  0  0  0  0  0  0
  196.0660  171.7910  137.6920 C   0  0  0  0  0  3  0  0  0  0  0  0
  197.5450  173.4500  136.7150 C   0  0  0  0  0  0  0  0  0  0  0  0
  196.7160  170.7840  136.9770 C   0  0  0  0  0  0  0  0  0  0  0  0
  198.1880  172.4310  136.0020 C   0  0  0  0  0  3  0  0  0  0  0  0
  197.7780  171.1040  136.1330 C   0  0  0  0  0  3  0  0  0  0  0  0
  196.4660  173.1340  137.5810 C   0  0  0  0  0  0  0  0  0  0  0  0
  190.2770  178.2900  143.2010 C   0  0  0  0  0  3  0  0  0  0  0  0
  188.7300  177.1300  144.6570 C   0  0  0  0  0  3  0  0  0  0  0  0
  190.9750  178.7610  144.3170 C   0  0  0  0  0  0  0  0  0  0  0  0
  190.5500  178.4180  145.6030 C   0  0  0  0  0  3  0  0  0  0  0  0
  192.0600  179.5540  144.1500 F   0  0  0  0  0  0  0  0  0  0  0  0
  189.4270  177.6040  145.7730 C   0  0  0  0  0  3  0  0  0  0  0  0
  189.1540  177.4660  143.3670 C   0  0  0  0  0  0  0  0  0  0  0  0
  2 10  1  1  0  0  0
  2 11  1  0  0  0  0
  3 12  1  6  0  0  0
  3  9  1  0  0  0  0
  4  1  1  6  0  0  0
  4  2  1  0  0  0  0
  4 13  1  0  0  0  0
  5  9  1  0  0  0  0
  5 38  1  1  0  0  0
  6  7  1  0  0  0  0
  7  5  1  0  0  0  0
  8  7  2  0  0  0  0
 11 12  1  0  0  0  0
 13  6  1  6  0  0  0
 13  3  1  0  0  0  0
 14 20  1  0  0  0  0
 16 20  1  0  0  0  0
 16 17  1  0  0  0  0
 17 15  1  0  0  0  0
 17 18  2  0  0  0  0
 19 18  1  0  0  0  0
 19  8  1  1  0  0  0
 20 19  1  0  0  0  0
 21 23  1  0  0  0  0
 21 15  1  0  0  0  0
 23 22  2  0  0  0  0
 24 27  1  0  0  0  0
 27 31  2  0  0  0  0
 28 25  1  0  0  0  0
 28 26  2  0  0  0  0
 29 30  2  0  0  0  0
 29 27  1  0  0  0  0
 30 28  1  0  0  0  0
 31 26  1  0  0  0  0
 31 23  1  0  0  0  0
 32 38  2  0  0  0  0
 32 34  1  0  0  0  0
 33 37  2  0  0  0  0
 34 35  2  0  0  0  0
 35 37  1  0  0  0  0
 36 34  1  0  0  0  0
 38 33  1  0  0  0  0
M  END
>  <MODEL>
1

>  <REMARK>
 VINA RESULT:      -8.7      0.000      0.000
  Name = 
  4 active torsions:
  status: ('A' for Active; 'I' for Inactive)
    1  A    between atoms: C_10  and  C_38
    2  A    between atoms: N_15  and  N_20
    3  A    between atoms: C_18  and  C_26
    4  A    between atoms: C_34  and  C_35
                            x       y       z     vdW  Elec       q    Type
                         _______ _______ _______ _____ _____    ______ ____

>  <TORSDO>
F 4

$$$$
=
 OpenBabel10232408103D

 38 42  0  0  1  0  0  0  0  0999 V2000
  194.5670  176.6510  136.8560 O   0  0  0  0  0  1  0  0  0  0  0  0
  195.1410  174.6150  135.7140 C   0  0  2  0  0  3  0  0  0  0  0  0
  192.3770  174.1480  135.1170 C   0  0  2  0  0  3  0  0  0  0  0  0
  194.0810  175.3900  136.4990 C   0  0  2  0  0  3  0  0  0  0  0  0
  190.7860  173.7450  136.7630 C   0  0  2  0  0  3  0  0  0  0  0  0
  191.6680  176.1570  136.4870 C   0  0  0  0  0  2  0  0  0  0  0  0
  190.9630  175.1310  137.3280 C   0  0  0  0  0  0  0  0  0  0  0  0
  190.4200  175.4220  138.5210 C   0  0  0  0  0  3  0  0  0  0  0  0
  191.9590  173.2550  136.1380 O   0  0  0  0  0  0  0  0  0  0  0  0
  195.6210  175.3770  134.6460 O   0  0  0  0  0  1  0  0  0  0  0  0
  194.5250  173.3170  135.1870 C   0  0  0  0  0  2  0  0  0  0  0  0
  193.4180  173.5800  134.3460 O   0  0  0  0  0  0  0  0  0  0  0  0
  192.7990  175.5260  135.6750 C   0  0  2  0  0  3  0  0  0  0  0  0
  192.4580  177.6530  140.1170 C   0  0  0  0  0  1  0  0  0  0  0  0
  188.0950  177.9330  141.6240 N   0  0  0  0  0  2  0  0  0  0  0  0
  190.5780  177.2940  141.4680 C   0  0  0  0  0  2  0  0  0  0  0  0
  189.2340  177.4880  140.8910 C   0  0  0  0  0  0  0  0  0  0  0  0
  189.1690  177.1870  139.6490 N   0  0  0  0  0  0  0  0  0  0  0  0
  190.4840  176.7640  139.2030 C   0  0  1  0  0  3  0  0  0  0  0  0
  191.3690  176.7280  140.3760 N   0  0  0  0  0  0  0  0  0  0  0  0
  188.1870  178.2130  142.9930 N   0  0  0  0  0  2  0  0  0  0  0  0
  187.6120  176.0460  143.5920 O   0  0  0  0  0  0  0  0  0  0  0  0
  187.9390  177.2030  143.9720 C   0  0  0  0  0  0  0  0  0  0  0  0
  185.5960  178.2060  145.6630 C   0  0  0  0  0  1  0  0  0  0  0  0
  191.0400  177.3400  148.1380 Cl  0  0  0  0  0  0  0  0  0  0  0  0
  189.2930  177.3180  146.0400 C   0  0  0  0  0  3  0  0  0  0  0  0
  186.9550  177.9490  146.2180 C   0  0  0  0  0  0  0  0  0  0  0  0
  189.4700  177.5710  147.4020 C   0  0  0  0  0  0  0  0  0  0  0  0
  187.1450  178.2020  147.5810 C   0  0  0  0  0  3  0  0  0  0  0  0
  188.3950  178.0120  148.1720 C   0  0  0  0  0  3  0  0  0  0  0  0
  188.0420  177.4950  145.4250 C   0  0  0  0  0  0  0  0  0  0  0  0
  189.1010  172.3020  135.5320 C   0  0  0  0  0  3  0  0  0  0  0  0
  188.8260  174.7070  135.5430 C   0  0  0  0  0  3  0  0  0  0  0  0
  187.9410  172.1730  134.7630 C   0  0  0  0  0  0  0  0  0  0  0  0
  187.2230  173.3100  134.3830 C   0  0  0  0  0  3  0  0  0  0  0  0
  187.5120  170.9430  134.3890 F   0  0  0  0  0  0  0  0  0  0  0  0
  187.6650  174.5760  134.7740 C   0  0  0  0  0  3  0  0  0  0  0  0
  189.5520  173.5730  135.9210 C   0  0  0  0  0  0  0  0  0  0  0  0
  2 10  1  6  0  0  0
  2  4  1  0  0  0  0
  3 12  1  1  0  0  0
  3 13  1  0  0  0  0
  3  9  1  0  0  0  0
  4  1  1  6  0  0  0
  5 38  1  6  0  0  0
  5  7  1  0  0  0  0
  6  7  1  0  0  0  0
  7  8  2  0  0  0  0
  9  5  1  0  0  0  0
 11  2  1  0  0  0  0
 12 11  1  0  0  0  0
 13  6  1  1  0  0  0
 13  4  1  0  0  0  0
 14 20  1  0  0  0  0
 15 21  1  0  0  0  0
 17 16  1  0  0  0  0
 17 15  1  0  0  0  0
 18 17  2  0  0  0  0
 19  8  1  1  0  0  0
 19 18  1  0  0  0  0
 19 20  1  0  0  0  0
 20 16  1  0  0  0  0
 21 23  1  0  0  0  0
 22 23  2  0  0  0  0
 23 31  1  0  0  0  0
 24 27  1  0  0  0  0
 26 28  1  0  0  0  0
 27 29  2  0  0  0  0
 28 25  1  0  0  0  0
 28 30  2  0  0  0  0
 29 30  1  0  0  0  0
 31 26  2  0  0  0  0
 31 27  1  0  0  0  0
 32 38  1  0  0  0  0
 33 38  2  0  0  0  0
 34 32  2  0  0  0  0
 35 34  1  0  0  0  0
 35 37  2  0  0  0  0
 36 34  1  0  0  0  0
 37 33  1  0  0  0  0
M  END
>  <MODEL>
2

>  <REMARK>
 VINA RESULT:      -8.7      4.436     10.470
  Name = 
  4 active torsions:
  status: ('A' for Active; 'I' for Inactive)
    1  A    between atoms: C_10  and  C_38
    2  A    between atoms: N_15  and  N_20
    3  A    between atoms: C_18  and  C_26
    4  A    between atoms: C_34  and  C_35
                            x       y       z     vdW  Elec       q    Type
                         _______ _______ _______ _____ _____    ______ ____

>  <TORSDO>
F 4

$$$$
=
 OpenBabel10232408103D

 38 42  0  0  1  0  0  0  0  0999 V2000
  185.8130  179.1630  139.2620 O   0  0  0  0  0  1  0  0  0  0  0  0
  184.0420  178.3520  140.6700 C   0  0  2  0  0  3  0  0  0  0  0  0
  185.8190  178.3130  142.9170 C   0  0  2  0  0  3  0  0  0  0  0  0
  185.5480  178.4160  140.4130 C   0  0  2  0  0  3  0  0  0  0  0  0
  187.6680  176.9090  143.0340 C   0  0  2  0  0  3  0  0  0  0  0  0
  187.7890  178.9540  141.4610 C   0  0  0  0  0  2  0  0  0  0  0  0
  188.3230  177.6110  141.8730 C   0  0  0  0  0  0  0  0  0  0  0  0
  189.4020  177.0550  141.3000 C   0  0  0  0  0  3  0  0  0  0  0  0
  186.2540  176.9640  142.9790 O   0  0  0  0  0  0  0  0  0  0  0  0
  183.4840  179.6330  140.6670 O   0  0  0  0  0  1  0  0  0  0  0  0
  183.7920  177.6820  142.0230 C   0  0  0  0  0  2  0  0  0  0  0  0
  184.4150  178.3980  143.0710 O   0  0  0  0  0  0  0  0  0  0  0  0
  186.2700  179.0190  141.6190 C   0  0  2  0  0  3  0  0  0  0  0  0
  189.2490  178.0650  138.0390 C   0  0  0  0  0  1  0  0  0  0  0  0
  193.4820  176.5950  139.1820 N   0  0  0  0  0  2  0  0  0  0  0  0
  191.0830  176.6240  138.2660 C   0  0  0  0  0  2  0  0  0  0  0  0
  192.0970  176.9130  139.2970 C   0  0  0  0  0  0  0  0  0  0  0  0
  191.6100  177.4630  140.3450 N   0  0  0  0  0  0  0  0  0  0  0  0
  190.1830  177.6460  140.1550 C   0  0  1  0  0  3  0  0  0  0  0  0
  189.8140  177.0210  138.8760 N   0  0  0  0  0  0  0  0  0  0  0  0
  193.9790  175.9530  138.0420 N   0  0  0  0  0  2  0  0  0  0  0  0
  195.5630  174.7690  139.2570 O   0  0  0  0  0  0  0  0  0  0  0  0
  195.0470  175.0100  138.1310 C   0  0  0  0  0  0  0  0  0  0  0  0
  193.4880  172.8730  136.5950 C   0  0  0  0  0  1  0  0  0  0  0  0
  199.0340  174.5080  134.8380 Cl  0  0  0  0  0  0  0  0  0  0  0  0
  196.8620  174.6630  136.4850 C   0  0  0  0  0  3  0  0  0  0  0  0
  194.8480  173.3370  136.2000 C   0  0  0  0  0  0  0  0  0  0  0  0
  197.4250  174.0600  135.3590 C   0  0  0  0  0  0  0  0  0  0  0  0
  195.4240  172.7390  135.0730 C   0  0  0  0  0  3  0  0  0  0  0  0
  196.7040  173.0980  134.6520 C   0  0  0  0  0  3  0  0  0  0  0  0
  195.5720  174.3210  136.9240 C   0  0  0  0  0  0  0  0  0  0  0  0
  187.3840  177.4950  145.4860 C   0  0  0  0  0  3  0  0  0  0  0  0
  189.6070  177.4130  144.5320 C   0  0  0  0  0  3  0  0  0  0  0  0
  187.9290  177.8320  146.7280 C   0  0  0  0  0  0  0  0  0  0  0  0
  189.3120  177.9600  146.8730 C   0  0  0  0  0  3  0  0  0  0  0  0
  187.1140  178.0310  147.7920 F   0  0  0  0  0  0  0  0  0  0  0  0
  190.1510  177.7490  145.7760 C   0  0  0  0  0  3  0  0  0  0  0  0
  188.2220  177.2890  144.3790 C   0  0  0  0  0  0  0  0  0  0  0  0
  2 10  1  1  0  0  0
  2 11  1  0  0  0  0
  3  9  1  6  0  0  0
  3 12  1  0  0  0  0
  4  1  1  6  0  0  0
  4  2  1  0  0  0  0
  4 13  1  0  0  0  0
  5 38  1  1  0  0  0
  6  7  1  0  0  0  0
  7  5  1  0  0  0  0
  8  7  2  0  0  0  0
  9  5  1  0  0  0  0
 11 12  1  0  0  0  0
 13  6  1  6  0  0  0
 13  3  1  0  0  0  0
 14 20  1  0  0  0  0
 15 17  1  0  0  0  0
 16 20  1  0  0  0  0
 16 17  1  0  0  0  0
 17 18  2  0  0  0  0
 19 18  1  0  0  0  0
 19  8  1  1  0  0  0
 20 19  1  0  0  0  0
 21 23  1  0  0  0  0
 21 15  1  0  0  0  0
 23 22  2  0  0  0  0
 25 28  1  0  0  0  0
 26 31  1  0  0  0  0
 27 24  1  0  0  0  0
 27 31  2  0  0  0  0
 28 26  2  0  0  0  0
 29 27  1  0  0  0  0
 30 29  2  0  0  0  0
 30 28  1  0  0  0  0
 31 23  1  0  0  0  0
 32 34  1  0  0  0  0
 33 37  2  0  0  0  0
 34 35  2  0  0  0  0
 34 36  1  0  0  0  0
 37 35  1  0  0  0  0
 38 33  1  0  0  0  0
 38 32  2  0  0  0  0
M  END
>  <MODEL>
3

>  <REMARK>
 VINA RESULT:      -8.5      2.055      2.515
  Name = 
  4 active torsions:
  status: ('A' for Active; 'I' for Inactive)
    1  A    between atoms: C_10  and  C_38
    2  A    between atoms: N_15  and  N_20
    3  A    between atoms: C_18  and  C_26
    4  A    between atoms: C_34  and  C_35
                            x       y       z     vdW  Elec       q    Type
                         _______ _______ _______ _____ _____    ______ ____

>  <TORSDO>
F 4

$$$$
=
 OpenBabel10232408103D

 38 42  0  0  1  0  0  0  0  0999 V2000
  186.3190  178.7980  138.6940 O   0  0  0  0  0  1  0  0  0  0  0  0
  184.6490  178.4870  140.3940 C   0  0  2  0  0  3  0  0  0  0  0  0
  186.6790  178.4870  142.4160 C   0  0  2  0  0  3  0  0  0  0  0  0
  186.1030  178.2740  139.9710 C   0  0  2  0  0  3  0  0  0  0  0  0
  188.3110  176.8390  142.5600 C   0  0  2  0  0  3  0  0  0  0  0  0
  188.5140  178.5940  140.6750 C   0  0  0  0  0  2  0  0  0  0  0  0
  188.9020  177.2560  141.2380 C   0  0  0  0  0  0  0  0  0  0  0  0
  189.8100  176.4600  140.6500 C   0  0  0  0  0  3  0  0  0  0  0  0
  186.9240  177.1090  142.6470 O   0  0  0  0  0  0  0  0  0  0  0  0
  184.2810  179.8270  140.2450 O   0  0  0  0  0  1  0  0  0  0  0  0
  184.4840  178.0650  141.8560 C   0  0  0  0  0  2  0  0  0  0  0  0
  185.3330  178.8150  142.7030 O   0  0  0  0  0  0  0  0  0  0  0  0
  187.0530  178.9210  140.9810 C   0  0  2  0  0  3  0  0  0  0  0  0
  189.6130  176.1930  137.2480 C   0  0  0  0  0  1  0  0  0  0  0  0
  193.9950  176.1110  138.7250 N   0  0  0  0  0  2  0  0  0  0  0  0
  191.6830  175.3280  137.9240 C   0  0  0  0  0  2  0  0  0  0  0  0
  192.5710  176.1630  138.7560 C   0  0  0  0  0  0  0  0  0  0  0  0
  191.9360  176.9390  139.5520 N   0  0  0  0  0  0  0  0  0  0  0  0
  190.5110  176.7500  139.3480 C   0  0  1  0  0  3  0  0  0  0  0  0
  190.3340  175.6510  138.3870 N   0  0  0  0  0  0  0  0  0  0  0  0
  194.6620  175.2210  137.8750 N   0  0  0  0  0  2  0  0  0  0  0  0
  195.9330  174.3410  139.6070 O   0  0  0  0  0  0  0  0  0  0  0  0
  195.6470  174.3180  138.3780 C   0  0  0  0  0  0  0  0  0  0  0  0
  197.6140  175.1900  136.2040 C   0  0  0  0  0  1  0  0  0  0  0  0
  196.3360  169.3440  137.0440 Cl  0  0  0  0  0  0  0  0  0  0  0  0
  196.0770  171.9970  137.6330 C   0  0  0  0  0  3  0  0  0  0  0  0
  197.2750  173.7640  136.4780 C   0  0  0  0  0  0  0  0  0  0  0  0
  196.6990  171.0420  136.8280 C   0  0  0  0  0  0  0  0  0  0  0  0
  197.8920  172.7970  135.6750 C   0  0  0  0  0  3  0  0  0  0  0  0
  197.6080  171.4430  135.8500 C   0  0  0  0  0  3  0  0  0  0  0  0
  196.3520  173.3670  137.4810 C   0  0  0  0  0  0  0  0  0  0  0  0
  188.5920  177.1400  145.0630 C   0  0  0  0  0  3  0  0  0  0  0  0
  190.3290  177.9200  143.5680 C   0  0  0  0  0  3  0  0  0  0  0  0
  189.3390  177.5780  146.1600 C   0  0  0  0  0  0  0  0  0  0  0  0
  190.5810  178.1860  145.9630 C   0  0  0  0  0  3  0  0  0  0  0  0
  188.8590  177.4080  147.4150 F   0  0  0  0  0  0  0  0  0  0  0  0
  191.0760  178.3560  144.6670 C   0  0  0  0  0  3  0  0  0  0  0  0
  189.0820  177.3150  143.7600 C   0  0  0  0  0  0  0  0  0  0  0  0
  2 10  1  1  0  0  0
  2 11  1  0  0  0  0
  3  9  1  6  0  0  0
  3 12  1  0  0  0  0
  4  1  1  6  0  0  0
  4  2  1  0  0  0  0
  4 13  1  0  0  0  0
  5  9  1  0  0  0  0
  5 38  1  1  0  0  0
  6  7  1  0  0  0  0
  7  5  1  0  0  0  0
  8  7  2  0  0  0  0
 11 12  1  0  0  0  0
 13  6  1  6  0  0  0
 13  3  1  0  0  0  0
 14 20  1  0  0  0  0
 15 17  1  0  0  0  0
 16 20  1  0  0  0  0
 16 17  1  0  0  0  0
 17 18  2  0  0  0  0
 19 18  1  0  0  0  0
 19  8  1  1  0  0  0
 20 19  1  0  0  0  0
 21 23  1  0  0  0  0
 21 15  1  0  0  0  0
 23 22  2  0  0  0  0
 24 27  1  0  0  0  0
 27 31  2  0  0  0  0
 28 25  1  0  0  0  0
 28 26  2  0  0  0  0
 29 30  2  0  0  0  0
 29 27  1  0  0  0  0
 30 28  1  0  0  0  0
 31 26  1  0  0  0  0
 31 23  1  0  0  0  0
 32 34  1  0  0  0  0
 33 38  1  0  0  0  0
 33 37  2  0  0  0  0
 34 36  1  0  0  0  0
 35 34  2  0  0  0  0
 37 35  1  0  0  0  0
 38 32  2  0  0  0  0
M  END
>  <MODEL>
4

>  <REMARK>
 VINA RESULT:      -8.4      0.925      1.209
  Name = 
  4 active torsions:
  status: ('A' for Active; 'I' for Inactive)
    1  A    between atoms: C_10  and  C_38
    2  A    between atoms: N_15  and  N_20
    3  A    between atoms: C_18  and  C_26
    4  A    between atoms: C_34  and  C_35
                            x       y       z     vdW  Elec       q    Type
                         _______ _______ _______ _____ _____    ______ ____

>  <TORSDO>
F 4

$$$$
=
 OpenBabel10232408103D

 38 42  0  0  1  0  0  0  0  0999 V2000
  182.2690  177.8870  139.0000 O   0  0  0  0  0  1  0  0  0  0  0  0
  180.6480  176.4820  137.9150 C   0  0  2  0  0  3  0  0  0  0  0  0
  182.7110  174.6340  137.1840 C   0  0  2  0  0  3  0  0  0  0  0  0
  182.1040  176.9470  137.9790 C   0  0  2  0  0  3  0  0  0  0  0  0
  184.4310  175.1830  135.7190 C   0  0  2  0  0  3  0  0  0  0  0  0
  184.5070  176.1600  138.1090 C   0  0  0  0  0  2  0  0  0  0  0  0
  184.9750  176.2060  136.6820 C   0  0  0  0  0  0  0  0  0  0  0  0
  185.9130  177.0670  136.2550 C   0  0  0  0  0  3  0  0  0  0  0  0
  183.0330  174.9980  135.8500 O   0  0  0  0  0  0  0  0  0  0  0  0
  180.2080  176.0600  139.1720 O   0  0  0  0  0  1  0  0  0  0  0  0
  180.5320  175.3320  136.9130 C   0  0  0  0  0  2  0  0  0  0  0  0
  181.3550  174.2440  137.2860 O   0  0  0  0  0  0  0  0  0  0  0  0
  183.0360  175.7540  138.1970 C   0  0  2  0  0  3  0  0  0  0  0  0
  188.8670  178.1160  137.6160 C   0  0  0  0  0  1  0  0  0  0  0  0
  185.2450  179.3820  140.1970 N   0  0  0  0  0  2  0  0  0  0  0  0
  187.2640  178.0570  139.3240 C   0  0  0  0  0  2  0  0  0  0  0  0
  185.9960  178.7880  139.1410 C   0  0  0  0  0  0  0  0  0  0  0  0
  185.6010  178.8200  137.9240 N   0  0  0  0  0  0  0  0  0  0  0  0
  186.5740  178.1250  137.1010 C   0  0  1  0  0  3  0  0  0  0  0  0
  187.5870  177.5430  137.9930 N   0  0  0  0  0  0  0  0  0  0  0  0
  185.6790  179.2930  141.5250 N   0  0  0  0  0  2  0  0  0  0  0  0
  184.1120  177.6630  142.0490 O   0  0  0  0  0  0  0  0  0  0  0  0
  185.0710  178.3830  142.4420 C   0  0  0  0  0  0  0  0  0  0  0  0
  183.3490  179.1630  144.8460 C   0  0  0  0  0  1  0  0  0  0  0  0
  188.9820  177.1180  145.6190 Cl  0  0  0  0  0  0  0  0  0  0  0  0
  186.8420  177.8200  144.0760 C   0  0  0  0  0  3  0  0  0  0  0  0
  184.7350  178.6300  144.9700 C   0  0  0  0  0  0  0  0  0  0  0  0
  187.3490  177.6960  145.3710 C   0  0  0  0  0  0  0  0  0  0  0  0
  185.2560  178.5030  146.2640 C   0  0  0  0  0  3  0  0  0  0  0  0
  186.5550  178.0370  146.4650 C   0  0  0  0  0  3  0  0  0  0  0  0
  185.5340  178.2810  143.8490 C   0  0  0  0  0  0  0  0  0  0  0  0
  186.1920  173.6070  136.6400 C   0  0  0  0  0  3  0  0  0  0  0  0
  184.8870  172.9380  134.7140 C   0  0  0  0  0  3  0  0  0  0  0  0
  186.8770  172.3890  136.5990 C   0  0  0  0  0  0  0  0  0  0  0  0
  186.5680  171.4450  135.6170 C   0  0  0  0  0  3  0  0  0  0  0  0
  187.8390  172.1240  137.5160 F   0  0  0  0  0  0  0  0  0  0  0  0
  185.5720  171.7190  134.6750 C   0  0  0  0  0  3  0  0  0  0  0  0
  185.1970  173.8890  135.6920 C   0  0  0  0  0  0  0  0  0  0  0  0
  2  4  1  0  0  0  0
  2 10  1  1  0  0  0
  3  9  1  6  0  0  0
  3 12  1  0  0  0  0
  3 13  1  0  0  0  0
  4 13  1  0  0  0  0
  4  1  1  1  0  0  0
  5 38  1  1  0  0  0
  5  9  1  0  0  0  0
  5  7  1  0  0  0  0
  7  6  1  0  0  0  0
  8  7  2  0  0  0  0
 11 12  1  0  0  0  0
 11  2  1  0  0  0  0
 13  6  1  6  0  0  0
 14 20  1  0  0  0  0
 15 21  1  0  0  0  0
 17 16  1  0  0  0  0
 17 15  1  0  0  0  0
 18 17  2  0  0  0  0
 19  8  1  1  0  0  0
 19 18  1  0  0  0  0
 19 20  1  0  0  0  0
 20 16  1  0  0  0  0
 21 23  1  0  0  0  0
 22 23  2  0  0  0  0
 23 31  1  0  0  0  0
 24 27  1  0  0  0  0
 26 28  1  0  0  0  0
 27 29  2  0  0  0  0
 28 25  1  0  0  0  0
 28 30  2  0  0  0  0
 29 30  1  0  0  0  0
 31 26  2  0  0  0  0
 31 27  1  0  0  0  0
 33 38  1  0  0  0  0
 34 32  1  0  0  0  0
 34 36  1  0  0  0  0
 35 34  2  0  0  0  0
 37 33  2  0  0  0  0
 37 35  1  0  0  0  0
 38 32  2  0  0  0  0
M  END
>  <MODEL>
5

>  <REMARK>
 VINA RESULT:      -8.4      6.382     10.218
  Name = 
  4 active torsions:
  status: ('A' for Active; 'I' for Inactive)
    1  A    between atoms: C_10  and  C_38
    2  A    between atoms: N_15  and  N_20
    3  A    between atoms: C_18  and  C_26
    4  A    between atoms: C_34  and  C_35
                            x       y       z     vdW  Elec       q    Type
                         _______ _______ _______ _____ _____    ______ ____

>  <TORSDO>
F 4

$$$$
=
 OpenBabel10232408103D

 38 42  0  0  1  0  0  0  0  0999 V2000
  184.4350  180.1880  139.2540 O   0  0  0  0  0  1  0  0  0  0  0  0
  182.2420  179.8750  138.3210 C   0  0  2  0  0  3  0  0  0  0  0  0
  182.7930  177.0930  137.9100 C   0  0  2  0  0  3  0  0  0  0  0  0
  183.6960  179.4020  138.3660 C   0  0  2  0  0  3  0  0  0  0  0  0
  184.4250  176.3380  136.4380 C   0  0  2  0  0  3  0  0  0  0  0  0
  185.1900  177.3810  138.6740 C   0  0  0  0  0  2  0  0  0  0  0  0
  185.5170  176.9610  137.2690 C   0  0  0  0  0  0  0  0  0  0  0  0
  186.7560  177.0470  136.7590 C   0  0  0  0  0  3  0  0  0  0  0  0
  183.1930  177.0260  136.5510 O   0  0  0  0  0  0  0  0  0  0  0  0
  181.7080  179.9550  139.6100 O   0  0  0  0  0  1  0  0  0  0  0  0
  181.4210  178.8930  137.4820 C   0  0  0  0  0  2  0  0  0  0  0  0
  181.4720  177.5890  138.0230 O   0  0  0  0  0  0  0  0  0  0  0  0
  183.7660  177.9290  138.7720 C   0  0  2  0  0  3  0  0  0  0  0  0
  190.0180  176.4950  137.6170 C   0  0  0  0  0  1  0  0  0  0  0  0
  187.8530  179.1530  140.7210 N   0  0  0  0  0  2  0  0  0  0  0  0
  188.8490  177.0900  139.5580 C   0  0  0  0  0  2  0  0  0  0  0  0
  188.0680  178.3420  139.5690 C   0  0  0  0  0  0  0  0  0  0  0  0
  187.5620  178.6320  138.4290 N   0  0  0  0  0  0  0  0  0  0  0  0
  187.9550  177.6140  137.4730 C   0  0  1  0  0  3  0  0  0  0  0  0
  188.6900  176.5690  138.2010 N   0  0  0  0  0  0  0  0  0  0  0  0
  188.3820  178.7870  141.9650 N   0  0  0  0  0  2  0  0  0  0  0  0
  186.3970  177.7980  142.6490 O   0  0  0  0  0  0  0  0  0  0  0  0
  187.5960  178.0790  142.9230 C   0  0  0  0  0  0  0  0  0  0  0  0
  185.9820  178.1030  145.5210 C   0  0  0  0  0  1  0  0  0  0  0  0
  191.7910  176.4400  145.5130 Cl  0  0  0  0  0  0  0  0  0  0  0  0
  189.5080  177.2990  144.2880 C   0  0  0  0  0  3  0  0  0  0  0  0
  187.4100  177.6800  145.4480 C   0  0  0  0  0  0  0  0  0  0  0  0
  190.1070  176.9130  145.4880 C   0  0  0  0  0  0  0  0  0  0  0  0
  188.0220  177.2940  146.6460 C   0  0  0  0  0  3  0  0  0  0  0  0
  189.3630  176.9100  146.6670 C   0  0  0  0  0  3  0  0  0  0  0  0
  188.1570  177.6830  144.2410 C   0  0  0  0  0  0  0  0  0  0  0  0
  183.2290  174.1390  136.0270 C   0  0  0  0  0  3  0  0  0  0  0  0
  185.2590  174.1620  137.3460 C   0  0  0  0  0  3  0  0  0  0  0  0
  183.1380  172.7540  136.1920 C   0  0  0  0  0  0  0  0  0  0  0  0
  184.1070  172.0720  136.9320 C   0  0  0  0  0  3  0  0  0  0  0  0
  182.1110  172.0730  135.6280 F   0  0  0  0  0  0  0  0  0  0  0  0
  185.1680  172.7760  137.5080 C   0  0  0  0  0  3  0  0  0  0  0  0
  184.2890  174.8510  136.6100 C   0  0  0  0  0  0  0  0  0  0  0  0
  2  4  1  0  0  0  0
  2 10  1  1  0  0  0
  3  9  1  6  0  0  0
  3 12  1  0  0  0  0
  3 13  1  0  0  0  0
  4 13  1  0  0  0  0
  4  1  1  1  0  0  0
  5  9  1  0  0  0  0
  5 38  1  1  0  0  0
  5  7  1  0  0  0  0
  7  6  1  0  0  0  0
  8  7  2  0  0  0  0
 11 12  1  0  0  0  0
 11  2  1  0  0  0  0
 13  6  1  6  0  0  0
 14 20  1  0  0  0  0
 15 21  1  0  0  0  0
 16 17  1  0  0  0  0
 17 15  1  0  0  0  0
 18 17  2  0  0  0  0
 19  8  1  1  0  0  0
 19 20  1  0  0  0  0
 19 18  1  0  0  0  0
 20 16  1  0  0  0  0
 21 23  1  0  0  0  0
 22 23  2  0  0  0  0
 23 31  1  0  0  0  0
 26 28  1  0  0  0  0
 27 24  1  0  0  0  0
 27 29  2  0  0  0  0
 28 25  1  0  0  0  0
 28 30  2  0  0  0  0
 29 30  1  0  0  0  0
 31 26  2  0  0  0  0
 31 27  1  0  0  0  0
 32 34  2  0  0  0  0
 32 38  1  0  0  0  0
 33 37  1  0  0  0  0
 34 35  1  0  0  0  0
 35 37  2  0  0  0  0
 36 34  1  0  0  0  0
 38 33  2  0  0  0  0
M  END
>  <MODEL>
6

>  <REMARK>
 VINA RESULT:      -8.2      5.558      9.025
  Name = 
  4 active torsions:
  status: ('A' for Active; 'I' for Inactive)
    1  A    between atoms: C_10  and  C_38
    2  A    between atoms: N_15  and  N_20
    3  A    between atoms: C_18  and  C_26
    4  A    between atoms: C_34  and  C_35
                            x       y       z     vdW  Elec       q    Type
                         _______ _______ _______ _____ _____    ______ ____

>  <TORSDO>
F 4

$$$$
=
 OpenBabel10232408103D

 38 42  0  0  1  0  0  0  0  0999 V2000
  184.8570  179.9120  140.0070 O   0  0  0  0  0  1  0  0  0  0  0  0
  182.7920  179.8310  138.7780 C   0  0  2  0  0  3  0  0  0  0  0  0
  183.5310  177.2970  137.6650 C   0  0  2  0  0  3  0  0  0  0  0  0
  184.2570  179.3980  138.8540 C   0  0  2  0  0  3  0  0  0  0  0  0
  185.3460  177.0310  136.2360 C   0  0  2  0  0  3  0  0  0  0  0  0
  185.8170  177.4060  138.7490 C   0  0  0  0  0  2  0  0  0  0  0  0
  186.3100  177.4130  137.3300 C   0  0  0  0  0  0  0  0  0  0  0  0
  187.5890  177.6680  137.0100 C   0  0  0  0  0  3  0  0  0  0  0  0
  184.0730  177.6310  136.3960 O   0  0  0  0  0  0  0  0  0  0  0  0
  182.1240  179.5280  139.9660 O   0  0  0  0  0  1  0  0  0  0  0  0
  182.1170  179.1140  137.6070 C   0  0  0  0  0  2  0  0  0  0  0  0
  182.1820  177.7100  137.7600 O   0  0  0  0  0  0  0  0  0  0  0  0
  184.3630  177.8710  138.8320 C   0  0  2  0  0  3  0  0  0  0  0  0
  190.7380  176.9100  138.1010 C   0  0  0  0  0  1  0  0  0  0  0  0
  188.1350  178.6960  141.4800 N   0  0  0  0  0  2  0  0  0  0  0  0
  189.3250  176.9950  139.9680 C   0  0  0  0  0  2  0  0  0  0  0  0
  188.5120  178.2050  140.1970 C   0  0  0  0  0  0  0  0  0  0  0  0
  188.1390  178.7750  139.1130 N   0  0  0  0  0  0  0  0  0  0  0  0
  188.6760  178.0330  137.9870 C   0  0  1  0  0  3  0  0  0  0  0  0
  189.3470  176.8360  138.5150 N   0  0  0  0  0  0  0  0  0  0  0  0
  188.5200  178.0260  142.6470 N   0  0  0  0  0  2  0  0  0  0  0  0
  190.3470  179.4190  142.9820 O   0  0  0  0  0  0  0  0  0  0  0  0
  189.6630  178.4420  143.3950 C   0  0  0  0  0  0  0  0  0  0  0  0
  191.9150  176.3750  143.5030 C   0  0  0  0  0  1  0  0  0  0  0  0
  188.7870  177.7930  148.4750 Cl  0  0  0  0  0  0  0  0  0  0  0  0
  189.3630  178.0290  145.8170 C   0  0  0  0  0  3  0  0  0  0  0  0
  191.1230  176.7870  144.6970 C   0  0  0  0  0  0  0  0  0  0  0  0
  189.6870  177.4080  147.0250 C   0  0  0  0  0  0  0  0  0  0  0  0
  191.4370  176.1690  145.9140 C   0  0  0  0  0  3  0  0  0  0  0  0
  190.7250  176.4790  147.0730 C   0  0  0  0  0  3  0  0  0  0  0  0
  190.0710  177.7380  144.6380 C   0  0  0  0  0  0  0  0  0  0  0  0
  185.9310  174.6240  136.7840 C   0  0  0  0  0  3  0  0  0  0  0  0
  184.5050  175.1000  134.8870 C   0  0  0  0  0  3  0  0  0  0  0  0
  185.8320  173.2560  136.5160 C   0  0  0  0  0  0  0  0  0  0  0  0
  185.0690  172.8090  135.4350 C   0  0  0  0  0  3  0  0  0  0  0  0
  186.4730  172.3640  137.3090 F   0  0  0  0  0  0  0  0  0  0  0  0
  184.4050  173.7300  134.6210 C   0  0  0  0  0  3  0  0  0  0  0  0
  185.2720  175.5540  135.9650 C   0  0  0  0  0  0  0  0  0  0  0  0
  2  4  1  0  0  0  0
  2 10  1  1  0  0  0
  3  9  1  6  0  0  0
  3 12  1  0  0  0  0
  3 13  1  0  0  0  0
  4  1  1  1  0  0  0
  5 38  1  1  0  0  0
  5  9  1  0  0  0  0
  5  7  1  0  0  0  0
  7  6  1  0  0  0  0
  8  7  2  0  0  0  0
 11 12  1  0  0  0  0
 11  2  1  0  0  0  0
 13  6  1  6  0  0  0
 13  4  1  0  0  0  0
 14 20  1  0  0  0  0
 15 21  1  0  0  0  0
 16 17  1  0  0  0  0
 17 15  1  0  0  0  0
 18 17  2  0  0  0  0
 19  8  1  6  0  0  0
 19 20  1  0  0  0  0
 19 18  1  0  0  0  0
 20 16  1  0  0  0  0
 21 23  1  0  0  0  0
 22 23  2  0  0  0  0
 23 31  1  0  0  0  0
 24 27  1  0  0  0  0
 26 28  1  0  0  0  0
 27 29  2  0  0  0  0
 28 30  2  0  0  0  0
 28 25  1  0  0  0  0
 29 30  1  0  0  0  0
 31 27  1  0  0  0  0
 31 26  2  0  0  0  0
 33 38  1  0  0  0  0
 34 32  1  0  0  0  0
 34 36  1  0  0  0  0
 35 34  2  0  0  0  0
 37 33  2  0  0  0  0
 37 35  1  0  0  0  0
 38 32  2  0  0  0  0
M  END
>  <MODEL>
7

>  <REMARK>
 VINA RESULT:      -7.7      5.378      8.462
  Name = 
  4 active torsions:
  status: ('A' for Active; 'I' for Inactive)
    1  A    between atoms: C_10  and  C_38
    2  A    between atoms: N_15  and  N_20
    3  A    between atoms: C_18  and  C_26
    4  A    between atoms: C_34  and  C_35
                            x       y       z     vdW  Elec       q    Type
                         _______ _______ _______ _____ _____    ______ ____

>  <TORSDO>
F 4

$$$$
=
 OpenBabel10232408103D

 38 42  0  0  1  0  0  0  0  0999 V2000
  182.4460  178.4160  139.6750 O   0  0  0  0  0  1  0  0  0  0  0  0
  180.4970  177.2720  138.8560 C   0  0  2  0  0  3  0  0  0  0  0  0
  182.1430  175.1660  137.8250 C   0  0  2  0  0  3  0  0  0  0  0  0
  181.9970  177.5270  138.6950 C   0  0  2  0  0  3  0  0  0  0  0  0
  183.6810  175.4940  136.1130 C   0  0  2  0  0  3  0  0  0  0  0  0
  184.2570  176.4090  138.4590 C   0  0  0  0  0  2  0  0  0  0  0  0
  184.5040  176.4130  136.9770 C   0  0  0  0  0  0  0  0  0  0  0  0
  185.4780  177.1420  136.4090 C   0  0  0  0  0  3  0  0  0  0  0  0
  182.3070  175.5050  136.4570 O   0  0  0  0  0  0  0  0  0  0  0  0
  180.1980  176.8930  140.1670 O   0  0  0  0  0  1  0  0  0  0  0  0
  180.0690  176.1670  137.8880 C   0  0  0  0  0  2  0  0  0  0  0  0
  180.7770  174.9680  138.1350 O   0  0  0  0  0  0  0  0  0  0  0  0
  182.7730  176.2110  138.7720 C   0  0  2  0  0  3  0  0  0  0  0  0
  188.7460  177.9280  137.0310 C   0  0  0  0  0  1  0  0  0  0  0  0
  186.0020  179.0740  140.5720 N   0  0  0  0  0  2  0  0  0  0  0  0
  187.6370  177.7620  139.0880 C   0  0  0  0  0  2  0  0  0  0  0  0
  186.4150  178.5590  139.3090 C   0  0  0  0  0  0  0  0  0  0  0  0
  185.7230  178.7290  138.2460 N   0  0  0  0  0  0  0  0  0  0  0  0
  186.4030  178.0810  137.1390 C   0  0  1  0  0  3  0  0  0  0  0  0
  187.5710  177.3720  137.6800 N   0  0  0  0  0  0  0  0  0  0  0  0
  186.7570  178.8340  141.7270 N   0  0  0  0  0  2  0  0  0  0  0  0
  185.0330  177.6640  142.7500 O   0  0  0  0  0  0  0  0  0  0  0  0
  186.2180  178.0910  142.8210 C   0  0  0  0  0  0  0  0  0  0  0  0
  185.1590  178.5270  145.6570 C   0  0  0  0  0  1  0  0  0  0  0  0
  190.7920  176.5450  144.7370 Cl  0  0  0  0  0  0  0  0  0  0  0  0
  188.3380  177.3760  143.8780 C   0  0  0  0  0  3  0  0  0  0  0  0
  186.5290  178.0170  145.3640 C   0  0  0  0  0  0  0  0  0  0  0  0
  189.1530  177.1070  144.9790 C   0  0  0  0  0  0  0  0  0  0  0  0
  187.3560  177.7460  146.4600 C   0  0  0  0  0  3  0  0  0  0  0  0
  188.6610  177.2910  146.2700 C   0  0  0  0  0  3  0  0  0  0  0  0
  187.0180  177.8290  144.0440 C   0  0  0  0  0  0  0  0  0  0  0  0
  185.4190  173.7220  136.6380 C   0  0  0  0  0  3  0  0  0  0  0  0
  183.5610  173.1730  135.1870 C   0  0  0  0  0  3  0  0  0  0  0  0
  185.9100  172.4200  136.5020 C   0  0  0  0  0  0  0  0  0  0  0  0
  185.2270  171.4940  135.7110 C   0  0  0  0  0  3  0  0  0  0  0  0
  187.0460  172.0570  137.1440 F   0  0  0  0  0  0  0  0  0  0  0  0
  184.0520  171.8700  135.0540 C   0  0  0  0  0  3  0  0  0  0  0  0
  184.2440  174.1060  135.9740 C   0  0  0  0  0  0  0  0  0  0  0  0
  2 10  1  1  0  0  0
  3  9  1  6  0  0  0
  3 12  1  0  0  0  0
  3 13  1  0  0  0  0
  4 13  1  0  0  0  0
  4  2  1  0  0  0  0
  4  1  1  1  0  0  0
  5 38  1  1  0  0  0
  5  9  1  0  0  0  0
  5  7  1  0  0  0  0
  7  6  1  0  0  0  0
  8  7  2  0  0  0  0
 11 12  1  0  0  0  0
 11  2  1  0  0  0  0
 13  6  1  6  0  0  0
 14 20  1  0  0  0  0
 15 21  1  0  0  0  0
 16 17  1  0  0  0  0
 17 15  1  0  0  0  0
 18 17  2  0  0  0  0
 19  8  1  1  0  0  0
 19 20  1  0  0  0  0
 19 18  1  0  0  0  0
 20 16  1  0  0  0  0
 21 23  1  0  0  0  0
 22 23  2  0  0  0  0
 23 31  1  0  0  0  0
 25 28  1  0  0  0  0
 26 31  2  0  0  0  0
 26 28  1  0  0  0  0
 27 24  1  0  0  0  0
 27 29  2  0  0  0  0
 28 30  2  0  0  0  0
 30 29  1  0  0  0  0
 31 27  1  0  0  0  0
 33 38  1  0  0  0  0
 34 32  1  0  0  0  0
 34 36  1  0  0  0  0
 35 34  2  0  0  0  0
 37 33  2  0  0  0  0
 37 35  1  0  0  0  0
 38 32  2  0  0  0  0
M  END
>  <MODEL>
8

>  <REMARK>
 VINA RESULT:      -7.7      6.244      9.651
  Name = 
  4 active torsions:
  status: ('A' for Active; 'I' for Inactive)
    1  A    between atoms: C_10  and  C_38
    2  A    between atoms: N_15  and  N_20
    3  A    between atoms: C_18  and  C_26
    4  A    between atoms: C_34  and  C_35
                            x       y       z     vdW  Elec       q    Type
                         _______ _______ _______ _____ _____    ______ ____

>  <TORSDO>
F 4

$$$$
=
 OpenBabel10232408103D

 38 42  0  0  1  0  0  0  0  0999 V2000
  185.6190  178.0450  138.0010 O   0  0  0  0  0  1  0  0  0  0  0  0
  184.0330  177.2410  136.3840 C   0  0  2  0  0  3  0  0  0  0  0  0
  185.6670  174.9390  135.8960 C   0  0  2  0  0  3  0  0  0  0  0  0
  185.4900  177.2670  136.8480 C   0  0  2  0  0  3  0  0  0  0  0  0
  187.7910  175.0790  134.9620 C   0  0  2  0  0  3  0  0  0  0  0  0
  187.4890  175.8210  137.4180 C   0  0  0  0  0  2  0  0  0  0  0  0
  188.3100  175.8330  136.1600 C   0  0  0  0  0  0  0  0  0  0  0  0
  189.5150  176.4200  136.0880 C   0  0  0  0  0  3  0  0  0  0  0  0
  186.4090  175.2910  134.7390 O   0  0  0  0  0  0  0  0  0  0  0  0
  183.1860  176.8730  137.4320 O   0  0  0  0  0  1  0  0  0  0  0  0
  183.8910  176.2460  135.2300 C   0  0  0  0  0  2  0  0  0  0  0  0
  184.2790  174.9450  135.6260 O   0  0  0  0  0  0  0  0  0  0  0  0
  185.9930  175.8450  137.1050 C   0  0  2  0  0  3  0  0  0  0  0  0
  192.1000  176.4160  138.3230 C   0  0  0  0  0  1  0  0  0  0  0  0
  188.4350  178.7200  139.9460 N   0  0  0  0  0  2  0  0  0  0  0  0
  190.1220  176.8340  139.5050 C   0  0  0  0  0  2  0  0  0  0  0  0
  189.2500  177.9430  139.0720 C   0  0  0  0  0  0  0  0  0  0  0  0
  189.2650  178.1340  137.8070 N   0  0  0  0  0  0  0  0  0  0  0  0
  190.1810  177.1830  137.2040 C   0  0  1  0  0  3  0  0  0  0  0  0
  190.6560  176.2790  138.2620 N   0  0  0  0  0  0  0  0  0  0  0  0
  188.4040  178.4590  141.3210 N   0  0  0  0  0  2  0  0  0  0  0  0
  186.0840  178.4970  141.3930 O   0  0  0  0  0  0  0  0  0  0  0  0
  187.1660  178.3410  142.0230 C   0  0  0  0  0  0  0  0  0  0  0  0
  184.6280  178.5390  143.7190 C   0  0  0  0  0  1  0  0  0  0  0  0
  189.9000  176.9760  146.2250 Cl  0  0  0  0  0  0  0  0  0  0  0  0
  188.3360  177.7000  144.1080 C   0  0  0  0  0  3  0  0  0  0  0  0
  185.9530  178.1350  144.2710 C   0  0  0  0  0  0  0  0  0  0  0  0
  188.3830  177.4180  145.4740 C   0  0  0  0  0  0  0  0  0  0  0  0
  186.0130  177.8520  145.6410 C   0  0  0  0  0  3  0  0  0  0  0  0
  187.2200  177.4930  146.2400 C   0  0  0  0  0  3  0  0  0  0  0  0
  187.1300  178.0580  143.4810 C   0  0  0  0  0  0  0  0  0  0  0  0
  187.2420  172.6130  135.1840 C   0  0  0  0  0  3  0  0  0  0  0  0
  189.4970  173.2830  134.6150 C   0  0  0  0  0  3  0  0  0  0  0  0
  187.6270  171.2700  135.1330 C   0  0  0  0  0  0  0  0  0  0  0  0
  188.9470  170.9330  134.8220 C   0  0  0  0  0  3  0  0  0  0  0  0
  186.7190  170.2960  135.3810 F   0  0  0  0  0  0  0  0  0  0  0  0
  189.8810  171.9390  134.5620 C   0  0  0  0  0  3  0  0  0  0  0  0
  188.1780  173.6260  134.9310 C   0  0  0  0  0  0  0  0  0  0  0  0
  2  4  1  0  0  0  0
  2 10  1  1  0  0  0
  3  9  1  6  0  0  0
  3 13  1  0  0  0  0
  4 13  1  0  0  0  0
  4  1  1  1  0  0  0
  5 38  1  1  0  0  0
  5  7  1  0  0  0  0
  7  6  1  0  0  0  0
  8  7  2  0  0  0  0
  9  5  1  0  0  0  0
 11 12  1  0  0  0  0
 11  2  1  0  0  0  0
 12  3  1  0  0  0  0
 13  6  1  6  0  0  0
 15 21  1  0  0  0  0
 17 16  1  0  0  0  0
 17 15  1  0  0  0  0
 18 17  2  0  0  0  0
 19  8  1  6  0  0  0
 19 18  1  0  0  0  0
 19 20  1  0  0  0  0
 20 14  1  0  0  0  0
 20 16  1  0  0  0  0
 21 23  1  0  0  0  0
 22 23  2  0  0  0  0
 23 31  1  0  0  0  0
 24 27  1  0  0  0  0
 26 28  1  0  0  0  0
 27 29  2  0  0  0  0
 28 25  1  0  0  0  0
 28 30  2  0  0  0  0
 29 30  1  0  0  0  0
 31 26  2  0  0  0  0
 31 27  1  0  0  0  0
 33 38  1  0  0  0  0
 34 32  1  0  0  0  0
 34 36  1  0  0  0  0
 35 34  2  0  0  0  0
 37 33  2  0  0  0  0
 37 35  1  0  0  0  0
 38 32  2  0  0  0  0
M  END
>  <MODEL>
9

>  <REMARK>
 VINA RESULT:      -7.5      4.990      9.450
  Name = 
  4 active torsions:
  status: ('A' for Active; 'I' for Inactive)
    1  A    between atoms: C_10  and  C_38
    2  A    between atoms: N_15  and  N_20
    3  A    between atoms: C_18  and  C_26
    4  A    between atoms: C_34  and  C_35
                            x       y       z     vdW  Elec       q    Type
                         _______ _______ _______ _____ _____    ______ ____

>  <TORSDO>
F 4

$$$$
