=
 OpenBabel10232408123D

 32 35  0  0  1  0  0  0  0  0999 V2000
  181.5970  179.3790  139.1450 N   0  0  0  0  0  0  0  0  0  0  0  0
  181.6310  178.8170  141.9560 C   0  0  2  0  0  3  0  0  0  0  0  0
  187.7530  177.1070  143.4230 C   0  0  0  0  0  2  0  0  0  0  0  0
  184.0010  178.4870  141.5960 C   0  0  0  0  0  0  0  0  0  0  0  0
  189.7440  177.6060  141.7870 C   0  0  1  0  0  3  0  0  0  0  0  0
  182.6290  178.7190  139.5910 C   0  0  0  0  0  0  0  0  0  0  0  0
  187.3040  177.9480  141.0380 N   0  0  0  0  0  0  0  0  0  0  0  0
  186.3480  178.9910  141.3930 C   0  0  0  0  0  2  0  0  0  0  0  0
  185.1870  178.4020  142.1280 C   0  0  0  0  0  0  0  0  0  0  0  0
  185.3240  177.7630  143.4810 C   0  0  0  0  0  2  0  0  0  0  0  0
  180.6260  179.9860  140.0130 C   0  0  0  0  0  3  0  0  0  0  0  0
  182.8130  178.5900  141.0590 C   0  0  0  0  0  0  0  0  0  0  0  0
  186.6970  177.9520  144.1230 C   0  0  1  0  0  3  0  0  0  0  0  0
  186.6180  177.5300  145.5740 C   0  0  0  0  0  1  0  0  0  0  0  0
  188.2680  177.7890  142.1520 C   0  0  1  0  0  0  0  0  0  0  0  0
  181.0040  177.6070  142.1900 F   0  0  0  0  0  0  0  0  0  0  0  0
  189.2460  178.9340  142.3570 C   0  0  0  0  0  2  0  0  0  0  0  0
  190.4720  176.8850  142.8180 N   0  0  0  0  0  1  0  0  0  0  0  0
  180.6430  179.7650  141.3310 C   0  0  0  0  0  3  0  0  0  0  0  0
  184.6750  178.8070  138.2140 N   0  0  0  0  0  0  0  0  0  0  0  0
  185.3510  176.9680  136.8530 C   0  0  0  0  0  0  0  0  0  0  0  0
  183.3570  176.8600  138.1540 N   0  0  0  0  0  0  0  0  0  0  0  0
  185.5630  178.2570  137.3460 C   0  0  0  0  0  3  0  0  0  0  0  0
  184.2180  176.2780  137.2810 C   0  0  0  0  0  3  0  0  0  0  0  0
  183.5710  178.1220  138.6190 C   0  0  0  0  0  0  0  0  0  0  0  0
  186.8520  175.0440  136.1770 C   0  0  0  0  0  1  0  0  0  0  0  0
  186.2590  176.3510  135.9400 N   0  0  0  0  0  2  0  0  0  0  0  0
  188.3800  176.2030  139.1290 O   0  0  0  0  0  0  0  0  0  0  0  0
  189.1640  179.3120  137.3810 C   0  0  0  0  0  1  0  0  0  0  0  0
  188.4580  177.4400  138.9070 C   0  0  0  0  0  0  0  0  0  0  0  0
  189.0610  177.8990  137.6990 N   0  0  0  0  0  2  0  0  0  0  0  0
  187.9420  178.3730  139.8590 N   0  0  0  0  0  2  0  0  0  0  0  0
  1  6  2  0  0  0  0
  1 11  1  0  0  0  0
  2 16  1  6  0  0  0
  3 13  1  0  0  0  0
  4  9  2  0  0  0  0
  5 15  1  0  0  0  0
  5 17  1  0  0  0  0
  5 18  1  1  0  0  0
  6 12  1  0  0  0  0
  7  8  1  0  0  0  0
  7 15  1  0  0  0  0
  8  9  1  0  0  0  0
  9 10  1  0  0  0  0
 10 13  1  0  0  0  0
 11 19  2  0  0  0  0
 12  4  2  0  0  0  0
 12  2  1  0  0  0  0
 13 14  1  1  0  0  0
 15 17  1  1  0  0  0
 15  3  1  0  0  0  0
 19  2  1  0  0  0  0
 20 25  2  0  0  0  0
 21 24  1  0  0  0  0
 21 23  2  0  0  0  0
 22 25  1  0  0  0  0
 23 20  1  0  0  0  0
 24 22  2  0  0  0  0
 25  6  1  0  0  0  0
 27 26  1  0  0  0  0
 27 21  1  0  0  0  0
 29 31  1  0  0  0  0
 30 28  2  0  0  0  0
 30 32  1  0  0  0  0
 31 30  1  0  0  0  0
 32  7  1  0  0  0  0
M  END
>  <MODEL>
1

>  <REMARK>
 VINA RESULT:      -6.6      0.000      0.000
  Name = 
  3 active torsions:
  status: ('A' for Active; 'I' for Inactive)
    1  A    between atoms: C_10  and  N_13
    2  A    between atoms: C_14  and  C_32
    3  A    between atoms: N_15  and  N_29
                            x       y       z     vdW  Elec       q    Type
                         _______ _______ _______ _____ _____    ______ ____

>  <TORSDO>
F 3

$$$$
=
 OpenBabel10232408123D

 32 35  0  0  1  0  0  0  0  0999 V2000
  187.3370  177.3220  144.5450 N   0  0  0  0  0  0  0  0  0  0  0  0
  184.8990  178.7240  145.1020 C   0  0  2  0  0  3  0  0  0  0  0  0
  181.8280  179.4250  139.3880 C   0  0  0  0  0  2  0  0  0  0  0  0
  184.4770  178.3940  142.7410 C   0  0  0  0  0  0  0  0  0  0  0  0
  182.5080  178.0090  137.2850 C   0  0  1  0  0  3  0  0  0  0  0  0
  186.7240  177.8460  143.5210 C   0  0  0  0  0  0  0  0  0  0  0  0
  183.9590  177.9910  139.4130 N   0  0  0  0  0  0  0  0  0  0  0  0
  183.7300  177.3510  140.7030 C   0  0  0  0  0  2  0  0  0  0  0  0
  183.6000  178.3820  141.7780 C   0  0  0  0  0  0  0  0  0  0  0  0
  182.4700  179.3690  141.8210 C   0  0  0  0  0  2  0  0  0  0  0  0
  186.7460  177.2500  145.8530 C   0  0  0  0  0  3  0  0  0  0  0  0
  185.3540  178.3900  143.7110 C   0  0  0  0  0  0  0  0  0  0  0  0
  181.3650  179.0980  140.8020 C   0  0  1  0  0  3  0  0  0  0  0  0
  180.1700  179.9640  141.1370 C   0  0  0  0  0  1  0  0  0  0  0  0
  182.6470  178.2800  138.7860 C   0  0  1  0  0  0  0  0  0  0  0  0
  185.1810  180.0520  145.3620 F   0  0  0  0  0  0  0  0  0  0  0  0
  181.8590  177.0730  138.3040 C   0  0  0  0  0  2  0  0  0  0  0  0
  181.4830  178.8420  136.6780 N   0  0  0  0  0  1  0  0  0  0  0  0
  185.5930  177.8670  146.1260 C   0  0  0  0  0  3  0  0  0  0  0  0
  187.0440  178.7780  141.2590 N   0  0  0  0  0  0  0  0  0  0  0  0
  188.7600  177.9800  139.8050 C   0  0  0  0  0  0  0  0  0  0  0  0
  188.4620  177.0440  141.9770 N   0  0  0  0  0  0  0  0  0  0  0  0
  187.6920  178.8420  140.0670 C   0  0  0  0  0  3  0  0  0  0  0  0
  189.1320  177.0740  140.7960 C   0  0  0  0  0  3  0  0  0  0  0  0
  187.4170  177.8830  142.2150 C   0  0  0  0  0  0  0  0  0  0  0  0
  189.1870  178.9830  137.5200 C   0  0  0  0  0  1  0  0  0  0  0  0
  189.4700  178.0140  138.5660 N   0  0  0  0  0  2  0  0  0  0  0  0
  185.8780  178.7650  137.5230 O   0  0  0  0  0  0  0  0  0  0  0  0
  186.3160  175.1590  137.1500 C   0  0  0  0  0  1  0  0  0  0  0  0
  185.6930  177.5330  137.7050 C   0  0  0  0  0  0  0  0  0  0  0  0
  186.4720  176.5920  136.9710 N   0  0  0  0  0  2  0  0  0  0  0  0
  184.7120  177.0850  138.6430 N   0  0  0  0  0  2  0  0  0  0  0  0
  1 11  1  0  0  0  0
  2 16  1  1  0  0  0
  2 19  1  0  0  0  0
  3 13  1  0  0  0  0
  4 12  2  0  0  0  0
  5 18  1  6  0  0  0
  5 17  1  0  0  0  0
  5 15  1  0  0  0  0
  6 12  1  0  0  0  0
  6  1  2  0  0  0  0
  7  8  1  0  0  0  0
  8  9  1  0  0  0  0
  9 10  1  0  0  0  0
  9  4  2  0  0  0  0
 11 19  2  0  0  0  0
 12  2  1  0  0  0  0
 13 14  1  1  0  0  0
 13 10  1  0  0  0  0
 15 17  1  1  0  0  0
 15  3  1  0  0  0  0
 15  7  1  0  0  0  0
 20 25  2  0  0  0  0
 21 23  2  0  0  0  0
 21 24  1  0  0  0  0
 22 25  1  0  0  0  0
 23 20  1  0  0  0  0
 24 22  2  0  0  0  0
 25  6  1  0  0  0  0
 26 27  1  0  0  0  0
 27 21  1  0  0  0  0
 28 30  2  0  0  0  0
 30 32  1  0  0  0  0
 31 29  1  0  0  0  0
 31 30  1  0  0  0  0
 32  7  1  0  0  0  0
M  END
>  <MODEL>
2

>  <REMARK>
 VINA RESULT:      -6.5      1.845      5.824
  Name = 
  3 active torsions:
  status: ('A' for Active; 'I' for Inactive)
    1  A    between atoms: C_10  and  N_13
    2  A    between atoms: C_14  and  C_32
    3  A    between atoms: N_15  and  N_29
                            x       y       z     vdW  Elec       q    Type
                         _______ _______ _______ _____ _____    ______ ____

>  <TORSDO>
F 3

$$$$
=
 OpenBabel10232408123D

 32 35  0  0  1  0  0  0  0  0999 V2000
  186.7660  177.8170  144.0500 N   0  0  0  0  0  0  0  0  0  0  0  0
  184.2790  179.2420  143.9950 C   0  0  2  0  0  3  0  0  0  0  0  0
  182.1220  178.9510  137.8450 C   0  0  0  0  0  2  0  0  0  0  0  0
  184.2220  178.5270  141.6830 C   0  0  0  0  0  0  0  0  0  0  0  0
  183.1090  177.2280  136.1270 C   0  0  1  0  0  3  0  0  0  0  0  0
  186.3200  178.1570  142.8730 C   0  0  0  0  0  0  0  0  0  0  0  0
  184.2170  177.5830  138.4240 N   0  0  0  0  0  0  0  0  0  0  0  0
  183.7900  177.1550  139.7520 C   0  0  0  0  0  2  0  0  0  0  0  0
  183.5030  178.3430  140.6130 C   0  0  0  0  0  0  0  0  0  0  0  0
  182.3840  179.3020  140.3230 C   0  0  0  0  0  2  0  0  0  0  0  0
  185.9830  177.9450  145.2470 C   0  0  0  0  0  3  0  0  0  0  0  0
  184.9410  178.6970  142.7620 C   0  0  0  0  0  0  0  0  0  0  0  0
  181.4470  178.8480  139.2060 C   0  0  1  0  0  3  0  0  0  0  0  0
  180.2190  179.7330  139.2100 C   0  0  0  0  0  1  0  0  0  0  0  0
  183.0180  177.7400  137.5670 C   0  0  1  0  0  0  0  0  0  0  0  0
  184.5250  180.5990  144.0750 F   0  0  0  0  0  0  0  0  0  0  0  0
  182.3060  176.4570  137.1740 C   0  0  0  0  0  2  0  0  0  0  0  0
  182.1920  177.9320  135.2440 N   0  0  0  0  0  1  0  0  0  0  0  0
  184.8040  178.5750  145.2380 C   0  0  0  0  0  3  0  0  0  0  0  0
  186.9660  178.6920  140.5520 N   0  0  0  0  0  0  0  0  0  0  0  0
  188.9000  177.7320  139.5370 C   0  0  0  0  0  0  0  0  0  0  0  0
  188.2900  177.1780  141.7730 N   0  0  0  0  0  0  0  0  0  0  0  0
  187.7890  178.5760  139.4780 C   0  0  0  0  0  3  0  0  0  0  0  0
  189.1320  177.0310  140.7180 C   0  0  0  0  0  3  0  0  0  0  0  0
  187.2050  177.9960  141.6980 C   0  0  0  0  0  0  0  0  0  0  0  0
  190.4710  176.3310  138.1280 C   0  0  0  0  0  1  0  0  0  0  0  0
  189.7920  177.5810  138.4310 N   0  0  0  0  0  2  0  0  0  0  0  0
  186.3640  178.0720  136.6920 O   0  0  0  0  0  0  0  0  0  0  0  0
  186.8800  174.4730  137.0350 C   0  0  0  0  0  1  0  0  0  0  0  0
  186.1680  176.8850  137.0680 C   0  0  0  0  0  0  0  0  0  0  0  0
  187.0460  175.8550  136.6230 N   0  0  0  0  0  2  0  0  0  0  0  0
  185.0740  176.5800  137.9360 N   0  0  0  0  0  2  0  0  0  0  0  0
  1 11  1  0  0  0  0
  2 16  1  1  0  0  0
  2 19  1  0  0  0  0
  3 13  1  0  0  0  0
  4 12  2  0  0  0  0
  5 18  1  6  0  0  0
  5 17  1  0  0  0  0
  5 15  1  0  0  0  0
  6  1  2  0  0  0  0
  7  8  1  0  0  0  0
  8  9  1  0  0  0  0
  9  4  2  0  0  0  0
 10  9  1  0  0  0  0
 12  6  1  0  0  0  0
 12  2  1  0  0  0  0
 13 14  1  6  0  0  0
 13 10  1  0  0  0  0
 15 17  1  1  0  0  0
 15  3  1  0  0  0  0
 15  7  1  0  0  0  0
 19 11  2  0  0  0  0
 20 25  2  0  0  0  0
 21 24  1  0  0  0  0
 23 21  2  0  0  0  0
 23 20  1  0  0  0  0
 24 22  2  0  0  0  0
 25 22  1  0  0  0  0
 25  6  1  0  0  0  0
 26 27  1  0  0  0  0
 27 21  1  0  0  0  0
 28 30  2  0  0  0  0
 30 32  1  0  0  0  0
 31 29  1  0  0  0  0
 31 30  1  0  0  0  0
 32  7  1  0  0  0  0
M  END
>  <MODEL>
3

>  <REMARK>
 VINA RESULT:      -6.3      1.864      5.758
  Name = 
  3 active torsions:
  status: ('A' for Active; 'I' for Inactive)
    1  A    between atoms: C_10  and  N_13
    2  A    between atoms: C_14  and  C_32
    3  A    between atoms: N_15  and  N_29
                            x       y       z     vdW  Elec       q    Type
                         _______ _______ _______ _____ _____    ______ ____

>  <TORSDO>
F 3

$$$$
=
 OpenBabel10232408123D

 32 35  0  0  1  0  0  0  0  0999 V2000
  183.7100  179.5400  143.0910 N   0  0  0  0  0  0  0  0  0  0  0  0
  185.6330  178.3530  144.8540 C   0  0  2  0  0  3  0  0  0  0  0  0
  190.3740  175.9550  141.0680 C   0  0  0  0  0  2  0  0  0  0  0  0
  186.8720  177.9590  142.8130 C   0  0  0  0  0  0  0  0  0  0  0  0
  190.6210  176.6810  138.5580 C   0  0  1  0  0  3  0  0  0  0  0  0
  184.5720  178.7300  142.5450 C   0  0  0  0  0  0  0  0  0  0  0  0
  188.5420  177.3440  139.9240 N   0  0  0  0  0  0  0  0  0  0  0  0
  188.3860  178.3400  140.9790 C   0  0  0  0  0  2  0  0  0  0  0  0
  188.0210  177.6760  142.2680 C   0  0  0  0  0  0  0  0  0  0  0  0
  188.9490  176.7400  142.9880 C   0  0  0  0  0  2  0  0  0  0  0  0
  183.8200  179.9970  144.4490 C   0  0  0  0  0  3  0  0  0  0  0  0
  185.7220  178.2590  143.3590 C   0  0  0  0  0  0  0  0  0  0  0  0
  190.3580  176.6860  142.4040 C   0  0  1  0  0  3  0  0  0  0  0  0
  191.2600  175.9520  143.3730 C   0  0  0  0  0  1  0  0  0  0  0  0
  189.9470  176.8730  139.9190 C   0  0  1  0  0  0  0  0  0  0  0  0
  185.1300  177.1660  145.3510 F   0  0  0  0  0  0  0  0  0  0  0  0
  190.9840  177.8740  139.4410 C   0  0  0  0  0  2  0  0  0  0  0  0
  191.6910  175.6970  138.6180 N   0  0  0  0  0  1  0  0  0  0  0  0
  184.7330  179.4820  145.2790 C   0  0  0  0  0  3  0  0  0  0  0  0
  183.5490  177.2630  140.8440 N   0  0  0  0  0  0  0  0  0  0  0  0
  183.9550  177.5730  138.5140 C   0  0  0  0  0  0  0  0  0  0  0  0
  184.9750  178.9930  140.1330 N   0  0  0  0  0  0  0  0  0  0  0  0
  183.3320  176.8860  139.5580 C   0  0  0  0  0  3  0  0  0  0  0  0
  184.7870  178.6430  138.8350 C   0  0  0  0  0  3  0  0  0  0  0  0
  184.3700  178.3080  141.1420 C   0  0  0  0  0  0  0  0  0  0  0  0
  184.0380  175.8820  136.6310 C   0  0  0  0  0  1  0  0  0  0  0  0
  183.7530  177.2110  137.1470 N   0  0  0  0  0  2  0  0  0  0  0  0
  187.3890  176.0340  137.7320 O   0  0  0  0  0  0  0  0  0  0  0  0
  187.4380  179.3820  136.2740 C   0  0  0  0  0  1  0  0  0  0  0  0
  187.6020  177.2720  137.6340 C   0  0  0  0  0  0  0  0  0  0  0  0
  187.2330  177.9540  136.4380 N   0  0  0  0  0  2  0  0  0  0  0  0
  188.2060  177.9830  138.7170 N   0  0  0  0  0  2  0  0  0  0  0  0
  1 11  1  0  0  0  0
  2 19  1  0  0  0  0
  2 16  1  6  0  0  0
  3 13  1  0  0  0  0
  4 12  2  0  0  0  0
  5 18  1  1  0  0  0
  5 17  1  0  0  0  0
  5 15  1  0  0  0  0
  6  1  2  0  0  0  0
  6 12  1  0  0  0  0
  7  8  1  0  0  0  0
  8  9  1  0  0  0  0
  9  4  2  0  0  0  0
  9 10  1  0  0  0  0
 11 19  2  0  0  0  0
 12  2  1  0  0  0  0
 13 10  1  0  0  0  0
 13 14  1  1  0  0  0
 15 17  1  1  0  0  0
 15  7  1  0  0  0  0
 15  3  1  0  0  0  0
 20 25  2  0  0  0  0
 21 24  1  0  0  0  0
 21 23  2  0  0  0  0
 22 25  1  0  0  0  0
 23 20  1  0  0  0  0
 24 22  2  0  0  0  0
 25  6  1  0  0  0  0
 26 27  1  0  0  0  0
 27 21  1  0  0  0  0
 29 31  1  0  0  0  0
 30 28  2  0  0  0  0
 30 32  1  0  0  0  0
 31 30  1  0  0  0  0
 32  7  1  0  0  0  0
M  END
>  <MODEL>
4

>  <REMARK>
 VINA RESULT:      -6.0      2.187      3.549
  Name = 
  3 active torsions:
  status: ('A' for Active; 'I' for Inactive)
    1  A    between atoms: C_10  and  N_13
    2  A    between atoms: C_14  and  C_32
    3  A    between atoms: N_15  and  N_29
                            x       y       z     vdW  Elec       q    Type
                         _______ _______ _______ _____ _____    ______ ____

>  <TORSDO>
F 3

$$$$
=
 OpenBabel10232408123D

 32 35  0  0  1  0  0  0  0  0999 V2000
  189.6450  178.8150  143.5770 N   0  0  0  0  0  0  0  0  0  0  0  0
  191.2590  177.0790  141.9640 C   0  0  2  0  0  3  0  0  0  0  0  0
  187.8070  175.8360  136.5700 C   0  0  0  0  0  2  0  0  0  0  0  0
  189.4470  177.3030  140.3750 C   0  0  0  0  0  0  0  0  0  0  0  0
  185.7330  177.3000  135.9030 C   0  0  1  0  0  3  0  0  0  0  0  0
  189.0340  178.1890  142.6110 C   0  0  0  0  0  0  0  0  0  0  0  0
  186.8510  177.5670  138.2070 N   0  0  0  0  0  0  0  0  0  0  0  0
  188.1190  178.1890  138.5720 C   0  0  0  0  0  2  0  0  0  0  0  0
  189.0520  177.1690  139.1410 C   0  0  0  0  0  0  0  0  0  0  0  0
  189.5950  176.0270  138.3310 C   0  0  0  0  0  2  0  0  0  0  0  0
  191.0750  178.8220  143.7190 C   0  0  0  0  0  3  0  0  0  0  0  0
  189.8490  177.4530  141.6100 C   0  0  0  0  0  0  0  0  0  0  0  0
  189.2800  176.1150  136.8390 C   0  0  1  0  0  3  0  0  0  0  0  0
  190.1140  175.0880  136.1040 C   0  0  0  0  0  1  0  0  0  0  0  0
  186.9460  177.0780  136.8110 C   0  0  1  0  0  0  0  0  0  0  0  0
  191.2640  175.8120  142.5160 F   0  0  0  0  0  0  0  0  0  0  0  0
  186.9930  178.1470  135.7320 C   0  0  0  0  0  2  0  0  0  0  0  0
  185.6700  176.3140  134.8350 N   0  0  0  0  0  1  0  0  0  0  0  0
  191.8490  178.0460  142.9540 C   0  0  0  0  0  3  0  0  0  0  0  0
  186.8080  177.4550  143.3830 N   0  0  0  0  0  0  0  0  0  0  0  0
  184.8010  178.3690  142.4710 C   0  0  0  0  0  0  0  0  0  0  0  0
  186.9360  179.0820  141.6890 N   0  0  0  0  0  0  0  0  0  0  0  0
  185.4510  177.5080  143.3590 C   0  0  0  0  0  3  0  0  0  0  0  0
  185.5820  179.1600  141.6310 C   0  0  0  0  0  3  0  0  0  0  0  0
  187.5560  178.2320  142.5520 C   0  0  0  0  0  0  0  0  0  0  0  0
  182.5740  179.0060  143.4950 C   0  0  0  0  0  1  0  0  0  0  0  0
  183.3760  178.4570  142.4140 N   0  0  0  0  0  2  0  0  0  0  0  0
  184.1610  177.0290  138.7780 O   0  0  0  0  0  0  0  0  0  0  0  0
  183.8810  180.6690  138.7090 C   0  0  0  0  0  1  0  0  0  0  0  0
  184.5070  178.2330  138.6520 C   0  0  0  0  0  0  0  0  0  0  0  0
  183.5370  179.2630  138.8250 N   0  0  0  0  0  2  0  0  0  0  0  0
  185.8640  178.5610  138.3410 N   0  0  0  0  0  2  0  0  0  0  0  0
  1 11  1  0  0  0  0
  2 16  1  1  0  0  0
  2 19  1  0  0  0  0
  3 15  1  0  0  0  0
  3 13  1  0  0  0  0
  4 12  2  0  0  0  0
  5 18  1  6  0  0  0
  5 15  1  0  0  0  0
  6  1  2  0  0  0  0
  7 32  1  0  0  0  0
  7  8  1  0  0  0  0
  8  9  1  0  0  0  0
  9  4  2  0  0  0  0
 10  9  1  0  0  0  0
 12  2  1  0  0  0  0
 12  6  1  0  0  0  0
 13 14  1  6  0  0  0
 13 10  1  0  0  0  0
 15 17  1  6  0  0  0
 15  7  1  0  0  0  0
 17  5  1  0  0  0  0
 19 11  2  0  0  0  0
 21 23  2  0  0  0  0
 22 25  1  0  0  0  0
 23 20  1  0  0  0  0
 24 22  2  0  0  0  0
 24 21  1  0  0  0  0
 25  6  1  0  0  0  0
 25 20  2  0  0  0  0
 27 21  1  0  0  0  0
 27 26  1  0  0  0  0
 29 31  1  0  0  0  0
 30 28  2  0  0  0  0
 30 31  1  0  0  0  0
 32 30  1  0  0  0  0
M  END
>  <MODEL>
5

>  <REMARK>
 VINA RESULT:      -5.9      2.654      7.187
  Name = 
  3 active torsions:
  status: ('A' for Active; 'I' for Inactive)
    1  A    between atoms: C_10  and  N_13
    2  A    between atoms: C_14  and  C_32
    3  A    between atoms: N_15  and  N_29
                            x       y       z     vdW  Elec       q    Type
                         _______ _______ _______ _____ _____    ______ ____

>  <TORSDO>
F 3

$$$$
=
 OpenBabel10232408123D

 32 35  0  0  1  0  0  0  0  0999 V2000
  181.3410  178.7080  140.9100 N   0  0  0  0  0  0  0  0  0  0  0  0
  183.2020  178.9160  143.0810 C   0  0  2  0  0  3  0  0  0  0  0  0
  189.0600  177.4010  140.6430 C   0  0  0  0  0  2  0  0  0  0  0  0
  184.8440  178.4020  141.3790 C   0  0  0  0  0  0  0  0  0  0  0  0
  189.4970  177.3600  138.0550 C   0  0  1  0  0  3  0  0  0  0  0  0
  182.5040  178.1480  140.7310 C   0  0  0  0  0  0  0  0  0  0  0  0
  187.1080  177.5930  138.9850 N   0  0  0  0  0  0  0  0  0  0  0  0
  186.4490  178.7330  139.6150 C   0  0  0  0  0  2  0  0  0  0  0  0
  186.0990  178.4110  141.0320 C   0  0  0  0  0  0  0  0  0  0  0  0
  187.1390  178.1520  142.0850 C   0  0  0  0  0  2  0  0  0  0  0  0
  181.0530  179.5650  142.0270 C   0  0  0  0  0  3  0  0  0  0  0  0
  183.5810  178.4080  141.7210 C   0  0  0  0  0  0  0  0  0  0  0  0
  188.5680  178.4470  141.6350 C   0  0  1  0  0  3  0  0  0  0  0  0
  189.4730  178.4320  142.8480 C   0  0  0  0  0  1  0  0  0  0  0  0
  188.5670  177.6970  139.2240 C   0  0  1  0  0  0  0  0  0  0  0  0
  183.0360  177.8410  143.9340 F   0  0  0  0  0  0  0  0  0  0  0  0
  189.2860  178.8120  138.4830 C   0  0  0  0  0  2  0  0  0  0  0  0
  190.8020  176.9100  138.5140 N   0  0  0  0  0  1  0  0  0  0  0  0
  181.9210  179.7040  143.0330 C   0  0  0  0  0  3  0  0  0  0  0  0
  182.5800  175.9220  139.6680 N   0  0  0  0  0  0  0  0  0  0  0  0
  183.0200  175.6600  137.3380 C   0  0  0  0  0  0  0  0  0  0  0  0
  182.9750  177.8220  138.3390 N   0  0  0  0  0  0  0  0  0  0  0  0
  182.7320  175.1110  138.5900 C   0  0  0  0  0  3  0  0  0  0  0  0
  183.1390  177.0440  137.2380 C   0  0  0  0  0  3  0  0  0  0  0  0
  182.7040  177.2730  139.5550 C   0  0  0  0  0  0  0  0  0  0  0  0
  183.9440  173.6030  136.1850 C   0  0  0  0  0  1  0  0  0  0  0  0
  183.1860  174.8440  136.1770 N   0  0  0  0  0  2  0  0  0  0  0  0
  186.7240  175.3440  137.3590 O   0  0  0  0  0  0  0  0  0  0  0  0
  186.0680  177.8610  134.7970 C   0  0  0  0  0  1  0  0  0  0  0  0
  186.5970  176.4810  136.8320 C   0  0  0  0  0  0  0  0  0  0  0  0
  186.2450  176.5790  135.4550 N   0  0  0  0  0  2  0  0  0  0  0  0
  186.8010  177.6600  137.6140 N   0  0  0  0  0  2  0  0  0  0  0  0
  1 11  1  0  0  0  0
  2 16  1  1  0  0  0
  3 13  1  0  0  0  0
  4 12  2  0  0  0  0
  5 17  1  0  0  0  0
  5 18  1  1  0  0  0
  5 15  1  0  0  0  0
  6  1  2  0  0  0  0
  6 12  1  0  0  0  0
  7 15  1  0  0  0  0
  7  8  1  0  0  0  0
  8  9  1  0  0  0  0
  9  4  2  0  0  0  0
  9 10  1  0  0  0  0
 11 19  2  0  0  0  0
 12  2  1  0  0  0  0
 13 10  1  0  0  0  0
 13 14  1  1  0  0  0
 15 17  1  1  0  0  0
 15  3  1  0  0  0  0
 19  2  1  0  0  0  0
 21 23  2  0  0  0  0
 22 25  1  0  0  0  0
 23 20  1  0  0  0  0
 24 21  1  0  0  0  0
 24 22  2  0  0  0  0
 25 20  2  0  0  0  0
 25  6  1  0  0  0  0
 27 26  1  0  0  0  0
 27 21  1  0  0  0  0
 29 31  1  0  0  0  0
 30 28  2  0  0  0  0
 30 32  1  0  0  0  0
 31 30  1  0  0  0  0
 32  7  1  0  0  0  0
M  END
>  <MODEL>
6

>  <REMARK>
 VINA RESULT:      -5.8      1.813      2.843
  Name = 
  3 active torsions:
  status: ('A' for Active; 'I' for Inactive)
    1  A    between atoms: C_10  and  N_13
    2  A    between atoms: C_14  and  C_32
    3  A    between atoms: N_15  and  N_29
                            x       y       z     vdW  Elec       q    Type
                         _______ _______ _______ _____ _____    ______ ____

>  <TORSDO>
F 3

$$$$
=
 OpenBabel10232408123D

 32 35  0  0  1  0  0  0  0  0999 V2000
  187.7930  179.0450  137.5760 N   0  0  0  0  0  0  0  0  0  0  0  0
  188.7330  176.4180  136.9170 C   0  0  2  0  0  3  0  0  0  0  0  0
  183.5270  172.4920  137.1230 C   0  0  0  0  0  2  0  0  0  0  0  0
  186.3920  175.8250  137.0800 C   0  0  0  0  0  0  0  0  0  0  0  0
  181.0840  173.4530  137.1110 C   0  0  1  0  0  3  0  0  0  0  0  0
  186.9950  178.0560  137.8640 C   0  0  0  0  0  0  0  0  0  0  0  0
  183.1140  175.0110  137.4030 N   0  0  0  0  0  0  0  0  0  0  0  0
  184.1010  175.4640  136.4290 C   0  0  0  0  0  2  0  0  0  0  0  0
  185.4600  174.9590  136.7960 C   0  0  0  0  0  0  0  0  0  0  0  0
  185.8090  173.4990  136.7960 C   0  0  0  0  0  2  0  0  0  0  0  0
  188.9820  178.8820  136.7850 C   0  0  0  0  0  3  0  0  0  0  0  0
  187.3240  176.7010  137.3510 C   0  0  0  0  0  0  0  0  0  0  0  0
  184.7310  172.6000  136.1970 C   0  0  1  0  0  3  0  0  0  0  0  0
  185.3100  171.2180  135.9870 C   0  0  0  0  0  1  0  0  0  0  0  0
  182.5900  173.6930  136.9710 C   0  0  1  0  0  0  0  0  0  0  0  0
  189.4380  175.9000  137.9860 F   0  0  0  0  0  0  0  0  0  0  0  0
  181.7050  173.7010  135.7360 C   0  0  0  0  0  2  0  0  0  0  0  0
  180.7720  172.0400  137.2490 N   0  0  0  0  0  1  0  0  0  0  0  0
  189.4190  177.6680  136.4370 C   0  0  0  0  0  3  0  0  0  0  0  0
  185.8970  178.3920  140.0480 N   0  0  0  0  0  0  0  0  0  0  0  0
  183.5670  178.8740  140.2190 C   0  0  0  0  0  0  0  0  0  0  0  0
  184.5930  178.5330  138.0960 N   0  0  0  0  0  0  0  0  0  0  0  0
  184.8110  178.6630  140.8180 C   0  0  0  0  0  3  0  0  0  0  0  0
  183.4840  178.8020  138.8310 C   0  0  0  0  0  3  0  0  0  0  0  0
  185.7980  178.3200  138.6920 C   0  0  0  0  0  0  0  0  0  0  0  0
  182.2620  178.7880  142.3880 C   0  0  0  0  0  1  0  0  0  0  0  0
  182.3990  179.1640  140.9900 N   0  0  0  0  0  2  0  0  0  0  0  0
  181.6670  175.6940  139.7030 O   0  0  0  0  0  0  0  0  0  0  0  0
  180.0800  178.0910  137.4520 C   0  0  0  0  0  1  0  0  0  0  0  0
  181.4050  176.3110  138.6370 C   0  0  0  0  0  0  0  0  0  0  0  0
  180.4130  177.3350  138.6450 N   0  0  0  0  0  2  0  0  0  0  0  0
  182.1010  175.9870  137.4310 N   0  0  0  0  0  2  0  0  0  0  0  0
  1  6  2  0  0  0  0
  2 12  1  0  0  0  0
  2 16  1  1  0  0  0
  4 12  2  0  0  0  0
  5 18  1  6  0  0  0
  6 25  1  0  0  0  0
  7 32  1  0  0  0  0
  8  9  1  0  0  0  0
  8  7  1  0  0  0  0
  9  4  2  0  0  0  0
 10  9  1  0  0  0  0
 11  1  1  0  0  0  0
 12  6  1  0  0  0  0
 13 14  1  1  0  0  0
 13 10  1  0  0  0  0
 13  3  1  0  0  0  0
 15 17  1  6  0  0  0
 15  5  1  0  0  0  0
 15  3  1  0  0  0  0
 15  7  1  0  0  0  0
 17  5  1  0  0  0  0
 19 11  2  0  0  0  0
 19  2  1  0  0  0  0
 20 23  1  0  0  0  0
 21 23  2  0  0  0  0
 21 27  1  0  0  0  0
 22 25  1  0  0  0  0
 22 24  2  0  0  0  0
 24 21  1  0  0  0  0
 25 20  2  0  0  0  0
 27 26  1  0  0  0  0
 29 31  1  0  0  0  0
 30 31  1  0  0  0  0
 30 28  2  0  0  0  0
 32 30  1  0  0  0  0
M  END
>  <MODEL>
7

>  <REMARK>
 VINA RESULT:      -5.3      3.361      7.772
  Name = 
  3 active torsions:
  status: ('A' for Active; 'I' for Inactive)
    1  A    between atoms: C_10  and  N_13
    2  A    between atoms: C_14  and  C_32
    3  A    between atoms: N_15  and  N_29
                            x       y       z     vdW  Elec       q    Type
                         _______ _______ _______ _____ _____    ______ ____

>  <TORSDO>
F 3

$$$$
=
 OpenBabel10232408123D

 32 35  0  0  1  0  0  0  0  0999 V2000
  190.2460  176.2280  146.6450 N   0  0  0  0  0  0  0  0  0  0  0  0
  187.8730  177.5310  147.5880 C   0  0  2  0  0  3  0  0  0  0  0  0
  184.7410  179.7140  142.2990 C   0  0  0  0  0  2  0  0  0  0  0  0
  187.4020  177.8050  145.2300 C   0  0  0  0  0  0  0  0  0  0  0  0
  185.3320  178.8360  139.8970 C   0  0  1  0  0  3  0  0  0  0  0  0
  189.6380  177.0070  145.7960 C   0  0  0  0  0  0  0  0  0  0  0  0
  186.8150  178.2480  141.9180 N   0  0  0  0  0  0  0  0  0  0  0  0
  186.5820  177.3190  143.0180 C   0  0  0  0  0  2  0  0  0  0  0  0
  186.5090  178.0590  144.3160 C   0  0  0  0  0  0  0  0  0  0  0  0
  185.4180  179.0420  144.6270 C   0  0  0  0  0  2  0  0  0  0  0  0
  189.6750  175.8570  147.9100 C   0  0  0  0  0  3  0  0  0  0  0  0
  188.2930  177.5330  146.1470 C   0  0  0  0  0  0  0  0  0  0  0  0
  184.2880  179.0660  143.6010 C   0  0  1  0  0  3  0  0  0  0  0  0
  183.1330  179.8630  144.1670 C   0  0  0  0  0  1  0  0  0  0  0  0
  185.5050  178.7250  141.4140 C   0  0  1  0  0  0  0  0  0  0  0  0
  188.2110  178.7440  148.1580 F   0  0  0  0  0  0  0  0  0  0  0  0
  184.6640  177.7010  140.6720 C   0  0  0  0  0  2  0  0  0  0  0  0
  184.3300  179.8260  139.5380 N   0  0  0  0  0  1  0  0  0  0  0  0
  188.5500  176.4260  148.3540 C   0  0  0  0  0  3  0  0  0  0  0  0
  190.9860  178.5140  144.3820 N   0  0  0  0  0  0  0  0  0  0  0  0
  191.6110  177.9200  142.1570 C   0  0  0  0  0  0  0  0  0  0  0  0
  190.2890  176.4520  143.4900 N   0  0  0  0  0  0  0  0  0  0  0  0
  191.6330  178.8180  143.2270 C   0  0  0  0  0  3  0  0  0  0  0  0
  190.9190  176.7220  142.3180 C   0  0  0  0  0  3  0  0  0  0  0  0
  190.3100  177.3410  144.5210 C   0  0  0  0  0  0  0  0  0  0  0  0
  192.7010  177.1570  140.0020 C   0  0  0  0  0  1  0  0  0  0  0  0
  192.2780  178.1990  140.9250 N   0  0  0  0  0  2  0  0  0  0  0  0
  188.7950  179.3780  140.2900 O   0  0  0  0  0  0  0  0  0  0  0  0
  189.0210  175.9790  138.9720 C   0  0  0  0  0  1  0  0  0  0  0  0
  188.5350  178.1540  140.1400 C   0  0  0  0  0  0  0  0  0  0  0  0
  189.2640  177.3960  139.1780 N   0  0  0  0  0  2  0  0  0  0  0  0
  187.5200  177.5350  140.9320 N   0  0  0  0  0  2  0  0  0  0  0  0
  1 11  1  0  0  0  0
  2 16  1  1  0  0  0
  2 19  1  0  0  0  0
  3 13  1  0  0  0  0
  4 12  2  0  0  0  0
  5 18  1  1  0  0  0
  5 17  1  0  0  0  0
  5 15  1  0  0  0  0
  6 12  1  0  0  0  0
  6  1  2  0  0  0  0
  7  8  1  0  0  0  0
  8  9  1  0  0  0  0
  9 10  1  0  0  0  0
  9  4  2  0  0  0  0
 11 19  2  0  0  0  0
 12  2  1  0  0  0  0
 13 14  1  1  0  0  0
 13 10  1  0  0  0  0
 15 17  1  1  0  0  0
 15  7  1  0  0  0  0
 15  3  1  0  0  0  0
 20 25  2  0  0  0  0
 21 24  1  0  0  0  0
 21 23  2  0  0  0  0
 22 25  1  0  0  0  0
 23 20  1  0  0  0  0
 24 22  2  0  0  0  0
 25  6  1  0  0  0  0
 26 27  1  0  0  0  0
 27 21  1  0  0  0  0
 29 31  1  0  0  0  0
 30 28  2  0  0  0  0
 30 32  1  0  0  0  0
 31 30  1  0  0  0  0
 32  7  1  0  0  0  0
M  END
>  <MODEL>
8

>  <REMARK>
 VINA RESULT:      -5.3      2.998      6.917
  Name = 
  3 active torsions:
  status: ('A' for Active; 'I' for Inactive)
    1  A    between atoms: C_10  and  N_13
    2  A    between atoms: C_14  and  C_32
    3  A    between atoms: N_15  and  N_29
                            x       y       z     vdW  Elec       q    Type
                         _______ _______ _______ _____ _____    ______ ____

>  <TORSDO>
F 3

$$$$
=
 OpenBabel10232408123D

 32 35  0  0  1  0  0  0  0  0999 V2000
  189.7300  177.6550  137.3600 N   0  0  0  0  0  0  0  0  0  0  0  0
  189.5810  174.9110  136.5450 C   0  0  2  0  0  3  0  0  0  0  0  0
  183.3690  173.0850  137.3460 C   0  0  0  0  0  2  0  0  0  0  0  0
  187.2170  175.1790  136.9940 C   0  0  0  0  0  0  0  0  0  0  0  0
  181.4520  174.8500  137.6590 C   0  0  1  0  0  3  0  0  0  0  0  0
  188.6670  176.9990  137.7310 C   0  0  0  0  0  0  0  0  0  0  0  0
  183.9250  175.5640  137.7170 N   0  0  0  0  0  0  0  0  0  0  0  0
  184.8930  175.6960  136.6340 C   0  0  0  0  0  2  0  0  0  0  0  0
  186.0120  174.7200  136.8160 C   0  0  0  0  0  0  0  0  0  0  0  0
  185.8090  173.2340  136.7490 C   0  0  0  0  0  2  0  0  0  0  0  0
  190.6840  177.1290  136.4230 C   0  0  0  0  0  3  0  0  0  0  0  0
  188.4270  175.6490  137.1590 C   0  0  0  0  0  0  0  0  0  0  0  0
  184.4190  172.8140  136.2760 C   0  0  1  0  0  3  0  0  0  0  0  0
  184.4350  171.3320  135.9720 C   0  0  0  0  0  1  0  0  0  0  0  0
  182.9170  174.5480  137.3330 C   0  0  1  0  0  0  0  0  0  0  0  0
  190.1680  174.1130  137.5080 F   0  0  0  0  0  0  0  0  0  0  0  0
  181.9610  174.9440  136.2210 C   0  0  0  0  0  2  0  0  0  0  0  0
  180.6700  173.6340  137.8130 N   0  0  0  0  0  1  0  0  0  0  0  0
  190.6130  175.8620  136.0030 C   0  0  0  0  0  3  0  0  0  0  0  0
  188.0690  177.6620  140.0320 N   0  0  0  0  0  0  0  0  0  0  0  0
  186.0480  178.8370  140.5120 C   0  0  0  0  0  0  0  0  0  0  0  0
  186.5870  178.1900  138.2820 N   0  0  0  0  0  0  0  0  0  0  0  0
  187.2460  178.2570  140.9340 C   0  0  0  0  0  3  0  0  0  0  0  0
  185.7360  178.7880  139.1550 C   0  0  0  0  0  3  0  0  0  0  0  0
  187.7470  177.6200  138.7090 C   0  0  0  0  0  0  0  0  0  0  0  0
  184.4820  178.7580  142.5000 C   0  0  0  0  0  1  0  0  0  0  0  0
  185.1540  179.4730  141.4270 N   0  0  0  0  0  2  0  0  0  0  0  0
  182.9820  176.5290  140.1730 O   0  0  0  0  0  0  0  0  0  0  0  0
  182.2320  179.5130  138.2060 C   0  0  0  0  0  1  0  0  0  0  0  0
  182.8930  177.2850  139.1690 C   0  0  0  0  0  0  0  0  0  0  0  0
  182.3440  178.5920  139.3220 N   0  0  0  0  0  2  0  0  0  0  0  0
  183.3410  176.8330  137.8890 N   0  0  0  0  0  2  0  0  0  0  0  0
  1  6  2  0  0  0  0
  2 12  1  0  0  0  0
  2 16  1  1  0  0  0
  4 12  2  0  0  0  0
  5 18  1  6  0  0  0
  6 25  1  0  0  0  0
  7 32  1  0  0  0  0
  8  9  1  0  0  0  0
  8  7  1  0  0  0  0
  9  4  2  0  0  0  0
 10  9  1  0  0  0  0
 11  1  1  0  0  0  0
 12  6  1  0  0  0  0
 13 14  1  1  0  0  0
 13 10  1  0  0  0  0
 13  3  1  0  0  0  0
 15 17  1  6  0  0  0
 15  3  1  0  0  0  0
 15  5  1  0  0  0  0
 15  7  1  0  0  0  0
 17  5  1  0  0  0  0
 19 11  2  0  0  0  0
 19  2  1  0  0  0  0
 20 23  1  0  0  0  0
 21 23  2  0  0  0  0
 21 27  1  0  0  0  0
 22 25  1  0  0  0  0
 22 24  2  0  0  0  0
 24 21  1  0  0  0  0
 25 20  2  0  0  0  0
 27 26  1  0  0  0  0
 29 31  1  0  0  0  0
 30 31  1  0  0  0  0
 30 28  2  0  0  0  0
 32 30  1  0  0  0  0
M  END
>  <MODEL>
9

>  <REMARK>
 VINA RESULT:      -5.3      3.069      7.804
  Name = 
  3 active torsions:
  status: ('A' for Active; 'I' for Inactive)
    1  A    between atoms: C_10  and  N_13
    2  A    between atoms: C_14  and  C_32
    3  A    between atoms: N_15  and  N_29
                            x       y       z     vdW  Elec       q    Type
                         _______ _______ _______ _____ _____    ______ ____

>  <TORSDO>
F 3

$$$$
