=
 OpenBabel10232409513D

 59 61  0  0  1  0  0  0  0  0999 V2000
  189.4920  176.9590  140.3050 C   0  0  2  0  0  3  0  0  0  0  0  0
  190.2220  178.3010  142.4180 C   0  0  1  0  0  3  0  0  0  0  0  0
  188.6510  178.1550  140.5980 C   0  0  0  0  0  0  0  0  0  0  0  0
  190.4280  176.5950  141.8220 S   0  0  0  0  0  0  0  0  0  0  0  0
  188.9200  178.8540  141.8750 C   0  0  0  0  0  2  0  0  0  0  0  0
  187.7140  178.5720  139.8040 N   0  0  0  0  0  0  0  0  0  0  0  0
  187.9240  177.8430  144.0380 O   0  0  0  0  0  0  0  0  0  0  0  0
  189.0230  178.0350  144.6250 C   0  0  0  0  0  0  0  0  0  0  0  0
  189.1010  177.9740  146.0490 N   0  0  0  0  0  2  0  0  0  0  0  0
  190.2030  178.3170  143.8710 N   0  0  0  0  0  2  0  0  0  0  0  0
  188.1550  176.6990  147.9030 C   0  0  0  0  0  1  0  0  0  0  0  0
  187.9170  177.7970  146.8790 C   0  0  2  0  0  3  0  0  0  0  0  0
  186.6810  177.5090  146.0300 C   0  0  0  0  0  2  0  0  0  0  0  0
  185.5950  178.5190  146.2130 C   0  0  0  0  0  0  0  0  0  0  0  0
  185.5770  179.5610  145.5140 O   0  0  0  0  0  0  0  0  0  0  0  0
  184.6080  178.3010  147.1640 O   0  0  0  0  0  1  0  0  0  0  0  0
  190.3730  177.2490  139.2580 O   0  0  0  0  0  0  0  0  0  0  0  0
  190.5750  176.0330  138.5980 C   0  0  0  0  0  2  0  0  0  0  0  0
  193.0040  176.5200  138.4110 C   0  0  0  0  0  1  0  0  0  0  0  0
  191.7500  176.1390  137.6290 C   0  0  1  0  0  3  0  0  0  0  0  0
  191.9610  174.8200  136.8810 C   0  0  1  0  0  3  0  0  0  0  0  0
  190.7910  173.8790  137.1230 C   0  0  0  0  0  1  0  0  0  0  0  0
  192.0750  175.0650  135.3780 C   0  0  0  0  0  2  0  0  0  0  0  0
  193.4870  175.4920  134.9870 C   0  0  0  0  0  2  0  0  0  0  0  0
  194.1450  173.0990  134.9650 C   0  0  0  0  0  2  0  0  0  0  0  0
  196.7400  172.6860  135.8650 O   0  0  0  0  0  0  0  0  0  0  0  0
  194.4700  174.4730  135.3440 N   0  0  0  0  0  0  0  0  0  0  0  0
  194.3280  172.1470  136.1340 C   0  0  0  0  0  2  0  0  0  0  0  0
  195.6840  174.8400  136.0380 C   0  0  0  0  0  0  0  0  0  0  0  0
  195.9680  176.0650  136.1730 O   0  0  0  0  0  0  0  0  0  0  0  0
  195.7880  171.6880  136.1940 C   0  0  2  0  0  3  0  0  0  0  0  0
  196.5570  173.7970  136.7040 C   0  0  2  0  0  3  0  0  0  0  0  0
  199.2170  173.1620  137.6090 O   0  0  0  0  0  1  0  0  0  0  0  0
  198.7940  175.2270  136.0640 O   0  0  0  0  0  0  0  0  0  0  0  0
  198.1890  174.4480  137.2080 P   0  0  1  0  0  0  0  0  0  0  0  0
  197.0240  174.9590  139.2410 O   0  0  0  0  0  1  0  0  0  0  0  0
  198.0130  175.4770  138.5430 O   0  0  0  0  0  0  0  0  0  0  0  0
  196.1440  170.8310  137.4230 C   0  0  1  0  0  3  0  0  0  0  0  0
  195.2800  171.1330  138.4720 O   0  0  0  0  0  1  0  0  0  0  0  0
  196.1140  169.3270  137.1580 C   0  0  0  0  0  2  0  0  0  0  0  0
  196.7120  168.6430  138.2170 O   0  0  0  0  0  1  0  0  0  0  0  0
  187.4340  177.9280  138.5910 N   0  0  0  0  0  2  0  0  0  0  0  0
  187.5460  178.5750  137.3490 N   0  0  0  0  0  2  0  0  0  0  0  0
  187.9310  177.9480  136.1180 C   0  0  0  0  0  0  0  0  0  0  0  0
  189.2070  177.8350  135.7600 C   0  0  0  0  0  2  0  0  0  0  0  0
  186.8650  177.6400  135.1190 C   0  0  0  0  0  2  0  0  0  0  0  0
  186.0560  176.4090  135.5080 C   0  0  1  0  0  3  0  0  0  0  0  0
  183.9460  176.4540  137.1920 C   0  0  0  0  0  2  0  0  0  0  0  0
  184.2880  176.7910  135.6520 S   0  0  0  0  0  0  0  0  0  0  0  0
  182.6210  176.6520  137.6880 N   0  0  0  0  0  2  0  0  0  0  0  0
  182.7150  176.7380  139.1420 C   0  0  2  0  0  3  0  0  0  0  0  0
  181.7050  175.7970  139.7640 C   0  0  0  0  0  1  0  0  0  0  0  0
  182.4940  178.1540  139.7030 C   0  0  2  0  0  3  0  0  0  0  0  0
  184.0270  179.1800  139.7500 S   0  0  0  0  0  0  0  0  0  0  0  0
  183.0540  178.3030  141.0460 C   0  0  0  0  0  2  0  0  0  0  0  0
  186.3230  175.2480  134.5460 C   0  0  0  0  0  2  0  0  0  0  0  0
  187.4690  174.3340  134.9820 C   0  0  0  0  0  2  0  0  0  0  0  0
  186.9720  173.1030  135.4230 O   0  0  0  0  0  0  0  0  0  0  0  0
  187.2870  173.0580  136.7020 O   0  0  0  0  0  1  0  0  0  0  0  0
  1 17  1  6  0  0  0
  1  3  1  0  0  0  0
  1  4  1  0  0  0  0
  2 10  1  1  0  0  0
  3  5  1  0  0  0  0
  4  2  1  0  0  0  0
  5  2  1  0  0  0  0
  6  3  2  0  0  0  0
  7  8  2  0  0  0  0
  8  9  1  0  0  0  0
  9 12  1  0  0  0  0
 10  8  1  0  0  0  0
 12 11  1  1  0  0  0
 13 14  1  0  0  0  0
 13 12  1  0  0  0  0
 14 16  1  0  0  0  0
 15 14  2  0  0  0  0
 18 17  1  0  0  0  0
 20 19  1  1  0  0  0
 20 18  1  0  0  0  0
 21 22  1  6  0  0  0
 21 20  1  0  0  0  0
 23 21  1  0  0  0  0
 24 27  1  0  0  0  0
 24 23  1  0  0  0  0
 25 27  1  0  0  0  0
 25 28  1  0  0  0  0
 26 31  1  0  0  0  0
 26 32  1  0  0  0  0
 27 29  1  0  0  0  0
 28 31  1  0  0  0  0
 29 30  2  0  0  0  0
 29 32  1  0  0  0  0
 31 38  1  1  0  0  0
 32 35  1  6  0  0  0
 35 34  2  6  0  0  0
 35 33  1  0  0  0  0
 35 37  1  0  0  0  0
 37 36  1  0  0  0  0
 38 39  1  1  0  0  0
 40 38  1  0  0  0  0
 40 41  1  0  0  0  0
 42  6  1  0  0  0  0
 43 42  1  0  0  0  0
 44 43  1  0  0  0  0
 45 44  2  0  0  0  0
 46 47  1  0  0  0  0
 46 44  1  0  0  0  0
 47 56  1  6  0  0  0
 47 49  1  0  0  0  0
 48 50  1  0  0  0  0
 49 48  1  0  0  0  0
 50 51  1  0  0  0  0
 51 52  1  1  0  0  0
 53 51  1  6  0  0  0
 53 54  1  0  0  0  0
 53 55  1  0  0  0  0
 54 55  1  0  0  0  0
 56 57  1  0  0  0  0
 57 58  1  0  0  0  0
 58 59  1  0  0  0  0
M  END
>  <MODEL>
1

>  <REMARK>
 VINA RESULT:      -6.3      0.000      0.000
  Name = 
  27 active torsions:
  status: ('A' for Active; 'I' for Inactive)
    1  A    between atoms: C_1  and  C_3
    2  A    between atoms: C_1  and  C_49
    3  A    between atoms: C_4  and  C_10
    4  A    between atoms: C_4  and  C_55
    5  A    between atoms: C_5  and  O_32
    6  A    between atoms: N_8  and  N_22
    7  A    between atoms: N_8  and  N_36
    8  A    between atoms: C_11  and  C_14
    9  A    between atoms: C_11  and  O_21
   10  A    between atoms: C_13  and  N_50
   11  A    between atoms: C_14  and  C_26
   12  A    between atoms: C_15  and  N_38
   13  A    between atoms: C_16  and  N_22
   14  A    between atoms: C_16  and  C_37
   15  A    between atoms: C_19  and  C_43
   16  A    between atoms: C_19  and  C_53
   17  A    between atoms: C_23  and  C_28
   18  A    between atoms: C_23  and  C_43
   19  A    between atoms: C_26  and  S_29
   20  A    between atoms: C_26  and  C_37
   21  A    between atoms: C_28  and  O_32
   22  A    between atoms: C_31  and  C_33
   23  A    between atoms: C_33  and  N_38
   24  A    between atoms: N_40  and  C_53
   25  A    between atoms: N_42  and  C_49
   26  A    between atoms: C_57  and  P_58
   27  A    between atoms: P_58  and  O_59
                            x       y       z     vdW  Elec       q    Type
                         _______ _______ _______ _____ _____    ______ ____

>  <TORSDO>
F 27

$$$$
=
 OpenBabel10232409513D

 59 61  0  0  1  0  0  0  0  0999 V2000
  190.1540  176.7540  139.1760 C   0  0  2  0  0  3  0  0  0  0  0  0
  192.1490  175.9600  137.6980 C   0  0  1  0  0  3  0  0  0  0  0  0
  191.4950  176.9280  139.8040 C   0  0  0  0  0  0  0  0  0  0  0  0
  190.3710  175.5900  137.7950 S   0  0  0  0  0  0  0  0  0  0  0  0
  192.6440  176.3430  139.0780 C   0  0  0  0  0  2  0  0  0  0  0  0
  191.6720  177.5380  140.9350 N   0  0  0  0  0  0  0  0  0  0  0  0
  194.7270  176.0060  136.4870 O   0  0  0  0  0  0  0  0  0  0  0  0
  194.1820  174.8810  136.6580 C   0  0  0  0  0  0  0  0  0  0  0  0
  194.8680  173.6840  136.2940 N   0  0  0  0  0  2  0  0  0  0  0  0
  192.8700  174.7940  137.2160 N   0  0  0  0  0  2  0  0  0  0  0  0
  196.2250  172.6200  134.5660 C   0  0  0  0  0  1  0  0  0  0  0  0
  196.1610  173.7100  135.6240 C   0  0  2  0  0  3  0  0  0  0  0  0
  197.3090  173.5850  136.6240 C   0  0  0  0  0  2  0  0  0  0  0  0
  198.0650  174.8590  136.8130 C   0  0  0  0  0  0  0  0  0  0  0  0
  198.4870  175.4970  135.8190 O   0  0  0  0  0  0  0  0  0  0  0  0
  198.3020  175.3310  138.0960 O   0  0  0  0  0  1  0  0  0  0  0  0
  189.6960  177.9860  138.6950 O   0  0  0  0  0  0  0  0  0  0  0  0
  188.3480  178.0470  139.0590 C   0  0  0  0  0  2  0  0  0  0  0  0
  186.0020  177.9450  138.2470 C   0  0  0  0  0  1  0  0  0  0  0  0
  187.4570  177.6760  137.8750 C   0  0  1  0  0  3  0  0  0  0  0  0
  187.8510  178.4720  136.6270 C   0  0  1  0  0  3  0  0  0  0  0  0
  189.0210  177.8050  135.9200 C   0  0  0  0  0  1  0  0  0  0  0  0
  186.6820  178.5520  135.6490 C   0  0  0  0  0  2  0  0  0  0  0  0
  186.6770  177.3670  134.6860 C   0  0  0  0  0  2  0  0  0  0  0  0
  184.2430  176.9360  134.4550 C   0  0  0  0  0  2  0  0  0  0  0  0
  183.5200  174.3790  135.2650 O   0  0  0  0  0  0  0  0  0  0  0  0
  185.5460  176.4790  134.9390 N   0  0  0  0  0  0  0  0  0  0  0  0
  183.1850  176.8270  135.5390 C   0  0  0  0  0  2  0  0  0  0  0  0
  185.7410  175.2270  135.6350 C   0  0  0  0  0  0  0  0  0  0  0  0
  186.9190  174.8280  135.8640 O   0  0  0  0  0  0  0  0  0  0  0  0
  182.5900  175.4160  135.5320 C   0  0  2  0  0  3  0  0  0  0  0  0
  184.5700  174.4470  136.1950 C   0  0  2  0  0  3  0  0  0  0  0  0
  186.1740  172.8310  137.9600 O   0  0  0  0  0  1  0  0  0  0  0  0
  183.7950  172.0380  137.2230 O   0  0  0  0  0  0  0  0  0  0  0  0
  185.0250  172.7540  136.7170 P   0  0  1  0  0  0  0  0  0  0  0  0
  186.8880  171.5840  135.7620 O   0  0  0  0  0  1  0  0  0  0  0  0
  185.6610  171.8970  135.4020 O   0  0  0  0  0  0  0  0  0  0  0  0
  181.6050  175.1260  136.6780 C   0  0  1  0  0  3  0  0  0  0  0  0
  180.7240  176.1940  136.8220 O   0  0  0  0  0  1  0  0  0  0  0  0
  180.8100  173.8340  136.5000 C   0  0  0  0  0  2  0  0  0  0  0  0
  180.5540  173.2540  137.7420 O   0  0  0  0  0  1  0  0  0  0  0  0
  190.6020  178.0990  141.6460 N   0  0  0  0  0  2  0  0  0  0  0  0
  189.7700  177.3380  142.4840 N   0  0  0  0  0  2  0  0  0  0  0  0
  189.6120  177.5320  143.8960 C   0  0  0  0  0  0  0  0  0  0  0  0
  190.6190  177.9420  144.6620 C   0  0  0  0  0  2  0  0  0  0  0  0
  188.3630  177.0310  144.5430 C   0  0  0  0  0  2  0  0  0  0  0  0
  187.2000  177.9990  144.3640 C   0  0  1  0  0  3  0  0  0  0  0  0
  184.9490  178.0590  142.8750 C   0  0  0  0  0  2  0  0  0  0  0  0
  186.5450  177.9500  142.6730 S   0  0  0  0  0  0  0  0  0  0  0  0
  184.0840  178.0660  141.7370 N   0  0  0  0  0  2  0  0  0  0  0  0
  182.9720  178.9590  142.0480 C   0  0  2  0  0  3  0  0  0  0  0  0
  182.7060  178.9240  143.5380 C   0  0  0  0  0  1  0  0  0  0  0  0
  181.6710  178.6270  141.2970 C   0  0  2  0  0  3  0  0  0  0  0  0
  181.8610  177.2880  140.0410 S   0  0  0  0  0  0  0  0  0  0  0  0
  181.6940  179.1190  139.9190 C   0  0  0  0  0  2  0  0  0  0  0  0
  186.1140  177.7540  145.4150 C   0  0  0  0  0  2  0  0  0  0  0  0
  186.4360  178.3480  146.7880 C   0  0  0  0  0  2  0  0  0  0  0  0
  185.2840  178.8920  147.3670 O   0  0  0  0  0  0  0  0  0  0  0  0
  184.3730  178.8240  146.4180 O   0  0  0  0  0  1  0  0  0  0  0  0
  1 17  1  6  0  0  0
  1  3  1  0  0  0  0
  2 10  1  1  0  0  0
  2  4  1  0  0  0  0
  2  5  1  0  0  0  0
  3  6  2  0  0  0  0
  4  1  1  0  0  0  0
  5  3  1  0  0  0  0
  6 42  1  0  0  0  0
  7  8  2  0  0  0  0
  8 10  1  0  0  0  0
  9  8  1  0  0  0  0
 12 11  1  6  0  0  0
 12  9  1  0  0  0  0
 12 13  1  0  0  0  0
 13 14  1  0  0  0  0
 14 16  1  0  0  0  0
 15 14  2  0  0  0  0
 17 18  1  0  0  0  0
 20 19  1  1  0  0  0
 20 18  1  0  0  0  0
 21 22  1  6  0  0  0
 21 20  1  0  0  0  0
 23 21  1  0  0  0  0
 24 27  1  0  0  0  0
 24 23  1  0  0  0  0
 25 27  1  0  0  0  0
 25 28  1  0  0  0  0
 26 31  1  0  0  0  0
 26 32  1  0  0  0  0
 27 29  1  0  0  0  0
 29 30  2  0  0  0  0
 29 32  1  0  0  0  0
 31 28  1  0  0  0  0
 31 38  1  1  0  0  0
 32 35  1  6  0  0  0
 35 34  2  1  0  0  0
 35 33  1  0  0  0  0
 37 36  1  0  0  0  0
 37 35  1  0  0  0  0
 38 39  1  6  0  0  0
 40 38  1  0  0  0  0
 40 41  1  0  0  0  0
 42 43  1  0  0  0  0
 43 44  1  0  0  0  0
 44 46  1  0  0  0  0
 44 45  2  0  0  0  0
 47 46  1  6  0  0  0
 47 56  1  0  0  0  0
 49 48  1  0  0  0  0
 49 47  1  0  0  0  0
 50 51  1  0  0  0  0
 50 48  1  0  0  0  0
 51 52  1  1  0  0  0
 53 51  1  1  0  0  0
 54 53  1  0  0  0  0
 55 54  1  0  0  0  0
 55 53  1  0  0  0  0
 56 57  1  0  0  0  0
 57 58  1  0  0  0  0
 59 58  1  0  0  0  0
M  END
>  <MODEL>
2

>  <REMARK>
 VINA RESULT:      -6.2      3.066     10.343
  Name = 
  27 active torsions:
  status: ('A' for Active; 'I' for Inactive)
    1  A    between atoms: C_1  and  C_3
    2  A    between atoms: C_1  and  C_49
    3  A    between atoms: C_4  and  C_10
    4  A    between atoms: C_4  and  C_55
    5  A    between atoms: C_5  and  O_32
    6  A    between atoms: N_8  and  N_22
    7  A    between atoms: N_8  and  N_36
    8  A    between atoms: C_11  and  C_14
    9  A    between atoms: C_11  and  O_21
   10  A    between atoms: C_13  and  N_50
   11  A    between atoms: C_14  and  C_26
   12  A    between atoms: C_15  and  N_38
   13  A    between atoms: C_16  and  N_22
   14  A    between atoms: C_16  and  C_37
   15  A    between atoms: C_19  and  C_43
   16  A    between atoms: C_19  and  C_53
   17  A    between atoms: C_23  and  C_28
   18  A    between atoms: C_23  and  C_43
   19  A    between atoms: C_26  and  S_29
   20  A    between atoms: C_26  and  C_37
   21  A    between atoms: C_28  and  O_32
   22  A    between atoms: C_31  and  C_33
   23  A    between atoms: C_33  and  N_38
   24  A    between atoms: N_40  and  C_53
   25  A    between atoms: N_42  and  C_49
   26  A    between atoms: C_57  and  P_58
   27  A    between atoms: P_58  and  O_59
                            x       y       z     vdW  Elec       q    Type
                         _______ _______ _______ _____ _____    ______ ____

>  <TORSDO>
F 27

$$$$
=
 OpenBabel10232409513D

 59 61  0  0  1  0  0  0  0  0999 V2000
  189.3280  176.9680  139.8150 C   0  0  2  0  0  3  0  0  0  0  0  0
  190.1140  178.4550  141.8070 C   0  0  1  0  0  3  0  0  0  0  0  0
  188.4210  178.1090  140.1290 C   0  0  0  0  0  0  0  0  0  0  0  0
  190.4070  176.7450  141.2640 S   0  0  0  0  0  0  0  0  0  0  0  0
  188.7340  178.8830  141.3520 C   0  0  0  0  0  2  0  0  0  0  0  0
  187.3950  178.4170  139.3990 N   0  0  0  0  0  0  0  0  0  0  0  0
  188.5990  176.8910  143.6430 O   0  0  0  0  0  0  0  0  0  0  0  0
  189.4510  177.6890  144.1200 C   0  0  0  0  0  0  0  0  0  0  0  0
  189.6650  177.7580  145.5300 N   0  0  0  0  0  2  0  0  0  0  0  0
  190.2080  178.5360  143.2550 N   0  0  0  0  0  2  0  0  0  0  0  0
  187.6880  177.8480  146.9590 C   0  0  0  0  0  1  0  0  0  0  0  0
  188.8520  177.0010  146.4710 C   0  0  2  0  0  3  0  0  0  0  0  0
  189.6910  176.4810  147.6370 C   0  0  0  0  0  2  0  0  0  0  0  0
  191.1610  176.6150  147.4100 C   0  0  0  0  0  0  0  0  0  0  0  0
  191.8410  177.3970  148.1170 O   0  0  0  0  0  1  0  0  0  0  0  0
  191.7700  175.8740  146.4070 O   0  0  0  0  0  0  0  0  0  0  0  0
  190.0990  177.2750  138.6890 O   0  0  0  0  0  0  0  0  0  0  0  0
  190.3150  176.0530  138.0450 C   0  0  0  0  0  2  0  0  0  0  0  0
  192.7470  176.5360  138.2080 C   0  0  0  0  0  1  0  0  0  0  0  0
  191.6310  176.0820  137.2710 C   0  0  1  0  0  3  0  0  0  0  0  0
  191.9480  174.7050  136.6820 C   0  0  1  0  0  3  0  0  0  0  0  0
  190.7950  173.7440  136.9280 C   0  0  0  0  0  1  0  0  0  0  0  0
  192.1760  174.8030  135.1750 C   0  0  0  0  0  2  0  0  0  0  0  0
  193.5860  175.2910  134.8550 C   0  0  0  0  0  2  0  0  0  0  0  0
  194.3290  172.9230  134.8960 C   0  0  0  0  0  2  0  0  0  0  0  0
  196.9090  172.6190  135.8780 O   0  0  0  0  0  0  0  0  0  0  0  0
  194.5940  174.3140  135.2590 N   0  0  0  0  0  0  0  0  0  0  0  0
  194.5100  171.9990  136.0880 C   0  0  0  0  0  2  0  0  0  0  0  0
  195.7730  174.7370  135.9800 C   0  0  0  0  0  0  0  0  0  0  0  0
  196.0100  175.9740  136.1010 O   0  0  0  0  0  0  0  0  0  0  0  0
  195.9830  171.5930  136.1980 C   0  0  2  0  0  3  0  0  0  0  0  0
  196.6620  173.7380  136.6900 C   0  0  2  0  0  3  0  0  0  0  0  0
  199.3090  173.2150  137.6990 O   0  0  0  0  0  1  0  0  0  0  0  0
  198.8730  175.2220  136.0840 O   0  0  0  0  0  0  0  0  0  0  0  0
  198.2550  174.4560  137.2290 P   0  0  1  0  0  0  0  0  0  0  0  0
  199.0810  175.4020  139.2720 O   0  0  0  0  0  1  0  0  0  0  0  0
  198.0010  175.5130  138.5280 O   0  0  0  0  0  0  0  0  0  0  0  0
  196.3330  170.7710  137.4520 C   0  0  1  0  0  3  0  0  0  0  0  0
  195.1890  170.1400  137.9330 O   0  0  0  0  0  1  0  0  0  0  0  0
  197.4280  169.7320  137.2250 C   0  0  0  0  0  2  0  0  0  0  0  0
  197.4800  169.3770  135.8770 O   0  0  0  0  0  1  0  0  0  0  0  0
  187.0720  177.7000  138.2380 N   0  0  0  0  0  2  0  0  0  0  0  0
  187.2170  178.2420  136.9500 N   0  0  0  0  0  2  0  0  0  0  0  0
  187.3290  177.4840  135.7390 C   0  0  0  0  0  0  0  0  0  0  0  0
  188.5120  177.1680  135.2190 C   0  0  0  0  0  2  0  0  0  0  0  0
  186.0950  177.2600  134.9280 C   0  0  0  0  0  2  0  0  0  0  0  0
  185.1260  176.3050  135.6150 C   0  0  1  0  0  3  0  0  0  0  0  0
  182.5870  175.8350  136.4010 C   0  0  0  0  0  2  0  0  0  0  0  0
  183.4520  177.0000  135.6980 S   0  0  0  0  0  0  0  0  0  0  0  0
  181.1940  176.0330  136.6520 N   0  0  0  0  0  2  0  0  0  0  0  0
  180.8420  175.2050  137.8020 C   0  0  2  0  0  3  0  0  0  0  0  0
  180.1020  173.9750  137.3240 C   0  0  0  0  0  1  0  0  0  0  0  0
  179.9860  175.9290  138.8570 C   0  0  2  0  0  3  0  0  0  0  0  0
  180.9570  177.0470  139.9590 S   0  0  0  0  0  0  0  0  0  0  0  0
  180.1980  175.3850  140.1990 C   0  0  0  0  0  2  0  0  0  0  0  0
  185.1500  174.9250  134.9520 C   0  0  0  0  0  2  0  0  0  0  0  0
  185.4790  173.7820  135.9130 C   0  0  0  0  0  2  0  0  0  0  0  0
  186.4870  174.1660  136.8030 O   0  0  0  0  0  0  0  0  0  0  0  0
  187.4260  173.2540  136.6520 O   0  0  0  0  0  1  0  0  0  0  0  0
  1 17  1  6  0  0  0
  1  3  1  0  0  0  0
  1  4  1  0  0  0  0
  2 10  1  1  0  0  0
  3  5  1  0  0  0  0
  4  2  1  0  0  0  0
  5  2  1  0  0  0  0
  6  3  2  0  0  0  0
  7  8  2  0  0  0  0
  8  9  1  0  0  0  0
  9 12  1  0  0  0  0
 10  8  1  0  0  0  0
 12 11  1  1  0  0  0
 12 13  1  0  0  0  0
 14 13  1  0  0  0  0
 14 15  1  0  0  0  0
 16 14  2  0  0  0  0
 18 17  1  0  0  0  0
 20 18  1  0  0  0  0
 20 19  1  1  0  0  0
 21 22  1  6  0  0  0
 21 20  1  0  0  0  0
 23 21  1  0  0  0  0
 24 23  1  0  0  0  0
 24 27  1  0  0  0  0
 25 27  1  0  0  0  0
 25 28  1  0  0  0  0
 26 31  1  0  0  0  0
 26 32  1  0  0  0  0
 27 29  1  0  0  0  0
 28 31  1  0  0  0  0
 29 30  2  0  0  0  0
 29 32  1  0  0  0  0
 31 38  1  1  0  0  0
 32 35  1  6  0  0  0
 35 34  2  6  0  0  0
 35 33  1  0  0  0  0
 35 37  1  0  0  0  0
 37 36  1  0  0  0  0
 38 39  1  6  0  0  0
 40 38  1  0  0  0  0
 41 40  1  0  0  0  0
 42  6  1  0  0  0  0
 43 42  1  0  0  0  0
 44 43  1  0  0  0  0
 45 44  2  0  0  0  0
 46 44  1  0  0  0  0
 47 46  1  6  0  0  0
 47 49  1  0  0  0  0
 48 50  1  0  0  0  0
 49 48  1  0  0  0  0
 50 51  1  0  0  0  0
 51 52  1  6  0  0  0
 53 51  1  6  0  0  0
 53 54  1  0  0  0  0
 53 55  1  0  0  0  0
 54 55  1  0  0  0  0
 56 47  1  0  0  0  0
 56 57  1  0  0  0  0
 57 58  1  0  0  0  0
 59 58  1  0  0  0  0
M  END
>  <MODEL>
3

>  <REMARK>
 VINA RESULT:      -5.9      1.593      2.126
  Name = 
  27 active torsions:
  status: ('A' for Active; 'I' for Inactive)
    1  A    between atoms: C_1  and  C_3
    2  A    between atoms: C_1  and  C_49
    3  A    between atoms: C_4  and  C_10
    4  A    between atoms: C_4  and  C_55
    5  A    between atoms: C_5  and  O_32
    6  A    between atoms: N_8  and  N_22
    7  A    between atoms: N_8  and  N_36
    8  A    between atoms: C_11  and  C_14
    9  A    between atoms: C_11  and  O_21
   10  A    between atoms: C_13  and  N_50
   11  A    between atoms: C_14  and  C_26
   12  A    between atoms: C_15  and  N_38
   13  A    between atoms: C_16  and  N_22
   14  A    between atoms: C_16  and  C_37
   15  A    between atoms: C_19  and  C_43
   16  A    between atoms: C_19  and  C_53
   17  A    between atoms: C_23  and  C_28
   18  A    between atoms: C_23  and  C_43
   19  A    between atoms: C_26  and  S_29
   20  A    between atoms: C_26  and  C_37
   21  A    between atoms: C_28  and  O_32
   22  A    between atoms: C_31  and  C_33
   23  A    between atoms: C_33  and  N_38
   24  A    between atoms: N_40  and  C_53
   25  A    between atoms: N_42  and  C_49
   26  A    between atoms: C_57  and  P_58
   27  A    between atoms: P_58  and  O_59
                            x       y       z     vdW  Elec       q    Type
                         _______ _______ _______ _____ _____    ______ ____

>  <TORSDO>
F 27

$$$$
=
 OpenBabel10232409513D

 59 61  0  0  1  0  0  0  0  0999 V2000
  190.1280  177.0770  140.5770 C   0  0  2  0  0  3  0  0  0  0  0  0
  192.3740  177.1360  139.2550 C   0  0  1  0  0  3  0  0  0  0  0  0
  191.2850  177.6190  141.3480 C   0  0  0  0  0  0  0  0  0  0  0  0
  190.8230  176.1940  139.1460 S   0  0  0  0  0  0  0  0  0  0  0  0
  192.6120  177.5200  140.7020 C   0  0  0  0  0  2  0  0  0  0  0  0
  191.1650  178.1370  142.5320 N   0  0  0  0  0  0  0  0  0  0  0  0
  192.9270  176.5920  136.5140 O   0  0  0  0  0  0  0  0  0  0  0  0
  193.7260  176.1300  137.3740 C   0  0  0  0  0  0  0  0  0  0  0  0
  194.8840  175.4030  136.9660 N   0  0  0  0  0  2  0  0  0  0  0  0
  193.4780  176.3270  138.7670 N   0  0  0  0  0  2  0  0  0  0  0  0
  195.5390  176.3260  134.8030 C   0  0  0  0  0  1  0  0  0  0  0  0
  195.1370  175.0770  135.5690 C   0  0  2  0  0  3  0  0  0  0  0  0
  193.9290  174.3950  134.9300 C   0  0  0  0  0  2  0  0  0  0  0  0
  193.8480  172.9350  135.2370 C   0  0  0  0  0  0  0  0  0  0  0  0
  194.5690  172.1170  134.6150 O   0  0  0  0  0  0  0  0  0  0  0  0
  192.9650  172.4870  136.2090 O   0  0  0  0  0  1  0  0  0  0  0  0
  189.3180  178.1310  140.1410 O   0  0  0  0  0  0  0  0  0  0  0  0
  189.3490  178.0670  138.7450 C   0  0  0  0  0  2  0  0  0  0  0  0
  186.8880  178.2160  139.0530 C   0  0  0  0  0  1  0  0  0  0  0  0
  187.9980  177.6070  138.2020 C   0  0  1  0  0  3  0  0  0  0  0  0
  187.8350  178.0110  136.7330 C   0  0  1  0  0  3  0  0  0  0  0  0
  187.5740  179.5050  136.6190 C   0  0  0  0  0  1  0  0  0  0  0  0
  189.0990  177.6830  135.9410 C   0  0  0  0  0  2  0  0  0  0  0  0
  188.8790  176.5000  135.0020 C   0  0  0  0  0  2  0  0  0  0  0  0
  186.5060  176.8310  134.3530 C   0  0  0  0  0  2  0  0  0  0  0  0
  184.8910  174.6780  135.0390 O   0  0  0  0  0  0  0  0  0  0  0  0
  187.5000  176.0230  135.0590 N   0  0  0  0  0  0  0  0  0  0  0  0
  185.3050  177.1210  135.2370 C   0  0  0  0  0  2  0  0  0  0  0  0
  187.1740  174.8170  135.7850 C   0  0  0  0  0  0  0  0  0  0  0  0
  188.1120  174.0870  136.2180 O   0  0  0  0  0  0  0  0  0  0  0  0
  184.3050  175.9660  135.1340 C   0  0  2  0  0  3  0  0  0  0  0  0
  185.7420  174.4730  136.1380 C   0  0  2  0  0  3  0  0  0  0  0  0
  186.7700  171.7830  136.0880 O   0  0  0  0  0  0  0  0  0  0  0  0
  185.6510  172.7400  138.2470 O   0  0  0  0  0  1  0  0  0  0  0  0
  185.5470  172.7570  136.7400 P   0  0  1  0  0  0  0  0  0  0  0  0
  183.4330  171.8490  137.4170 O   0  0  0  0  0  1  0  0  0  0  0  0
  184.0310  172.1550  136.2850 O   0  0  0  0  0  0  0  0  0  0  0  0
  183.1050  176.0650  136.0930 C   0  0  1  0  0  3  0  0  0  0  0  0
  182.5200  177.3230  135.9840 O   0  0  0  0  0  1  0  0  0  0  0  0
  182.0440  174.9900  135.8690 C   0  0  0  0  0  2  0  0  0  0  0  0
  181.0040  175.1460  136.7870 O   0  0  0  0  0  1  0  0  0  0  0  0
  189.9210  178.2400  143.1700 N   0  0  0  0  0  0  0  0  0  0  0  0
  189.4090  177.2250  143.9960 N   0  0  0  0  0  0  0  0  0  0  0  0
  188.2870  177.3600  144.8780 C   0  0  0  0  0  0  0  0  0  0  0  0
  188.4430  177.5940  146.1780 C   0  0  0  0  0  2  0  0  0  0  0  0
  186.9360  176.9880  144.3630 C   0  0  0  0  0  2  0  0  0  0  0  0
  186.0370  178.2060  144.1860 C   0  0  1  0  0  3  0  0  0  0  0  0
  184.1950  178.6210  142.2570 C   0  0  0  0  0  2  0  0  0  0  0  0
  185.7980  178.6090  142.4330 S   0  0  0  0  0  0  0  0  0  0  0  0
  183.6200  178.9220  140.9840 N   0  0  0  0  0  2  0  0  0  0  0  0
  182.5470  177.9580  140.7580 C   0  0  2  0  0  3  0  0  0  0  0  0
  182.9170  177.0640  139.5940 C   0  0  0  0  0  1  0  0  0  0  0  0
  181.1740  178.5980  140.4850 C   0  0  2  0  0  3  0  0  0  0  0  0
  180.4730  179.4960  141.9360 S   0  0  0  0  0  0  0  0  0  0  0  0
  180.0910  177.8740  141.1500 C   0  0  0  0  0  2  0  0  0  0  0  0
  184.7090  178.0230  144.9270 C   0  0  0  0  0  2  0  0  0  0  0  0
  184.7190  178.5620  146.3580 C   0  0  0  0  0  2  0  0  0  0  0  0
  185.5710  179.6670  146.4580 O   0  0  0  0  0  0  0  0  0  0  0  0
  185.8380  179.7640  147.7440 O   0  0  0  0  0  1  0  0  0  0  0  0
  1 17  1  6  0  0  0
  1  3  1  0  0  0  0
  2 10  1  1  0  0  0
  2  5  1  0  0  0  0
  3  6  2  0  0  0  0
  4  2  1  0  0  0  0
  4  1  1  0  0  0  0
  5  3  1  0  0  0  0
  6 42  1  0  0  0  0
  7  8  2  0  0  0  0
  8 10  1  0  0  0  0
  9  8  1  0  0  0  0
 12 11  1  6  0  0  0
 12  9  1  0  0  0  0
 13 14  1  0  0  0  0
 13 12  1  0  0  0  0
 14 16  1  0  0  0  0
 15 14  2  0  0  0  0
 18 17  1  0  0  0  0
 20 18  1  0  0  0  0
 20 19  1  1  0  0  0
 21 22  1  1  0  0  0
 21 20  1  0  0  0  0
 23 21  1  0  0  0  0
 24 27  1  0  0  0  0
 24 23  1  0  0  0  0
 25 27  1  0  0  0  0
 25 28  1  0  0  0  0
 26 31  1  0  0  0  0
 26 32  1  0  0  0  0
 27 29  1  0  0  0  0
 29 32  1  0  0  0  0
 29 30  2  0  0  0  0
 31 28  1  0  0  0  0
 31 38  1  1  0  0  0
 32 35  1  6  0  0  0
 35 33  2  6  0  0  0
 35 34  1  0  0  0  0
 37 35  1  0  0  0  0
 37 36  1  0  0  0  0
 38 39  1  6  0  0  0
 40 38  1  0  0  0  0
 40 41  1  0  0  0  0
 42 43  2  0  0  0  0
 43 44  1  0  0  0  0
 44 45  2  0  0  0  0
 46 44  1  0  0  0  0
 47 46  1  6  0  0  0
 47 56  1  0  0  0  0
 48 49  1  0  0  0  0
 49 47  1  0  0  0  0
 50 48  1  0  0  0  0
 51 52  1  6  0  0  0
 51 50  1  0  0  0  0
 53 51  1  1  0  0  0
 53 55  1  0  0  0  0
 53 54  1  0  0  0  0
 55 54  1  0  0  0  0
 56 57  1  0  0  0  0
 57 58  1  0  0  0  0
 58 59  1  0  0  0  0
M  END
>  <MODEL>
4

>  <REMARK>
 VINA RESULT:      -5.5      3.260      9.797
  Name = 
  27 active torsions:
  status: ('A' for Active; 'I' for Inactive)
    1  A    between atoms: C_1  and  C_3
    2  A    between atoms: C_1  and  C_49
    3  A    between atoms: C_4  and  C_10
    4  A    between atoms: C_4  and  C_55
    5  A    between atoms: C_5  and  O_32
    6  A    between atoms: N_8  and  N_22
    7  A    between atoms: N_8  and  N_36
    8  A    between atoms: C_11  and  C_14
    9  A    between atoms: C_11  and  O_21
   10  A    between atoms: C_13  and  N_50
   11  A    between atoms: C_14  and  C_26
   12  A    between atoms: C_15  and  N_38
   13  A    between atoms: C_16  and  N_22
   14  A    between atoms: C_16  and  C_37
   15  A    between atoms: C_19  and  C_43
   16  A    between atoms: C_19  and  C_53
   17  A    between atoms: C_23  and  C_28
   18  A    between atoms: C_23  and  C_43
   19  A    between atoms: C_26  and  S_29
   20  A    between atoms: C_26  and  C_37
   21  A    between atoms: C_28  and  O_32
   22  A    between atoms: C_31  and  C_33
   23  A    between atoms: C_33  and  N_38
   24  A    between atoms: N_40  and  C_53
   25  A    between atoms: N_42  and  C_49
   26  A    between atoms: C_57  and  P_58
   27  A    between atoms: P_58  and  O_59
                            x       y       z     vdW  Elec       q    Type
                         _______ _______ _______ _____ _____    ______ ____

>  <TORSDO>
F 27

$$$$
=
 OpenBabel10232409513D

 59 61  0  0  1  0  0  0  0  0999 V2000
  190.5260  177.5420  138.9470 C   0  0  2  0  0  3  0  0  0  0  0  0
  189.5820  177.2120  141.3540 C   0  0  1  0  0  3  0  0  0  0  0  0
  191.5520  177.1840  139.9690 C   0  0  0  0  0  0  0  0  0  0  0  0
  189.0540  178.1000  139.8580 S   0  0  0  0  0  0  0  0  0  0  0  0
  191.0950  177.1490  141.3770 C   0  0  0  0  0  2  0  0  0  0  0  0
  192.7890  176.9320  139.6710 N   0  0  0  0  0  0  0  0  0  0  0  0
  187.9070  176.0670  143.3540 O   0  0  0  0  0  0  0  0  0  0  0  0
  188.2930  177.2560  143.5250 C   0  0  0  0  0  0  0  0  0  0  0  0
  187.9300  177.9690  144.7080 N   0  0  0  0  0  2  0  0  0  0  0  0
  189.0940  177.9030  142.5360 N   0  0  0  0  0  2  0  0  0  0  0  0
  185.9910  178.4360  146.1140 C   0  0  0  0  0  1  0  0  0  0  0  0
  187.0290  177.4040  145.7020 C   0  0  2  0  0  3  0  0  0  0  0  0
  187.7960  176.8720  146.9110 C   0  0  0  0  0  2  0  0  0  0  0  0
  188.9680  177.7210  147.2830 C   0  0  0  0  0  0  0  0  0  0  0  0
  190.1050  177.4690  146.8140 O   0  0  0  0  0  0  0  0  0  0  0  0
  188.7950  178.7860  148.1550 O   0  0  0  0  0  1  0  0  0  0  0  0
  190.2140  176.4150  138.1790 O   0  0  0  0  0  0  0  0  0  0  0  0
  189.5830  176.9110  137.0340 C   0  0  0  0  0  2  0  0  0  0  0  0
  188.0870  174.9910  137.5310 C   0  0  0  0  0  1  0  0  0  0  0  0
  188.6840  175.8440  136.4150 C   0  0  1  0  0  3  0  0  0  0  0  0
  187.5760  176.4860  135.5750 C   0  0  1  0  0  3  0  0  0  0  0  0
  187.2690  175.6280  134.3570 C   0  0  0  0  0  1  0  0  0  0  0  0
  186.2950  176.6310  136.3940 C   0  0  0  0  0  2  0  0  0  0  0  0
  186.2460  177.9710  137.1230 C   0  0  0  0  0  2  0  0  0  0  0  0
  184.9700  179.2570  138.8190 C   0  0  0  0  0  2  0  0  0  0  0  0
  182.4010  178.2760  139.2070 O   0  0  0  0  0  0  0  0  0  0  0  0
  185.0420  178.0900  137.9400 N   0  0  0  0  0  0  0  0  0  0  0  0
  184.5890  178.8570  140.2340 C   0  0  0  0  0  2  0  0  0  0  0  0
  184.0020  177.0890  137.8600 C   0  0  0  0  0  0  0  0  0  0  0  0
  184.0640  176.2100  136.9530 O   0  0  0  0  0  0  0  0  0  0  0  0
  183.0630  178.7890  140.3510 C   0  0  2  0  0  3  0  0  0  0  0  0
  182.9110  177.0020  138.9070 C   0  0  2  0  0  3  0  0  0  0  0  0
  180.5190  175.6330  139.7430 O   0  0  0  0  0  1  0  0  0  0  0  0
  180.7430  176.5530  137.3070 O   0  0  0  0  0  0  0  0  0  0  0  0
  181.5370  175.9010  138.4150 P   0  0  1  0  0  0  0  0  0  0  0  0
  181.0900  173.6980  137.5790 O   0  0  0  0  0  1  0  0  0  0  0  0
  182.1520  174.4250  137.8570 O   0  0  0  0  0  0  0  0  0  0  0  0
  182.5430  178.2530  141.6970 C   0  0  1  0  0  3  0  0  0  0  0  0
  183.5380  178.3720  142.6640 O   0  0  0  0  0  1  0  0  0  0  0  0
  181.2720  178.9430  142.1880 C   0  0  0  0  0  2  0  0  0  0  0  0
  180.1480  178.3100  141.6560 O   0  0  0  0  0  1  0  0  0  0  0  0
  193.2500  176.9630  138.3470 N   0  0  0  0  0  2  0  0  0  0  0  0
  193.0420  175.9010  137.4500 N   0  0  0  0  0  2  0  0  0  0  0  0
  193.9180  175.5400  136.3750 C   0  0  0  0  0  0  0  0  0  0  0  0
  193.4850  175.4460  135.1210 C   0  0  0  0  0  2  0  0  0  0  0  0
  195.2790  175.0260  136.7140 C   0  0  0  0  0  2  0  0  0  0  0  0
  195.2290  173.6170  137.2920 C   0  0  1  0  0  3  0  0  0  0  0  0
  194.3830  171.1600  136.5630 C   0  0  0  0  0  2  0  0  0  0  0  0
  195.2940  172.3590  135.9870 S   0  0  0  0  0  0  0  0  0  0  0  0
  194.1850  169.9770  135.7850 N   0  0  0  0  0  2  0  0  0  0  0  0
  194.4180  168.8380  136.6690 C   0  0  2  0  0  3  0  0  0  0  0  0
  193.0950  168.1750  136.9860 C   0  0  0  0  0  1  0  0  0  0  0  0
  195.1280  169.2000  137.9860 C   0  0  2  0  0  3  0  0  0  0  0  0
  196.7380  168.3310  138.2230 S   0  0  0  0  0  0  0  0  0  0  0  0
  195.0630  168.1090  138.9590 C   0  0  0  0  0  2  0  0  0  0  0  0
  196.3200  173.4170  138.3480 C   0  0  0  0  0  2  0  0  0  0  0  0
  197.3400  174.5550  138.4080 C   0  0  0  0  0  2  0  0  0  0  0  0
  198.6040  174.0990  138.0180 O   0  0  0  0  0  0  0  0  0  0  0  0
  199.0030  174.9670  137.1110 O   0  0  0  0  0  1  0  0  0  0  0  0
  1 17  1  1  0  0  0
  1  4  1  0  0  0  0
  1  3  1  0  0  0  0
  2  5  1  0  0  0  0
  2 10  1  1  0  0  0
  3  5  1  0  0  0  0
  4  2  1  0  0  0  0
  6  3  2  0  0  0  0
  7  8  2  0  0  0  0
  8  9  1  0  0  0  0
  9 12  1  0  0  0  0
 10  8  1  0  0  0  0
 12 11  1  1  0  0  0
 12 13  1  0  0  0  0
 13 14  1  0  0  0  0
 14 16  1  0  0  0  0
 15 14  2  0  0  0  0
 18 17  1  0  0  0  0
 20 18  1  0  0  0  0
 20 19  1  1  0  0  0
 21 22  1  6  0  0  0
 21 23  1  0  0  0  0
 21 20  1  0  0  0  0
 23 24  1  0  0  0  0
 24 27  1  0  0  0  0
 25 28  1  0  0  0  0
 26 31  1  0  0  0  0
 27 25  1  0  0  0  0
 28 31  1  0  0  0  0
 29 27  1  0  0  0  0
 29 32  1  0  0  0  0
 30 29  2  0  0  0  0
 31 38  1  1  0  0  0
 32 35  1  6  0  0  0
 32 26  1  0  0  0  0
 35 34  2  6  0  0  0
 35 33  1  0  0  0  0
 36 37  1  0  0  0  0
 37 35  1  0  0  0  0
 38 40  1  0  0  0  0
 38 39  1  1  0  0  0
 41 40  1  0  0  0  0
 42  6  1  0  0  0  0
 43 42  1  0  0  0  0
 44 46  1  0  0  0  0
 44 43  1  0  0  0  0
 45 44  2  0  0  0  0
 47 46  1  6  0  0  0
 47 56  1  0  0  0  0
 49 48  1  0  0  0  0
 49 47  1  0  0  0  0
 50 48  1  0  0  0  0
 50 51  1  0  0  0  0
 51 52  1  1  0  0  0
 53 51  1  6  0  0  0
 53 54  1  0  0  0  0
 53 55  1  0  0  0  0
 54 55  1  0  0  0  0
 56 57  1  0  0  0  0
 58 57  1  0  0  0  0
 59 58  1  0  0  0  0
M  END
>  <MODEL>
5

>  <REMARK>
 VINA RESULT:      -5.3      4.151     10.763
  Name = 
  27 active torsions:
  status: ('A' for Active; 'I' for Inactive)
    1  A    between atoms: C_1  and  C_3
    2  A    between atoms: C_1  and  C_49
    3  A    between atoms: C_4  and  C_10
    4  A    between atoms: C_4  and  C_55
    5  A    between atoms: C_5  and  O_32
    6  A    between atoms: N_8  and  N_22
    7  A    between atoms: N_8  and  N_36
    8  A    between atoms: C_11  and  C_14
    9  A    between atoms: C_11  and  O_21
   10  A    between atoms: C_13  and  N_50
   11  A    between atoms: C_14  and  C_26
   12  A    between atoms: C_15  and  N_38
   13  A    between atoms: C_16  and  N_22
   14  A    between atoms: C_16  and  C_37
   15  A    between atoms: C_19  and  C_43
   16  A    between atoms: C_19  and  C_53
   17  A    between atoms: C_23  and  C_28
   18  A    between atoms: C_23  and  C_43
   19  A    between atoms: C_26  and  S_29
   20  A    between atoms: C_26  and  C_37
   21  A    between atoms: C_28  and  O_32
   22  A    between atoms: C_31  and  C_33
   23  A    between atoms: C_33  and  N_38
   24  A    between atoms: N_40  and  C_53
   25  A    between atoms: N_42  and  C_49
   26  A    between atoms: C_57  and  P_58
   27  A    between atoms: P_58  and  O_59
                            x       y       z     vdW  Elec       q    Type
                         _______ _______ _______ _____ _____    ______ ____

>  <TORSDO>
F 27

$$$$
=
 OpenBabel10232409513D

 59 61  0  0  1  0  0  0  0  0999 V2000
  189.0320  176.8560  139.3090 C   0  0  2  0  0  3  0  0  0  0  0  0
  189.6970  178.3440  141.3440 C   0  0  1  0  0  3  0  0  0  0  0  0
  188.0570  177.9390  139.6260 C   0  0  0  0  0  0  0  0  0  0  0  0
  190.0950  176.6640  140.7730 S   0  0  0  0  0  0  0  0  0  0  0  0
  188.3040  178.7040  140.8690 C   0  0  0  0  0  2  0  0  0  0  0  0
  187.0290  178.2040  138.8820 N   0  0  0  0  0  0  0  0  0  0  0  0
  187.8430  177.1100  143.1190 O   0  0  0  0  0  0  0  0  0  0  0  0
  188.8210  177.7210  143.6290 C   0  0  0  0  0  0  0  0  0  0  0  0
  189.0010  177.7410  145.0440 N   0  0  0  0  0  2  0  0  0  0  0  0
  189.7600  178.4010  142.7940 N   0  0  0  0  0  2  0  0  0  0  0  0
  186.9900  178.2010  146.3490 C   0  0  0  0  0  1  0  0  0  0  0  0
  188.0240  177.1600  145.9540 C   0  0  2  0  0  3  0  0  0  0  0  0
  188.6990  176.5510  147.1810 C   0  0  0  0  0  2  0  0  0  0  0  0
  189.6800  177.4730  147.8300 C   0  0  0  0  0  0  0  0  0  0  0  0
  190.9120  177.2630  147.7210 O   0  0  0  0  0  0  0  0  0  0  0  0
  189.2200  178.5610  148.5590 O   0  0  0  0  0  1  0  0  0  0  0  0
  189.8050  177.2280  138.2040 O   0  0  0  0  0  0  0  0  0  0  0  0
  189.4220  176.3610  137.1760 C   0  0  0  0  0  2  0  0  0  0  0  0
  190.1300  173.9800  137.1450 C   0  0  0  0  0  1  0  0  0  0  0  0
  190.5630  175.4080  136.8280 C   0  0  1  0  0  3  0  0  0  0  0  0
  190.9510  175.5390  135.3520 C   0  0  1  0  0  3  0  0  0  0  0  0
  190.0990  176.5980  134.6700 C   0  0  0  0  0  1  0  0  0  0  0  0
  192.4180  175.9420  135.2160 C   0  0  0  0  0  2  0  0  0  0  0  0
  193.1980  175.6560  136.4960 C   0  0  0  0  0  2  0  0  0  0  0  0
  193.6680  173.2690  136.0050 C   0  0  0  0  0  2  0  0  0  0  0  0
  196.3680  172.7650  135.5920 O   0  0  0  0  0  0  0  0  0  0  0  0
  194.1900  174.6050  136.2920 N   0  0  0  0  0  0  0  0  0  0  0  0
  194.3190  172.2210  136.8910 C   0  0  0  0  0  2  0  0  0  0  0  0
  195.6020  174.9040  136.3810 C   0  0  0  0  0  0  0  0  0  0  0  0
  195.9700  176.1120  136.4600 O   0  0  0  0  0  0  0  0  0  0  0  0
  195.6250  171.7490  136.2460 C   0  0  2  0  0  3  0  0  0  0  0  0
  196.6340  173.8030  136.5000 C   0  0  2  0  0  3  0  0  0  0  0  0
  199.2460  173.2180  135.4350 O   0  0  0  0  0  1  0  0  0  0  0  0
  198.3210  175.6620  135.4230 O   0  0  0  0  0  0  0  0  0  0  0  0
  198.3450  174.3990  136.2500 P   0  0  1  0  0  0  0  0  0  0  0  0
  198.2110  175.5270  138.3630 O   0  0  0  0  0  1  0  0  0  0  0  0
  199.0630  174.7340  137.7470 O   0  0  0  0  0  0  0  0  0  0  0  0
  196.4610  170.7890  137.1120 C   0  0  1  0  0  3  0  0  0  0  0  0
  195.6180  170.0340  137.9220 O   0  0  0  0  0  1  0  0  0  0  0  0
  197.3630  169.8560  136.3080 C   0  0  0  0  0  2  0  0  0  0  0  0
  197.4080  168.5980  136.9100 O   0  0  0  0  0  1  0  0  0  0  0  0
  186.7680  177.4930  137.7020 N   0  0  0  0  0  0  0  0  0  0  0  0
  186.0430  178.0440  136.6330 N   0  0  0  0  0  0  0  0  0  0  0  0
  185.6170  177.3320  135.4640 C   0  0  0  0  0  0  0  0  0  0  0  0
  186.3400  177.3250  134.3470 C   0  0  0  0  0  2  0  0  0  0  0  0
  184.2250  176.7940  135.4330 C   0  0  0  0  0  2  0  0  0  0  0  0
  184.1940  175.2780  135.5860 C   0  0  1  0  0  3  0  0  0  0  0  0
  183.1250  175.8850  137.9900 C   0  0  0  0  0  2  0  0  0  0  0  0
  184.1050  174.7870  137.3310 S   0  0  0  0  0  0  0  0  0  0  0  0
  182.8020  175.8110  139.3800 N   0  0  0  0  0  2  0  0  0  0  0  0
  181.6420  176.6700  139.5980 C   0  0  2  0  0  3  0  0  0  0  0  0
  181.0050  176.9960  138.2650 C   0  0  0  0  0  1  0  0  0  0  0  0
  181.9640  177.9830  140.3360 C   0  0  2  0  0  3  0  0  0  0  0  0
  180.4680  178.9660  140.7850 S   0  0  0  0  0  0  0  0  0  0  0  0
  181.7580  179.1530  139.4830 C   0  0  0  0  0  2  0  0  0  0  0  0
  183.0680  174.6630  134.7520 C   0  0  0  0  0  2  0  0  0  0  0  0
  182.9340  173.1480  134.9140 C   0  0  0  0  0  2  0  0  0  0  0  0
  181.5970  172.7580  134.7830 O   0  0  0  0  0  0  0  0  0  0  0  0
  180.9170  173.6960  135.4120 O   0  0  0  0  0  1  0  0  0  0  0  0
  1 17  1  6  0  0  0
  1  3  1  0  0  0  0
  1  4  1  0  0  0  0
  2 10  1  1  0  0  0
  3  5  1  0  0  0  0
  4  2  1  0  0  0  0
  5  2  1  0  0  0  0
  6  3  2  0  0  0  0
  7  8  2  0  0  0  0
  8  9  1  0  0  0  0
  9 12  1  0  0  0  0
 10  8  1  0  0  0  0
 12 11  1  1  0  0  0
 12 13  1  0  0  0  0
 13 14  1  0  0  0  0
 14 16  1  0  0  0  0
 15 14  2  0  0  0  0
 18 17  1  0  0  0  0
 20 19  1  6  0  0  0
 20 18  1  0  0  0  0
 21 22  1  1  0  0  0
 21 20  1  0  0  0  0
 23 21  1  0  0  0  0
 23 24  1  0  0  0  0
 25 27  1  0  0  0  0
 25 28  1  0  0  0  0
 26 31  1  0  0  0  0
 26 32  1  0  0  0  0
 27 29  1  0  0  0  0
 27 24  1  0  0  0  0
 29 30  2  0  0  0  0
 29 32  1  0  0  0  0
 31 28  1  0  0  0  0
 31 38  1  1  0  0  0
 32 35  1  6  0  0  0
 33 35  1  0  0  0  0
 35 34  2  6  0  0  0
 35 37  1  0  0  0  0
 37 36  1  0  0  0  0
 38 39  1  6  0  0  0
 40 41  1  0  0  0  0
 40 38  1  0  0  0  0
 42  6  1  0  0  0  0
 43 42  2  0  0  0  0
 44 43  1  0  0  0  0
 45 44  2  0  0  0  0
 46 44  1  0  0  0  0
 46 47  1  0  0  0  0
 47 56  1  6  0  0  0
 47 49  1  0  0  0  0
 48 50  1  0  0  0  0
 49 48  1  0  0  0  0
 50 51  1  0  0  0  0
 51 52  1  6  0  0  0
 53 51  1  6  0  0  0
 53 54  1  0  0  0  0
 55 53  1  0  0  0  0
 55 54  1  0  0  0  0
 56 57  1  0  0  0  0
 58 57  1  0  0  0  0
 58 59  1  0  0  0  0
M  END
>  <MODEL>
6

>  <REMARK>
 VINA RESULT:      -5.0      1.998      2.438
  Name = 
  27 active torsions:
  status: ('A' for Active; 'I' for Inactive)
    1  A    between atoms: C_1  and  C_3
    2  A    between atoms: C_1  and  C_49
    3  A    between atoms: C_4  and  C_10
    4  A    between atoms: C_4  and  C_55
    5  A    between atoms: C_5  and  O_32
    6  A    between atoms: N_8  and  N_22
    7  A    between atoms: N_8  and  N_36
    8  A    between atoms: C_11  and  C_14
    9  A    between atoms: C_11  and  O_21
   10  A    between atoms: C_13  and  N_50
   11  A    between atoms: C_14  and  C_26
   12  A    between atoms: C_15  and  N_38
   13  A    between atoms: C_16  and  N_22
   14  A    between atoms: C_16  and  C_37
   15  A    between atoms: C_19  and  C_43
   16  A    between atoms: C_19  and  C_53
   17  A    between atoms: C_23  and  C_28
   18  A    between atoms: C_23  and  C_43
   19  A    between atoms: C_26  and  S_29
   20  A    between atoms: C_26  and  C_37
   21  A    between atoms: C_28  and  O_32
   22  A    between atoms: C_31  and  C_33
   23  A    between atoms: C_33  and  N_38
   24  A    between atoms: N_40  and  C_53
   25  A    between atoms: N_42  and  C_49
   26  A    between atoms: C_57  and  P_58
   27  A    between atoms: P_58  and  O_59
                            x       y       z     vdW  Elec       q    Type
                         _______ _______ _______ _____ _____    ______ ____

>  <TORSDO>
F 27

$$$$
=
 OpenBabel10232409513D

 59 61  0  0  1  0  0  0  0  0999 V2000
  190.8700  173.9110  136.2660 C   0  0  2  0  0  3  0  0  0  0  0  0
  192.9830  174.7020  134.9610 C   0  0  1  0  0  3  0  0  0  0  0  0
  191.0920  175.3860  136.2870 C   0  0  0  0  0  0  0  0  0  0  0  0
  192.4390  173.1540  135.7440 S   0  0  0  0  0  0  0  0  0  0  0  0
  192.3640  175.8690  135.7040 C   0  0  0  0  0  2  0  0  0  0  0  0
  190.2430  176.2220  136.8000 N   0  0  0  0  0  0  0  0  0  0  0  0
  194.6120  173.9320  137.1680 O   0  0  0  0  0  0  0  0  0  0  0  0
  195.1940  174.3500  136.1300 C   0  0  0  0  0  0  0  0  0  0  0  0
  196.6200  174.3830  136.0660 N   0  0  0  0  0  2  0  0  0  0  0  0
  194.4330  174.7960  135.0070 N   0  0  0  0  0  2  0  0  0  0  0  0
  198.9090  174.3530  136.9130 C   0  0  0  0  0  1  0  0  0  0  0  0
  197.4510  174.0440  137.2120 C   0  0  2  0  0  3  0  0  0  0  0  0
  197.2630  172.5840  137.6230 C   0  0  0  0  0  2  0  0  0  0  0  0
  197.5480  171.6220  136.5170 C   0  0  0  0  0  0  0  0  0  0  0  0
  198.6220  171.7000  135.8710 O   0  0  0  0  0  0  0  0  0  0  0  0
  196.6170  170.6420  136.2030 O   0  0  0  0  0  1  0  0  0  0  0  0
  189.8610  173.6010  135.3490 O   0  0  0  0  0  0  0  0  0  0  0  0
  188.9930  172.7420  136.0310 C   0  0  0  0  0  2  0  0  0  0  0  0
  187.5910  170.8440  135.2550 C   0  0  0  0  0  1  0  0  0  0  0  0
  187.8200  172.3480  135.1360 C   0  0  1  0  0  3  0  0  0  0  0  0
  186.5550  173.1180  135.5250 C   0  0  1  0  0  3  0  0  0  0  0  0
  186.1710  172.8180  136.9660 C   0  0  0  0  0  1  0  0  0  0  0  0
  186.7790  174.6230  135.3930 C   0  0  0  0  0  2  0  0  0  0  0  0
  185.5970  175.3070  134.7130 C   0  0  0  0  0  2  0  0  0  0  0  0
  185.2410  177.2760  136.1820 C   0  0  0  0  0  2  0  0  0  0  0  0
  182.7160  177.3160  137.3390 O   0  0  0  0  0  0  0  0  0  0  0  0
  184.7470  175.9930  135.6820 N   0  0  0  0  0  0  0  0  0  0  0  0
  185.1760  177.3380  137.6980 C   0  0  0  0  0  2  0  0  0  0  0  0
  183.4960  175.4050  136.1030 C   0  0  0  0  0  0  0  0  0  0  0  0
  183.0610  174.3840  135.4960 O   0  0  0  0  0  0  0  0  0  0  0  0
  183.7850  177.8090  138.1300 C   0  0  2  0  0  3  0  0  0  0  0  0
  182.7580  175.9120  137.3240 C   0  0  2  0  0  3  0  0  0  0  0  0
  180.1480  175.7600  136.1160 O   0  0  0  0  0  0  0  0  0  0  0  0
  181.1020  173.7460  137.4830 O   0  0  0  0  0  1  0  0  0  0  0  0
  181.0570  175.2560  137.4550 P   0  0  1  0  0  0  0  0  0  0  0  0
  180.7480  174.9880  139.8180 O   0  0  0  0  0  1  0  0  0  0  0  0
  180.3310  175.8130  138.8810 O   0  0  0  0  0  0  0  0  0  0  0  0
  183.5360  177.7780  139.6490 C   0  0  1  0  0  3  0  0  0  0  0  0
  184.5880  178.4060  140.3090 O   0  0  0  0  0  1  0  0  0  0  0  0
  182.2160  178.4180  140.0730 C   0  0  0  0  0  2  0  0  0  0  0  0
  182.4560  179.4670  140.9610 O   0  0  0  0  0  1  0  0  0  0  0  0
  189.0330  175.7930  137.3620 N   0  0  0  0  0  0  0  0  0  0  0  0
  188.5100  176.3470  138.5430 N   0  0  0  0  0  0  0  0  0  0  0  0
  189.2300  177.1860  139.4550 C   0  0  0  0  0  0  0  0  0  0  0  0
  189.2330  178.5110  139.3320 C   0  0  0  0  0  2  0  0  0  0  0  0
  190.1820  176.5410  140.4070 C   0  0  0  0  0  2  0  0  0  0  0  0
  190.6940  177.5220  141.4550 C   0  0  1  0  0  3  0  0  0  0  0  0
  188.4390  176.7930  142.7470 C   0  0  0  0  0  2  0  0  0  0  0  0
  189.9630  177.1980  143.0840 S   0  0  0  0  0  0  0  0  0  0  0  0
  187.5410  176.4480  143.8050 N   0  0  0  0  0  2  0  0  0  0  0  0
  187.6170  177.5150  144.7980 C   0  0  2  0  0  3  0  0  0  0  0  0
  188.8270  177.2910  145.6790 C   0  0  0  0  0  1  0  0  0  0  0  0
  186.3640  177.6380  145.6840 C   0  0  2  0  0  3  0  0  0  0  0  0
  184.9160  178.3880  144.8210 S   0  0  0  0  0  0  0  0  0  0  0  0
  186.1060  179.0230  146.0760 C   0  0  0  0  0  2  0  0  0  0  0  0
  192.2240  177.5340  141.4970 C   0  0  0  0  0  2  0  0  0  0  0  0
  192.8780  177.8450  140.1500 C   0  0  0  0  0  2  0  0  0  0  0  0
  193.5910  176.7360  139.6840 O   0  0  0  0  0  0  0  0  0  0  0  0
  193.6060  176.8790  138.3740 O   0  0  0  0  0  1  0  0  0  0  0  0
  1 17  1  6  0  0  0
  1  3  1  0  0  0  0
  2 10  1  1  0  0  0
  2  5  1  0  0  0  0
  2  4  1  0  0  0  0
  3  6  2  0  0  0  0
  4  1  1  0  0  0  0
  5  3  1  0  0  0  0
  6 42  1  0  0  0  0
  8  7  2  0  0  0  0
  9  8  1  0  0  0  0
  9 12  1  0  0  0  0
 10  8  1  0  0  0  0
 12 11  1  6  0  0  0
 12 13  1  0  0  0  0
 14 13  1  0  0  0  0
 15 14  2  0  0  0  0
 16 14  1  0  0  0  0
 17 18  1  0  0  0  0
 20 19  1  1  0  0  0
 20 21  1  0  0  0  0
 20 18  1  0  0  0  0
 21 22  1  1  0  0  0
 23 21  1  0  0  0  0
 24 23  1  0  0  0  0
 24 27  1  0  0  0  0
 25 28  1  0  0  0  0
 26 31  1  0  0  0  0
 27 29  1  0  0  0  0
 27 25  1  0  0  0  0
 28 31  1  0  0  0  0
 29 32  1  0  0  0  0
 30 29  2  0  0  0  0
 31 38  1  1  0  0  0
 32 26  1  0  0  0  0
 32 35  1  6  0  0  0
 35 33  2  6  0  0  0
 35 34  1  0  0  0  0
 35 37  1  0  0  0  0
 37 36  1  0  0  0  0
 38 40  1  0  0  0  0
 38 39  1  1  0  0  0
 40 41  1  0  0  0  0
 42 43  2  0  0  0  0
 43 44  1  0  0  0  0
 44 46  1  0  0  0  0
 45 44  2  0  0  0  0
 47 46  1  6  0  0  0
 47 56  1  0  0  0  0
 47 49  1  0  0  0  0
 48 49  1  0  0  0  0
 48 50  1  0  0  0  0
 50 51  1  0  0  0  0
 51 52  1  1  0  0  0
 53 51  1  6  0  0  0
 53 55  1  0  0  0  0
 54 53  1  0  0  0  0
 54 55  1  0  0  0  0
 57 56  1  0  0  0  0
 58 57  1  0  0  0  0
 59 58  1  0  0  0  0
M  END
>  <MODEL>
7

>  <REMARK>
 VINA RESULT:      -4.2      3.872     11.149
  Name = 
  27 active torsions:
  status: ('A' for Active; 'I' for Inactive)
    1  A    between atoms: C_1  and  C_3
    2  A    between atoms: C_1  and  C_49
    3  A    between atoms: C_4  and  C_10
    4  A    between atoms: C_4  and  C_55
    5  A    between atoms: C_5  and  O_32
    6  A    between atoms: N_8  and  N_22
    7  A    between atoms: N_8  and  N_36
    8  A    between atoms: C_11  and  C_14
    9  A    between atoms: C_11  and  O_21
   10  A    between atoms: C_13  and  N_50
   11  A    between atoms: C_14  and  C_26
   12  A    between atoms: C_15  and  N_38
   13  A    between atoms: C_16  and  N_22
   14  A    between atoms: C_16  and  C_37
   15  A    between atoms: C_19  and  C_43
   16  A    between atoms: C_19  and  C_53
   17  A    between atoms: C_23  and  C_28
   18  A    between atoms: C_23  and  C_43
   19  A    between atoms: C_26  and  S_29
   20  A    between atoms: C_26  and  C_37
   21  A    between atoms: C_28  and  O_32
   22  A    between atoms: C_31  and  C_33
   23  A    between atoms: C_33  and  N_38
   24  A    between atoms: N_40  and  C_53
   25  A    between atoms: N_42  and  C_49
   26  A    between atoms: C_57  and  P_58
   27  A    between atoms: P_58  and  O_59
                            x       y       z     vdW  Elec       q    Type
                         _______ _______ _______ _____ _____    ______ ____

>  <TORSDO>
F 27

$$$$
=
 OpenBabel10232409513D

 59 61  0  0  1  0  0  0  0  0999 V2000
  190.5960  176.4450  138.2630 C   0  0  2  0  0  3  0  0  0  0  0  0
  192.8600  176.4300  136.9700 C   0  0  1  0  0  3  0  0  0  0  0  0
  191.7670  176.9040  139.0640 C   0  0  0  0  0  0  0  0  0  0  0  0
  191.2640  175.5730  136.8130 S   0  0  0  0  0  0  0  0  0  0  0  0
  193.0970  176.7570  138.4300 C   0  0  0  0  0  2  0  0  0  0  0  0
  191.6580  177.3900  140.2610 N   0  0  0  0  0  0  0  0  0  0  0  0
  194.5190  174.7580  138.5720 O   0  0  0  0  0  0  0  0  0  0  0  0
  194.6950  174.7320  137.3230 C   0  0  0  0  0  0  0  0  0  0  0  0
  195.6630  173.8540  136.7490 N   0  0  0  0  0  2  0  0  0  0  0  0
  193.9280  175.5820  136.4690 N   0  0  0  0  0  2  0  0  0  0  0  0
  197.9380  173.6580  137.6110 C   0  0  0  0  0  1  0  0  0  0  0  0
  196.5500  173.0420  137.5700 C   0  0  2  0  0  3  0  0  0  0  0  0
  196.5950  171.5970  137.0780 C   0  0  0  0  0  2  0  0  0  0  0  0
  195.3500  171.1790  136.3660 C   0  0  0  0  0  0  0  0  0  0  0  0
  194.2540  171.1470  136.9760 O   0  0  0  0  0  1  0  0  0  0  0  0
  195.4130  170.8210  135.0270 O   0  0  0  0  0  0  0  0  0  0  0  0
  189.8460  177.5520  137.8510 O   0  0  0  0  0  0  0  0  0  0  0  0
  189.1850  177.1380  136.6900 C   0  0  0  0  0  2  0  0  0  0  0  0
  187.0820  177.9560  137.7300 C   0  0  0  0  0  1  0  0  0  0  0  0
  187.7320  176.7840  137.0000 C   0  0  1  0  0  3  0  0  0  0  0  0
  186.9650  176.4560  135.7160 C   0  0  1  0  0  3  0  0  0  0  0  0
  187.2640  177.4890  134.6400 C   0  0  0  0  0  1  0  0  0  0  0  0
  187.3670  175.0820  135.1850 C   0  0  0  0  0  2  0  0  0  0  0  0
  186.2370  174.4400  134.3840 C   0  0  0  0  0  2  0  0  0  0  0  0
  185.4100  172.8220  136.0740 C   0  0  0  0  0  2  0  0  0  0  0  0
  182.9480  173.5400  137.1410 O   0  0  0  0  0  0  0  0  0  0  0  0
  185.1480  174.0030  135.2530 N   0  0  0  0  0  0  0  0  0  0  0  0
  184.2840  171.8090  135.9570 C   0  0  0  0  0  2  0  0  0  0  0  0
  183.8940  174.7210  135.2700 C   0  0  0  0  0  0  0  0  0  0  0  0
  183.8100  175.8270  134.6630 O   0  0  0  0  0  0  0  0  0  0  0  0
  183.1830  172.1530  136.9650 C   0  0  2  0  0  3  0  0  0  0  0  0
  182.6520  174.1220  135.8970 C   0  0  2  0  0  3  0  0  0  0  0  0
  181.2110  176.3280  134.7350 O   0  0  0  0  0  0  0  0  0  0  0  0
  179.9900  174.6050  136.2740 O   0  0  0  0  0  1  0  0  0  0  0  0
  181.3010  175.3360  136.1050 P   0  0  1  0  0  0  0  0  0  0  0  0
  182.1380  177.3880  137.0230 O   0  0  0  0  0  1  0  0  0  0  0  0
  181.5840  176.2840  137.4800 O   0  0  0  0  0  0  0  0  0  0  0  0
  181.9140  171.2880  136.8530 C   0  0  1  0  0  3  0  0  0  0  0  0
  180.8560  171.9250  137.4950 O   0  0  0  0  0  1  0  0  0  0  0  0
  181.5130  170.9610  135.4170 C   0  0  0  0  0  2  0  0  0  0  0  0
  180.2440  170.3810  135.3940 O   0  0  0  0  0  1  0  0  0  0  0  0
  190.4120  177.5370  140.8880 N   0  0  0  0  0  2  0  0  0  0  0  0
  190.0920  176.8900  142.0930 N   0  0  0  0  0  2  0  0  0  0  0  0
  190.7390  177.1140  143.3530 C   0  0  0  0  0  0  0  0  0  0  0  0
  191.5040  176.1860  143.9210 C   0  0  0  0  0  2  0  0  0  0  0  0
  190.3450  178.3170  144.1440 C   0  0  0  0  0  2  0  0  0  0  0  0
  190.1100  177.9830  145.6120 C   0  0  1  0  0  3  0  0  0  0  0  0
  187.6210  177.4660  144.7030 C   0  0  0  0  0  2  0  0  0  0  0  0
  188.3450  178.0260  146.0310 S   0  0  0  0  0  0  0  0  0  0  0  0
  186.1980  177.3400  144.6640 N   0  0  0  0  0  2  0  0  0  0  0  0
  185.6410  178.6340  145.0470 C   0  0  2  0  0  3  0  0  0  0  0  0
  184.5110  178.4210  146.0300 C   0  0  0  0  0  1  0  0  0  0  0  0
  185.1250  179.4710  143.8610 C   0  0  2  0  0  3  0  0  0  0  0  0
  183.6000  178.7860  143.0800 S   0  0  0  0  0  0  0  0  0  0  0  0
  185.3730  178.8120  142.5790 C   0  0  0  0  0  2  0  0  0  0  0  0
  190.7630  176.6490  145.9850 C   0  0  0  0  0  2  0  0  0  0  0  0
  190.6610  176.3040  147.4710 C   0  0  0  0  0  2  0  0  0  0  0  0
  191.6880  175.4290  147.8410 O   0  0  0  0  0  0  0  0  0  0  0  0
  192.7270  175.8210  147.1330 O   0  0  0  0  0  1  0  0  0  0  0  0
  1 17  1  6  0  0  0
  1  3  1  0  0  0  0
  2 10  1  1  0  0  0
  2  5  1  0  0  0  0
  3  6  2  0  0  0  0
  4  2  1  0  0  0  0
  4  1  1  0  0  0  0
  5  3  1  0  0  0  0
  6 42  1  0  0  0  0
  8  7  2  0  0  0  0
  9  8  1  0  0  0  0
  9 12  1  0  0  0  0
 10  8  1  0  0  0  0
 12 11  1  6  0  0  0
 13 12  1  0  0  0  0
 14 15  1  0  0  0  0
 14 13  1  0  0  0  0
 16 14  2  0  0  0  0
 18 20  1  0  0  0  0
 18 17  1  0  0  0  0
 20 19  1  6  0  0  0
 21 22  1  6  0  0  0
 21 20  1  0  0  0  0
 23 21  1  0  0  0  0
 24 23  1  0  0  0  0
 24 27  1  0  0  0  0
 27 29  1  0  0  0  0
 27 25  1  0  0  0  0
 28 25  1  0  0  0  0
 28 31  1  0  0  0  0
 29 32  1  0  0  0  0
 30 29  2  0  0  0  0
 31 38  1  6  0  0  0
 31 26  1  0  0  0  0
 32 35  1  1  0  0  0
 32 26  1  0  0  0  0
 35 33  2  6  0  0  0
 35 34  1  0  0  0  0
 35 37  1  0  0  0  0
 36 37  1  0  0  0  0
 38 39  1  6  0  0  0
 40 38  1  0  0  0  0
 41 40  1  0  0  0  0
 42 43  1  0  0  0  0
 43 44  1  0  0  0  0
 44 45  2  0  0  0  0
 44 46  1  0  0  0  0
 47 46  1  6  0  0  0
 47 56  1  0  0  0  0
 47 49  1  0  0  0  0
 48 49  1  0  0  0  0
 50 48  1  0  0  0  0
 50 51  1  0  0  0  0
 51 52  1  1  0  0  0
 53 51  1  1  0  0  0
 54 53  1  0  0  0  0
 55 54  1  0  0  0  0
 55 53  1  0  0  0  0
 56 57  1  0  0  0  0
 57 58  1  0  0  0  0
 59 58  1  0  0  0  0
M  END
>  <MODEL>
8

>  <REMARK>
 VINA RESULT:      -4.2      4.159     10.961
  Name = 
  27 active torsions:
  status: ('A' for Active; 'I' for Inactive)
    1  A    between atoms: C_1  and  C_3
    2  A    between atoms: C_1  and  C_49
    3  A    between atoms: C_4  and  C_10
    4  A    between atoms: C_4  and  C_55
    5  A    between atoms: C_5  and  O_32
    6  A    between atoms: N_8  and  N_22
    7  A    between atoms: N_8  and  N_36
    8  A    between atoms: C_11  and  C_14
    9  A    between atoms: C_11  and  O_21
   10  A    between atoms: C_13  and  N_50
   11  A    between atoms: C_14  and  C_26
   12  A    between atoms: C_15  and  N_38
   13  A    between atoms: C_16  and  N_22
   14  A    between atoms: C_16  and  C_37
   15  A    between atoms: C_19  and  C_43
   16  A    between atoms: C_19  and  C_53
   17  A    between atoms: C_23  and  C_28
   18  A    between atoms: C_23  and  C_43
   19  A    between atoms: C_26  and  S_29
   20  A    between atoms: C_26  and  C_37
   21  A    between atoms: C_28  and  O_32
   22  A    between atoms: C_31  and  C_33
   23  A    between atoms: C_33  and  N_38
   24  A    between atoms: N_40  and  C_53
   25  A    between atoms: N_42  and  C_49
   26  A    between atoms: C_57  and  P_58
   27  A    between atoms: P_58  and  O_59
                            x       y       z     vdW  Elec       q    Type
                         _______ _______ _______ _____ _____    ______ ____

>  <TORSDO>
F 27

$$$$
=
 OpenBabel10232409513D

 59 61  0  0  1  0  0  0  0  0999 V2000
  189.3170  176.8410  139.2190 C   0  0  2  0  0  3  0  0  0  0  0  0
  189.9890  178.3520  141.2350 C   0  0  1  0  0  3  0  0  0  0  0  0
  188.2930  177.8570  139.5970 C   0  0  0  0  0  0  0  0  0  0  0  0
  190.4630  176.7050  140.6250 S   0  0  0  0  0  0  0  0  0  0  0  0
  188.5530  178.6260  140.8350 C   0  0  0  0  0  2  0  0  0  0  0  0
  187.2130  178.0620  138.9090 N   0  0  0  0  0  0  0  0  0  0  0  0
  188.3420  176.9450  143.0850 O   0  0  0  0  0  0  0  0  0  0  0  0
  189.2890  177.6340  143.5520 C   0  0  0  0  0  0  0  0  0  0  0  0
  189.5390  177.6570  144.9570 N   0  0  0  0  0  2  0  0  0  0  0  0
  190.1210  178.4000  142.6810 N   0  0  0  0  0  2  0  0  0  0  0  0
  187.3950  177.7940  146.1160 C   0  0  0  0  0  1  0  0  0  0  0  0
  188.6640  176.9840  145.9080 C   0  0  2  0  0  3  0  0  0  0  0  0
  189.3800  176.7180  147.2300 C   0  0  0  0  0  2  0  0  0  0  0  0
  190.8570  176.5610  147.0780 C   0  0  0  0  0  0  0  0  0  0  0  0
  191.4240  175.5110  147.4670 O   0  0  0  0  0  1  0  0  0  0  0  0
  191.6010  177.5850  146.5090 O   0  0  0  0  0  0  0  0  0  0  0  0
  190.0080  177.2720  138.0810 O   0  0  0  0  0  0  0  0  0  0  0  0
  189.7710  176.2910  137.1120 C   0  0  0  0  0  2  0  0  0  0  0  0
  190.3300  173.8800  137.3270 C   0  0  0  0  0  1  0  0  0  0  0  0
  190.9080  175.2730  137.0940 C   0  0  1  0  0  3  0  0  0  0  0  0
  191.6670  175.3260  135.7650 C   0  0  1  0  0  3  0  0  0  0  0  0
  190.9960  176.3000  134.8090 C   0  0  0  0  0  1  0  0  0  0  0  0
  193.1060  175.7870  135.9860 C   0  0  0  0  0  2  0  0  0  0  0  0
  193.8360  174.8860  136.9790 C   0  0  0  0  0  2  0  0  0  0  0  0
  194.3340  172.7760  135.7700 C   0  0  0  0  0  2  0  0  0  0  0  0
  196.9080  172.7110  134.7300 O   0  0  0  0  0  0  0  0  0  0  0  0
  194.8240  174.0450  136.3090 N   0  0  0  0  0  0  0  0  0  0  0  0
  195.2220  171.6190  136.1930 C   0  0  0  0  0  2  0  0  0  0  0  0
  196.2000  174.4730  136.2070 C   0  0  0  0  0  0  0  0  0  0  0  0
  196.5030  175.6540  136.5430 O   0  0  0  0  0  0  0  0  0  0  0  0
  196.3860  171.4830  135.2080 C   0  0  2  0  0  3  0  0  0  0  0  0
  197.2990  173.5060  135.8200 C   0  0  2  0  0  3  0  0  0  0  0  0
  199.8690  173.2910  134.5360 O   0  0  0  0  0  0  0  0  0  0  0  0
  198.6000  175.5750  134.6000 O   0  0  0  0  0  1  0  0  0  0  0  0
  198.8780  174.3400  135.4240 P   0  0  1  0  0  0  0  0  0  0  0  0
  199.4610  173.7960  137.6860 O   0  0  0  0  0  1  0  0  0  0  0  0
  199.6630  174.7960  136.8530 O   0  0  0  0  0  0  0  0  0  0  0  0
  197.4440  170.4370  135.6010 C   0  0  1  0  0  3  0  0  0  0  0  0
  198.5020  170.4780  134.6970 O   0  0  0  0  0  1  0  0  0  0  0  0
  197.9830  170.6040  137.0210 C   0  0  0  0  0  2  0  0  0  0  0  0
  197.5980  169.5190  137.8090 O   0  0  0  0  0  1  0  0  0  0  0  0
  186.9390  177.3460  137.7350 N   0  0  0  0  0  0  0  0  0  0  0  0
  186.6760  177.9780  136.5080 N   0  0  0  0  0  0  0  0  0  0  0  0
  186.3400  177.3100  135.2860 C   0  0  0  0  0  0  0  0  0  0  0  0
  187.2350  176.5940  134.6110 C   0  0  0  0  0  2  0  0  0  0  0  0
  185.0310  177.6290  134.6430 C   0  0  0  0  0  2  0  0  0  0  0  0
  183.9460  176.6310  135.0310 C   0  0  1  0  0  3  0  0  0  0  0  0
  183.4210  174.4100  136.4720 C   0  0  0  0  0  2  0  0  0  0  0  0
  184.6560  175.1010  135.7000 S   0  0  0  0  0  0  0  0  0  0  0  0
  183.6030  173.1520  137.1260 N   0  0  0  0  0  2  0  0  0  0  0  0
  182.6120  172.2330  136.5740 C   0  0  2  0  0  3  0  0  0  0  0  0
  182.4590  172.4970  135.0910 C   0  0  0  0  0  1  0  0  0  0  0  0
  181.2290  172.3230  137.2460 C   0  0  2  0  0  3  0  0  0  0  0  0
  179.9820  171.1650  136.5330 S   0  0  0  0  0  0  0  0  0  0  0  0
  180.2460  172.9820  136.3860 C   0  0  0  0  0  2  0  0  0  0  0  0
  182.9300  177.2660  135.9850 C   0  0  0  0  0  2  0  0  0  0  0  0
  181.5120  177.3440  135.4170 C   0  0  0  0  0  2  0  0  0  0  0  0
  181.0160  178.6470  135.5190 O   0  0  0  0  0  0  0  0  0  0  0  0
  180.1320  178.5890  136.4940 O   0  0  0  0  0  1  0  0  0  0  0  0
  1 17  1  6  0  0  0
  1  3  1  0  0  0  0
  1  4  1  0  0  0  0
  2 10  1  1  0  0  0
  3  5  1  0  0  0  0
  4  2  1  0  0  0  0
  5  2  1  0  0  0  0
  6  3  2  0  0  0  0
  7  8  2  0  0  0  0
  8  9  1  0  0  0  0
  9 12  1  0  0  0  0
 10  8  1  0  0  0  0
 12 11  1  1  0  0  0
 12 13  1  0  0  0  0
 14 13  1  0  0  0  0
 14 15  1  0  0  0  0
 16 14  2  0  0  0  0
 18 17  1  0  0  0  0
 20 18  1  0  0  0  0
 20 19  1  6  0  0  0
 21 22  1  6  0  0  0
 21 23  1  0  0  0  0
 21 20  1  0  0  0  0
 23 24  1  0  0  0  0
 25 28  1  0  0  0  0
 25 27  1  0  0  0  0
 26 31  1  0  0  0  0
 26 32  1  0  0  0  0
 27 24  1  0  0  0  0
 29 27  1  0  0  0  0
 29 30  2  0  0  0  0
 31 38  1  1  0  0  0
 31 28  1  0  0  0  0
 32 35  1  6  0  0  0
 32 29  1  0  0  0  0
 34 35  1  0  0  0  0
 35 33  2  6  0  0  0
 35 37  1  0  0  0  0
 37 36  1  0  0  0  0
 38 39  1  6  0  0  0
 38 40  1  0  0  0  0
 40 41  1  0  0  0  0
 42  6  1  0  0  0  0
 43 42  2  0  0  0  0
 44 43  1  0  0  0  0
 45 44  2  0  0  0  0
 46 44  1  0  0  0  0
 47 46  1  1  0  0  0
 47 49  1  0  0  0  0
 47 56  1  0  0  0  0
 48 50  1  0  0  0  0
 49 48  1  0  0  0  0
 51 52  1  6  0  0  0
 51 50  1  0  0  0  0
 53 51  1  6  0  0  0
 54 53  1  0  0  0  0
 55 54  1  0  0  0  0
 55 53  1  0  0  0  0
 57 58  1  0  0  0  0
 57 56  1  0  0  0  0
 58 59  1  0  0  0  0
M  END
>  <MODEL>
9

>  <REMARK>
 VINA RESULT:      -4.0      2.777      3.657
  Name = 
  27 active torsions:
  status: ('A' for Active; 'I' for Inactive)
    1  A    between atoms: C_1  and  C_3
    2  A    between atoms: C_1  and  C_49
    3  A    between atoms: C_4  and  C_10
    4  A    between atoms: C_4  and  C_55
    5  A    between atoms: C_5  and  O_32
    6  A    between atoms: N_8  and  N_22
    7  A    between atoms: N_8  and  N_36
    8  A    between atoms: C_11  and  C_14
    9  A    between atoms: C_11  and  O_21
   10  A    between atoms: C_13  and  N_50
   11  A    between atoms: C_14  and  C_26
   12  A    between atoms: C_15  and  N_38
   13  A    between atoms: C_16  and  N_22
   14  A    between atoms: C_16  and  C_37
   15  A    between atoms: C_19  and  C_43
   16  A    between atoms: C_19  and  C_53
   17  A    between atoms: C_23  and  C_28
   18  A    between atoms: C_23  and  C_43
   19  A    between atoms: C_26  and  S_29
   20  A    between atoms: C_26  and  C_37
   21  A    between atoms: C_28  and  O_32
   22  A    between atoms: C_31  and  C_33
   23  A    between atoms: C_33  and  N_38
   24  A    between atoms: N_40  and  C_53
   25  A    between atoms: N_42  and  C_49
   26  A    between atoms: C_57  and  P_58
   27  A    between atoms: P_58  and  O_59
                            x       y       z     vdW  Elec       q    Type
                         _______ _______ _______ _____ _____    ______ ____

>  <TORSDO>
F 27

$$$$
