=
 OpenBabel10232408553D

 51 53  0  0  1  0  0  0  0  0999 V2000
  188.6350  177.1960  145.1150 C   0  0  0  0  0  0  0  0  0  0  0  0
  189.8560  177.0060  145.7890 C   0  0  0  0  0  3  0  0  0  0  0  0
  187.5980  177.7030  147.2620 C   0  0  0  0  0  3  0  0  0  0  0  0
  188.8150  177.5050  147.9110 C   0  0  0  0  0  3  0  0  0  0  0  0
  187.4870  177.5520  145.8690 C   0  0  0  0  0  0  0  0  0  0  0  0
  189.9470  177.1580  147.1740 C   0  0  0  0  0  3  0  0  0  0  0  0
  188.8030  178.0320  142.8170 C   0  0  0  0  0  3  0  0  0  0  0  0
  188.5870  177.0040  143.6390 C   0  0  0  0  0  0  0  0  0  0  0  0
  188.3270  175.7440  143.1010 O   0  0  0  0  0  1  0  0  0  0  0  0
  188.7620  177.8850  141.3320 C   0  0  0  0  0  2  0  0  0  0  0  0
  190.3190  177.1520  139.4850 C   0  0  0  0  0  0  0  0  0  0  0  0
  190.0850  177.5350  140.8430 N   0  0  0  0  0  2  0  0  0  0  0  0
  189.3730  177.1420  138.6530 O   0  0  0  0  0  0  0  0  0  0  0  0
  191.6440  176.8190  139.0730 N   0  0  0  0  0  2  0  0  0  0  0  0
  196.4940  172.5940  136.1490 C   0  0  1  0  0  3  0  0  0  0  0  0
  194.3770  174.0200  136.3580 C   0  0  2  0  0  3  0  0  0  0  0  0
  195.6120  173.3240  138.4360 C   0  0  0  0  0  2  0  0  0  0  0  0
  195.0360  174.4990  137.6400 C   0  0  2  0  0  3  0  0  0  0  0  0
  195.4260  173.4360  135.4000 C   0  0  1  0  0  3  0  0  0  0  0  0
  193.4060  175.4040  135.6930 S   0  0  0  0  0  0  0  0  0  0  0  0
  196.0680  174.4580  134.6900 O   0  0  0  0  0  1  0  0  0  0  0  0
  191.9610  176.5140  137.7130 C   0  0  0  0  0  3  0  0  0  0  0  0
  196.0090  172.1330  137.5350 C   0  0  0  0  0  2  0  0  0  0  0  0
  193.0620  175.8390  137.3940 C   0  0  0  0  0  0  0  0  0  0  0  0
  193.9990  175.2830  138.4190 C   0  0  0  0  0  2  0  0  0  0  0  0
  197.3960  170.3700  136.1450 O   0  0  0  0  0  1  0  0  0  0  0  0
  196.9350  171.3910  135.3090 C   0  0  2  0  0  3  0  0  0  0  0  0
  199.0960  171.8740  135.2410 C   0  0  0  0  0  1  0  0  0  0  0  0
  197.9610  171.7640  134.4360 O   0  0  0  0  0  0  0  0  0  0  0  0
  186.2380  177.8140  145.2090 N   0  0  0  0  0  2  0  0  0  0  0  0
  185.2210  179.1960  146.8120 O   0  0  0  0  0  0  0  0  0  0  0  0
  185.1900  178.6800  145.6640 C   0  0  0  0  0  0  0  0  0  0  0  0
  184.0250  178.9550  144.7760 C   0  0  0  0  0  2  0  0  0  0  0  0
  184.4900  179.4220  143.4040 C   0  0  0  0  0  2  0  0  0  0  0  0
  184.0510  178.4270  142.3400 C   0  0  0  0  0  2  0  0  0  0  0  0
  185.3430  179.4620  140.5690 O   0  0  0  0  0  1  0  0  0  0  0  0
  184.0700  179.0160  140.9320 C   0  0  1  0  0  3  0  0  0  0  0  0
  183.4480  178.0940  139.8760 C   0  0  1  0  0  3  0  0  0  0  0  0
  181.6640  176.7900  139.8980 C   0  0  0  0  0  1  0  0  0  0  0  0
  182.0580  178.1220  140.0040 O   0  0  0  0  0  0  0  0  0  0  0  0
  183.8260  178.4750  138.4480 C   0  0  0  0  0  2  0  0  0  0  0  0
  186.5290  178.4180  137.5870 O   0  0  0  0  0  0  0  0  0  0  0  0
  184.4590  177.3540  137.7740 N   0  0  0  0  0  2  0  0  0  0  0  0
  185.8430  177.3710  137.4250 C   0  0  0  0  0  0  0  0  0  0  0  0
  186.4520  176.1560  136.7960 C   0  0  0  0  0  2  0  0  0  0  0  0
  185.6160  172.6310  137.3850 O   0  0  0  0  0  0  0  0  0  0  0  0
  187.7360  173.3600  136.8130 N   0  0  0  0  0  2  0  0  0  0  0  0
  186.3700  173.6120  137.1690 C   0  0  0  0  0  0  0  0  0  0  0  0
  185.8310  174.9370  137.2930 N   0  0  0  0  0  2  0  0  0  0  0  0
  188.7990  174.3540  136.8090 C   0  0  0  0  0  2  0  0  0  0  0  0
  189.9740  173.8550  135.9890 C   0  0  0  0  0  1  0  0  0  0  0  0
  1  2  2  0  0  0  0
  1  5  1  0  0  0  0
  2  6  1  0  0  0  0
  3  4  1  0  0  0  0
  5  3  2  0  0  0  0
  6  4  2  0  0  0  0
  7  8  2  0  0  0  0
  8  1  1  0  0  0  0
  9  8  1  0  0  0  0
 10  7  1  0  0  0  0
 11 12  1  0  0  0  0
 12 10  1  0  0  0  0
 13 11  2  0  0  0  0
 14 11  1  0  0  0  0
 15 27  1  6  0  0  0
 15 23  1  0  0  0  0
 16 20  1  6  0  0  0
 16 18  1  0  0  0  0
 18 25  1  1  0  0  0
 18 17  1  0  0  0  0
 19 21  1  1  0  0  0
 19 15  1  0  0  0  0
 19 16  1  0  0  0  0
 20 24  1  0  0  0  0
 22 14  1  0  0  0  0
 23 17  1  0  0  0  0
 24 22  2  0  0  0  0
 24 25  1  0  0  0  0
 27 26  1  1  0  0  0
 29 28  1  0  0  0  0
 29 27  1  0  0  0  0
 30 32  1  0  0  0  0
 30  5  1  0  0  0  0
 32 31  2  0  0  0  0
 33 32  1  0  0  0  0
 34 33  1  0  0  0  0
 35 34  1  0  0  0  0
 37 36  1  6  0  0  0
 37 35  1  0  0  0  0
 38 41  1  6  0  0  0
 38 40  1  0  0  0  0
 38 37  1  0  0  0  0
 39 40  1  0  0  0  0
 43 41  1  0  0  0  0
 44 42  2  0  0  0  0
 44 43  1  0  0  0  0
 45 49  1  0  0  0  0
 45 44  1  0  0  0  0
 47 48  1  0  0  0  0
 48 49  1  0  0  0  0
 48 46  2  0  0  0  0
 50 47  1  0  0  0  0
 51 50  1  0  0  0  0
M  END
>  <MODEL>
1

>  <REMARK>
 VINA RESULT:      -7.9      0.000      0.000
  Name = 
  18 active torsions:
  status: ('A' for Active; 'I' for Inactive)
    1  A    between atoms: C_1  and  C_51
    2  A    between atoms: C_2  and  C_23
    3  A    between atoms: C_2  and  N_49
    4  A    between atoms: C_3  and  C_45
    5  A    between atoms: C_6  and  N_34
    6  A    between atoms: C_6  and  C_41
    7  A    between atoms: N_7  and  C_32
    8  A    between atoms: C_8  and  N_22
    9  A    between atoms: C_13  and  C_17
   10  A    between atoms: C_13  and  C_31
   11  A    between atoms: N_15  and  C_38
   12  A    between atoms: C_17  and  C_47
   13  A    between atoms: C_26  and  N_40
   14  A    between atoms: O_27  and  C_51
   15  A    between atoms: C_28  and  C_29
   16  A    between atoms: C_28  and  O_30
   17  A    between atoms: C_28  and  C_32
   18  A    between atoms: C_29  and  C_31
                            x       y       z     vdW  Elec       q    Type
                         _______ _______ _______ _____ _____    ______ ____

>  <TORSDO>
F 18

$$$$
=
 OpenBabel10232408553D

 51 53  0  0  1  0  0  0  0  0999 V2000
  188.6870  177.2230  145.2230 C   0  0  0  0  0  0  0  0  0  0  0  0
  189.8150  176.7980  145.9510 C   0  0  0  0  0  3  0  0  0  0  0  0
  187.8010  178.1910  147.2770 C   0  0  0  0  0  3  0  0  0  0  0  0
  188.9240  177.7570  147.9810 C   0  0  0  0  0  3  0  0  0  0  0  0
  187.6640  177.9320  145.9030 C   0  0  0  0  0  0  0  0  0  0  0  0
  189.9330  177.0620  147.3160 C   0  0  0  0  0  3  0  0  0  0  0  0
  189.2190  177.6670  142.8710 C   0  0  0  0  0  3  0  0  0  0  0  0
  188.6000  176.9010  143.7720 C   0  0  0  0  0  0  0  0  0  0  0  0
  187.8790  175.7890  143.3390 O   0  0  0  0  0  1  0  0  0  0  0  0
  189.1570  177.3820  141.4080 C   0  0  0  0  0  2  0  0  0  0  0  0
  190.7680  176.8940  139.5280 C   0  0  0  0  0  0  0  0  0  0  0  0
  190.5040  177.3120  140.8690 N   0  0  0  0  0  2  0  0  0  0  0  0
  189.8190  176.6020  138.7520 O   0  0  0  0  0  0  0  0  0  0  0  0
  192.1170  176.8460  139.0650 N   0  0  0  0  0  2  0  0  0  0  0  0
  196.5300  172.1090  136.2350 C   0  0  1  0  0  3  0  0  0  0  0  0
  194.5920  173.7750  136.3970 C   0  0  2  0  0  3  0  0  0  0  0  0
  195.6620  172.9110  138.5040 C   0  0  0  0  0  2  0  0  0  0  0  0
  195.2580  174.1560  137.7080 C   0  0  2  0  0  3  0  0  0  0  0  0
  195.5970  173.0810  135.4650 C   0  0  1  0  0  3  0  0  0  0  0  0
  193.8160  175.2730  135.7230 S   0  0  0  0  0  0  0  0  0  0  0  0
  196.3810  174.0270  134.7940 O   0  0  0  0  0  1  0  0  0  0  0  0
  192.4440  176.5220  137.7110 C   0  0  0  0  0  3  0  0  0  0  0  0
  195.9460  171.6920  137.5970 C   0  0  0  0  0  2  0  0  0  0  0  0
  193.4670  175.7240  137.4180 C   0  0  0  0  0  0  0  0  0  0  0  0
  194.2950  175.0480  138.4650 C   0  0  0  0  0  2  0  0  0  0  0  0
  195.7290  170.4910  134.6540 O   0  0  0  0  0  1  0  0  0  0  0  0
  196.8540  170.8720  135.3910 C   0  0  2  0  0  3  0  0  0  0  0  0
  198.1830  169.1000  135.4740 C   0  0  0  0  0  1  0  0  0  0  0  0
  197.2380  169.8120  136.2170 O   0  0  0  0  0  0  0  0  0  0  0  0
  186.5270  178.4350  145.1810 N   0  0  0  0  0  2  0  0  0  0  0  0
  185.0250  178.7370  146.9610 O   0  0  0  0  0  0  0  0  0  0  0  0
  185.2850  178.8880  145.7390 C   0  0  0  0  0  0  0  0  0  0  0  0
  184.2690  179.5220  144.8530 C   0  0  0  0  0  2  0  0  0  0  0  0
  183.0970  178.5800  144.6140 C   0  0  0  0  0  2  0  0  0  0  0  0
  182.2420  179.0950  143.4660 C   0  0  0  0  0  2  0  0  0  0  0  0
  183.9090  177.9040  142.1710 O   0  0  0  0  0  1  0  0  0  0  0  0
  182.8610  178.8250  142.0980 C   0  0  1  0  0  3  0  0  0  0  0  0
  181.8320  178.4570  141.0220 C   0  0  1  0  0  3  0  0  0  0  0  0
  179.9820  179.4700  140.3610 C   0  0  0  0  0  1  0  0  0  0  0  0
  180.5600  178.8340  141.4570 O   0  0  0  0  0  0  0  0  0  0  0  0
  182.1120  179.1090  139.6730 C   0  0  0  0  0  2  0  0  0  0  0  0
  184.8160  179.9440  139.4710 O   0  0  0  0  0  0  0  0  0  0  0  0
  183.1540  178.3840  138.9650 N   0  0  0  0  0  2  0  0  0  0  0  0
  184.5090  178.8330  138.9580 C   0  0  0  0  0  0  0  0  0  0  0  0
  185.5490  178.0040  138.2700 C   0  0  0  0  0  2  0  0  0  0  0  0
  188.6990  179.1120  136.7460 O   0  0  0  0  0  0  0  0  0  0  0  0
  187.5240  177.2510  136.0340 N   0  0  0  0  0  2  0  0  0  0  0  0
  187.6580  178.4180  136.8560 C   0  0  0  0  0  0  0  0  0  0  0  0
  186.6520  178.8270  137.7960 N   0  0  0  0  0  2  0  0  0  0  0  0
  186.2890  176.5080  135.8260 C   0  0  0  0  0  2  0  0  0  0  0  0
  185.9670  176.4400  134.3460 C   0  0  0  0  0  1  0  0  0  0  0  0
  1  5  2  0  0  0  0
  1  2  1  0  0  0  0
  2  6  2  0  0  0  0
  3  4  2  0  0  0  0
  5  3  1  0  0  0  0
  6  4  1  0  0  0  0
  7  8  2  0  0  0  0
  8  1  1  0  0  0  0
  9  8  1  0  0  0  0
 10  7  1  0  0  0  0
 11 12  1  0  0  0  0
 12 10  1  0  0  0  0
 13 11  2  0  0  0  0
 14 11  1  0  0  0  0
 15 27  1  6  0  0  0
 15 23  1  0  0  0  0
 16 20  1  6  0  0  0
 16 18  1  0  0  0  0
 18 25  1  1  0  0  0
 18 17  1  0  0  0  0
 19 21  1  1  0  0  0
 19 15  1  0  0  0  0
 19 16  1  0  0  0  0
 20 24  1  0  0  0  0
 22 14  1  0  0  0  0
 23 17  1  0  0  0  0
 24 22  2  0  0  0  0
 24 25  1  0  0  0  0
 27 26  1  1  0  0  0
 27 29  1  0  0  0  0
 28 29  1  0  0  0  0
 30 32  1  0  0  0  0
 30  5  1  0  0  0  0
 32 31  2  0  0  0  0
 33 32  1  0  0  0  0
 34 33  1  0  0  0  0
 35 34  1  0  0  0  0
 37 36  1  1  0  0  0
 37 35  1  0  0  0  0
 38 41  1  6  0  0  0
 38 40  1  0  0  0  0
 38 37  1  0  0  0  0
 39 40  1  0  0  0  0
 43 41  1  0  0  0  0
 44 43  1  0  0  0  0
 44 42  2  0  0  0  0
 45 44  1  0  0  0  0
 46 48  2  0  0  0  0
 47 48  1  0  0  0  0
 48 49  1  0  0  0  0
 49 45  1  0  0  0  0
 50 47  1  0  0  0  0
 51 50  1  0  0  0  0
M  END
>  <MODEL>
2

>  <REMARK>
 VINA RESULT:      -7.6      1.725      2.179
  Name = 
  18 active torsions:
  status: ('A' for Active; 'I' for Inactive)
    1  A    between atoms: C_1  and  C_51
    2  A    between atoms: C_2  and  C_23
    3  A    between atoms: C_2  and  N_49
    4  A    between atoms: C_3  and  C_45
    5  A    between atoms: C_6  and  N_34
    6  A    between atoms: C_6  and  C_41
    7  A    between atoms: N_7  and  C_32
    8  A    between atoms: C_8  and  N_22
    9  A    between atoms: C_13  and  C_17
   10  A    between atoms: C_13  and  C_31
   11  A    between atoms: N_15  and  C_38
   12  A    between atoms: C_17  and  C_47
   13  A    between atoms: C_26  and  N_40
   14  A    between atoms: O_27  and  C_51
   15  A    between atoms: C_28  and  C_29
   16  A    between atoms: C_28  and  O_30
   17  A    between atoms: C_28  and  C_32
   18  A    between atoms: C_29  and  C_31
                            x       y       z     vdW  Elec       q    Type
                         _______ _______ _______ _____ _____    ______ ____

>  <TORSDO>
F 18

$$$$
=
 OpenBabel10232408553D

 51 53  0  0  1  0  0  0  0  0999 V2000
  188.9220  177.1750  145.1270 C   0  0  0  0  0  0  0  0  0  0  0  0
  190.1540  176.9270  145.7600 C   0  0  0  0  0  3  0  0  0  0  0  0
  188.0290  177.8950  147.2780 C   0  0  0  0  0  3  0  0  0  0  0  0
  189.2560  177.6370  147.8870 C   0  0  0  0  0  3  0  0  0  0  0  0
  187.8420  177.6690  145.9030 C   0  0  0  0  0  0  0  0  0  0  0  0
  190.3210  177.1550  147.1270 C   0  0  0  0  0  3  0  0  0  0  0  0
  189.2590  177.7680  142.7720 C   0  0  0  0  0  3  0  0  0  0  0  0
  188.7900  176.8990  143.6690 C   0  0  0  0  0  0  0  0  0  0  0  0
  188.1850  175.7230  143.2270 O   0  0  0  0  0  1  0  0  0  0  0  0
  189.1470  177.5320  141.3020 C   0  0  0  0  0  2  0  0  0  0  0  0
  190.6850  176.9230  139.3960 C   0  0  0  0  0  0  0  0  0  0  0  0
  190.4750  177.3940  140.7300 N   0  0  0  0  0  2  0  0  0  0  0  0
  189.7040  176.6430  138.6560 O   0  0  0  0  0  0  0  0  0  0  0  0
  192.0180  176.8090  138.8990 N   0  0  0  0  0  2  0  0  0  0  0  0
  196.3720  172.0010  136.0990 C   0  0  1  0  0  3  0  0  0  0  0  0
  194.4210  173.6510  136.2670 C   0  0  2  0  0  3  0  0  0  0  0  0
  195.5860  172.8910  138.3640 C   0  0  0  0  0  2  0  0  0  0  0  0
  195.1350  174.0970  137.5330 C   0  0  2  0  0  3  0  0  0  0  0  0
  195.3970  172.9290  135.3260 C   0  0  1  0  0  3  0  0  0  0  0  0
  193.6010  175.1100  135.5610 S   0  0  0  0  0  0  0  0  0  0  0  0
  196.1410  173.8530  134.5840 O   0  0  0  0  0  1  0  0  0  0  0  0
  192.2940  176.4300  137.5490 C   0  0  0  0  0  3  0  0  0  0  0  0
  195.8480  171.6380  137.5000 C   0  0  0  0  0  2  0  0  0  0  0  0
  193.3140  175.6320  137.2490 C   0  0  0  0  0  0  0  0  0  0  0  0
  194.1920  175.0110  138.2890 C   0  0  0  0  0  2  0  0  0  0  0  0
  195.6340  170.4720  134.4020 O   0  0  0  0  0  1  0  0  0  0  0  0
  196.6770  170.7320  135.2960 C   0  0  2  0  0  3  0  0  0  0  0  0
  196.1790  168.5830  135.5090 C   0  0  0  0  0  1  0  0  0  0  0  0
  196.8210  169.6400  136.1570 O   0  0  0  0  0  0  0  0  0  0  0  0
  186.5890  177.9920  145.2800 N   0  0  0  0  0  2  0  0  0  0  0  0
  185.5760  179.2000  147.0210 O   0  0  0  0  0  0  0  0  0  0  0  0
  185.5400  178.8030  145.8260 C   0  0  0  0  0  0  0  0  0  0  0  0
  184.3690  179.1620  144.9780 C   0  0  0  0  0  2  0  0  0  0  0  0
  184.2870  178.2540  143.7580 C   0  0  0  0  0  2  0  0  0  0  0  0
  183.8790  179.0620  142.5360 C   0  0  0  0  0  2  0  0  0  0  0  0
  181.4620  179.2250  142.6400 O   0  0  0  0  0  1  0  0  0  0  0  0
  182.5310  178.6320  141.9630 C   0  0  1  0  0  3  0  0  0  0  0  0
  182.4290  178.8060  140.4420 C   0  0  1  0  0  3  0  0  0  0  0  0
  183.8660  179.7520  139.0550 C   0  0  0  0  0  1  0  0  0  0  0  0
  183.6950  178.6410  139.8760 O   0  0  0  0  0  0  0  0  0  0  0  0
  181.4580  177.8290  139.7890 C   0  0  0  0  0  2  0  0  0  0  0  0
  181.1790  175.0310  139.4060 O   0  0  0  0  0  0  0  0  0  0  0  0
  182.1300  177.0610  138.7540 N   0  0  0  0  0  2  0  0  0  0  0  0
  181.8930  175.6640  138.5800 C   0  0  0  0  0  0  0  0  0  0  0  0
  182.5630  174.9450  137.4510 C   0  0  0  0  0  2  0  0  0  0  0  0
  185.5260  172.9240  138.2310 O   0  0  0  0  0  0  0  0  0  0  0  0
  183.8570  172.2330  136.7860 N   0  0  0  0  0  2  0  0  0  0  0  0
  184.4640  173.2210  137.6290 C   0  0  0  0  0  0  0  0  0  0  0  0
  183.9120  174.5330  137.8120 N   0  0  0  0  0  2  0  0  0  0  0  0
  182.8060  172.4930  135.8130 C   0  0  0  0  0  2  0  0  0  0  0  0
  181.6410  171.5500  136.0420 C   0  0  0  0  0  1  0  0  0  0  0  0
  1  2  2  0  0  0  0
  1  5  1  0  0  0  0
  2  6  1  0  0  0  0
  3  4  1  0  0  0  0
  5  3  2  0  0  0  0
  6  4  2  0  0  0  0
  7  8  2  0  0  0  0
  8  1  1  0  0  0  0
  9  8  1  0  0  0  0
 10  7  1  0  0  0  0
 11 12  1  0  0  0  0
 12 10  1  0  0  0  0
 13 11  2  0  0  0  0
 14 11  1  0  0  0  0
 15 27  1  6  0  0  0
 15 23  1  0  0  0  0
 16 20  1  6  0  0  0
 16 18  1  0  0  0  0
 18 25  1  1  0  0  0
 18 17  1  0  0  0  0
 19 21  1  1  0  0  0
 19 15  1  0  0  0  0
 19 16  1  0  0  0  0
 20 24  1  0  0  0  0
 22 14  1  0  0  0  0
 23 17  1  0  0  0  0
 24 22  2  0  0  0  0
 24 25  1  0  0  0  0
 27 26  1  6  0  0  0
 27 29  1  0  0  0  0
 28 29  1  0  0  0  0
 30 32  1  0  0  0  0
 30  5  1  0  0  0  0
 32 31  2  0  0  0  0
 33 32  1  0  0  0  0
 34 33  1  0  0  0  0
 35 34  1  0  0  0  0
 37 35  1  0  0  0  0
 37 36  1  1  0  0  0
 38 41  1  6  0  0  0
 38 37  1  0  0  0  0
 39 40  1  0  0  0  0
 40 38  1  0  0  0  0
 43 41  1  0  0  0  0
 44 43  1  0  0  0  0
 44 42  2  0  0  0  0
 45 49  1  0  0  0  0
 45 44  1  0  0  0  0
 47 48  1  0  0  0  0
 48 49  1  0  0  0  0
 48 46  2  0  0  0  0
 50 51  1  0  0  0  0
 50 47  1  0  0  0  0
M  END
>  <MODEL>
3

>  <REMARK>
 VINA RESULT:      -7.0      1.652      2.503
  Name = 
  18 active torsions:
  status: ('A' for Active; 'I' for Inactive)
    1  A    between atoms: C_1  and  C_51
    2  A    between atoms: C_2  and  C_23
    3  A    between atoms: C_2  and  N_49
    4  A    between atoms: C_3  and  C_45
    5  A    between atoms: C_6  and  N_34
    6  A    between atoms: C_6  and  C_41
    7  A    between atoms: N_7  and  C_32
    8  A    between atoms: C_8  and  N_22
    9  A    between atoms: C_13  and  C_17
   10  A    between atoms: C_13  and  C_31
   11  A    between atoms: N_15  and  C_38
   12  A    between atoms: C_17  and  C_47
   13  A    between atoms: C_26  and  N_40
   14  A    between atoms: O_27  and  C_51
   15  A    between atoms: C_28  and  C_29
   16  A    between atoms: C_28  and  O_30
   17  A    between atoms: C_28  and  C_32
   18  A    between atoms: C_29  and  C_31
                            x       y       z     vdW  Elec       q    Type
                         _______ _______ _______ _____ _____    ______ ____

>  <TORSDO>
F 18

$$$$
=
 OpenBabel10232408553D

 51 53  0  0  1  0  0  0  0  0999 V2000
  190.7030  176.5570  145.0800 C   0  0  0  0  0  0  0  0  0  0  0  0
  191.8380  175.7900  145.4060 C   0  0  0  0  0  3  0  0  0  0  0  0
  190.4650  177.1000  147.4440 C   0  0  0  0  0  3  0  0  0  0  0  0
  191.5880  176.3320  147.7470 C   0  0  0  0  0  3  0  0  0  0  0  0
  190.0070  177.2230  146.1210 C   0  0  0  0  0  0  0  0  0  0  0  0
  192.2770  175.6780  146.7260 C   0  0  0  0  0  3  0  0  0  0  0  0
  190.9250  177.3950  142.7870 C   0  0  0  0  0  3  0  0  0  0  0  0
  190.2650  176.6310  143.6590 C   0  0  0  0  0  0  0  0  0  0  0  0
  189.1660  175.8920  143.2210 O   0  0  0  0  0  1  0  0  0  0  0  0
  190.5190  177.4990  141.3540 C   0  0  0  0  0  2  0  0  0  0  0  0
  191.6960  176.7140  139.2650 C   0  0  0  0  0  0  0  0  0  0  0  0
  191.6980  177.4180  140.5090 N   0  0  0  0  0  2  0  0  0  0  0  0
  190.6430  176.1640  138.8440 O   0  0  0  0  0  0  0  0  0  0  0  0
  192.8910  176.6720  138.4860 N   0  0  0  0  0  2  0  0  0  0  0  0
  195.9480  170.7610  136.1110 C   0  0  1  0  0  3  0  0  0  0  0  0
  194.3600  172.7690  136.1870 C   0  0  2  0  0  3  0  0  0  0  0  0
  195.6060  172.0950  138.2660 C   0  0  0  0  0  2  0  0  0  0  0  0
  195.2860  173.2380  137.2970 C   0  0  2  0  0  3  0  0  0  0  0  0
  195.0720  171.7450  135.2900 C   0  0  1  0  0  3  0  0  0  0  0  0
  193.7390  174.2470  135.3340 S   0  0  0  0  0  0  0  0  0  0  0  0
  195.8780  172.3930  134.3470 O   0  0  0  0  0  1  0  0  0  0  0  0
  192.9340  176.0620  137.1940 C   0  0  0  0  0  3  0  0  0  0  0  0
  195.5350  170.7070  137.5930 C   0  0  0  0  0  2  0  0  0  0  0  0
  193.7510  175.0450  136.9350 C   0  0  0  0  0  0  0  0  0  0  0  0
  194.6190  174.4150  137.9790 C   0  0  0  0  0  2  0  0  0  0  0  0
  195.9330  168.3940  136.5100 O   0  0  0  0  0  1  0  0  0  0  0  0
  195.9230  169.3580  135.4970 C   0  0  2  0  0  3  0  0  0  0  0  0
  198.1060  169.7240  135.3920 C   0  0  0  0  0  1  0  0  0  0  0  0
  197.0410  169.1700  134.6790 O   0  0  0  0  0  0  0  0  0  0  0  0
  188.8810  178.0640  145.8190 N   0  0  0  0  0  2  0  0  0  0  0  0
  187.1580  176.7820  146.7700 O   0  0  0  0  0  0  0  0  0  0  0  0
  187.5190  177.8540  146.2160 C   0  0  0  0  0  0  0  0  0  0  0  0
  186.5030  178.9090  145.9460 C   0  0  0  0  0  2  0  0  0  0  0  0
  185.1770  178.2870  145.5280 C   0  0  0  0  0  2  0  0  0  0  0  0
  184.5230  179.1360  144.4480 C   0  0  0  0  0  2  0  0  0  0  0  0
  183.1650  178.3720  142.5900 O   0  0  0  0  0  1  0  0  0  0  0  0
  184.4670  178.4320  143.0940 C   0  0  1  0  0  3  0  0  0  0  0  0
  185.4660  178.9910  142.0730 C   0  0  1  0  0  3  0  0  0  0  0  0
  187.6690  178.8130  142.0720 C   0  0  0  0  0  1  0  0  0  0  0  0
  186.5020  178.0730  141.8960 O   0  0  0  0  0  0  0  0  0  0  0  0
  184.8340  179.2990  140.7200 C   0  0  0  0  0  2  0  0  0  0  0  0
  183.7740  178.0050  138.4270 O   0  0  0  0  0  0  0  0  0  0  0  0
  185.6300  178.7290  139.6460 N   0  0  0  0  0  2  0  0  0  0  0  0
  185.0270  178.1470  138.4900 C   0  0  0  0  0  0  0  0  0  0  0  0
  185.9020  177.6410  137.3860 C   0  0  0  0  0  2  0  0  0  0  0  0
  184.7450  175.3480  134.7640 O   0  0  0  0  0  0  0  0  0  0  0  0
  186.6750  176.6110  134.5920 N   0  0  0  0  0  2  0  0  0  0  0  0
  185.5410  176.1380  135.3300 C   0  0  0  0  0  0  0  0  0  0  0  0
  185.2790  176.5260  136.6870 N   0  0  0  0  0  2  0  0  0  0  0  0
  187.8280  177.2880  135.1680 C   0  0  0  0  0  2  0  0  0  0  0  0
  189.0790  176.9410  134.3840 C   0  0  0  0  0  1  0  0  0  0  0  0
  1  2  2  0  0  0  0
  1  5  1  0  0  0  0
  2  6  1  0  0  0  0
  3  4  1  0  0  0  0
  5  3  2  0  0  0  0
  6  4  2  0  0  0  0
  7  8  2  0  0  0  0
  8  1  1  0  0  0  0
  9  8  1  0  0  0  0
 10  7  1  0  0  0  0
 11 12  1  0  0  0  0
 12 10  1  0  0  0  0
 13 11  2  0  0  0  0
 14 11  1  0  0  0  0
 15 27  1  6  0  0  0
 15 23  1  0  0  0  0
 16 20  1  6  0  0  0
 16 18  1  0  0  0  0
 18 25  1  1  0  0  0
 18 17  1  0  0  0  0
 19 21  1  6  0  0  0
 19 15  1  0  0  0  0
 19 16  1  0  0  0  0
 20 24  1  0  0  0  0
 22 14  1  0  0  0  0
 23 17  1  0  0  0  0
 24 22  2  0  0  0  0
 24 25  1  0  0  0  0
 27 26  1  1  0  0  0
 29 28  1  0  0  0  0
 29 27  1  0  0  0  0
 30  5  1  0  0  0  0
 30 32  1  0  0  0  0
 32 31  2  0  0  0  0
 33 32  1  0  0  0  0
 34 33  1  0  0  0  0
 35 34  1  0  0  0  0
 37 36  1  6  0  0  0
 37 35  1  0  0  0  0
 38 41  1  6  0  0  0
 38 37  1  0  0  0  0
 40 39  1  0  0  0  0
 40 38  1  0  0  0  0
 42 44  2  0  0  0  0
 43 41  1  0  0  0  0
 44 43  1  0  0  0  0
 45 44  1  0  0  0  0
 46 48  2  0  0  0  0
 47 50  1  0  0  0  0
 47 48  1  0  0  0  0
 48 49  1  0  0  0  0
 49 45  1  0  0  0  0
 51 50  1  0  0  0  0
M  END
>  <MODEL>
4

>  <REMARK>
 VINA RESULT:      -6.5      1.958      2.602
  Name = 
  18 active torsions:
  status: ('A' for Active; 'I' for Inactive)
    1  A    between atoms: C_1  and  C_51
    2  A    between atoms: C_2  and  C_23
    3  A    between atoms: C_2  and  N_49
    4  A    between atoms: C_3  and  C_45
    5  A    between atoms: C_6  and  N_34
    6  A    between atoms: C_6  and  C_41
    7  A    between atoms: N_7  and  C_32
    8  A    between atoms: C_8  and  N_22
    9  A    between atoms: C_13  and  C_17
   10  A    between atoms: C_13  and  C_31
   11  A    between atoms: N_15  and  C_38
   12  A    between atoms: C_17  and  C_47
   13  A    between atoms: C_26  and  N_40
   14  A    between atoms: O_27  and  C_51
   15  A    between atoms: C_28  and  C_29
   16  A    between atoms: C_28  and  O_30
   17  A    between atoms: C_28  and  C_32
   18  A    between atoms: C_29  and  C_31
                            x       y       z     vdW  Elec       q    Type
                         _______ _______ _______ _____ _____    ______ ____

>  <TORSDO>
F 18

$$$$
=
 OpenBabel10232408553D

 51 53  0  0  1  0  0  0  0  0999 V2000
  182.5690  178.7230  139.6600 C   0  0  0  0  0  0  0  0  0  0  0  0
  181.4510  178.4850  138.8370 C   0  0  0  0  0  3  0  0  0  0  0  0
  181.1300  178.4140  141.6030 C   0  0  0  0  0  3  0  0  0  0  0  0
  180.0350  178.1860  140.7710 C   0  0  0  0  0  3  0  0  0  0  0  0
  182.4010  178.6860  141.0680 C   0  0  0  0  0  0  0  0  0  0  0  0
  180.1960  178.2190  139.3860 C   0  0  0  0  0  3  0  0  0  0  0  0
  184.5160  178.0860  138.3130 C   0  0  0  0  0  3  0  0  0  0  0  0
  183.8830  179.0210  139.0250 C   0  0  0  0  0  0  0  0  0  0  0  0
  184.4610  180.2830  139.1590 O   0  0  0  0  0  1  0  0  0  0  0  0
  185.8340  178.3410  137.6610 C   0  0  0  0  0  2  0  0  0  0  0  0
  187.4730  176.7290  136.6180 C   0  0  0  0  0  0  0  0  0  0  0  0
  186.6400  177.1330  137.7080 N   0  0  0  0  0  2  0  0  0  0  0  0
  187.5580  177.4420  135.5820 O   0  0  0  0  0  0  0  0  0  0  0  0
  188.2360  175.5290  136.7310 N   0  0  0  0  0  2  0  0  0  0  0  0
  195.2900  175.1630  136.5530 C   0  0  1  0  0  3  0  0  0  0  0  0
  192.8530  174.7100  135.9050 C   0  0  2  0  0  3  0  0  0  0  0  0
  193.3690  175.7620  138.1320 C   0  0  0  0  0  2  0  0  0  0  0  0
  192.5720  175.8840  136.8290 C   0  0  2  0  0  3  0  0  0  0  0  0
  194.3120  174.7430  135.4220 C   0  0  1  0  0  3  0  0  0  0  0  0
  191.6010  174.7380  134.5900 S   0  0  0  0  0  0  0  0  0  0  0  0
  194.4540  175.6260  134.3460 O   0  0  0  0  0  1  0  0  0  0  0  0
  189.1530  175.1150  135.7160 C   0  0  0  0  0  3  0  0  0  0  0  0
  194.6830  174.9690  137.9540 C   0  0  0  0  0  2  0  0  0  0  0  0
  190.4610  175.3270  135.8370 C   0  0  0  0  0  0  0  0  0  0  0  0
  191.0760  175.9330  137.0590 C   0  0  0  0  0  2  0  0  0  0  0  0
  196.8020  173.5910  137.5550 O   0  0  0  0  0  1  0  0  0  0  0  0
  196.6200  174.4110  136.4360 C   0  0  2  0  0  3  0  0  0  0  0  0
  198.8130  174.5300  136.1470 C   0  0  0  0  0  1  0  0  0  0  0  0
  197.6800  175.3180  136.3590 O   0  0  0  0  0  0  0  0  0  0  0  0
  183.5310  178.8630  141.9380 N   0  0  0  0  0  2  0  0  0  0  0  0
  182.4260  178.9830  144.0070 O   0  0  0  0  0  0  0  0  0  0  0  0
  183.5110  178.9290  143.3710 C   0  0  0  0  0  0  0  0  0  0  0  0
  184.7970  178.9620  144.1230 C   0  0  0  0  0  2  0  0  0  0  0  0
  184.5580  178.7330  145.6100 C   0  0  0  0  0  2  0  0  0  0  0  0
  185.8320  179.0210  146.3900 C   0  0  0  0  0  2  0  0  0  0  0  0
  186.5880  176.8080  145.7500 O   0  0  0  0  0  1  0  0  0  0  0  0
  186.5900  177.7540  146.7780 C   0  0  1  0  0  3  0  0  0  0  0  0
  187.9980  178.0270  147.3220 C   0  0  1  0  0  3  0  0  0  0  0  0
  189.5130  176.5040  147.8430 C   0  0  0  0  0  1  0  0  0  0  0  0
  188.3140  177.0620  148.2800 O   0  0  0  0  0  0  0  0  0  0  0  0
  189.0720  178.0250  146.2390 C   0  0  0  0  0  2  0  0  0  0  0  0
  190.4600  176.6590  144.1760 O   0  0  0  0  0  0  0  0  0  0  0  0
  188.4980  177.6570  144.9560 N   0  0  0  0  0  2  0  0  0  0  0  0
  189.2380  176.9130  143.9870 C   0  0  0  0  0  0  0  0  0  0  0  0
  188.5670  176.5030  142.7130 C   0  0  0  0  0  2  0  0  0  0  0  0
  186.7650  179.3400  141.2380 O   0  0  0  0  0  0  0  0  0  0  0  0
  188.6120  178.3540  140.2560 N   0  0  0  0  0  2  0  0  0  0  0  0
  187.6080  178.4100  141.2770 C   0  0  0  0  0  0  0  0  0  0  0  0
  187.5240  177.4470  142.3390 N   0  0  0  0  0  2  0  0  0  0  0  0
  189.4720  177.2110  139.9870 C   0  0  0  0  0  2  0  0  0  0  0  0
  190.9010  177.5320  140.3790 C   0  0  0  0  0  1  0  0  0  0  0  0
  1  5  1  0  0  0  0
  2  6  1  0  0  0  0
  2  1  2  0  0  0  0
  4  3  1  0  0  0  0
  5  3  2  0  0  0  0
  5 30  1  0  0  0  0
  6  4  2  0  0  0  0
  7  8  2  0  0  0  0
  8  9  1  0  0  0  0
  8  1  1  0  0  0  0
 10 12  1  0  0  0  0
 10  7  1  0  0  0  0
 11 14  1  0  0  0  0
 11 12  1  0  0  0  0
 13 11  2  0  0  0  0
 15 27  1  1  0  0  0
 15 23  1  0  0  0  0
 16 20  1  6  0  0  0
 16 18  1  0  0  0  0
 18 25  1  1  0  0  0
 18 17  1  0  0  0  0
 19 21  1  6  0  0  0
 19 16  1  0  0  0  0
 19 15  1  0  0  0  0
 20 24  1  0  0  0  0
 22 24  2  0  0  0  0
 22 14  1  0  0  0  0
 23 17  1  0  0  0  0
 24 25  1  0  0  0  0
 27 26  1  1  0  0  0
 28 29  1  0  0  0  0
 29 27  1  0  0  0  0
 30 32  1  0  0  0  0
 32 31  2  0  0  0  0
 32 33  1  0  0  0  0
 33 34  1  0  0  0  0
 34 35  1  0  0  0  0
 35 37  1  0  0  0  0
 37 36  1  6  0  0  0
 37 38  1  0  0  0  0
 38 41  1  6  0  0  0
 38 40  1  0  0  0  0
 39 40  1  0  0  0  0
 43 41  1  0  0  0  0
 44 42  2  0  0  0  0
 44 43  1  0  0  0  0
 45 44  1  0  0  0  0
 46 48  2  0  0  0  0
 47 48  1  0  0  0  0
 48 49  1  0  0  0  0
 49 45  1  0  0  0  0
 50 47  1  0  0  0  0
 50 51  1  0  0  0  0
M  END
>  <MODEL>
5

>  <REMARK>
 VINA RESULT:      -6.5      2.145      6.200
  Name = 
  18 active torsions:
  status: ('A' for Active; 'I' for Inactive)
    1  A    between atoms: C_1  and  C_51
    2  A    between atoms: C_2  and  C_23
    3  A    between atoms: C_2  and  N_49
    4  A    between atoms: C_3  and  C_45
    5  A    between atoms: C_6  and  N_34
    6  A    between atoms: C_6  and  C_41
    7  A    between atoms: N_7  and  C_32
    8  A    between atoms: C_8  and  N_22
    9  A    between atoms: C_13  and  C_17
   10  A    between atoms: C_13  and  C_31
   11  A    between atoms: N_15  and  C_38
   12  A    between atoms: C_17  and  C_47
   13  A    between atoms: C_26  and  N_40
   14  A    between atoms: O_27  and  C_51
   15  A    between atoms: C_28  and  C_29
   16  A    between atoms: C_28  and  O_30
   17  A    between atoms: C_28  and  C_32
   18  A    between atoms: C_29  and  C_31
                            x       y       z     vdW  Elec       q    Type
                         _______ _______ _______ _____ _____    ______ ____

>  <TORSDO>
F 18

$$$$
=
 OpenBabel10232408553D

 51 53  0  0  1  0  0  0  0  0999 V2000
  189.5290  177.4940  146.3940 C   0  0  0  0  0  0  0  0  0  0  0  0
  189.7970  177.5450  147.7750 C   0  0  0  0  0  3  0  0  0  0  0  0
  187.2790  178.3060  146.8610 C   0  0  0  0  0  3  0  0  0  0  0  0
  187.5620  178.3440  148.2250 C   0  0  0  0  0  3  0  0  0  0  0  0
  188.2460  177.8830  145.9330 C   0  0  0  0  0  0  0  0  0  0  0  0
  188.8240  177.9660  148.6830 C   0  0  0  0  0  3  0  0  0  0  0  0
  190.6210  177.4350  144.1990 C   0  0  0  0  0  3  0  0  0  0  0  0
  190.5960  177.0210  145.4680 C   0  0  0  0  0  0  0  0  0  0  0  0
  191.5860  176.1500  145.9200 O   0  0  0  0  0  1  0  0  0  0  0  0
  191.6700  176.9850  143.2380 C   0  0  0  0  0  2  0  0  0  0  0  0
  190.2780  177.3660  141.1670 C   0  0  0  0  0  0  0  0  0  0  0  0
  191.4490  177.6170  141.9480 N   0  0  0  0  0  2  0  0  0  0  0  0
  189.3730  176.6040  141.6010 O   0  0  0  0  0  0  0  0  0  0  0  0
  190.1270  178.0190  139.9080 N   0  0  0  0  0  2  0  0  0  0  0  0
  188.1140  173.2090  135.1390 C   0  0  1  0  0  3  0  0  0  0  0  0
  187.9260  175.1000  136.8570 C   0  0  2  0  0  3  0  0  0  0  0  0
  190.0400  173.7410  136.7360 C   0  0  0  0  0  2  0  0  0  0  0  0
  189.4370  175.1490  136.7090 C   0  0  2  0  0  3  0  0  0  0  0  0
  187.2880  174.4280  135.6310 C   0  0  1  0  0  3  0  0  0  0  0  0
  187.3550  176.7900  137.1980 S   0  0  0  0  0  0  0  0  0  0  0  0
  187.1570  175.3430  134.5800 O   0  0  0  0  0  1  0  0  0  0  0  0
  188.9430  177.8810  139.1190 C   0  0  0  0  0  3  0  0  0  0  0  0
  189.0570  172.6630  136.2270 C   0  0  0  0  0  2  0  0  0  0  0  0
  188.8700  176.9980  138.1270 C   0  0  0  0  0  0  0  0  0  0  0  0
  189.9730  176.0370  137.8130 C   0  0  0  0  0  2  0  0  0  0  0  0
  185.8670  172.5260  134.6450 O   0  0  0  0  0  1  0  0  0  0  0  0
  187.1970  172.0980  134.6180 C   0  0  2  0  0  3  0  0  0  0  0  0
  187.1270  169.8840  134.5410 C   0  0  0  0  0  1  0  0  0  0  0  0
  187.3240  170.9560  135.4140 O   0  0  0  0  0  0  0  0  0  0  0  0
  187.9560  177.9030  144.5250 N   0  0  0  0  0  2  0  0  0  0  0  0
  185.6320  177.5720  144.5900 O   0  0  0  0  0  0  0  0  0  0  0  0
  186.6620  177.8240  143.9120 C   0  0  0  0  0  0  0  0  0  0  0  0
  186.5320  178.0140  142.4390 C   0  0  0  0  0  2  0  0  0  0  0  0
  185.5740  179.1540  142.1240 C   0  0  0  0  0  2  0  0  0  0  0  0
  184.2200  178.5950  141.7130 C   0  0  0  0  0  2  0  0  0  0  0  0
  184.7810  179.5250  139.5460 O   0  0  0  0  0  1  0  0  0  0  0  0
  183.7250  179.1570  140.3830 C   0  0  1  0  0  3  0  0  0  0  0  0
  182.7060  178.2520  139.6790 C   0  0  1  0  0  3  0  0  0  0  0  0
  181.3310  179.9440  139.3160 C   0  0  0  0  0  1  0  0  0  0  0  0
  181.4170  178.7100  139.9570 O   0  0  0  0  0  0  0  0  0  0  0  0
  182.9000  178.1920  138.1670 C   0  0  0  0  0  2  0  0  0  0  0  0
  184.0870  176.3890  136.3250 O   0  0  0  0  0  0  0  0  0  0  0  0
  182.2470  177.0150  137.6190 N   0  0  0  0  0  2  0  0  0  0  0  0
  182.9290  176.1160  136.7430 C   0  0  0  0  0  0  0  0  0  0  0  0
  182.2230  174.8840  136.2690 C   0  0  0  0  0  2  0  0  0  0  0  0
  183.8520  171.6880  137.0490 O   0  0  0  0  0  0  0  0  0  0  0  0
  181.6050  172.0970  137.4180 N   0  0  0  0  0  2  0  0  0  0  0  0
  182.8890  172.4830  136.9110 C   0  0  0  0  0  0  0  0  0  0  0  0
  183.1200  173.7370  136.2500 N   0  0  0  0  0  2  0  0  0  0  0  0
  180.3460  172.7530  137.0980 C   0  0  0  0  0  2  0  0  0  0  0  0
  179.9820  173.7390  138.1910 C   0  0  0  0  0  1  0  0  0  0  0  0
  1  2  1  0  0  0  0
  2  6  2  0  0  0  0
  3  4  2  0  0  0  0
  4  6  1  0  0  0  0
  5  1  2  0  0  0  0
  5  3  1  0  0  0  0
  7  8  2  0  0  0  0
  8  9  1  0  0  0  0
  8  1  1  0  0  0  0
 10  7  1  0  0  0  0
 11 13  2  0  0  0  0
 11 12  1  0  0  0  0
 12 10  1  0  0  0  0
 14 11  1  0  0  0  0
 15 27  1  1  0  0  0
 15 19  1  0  0  0  0
 15 23  1  0  0  0  0
 16 20  1  6  0  0  0
 18 17  1  1  0  0  0
 18 16  1  0  0  0  0
 18 25  1  0  0  0  0
 19 21  1  6  0  0  0
 19 16  1  0  0  0  0
 20 24  1  0  0  0  0
 22 14  1  0  0  0  0
 23 17  1  0  0  0  0
 24 22  2  0  0  0  0
 25 24  1  0  0  0  0
 27 26  1  1  0  0  0
 27 29  1  0  0  0  0
 28 29  1  0  0  0  0
 30  5  1  0  0  0  0
 32 30  1  0  0  0  0
 32 31  2  0  0  0  0
 33 32  1  0  0  0  0
 34 33  1  0  0  0  0
 35 34  1  0  0  0  0
 37 36  1  6  0  0  0
 37 35  1  0  0  0  0
 38 41  1  6  0  0  0
 38 40  1  0  0  0  0
 38 37  1  0  0  0  0
 39 40  1  0  0  0  0
 42 44  2  0  0  0  0
 43 41  1  0  0  0  0
 44 43  1  0  0  0  0
 45 44  1  0  0  0  0
 48 46  2  0  0  0  0
 48 47  1  0  0  0  0
 49 45  1  0  0  0  0
 49 48  1  0  0  0  0
 50 47  1  0  0  0  0
 50 51  1  0  0  0  0
M  END
>  <MODEL>
6

>  <REMARK>
 VINA RESULT:      -6.4      4.075      5.215
  Name = 
  18 active torsions:
  status: ('A' for Active; 'I' for Inactive)
    1  A    between atoms: C_1  and  C_51
    2  A    between atoms: C_2  and  C_23
    3  A    between atoms: C_2  and  N_49
    4  A    between atoms: C_3  and  C_45
    5  A    between atoms: C_6  and  N_34
    6  A    between atoms: C_6  and  C_41
    7  A    between atoms: N_7  and  C_32
    8  A    between atoms: C_8  and  N_22
    9  A    between atoms: C_13  and  C_17
   10  A    between atoms: C_13  and  C_31
   11  A    between atoms: N_15  and  C_38
   12  A    between atoms: C_17  and  C_47
   13  A    between atoms: C_26  and  N_40
   14  A    between atoms: O_27  and  C_51
   15  A    between atoms: C_28  and  C_29
   16  A    between atoms: C_28  and  O_30
   17  A    between atoms: C_28  and  C_32
   18  A    between atoms: C_29  and  C_31
                            x       y       z     vdW  Elec       q    Type
                         _______ _______ _______ _____ _____    ______ ____

>  <TORSDO>
F 18

$$$$
=
 OpenBabel10232408553D

 51 53  0  0  1  0  0  0  0  0999 V2000
  189.3780  177.6670  146.5160 C   0  0  0  0  0  0  0  0  0  0  0  0
  189.6590  177.9760  147.8600 C   0  0  0  0  0  3  0  0  0  0  0  0
  187.0070  177.9350  147.0100 C   0  0  0  0  0  3  0  0  0  0  0  0
  187.3050  178.2340  148.3390 C   0  0  0  0  0  3  0  0  0  0  0  0
  188.0260  177.6480  146.0870 C   0  0  0  0  0  0  0  0  0  0  0  0
  188.6330  178.2580  148.7640 C   0  0  0  0  0  3  0  0  0  0  0  0
  190.5600  177.9100  144.3810 C   0  0  0  0  0  3  0  0  0  0  0  0
  190.5070  177.3570  145.5950 C   0  0  0  0  0  0  0  0  0  0  0  0
  191.5270  176.4950  145.9960 O   0  0  0  0  0  1  0  0  0  0  0  0
  191.6720  177.6260  143.4260 C   0  0  0  0  0  2  0  0  0  0  0  0
  190.5770  177.0250  141.2330 C   0  0  0  0  0  0  0  0  0  0  0  0
  191.2500  177.9620  142.0770 N   0  0  0  0  0  2  0  0  0  0  0  0
  190.2940  175.8720  141.6580 O   0  0  0  0  0  0  0  0  0  0  0  0
  190.1940  177.4210  139.9170 N   0  0  0  0  0  2  0  0  0  0  0  0
  192.1250  172.5860  135.1400 C   0  0  1  0  0  3  0  0  0  0  0  0
  190.6370  173.8520  136.7970 C   0  0  2  0  0  3  0  0  0  0  0  0
  193.1270  174.2050  136.8480 C   0  0  0  0  0  2  0  0  0  0  0  0
  191.7550  174.8790  136.7480 C   0  0  2  0  0  3  0  0  0  0  0  0
  190.6740  172.9580  135.5480 C   0  0  1  0  0  3  0  0  0  0  0  0
  189.0810  174.7510  137.0600 S   0  0  0  0  0  0  0  0  0  0  0  0
  190.0470  173.5920  134.4690 O   0  0  0  0  0  1  0  0  0  0  0  0
  189.4410  176.5640  139.0560 C   0  0  0  0  0  3  0  0  0  0  0  0
  193.1220  172.7600  136.3000 C   0  0  0  0  0  2  0  0  0  0  0  0
  190.0280  175.8730  138.0820 C   0  0  0  0  0  0  0  0  0  0  0  0
  191.5080  175.8730  137.8650 C   0  0  0  0  0  2  0  0  0  0  0  0
  190.9490  170.5350  134.7250 O   0  0  0  0  0  1  0  0  0  0  0  0
  192.1930  171.1600  134.5860 C   0  0  2  0  0  3  0  0  0  0  0  0
  193.5870  169.4510  134.3690 C   0  0  0  0  0  1  0  0  0  0  0  0
  193.1550  170.4190  135.2780 O   0  0  0  0  0  0  0  0  0  0  0  0
  187.7060  177.3970  144.7090 N   0  0  0  0  0  2  0  0  0  0  0  0
  185.5220  178.2580  144.6430 O   0  0  0  0  0  0  0  0  0  0  0  0
  186.5050  177.7760  144.0220 C   0  0  0  0  0  0  0  0  0  0  0  0
  186.4030  177.5700  142.5490 C   0  0  0  0  0  2  0  0  0  0  0  0
  186.4330  178.9030  141.8140 C   0  0  0  0  0  2  0  0  0  0  0  0
  185.0130  179.3760  141.5390 C   0  0  0  0  0  2  0  0  0  0  0  0
  185.4880  178.3500  139.3950 O   0  0  0  0  0  1  0  0  0  0  0  0
  184.5860  179.1590  140.0910 C   0  0  1  0  0  3  0  0  0  0  0  0
  183.1360  178.6780  139.9460 C   0  0  1  0  0  3  0  0  0  0  0  0
  181.6770  180.1230  139.1290 C   0  0  0  0  0  1  0  0  0  0  0  0
  182.6100  179.1620  138.7470 O   0  0  0  0  0  0  0  0  0  0  0  0
  183.0000  177.1600  139.9760 C   0  0  0  0  0  2  0  0  0  0  0  0
  181.8050  174.9150  138.7170 O   0  0  0  0  0  0  0  0  0  0  0  0
  183.4350  176.5860  138.7130 N   0  0  0  0  0  2  0  0  0  0  0  0
  182.7460  175.4930  138.1060 C   0  0  0  0  0  0  0  0  0  0  0  0
  183.2010  174.9940  136.7710 C   0  0  0  0  0  2  0  0  0  0  0  0
  185.9230  172.5700  137.2070 O   0  0  0  0  0  0  0  0  0  0  0  0
  183.8160  171.9970  136.4420 N   0  0  0  0  0  2  0  0  0  0  0  0
  184.7880  172.9710  136.8480 C   0  0  0  0  0  0  0  0  0  0  0  0
  184.5190  174.3810  136.8570 N   0  0  0  0  0  2  0  0  0  0  0  0
  182.5770  172.2920  135.7380 C   0  0  0  0  0  2  0  0  0  0  0  0
  181.3890  171.9970  136.6340 C   0  0  0  0  0  1  0  0  0  0  0  0
  1  2  1  0  0  0  0
  2  6  2  0  0  0  0
  3  4  2  0  0  0  0
  4  6  1  0  0  0  0
  5  1  2  0  0  0  0
  5  3  1  0  0  0  0
  7  8  2  0  0  0  0
  8  9  1  0  0  0  0
  8  1  1  0  0  0  0
 10  7  1  0  0  0  0
 11 13  2  0  0  0  0
 11 12  1  0  0  0  0
 12 10  1  0  0  0  0
 14 11  1  0  0  0  0
 15 27  1  1  0  0  0
 15 19  1  0  0  0  0
 15 23  1  0  0  0  0
 16 20  1  6  0  0  0
 18 16  1  0  0  0  0
 18 17  1  1  0  0  0
 18 25  1  0  0  0  0
 19 21  1  6  0  0  0
 19 16  1  0  0  0  0
 20 24  1  0  0  0  0
 22 14  1  0  0  0  0
 23 17  1  0  0  0  0
 24 22  2  0  0  0  0
 25 24  1  0  0  0  0
 27 26  1  1  0  0  0
 27 29  1  0  0  0  0
 28 29  1  0  0  0  0
 30  5  1  0  0  0  0
 32 31  2  0  0  0  0
 32 30  1  0  0  0  0
 33 32  1  0  0  0  0
 34 33  1  0  0  0  0
 35 34  1  0  0  0  0
 37 36  1  1  0  0  0
 37 35  1  0  0  0  0
 38 41  1  6  0  0  0
 38 37  1  0  0  0  0
 40 39  1  0  0  0  0
 40 38  1  0  0  0  0
 43 41  1  0  0  0  0
 44 43  1  0  0  0  0
 44 42  2  0  0  0  0
 45 49  1  0  0  0  0
 45 44  1  0  0  0  0
 47 48  1  0  0  0  0
 48 49  1  0  0  0  0
 48 46  2  0  0  0  0
 50 47  1  0  0  0  0
 50 51  1  0  0  0  0
M  END
>  <MODEL>
7

>  <REMARK>
 VINA RESULT:      -6.1      2.627      3.572
  Name = 
  18 active torsions:
  status: ('A' for Active; 'I' for Inactive)
    1  A    between atoms: C_1  and  C_51
    2  A    between atoms: C_2  and  C_23
    3  A    between atoms: C_2  and  N_49
    4  A    between atoms: C_3  and  C_45
    5  A    between atoms: C_6  and  N_34
    6  A    between atoms: C_6  and  C_41
    7  A    between atoms: N_7  and  C_32
    8  A    between atoms: C_8  and  N_22
    9  A    between atoms: C_13  and  C_17
   10  A    between atoms: C_13  and  C_31
   11  A    between atoms: N_15  and  C_38
   12  A    between atoms: C_17  and  C_47
   13  A    between atoms: C_26  and  N_40
   14  A    between atoms: O_27  and  C_51
   15  A    between atoms: C_28  and  C_29
   16  A    between atoms: C_28  and  O_30
   17  A    between atoms: C_28  and  C_32
   18  A    between atoms: C_29  and  C_31
                            x       y       z     vdW  Elec       q    Type
                         _______ _______ _______ _____ _____    ______ ____

>  <TORSDO>
F 18

$$$$
=
 OpenBabel10232408553D

 51 53  0  0  1  0  0  0  0  0999 V2000
  182.4230  177.9870  139.4710 C   0  0  0  0  0  0  0  0  0  0  0  0
  181.6240  177.2360  138.5890 C   0  0  0  0  0  3  0  0  0  0  0  0
  180.7640  177.5990  141.2140 C   0  0  0  0  0  3  0  0  0  0  0  0
  179.9840  176.8620  140.3240 C   0  0  0  0  0  3  0  0  0  0  0  0
  181.9820  178.1690  140.8070 C   0  0  0  0  0  0  0  0  0  0  0  0
  180.4150  176.6780  139.0110 C   0  0  0  0  0  3  0  0  0  0  0  0
  184.5040  177.8660  138.1780 C   0  0  0  0  0  3  0  0  0  0  0  0
  183.6960  178.5760  138.9680 C   0  0  0  0  0  0  0  0  0  0  0  0
  184.0510  179.8810  139.3090 O   0  0  0  0  0  1  0  0  0  0  0  0
  185.7880  178.4170  137.6540 C   0  0  0  0  0  2  0  0  0  0  0  0
  188.2160  177.7930  137.9410 C   0  0  0  0  0  0  0  0  0  0  0  0
  186.8400  177.4270  137.8100 N   0  0  0  0  0  2  0  0  0  0  0  0
  188.5550  179.0060  137.9610 O   0  0  0  0  0  0  0  0  0  0  0  0
  189.1980  176.7680  138.0880 N   0  0  0  0  0  2  0  0  0  0  0  0
  195.1450  173.3490  136.3930 C   0  0  1  0  0  3  0  0  0  0  0  0
  193.6070  175.2790  137.0810 C   0  0  2  0  0  3  0  0  0  0  0  0
  192.6070  173.1780  136.1240 C   0  0  0  0  0  2  0  0  0  0  0  0
  192.5950  174.1660  137.2950 C   0  0  2  0  0  3  0  0  0  0  0  0
  195.0380  174.7190  137.1160 C   0  0  1  0  0  3  0  0  0  0  0  0
  193.2540  176.5790  138.2990 S   0  0  0  0  0  0  0  0  0  0  0  0
  195.4760  174.5710  138.4370 O   0  0  0  0  0  1  0  0  0  0  0  0
  190.5780  177.0660  138.3130 C   0  0  0  0  0  3  0  0  0  0  0  0
  193.9790  173.1100  135.4170 C   0  0  0  0  0  2  0  0  0  0  0  0
  191.5280  176.1640  138.0810 C   0  0  0  0  0  0  0  0  0  0  0  0
  191.2420  174.8160  137.5000 C   0  0  0  0  0  2  0  0  0  0  0  0
  196.4130  172.1900  134.7170 O   0  0  0  0  0  1  0  0  0  0  0  0
  196.4870  173.2140  135.6670 C   0  0  2  0  0  3  0  0  0  0  0  0
  198.5240  173.8200  136.2950 C   0  0  0  0  0  1  0  0  0  0  0  0
  197.5010  172.9140  136.5820 O   0  0  0  0  0  0  0  0  0  0  0  0
  182.8010  178.8780  141.7510 N   0  0  0  0  0  2  0  0  0  0  0  0
  181.5690  178.4970  143.7140 O   0  0  0  0  0  0  0  0  0  0  0  0
  182.6100  178.9530  143.1710 C   0  0  0  0  0  0  0  0  0  0  0  0
  183.6450  179.6070  144.0200 C   0  0  0  0  0  2  0  0  0  0  0  0
  183.8890  178.8020  145.2890 C   0  0  0  0  0  2  0  0  0  0  0  0
  185.2300  179.1870  145.8980 C   0  0  0  0  0  2  0  0  0  0  0  0
  185.6210  176.8140  146.1990 O   0  0  0  0  0  1  0  0  0  0  0  0
  185.8330  178.0780  146.7550 C   0  0  1  0  0  3  0  0  0  0  0  0
  187.3030  178.3180  147.1200 C   0  0  1  0  0  3  0  0  0  0  0  0
  188.4650  177.5130  148.8190 C   0  0  0  0  0  1  0  0  0  0  0  0
  187.8480  177.1380  147.6270 O   0  0  0  0  0  0  0  0  0  0  0  0
  188.1460  178.7920  145.9410 C   0  0  0  0  0  2  0  0  0  0  0  0
  187.2280  177.7270  143.4760 O   0  0  0  0  0  0  0  0  0  0  0  0
  188.7410  177.6580  145.2540 N   0  0  0  0  0  2  0  0  0  0  0  0
  188.2640  177.2150  143.9830 C   0  0  0  0  0  0  0  0  0  0  0  0
  188.9650  176.0860  143.2940 C   0  0  0  0  0  2  0  0  0  0  0  0
  191.6550  177.6550  141.3520 O   0  0  0  0  0  0  0  0  0  0  0  0
  191.9680  176.7380  143.4530 N   0  0  0  0  0  2  0  0  0  0  0  0
  191.1530  177.0080  142.3040 C   0  0  0  0  0  0  0  0  0  0  0  0
  189.7910  176.5680  142.1960 N   0  0  0  0  0  2  0  0  0  0  0  0
  191.6500  175.7780  144.5000 C   0  0  0  0  0  2  0  0  0  0  0  0
  191.6210  176.4720  145.8480 C   0  0  0  0  0  1  0  0  0  0  0  0
  1  5  1  0  0  0  0
  2  6  1  0  0  0  0
  2  1  2  0  0  0  0
  4  3  1  0  0  0  0
  5  3  2  0  0  0  0
  5 30  1  0  0  0  0
  6  4  2  0  0  0  0
  7  8  2  0  0  0  0
  8  9  1  0  0  0  0
  8  1  1  0  0  0  0
 10 12  1  0  0  0  0
 10  7  1  0  0  0  0
 11 13  2  0  0  0  0
 11 14  1  0  0  0  0
 12 11  1  0  0  0  0
 14 22  1  0  0  0  0
 15 27  1  6  0  0  0
 15 19  1  0  0  0  0
 16 19  1  0  0  0  0
 16 18  1  0  0  0  0
 16 20  1  1  0  0  0
 18 17  1  6  0  0  0
 18 25  1  0  0  0  0
 19 21  1  1  0  0  0
 23 17  1  0  0  0  0
 23 15  1  0  0  0  0
 24 20  1  0  0  0  0
 24 22  2  0  0  0  0
 25 24  1  0  0  0  0
 27 26  1  6  0  0  0
 27 29  1  0  0  0  0
 28 29  1  0  0  0  0
 30 32  1  0  0  0  0
 32 31  2  0  0  0  0
 32 33  1  0  0  0  0
 33 34  1  0  0  0  0
 34 35  1  0  0  0  0
 35 37  1  0  0  0  0
 37 36  1  6  0  0  0
 37 38  1  0  0  0  0
 38 41  1  6  0  0  0
 38 40  1  0  0  0  0
 40 39  1  0  0  0  0
 42 44  2  0  0  0  0
 43 41  1  0  0  0  0
 44 43  1  0  0  0  0
 45 44  1  0  0  0  0
 46 48  2  0  0  0  0
 47 50  1  0  0  0  0
 48 47  1  0  0  0  0
 49 48  1  0  0  0  0
 49 45  1  0  0  0  0
 50 51  1  0  0  0  0
M  END
>  <MODEL>
8

>  <REMARK>
 VINA RESULT:      -6.0      2.206      6.384
  Name = 
  18 active torsions:
  status: ('A' for Active; 'I' for Inactive)
    1  A    between atoms: C_1  and  C_51
    2  A    between atoms: C_2  and  C_23
    3  A    between atoms: C_2  and  N_49
    4  A    between atoms: C_3  and  C_45
    5  A    between atoms: C_6  and  N_34
    6  A    between atoms: C_6  and  C_41
    7  A    between atoms: N_7  and  C_32
    8  A    between atoms: C_8  and  N_22
    9  A    between atoms: C_13  and  C_17
   10  A    between atoms: C_13  and  C_31
   11  A    between atoms: N_15  and  C_38
   12  A    between atoms: C_17  and  C_47
   13  A    between atoms: C_26  and  N_40
   14  A    between atoms: O_27  and  C_51
   15  A    between atoms: C_28  and  C_29
   16  A    between atoms: C_28  and  O_30
   17  A    between atoms: C_28  and  C_32
   18  A    between atoms: C_29  and  C_31
                            x       y       z     vdW  Elec       q    Type
                         _______ _______ _______ _____ _____    ______ ____

>  <TORSDO>
F 18

$$$$
=
 OpenBabel10232408553D

 51 53  0  0  1  0  0  0  0  0999 V2000
  181.9660  178.0600  141.6550 C   0  0  0  0  0  0  0  0  0  0  0  0
  180.5950  178.0780  141.9740 C   0  0  0  0  0  3  0  0  0  0  0  0
  182.4340  178.9530  143.8740 C   0  0  0  0  0  3  0  0  0  0  0  0
  181.0720  178.9680  144.1690 C   0  0  0  0  0  3  0  0  0  0  0  0
  182.8990  178.5060  142.6260 C   0  0  0  0  0  0  0  0  0  0  0  0
  180.1510  178.5280  143.2190 C   0  0  0  0  0  3  0  0  0  0  0  0
  183.0240  178.4100  139.4710 C   0  0  0  0  0  3  0  0  0  0  0  0
  182.3880  177.5870  140.3070 C   0  0  0  0  0  0  0  0  0  0  0  0
  182.1330  176.2750  139.9090 O   0  0  0  0  0  1  0  0  0  0  0  0
  183.4640  177.9790  138.1120 C   0  0  0  0  0  2  0  0  0  0  0  0
  185.6340  177.4010  136.9600 C   0  0  0  0  0  0  0  0  0  0  0  0
  184.9150  177.9980  138.0420 N   0  0  0  0  0  2  0  0  0  0  0  0
  185.0150  176.8630  136.0020 O   0  0  0  0  0  0  0  0  0  0  0  0
  187.0590  177.4550  136.9560 N   0  0  0  0  0  2  0  0  0  0  0  0
  189.3030  170.9690  135.2770 C   0  0  1  0  0  3  0  0  0  0  0  0
  188.6780  173.4350  134.9820 C   0  0  2  0  0  3  0  0  0  0  0  0
  187.9060  172.1970  137.0320 C   0  0  0  0  0  2  0  0  0  0  0  0
  188.6480  173.4280  136.5020 C   0  0  2  0  0  3  0  0  0  0  0  0
  189.5280  172.2680  134.4570 C   0  0  1  0  0  3  0  0  0  0  0  0
  189.2200  175.0870  134.4550 S   0  0  0  0  0  0  0  0  0  0  0  0
  190.8880  172.5960  134.4880 O   0  0  0  0  0  1  0  0  0  0  0  0
  187.8350  176.9570  135.8630 C   0  0  0  0  0  3  0  0  0  0  0  0
  187.9810  170.9950  136.0650 C   0  0  0  0  0  2  0  0  0  0  0  0
  188.3130  175.7160  135.8630 C   0  0  0  0  0  0  0  0  0  0  0  0
  188.0160  174.7310  136.9490 C   0  0  0  0  0  2  0  0  0  0  0  0
  188.5000  168.7460  134.8600 O   0  0  0  0  0  1  0  0  0  0  0  0
  189.3650  169.7320  134.3750 C   0  0  2  0  0  3  0  0  0  0  0  0
  190.5730  167.9630  134.9430 C   0  0  0  0  0  1  0  0  0  0  0  0
  190.6660  169.2220  134.3460 O   0  0  0  0  0  0  0  0  0  0  0  0
  184.3100  178.4440  142.3590 N   0  0  0  0  0  2  0  0  0  0  0  0
  185.1390  178.5870  144.5510 O   0  0  0  0  0  0  0  0  0  0  0  0
  185.3690  178.4100  143.3260 C   0  0  0  0  0  0  0  0  0  0  0  0
  186.7710  178.1900  142.8740 C   0  0  0  0  0  2  0  0  0  0  0  0
  187.5510  177.3860  143.9060 C   0  0  0  0  0  2  0  0  0  0  0  0
  188.2340  176.2040  143.2340 C   0  0  0  0  0  2  0  0  0  0  0  0
  190.3620  175.1600  142.7270 O   0  0  0  0  0  1  0  0  0  0  0  0
  189.7560  176.2790  143.3050 C   0  0  1  0  0  3  0  0  0  0  0  0
  190.3290  177.5970  142.7700 C   0  0  1  0  0  3  0  0  0  0  0  0
  191.8550  177.8070  144.3550 C   0  0  0  0  0  1  0  0  0  0  0  0
  191.7080  177.6180  142.9830 O   0  0  0  0  0  0  0  0  0  0  0  0
  190.0480  177.8180  141.2870 C   0  0  0  0  0  2  0  0  0  0  0  0
  190.6040  175.7830  139.3900 O   0  0  0  0  0  0  0  0  0  0  0  0
  191.2760  177.7140  140.5170 N   0  0  0  0  0  2  0  0  0  0  0  0
  191.4620  176.6970  139.5320 C   0  0  0  0  0  0  0  0  0  0  0  0
  192.7210  176.6860  138.7230 C   0  0  0  0  0  2  0  0  0  0  0  0
  193.0210  175.9920  135.1310 O   0  0  0  0  0  0  0  0  0  0  0  0
  194.1900  174.8310  136.7550 N   0  0  0  0  0  2  0  0  0  0  0  0
  193.2100  175.7990  136.3580 C   0  0  0  0  0  0  0  0  0  0  0  0
  192.4340  176.5540  137.3020 N   0  0  0  0  0  2  0  0  0  0  0  0
  194.3330  174.2850  138.0970 C   0  0  0  0  0  2  0  0  0  0  0  0
  194.7320  172.8230  138.0220 C   0  0  0  0  0  1  0  0  0  0  0  0
  1  2  2  0  0  0  0
  1  5  1  0  0  0  0
  2  6  1  0  0  0  0
  3  4  1  0  0  0  0
  5  3  2  0  0  0  0
  6  4  2  0  0  0  0
  7  8  2  0  0  0  0
  8  1  1  0  0  0  0
  9  8  1  0  0  0  0
 10  7  1  0  0  0  0
 11 12  1  0  0  0  0
 12 10  1  0  0  0  0
 13 11  2  0  0  0  0
 14 11  1  0  0  0  0
 15 27  1  6  0  0  0
 15 23  1  0  0  0  0
 16 20  1  1  0  0  0
 16 18  1  0  0  0  0
 18 25  1  6  0  0  0
 18 17  1  0  0  0  0
 19 21  1  1  0  0  0
 19 16  1  0  0  0  0
 19 15  1  0  0  0  0
 20 24  1  0  0  0  0
 22 24  2  0  0  0  0
 22 14  1  0  0  0  0
 23 17  1  0  0  0  0
 24 25  1  0  0  0  0
 27 26  1  1  0  0  0
 29 27  1  0  0  0  0
 29 28  1  0  0  0  0
 30  5  1  0  0  0  0
 30 32  1  0  0  0  0
 32 31  2  0  0  0  0
 33 32  1  0  0  0  0
 33 34  1  0  0  0  0
 35 37  1  0  0  0  0
 35 34  1  0  0  0  0
 37 36  1  6  0  0  0
 38 41  1  6  0  0  0
 38 40  1  0  0  0  0
 38 37  1  0  0  0  0
 40 39  1  0  0  0  0
 42 44  2  0  0  0  0
 43 41  1  0  0  0  0
 44 43  1  0  0  0  0
 45 44  1  0  0  0  0
 46 48  2  0  0  0  0
 47 50  1  0  0  0  0
 48 47  1  0  0  0  0
 48 49  1  0  0  0  0
 49 45  1  0  0  0  0
 51 50  1  0  0  0  0
M  END
>  <MODEL>
9

>  <REMARK>
 VINA RESULT:      -5.8      2.754      6.822
  Name = 
  18 active torsions:
  status: ('A' for Active; 'I' for Inactive)
    1  A    between atoms: C_1  and  C_51
    2  A    between atoms: C_2  and  C_23
    3  A    between atoms: C_2  and  N_49
    4  A    between atoms: C_3  and  C_45
    5  A    between atoms: C_6  and  N_34
    6  A    between atoms: C_6  and  C_41
    7  A    between atoms: N_7  and  C_32
    8  A    between atoms: C_8  and  N_22
    9  A    between atoms: C_13  and  C_17
   10  A    between atoms: C_13  and  C_31
   11  A    between atoms: N_15  and  C_38
   12  A    between atoms: C_17  and  C_47
   13  A    between atoms: C_26  and  N_40
   14  A    between atoms: O_27  and  C_51
   15  A    between atoms: C_28  and  C_29
   16  A    between atoms: C_28  and  O_30
   17  A    between atoms: C_28  and  C_32
   18  A    between atoms: C_29  and  C_31
                            x       y       z     vdW  Elec       q    Type
                         _______ _______ _______ _____ _____    ______ ____

>  <TORSDO>
F 18

$$$$
