=
 OpenBabel10232410203D

 29 33  0  0  1  0  0  0  0  0999 V2000
  188.8450  179.5380  137.3060 O   0  0  0  0  0  0  0  0  0  0  0  0
  187.2580  177.3040  144.6760 C   0  0  0  0  0  2  0  0  0  0  0  0
  187.5520  177.7080  138.1130 C   0  0  1  0  0  3  0  0  0  0  0  0
  187.0840  178.7770  141.0980 C   0  0  2  0  0  3  0  0  0  0  0  0
  185.6480  179.1530  145.2840 C   0  0  0  0  0  2  0  0  0  0  0  0
  186.2100  177.9340  138.7430 C   0  0  0  0  0  0  0  0  0  0  0  0
  188.5440  178.4710  140.7820 C   0  0  0  0  0  2  0  0  0  0  0  0
  182.5440  178.5350  140.5530 C   0  0  0  0  0  0  0  0  0  0  0  0
  186.8980  177.1690  143.1930 C   0  0  1  0  0  3  0  0  0  0  0  0
  188.9700  179.2000  139.6010 N   0  0  0  0  0  2  0  0  0  0  0  0
  184.7780  179.2360  144.0680 C   0  0  0  0  0  3  0  0  0  0  0  0
  186.0560  177.7040  145.5340 C   0  0  0  0  0  2  0  0  0  0  0  0
  184.7120  178.4950  140.5200 C   0  0  0  0  0  0  0  0  0  0  0  0
  186.6850  178.5780  142.5970 C   0  0  2  0  0  3  0  0  0  0  0  0
  183.7610  177.8660  138.4110 C   0  0  0  0  0  3  0  0  0  0  0  0
  185.0730  177.6930  137.9240 C   0  0  0  0  0  3  0  0  0  0  0  0
  188.4800  178.8630  138.3040 C   0  0  0  0  0  0  0  0  0  0  0  0
  188.1170  176.5320  138.5700 F   0  0  0  0  0  0  0  0  0  0  0  0
  186.0240  178.3250  140.1040 C   0  0  0  0  0  0  0  0  0  0  0  0
  183.6300  178.2850  139.7290 C   0  0  0  0  0  0  0  0  0  0  0  0
  182.9930  178.8750  141.7900 N   0  0  0  0  0  0  0  0  0  0  0  0
  185.2380  178.9830  142.8360 C   0  0  0  0  0  0  0  0  0  0  0  0
  184.3220  178.8550  141.7420 N   0  0  0  0  0  0  0  0  0  0  0  0
  179.9960  178.8680  141.2590 O   0  0  0  0  0  0  0  0  0  0  0  0
  180.8490  178.3870  140.1210 S   0  0  0  0  0  0  0  0  0  0  0  0
  180.4680  176.6870  139.7760 C   0  0  0  0  0  1  0  0  0  0  0  0
  180.5690  179.2060  138.8920 O   0  0  0  0  0  0  0  0  0  0  0  0
  188.8840  176.2380  143.5140 C   0  0  0  0  0  1  0  0  0  0  0  0
  187.9040  176.4510  142.5420 O   0  0  0  0  0  0  0  0  0  0  0  0
  1 17  2  0  0  0  0
  2 12  1  0  0  0  0
  3 17  1  0  0  0  0
  3 18  1  1  0  0  0
  3  6  1  0  0  0  0
  4  7  1  6  0  0  0
  4 14  1  0  0  0  0
  5 12  1  0  0  0  0
  6 19  1  0  0  0  0
  8 21  2  0  0  0  0
  9 29  1  6  0  0  0
  9  2  1  0  0  0  0
 10  7  1  0  0  0  0
 11  5  1  0  0  0  0
 13 23  1  0  0  0  0
 14 22  1  6  0  0  0
 14  9  1  0  0  0  0
 15 20  2  0  0  0  0
 16 15  1  0  0  0  0
 16  6  2  0  0  0  0
 17 10  1  0  0  0  0
 19 13  2  0  0  0  0
 19  4  1  0  0  0  0
 20 13  1  0  0  0  0
 20  8  1  0  0  0  0
 22 11  2  0  0  0  0
 23 21  1  0  0  0  0
 23 22  1  0  0  0  0
 25  8  1  0  0  0  0
 25 24  2  0  0  0  0
 26 25  1  0  0  0  0
 27 25  2  0  0  0  0
 29 28  1  0  0  0  0
M  END
>  <MODEL>
1

>  <REMARK>
 VINA RESULT:      -7.4      0.000      0.000
  Name = 
  2 active torsions:
  status: ('A' for Active; 'I' for Inactive)
    1  A    between atoms: S_4  and  C_10
    2  A    between atoms: C_11  and  O_28
                            x       y       z     vdW  Elec       q    Type
                         _______ _______ _______ _____ _____    ______ ____

>  <TORSDO>
F 2

$$$$
=
 OpenBabel10232410203D

 29 33  0  0  1  0  0  0  0  0999 V2000
  187.4350  176.4810  149.1570 O   0  0  0  0  0  0  0  0  0  0  0  0
  191.5850  178.1190  142.6820 C   0  0  0  0  0  2  0  0  0  0  0  0
  187.3850  178.3970  147.7430 C   0  0  1  0  0  3  0  0  0  0  0  0
  188.8090  177.0960  145.1830 C   0  0  2  0  0  3  0  0  0  0  0  0
  190.4580  176.5010  141.1020 C   0  0  0  0  0  2  0  0  0  0  0  0
  186.7840  178.3250  146.3720 C   0  0  0  0  0  0  0  0  0  0  0  0
  189.7190  177.1930  146.4030 C   0  0  0  0  0  2  0  0  0  0  0  0
  185.2040  178.1340  142.5580 C   0  0  0  0  0  0  0  0  0  0  0  0
  190.3700  178.4730  143.5480 C   0  0  1  0  0  3  0  0  0  0  0  0
  189.1060  176.5390  147.5450 N   0  0  0  0  0  2  0  0  0  0  0  0
  189.0080  176.6950  141.4220 C   0  0  0  0  0  3  0  0  0  0  0  0
  191.2020  177.8280  141.2300 C   0  0  0  0  0  2  0  0  0  0  0  0
  186.7620  177.8240  144.0340 C   0  0  0  0  0  0  0  0  0  0  0  0
  189.5480  177.1920  143.8080 C   0  0  2  0  0  3  0  0  0  0  0  0
  184.8020  178.8270  144.9820 C   0  0  0  0  0  3  0  0  0  0  0  0
  185.4660  178.8370  146.2260 C   0  0  0  0  0  3  0  0  0  0  0  0
  187.9600  177.0920  148.1900 C   0  0  0  0  0  0  0  0  0  0  0  0
  188.3270  179.4080  147.8150 F   0  0  0  0  0  0  0  0  0  0  0  0
  187.4720  177.8220  145.2250 C   0  0  0  0  0  0  0  0  0  0  0  0
  185.4960  178.2930  143.9040 C   0  0  0  0  0  0  0  0  0  0  0  0
  186.2800  177.5910  141.9300 N   0  0  0  0  0  0  0  0  0  0  0  0
  188.5770  177.0040  142.6520 C   0  0  0  0  0  0  0  0  0  0  0  0
  187.2160  177.3990  142.8550 N   0  0  0  0  0  0  0  0  0  0  0  0
  182.7160  179.0650  142.7690 O   0  0  0  0  0  0  0  0  0  0  0  0
  183.7180  178.6030  141.7500 S   0  0  0  0  0  0  0  0  0  0  0  0
  183.0570  177.2150  140.8610 C   0  0  0  0  0  1  0  0  0  0  0  0
  184.0020  179.7120  140.7770 O   0  0  0  0  0  0  0  0  0  0  0  0
  192.0950  179.5480  144.4330 C   0  0  0  0  0  1  0  0  0  0  0  0
  190.8100  179.0850  144.7240 O   0  0  0  0  0  0  0  0  0  0  0  0
  2  9  1  0  0  0  0
  3 18  1  6  0  0  0
  3 17  1  0  0  0  0
  4 19  1  0  0  0  0
  4  7  1  1  0  0  0
  5 12  1  0  0  0  0
  5 11  1  0  0  0  0
  6  3  1  0  0  0  0
  7 10  1  0  0  0  0
  8 20  1  0  0  0  0
  9 14  1  0  0  0  0
  9 29  1  1  0  0  0
 10 17  1  0  0  0  0
 11 22  2  0  0  0  0
 12  2  1  0  0  0  0
 13 19  1  0  0  0  0
 14 22  1  6  0  0  0
 14  4  1  0  0  0  0
 15 16  2  0  0  0  0
 16  6  1  0  0  0  0
 17  1  2  0  0  0  0
 19  6  2  0  0  0  0
 20 13  2  0  0  0  0
 20 15  1  0  0  0  0
 21  8  2  0  0  0  0
 21 23  1  0  0  0  0
 22 23  1  0  0  0  0
 23 13  1  0  0  0  0
 25  8  1  0  0  0  0
 25 24  2  0  0  0  0
 26 25  1  0  0  0  0
 27 25  2  0  0  0  0
 28 29  1  0  0  0  0
M  END
>  <MODEL>
2

>  <REMARK>
 VINA RESULT:      -7.2      3.598      6.209
  Name = 
  2 active torsions:
  status: ('A' for Active; 'I' for Inactive)
    1  A    between atoms: S_4  and  C_10
    2  A    between atoms: C_11  and  O_28
                            x       y       z     vdW  Elec       q    Type
                         _______ _______ _______ _____ _____    ______ ____

>  <TORSDO>
F 2

$$$$
=
 OpenBabel10232410203D

 29 33  0  0  1  0  0  0  0  0999 V2000
  186.8600  179.8450  136.5290 O   0  0  0  0  0  0  0  0  0  0  0  0
  192.2190  174.1000  136.8440 C   0  0  0  0  0  2  0  0  0  0  0  0
  187.0030  177.9540  137.9700 C   0  0  1  0  0  3  0  0  0  0  0  0
  190.1010  177.2750  137.5040 C   0  0  2  0  0  3  0  0  0  0  0  0
  194.1260  175.4270  137.8340 C   0  0  0  0  0  2  0  0  0  0  0  0
  188.0390  177.8900  139.0510 C   0  0  0  0  0  0  0  0  0  0  0  0
  189.2430  177.0970  136.2550 C   0  0  0  0  0  2  0  0  0  0  0  0
  190.9350  177.6490  141.9900 C   0  0  0  0  0  0  0  0  0  0  0  0
  191.0580  174.8080  137.5520 C   0  0  1  0  0  3  0  0  0  0  0  0
  188.5160  178.3180  135.9620 N   0  0  0  0  0  2  0  0  0  0  0  0
  193.4480  176.2070  138.9180 C   0  0  0  0  0  3  0  0  0  0  0  0
  193.4830  174.0500  137.7030 C   0  0  0  0  0  2  0  0  0  0  0  0
  190.2210  177.4980  139.9490 C   0  0  0  0  0  0  0  0  0  0  0  0
  191.3400  176.3260  137.5850 C   0  0  2  0  0  3  0  0  0  0  0  0
  188.4900  178.1650  141.4670 C   0  0  0  0  0  3  0  0  0  0  0  0
  187.6050  178.1990  140.3690 C   0  0  0  0  0  3  0  0  0  0  0  0
  187.4470  178.7640  136.7950 C   0  0  0  0  0  0  0  0  0  0  0  0
  186.6150  176.6840  137.5830 F   0  0  0  0  0  0  0  0  0  0  0  0
  189.3950  177.4960  138.8340 C   0  0  0  0  0  0  0  0  0  0  0  0
  189.8080  177.8150  141.2010 C   0  0  0  0  0  0  0  0  0  0  0  0
  191.9690  177.2410  141.2090 N   0  0  0  0  0  0  0  0  0  0  0  0
  192.1810  176.6290  138.8170 C   0  0  0  0  0  0  0  0  0  0  0  0
  191.5110  177.1670  139.9630 N   0  0  0  0  0  0  0  0  0  0  0  0
  191.9880  178.9770  144.0470 O   0  0  0  0  0  0  0  0  0  0  0  0
  191.0310  177.8640  143.7300 S   0  0  0  0  0  0  0  0  0  0  0  0
  191.6020  176.3620  144.4860 C   0  0  0  0  0  1  0  0  0  0  0  0
  189.6690  178.1940  144.2730 O   0  0  0  0  0  0  0  0  0  0  0  0
  190.1870  173.4370  136.0430 C   0  0  0  0  0  1  0  0  0  0  0  0
  189.8640  174.4910  136.9000 O   0  0  0  0  0  0  0  0  0  0  0  0
  1 17  2  0  0  0  0
  2  9  1  0  0  0  0
  2 12  1  0  0  0  0
  3 18  1  6  0  0  0
  3  6  1  0  0  0  0
  4  7  1  6  0  0  0
  4 14  1  0  0  0  0
  4 19  1  0  0  0  0
  5 11  1  0  0  0  0
  6 16  1  0  0  0  0
  8 25  1  0  0  0  0
  9 29  1  6  0  0  0
  9 14  1  0  0  0  0
 10  7  1  0  0  0  0
 10 17  1  0  0  0  0
 12  5  1  0  0  0  0
 13 23  1  0  0  0  0
 13 20  2  0  0  0  0
 14 22  1  1  0  0  0
 16 15  2  0  0  0  0
 17  3  1  0  0  0  0
 19  6  2  0  0  0  0
 19 13  1  0  0  0  0
 20 15  1  0  0  0  0
 20  8  1  0  0  0  0
 21  8  2  0  0  0  0
 22 11  2  0  0  0  0
 22 23  1  0  0  0  0
 23 21  1  0  0  0  0
 25 24  2  0  0  0  0
 25 27  2  0  0  0  0
 25 26  1  0  0  0  0
 28 29  1  0  0  0  0
M  END
>  <MODEL>
3

>  <REMARK>
 VINA RESULT:      -6.9      4.577      7.675
  Name = 
  2 active torsions:
  status: ('A' for Active; 'I' for Inactive)
    1  A    between atoms: S_4  and  C_10
    2  A    between atoms: C_11  and  O_28
                            x       y       z     vdW  Elec       q    Type
                         _______ _______ _______ _____ _____    ______ ____

>  <TORSDO>
F 2

$$$$
=
 OpenBabel10232410203D

 29 33  0  0  1  0  0  0  0  0999 V2000
  184.0670  180.6620  139.0100 O   0  0  0  0  0  0  0  0  0  0  0  0
  189.2420  175.2010  136.7260 C   0  0  0  0  0  2  0  0  0  0  0  0
  184.5720  178.5340  139.9520 C   0  0  1  0  0  3  0  0  0  0  0  0
  187.4200  178.0930  138.5490 C   0  0  2  0  0  3  0  0  0  0  0  0
  191.3620  176.3900  137.4140 C   0  0  0  0  0  2  0  0  0  0  0  0
  185.8610  178.3040  140.6810 C   0  0  0  0  0  0  0  0  0  0  0  0
  186.2540  178.1250  137.5650 C   0  0  0  0  0  2  0  0  0  0  0  0
  189.4410  177.6180  142.6290 C   0  0  0  0  0  0  0  0  0  0  0  0
  188.3260  175.7070  137.8450 C   0  0  1  0  0  3  0  0  0  0  0  0
  185.4900  179.3480  137.7270 N   0  0  0  0  0  2  0  0  0  0  0  0
  191.0120  176.9130  138.7730 C   0  0  0  0  0  3  0  0  0  0  0  0
  190.6920  175.0390  137.1870 C   0  0  0  0  0  2  0  0  0  0  0  0
  188.1990  177.8380  140.8660 C   0  0  0  0  0  0  0  0  0  0  0  0
  188.6240  177.2000  138.1040 C   0  0  2  0  0  3  0  0  0  0  0  0
  186.9520  178.1200  142.8930 C   0  0  0  0  0  3  0  0  0  0  0  0
  185.8040  178.3300  142.1020 C   0  0  0  0  0  3  0  0  0  0  0  0
  184.6910  179.5770  138.8870 C   0  0  0  0  0  0  0  0  0  0  0  0
  184.0790  177.3490  139.4370 F   0  0  0  0  0  0  0  0  0  0  0  0
  187.1030  178.0190  140.0350 C   0  0  0  0  0  0  0  0  0  0  0  0
  188.1440  177.8860  142.2200 C   0  0  0  0  0  0  0  0  0  0  0  0
  190.2200  177.4150  141.5350 N   0  0  0  0  0  0  0  0  0  0  0  0
  189.7700  177.2920  139.1010 C   0  0  0  0  0  0  0  0  0  0  0  0
  189.4420  177.5670  140.4680 N   0  0  0  0  0  0  0  0  0  0  0  0
  190.3170  178.8630  144.8170 O   0  0  0  0  0  0  0  0  0  0  0  0
  190.0070  177.4920  144.2860 S   0  0  0  0  0  0  0  0  0  0  0  0
  191.4740  176.4930  144.3420 C   0  0  0  0  0  1  0  0  0  0  0  0
  188.9470  176.8460  145.1330 O   0  0  0  0  0  0  0  0  0  0  0  0
  186.9880  174.1890  136.9390 C   0  0  0  0  0  1  0  0  0  0  0  0
  186.9950  175.4730  137.4870 O   0  0  0  0  0  0  0  0  0  0  0  0
  2 12  1  0  0  0  0
  2  9  1  0  0  0  0
  3 18  1  6  0  0  0
  3  6  1  0  0  0  0
  4  7  1  6  0  0  0
  4 19  1  0  0  0  0
  5 11  1  0  0  0  0
  6 16  1  0  0  0  0
  7 10  1  0  0  0  0
  8 25  1  0  0  0  0
  9 29  1  6  0  0  0
  9 14  1  0  0  0  0
 10 17  1  0  0  0  0
 11 22  2  0  0  0  0
 12  5  1  0  0  0  0
 13 20  2  0  0  0  0
 14  4  1  0  0  0  0
 14 22  1  1  0  0  0
 16 15  2  0  0  0  0
 17  1  2  0  0  0  0
 17  3  1  0  0  0  0
 19  6  2  0  0  0  0
 19 13  1  0  0  0  0
 20  8  1  0  0  0  0
 20 15  1  0  0  0  0
 21  8  2  0  0  0  0
 22 23  1  0  0  0  0
 23 13  1  0  0  0  0
 23 21  1  0  0  0  0
 25 26  1  0  0  0  0
 25 24  2  0  0  0  0
 25 27  2  0  0  0  0
 28 29  1  0  0  0  0
M  END
>  <MODEL>
4

>  <REMARK>
 VINA RESULT:      -6.6      3.261      6.793
  Name = 
  2 active torsions:
  status: ('A' for Active; 'I' for Inactive)
    1  A    between atoms: S_4  and  C_10
    2  A    between atoms: C_11  and  O_28
                            x       y       z     vdW  Elec       q    Type
                         _______ _______ _______ _____ _____    ______ ____

>  <TORSDO>
F 2

$$$$
=
 OpenBabel10232410203D

 29 33  0  0  1  0  0  0  0  0999 V2000
  179.9830  181.3610  140.2520 O   0  0  0  0  0  0  0  0  0  0  0  0
  185.5210  176.8450  136.9710 C   0  0  0  0  0  2  0  0  0  0  0  0
  180.7360  179.1790  140.8420 C   0  0  1  0  0  3  0  0  0  0  0  0
  183.5340  179.2380  139.2790 C   0  0  2  0  0  3  0  0  0  0  0  0
  187.5530  178.1280  137.7500 C   0  0  0  0  0  2  0  0  0  0  0  0
  182.0780  178.9760  141.4780 C   0  0  0  0  0  0  0  0  0  0  0  0
  182.3200  179.2970  138.3570 C   0  0  0  0  0  2  0  0  0  0  0  0
  185.8050  178.3770  143.1600 C   0  0  0  0  0  0  0  0  0  0  0  0
  184.6220  177.0860  138.1880 C   0  0  1  0  0  3  0  0  0  0  0  0
  181.4530  180.3990  138.7320 N   0  0  0  0  0  2  0  0  0  0  0  0
  187.2280  178.4070  139.1840 C   0  0  0  0  0  3  0  0  0  0  0  0
  187.0020  176.7630  137.3470 C   0  0  0  0  0  2  0  0  0  0  0  0
  184.4560  178.7270  141.4990 C   0  0  0  0  0  0  0  0  0  0  0  0
  184.7920  178.5470  138.6590 C   0  0  2  0  0  3  0  0  0  0  0  0
  183.2970  178.5810  143.5930 C   0  0  0  0  0  3  0  0  0  0  0  0
  182.0940  178.7880  142.8870 C   0  0  0  0  0  3  0  0  0  0  0  0
  180.6990  180.3730  139.9430 C   0  0  0  0  0  0  0  0  0  0  0  0
  180.3300  178.0390  140.1730 F   0  0  0  0  0  0  0  0  0  0  0  0
  183.3050  178.9160  140.7490 C   0  0  0  0  0  0  0  0  0  0  0  0
  184.4690  178.5690  142.8460 C   0  0  0  0  0  0  0  0  0  0  0  0
  186.5410  178.4170  142.0190 N   0  0  0  0  0  0  0  0  0  0  0  0
  185.9750  178.6070  139.6130 C   0  0  0  0  0  0  0  0  0  0  0  0
  185.6960  178.6440  141.0180 N   0  0  0  0  0  0  0  0  0  0  0  0
  186.0320  179.1510  145.7000 O   0  0  0  0  0  0  0  0  0  0  0  0
  186.4680  178.0670  144.7560 S   0  0  0  0  0  0  0  0  0  0  0  0
  188.2410  178.0380  144.6710 C   0  0  0  0  0  1  0  0  0  0  0  0
  185.9830  176.7340  145.2530 O   0  0  0  0  0  0  0  0  0  0  0  0
  183.0190  175.5960  138.5440 C   0  0  0  0  0  1  0  0  0  0  0  0
  183.3020  176.7740  137.8500 O   0  0  0  0  0  0  0  0  0  0  0  0
  2 12  1  0  0  0  0
  2  9  1  0  0  0  0
  3 18  1  6  0  0  0
  3  6  1  0  0  0  0
  4  7  1  6  0  0  0
  4 19  1  0  0  0  0
  5 11  1  0  0  0  0
  6 16  1  0  0  0  0
  7 10  1  0  0  0  0
  8 25  1  0  0  0  0
  9 29  1  6  0  0  0
  9 14  1  0  0  0  0
 10 17  1  0  0  0  0
 11 22  2  0  0  0  0
 12  5  1  0  0  0  0
 13 20  2  0  0  0  0
 14  4  1  0  0  0  0
 14 22  1  1  0  0  0
 16 15  2  0  0  0  0
 17  1  2  0  0  0  0
 17  3  1  0  0  0  0
 19  6  2  0  0  0  0
 19 13  1  0  0  0  0
 20  8  1  0  0  0  0
 20 15  1  0  0  0  0
 21  8  2  0  0  0  0
 22 23  1  0  0  0  0
 23 13  1  0  0  0  0
 23 21  1  0  0  0  0
 25 27  2  0  0  0  0
 25 24  2  0  0  0  0
 26 25  1  0  0  0  0
 29 28  1  0  0  0  0
M  END
>  <MODEL>
5

>  <REMARK>
 VINA RESULT:      -6.5      2.953      6.422
  Name = 
  2 active torsions:
  status: ('A' for Active; 'I' for Inactive)
    1  A    between atoms: S_4  and  C_10
    2  A    between atoms: C_11  and  O_28
                            x       y       z     vdW  Elec       q    Type
                         _______ _______ _______ _____ _____    ______ ____

>  <TORSDO>
F 2

$$$$
=
 OpenBabel10232410203D

 29 33  0  0  1  0  0  0  0  0999 V2000
  191.4940  174.6360  148.2260 O   0  0  0  0  0  0  0  0  0  0  0  0
  191.4550  177.8030  141.0290 C   0  0  0  0  0  2  0  0  0  0  0  0
  191.0330  176.8670  147.5300 C   0  0  1  0  0  3  0  0  0  0  0  0
  190.4560  176.2580  144.4370 C   0  0  2  0  0  3  0  0  0  0  0  0
  189.3360  176.7340  140.1660 C   0  0  0  0  0  2  0  0  0  0  0  0
  189.7590  177.2010  146.8140 C   0  0  0  0  0  0  0  0  0  0  0  0
  191.8950  175.9750  144.8550 C   0  0  0  0  0  2  0  0  0  0  0  0
  186.2930  178.1350  144.7670 C   0  0  0  0  0  0  0  0  0  0  0  0
  191.0480  177.9600  142.4980 C   0  0  1  0  0  3  0  0  0  0  0  0
  191.9240  175.0610  145.9830 N   0  0  0  0  0  2  0  0  0  0  0  0
  188.3980  176.8960  141.3220 C   0  0  0  0  0  3  0  0  0  0  0  0
  190.2660  177.9400  140.0760 C   0  0  0  0  0  2  0  0  0  0  0  0
  188.3130  177.3630  144.9160 C   0  0  0  0  0  0  0  0  0  0  0  0
  190.2840  176.6940  142.9450 C   0  0  2  0  0  3  0  0  0  0  0  0
  187.4870  178.1530  147.0230 C   0  0  0  0  0  3  0  0  0  0  0  0
  188.7260  177.7910  147.5910 C   0  0  0  0  0  3  0  0  0  0  0  0
  191.4860  175.4650  147.2790 C   0  0  0  0  0  0  0  0  0  0  0  0
  192.0270  177.7770  147.2170 F   0  0  0  0  0  0  0  0  0  0  0  0
  189.5570  177.0030  145.4130 C   0  0  0  0  0  0  0  0  0  0  0  0
  187.3220  177.9050  145.6660 C   0  0  0  0  0  0  0  0  0  0  0  0
  186.6870  177.7380  143.5290 N   0  0  0  0  0  0  0  0  0  0  0  0
  188.8140  176.8740  142.5950 C   0  0  0  0  0  0  0  0  0  0  0  0
  187.9220  177.2580  143.6470 N   0  0  0  0  0  0  0  0  0  0  0  0
  184.2360  178.3690  146.4450 O   0  0  0  0  0  0  0  0  0  0  0  0
  184.7410  178.8730  145.1240 S   0  0  0  0  0  0  0  0  0  0  0  0
  183.5750  178.4580  143.8500 C   0  0  0  0  0  1  0  0  0  0  0  0
  184.8930  180.3670  145.1740 O   0  0  0  0  0  0  0  0  0  0  0  0
  191.8940  179.3570  143.9960 C   0  0  0  0  0  1  0  0  0  0  0  0
  192.1890  178.2050  143.2650 O   0  0  0  0  0  0  0  0  0  0  0  0
  2  9  1  0  0  0  0
  3 18  1  6  0  0  0
  4  7  1  1  0  0  0
  4 19  1  0  0  0  0
  5 11  1  0  0  0  0
  6  3  1  0  0  0  0
  6 16  1  0  0  0  0
  7 10  1  0  0  0  0
  8 25  1  0  0  0  0
  8 20  1  0  0  0  0
  9 14  1  0  0  0  0
  9 29  1  1  0  0  0
 10 17  1  0  0  0  0
 11 22  2  0  0  0  0
 12  5  1  0  0  0  0
 12  2  1  0  0  0  0
 13 19  1  0  0  0  0
 13 20  2  0  0  0  0
 14 22  1  1  0  0  0
 14  4  1  0  0  0  0
 15 16  2  0  0  0  0
 17  3  1  0  0  0  0
 17  1  2  0  0  0  0
 19  6  2  0  0  0  0
 20 15  1  0  0  0  0
 21 23  1  0  0  0  0
 21  8  2  0  0  0  0
 22 23  1  0  0  0  0
 23 13  1  0  0  0  0
 25 27  2  0  0  0  0
 25 24  2  0  0  0  0
 26 25  1  0  0  0  0
 29 28  1  0  0  0  0
M  END
>  <MODEL>
6

>  <REMARK>
 VINA RESULT:      -6.4      4.323      7.094
  Name = 
  2 active torsions:
  status: ('A' for Active; 'I' for Inactive)
    1  A    between atoms: S_4  and  C_10
    2  A    between atoms: C_11  and  O_28
                            x       y       z     vdW  Elec       q    Type
                         _______ _______ _______ _____ _____    ______ ____

>  <TORSDO>
F 2

$$$$
=
 OpenBabel10232410203D

 29 33  0  0  1  0  0  0  0  0999 V2000
  183.1380  178.0160  144.9650 O   0  0  0  0  0  0  0  0  0  0  0  0
  190.8930  177.0260  145.8080 C   0  0  0  0  0  2  0  0  0  0  0  0
  184.9500  179.3800  144.2370 C   0  0  1  0  0  3  0  0  0  0  0  0
  187.2720  177.1790  144.4420 C   0  0  2  0  0  3  0  0  0  0  0  0
  191.2050  175.1370  144.1610 C   0  0  0  0  0  2  0  0  0  0  0  0
  185.8260  178.9490  143.0990 C   0  0  0  0  0  0  0  0  0  0  0  0
  186.6610  177.5490  145.7900 C   0  0  0  0  0  2  0  0  0  0  0  0
  188.3060  177.7500  140.0190 C   0  0  0  0  0  0  0  0  0  0  0  0
  189.7700  177.7760  145.0830 C   0  0  1  0  0  3  0  0  0  0  0  0
  185.2210  177.3660  145.7600 N   0  0  0  0  0  2  0  0  0  0  0  0
  190.3880  175.5910  142.9910 C   0  0  0  0  0  3  0  0  0  0  0  0
  191.8560  176.3390  144.8390 C   0  0  0  0  0  2  0  0  0  0  0  0
  187.6180  177.7420  142.0740 C   0  0  0  0  0  0  0  0  0  0  0  0
  188.7730  176.7490  144.5020 C   0  0  2  0  0  3  0  0  0  0  0  0
  186.3280  179.2160  140.6930 C   0  0  0  0  0  3  0  0  0  0  0  0
  185.5640  179.5400  141.8330 C   0  0  0  0  0  3  0  0  0  0  0  0
  184.3790  178.2250  144.9940 C   0  0  0  0  0  0  0  0  0  0  0  0
  185.6260  180.2440  145.0790 F   0  0  0  0  0  0  0  0  0  0  0  0
  186.9140  178.0330  143.2340 C   0  0  0  0  0  0  0  0  0  0  0  0
  187.3500  178.2910  140.8640 C   0  0  0  0  0  0  0  0  0  0  0  0
  189.1080  176.9150  140.7300 N   0  0  0  0  0  0  0  0  0  0  0  0
  189.2740  176.3200  143.1310 C   0  0  0  0  0  0  0  0  0  0  0  0
  188.6600  176.9160  141.9820 N   0  0  0  0  0  0  0  0  0  0  0  0
  187.2290  177.8560  137.5840 O   0  0  0  0  0  0  0  0  0  0  0  0
  188.5160  178.1110  138.3140 S   0  0  0  0  0  0  0  0  0  0  0  0
  189.7930  177.0780  137.6370 C   0  0  0  0  0  1  0  0  0  0  0  0
  188.9180  179.5500  138.1490 O   0  0  0  0  0  0  0  0  0  0  0  0
  189.4400  178.1580  147.2410 C   0  0  0  0  0  1  0  0  0  0  0  0
  189.1700  178.6720  145.9710 O   0  0  0  0  0  0  0  0  0  0  0  0
  1 17  2  0  0  0  0
  3 17  1  0  0  0  0
  3 18  1  1  0  0  0
  4 14  1  0  0  0  0
  4  7  1  1  0  0  0
  5 12  1  0  0  0  0
  6 19  1  0  0  0  0
  6  3  1  0  0  0  0
  8 21  2  0  0  0  0
  8 20  1  0  0  0  0
  9  2  1  0  0  0  0
  9 29  1  1  0  0  0
 10  7  1  0  0  0  0
 11 22  2  0  0  0  0
 11  5  1  0  0  0  0
 12  2  1  0  0  0  0
 13 19  2  0  0  0  0
 14 22  1  6  0  0  0
 14  9  1  0  0  0  0
 15 20  2  0  0  0  0
 15 16  1  0  0  0  0
 16  6  2  0  0  0  0
 17 10  1  0  0  0  0
 19  4  1  0  0  0  0
 20 13  1  0  0  0  0
 21 23  1  0  0  0  0
 23 13  1  0  0  0  0
 23 22  1  0  0  0  0
 24 25  2  0  0  0  0
 25  8  1  0  0  0  0
 26 25  1  0  0  0  0
 27 25  2  0  0  0  0
 29 28  1  0  0  0  0
M  END
>  <MODEL>
7

>  <REMARK>
 VINA RESULT:      -6.4      3.572      6.079
  Name = 
  2 active torsions:
  status: ('A' for Active; 'I' for Inactive)
    1  A    between atoms: S_4  and  C_10
    2  A    between atoms: C_11  and  O_28
                            x       y       z     vdW  Elec       q    Type
                         _______ _______ _______ _____ _____    ______ ____

>  <TORSDO>
F 2

$$$$
=
 OpenBabel10232410203D

 29 33  0  0  1  0  0  0  0  0999 V2000
  179.9820  181.0870  143.2840 O   0  0  0  0  0  0  0  0  0  0  0  0
  182.9780  176.5470  137.6060 C   0  0  0  0  0  2  0  0  0  0  0  0
  180.9360  178.9080  143.4010 C   0  0  1  0  0  3  0  0  0  0  0  0
  182.4960  178.9550  140.6020 C   0  0  2  0  0  3  0  0  0  0  0  0
  185.1130  177.8310  137.1940 C   0  0  0  0  0  2  0  0  0  0  0  0
  182.4120  178.7060  143.2390 C   0  0  0  0  0  0  0  0  0  0  0  0
  180.9780  179.0100  140.4550 C   0  0  0  0  0  2  0  0  0  0  0  0
  186.4680  178.1110  142.7150 C   0  0  0  0  0  0  0  0  0  0  0  0
  182.8510  176.7950  139.1130 C   0  0  1  0  0  3  0  0  0  0  0  0
  180.4360  180.1160  141.2230 N   0  0  0  0  0  2  0  0  0  0  0  0
  185.5900  178.1190  138.5850 C   0  0  0  0  0  3  0  0  0  0  0  0
  184.4350  176.4650  137.1490 C   0  0  0  0  0  2  0  0  0  0  0  0
  184.4480  178.4540  142.0090 C   0  0  0  0  0  0  0  0  0  0  0  0
  183.2410  178.2580  139.4170 C   0  0  2  0  0  3  0  0  0  0  0  0
  184.5610  178.3210  144.3990 C   0  0  0  0  0  3  0  0  0  0  0  0
  183.1670  178.5250  144.4300 C   0  0  0  0  0  3  0  0  0  0  0  0
  180.4310  180.0970  142.6500 C   0  0  0  0  0  0  0  0  0  0  0  0
  180.2410  177.7640  143.0520 F   0  0  0  0  0  0  0  0  0  0  0  0
  183.0740  178.6410  141.9740 C   0  0  0  0  0  0  0  0  0  0  0  0
  185.1660  178.3040  143.1490 C   0  0  0  0  0  0  0  0  0  0  0  0
  186.4950  178.1440  141.3570 N   0  0  0  0  0  0  0  0  0  0  0  0
  184.7490  178.3220  139.6060 C   0  0  0  0  0  0  0  0  0  0  0  0
  185.2490  178.3670  140.9480 N   0  0  0  0  0  0  0  0  0  0  0  0
  187.6230  178.3510  145.1050 O   0  0  0  0  0  0  0  0  0  0  0  0
  187.8710  177.8090  143.7260 S   0  0  0  0  0  0  0  0  0  0  0  0
  189.2950  178.6080  143.0270 C   0  0  0  0  0  1  0  0  0  0  0  0
  188.1310  176.3310  143.8000 O   0  0  0  0  0  0  0  0  0  0  0  0
  181.1650  175.4130  138.7110 C   0  0  0  0  0  1  0  0  0  0  0  0
  181.5520  176.4830  139.5210 O   0  0  0  0  0  0  0  0  0  0  0  0
  2  9  1  0  0  0  0
  3 18  1  6  0  0  0
  4  7  1  1  0  0  0
  4 19  1  0  0  0  0
  5 11  1  0  0  0  0
  6  3  1  0  0  0  0
  6 16  1  0  0  0  0
  7 10  1  0  0  0  0
  8 20  1  0  0  0  0
  8 25  1  0  0  0  0
  9 14  1  0  0  0  0
  9 29  1  6  0  0  0
 10 17  1  0  0  0  0
 11 22  2  0  0  0  0
 12  5  1  0  0  0  0
 12  2  1  0  0  0  0
 13 20  2  0  0  0  0
 14 22  1  1  0  0  0
 14  4  1  0  0  0  0
 15 16  2  0  0  0  0
 17  1  2  0  0  0  0
 17  3  1  0  0  0  0
 19 13  1  0  0  0  0
 19  6  2  0  0  0  0
 20 15  1  0  0  0  0
 21  8  2  0  0  0  0
 22 23  1  0  0  0  0
 23 21  1  0  0  0  0
 23 13  1  0  0  0  0
 25 27  2  0  0  0  0
 25 24  2  0  0  0  0
 26 25  1  0  0  0  0
 28 29  1  0  0  0  0
M  END
>  <MODEL>
8

>  <REMARK>
 VINA RESULT:      -6.3      3.156      7.085
  Name = 
  2 active torsions:
  status: ('A' for Active; 'I' for Inactive)
    1  A    between atoms: S_4  and  C_10
    2  A    between atoms: C_11  and  O_28
                            x       y       z     vdW  Elec       q    Type
                         _______ _______ _______ _____ _____    ______ ____

>  <TORSDO>
F 2

$$$$
=
 OpenBabel10232410203D

 29 33  0  0  1  0  0  0  0  0999 V2000
  181.6830  180.2260  140.4930 O   0  0  0  0  0  0  0  0  0  0  0  0
  187.0510  176.5440  136.0810 C   0  0  0  0  0  2  0  0  0  0  0  0
  182.8610  178.1930  140.8830 C   0  0  1  0  0  3  0  0  0  0  0  0
  185.2390  178.6470  138.7820 C   0  0  2  0  0  3  0  0  0  0  0  0
  188.9810  178.1310  136.4470 C   0  0  0  0  0  2  0  0  0  0  0  0
  184.3200  178.2040  141.2280 C   0  0  0  0  0  0  0  0  0  0  0  0
  183.8680  178.5070  138.1290 C   0  0  0  0  0  2  0  0  0  0  0  0
  188.3580  178.2010  142.1040 C   0  0  0  0  0  0  0  0  0  0  0  0
  186.3930  176.6660  137.4600 C   0  0  1  0  0  3  0  0  0  0  0  0
  182.9390  179.4720  138.6900 N   0  0  0  0  0  2  0  0  0  0  0  0
  188.9180  178.3810  137.9220 C   0  0  0  0  0  3  0  0  0  0  0  0
  188.5720  176.6930  136.1450 C   0  0  0  0  0  2  0  0  0  0  0  0
  186.6620  178.3170  140.7590 C   0  0  0  0  0  0  0  0  0  0  0  0
  186.4330  178.1430  137.9080 C   0  0  2  0  0  3  0  0  0  0  0  0
  185.9900  178.0320  143.0430 C   0  0  0  0  0  3  0  0  0  0  0  0
  184.6510  178.0430  142.6010 C   0  0  0  0  0  3  0  0  0  0  0  0
  182.4620  179.3520  140.0290 C   0  0  0  0  0  0  0  0  0  0  0  0
  182.5040  176.9930  140.2940 F   0  0  0  0  0  0  0  0  0  0  0  0
  185.3670  178.3180  140.2630 C   0  0  0  0  0  0  0  0  0  0  0  0
  186.9730  178.1850  142.0730 C   0  0  0  0  0  0  0  0  0  0  0  0
  188.8310  178.3330  140.8370 N   0  0  0  0  0  0  0  0  0  0  0  0
  187.7630  178.3960  138.6010 C   0  0  0  0  0  0  0  0  0  0  0  0
  187.7750  178.4140  140.0330 N   0  0  0  0  0  0  0  0  0  0  0  0
  190.3660  179.1460  143.5810 O   0  0  0  0  0  0  0  0  0  0  0  0
  189.3720  178.0210  143.5260 S   0  0  0  0  0  0  0  0  0  0  0  0
  190.2380  176.4720  143.4490 C   0  0  0  0  0  1  0  0  0  0  0  0
  188.5160  178.0370  144.7610 O   0  0  0  0  0  0  0  0  0  0  0  0
  185.0280  175.4920  136.1660 C   0  0  0  0  0  1  0  0  0  0  0  0
  185.0940  176.1530  137.3940 O   0  0  0  0  0  0  0  0  0  0  0  0
  2 12  1  0  0  0  0
  2  9  1  0  0  0  0
  3 18  1  6  0  0  0
  3  6  1  0  0  0  0
  4  7  1  6  0  0  0
  4 19  1  0  0  0  0
  5 11  1  0  0  0  0
  6 16  1  0  0  0  0
  7 10  1  0  0  0  0
  8 25  1  0  0  0  0
  9 29  1  6  0  0  0
  9 14  1  0  0  0  0
 10 17  1  0  0  0  0
 11 22  2  0  0  0  0
 12  5  1  0  0  0  0
 13 20  2  0  0  0  0
 14 22  1  1  0  0  0
 14  4  1  0  0  0  0
 16 15  2  0  0  0  0
 17  1  2  0  0  0  0
 17  3  1  0  0  0  0
 19 13  1  0  0  0  0
 19  6  2  0  0  0  0
 20  8  1  0  0  0  0
 20 15  1  0  0  0  0
 21  8  2  0  0  0  0
 22 23  1  0  0  0  0
 23 13  1  0  0  0  0
 23 21  1  0  0  0  0
 25 24  2  0  0  0  0
 25 27  2  0  0  0  0
 26 25  1  0  0  0  0
 28 29  1  0  0  0  0
M  END
>  <MODEL>
9

>  <REMARK>
 VINA RESULT:      -6.3      2.827      6.727
  Name = 
  2 active torsions:
  status: ('A' for Active; 'I' for Inactive)
    1  A    between atoms: S_4  and  C_10
    2  A    between atoms: C_11  and  O_28
                            x       y       z     vdW  Elec       q    Type
                         _______ _______ _______ _____ _____    ______ ____

>  <TORSDO>
F 2

$$$$
