=
 OpenBabel10232409273D

 53 60  0  0  1  0  0  0  0  0999 V2000
  184.1020  177.1160  137.5700 C   0  0  0  0  0  0  0  0  0  0  0  0
  182.8780  177.7510  140.2380 C   0  0  0  0  0  0  0  0  0  0  0  0
  184.6870  177.9880  138.4470 C   0  0  0  0  0  0  0  0  0  0  0  0
  182.2640  176.9060  139.2390 C   0  0  0  0  0  0  0  0  0  0  0  0
  185.2100  178.9260  139.3840 C   0  0  0  0  0  2  0  0  0  0  0  0
  182.8660  176.6700  138.0050 N   0  0  0  0  0  0  0  0  0  0  0  0
  184.0500  178.2580  139.7190 C   0  0  0  0  0  0  0  0  0  0  0  0
  184.3440  176.2930  135.3060 N   0  0  0  0  0  0  0  0  0  0  0  0
  186.2310  175.2280  135.3690 N   0  0  0  0  0  0  0  0  0  0  0  0
  186.0120  175.6860  136.6650 C   0  0  0  0  0  3  0  0  0  0  0  0
  184.8190  176.3600  136.5800 C   0  0  0  0  0  0  0  0  0  0  0  0
  185.2530  175.6090  134.6370 N   0  0  0  0  0  0  0  0  0  0  0  0
  187.5230  175.1000  134.8860 N   0  0  0  0  0  2  0  0  0  0  0  0
  188.6600  173.9380  135.4630 S   0  0  0  0  0  0  0  0  0  0  0  0
  187.9780  172.6970  135.9940 O   0  0  0  0  0  0  0  0  0  0  0  0
  189.6280  173.6150  134.3530 O   0  0  0  0  0  0  0  0  0  0  0  0
  191.4050  174.2220  136.9860 N   0  0  0  0  0  0  0  0  0  0  0  0
  189.5010  174.7960  136.8260 C   0  0  2  0  0  3  0  0  0  0  0  0
  191.1050  176.4140  135.7710 O   0  0  0  0  0  0  0  0  0  0  0  0
  190.7680  175.3820  136.3270 C   0  0  0  0  0  0  0  0  0  0  0  0
  190.2340  173.9630  137.6250 O   0  0  0  0  0  0  0  0  0  0  0  0
  192.4650  172.3570  135.4530 S   0  0  0  0  0  0  0  0  0  0  0  0
  192.5810  173.4810  136.6290 C   0  0  0  0  0  0  0  0  0  0  0  0
  193.9110  173.8830  137.1680 C   0  0  0  0  0  2  0  0  0  0  0  0
  194.5530  175.0030  136.3460 C   0  0  0  0  0  2  0  0  0  0  0  0
  196.3830  174.0880  137.4900 C   0  0  0  0  0  1  0  0  0  0  0  0
  196.7550  175.2810  135.5430 C   0  0  0  0  0  1  0  0  0  0  0  0
  195.9370  175.2550  136.7490 N   0  0  0  0  0  0  0  0  0  0  0  0
  181.2530  175.9190  139.6190 C   0  0  2  0  0  3  0  0  0  0  0  0
  181.2990  174.8890  138.5880 C   0  0  0  0  0  2  0  0  0  0  0  0
  180.1550  175.8120  138.6800 N   0  0  0  0  0  2  0  0  0  0  0  0
  182.5080  178.0270  141.6940 C   0  0  0  0  0  2  0  0  0  0  0  0
  183.3910  179.0800  142.3740 C   0  0  0  0  0  2  0  0  0  0  0  0
  184.3900  178.5990  143.4300 C   0  0  2  0  0  3  0  0  0  0  0  0
  186.4440  177.1820  143.5460 C   0  0  0  0  0  2  0  0  0  0  0  0
  184.4650  179.4280  144.7040 C   0  0  0  0  0  2  0  0  0  0  0  0
  186.4450  178.3600  145.8940 C   0  0  0  0  0  2  0  0  0  0  0  0
  184.9150  178.4120  145.7700 C   0  0  0  0  0  2  0  0  0  0  0  0
  187.1700  177.4940  144.8360 C   0  0  2  0  0  3  0  0  0  0  0  0
  185.7630  178.3150  142.7870 C   0  0  0  0  0  2  0  0  0  0  0  0
  191.9250  176.7110  146.6610 N   0  0  0  0  0  1  0  0  0  0  0  0
  190.7780  178.7140  143.6280 C   0  0  0  0  0  2  0  0  0  0  0  0
  191.4810  178.3380  144.9630 C   0  0  0  0  0  2  0  0  0  0  0  0
  188.7070  177.7540  144.7540 C   0  0  2  0  0  3  0  0  0  0  0  0
  189.3930  178.0870  143.4000 C   0  0  2  0  0  3  0  0  0  0  0  0
  191.0940  176.9880  145.4780 C   0  0  2  0  0  3  0  0  0  0  0  0
  189.5350  176.8990  145.7490 C   0  0  0  0  0  2  0  0  0  0  0  0
  190.6950  176.6780  140.0090 S   0  0  0  0  0  0  0  0  0  0  0  0
  189.3970  177.2350  141.0820 C   0  0  0  0  0  0  0  0  0  0  0  0
  190.0980  177.8850  138.8020 C   0  0  0  0  0  2  0  0  0  0  0  0
  189.4790  176.9570  142.4750 N   0  0  0  0  0  2  0  0  0  0  0  0
  188.6550  178.2380  139.1470 C   0  0  0  0  0  2  0  0  0  0  0  0
  188.4910  178.0140  140.5790 N   0  0  0  0  0  0  0  0  0  0  0  0
  1  6  2  0  0  0  0
  1  3  1  0  0  0  0
  2 32  1  0  0  0  0
  3  5  1  0  0  0  0
  3  7  2  0  0  0  0
  4  2  2  0  0  0  0
  5  7  1  0  0  0  0
  6  4  1  0  0  0  0
  7  2  1  0  0  0  0
  8 11  1  0  0  0  0
  9 10  1  0  0  0  0
 11 10  2  0  0  0  0
 11  1  1  0  0  0  0
 12  8  2  0  0  0  0
 12  9  1  0  0  0  0
 13  9  1  0  0  0  0
 13 14  1  0  0  0  0
 14 15  2  0  0  0  0
 16 14  2  0  0  0  0
 17 21  1  0  0  0  0
 18 14  1  6  0  0  0
 18 21  1  0  0  0  0
 19 20  2  0  0  0  0
 20 18  1  0  0  0  0
 20 17  1  0  0  0  0
 22 23  2  0  0  0  0
 23 17  1  0  0  0  0
 23 24  1  0  0  0  0
 25 28  1  0  0  0  0
 25 24  1  0  0  0  0
 27 28  1  0  0  0  0
 28 26  1  0  0  0  0
 29  4  1  6  0  0  0
 30 31  1  0  0  0  0
 30 29  1  0  0  0  0
 31 29  1  0  0  0  0
 32 33  1  0  0  0  0
 34 33  1  6  0  0  0
 34 36  1  0  0  0  0
 36 38  1  0  0  0  0
 38 37  1  0  0  0  0
 39 35  1  6  0  0  0
 39 37  1  0  0  0  0
 40 34  1  0  0  0  0
 40 35  1  0  0  0  0
 42 43  1  0  0  0  0
 43 46  1  0  0  0  0
 44 39  1  0  0  0  0
 44 47  1  6  0  0  0
 45 51  1  6  0  0  0
 45 42  1  0  0  0  0
 45 44  1  0  0  0  0
 46 47  1  0  0  0  0
 46 41  1  1  0  0  0
 48 49  1  0  0  0  0
 49 51  1  0  0  0  0
 50 52  1  0  0  0  0
 50 48  1  0  0  0  0
 52 53  1  0  0  0  0
 53 49  2  0  0  0  0
M  END
>  <MODEL>
1

>  <REMARK>
 VINA RESULT:      -8.6      0.000      0.000
  Name = 
  14 active torsions:
  status: ('A' for Active; 'I' for Inactive)
    1  A    between atoms: C_3  and  C_35
    2  A    between atoms: C_4  and  C_24
    3  A    between atoms: C_5  and  C_24
    4  A    between atoms: C_5  and  C_26
    5  A    between atoms: N_6  and  N_10
    6  A    between atoms: S_9  and  N_10
    7  A    between atoms: S_9  and  C_31
    8  A    between atoms: C_13  and  C_28
    9  A    between atoms: C_17  and  C_51
   10  A    between atoms: N_19  and  C_30
   11  A    between atoms: N_27  and  C_33
   12  A    between atoms: C_33  and  C_40
   13  A    between atoms: C_40  and  C_47
   14  A    between atoms: N_46  and  C_47
                            x       y       z     vdW  Elec       q    Type
                         _______ _______ _______ _____ _____    ______ ____

>  <TORSDO>
F 14

$$$$
=
 OpenBabel10232409273D

 53 60  0  0  1  0  0  0  0  0999 V2000
  187.9230  178.0510  138.1780 C   0  0  0  0  0  0  0  0  0  0  0  0
  188.9870  176.2060  136.0600 C   0  0  0  0  0  0  0  0  0  0  0  0
  187.3580  177.9730  136.9340 C   0  0  0  0  0  0  0  0  0  0  0  0
  189.5940  176.3930  137.3580 C   0  0  0  0  0  0  0  0  0  0  0  0
  186.8560  177.8800  135.6040 C   0  0  0  0  0  2  0  0  0  0  0  0
  189.0720  177.2850  138.2920 N   0  0  0  0  0  0  0  0  0  0  0  0
  187.9150  177.0660  135.9520 C   0  0  0  0  0  0  0  0  0  0  0  0
  185.9370  178.9050  139.2680 N   0  0  0  0  0  0  0  0  0  0  0  0
  186.4630  178.8390  141.3700 N   0  0  0  0  0  0  0  0  0  0  0  0
  187.5920  178.4010  140.6840 C   0  0  0  0  0  3  0  0  0  0  0  0
  187.2170  178.4480  139.3650 C   0  0  0  0  0  0  0  0  0  0  0  0
  185.5500  179.1050  140.5130 N   0  0  0  0  0  0  0  0  0  0  0  0
  186.1830  178.3460  142.6340 N   0  0  0  0  0  2  0  0  0  0  0  0
  184.9670  178.9880  143.6740 S   0  0  0  0  0  0  0  0  0  0  0  0
  185.2750  180.4090  144.0940 O   0  0  0  0  0  0  0  0  0  0  0  0
  183.6320  178.8850  142.9810 O   0  0  0  0  0  0  0  0  0  0  0  0
  186.8940  177.6690  145.7910 N   0  0  0  0  0  0  0  0  0  0  0  0
  185.0260  177.9020  145.1300 C   0  0  2  0  0  3  0  0  0  0  0  0
  185.5610  179.3710  147.0950 O   0  0  0  0  0  0  0  0  0  0  0  0
  185.7970  178.5700  146.2060 C   0  0  0  0  0  0  0  0  0  0  0  0
  186.0030  176.9490  145.0600 O   0  0  0  0  0  0  0  0  0  0  0  0
  189.1170  177.7510  147.2070 S   0  0  0  0  0  0  0  0  0  0  0  0
  188.3150  177.8730  145.7930 C   0  0  0  0  0  0  0  0  0  0  0  0
  189.0570  177.9780  144.5040 C   0  0  0  0  0  2  0  0  0  0  0  0
  190.2880  177.0690  144.4710 C   0  0  0  0  0  2  0  0  0  0  0  0
  190.9280  177.4920  142.2560 C   0  0  0  0  0  1  0  0  0  0  0  0
  191.4160  179.0580  143.8880 C   0  0  0  0  0  1  0  0  0  0  0  0
  191.3560  177.6230  143.6380 N   0  0  0  0  0  0  0  0  0  0  0  0
  190.4700  175.3670  137.9250 C   0  0  2  0  0  3  0  0  0  0  0  0
  191.4660  176.0880  138.7080 C   0  0  0  0  0  2  0  0  0  0  0  0
  191.8340  175.4300  137.4420 N   0  0  0  0  0  2  0  0  0  0  0  0
  189.2650  175.1930  134.9510 C   0  0  0  0  0  2  0  0  0  0  0  0
  188.0230  174.4270  134.4790 C   0  0  0  0  0  2  0  0  0  0  0  0
  186.9420  174.1130  135.5170 C   0  0  2  0  0  3  0  0  0  0  0  0
  184.6860  174.9590  136.1750 C   0  0  0  0  0  2  0  0  0  0  0  0
  186.9790  172.7150  136.1160 C   0  0  0  0  0  2  0  0  0  0  0  0
  184.8340  172.6860  137.4850 C   0  0  0  0  0  2  0  0  0  0  0  0
  186.3550  172.9030  137.5100 C   0  0  0  0  0  2  0  0  0  0  0  0
  183.9980  173.8970  137.0030 C   0  0  2  0  0  3  0  0  0  0  0  0
  185.5530  174.5330  134.9960 C   0  0  0  0  0  2  0  0  0  0  0  0
  180.4220  170.3590  135.8850 N   0  0  0  0  0  1  0  0  0  0  0  0
  180.0790  174.1370  136.2570 C   0  0  0  0  0  2  0  0  0  0  0  0
  179.9860  172.7020  135.6650 C   0  0  0  0  0  2  0  0  0  0  0  0
  182.5240  173.5370  136.6340 C   0  0  2  0  0  3  0  0  0  0  0  0
  181.3410  174.4410  137.0800 C   0  0  2  0  0  3  0  0  0  0  0  0
  180.7030  171.6750  136.4830 C   0  0  2  0  0  3  0  0  0  0  0  0
  182.2460  172.0110  136.6070 C   0  0  0  0  0  2  0  0  0  0  0  0
  180.0130  176.2710  140.2530 S   0  0  0  0  0  0  0  0  0  0  0  0
  181.3160  175.5600  139.2810 C   0  0  0  0  0  0  0  0  0  0  0  0
  180.9910  177.7920  140.2930 C   0  0  0  0  0  2  0  0  0  0  0  0
  181.0530  174.3920  138.5130 N   0  0  0  0  0  2  0  0  0  0  0  0
  182.4420  177.4400  139.9870 C   0  0  0  0  0  2  0  0  0  0  0  0
  182.4270  176.2220  139.1830 N   0  0  0  0  0  0  0  0  0  0  0  0
  1  6  1  0  0  0  0
  1 11  1  0  0  0  0
  2  4  1  0  0  0  0
  3  1  2  0  0  0  0
  4  6  2  0  0  0  0
  5  7  1  0  0  0  0
  5  3  1  0  0  0  0
  7  2  2  0  0  0  0
  7  3  1  0  0  0  0
  8 11  1  0  0  0  0
  8 12  2  0  0  0  0
  9 13  1  0  0  0  0
 10  9  1  0  0  0  0
 11 10  2  0  0  0  0
 12  9  1  0  0  0  0
 13 14  1  0  0  0  0
 14 15  2  0  0  0  0
 16 14  2  0  0  0  0
 17 23  1  0  0  0  0
 17 20  1  0  0  0  0
 18 14  1  6  0  0  0
 18 20  1  0  0  0  0
 20 19  2  0  0  0  0
 21 18  1  0  0  0  0
 21 17  1  0  0  0  0
 23 22  2  0  0  0  0
 24 23  1  0  0  0  0
 25 24  1  0  0  0  0
 26 28  1  0  0  0  0
 28 27  1  0  0  0  0
 28 25  1  0  0  0  0
 29  4  1  6  0  0  0
 29 30  1  0  0  0  0
 31 29  1  0  0  0  0
 31 30  1  0  0  0  0
 32  2  1  0  0  0  0
 33 32  1  0  0  0  0
 34 33  1  6  0  0  0
 34 36  1  0  0  0  0
 36 38  1  0  0  0  0
 37 38  1  0  0  0  0
 39 35  1  6  0  0  0
 39 37  1  0  0  0  0
 40 34  1  0  0  0  0
 40 35  1  0  0  0  0
 42 45  1  0  0  0  0
 43 42  1  0  0  0  0
 43 46  1  0  0  0  0
 44 47  1  1  0  0  0
 44 39  1  0  0  0  0
 44 45  1  0  0  0  0
 45 51  1  1  0  0  0
 46 41  1  6  0  0  0
 46 47  1  0  0  0  0
 48 50  1  0  0  0  0
 49 48  1  0  0  0  0
 51 49  1  0  0  0  0
 52 50  1  0  0  0  0
 53 49  2  0  0  0  0
 53 52  1  0  0  0  0
M  END
>  <MODEL>
2

>  <REMARK>
 VINA RESULT:      -7.8      4.525      9.844
  Name = 
  14 active torsions:
  status: ('A' for Active; 'I' for Inactive)
    1  A    between atoms: C_3  and  C_35
    2  A    between atoms: C_4  and  C_24
    3  A    between atoms: C_5  and  C_24
    4  A    between atoms: C_5  and  C_26
    5  A    between atoms: N_6  and  N_10
    6  A    between atoms: S_9  and  N_10
    7  A    between atoms: S_9  and  C_31
    8  A    between atoms: C_13  and  C_28
    9  A    between atoms: C_17  and  C_51
   10  A    between atoms: N_19  and  C_30
   11  A    between atoms: N_27  and  C_33
   12  A    between atoms: C_33  and  C_40
   13  A    between atoms: C_40  and  C_47
   14  A    between atoms: N_46  and  C_47
                            x       y       z     vdW  Elec       q    Type
                         _______ _______ _______ _____ _____    ______ ____

>  <TORSDO>
F 14

$$$$
=
 OpenBabel10232409273D

 53 60  0  0  1  0  0  0  0  0999 V2000
  182.1910  175.5930  138.4690 C   0  0  0  0  0  0  0  0  0  0  0  0
  183.5100  177.8390  139.9660 C   0  0  0  0  0  0  0  0  0  0  0  0
  181.6370  176.1370  139.5960 C   0  0  0  0  0  0  0  0  0  0  0  0
  184.0890  177.1700  138.8230 C   0  0  0  0  0  0  0  0  0  0  0  0
  181.1470  176.7130  140.8030 C   0  0  0  0  0  2  0  0  0  0  0  0
  183.4430  176.1130  138.1850 N   0  0  0  0  0  0  0  0  0  0  0  0
  182.3190  177.2170  140.2770 C   0  0  0  0  0  0  0  0  0  0  0  0
  181.2880  175.5630  136.2230 N   0  0  0  0  0  0  0  0  0  0  0  0
  180.3460  173.6150  136.0980 N   0  0  0  0  0  0  0  0  0  0  0  0
  180.8450  173.7110  137.3930 C   0  0  0  0  0  3  0  0  0  0  0  0
  181.4400  174.9470  137.4280 C   0  0  0  0  0  0  0  0  0  0  0  0
  180.6330  174.6950  135.4750 N   0  0  0  0  0  0  0  0  0  0  0  0
  180.2770  172.3830  135.4680 N   0  0  0  0  0  2  0  0  0  0  0  0
  181.3600  171.0770  135.7790 S   0  0  0  0  0  0  0  0  0  0  0  0
  182.0500  171.2230  137.1180 O   0  0  0  0  0  0  0  0  0  0  0  0
  180.5980  169.7810  135.6790 O   0  0  0  0  0  0  0  0  0  0  0  0
  184.2520  172.1180  135.0790 N   0  0  0  0  0  0  0  0  0  0  0  0
  182.5910  171.2100  134.4490 C   0  0  2  0  0  3  0  0  0  0  0  0
  184.4330  169.6010  135.0170 O   0  0  0  0  0  0  0  0  0  0  0  0
  183.8920  170.6910  134.9340 C   0  0  0  0  0  0  0  0  0  0  0  0
  183.1550  172.4510  134.3490 O   0  0  0  0  0  0  0  0  0  0  0  0
  184.6150  172.8470  137.5870 S   0  0  0  0  0  0  0  0  0  0  0  0
  185.1040  172.7690  136.0330 C   0  0  0  0  0  0  0  0  0  0  0  0
  186.4880  173.1670  135.6500 C   0  0  0  0  0  2  0  0  0  0  0  0
  187.5140  172.7920  136.7230 C   0  0  0  0  0  2  0  0  0  0  0  0
  188.8530  173.4860  134.9270 C   0  0  0  0  0  1  0  0  0  0  0  0
  189.7070  173.5890  137.0750 C   0  0  0  0  0  1  0  0  0  0  0  0
  188.8790  172.7750  136.1940 N   0  0  0  0  0  0  0  0  0  0  0  0
  185.1140  177.8310  138.0140 C   0  0  2  0  0  3  0  0  0  0  0  0
  184.6720  177.6960  136.6310 C   0  0  0  0  0  2  0  0  0  0  0  0
  185.8300  176.9350  137.1290 N   0  0  0  0  0  2  0  0  0  0  0  0
  183.9310  179.0980  140.7200 C   0  0  0  0  0  2  0  0  0  0  0  0
  183.4650  179.1370  142.1800 C   0  0  0  0  0  2  0  0  0  0  0  0
  184.4460  178.6580  143.2540 C   0  0  2  0  0  3  0  0  0  0  0  0
  186.4940  177.2370  143.4090 C   0  0  0  0  0  2  0  0  0  0  0  0
  184.5020  179.4910  144.5260 C   0  0  0  0  0  2  0  0  0  0  0  0
  186.4590  178.4240  145.7530 C   0  0  0  0  0  2  0  0  0  0  0  0
  184.9320  178.4790  145.6030 C   0  0  0  0  0  2  0  0  0  0  0  0
  187.2000  177.5520  144.7100 C   0  0  2  0  0  3  0  0  0  0  0  0
  185.8290  178.3690  142.6350 C   0  0  0  0  0  2  0  0  0  0  0  0
  191.9180  176.7950  146.6370 N   0  0  0  0  0  1  0  0  0  0  0  0
  190.8320  178.7450  143.5470 C   0  0  0  0  0  2  0  0  0  0  0  0
  191.5090  178.3920  144.9020 C   0  0  0  0  0  2  0  0  0  0  0  0
  188.7390  177.8090  144.6510 C   0  0  2  0  0  3  0  0  0  0  0  0
  189.4510  178.1150  143.3050 C   0  0  2  0  0  3  0  0  0  0  0  0
  191.1100  177.0520  145.4340 C   0  0  2  0  0  3  0  0  0  0  0  0
  189.5460  176.9700  145.6770 C   0  0  0  0  0  2  0  0  0  0  0  0
  190.7250  176.6730  139.9170 S   0  0  0  0  0  0  0  0  0  0  0  0
  189.4330  177.2140  141.0060 C   0  0  0  0  0  0  0  0  0  0  0  0
  190.0670  177.8350  138.6990 C   0  0  0  0  0  2  0  0  0  0  0  0
  189.5520  176.9690  142.4020 N   0  0  0  0  0  2  0  0  0  0  0  0
  188.6220  178.1520  139.0660 C   0  0  0  0  0  2  0  0  0  0  0  0
  188.4940  177.9550  140.5060 N   0  0  0  0  0  0  0  0  0  0  0  0
  1  3  1  0  0  0  0
  2  7  1  0  0  0  0
  2 32  1  0  0  0  0
  3  7  2  0  0  0  0
  3  5  1  0  0  0  0
  4  2  2  0  0  0  0
  6  1  2  0  0  0  0
  6  4  1  0  0  0  0
  7  5  1  0  0  0  0
  8 11  1  0  0  0  0
  9 10  1  0  0  0  0
 10 11  2  0  0  0  0
 11  1  1  0  0  0  0
 12  9  1  0  0  0  0
 12  8  2  0  0  0  0
 13 14  1  0  0  0  0
 13  9  1  0  0  0  0
 14 15  2  0  0  0  0
 16 14  2  0  0  0  0
 17 23  1  0  0  0  0
 18 20  1  0  0  0  0
 18 14  1  1  0  0  0
 20 19  2  0  0  0  0
 20 17  1  0  0  0  0
 21 18  1  0  0  0  0
 21 17  1  0  0  0  0
 23 22  2  0  0  0  0
 24 23  1  0  0  0  0
 24 25  1  0  0  0  0
 26 28  1  0  0  0  0
 28 25  1  0  0  0  0
 28 27  1  0  0  0  0
 29  4  1  1  0  0  0
 30 31  1  0  0  0  0
 30 29  1  0  0  0  0
 31 29  1  0  0  0  0
 32 33  1  0  0  0  0
 34 33  1  6  0  0  0
 34 36  1  0  0  0  0
 36 38  1  0  0  0  0
 38 37  1  0  0  0  0
 39 35  1  6  0  0  0
 39 37  1  0  0  0  0
 40 34  1  0  0  0  0
 40 35  1  0  0  0  0
 42 43  1  0  0  0  0
 43 46  1  0  0  0  0
 44 39  1  0  0  0  0
 44 47  1  6  0  0  0
 45 51  1  1  0  0  0
 45 42  1  0  0  0  0
 45 44  1  0  0  0  0
 46 47  1  0  0  0  0
 46 41  1  1  0  0  0
 48 49  1  0  0  0  0
 49 51  1  0  0  0  0
 50 52  1  0  0  0  0
 50 48  1  0  0  0  0
 52 53  1  0  0  0  0
 53 49  2  0  0  0  0
M  END
>  <MODEL>
3

>  <REMARK>
 VINA RESULT:      -7.3      3.224      4.904
  Name = 
  14 active torsions:
  status: ('A' for Active; 'I' for Inactive)
    1  A    between atoms: C_3  and  C_35
    2  A    between atoms: C_4  and  C_24
    3  A    between atoms: C_5  and  C_24
    4  A    between atoms: C_5  and  C_26
    5  A    between atoms: N_6  and  N_10
    6  A    between atoms: S_9  and  N_10
    7  A    between atoms: S_9  and  C_31
    8  A    between atoms: C_13  and  C_28
    9  A    between atoms: C_17  and  C_51
   10  A    between atoms: N_19  and  C_30
   11  A    between atoms: N_27  and  C_33
   12  A    between atoms: C_33  and  C_40
   13  A    between atoms: C_40  and  C_47
   14  A    between atoms: N_46  and  C_47
                            x       y       z     vdW  Elec       q    Type
                         _______ _______ _______ _____ _____    ______ ____

>  <TORSDO>
F 14

$$$$
=
 OpenBabel10232409273D

 53 60  0  0  1  0  0  0  0  0999 V2000
  189.7550  176.7380  137.4220 C   0  0  0  0  0  0  0  0  0  0  0  0
  189.9360  174.5810  135.3400 C   0  0  0  0  0  0  0  0  0  0  0  0
  188.8040  176.5880  136.4490 C   0  0  0  0  0  0  0  0  0  0  0  0
  190.9510  174.8410  136.3360 C   0  0  0  0  0  0  0  0  0  0  0  0
  187.8830  176.4070  135.3770 C   0  0  0  0  0  2  0  0  0  0  0  0
  190.8260  175.8760  137.2600 N   0  0  0  0  0  0  0  0  0  0  0  0
  188.9450  175.5300  135.4700 C   0  0  0  0  0  0  0  0  0  0  0  0
  188.3120  177.9280  138.9600 N   0  0  0  0  0  0  0  0  0  0  0  0
  189.4850  177.9960  140.7810 N   0  0  0  0  0  0  0  0  0  0  0  0
  190.2880  177.3610  139.8390 C   0  0  0  0  0  3  0  0  0  0  0  0
  189.5090  177.3290  138.7090 C   0  0  0  0  0  0  0  0  0  0  0  0
  188.3700  178.2900  140.2270 N   0  0  0  0  0  0  0  0  0  0  0  0
  189.5910  177.6630  142.1220 N   0  0  0  0  0  2  0  0  0  0  0  0
  191.0100  177.0010  142.8440 S   0  0  0  0  0  0  0  0  0  0  0  0
  190.8130  175.5590  143.2580 O   0  0  0  0  0  0  0  0  0  0  0  0
  192.1610  177.1570  141.8840 O   0  0  0  0  0  0  0  0  0  0  0  0
  189.6520  177.9970  145.5090 N   0  0  0  0  0  0  0  0  0  0  0  0
  191.2580  178.0240  144.3250 C   0  0  2  0  0  3  0  0  0  0  0  0
  191.4930  176.4390  146.2580 O   0  0  0  0  0  0  0  0  0  0  0  0
  190.9170  177.2310  145.5300 C   0  0  0  0  0  0  0  0  0  0  0  0
  190.2020  178.8470  144.6030 O   0  0  0  0  0  0  0  0  0  0  0  0
  187.9700  177.5790  147.4960 S   0  0  0  0  0  0  0  0  0  0  0  0
  188.3280  177.6130  145.9060 C   0  0  0  0  0  0  0  0  0  0  0  0
  187.2550  177.4630  144.8820 C   0  0  0  0  0  2  0  0  0  0  0  0
  185.9580  178.1620  145.2980 C   0  0  0  0  0  2  0  0  0  0  0  0
  183.8490  178.9660  144.6630 C   0  0  0  0  0  1  0  0  0  0  0  0
  185.4980  178.7380  143.0560 C   0  0  0  0  0  1  0  0  0  0  0  0
  184.9420  178.1040  144.2450 N   0  0  0  0  0  0  0  0  0  0  0  0
  191.9000  173.7960  136.7210 C   0  0  2  0  0  3  0  0  0  0  0  0
  192.9340  174.4690  137.4980 C   0  0  0  0  0  2  0  0  0  0  0  0
  193.2190  173.9610  136.1450 N   0  0  0  0  0  2  0  0  0  0  0  0
  189.7660  173.4340  134.3460 C   0  0  0  0  0  2  0  0  0  0  0  0
  188.8370  172.3160  134.8360 C   0  0  0  0  0  2  0  0  0  0  0  0
  187.5240  172.7250  135.5090 C   0  0  2  0  0  3  0  0  0  0  0  0
  185.3000  173.6540  134.8510 C   0  0  0  0  0  2  0  0  0  0  0  0
  187.2550  172.1090  136.8740 C   0  0  0  0  0  2  0  0  0  0  0  0
  184.8750  172.8860  137.3270 C   0  0  0  0  0  2  0  0  0  0  0  0
  186.3670  173.1540  137.5730 C   0  0  0  0  0  2  0  0  0  0  0  0
  184.3210  173.3960  135.9740 C   0  0  2  0  0  3  0  0  0  0  0  0
  186.3460  172.5950  134.5220 C   0  0  0  0  0  2  0  0  0  0  0  0
  181.3790  169.2960  134.9330 N   0  0  0  0  0  1  0  0  0  0  0  0
  180.4310  172.9810  135.1550 C   0  0  0  0  0  2  0  0  0  0  0  0
  180.5810  171.5300  134.6170 C   0  0  0  0  0  2  0  0  0  0  0  0
  182.9320  172.7930  135.5950 C   0  0  2  0  0  3  0  0  0  0  0  0
  181.6100  173.5110  135.9870 C   0  0  2  0  0  3  0  0  0  0  0  0
  181.4330  170.6590  135.4840 C   0  0  2  0  0  3  0  0  0  0  0  0
  182.9010  171.2420  135.6220 C   0  0  0  0  0  2  0  0  0  0  0  0
  179.9820  175.2380  139.0770 S   0  0  0  0  0  0  0  0  0  0  0  0
  181.3890  174.6810  138.1500 C   0  0  0  0  0  0  0  0  0  0  0  0
  180.7450  176.8780  139.0840 C   0  0  0  0  0  2  0  0  0  0  0  0
  181.3020  173.4660  137.4160 N   0  0  0  0  0  2  0  0  0  0  0  0
  182.2360  176.7170  138.8130 C   0  0  0  0  0  2  0  0  0  0  0  0
  182.4020  175.4850  138.0490 N   0  0  0  0  0  0  0  0  0  0  0  0
  1 11  1  0  0  0  0
  2  7  2  0  0  0  0
  2  4  1  0  0  0  0
  3  1  2  0  0  0  0
  4  6  2  0  0  0  0
  5  7  1  0  0  0  0
  5  3  1  0  0  0  0
  6  1  1  0  0  0  0
  7  3  1  0  0  0  0
  8 12  2  0  0  0  0
  9 13  1  0  0  0  0
 10  9  1  0  0  0  0
 11  8  1  0  0  0  0
 11 10  2  0  0  0  0
 12  9  1  0  0  0  0
 13 14  1  0  0  0  0
 14 15  2  0  0  0  0
 16 14  2  0  0  0  0
 17 20  1  0  0  0  0
 17 23  1  0  0  0  0
 18 14  1  6  0  0  0
 18 21  1  0  0  0  0
 18 20  1  0  0  0  0
 20 19  2  0  0  0  0
 21 17  1  0  0  0  0
 23 22  2  0  0  0  0
 24 25  1  0  0  0  0
 24 23  1  0  0  0  0
 27 28  1  0  0  0  0
 28 26  1  0  0  0  0
 28 25  1  0  0  0  0
 29  4  1  6  0  0  0
 29 30  1  0  0  0  0
 31 29  1  0  0  0  0
 31 30  1  0  0  0  0
 32 33  1  0  0  0  0
 32  2  1  0  0  0  0
 34 33  1  6  0  0  0
 34 36  1  0  0  0  0
 36 38  1  0  0  0  0
 37 38  1  0  0  0  0
 39 35  1  6  0  0  0
 39 37  1  0  0  0  0
 40 35  1  0  0  0  0
 40 34  1  0  0  0  0
 42 45  1  0  0  0  0
 43 42  1  0  0  0  0
 43 46  1  0  0  0  0
 44 47  1  1  0  0  0
 44 39  1  0  0  0  0
 44 45  1  0  0  0  0
 45 51  1  1  0  0  0
 46 41  1  6  0  0  0
 46 47  1  0  0  0  0
 48 50  1  0  0  0  0
 49 48  1  0  0  0  0
 51 49  1  0  0  0  0
 52 50  1  0  0  0  0
 53 49  2  0  0  0  0
 53 52  1  0  0  0  0
M  END
>  <MODEL>
4

>  <REMARK>
 VINA RESULT:      -7.3      3.714     10.518
  Name = 
  14 active torsions:
  status: ('A' for Active; 'I' for Inactive)
    1  A    between atoms: C_3  and  C_35
    2  A    between atoms: C_4  and  C_24
    3  A    between atoms: C_5  and  C_24
    4  A    between atoms: C_5  and  C_26
    5  A    between atoms: N_6  and  N_10
    6  A    between atoms: S_9  and  N_10
    7  A    between atoms: S_9  and  C_31
    8  A    between atoms: C_13  and  C_28
    9  A    between atoms: C_17  and  C_51
   10  A    between atoms: N_19  and  C_30
   11  A    between atoms: N_27  and  C_33
   12  A    between atoms: C_33  and  C_40
   13  A    between atoms: C_40  and  C_47
   14  A    between atoms: N_46  and  C_47
                            x       y       z     vdW  Elec       q    Type
                         _______ _______ _______ _____ _____    ______ ____

>  <TORSDO>
F 14

$$$$
=
 OpenBabel10232409273D

 53 60  0  0  1  0  0  0  0  0999 V2000
  190.3300  176.8390  140.4580 C   0  0  0  0  0  0  0  0  0  0  0  0
  188.7350  177.5160  142.9110 C   0  0  0  0  0  0  0  0  0  0  0  0
  189.2620  177.6930  140.4150 C   0  0  0  0  0  0  0  0  0  0  0  0
  189.8170  176.5580  142.8800 C   0  0  0  0  0  0  0  0  0  0  0  0
  188.1080  178.5290  140.4350 C   0  0  0  0  0  2  0  0  0  0  0  0
  190.5030  176.2620  141.7040 N   0  0  0  0  0  0  0  0  0  0  0  0
  188.5290  177.9820  141.6300 C   0  0  0  0  0  0  0  0  0  0  0  0
  192.6840  177.1510  139.9870 N   0  0  0  0  0  0  0  0  0  0  0  0
  192.8230  176.7210  137.8670 N   0  0  0  0  0  0  0  0  0  0  0  0
  191.4740  176.6050  138.1890 C   0  0  0  0  0  3  0  0  0  0  0  0
  191.4310  176.8730  139.5340 C   0  0  0  0  0  0  0  0  0  0  0  0
  193.4650  177.0270  138.9300 N   0  0  0  0  0  0  0  0  0  0  0  0
  193.3670  175.9390  136.8610 N   0  0  0  0  0  2  0  0  0  0  0  0
  193.4790  174.2200  136.9260 S   0  0  0  0  0  0  0  0  0  0  0  0
  194.4160  173.7560  138.0200 O   0  0  0  0  0  0  0  0  0  0  0  0
  192.0930  173.6510  137.0950 O   0  0  0  0  0  0  0  0  0  0  0  0
  196.1050  173.2980  135.4470 N   0  0  0  0  0  0  0  0  0  0  0  0
  194.1710  173.7700  135.3080 C   0  0  2  0  0  3  0  0  0  0  0  0
  194.5740  171.2920  135.3670 O   0  0  0  0  0  0  0  0  0  0  0  0
  194.8790  172.4720  135.4230 C   0  0  0  0  0  0  0  0  0  0  0  0
  195.3720  174.3680  135.0420 O   0  0  0  0  0  0  0  0  0  0  0  0
  198.0310  171.6060  136.0630 S   0  0  0  0  0  0  0  0  0  0  0  0
  197.3540  173.0880  136.1230 C   0  0  0  0  0  0  0  0  0  0  0  0
  198.1090  174.2480  136.6770 C   0  0  0  0  0  2  0  0  0  0  0  0
  197.6420  174.6200  138.0860 C   0  0  0  0  0  2  0  0  0  0  0  0
  198.2520  175.3840  140.2170 C   0  0  0  0  0  1  0  0  0  0  0  0
  199.8920  174.5770  138.7980 C   0  0  0  0  0  1  0  0  0  0  0  0
  198.6640  175.3630  138.8240 N   0  0  0  0  0  0  0  0  0  0  0  0
  190.5330  176.2040  144.1060 C   0  0  2  0  0  3  0  0  0  0  0  0
  191.7530  177.0030  144.0940 C   0  0  0  0  0  2  0  0  0  0  0  0
  191.8030  175.5480  143.8740 N   0  0  0  0  0  2  0  0  0  0  0  0
  187.9540  178.1210  144.0760 C   0  0  0  0  0  2  0  0  0  0  0  0
  186.6050  177.4440  144.3420 C   0  0  0  0  0  2  0  0  0  0  0  0
  185.3400  178.1600  143.8600 C   0  0  2  0  0  3  0  0  0  0  0  0
  184.3830  179.0130  141.7160 C   0  0  0  0  0  2  0  0  0  0  0  0
  184.1230  178.0470  144.7650 C   0  0  0  0  0  2  0  0  0  0  0  0
  182.3180  179.1310  143.3360 C   0  0  0  0  0  2  0  0  0  0  0  0
  183.3330  179.3340  144.4710 C   0  0  0  0  0  2  0  0  0  0  0  0
  182.8960  179.2190  141.9030 C   0  0  2  0  0  3  0  0  0  0  0  0
  185.0550  177.8180  142.3830 C   0  0  0  0  0  2  0  0  0  0  0  0
  180.1060  179.9120  137.6260 N   0  0  0  0  0  1  0  0  0  0  0  0
  180.7110  176.7420  139.6530 C   0  0  0  0  0  2  0  0  0  0  0  0
  179.9820  177.8870  138.8940 C   0  0  0  0  0  2  0  0  0  0  0  0
  181.9460  178.6470  140.8040 C   0  0  2  0  0  3  0  0  0  0  0  0
  181.9880  177.1450  140.4070 C   0  0  2  0  0  3  0  0  0  0  0  0
  180.9010  178.9740  138.4350 C   0  0  2  0  0  3  0  0  0  0  0  0
  181.6520  179.6490  139.6560 C   0  0  0  0  0  2  0  0  0  0  0  0
  183.6920  176.6000  136.9460 S   0  0  0  0  0  0  0  0  0  0  0  0
  182.9960  176.0020  138.4650 C   0  0  0  0  0  0  0  0  0  0  0  0
  182.5420  175.5010  136.0870 C   0  0  0  0  0  2  0  0  0  0  0  0
  183.1820  176.7530  139.6580 N   0  0  0  0  0  2  0  0  0  0  0  0
  182.0930  174.4170  137.0600 C   0  0  0  0  0  2  0  0  0  0  0  0
  182.2080  174.9740  138.4040 N   0  0  0  0  0  0  0  0  0  0  0  0
  1  6  1  0  0  0  0
  2 32  1  0  0  0  0
  3  5  1  0  0  0  0
  3  1  2  0  0  0  0
  3  7  1  0  0  0  0
  4  2  1  0  0  0  0
  5  7  1  0  0  0  0
  6  4  2  0  0  0  0
  7  2  2  0  0  0  0
  9 10  1  0  0  0  0
  9 12  1  0  0  0  0
 10 11  2  0  0  0  0
 11  8  1  0  0  0  0
 11  1  1  0  0  0  0
 12  8  2  0  0  0  0
 13 14  1  0  0  0  0
 13  9  1  0  0  0  0
 14 16  2  0  0  0  0
 14 15  2  0  0  0  0
 17 23  1  0  0  0  0
 18 20  1  0  0  0  0
 18 14  1  1  0  0  0
 19 20  2  0  0  0  0
 20 17  1  0  0  0  0
 21 18  1  0  0  0  0
 21 17  1  0  0  0  0
 22 23  2  0  0  0  0
 23 24  1  0  0  0  0
 24 25  1  0  0  0  0
 25 28  1  0  0  0  0
 27 28  1  0  0  0  0
 28 26  1  0  0  0  0
 29  4  1  6  0  0  0
 30 29  1  0  0  0  0
 31 30  1  0  0  0  0
 31 29  1  0  0  0  0
 32 33  1  0  0  0  0
 34 33  1  1  0  0  0
 34 36  1  0  0  0  0
 35 40  1  0  0  0  0
 37 38  1  0  0  0  0
 38 36  1  0  0  0  0
 39 35  1  1  0  0  0
 39 37  1  0  0  0  0
 40 34  1  0  0  0  0
 42 45  1  0  0  0  0
 43 42  1  0  0  0  0
 44 47  1  6  0  0  0
 44 39  1  0  0  0  0
 45 51  1  6  0  0  0
 45 44  1  0  0  0  0
 46 41  1  1  0  0  0
 46 43  1  0  0  0  0
 46 47  1  0  0  0  0
 48 49  1  0  0  0  0
 49 51  1  0  0  0  0
 50 48  1  0  0  0  0
 50 52  1  0  0  0  0
 52 53  1  0  0  0  0
 53 49  2  0  0  0  0
M  END
>  <MODEL>
5

>  <REMARK>
 VINA RESULT:      -6.7      2.601      7.275
  Name = 
  14 active torsions:
  status: ('A' for Active; 'I' for Inactive)
    1  A    between atoms: C_3  and  C_35
    2  A    between atoms: C_4  and  C_24
    3  A    between atoms: C_5  and  C_24
    4  A    between atoms: C_5  and  C_26
    5  A    between atoms: N_6  and  N_10
    6  A    between atoms: S_9  and  N_10
    7  A    between atoms: S_9  and  C_31
    8  A    between atoms: C_13  and  C_28
    9  A    between atoms: C_17  and  C_51
   10  A    between atoms: N_19  and  C_30
   11  A    between atoms: N_27  and  C_33
   12  A    between atoms: C_33  and  C_40
   13  A    between atoms: C_40  and  C_47
   14  A    between atoms: N_46  and  C_47
                            x       y       z     vdW  Elec       q    Type
                         _______ _______ _______ _____ _____    ______ ____

>  <TORSDO>
F 14

$$$$
=
 OpenBabel10232409273D

 53 60  0  0  1  0  0  0  0  0999 V2000
  190.6230  177.3650  140.4300 C   0  0  0  0  0  0  0  0  0  0  0  0
  190.3040  176.3690  137.6140 C   0  0  0  0  0  0  0  0  0  0  0  0
  189.4030  177.3130  139.8120 C   0  0  0  0  0  0  0  0  0  0  0  0
  191.5750  176.5250  138.2850 C   0  0  0  0  0  0  0  0  0  0  0  0
  188.1750  177.2840  139.0900 C   0  0  0  0  0  2  0  0  0  0  0  0
  191.6640  177.0200  139.5840 N   0  0  0  0  0  0  0  0  0  0  0  0
  189.3090  176.8250  138.4520 C   0  0  0  0  0  0  0  0  0  0  0  0
  191.9500  177.8020  142.4070 N   0  0  0  0  0  0  0  0  0  0  0  0
  190.6770  177.1040  144.0170 N   0  0  0  0  0  0  0  0  0  0  0  0
  189.9830  176.8330  142.8420 C   0  0  0  0  0  3  0  0  0  0  0  0
  190.8130  177.2960  141.8520 C   0  0  0  0  0  0  0  0  0  0  0  0
  191.7870  177.6620  143.7080 N   0  0  0  0  0  0  0  0  0  0  0  0
  189.9860  177.4030  145.1800 N   0  0  0  0  0  2  0  0  0  0  0  0
  190.4690  176.8860  146.7520 S   0  0  0  0  0  0  0  0  0  0  0  0
  190.1990  175.4140  146.9700 O   0  0  0  0  0  0  0  0  0  0  0  0
  191.9250  177.2250  146.9470 O   0  0  0  0  0  0  0  0  0  0  0  0
  187.5640  178.0380  147.1630 N   0  0  0  0  0  0  0  0  0  0  0  0
  189.4220  177.8640  147.8700 C   0  0  2  0  0  3  0  0  0  0  0  0
  187.8150  176.2540  148.9330 O   0  0  0  0  0  0  0  0  0  0  0  0
  188.1720  177.1160  148.1470 C   0  0  0  0  0  0  0  0  0  0  0  0
  188.6770  178.8140  147.2280 O   0  0  0  0  0  0  0  0  0  0  0  0
  185.0170  178.4070  146.5900 S   0  0  0  0  0  0  0  0  0  0  0  0
  186.4970  177.8250  146.2280 C   0  0  0  0  0  0  0  0  0  0  0  0
  186.7880  177.2790  144.8720 C   0  0  0  0  0  2  0  0  0  0  0  0
  186.7560  178.3640  143.7930 C   0  0  0  0  0  2  0  0  0  0  0  0
  184.5180  178.1570  143.1270 C   0  0  0  0  0  1  0  0  0  0  0  0
  186.0660  179.0000  141.6280 C   0  0  0  0  0  1  0  0  0  0  0  0
  185.8890  177.9980  142.6720 N   0  0  0  0  0  0  0  0  0  0  0  0
  192.7480  175.7710  137.8410 C   0  0  2  0  0  3  0  0  0  0  0  0
  193.7990  176.0750  138.8050 C   0  0  0  0  0  2  0  0  0  0  0  0
  193.8600  176.6050  137.4320 N   0  0  0  0  0  2  0  0  0  0  0  0
  189.9370  175.7100  136.2850 C   0  0  0  0  0  2  0  0  0  0  0  0
  189.3540  176.6780  135.2490 C   0  0  0  0  0  2  0  0  0  0  0  0
  187.8570  176.5740  134.9400 C   0  0  2  0  0  3  0  0  0  0  0  0
  186.1630  174.7930  134.4950 C   0  0  0  0  0  2  0  0  0  0  0  0
  187.0090  177.7700  135.3460 C   0  0  0  0  0  2  0  0  0  0  0  0
  184.6580  176.9120  134.8820 C   0  0  0  0  0  2  0  0  0  0  0  0
  185.8380  177.7370  134.3470 C   0  0  0  0  0  2  0  0  0  0  0  0
  184.7850  175.3790  134.7050 C   0  0  2  0  0  3  0  0  0  0  0  0
  187.2980  175.2190  135.4200 C   0  0  0  0  0  2  0  0  0  0  0  0
  183.4240  170.9490  136.9590 N   0  0  0  0  0  1  0  0  0  0  0  0
  181.7070  174.3510  137.0380 C   0  0  0  0  0  2  0  0  0  0  0  0
  181.9380  172.8230  136.8680 C   0  0  0  0  0  2  0  0  0  0  0  0
  183.7780  174.5600  135.5730 C   0  0  2  0  0  3  0  0  0  0  0  0
  182.8840  175.2550  136.6370 C   0  0  2  0  0  3  0  0  0  0  0  0
  183.3710  172.4190  137.0090 C   0  0  2  0  0  3  0  0  0  0  0  0
  184.2820  173.1360  135.9280 C   0  0  0  0  0  2  0  0  0  0  0  0
  182.7610  177.0180  140.1090 S   0  0  0  0  0  0  0  0  0  0  0  0
  183.2050  176.9610  138.3920 C   0  0  0  0  0  0  0  0  0  0  0  0
  181.9210  178.5780  139.7520 C   0  0  0  0  0  2  0  0  0  0  0  0
  183.6070  175.7230  137.8190 N   0  0  0  0  0  2  0  0  0  0  0  0
  182.4970  179.1510  138.4610 C   0  0  0  0  0  2  0  0  0  0  0  0
  182.9990  178.0250  137.6810 N   0  0  0  0  0  0  0  0  0  0  0  0
  1 11  1  0  0  0  0
  2  4  2  0  0  0  0
  2  7  1  0  0  0  0
  3  1  1  0  0  0  0
  4  6  1  0  0  0  0
  5  3  1  0  0  0  0
  6  1  2  0  0  0  0
  7  5  1  0  0  0  0
  7  3  2  0  0  0  0
  8 12  2  0  0  0  0
  9 13  1  0  0  0  0
 10  9  1  0  0  0  0
 11  8  1  0  0  0  0
 11 10  2  0  0  0  0
 12  9  1  0  0  0  0
 13 14  1  0  0  0  0
 14 16  2  0  0  0  0
 14 15  2  0  0  0  0
 17 21  1  0  0  0  0
 17 20  1  0  0  0  0
 18 14  1  6  0  0  0
 18 20  1  0  0  0  0
 20 19  2  0  0  0  0
 21 18  1  0  0  0  0
 23 22  2  0  0  0  0
 23 17  1  0  0  0  0
 24 23  1  0  0  0  0
 25 24  1  0  0  0  0
 27 28  1  0  0  0  0
 28 26  1  0  0  0  0
 28 25  1  0  0  0  0
 29  4  1  1  0  0  0
 29 30  1  0  0  0  0
 31 29  1  0  0  0  0
 31 30  1  0  0  0  0
 32  2  1  0  0  0  0
 33 32  1  0  0  0  0
 34 33  1  1  0  0  0
 34 36  1  0  0  0  0
 34 40  1  0  0  0  0
 35 40  1  0  0  0  0
 38 37  1  0  0  0  0
 38 36  1  0  0  0  0
 39 35  1  1  0  0  0
 39 37  1  0  0  0  0
 39 44  1  0  0  0  0
 43 46  1  0  0  0  0
 43 42  1  0  0  0  0
 44 47  1  1  0  0  0
 44 45  1  0  0  0  0
 45 42  1  0  0  0  0
 45 51  1  1  0  0  0
 46 41  1  6  0  0  0
 47 46  1  0  0  0  0
 49 48  1  0  0  0  0
 50 48  1  0  0  0  0
 51 49  1  0  0  0  0
 52 50  1  0  0  0  0
 53 49  2  0  0  0  0
 53 52  1  0  0  0  0
M  END
>  <MODEL>
6

>  <REMARK>
 VINA RESULT:      -6.7      4.376     10.573
  Name = 
  14 active torsions:
  status: ('A' for Active; 'I' for Inactive)
    1  A    between atoms: C_3  and  C_35
    2  A    between atoms: C_4  and  C_24
    3  A    between atoms: C_5  and  C_24
    4  A    between atoms: C_5  and  C_26
    5  A    between atoms: N_6  and  N_10
    6  A    between atoms: S_9  and  N_10
    7  A    between atoms: S_9  and  C_31
    8  A    between atoms: C_13  and  C_28
    9  A    between atoms: C_17  and  C_51
   10  A    between atoms: N_19  and  C_30
   11  A    between atoms: N_27  and  C_33
   12  A    between atoms: C_33  and  C_40
   13  A    between atoms: C_40  and  C_47
   14  A    between atoms: N_46  and  C_47
                            x       y       z     vdW  Elec       q    Type
                         _______ _______ _______ _____ _____    ______ ____

>  <TORSDO>
F 14

$$$$
=
 OpenBabel10232409273D

 53 60  0  0  1  0  0  0  0  0999 V2000
  190.3320  176.8540  140.7050 C   0  0  0  0  0  0  0  0  0  0  0  0
  188.7390  177.4430  143.1820 C   0  0  0  0  0  0  0  0  0  0  0  0
  189.2590  177.7030  140.6920 C   0  0  0  0  0  0  0  0  0  0  0  0
  189.8250  176.4910  143.1180 C   0  0  0  0  0  0  0  0  0  0  0  0
  188.1010  178.5320  140.7410 C   0  0  0  0  0  2  0  0  0  0  0  0
  190.5100  176.2370  141.9320 N   0  0  0  0  0  0  0  0  0  0  0  0
  188.5270  177.9490  141.9170 C   0  0  0  0  0  0  0  0  0  0  0  0
  192.6400  177.3820  140.2030 N   0  0  0  0  0  0  0  0  0  0  0  0
  192.8460  176.7710  138.1340 N   0  0  0  0  0  0  0  0  0  0  0  0
  191.5160  176.5350  138.4670 C   0  0  0  0  0  3  0  0  0  0  0  0
  191.4300  176.9230  139.7810 C   0  0  0  0  0  0  0  0  0  0  0  0
  193.4400  177.2460  139.1620 N   0  0  0  0  0  0  0  0  0  0  0  0
  193.4840  175.9630  137.2060 N   0  0  0  0  0  2  0  0  0  0  0  0
  192.6610  174.9660  136.0650 S   0  0  0  0  0  0  0  0  0  0  0  0
  192.0850  173.7250  136.7120 O   0  0  0  0  0  0  0  0  0  0  0  0
  191.5990  175.7870  135.3810 O   0  0  0  0  0  0  0  0  0  0  0  0
  195.3500  173.3480  135.7690 N   0  0  0  0  0  0  0  0  0  0  0  0
  193.9640  174.4850  134.8930 C   0  0  2  0  0  3  0  0  0  0  0  0
  193.6500  172.0350  134.4420 O   0  0  0  0  0  0  0  0  0  0  0  0
  194.1600  173.0170  134.9560 C   0  0  0  0  0  0  0  0  0  0  0  0
  195.2290  174.6460  135.3870 O   0  0  0  0  0  0  0  0  0  0  0  0
  195.3840  172.8710  138.3620 S   0  0  0  0  0  0  0  0  0  0  0  0
  195.9610  172.6360  136.8550 C   0  0  0  0  0  0  0  0  0  0  0  0
  196.9470  171.5530  136.5780 C   0  0  0  0  0  2  0  0  0  0  0  0
  196.2690  170.2510  136.1430 C   0  0  0  0  0  2  0  0  0  0  0  0
  196.1600  167.9260  136.4200 C   0  0  0  0  0  1  0  0  0  0  0  0
  197.9410  169.0860  137.3330 C   0  0  0  0  0  1  0  0  0  0  0  0
  196.5050  169.1650  137.0960 N   0  0  0  0  0  0  0  0  0  0  0  0
  190.5460  176.1030  144.3310 C   0  0  2  0  0  3  0  0  0  0  0  0
  191.7590  176.9110  144.3440 C   0  0  0  0  0  2  0  0  0  0  0  0
  191.8210  175.4640  144.0750 N   0  0  0  0  0  2  0  0  0  0  0  0
  187.9570  178.0060  144.3680 C   0  0  0  0  0  2  0  0  0  0  0  0
  186.5660  177.3890  144.5490 C   0  0  0  0  0  2  0  0  0  0  0  0
  185.3720  178.1310  143.9400 C   0  0  2  0  0  3  0  0  0  0  0  0
  184.6190  178.9290  141.6960 C   0  0  0  0  0  2  0  0  0  0  0  0
  184.0850  178.1000  144.7500 C   0  0  0  0  0  2  0  0  0  0  0  0
  182.4410  179.1910  143.1420 C   0  0  0  0  0  2  0  0  0  0  0  0
  183.3720  179.4030  144.3450 C   0  0  0  0  0  2  0  0  0  0  0  0
  183.1320  179.1970  141.7560 C   0  0  2  0  0  3  0  0  0  0  0  0
  185.1880  177.7390  142.4600 C   0  0  0  0  0  2  0  0  0  0  0  0
  179.9910  179.9440  137.7400 N   0  0  0  0  0  1  0  0  0  0  0  0
  181.3500  176.6960  139.1990 C   0  0  0  0  0  2  0  0  0  0  0  0
  180.3580  177.7660  138.6620 C   0  0  0  0  0  2  0  0  0  0  0  0
  182.2470  178.6160  140.6090 C   0  0  2  0  0  3  0  0  0  0  0  0
  182.5660  177.2360  139.9700 C   0  0  2  0  0  3  0  0  0  0  0  0
  181.0080  179.0790  138.3590 C   0  0  2  0  0  3  0  0  0  0  0  0
  181.6850  179.7000  139.6500 C   0  0  0  0  0  2  0  0  0  0  0  0
  184.1080  176.8590  136.4120 S   0  0  0  0  0  0  0  0  0  0  0  0
  183.8120  176.2820  138.0640 C   0  0  0  0  0  0  0  0  0  0  0  0
  183.4350  175.2830  135.8350 C   0  0  0  0  0  2  0  0  0  0  0  0
  183.7630  177.2220  139.1300 N   0  0  0  0  0  2  0  0  0  0  0  0
  183.5220  174.2750  136.9750 C   0  0  0  0  0  2  0  0  0  0  0  0
  183.4960  175.0340  138.2200 N   0  0  0  0  0  0  0  0  0  0  0  0
  1  6  1  0  0  0  0
  2 32  1  0  0  0  0
  3  1  2  0  0  0  0
  3  5  1  0  0  0  0
  3  7  1  0  0  0  0
  4  2  1  0  0  0  0
  5  7  1  0  0  0  0
  6  4  2  0  0  0  0
  7  2  2  0  0  0  0
  9 10  1  0  0  0  0
  9 12  1  0  0  0  0
 10 11  2  0  0  0  0
 11  8  1  0  0  0  0
 11  1  1  0  0  0  0
 12  8  2  0  0  0  0
 13  9  1  0  0  0  0
 14 15  2  0  0  0  0
 14 13  1  0  0  0  0
 16 14  2  0  0  0  0
 17 23  1  0  0  0  0
 18 20  1  0  0  0  0
 18 21  1  0  0  0  0
 18 14  1  1  0  0  0
 19 20  2  0  0  0  0
 20 17  1  0  0  0  0
 21 17  1  0  0  0  0
 23 22  2  0  0  0  0
 24 23  1  0  0  0  0
 25 24  1  0  0  0  0
 25 28  1  0  0  0  0
 26 28  1  0  0  0  0
 28 27  1  0  0  0  0
 29  4  1  6  0  0  0
 29 30  1  0  0  0  0
 31 29  1  0  0  0  0
 31 30  1  0  0  0  0
 32 33  1  0  0  0  0
 34 33  1  1  0  0  0
 34 36  1  0  0  0  0
 35 40  1  0  0  0  0
 37 38  1  0  0  0  0
 38 36  1  0  0  0  0
 39 35  1  1  0  0  0
 39 37  1  0  0  0  0
 40 34  1  0  0  0  0
 42 45  1  0  0  0  0
 43 42  1  0  0  0  0
 44 47  1  6  0  0  0
 44 39  1  0  0  0  0
 45 51  1  6  0  0  0
 45 44  1  0  0  0  0
 46 41  1  1  0  0  0
 46 43  1  0  0  0  0
 46 47  1  0  0  0  0
 48 49  1  0  0  0  0
 49 53  2  0  0  0  0
 49 51  1  0  0  0  0
 50 48  1  0  0  0  0
 50 52  1  0  0  0  0
 52 53  1  0  0  0  0
M  END
>  <MODEL>
7

>  <REMARK>
 VINA RESULT:      -6.5      2.704      7.200
  Name = 
  14 active torsions:
  status: ('A' for Active; 'I' for Inactive)
    1  A    between atoms: C_3  and  C_35
    2  A    between atoms: C_4  and  C_24
    3  A    between atoms: C_5  and  C_24
    4  A    between atoms: C_5  and  C_26
    5  A    between atoms: N_6  and  N_10
    6  A    between atoms: S_9  and  N_10
    7  A    between atoms: S_9  and  C_31
    8  A    between atoms: C_13  and  C_28
    9  A    between atoms: C_17  and  C_51
   10  A    between atoms: N_19  and  C_30
   11  A    between atoms: N_27  and  C_33
   12  A    between atoms: C_33  and  C_40
   13  A    between atoms: C_40  and  C_47
   14  A    between atoms: N_46  and  C_47
                            x       y       z     vdW  Elec       q    Type
                         _______ _______ _______ _____ _____    ______ ____

>  <TORSDO>
F 14

$$$$
=
 OpenBabel10232409273D

 53 60  0  0  1  0  0  0  0  0999 V2000
  190.5120  176.5540  139.3080 C   0  0  0  0  0  0  0  0  0  0  0  0
  188.4680  178.0980  140.8770 C   0  0  0  0  0  0  0  0  0  0  0  0
  189.4330  177.1450  138.7090 C   0  0  0  0  0  0  0  0  0  0  0  0
  189.5780  177.3830  141.4650 C   0  0  0  0  0  0  0  0  0  0  0  0
  188.2590  177.7380  138.1610 C   0  0  0  0  0  2  0  0  0  0  0  0
  190.4800  176.6580  140.6890 N   0  0  0  0  0  0  0  0  0  0  0  0
  188.4780  177.8760  139.5170 C   0  0  0  0  0  0  0  0  0  0  0  0
  192.8430  177.0690  138.9080 N   0  0  0  0  0  0  0  0  0  0  0  0
  193.4660  175.5040  137.5450 N   0  0  0  0  0  0  0  0  0  0  0  0
  192.1110  175.2860  137.7760 C   0  0  0  0  0  3  0  0  0  0  0  0
  191.7590  176.2870  138.6460 C   0  0  0  0  0  0  0  0  0  0  0  0
  193.8300  176.5270  138.2210 N   0  0  0  0  0  0  0  0  0  0  0  0
  194.3090  174.4320  137.2940 N   0  0  0  0  0  2  0  0  0  0  0  0
  195.5990  173.9540  138.3330 S   0  0  0  0  0  0  0  0  0  0  0  0
  195.8030  174.9340  139.4680 O   0  0  0  0  0  0  0  0  0  0  0  0
  195.3240  172.5610  138.8380 O   0  0  0  0  0  0  0  0  0  0  0  0
  197.7660  172.1340  136.9460 N   0  0  0  0  0  0  0  0  0  0  0  0
  197.0570  173.9740  137.2490 C   0  0  2  0  0  3  0  0  0  0  0  0
  196.3290  172.9910  135.0560 O   0  0  0  0  0  0  0  0  0  0  0  0
  196.8630  172.9950  136.1520 C   0  0  0  0  0  0  0  0  0  0  0  0
  198.0920  173.2090  137.7110 O   0  0  0  0  0  0  0  0  0  0  0  0
  199.2380  169.9460  136.9710 S   0  0  0  0  0  0  0  0  0  0  0  0
  197.8000  170.7060  137.0890 C   0  0  0  0  0  0  0  0  0  0  0  0
  196.5870  169.9720  137.5480 C   0  0  0  0  0  2  0  0  0  0  0  0
  195.7470  169.4560  136.3760 C   0  0  0  0  0  2  0  0  0  0  0  0
  193.8060  170.7640  136.2280 C   0  0  0  0  0  1  0  0  0  0  0  0
  193.6650  168.4900  135.8250 C   0  0  0  0  0  1  0  0  0  0  0  0
  194.3140  169.4790  136.6770 N   0  0  0  0  0  0  0  0  0  0  0  0
  190.0750  177.7420  142.7940 C   0  0  2  0  0  3  0  0  0  0  0  0
  191.5280  177.6490  142.7100 C   0  0  0  0  0  2  0  0  0  0  0  0
  190.7530  176.6600  143.4780 N   0  0  0  0  0  2  0  0  0  0  0  0
  187.4630  179.0760  141.4820 C   0  0  0  0  0  2  0  0  0  0  0  0
  186.2700  178.4010  142.1680 C   0  0  0  0  0  2  0  0  0  0  0  0
  184.8690  178.7170  141.6380 C   0  0  2  0  0  3  0  0  0  0  0  0
  183.8150  179.5390  139.5280 C   0  0  0  0  0  2  0  0  0  0  0  0
  183.7130  178.0520  142.3700 C   0  0  0  0  0  2  0  0  0  0  0  0
  181.7390  178.6830  140.8930 C   0  0  0  0  0  2  0  0  0  0  0  0
  182.5410  179.0270  142.1570 C   0  0  0  0  0  2  0  0  0  0  0  0
  182.3420  179.1970  139.5620 C   0  0  2  0  0  3  0  0  0  0  0  0
  184.8190  178.5480  140.1060 C   0  0  0  0  0  2  0  0  0  0  0  0
  180.2900  179.6220  134.8550 N   0  0  0  0  0  1  0  0  0  0  0  0
  181.0930  176.5010  136.8890 C   0  0  0  0  0  2  0  0  0  0  0  0
  180.3140  177.5390  136.0330 C   0  0  0  0  0  2  0  0  0  0  0  0
  181.7270  178.5280  138.2920 C   0  0  2  0  0  3  0  0  0  0  0  0
  182.1160  177.0810  137.8790 C   0  0  2  0  0  3  0  0  0  0  0  0
  181.0850  178.7950  135.7770 C   0  0  2  0  0  3  0  0  0  0  0  0
  181.4660  179.5240  137.1320 C   0  0  0  0  0  2  0  0  0  0  0  0
  184.5700  175.2720  135.4530 S   0  0  0  0  0  0  0  0  0  0  0  0
  183.9520  175.6390  137.0750 C   0  0  0  0  0  0  0  0  0  0  0  0
  184.3330  173.5250  135.8520 C   0  0  0  0  0  2  0  0  0  0  0  0
  183.4770  176.9490  137.3580 N   0  0  0  0  0  2  0  0  0  0  0  0
  184.2820  173.3790  137.3680 C   0  0  0  0  0  2  0  0  0  0  0  0
  183.8120  174.6520  137.9040 N   0  0  0  0  0  0  0  0  0  0  0  0
  1  6  1  0  0  0  0
  2  4  1  0  0  0  0
  2 32  1  0  0  0  0
  3  1  2  0  0  0  0
  3  7  1  0  0  0  0
  5  3  1  0  0  0  0
  5  7  1  0  0  0  0
  6  4  2  0  0  0  0
  7  2  2  0  0  0  0
  9 10  1  0  0  0  0
  9 12  1  0  0  0  0
 10 11  2  0  0  0  0
 11  8  1  0  0  0  0
 11  1  1  0  0  0  0
 12  8  2  0  0  0  0
 13  9  1  0  0  0  0
 13 14  1  0  0  0  0
 14 16  2  0  0  0  0
 14 15  2  0  0  0  0
 17 23  1  0  0  0  0
 17 21  1  0  0  0  0
 18 21  1  0  0  0  0
 18 14  1  1  0  0  0
 19 20  2  0  0  0  0
 20 17  1  0  0  0  0
 20 18  1  0  0  0  0
 22 23  2  0  0  0  0
 23 24  1  0  0  0  0
 25 28  1  0  0  0  0
 25 24  1  0  0  0  0
 26 28  1  0  0  0  0
 27 28  1  0  0  0  0
 29  4  1  6  0  0  0
 29 31  1  0  0  0  0
 30 29  1  0  0  0  0
 30 31  1  0  0  0  0
 32 33  1  0  0  0  0
 34 33  1  1  0  0  0
 34 36  1  0  0  0  0
 35 40  1  0  0  0  0
 37 38  1  0  0  0  0
 38 36  1  0  0  0  0
 39 35  1  1  0  0  0
 39 37  1  0  0  0  0
 40 34  1  0  0  0  0
 42 45  1  0  0  0  0
 43 42  1  0  0  0  0
 44 47  1  6  0  0  0
 44 39  1  0  0  0  0
 45 51  1  6  0  0  0
 45 44  1  0  0  0  0
 46 41  1  6  0  0  0
 46 43  1  0  0  0  0
 46 47  1  0  0  0  0
 48 50  1  0  0  0  0
 48 49  1  0  0  0  0
 49 51  1  0  0  0  0
 49 53  2  0  0  0  0
 50 52  1  0  0  0  0
 52 53  1  0  0  0  0
M  END
>  <MODEL>
8

>  <REMARK>
 VINA RESULT:      -6.5      3.294      7.949
  Name = 
  14 active torsions:
  status: ('A' for Active; 'I' for Inactive)
    1  A    between atoms: C_3  and  C_35
    2  A    between atoms: C_4  and  C_24
    3  A    between atoms: C_5  and  C_24
    4  A    between atoms: C_5  and  C_26
    5  A    between atoms: N_6  and  N_10
    6  A    between atoms: S_9  and  N_10
    7  A    between atoms: S_9  and  C_31
    8  A    between atoms: C_13  and  C_28
    9  A    between atoms: C_17  and  C_51
   10  A    between atoms: N_19  and  C_30
   11  A    between atoms: N_27  and  C_33
   12  A    between atoms: C_33  and  C_40
   13  A    between atoms: C_40  and  C_47
   14  A    between atoms: N_46  and  C_47
                            x       y       z     vdW  Elec       q    Type
                         _______ _______ _______ _____ _____    ______ ____

>  <TORSDO>
F 14

$$$$
=
 OpenBabel10232409273D

 53 60  0  0  1  0  0  0  0  0999 V2000
  190.3190  176.9780  139.8120 C   0  0  0  0  0  0  0  0  0  0  0  0
  188.0620  178.1190  141.4330 C   0  0  0  0  0  0  0  0  0  0  0  0
  189.2990  177.6860  139.2370 C   0  0  0  0  0  0  0  0  0  0  0  0
  189.1170  177.2930  141.9730 C   0  0  0  0  0  0  0  0  0  0  0  0
  188.1790  178.3850  138.7000 C   0  0  0  0  0  2  0  0  0  0  0  0
  190.1240  176.7660  141.1660 N   0  0  0  0  0  0  0  0  0  0  0  0
  188.2360  178.2120  140.0680 C   0  0  0  0  0  0  0  0  0  0  0  0
  192.7140  177.2730  139.9990 N   0  0  0  0  0  0  0  0  0  0  0  0
  193.4570  176.4540  138.1350 N   0  0  0  0  0  0  0  0  0  0  0  0
  192.0710  176.3560  138.0640 C   0  0  0  0  0  3  0  0  0  0  0  0
  191.6420  176.8730  139.2610 C   0  0  0  0  0  0  0  0  0  0  0  0
  193.7670  176.9770  139.2610 N   0  0  0  0  0  0  0  0  0  0  0  0
  194.2540  175.5140  137.5000 N   0  0  0  0  0  2  0  0  0  0  0  0
  194.7820  175.6420  135.8640 S   0  0  0  0  0  0  0  0  0  0  0  0
  193.7160  176.2370  134.9710 O   0  0  0  0  0  0  0  0  0  0  0  0
  196.0570  176.4440  135.8270 O   0  0  0  0  0  0  0  0  0  0  0  0
  196.7360  173.1960  136.2330 N   0  0  0  0  0  0  0  0  0  0  0  0
  195.0870  173.9190  135.3730 C   0  0  2  0  0  3  0  0  0  0  0  0
  194.6010  172.5050  137.3910 O   0  0  0  0  0  0  0  0  0  0  0  0
  195.3040  173.0960  136.5870 C   0  0  0  0  0  0  0  0  0  0  0  0
  196.3830  173.6750  135.0120 O   0  0  0  0  0  0  0  0  0  0  0  0
  198.0540  174.4780  138.1220 S   0  0  0  0  0  0  0  0  0  0  0  0
  197.8990  173.2410  137.0720 C   0  0  0  0  0  0  0  0  0  0  0  0
  198.8260  172.0750  137.1290 C   0  0  0  0  0  2  0  0  0  0  0  0
  198.0890  170.7430  136.9630 C   0  0  0  0  0  2  0  0  0  0  0  0
  197.6870  168.6910  138.0240 C   0  0  0  0  0  1  0  0  0  0  0  0
  199.6540  168.9820  136.8410 C   0  0  0  0  0  1  0  0  0  0  0  0
  198.7220  169.6670  137.7270 N   0  0  0  0  0  0  0  0  0  0  0  0
  189.4460  177.3420  143.3980 C   0  0  2  0  0  3  0  0  0  0  0  0
  190.3740  178.4560  143.5510 C   0  0  0  0  0  2  0  0  0  0  0  0
  190.8370  177.0650  143.6880 N   0  0  0  0  0  2  0  0  0  0  0  0
  186.9640  178.9320  142.1170 C   0  0  0  0  0  2  0  0  0  0  0  0
  185.6950  178.1290  142.4280 C   0  0  0  0  0  2  0  0  0  0  0  0
  184.3830  178.5930  141.7890 C   0  0  2  0  0  3  0  0  0  0  0  0
  183.6020  179.5420  139.6140 C   0  0  0  0  0  2  0  0  0  0  0  0
  183.1080  178.0400  142.4070 C   0  0  0  0  0  2  0  0  0  0  0  0
  181.3420  178.8860  140.7820 C   0  0  0  0  0  2  0  0  0  0  0  0
  182.0630  179.1310  142.1160 C   0  0  0  0  0  2  0  0  0  0  0  0
  182.1040  179.3510  139.5180 C   0  0  2  0  0  3  0  0  0  0  0  0
  184.4480  178.4470  140.2550 C   0  0  0  0  0  2  0  0  0  0  0  0
  180.2620  180.0680  134.7600 N   0  0  0  0  0  1  0  0  0  0  0  0
  180.9390  176.8270  136.6470 C   0  0  0  0  0  2  0  0  0  0  0  0
  180.2110  177.9220  135.8180 C   0  0  0  0  0  2  0  0  0  0  0  0
  181.5370  178.7630  138.1880 C   0  0  2  0  0  3  0  0  0  0  0  0
  181.9260  177.3370  137.7100 C   0  0  2  0  0  3  0  0  0  0  0  0
  181.0060  179.1800  135.6670 C   0  0  2  0  0  3  0  0  0  0  0  0
  181.3380  179.8260  137.0750 C   0  0  0  0  0  2  0  0  0  0  0  0
  184.5350  175.3840  135.5730 S   0  0  0  0  0  0  0  0  0  0  0  0
  183.8520  175.9060  137.1260 C   0  0  0  0  0  0  0  0  0  0  0  0
  184.3710  173.6850  136.1710 C   0  0  0  0  0  2  0  0  0  0  0  0
  183.3060  177.2140  137.2400 N   0  0  0  0  0  2  0  0  0  0  0  0
  184.2820  173.7160  137.6920 C   0  0  0  0  0  2  0  0  0  0  0  0
  183.7360  175.0180  138.0620 N   0  0  0  0  0  0  0  0  0  0  0  0
  1  6  1  0  0  0  0
  2  4  1  0  0  0  0
  2 32  1  0  0  0  0
  3  1  2  0  0  0  0
  3  7  1  0  0  0  0
  5  3  1  0  0  0  0
  5  7  1  0  0  0  0
  6  4  2  0  0  0  0
  7  2  2  0  0  0  0
  9 12  1  0  0  0  0
 10  9  1  0  0  0  0
 10 11  2  0  0  0  0
 11  1  1  0  0  0  0
 11  8  1  0  0  0  0
 12  8  2  0  0  0  0
 13  9  1  0  0  0  0
 14 13  1  0  0  0  0
 15 14  2  0  0  0  0
 16 14  2  0  0  0  0
 17 20  1  0  0  0  0
 17 23  1  0  0  0  0
 18 14  1  1  0  0  0
 18 20  1  0  0  0  0
 20 19  2  0  0  0  0
 21 18  1  0  0  0  0
 21 17  1  0  0  0  0
 23 24  1  0  0  0  0
 23 22  2  0  0  0  0
 25 24  1  0  0  0  0
 25 28  1  0  0  0  0
 27 28  1  0  0  0  0
 28 26  1  0  0  0  0
 29  4  1  6  0  0  0
 29 30  1  0  0  0  0
 29 31  1  0  0  0  0
 30 31  1  0  0  0  0
 32 33  1  0  0  0  0
 34 36  1  0  0  0  0
 34 33  1  1  0  0  0
 35 40  1  0  0  0  0
 37 38  1  0  0  0  0
 38 36  1  0  0  0  0
 39 35  1  1  0  0  0
 39 37  1  0  0  0  0
 40 34  1  0  0  0  0
 42 45  1  0  0  0  0
 43 42  1  0  0  0  0
 44 47  1  6  0  0  0
 44 39  1  0  0  0  0
 45 51  1  6  0  0  0
 45 44  1  0  0  0  0
 46 41  1  6  0  0  0
 46 43  1  0  0  0  0
 46 47  1  0  0  0  0
 48 50  1  0  0  0  0
 48 49  1  0  0  0  0
 49 51  1  0  0  0  0
 49 53  2  0  0  0  0
 50 52  1  0  0  0  0
 52 53  1  0  0  0  0
M  END
>  <MODEL>
9

>  <REMARK>
 VINA RESULT:      -6.5      3.101      7.815
  Name = 
  14 active torsions:
  status: ('A' for Active; 'I' for Inactive)
    1  A    between atoms: C_3  and  C_35
    2  A    between atoms: C_4  and  C_24
    3  A    between atoms: C_5  and  C_24
    4  A    between atoms: C_5  and  C_26
    5  A    between atoms: N_6  and  N_10
    6  A    between atoms: S_9  and  N_10
    7  A    between atoms: S_9  and  C_31
    8  A    between atoms: C_13  and  C_28
    9  A    between atoms: C_17  and  C_51
   10  A    between atoms: N_19  and  C_30
   11  A    between atoms: N_27  and  C_33
   12  A    between atoms: C_33  and  C_40
   13  A    between atoms: C_40  and  C_47
   14  A    between atoms: N_46  and  C_47
                            x       y       z     vdW  Elec       q    Type
                         _______ _______ _______ _____ _____    ______ ____

>  <TORSDO>
F 14

$$$$
