=
 OpenBabel10222421533D

 40 44  0  0  1  0  0  0  0  0999 V2000
  187.5270  175.4600  135.2530 N   0  0  0  0  0  2  0  0  0  0  0  0
  188.0380  174.2750  135.3080 C   0  0  0  0  0  2  0  0  0  0  0  0
  183.7210  177.1260  137.0550 C   0  0  0  0  0  3  0  0  0  0  0  0
  183.2100  176.0640  136.5040 N   0  0  0  0  0  0  0  0  0  0  0  0
  191.9990  174.0860  136.8610 C   0  0  0  0  0  0  0  0  0  0  0  0
  189.4640  174.2180  135.6470 C   0  0  0  0  0  0  0  0  0  0  0  0
  186.1840  175.8170  135.5320 C   0  0  0  0  0  0  0  0  0  0  0  0
  191.5640  176.3650  137.9160 C   0  0  0  0  0  2  0  0  0  0  0  0
  185.1100  174.8130  135.4880 C   0  0  0  0  0  3  0  0  0  0  0  0
  189.5030  178.4640  138.9970 S   0  0  0  0  0  0  0  0  0  0  0  0
  189.9580  175.2810  136.4100 C   0  0  0  0  0  3  0  0  0  0  0  0
  183.8400  174.9300  135.8860 C   0  0  0  0  0  3  0  0  0  0  0  0
  191.5100  173.0050  136.0940 C   0  0  0  0  0  3  0  0  0  0  0  0
  190.9630  176.1750  139.2330 N   0  0  0  0  0  0  0  0  0  0  0  0
  187.7670  177.9960  139.3120 C   0  0  2  0  0  3  0  0  0  0  0  0
  190.1250  176.9870  139.8140 C   0  0  0  0  0  0  0  0  0  0  0  0
  186.1460  176.9380  136.2270 C   0  0  0  0  0  3  0  0  0  0  0  0
  186.9190  178.5500  138.2560 N   0  0  0  0  0  2  0  0  0  0  0  0
  186.1860  178.9950  140.7980 O   0  0  0  0  0  0  0  0  0  0  0  0
  187.3320  178.4900  140.6680 C   0  0  0  0  0  0  0  0  0  0  0  0
  191.2000  175.2310  137.0160 C   0  0  0  0  0  0  0  0  0  0  0  0
  188.1450  178.3800  141.8480 N   0  0  0  0  0  0  0  0  0  0  0  0
  189.1920  177.6480  142.0980 C   0  0  0  0  0  0  0  0  0  0  0  0
  185.1450  177.4540  137.1430 C   0  0  0  0  0  0  0  0  0  0  0  0
  190.2360  173.0610  135.5050 C   0  0  0  0  0  3  0  0  0  0  0  0
  185.5600  178.1980  138.1250 N   0  0  0  0  0  0  0  0  0  0  0  0
  189.7610  176.7180  141.1680 N   0  0  0  0  0  2  0  0  0  0  0  0
  193.2500  174.0260  137.4870 O   0  0  0  0  0  0  0  0  0  0  0  0
  194.4060  173.5060  136.8420 C   0  0  0  0  0  2  0  0  0  0  0  0
  195.5870  173.4980  137.8020 C   0  0  2  0  0  3  0  0  0  0  0  0
  195.2950  172.7000  138.9100 O   0  0  0  0  0  1  0  0  0  0  0  0
  196.0620  174.6910  139.6030 C   0  0  0  0  0  1  0  0  0  0  0  0
  195.8850  174.7960  138.2220 O   0  0  0  0  0  0  0  0  0  0  0  0
  189.8020  177.7340  143.4540 C   0  0  0  0  0  2  0  0  0  0  0  0
  186.4490  177.2200  145.1500 C   0  0  0  0  0  3  0  0  0  0  0  0
  188.7440  177.6620  144.5060 C   0  0  0  0  0  0  0  0  0  0  0  0
  186.7680  177.5080  146.4810 C   0  0  0  0  0  3  0  0  0  0  0  0
  188.0750  177.8650  146.8280 C   0  0  0  0  0  3  0  0  0  0  0  0
  187.4360  177.2950  144.1630 C   0  0  0  0  0  3  0  0  0  0  0  0
  189.0630  177.9400  145.8400 C   0  0  0  0  0  3  0  0  0  0  0  0
  1  2  1  0  0  0  0
  1  7  1  0  0  0  0
  2  6  1  0  0  0  0
  3 24  1  0  0  0  0
  4  3  2  0  0  0  0
  5 21  1  0  0  0  0
  5 28  1  0  0  0  0
  6 11  1  0  0  0  0
  7 17  2  0  0  0  0
  8 14  1  0  0  0  0
  9  7  1  0  0  0  0
  9 12  2  0  0  0  0
 10 15  1  0  0  0  0
 10 16  1  0  0  0  0
 11 21  2  0  0  0  0
 12  4  1  0  0  0  0
 13  5  2  0  0  0  0
 14 16  2  0  0  0  0
 15 18  1  6  0  0  0
 15 20  1  0  0  0  0
 16 27  1  0  0  0  0
 17 24  1  0  0  0  0
 20 19  2  0  0  0  0
 20 22  1  0  0  0  0
 21  8  1  0  0  0  0
 22 23  2  0  0  0  0
 23 34  1  0  0  0  0
 24 26  2  0  0  0  0
 25  6  2  0  0  0  0
 25 13  1  0  0  0  0
 26 18  1  0  0  0  0
 27 23  1  0  0  0  0
 29 28  1  0  0  0  0
 29 30  1  0  0  0  0
 30 33  1  0  0  0  0
 30 31  1  1  0  0  0
 33 32  1  0  0  0  0
 34 36  1  0  0  0  0
 35 37  1  0  0  0  0
 36 40  2  0  0  0  0
 37 38  2  0  0  0  0
 39 36  1  0  0  0  0
 39 35  2  0  0  0  0
 40 38  1  0  0  0  0
M  END
>  <MODEL>
1

>  <REMARK>
 VINA RESULT:      -9.4      0.000      0.000
  Name = 
  6 active torsions:
  status: ('A' for Active; 'I' for Inactive)
    1  A    between atoms: C_4  and  C_22
    2  A    between atoms: C_7  and  O_13
    3  A    between atoms: C_10  and  O_13
    4  A    between atoms: C_10  and  C_28
    5  A    between atoms: C_22  and  C_35
    6  A    between atoms: C_28  and  O_30
                            x       y       z     vdW  Elec       q    Type
                         _______ _______ _______ _____ _____    ______ ____

>  <TORSDO>
F 6

$$$$
=
 OpenBabel10222421533D

 40 44  0  0  1  0  0  0  0  0999 V2000
  184.8350  176.6610  137.2370 N   0  0  0  0  0  2  0  0  0  0  0  0
  185.6150  175.6740  136.9450 C   0  0  0  0  0  2  0  0  0  0  0  0
  181.0610  176.8100  139.7350 C   0  0  0  0  0  3  0  0  0  0  0  0
  180.7390  175.7980  138.9820 N   0  0  0  0  0  0  0  0  0  0  0  0
  189.6960  176.2140  138.0380 C   0  0  0  0  0  0  0  0  0  0  0  0
  187.0480  175.9270  137.1290 C   0  0  0  0  0  0  0  0  0  0  0  0
  183.5040  176.5760  137.7160 C   0  0  0  0  0  0  0  0  0  0  0  0
  188.8970  178.0030  139.6680 C   0  0  0  0  0  2  0  0  0  0  0  0
  182.7050  175.3570  137.5170 C   0  0  0  0  0  3  0  0  0  0  0  0
  186.5840  179.1830  141.4240 S   0  0  0  0  0  0  0  0  0  0  0  0
  187.3850  176.8880  138.0880 C   0  0  0  0  0  3  0  0  0  0  0  0
  181.5200  175.0390  138.0440 C   0  0  0  0  0  3  0  0  0  0  0  0
  189.3670  175.2380  137.0700 C   0  0  0  0  0  3  0  0  0  0  0  0
  188.5650  177.3730  140.9430 N   0  0  0  0  0  0  0  0  0  0  0  0
  185.0780  178.2100  141.7650 C   0  0  2  0  0  3  0  0  0  0  0  0
  187.6560  177.7830  141.7830 C   0  0  0  0  0  0  0  0  0  0  0  0
  183.3070  177.4640  138.6720 C   0  0  0  0  0  3  0  0  0  0  0  0
  183.9720  178.7360  140.9640 N   0  0  0  0  0  2  0  0  0  0  0  0
  183.5490  178.3970  143.5910 O   0  0  0  0  0  0  0  0  0  0  0  0
  184.7480  178.2580  143.2360 C   0  0  0  0  0  0  0  0  0  0  0  0
  188.6810  177.0400  138.5480 C   0  0  0  0  0  0  0  0  0  0  0  0
  185.7340  178.1120  144.2720 N   0  0  0  0  0  0  0  0  0  0  0  0
  186.9500  177.6510  144.2340 C   0  0  0  0  0  0  0  0  0  0  0  0
  182.3620  177.4790  139.7740 C   0  0  0  0  0  0  0  0  0  0  0  0
  188.0430  175.0790  136.6310 C   0  0  0  0  0  3  0  0  0  0  0  0
  182.7320  178.0710  140.8700 N   0  0  0  0  0  0  0  0  0  0  0  0
  187.5760  177.1350  143.0530 N   0  0  0  0  0  2  0  0  0  0  0  0
  191.0050  176.3540  138.5140 O   0  0  0  0  0  0  0  0  0  0  0  0
  192.1250  176.4930  137.6480 C   0  0  0  0  0  2  0  0  0  0  0  0
  193.3930  176.0220  138.3450 C   0  0  2  0  0  3  0  0  0  0  0  0
  193.7920  176.9640  139.2950 O   0  0  0  0  0  1  0  0  0  0  0  0
  193.8740  176.2360  136.1970 C   0  0  0  0  0  1  0  0  0  0  0  0
  194.4180  175.8270  137.4160 O   0  0  0  0  0  0  0  0  0  0  0  0
  187.7200  177.5950  145.5070 C   0  0  0  0  0  2  0  0  0  0  0  0
  191.4390  176.8470  145.5400 C   0  0  0  0  0  3  0  0  0  0  0  0
  189.1860  177.6890  145.2330 C   0  0  0  0  0  0  0  0  0  0  0  0
  191.9280  177.8540  144.7020 C   0  0  0  0  0  3  0  0  0  0  0  0
  191.0480  178.7740  144.1230 C   0  0  0  0  0  3  0  0  0  0  0  0
  190.0680  176.7630  145.8050 C   0  0  0  0  0  3  0  0  0  0  0  0
  189.6770  178.6900  144.3870 C   0  0  0  0  0  3  0  0  0  0  0  0
  1  7  1  0  0  0  0
  2  6  1  0  0  0  0
  2  1  1  0  0  0  0
  3 24  1  0  0  0  0
  4  3  2  0  0  0  0
  5 28  1  0  0  0  0
  5 21  1  0  0  0  0
  6 11  1  0  0  0  0
  7 17  2  0  0  0  0
  8 14  1  0  0  0  0
  9  7  1  0  0  0  0
  9 12  2  0  0  0  0
 10 15  1  0  0  0  0
 10 16  1  0  0  0  0
 11 21  2  0  0  0  0
 12  4  1  0  0  0  0
 13  5  2  0  0  0  0
 14 16  2  0  0  0  0
 15 18  1  6  0  0  0
 15 20  1  0  0  0  0
 16 27  1  0  0  0  0
 17 24  1  0  0  0  0
 20 19  2  0  0  0  0
 20 22  1  0  0  0  0
 21  8  1  0  0  0  0
 23 22  2  0  0  0  0
 23 34  1  0  0  0  0
 24 26  2  0  0  0  0
 25 13  1  0  0  0  0
 25  6  2  0  0  0  0
 26 18  1  0  0  0  0
 27 23  1  0  0  0  0
 29 30  1  0  0  0  0
 29 28  1  0  0  0  0
 30 31  1  1  0  0  0
 32 33  1  0  0  0  0
 33 30  1  0  0  0  0
 35 39  1  0  0  0  0
 36 34  1  0  0  0  0
 36 39  2  0  0  0  0
 37 35  2  0  0  0  0
 38 40  2  0  0  0  0
 38 37  1  0  0  0  0
 40 36  1  0  0  0  0
M  END
>  <MODEL>
2

>  <REMARK>
 VINA RESULT:      -9.2      2.376      3.555
  Name = 
  6 active torsions:
  status: ('A' for Active; 'I' for Inactive)
    1  A    between atoms: C_4  and  C_22
    2  A    between atoms: C_7  and  O_13
    3  A    between atoms: C_10  and  O_13
    4  A    between atoms: C_10  and  C_28
    5  A    between atoms: C_22  and  C_35
    6  A    between atoms: C_28  and  O_30
                            x       y       z     vdW  Elec       q    Type
                         _______ _______ _______ _____ _____    ______ ____

>  <TORSDO>
F 6

$$$$
=
 OpenBabel10222421533D

 40 44  0  0  1  0  0  0  0  0999 V2000
  185.9020  176.9970  137.0340 N   0  0  0  0  0  2  0  0  0  0  0  0
  186.3160  175.8230  136.6940 C   0  0  0  0  0  2  0  0  0  0  0  0
  182.5200  178.2660  139.7660 C   0  0  0  0  0  3  0  0  0  0  0  0
  181.8540  177.4200  139.0350 N   0  0  0  0  0  0  0  0  0  0  0  0
  190.4200  175.0420  137.5260 C   0  0  0  0  0  0  0  0  0  0  0  0
  187.7650  175.6130  136.7870 C   0  0  0  0  0  0  0  0  0  0  0  0
  184.6420  177.3220  137.5960 C   0  0  0  0  0  0  0  0  0  0  0  0
  190.3180  176.9600  139.2020 C   0  0  0  0  0  2  0  0  0  0  0  0
  183.4920  176.4170  137.4490 C   0  0  0  0  0  3  0  0  0  0  0  0
  188.5990  178.7670  141.1010 S   0  0  0  0  0  0  0  0  0  0  0  0
  188.4420  176.4020  137.7220 C   0  0  0  0  0  3  0  0  0  0  0  0
  182.3010  176.4740  138.0500 C   0  0  0  0  0  3  0  0  0  0  0  0
  189.7450  174.2370  136.5820 C   0  0  0  0  0  3  0  0  0  0  0  0
  189.8840  176.4400  140.4970 N   0  0  0  0  0  0  0  0  0  0  0  0
  186.8880  178.3060  141.5370 C   0  0  2  0  0  3  0  0  0  0  0  0
  189.2010  177.0970  141.3920 C   0  0  0  0  0  0  0  0  0  0  0  0
  184.7900  178.2090  138.5620 C   0  0  0  0  0  3  0  0  0  0  0  0
  185.9560  179.1650  140.8070 N   0  0  0  0  0  2  0  0  0  0  0  0
  185.6070  178.9250  143.4560 O   0  0  0  0  0  0  0  0  0  0  0  0
  186.6800  178.4260  143.0260 C   0  0  0  0  0  0  0  0  0  0  0  0
  189.7450  176.1340  138.0990 C   0  0  0  0  0  0  0  0  0  0  0  0
  187.6300  177.9600  143.9970 N   0  0  0  0  0  0  0  0  0  0  0  0
  188.6370  177.1430  143.8830 C   0  0  0  0  0  0  0  0  0  0  0  0
  183.9650  178.4960  139.7220 C   0  0  0  0  0  0  0  0  0  0  0  0
  188.4130  174.5070  136.2270 C   0  0  0  0  0  3  0  0  0  0  0  0
  184.5670  178.9220  140.7930 N   0  0  0  0  0  0  0  0  0  0  0  0
  188.9990  176.4810  142.6640 N   0  0  0  0  0  2  0  0  0  0  0  0
  191.7330  174.7590  137.9190 O   0  0  0  0  0  0  0  0  0  0  0  0
  192.7890  174.5760  136.9840 C   0  0  0  0  0  2  0  0  0  0  0  0
  193.3680  175.9230  136.5720 C   0  0  2  0  0  3  0  0  0  0  0  0
  193.0980  176.1650  135.2240 O   0  0  0  0  0  1  0  0  0  0  0  0
  195.1690  174.6390  136.5430 C   0  0  0  0  0  1  0  0  0  0  0  0
  194.7480  175.9470  136.7880 O   0  0  0  0  0  0  0  0  0  0  0  0
  189.4270  176.8260  145.1050 C   0  0  0  0  0  2  0  0  0  0  0  0
  188.8690  178.2400  148.5800 C   0  0  0  0  0  3  0  0  0  0  0  0
  188.7490  177.3720  146.3190 C   0  0  0  0  0  0  0  0  0  0  0  0
  187.4820  178.4140  148.5850 C   0  0  0  0  0  3  0  0  0  0  0  0
  186.7280  178.0760  147.4560 C   0  0  0  0  0  3  0  0  0  0  0  0
  189.5030  177.7200  147.4470 C   0  0  0  0  0  3  0  0  0  0  0  0
  187.3630  177.5570  146.3230 C   0  0  0  0  0  3  0  0  0  0  0  0
  1  7  1  0  0  0  0
  2  6  1  0  0  0  0
  2  1  1  0  0  0  0
  4  3  2  0  0  0  0
  5 28  1  0  0  0  0
  5 21  1  0  0  0  0
  6 11  1  0  0  0  0
  7 17  2  0  0  0  0
  8 14  1  0  0  0  0
  9  7  1  0  0  0  0
  9 12  2  0  0  0  0
 10 16  1  0  0  0  0
 10 15  1  0  0  0  0
 11 21  2  0  0  0  0
 12  4  1  0  0  0  0
 13  5  2  0  0  0  0
 14 16  2  0  0  0  0
 15 18  1  6  0  0  0
 15 20  1  0  0  0  0
 16 27  1  0  0  0  0
 17 24  1  0  0  0  0
 20 19  2  0  0  0  0
 20 22  1  0  0  0  0
 21  8  1  0  0  0  0
 23 22  2  0  0  0  0
 23 34  1  0  0  0  0
 24  3  1  0  0  0  0
 24 26  2  0  0  0  0
 25 13  1  0  0  0  0
 25  6  2  0  0  0  0
 26 18  1  0  0  0  0
 27 23  1  0  0  0  0
 29 28  1  0  0  0  0
 30 31  1  6  0  0  0
 30 33  1  0  0  0  0
 30 29  1  0  0  0  0
 32 33  1  0  0  0  0
 34 36  1  0  0  0  0
 35 37  1  0  0  0  0
 36 40  2  0  0  0  0
 36 39  1  0  0  0  0
 38 37  2  0  0  0  0
 39 35  2  0  0  0  0
 40 38  1  0  0  0  0
M  END
>  <MODEL>
3

>  <REMARK>
 VINA RESULT:      -8.7      1.858      2.694
  Name = 
  6 active torsions:
  status: ('A' for Active; 'I' for Inactive)
    1  A    between atoms: C_4  and  C_22
    2  A    between atoms: C_7  and  O_13
    3  A    between atoms: C_10  and  O_13
    4  A    between atoms: C_10  and  C_28
    5  A    between atoms: C_22  and  C_35
    6  A    between atoms: C_28  and  O_30
                            x       y       z     vdW  Elec       q    Type
                         _______ _______ _______ _____ _____    ______ ____

>  <TORSDO>
F 6

$$$$
=
 OpenBabel10222421533D

 40 44  0  0  1  0  0  0  0  0999 V2000
  184.8630  177.6740  137.1950 N   0  0  0  0  0  2  0  0  0  0  0  0
  185.4800  176.7250  136.5750 C   0  0  0  0  0  2  0  0  0  0  0  0
  181.6470  177.5250  140.3800 C   0  0  0  0  0  3  0  0  0  0  0  0
  181.0990  176.7040  139.5320 N   0  0  0  0  0  0  0  0  0  0  0  0
  189.7260  176.8100  136.9110 C   0  0  0  0  0  0  0  0  0  0  0  0
  186.9400  176.8570  136.5130 C   0  0  0  0  0  0  0  0  0  0  0  0
  183.6410  177.5680  137.9060 C   0  0  0  0  0  0  0  0  0  0  0  0
  189.4110  178.2780  138.9710 C   0  0  0  0  0  2  0  0  0  0  0  0
  182.7100  176.4590  137.6480 C   0  0  0  0  0  3  0  0  0  0  0  0
  187.5840  179.2060  141.3420 S   0  0  0  0  0  0  0  0  0  0  0  0
  187.5370  177.5860  137.5460 C   0  0  0  0  0  3  0  0  0  0  0  0
  181.6190  176.1080  138.3330 C   0  0  0  0  0  3  0  0  0  0  0  0
  189.1340  176.0680  135.8640 C   0  0  0  0  0  3  0  0  0  0  0  0
  189.2650  177.4240  140.1480 N   0  0  0  0  0  0  0  0  0  0  0  0
  186.0830  178.2690  141.7910 C   0  0  2  0  0  3  0  0  0  0  0  0
  188.5690  177.7070  141.2130 C   0  0  0  0  0  0  0  0  0  0  0  0
  183.7080  178.2560  139.0300 C   0  0  0  0  0  3  0  0  0  0  0  0
  184.9020  179.0040  141.3390 N   0  0  0  0  0  2  0  0  0  0  0  0
  184.9430  178.1700  143.8880 O   0  0  0  0  0  0  0  0  0  0  0  0
  186.0380  178.0390  143.2800 C   0  0  0  0  0  0  0  0  0  0  0  0
  188.9030  177.5720  137.7580 C   0  0  0  0  0  0  0  0  0  0  0  0
  187.1800  177.6350  144.0530 N   0  0  0  0  0  0  0  0  0  0  0  0
  188.3210  177.1240  143.6870 C   0  0  0  0  0  0  0  0  0  0  0  0
  182.9890  178.1010  140.2830 C   0  0  0  0  0  0  0  0  0  0  0  0
  187.7420  176.0730  135.6770 C   0  0  0  0  0  3  0  0  0  0  0  0
  183.6090  178.4410  141.3730 N   0  0  0  0  0  0  0  0  0  0  0  0
  188.6670  176.8230  142.3300 N   0  0  0  0  0  2  0  0  0  0  0  0
  191.1070  176.7810  137.1330 O   0  0  0  0  0  0  0  0  0  0  0  0
  191.8630  175.5770  137.0980 C   0  0  0  0  0  2  0  0  0  0  0  0
  193.1200  175.7170  137.9460 C   0  0  2  0  0  3  0  0  0  0  0  0
  193.7710  176.9130  137.6390 O   0  0  0  0  0  1  0  0  0  0  0  0
  193.2800  173.7950  136.8630 C   0  0  0  0  0  1  0  0  0  0  0  0
  193.9820  174.6410  137.7240 O   0  0  0  0  0  0  0  0  0  0  0  0
  189.3050  176.7730  144.7480 C   0  0  0  0  0  2  0  0  0  0  0  0
  189.3570  178.0380  148.3230 C   0  0  0  0  0  3  0  0  0  0  0  0
  188.8500  177.2900  146.0740 C   0  0  0  0  0  0  0  0  0  0  0  0
  187.9990  178.2810  148.5480 C   0  0  0  0  0  3  0  0  0  0  0  0
  187.0660  178.0380  147.5350 C   0  0  0  0  0  3  0  0  0  0  0  0
  189.7840  177.5440  147.0860 C   0  0  0  0  0  3  0  0  0  0  0  0
  187.4920  177.5450  146.2970 C   0  0  0  0  0  3  0  0  0  0  0  0
  1  7  1  0  0  0  0
  2  1  1  0  0  0  0
  4  3  2  0  0  0  0
  5 28  1  0  0  0  0
  5 21  1  0  0  0  0
  6  2  1  0  0  0  0
  6 11  1  0  0  0  0
  7 17  2  0  0  0  0
  8 14  1  0  0  0  0
  9  7  1  0  0  0  0
  9 12  2  0  0  0  0
 10 15  1  0  0  0  0
 11 21  2  0  0  0  0
 12  4  1  0  0  0  0
 13  5  2  0  0  0  0
 14 16  2  0  0  0  0
 15 18  1  1  0  0  0
 15 20  1  0  0  0  0
 16 10  1  0  0  0  0
 16 27  1  0  0  0  0
 17 24  1  0  0  0  0
 18 26  1  0  0  0  0
 20 19  2  0  0  0  0
 20 22  1  0  0  0  0
 21  8  1  0  0  0  0
 23 22  2  0  0  0  0
 23 34  1  0  0  0  0
 24  3  1  0  0  0  0
 24 26  2  0  0  0  0
 25 13  1  0  0  0  0
 25  6  2  0  0  0  0
 27 23  1  0  0  0  0
 29 28  1  0  0  0  0
 29 30  1  0  0  0  0
 30 31  1  6  0  0  0
 32 33  1  0  0  0  0
 33 30  1  0  0  0  0
 34 36  1  0  0  0  0
 35 37  1  0  0  0  0
 36 40  2  0  0  0  0
 36 39  1  0  0  0  0
 38 37  2  0  0  0  0
 39 35  2  0  0  0  0
 40 38  1  0  0  0  0
M  END
>  <MODEL>
4

>  <REMARK>
 VINA RESULT:      -8.6      2.134      3.302
  Name = 
  6 active torsions:
  status: ('A' for Active; 'I' for Inactive)
    1  A    between atoms: C_4  and  C_22
    2  A    between atoms: C_7  and  O_13
    3  A    between atoms: C_10  and  O_13
    4  A    between atoms: C_10  and  C_28
    5  A    between atoms: C_22  and  C_35
    6  A    between atoms: C_28  and  O_30
                            x       y       z     vdW  Elec       q    Type
                         _______ _______ _______ _____ _____    ______ ____

>  <TORSDO>
F 6

$$$$
=
 OpenBabel10222421533D

 40 44  0  0  1  0  0  0  0  0999 V2000
  186.8940  178.8050  142.4340 N   0  0  0  0  0  2  0  0  0  0  0  0
  185.8340  178.4420  143.0770 C   0  0  0  0  0  2  0  0  0  0  0  0
  190.6990  176.5410  141.4820 C   0  0  0  0  0  3  0  0  0  0  0  0
  190.6490  176.2820  142.7570 N   0  0  0  0  0  2  0  0  0  0  0  0
  182.1900  178.7920  140.9000 C   0  0  0  0  0  0  0  0  0  0  0  0
  184.5600  178.7460  142.4170 C   0  0  0  0  0  0  0  0  0  0  0  0
  188.1670  178.1830  142.4780 C   0  0  0  0  0  0  0  0  0  0  0  0
  183.6010  178.8070  138.7780 C   0  0  0  0  0  2  0  0  0  0  0  0
  188.5460  177.3150  143.6030 C   0  0  0  0  0  3  0  0  0  0  0  0
  186.2760  178.0370  137.3360 S   0  0  0  0  0  0  0  0  0  0  0  0
  184.5940  178.8310  141.0220 C   0  0  0  0  0  3  0  0  0  0  0  0
  189.6140  176.5220  143.7240 C   0  0  0  0  0  3  0  0  0  0  0  0
  182.1430  178.7050  142.3100 C   0  0  0  0  0  3  0  0  0  0  0  0
  183.8140  177.4310  138.3360 N   0  0  0  0  0  0  0  0  0  0  0  0
  187.4390  176.8510  138.0920 C   0  0  2  0  0  3  0  0  0  0  0  0
  184.8590  176.9880  137.6950 C   0  0  0  0  0  0  0  0  0  0  0  0
  188.6870  178.1250  141.2670 C   0  0  0  0  0  3  0  0  0  0  0  0
  188.5940  177.5770  138.6200 N   0  0  0  0  0  2  0  0  0  0  0  0
  189.0740  175.4680  137.0340 O   0  0  0  0  0  0  0  0  0  0  0  0
  187.8670  175.8220  137.0760 C   0  0  0  0  0  0  0  0  0  0  0  0
  183.4400  178.8520  140.2610 C   0  0  0  0  0  0  0  0  0  0  0  0
  186.9560  175.1830  136.1660 N   0  0  0  0  0  0  0  0  0  0  0  0
  185.6580  175.0960  136.1780 C   0  0  0  0  0  0  0  0  0  0  0  0
  189.6660  177.2160  140.6960 C   0  0  0  0  0  0  0  0  0  0  0  0
  183.3250  178.6600  143.0670 C   0  0  0  0  0  3  0  0  0  0  0  0
  189.5670  176.9520  139.4270 N   0  0  0  0  0  2  0  0  0  0  0  0
  184.8260  175.6480  137.2060 N   0  0  0  0  0  2  0  0  0  0  0  0
  181.0200  178.7960  140.1320 O   0  0  0  0  0  0  0  0  0  0  0  0
  179.9830  177.8400  140.3110 C   0  0  0  0  0  2  0  0  0  0  0  0
  180.0900  176.7430  139.2600 C   0  0  2  0  0  3  0  0  0  0  0  0
  181.0640  175.8170  139.6370 O   0  0  0  0  0  1  0  0  0  0  0  0
  180.5990  176.1830  137.1820 C   0  0  0  0  0  1  0  0  0  0  0  0
  180.4130  177.2880  138.0160 O   0  0  0  0  0  0  0  0  0  0  0  0
  184.9950  174.3210  135.0920 C   0  0  0  0  0  2  0  0  0  0  0  0
  181.6750  172.6920  135.9310 C   0  0  0  0  0  3  0  0  0  0  0  0
  183.9830  173.3830  135.6640 C   0  0  0  0  0  0  0  0  0  0  0  0
  182.0900  171.6140  136.7190 C   0  0  0  0  0  3  0  0  0  0  0  0
  183.4500  171.4140  136.9740 C   0  0  0  0  0  3  0  0  0  0  0  0
  182.6210  173.5760  135.4020 C   0  0  0  0  0  3  0  0  0  0  0  0
  184.3970  172.2980  136.4440 C   0  0  0  0  0  3  0  0  0  0  0  0
  1  7  1  0  0  0  0
  1  2  1  0  0  0  0
  3  4  1  0  0  0  0
  4 12  1  0  0  0  0
  5 13  1  0  0  0  0
  6 25  1  0  0  0  0
  6  2  1  0  0  0  0
  7  9  1  0  0  0  0
  8 21  1  0  0  0  0
  9 12  2  0  0  0  0
 10 16  1  0  0  0  0
 10 15  1  0  0  0  0
 11  6  2  0  0  0  0
 13 25  2  0  0  0  0
 14  8  1  0  0  0  0
 15 20  1  6  0  0  0
 15 18  1  0  0  0  0
 16 14  2  0  0  0  0
 17  7  2  0  0  0  0
 18 26  1  0  0  0  0
 19 20  2  0  0  0  0
 21  5  2  0  0  0  0
 21 11  1  0  0  0  0
 22 23  2  0  0  0  0
 22 20  1  0  0  0  0
 23 27  1  0  0  0  0
 24 17  1  0  0  0  0
 24  3  2  0  0  0  0
 26 24  1  0  0  0  0
 27 16  1  0  0  0  0
 28 29  1  0  0  0  0
 28  5  1  0  0  0  0
 30 31  1  1  0  0  0
 30 29  1  0  0  0  0
 32 33  1  0  0  0  0
 33 30  1  0  0  0  0
 34 36  1  0  0  0  0
 34 23  1  0  0  0  0
 35 37  1  0  0  0  0
 36 40  2  0  0  0  0
 37 38  2  0  0  0  0
 39 36  1  0  0  0  0
 39 35  2  0  0  0  0
 40 38  1  0  0  0  0
M  END
>  <MODEL>
5

>  <REMARK>
 VINA RESULT:      -8.3      3.392      9.959
  Name = 
  6 active torsions:
  status: ('A' for Active; 'I' for Inactive)
    1  A    between atoms: C_4  and  C_22
    2  A    between atoms: C_7  and  O_13
    3  A    between atoms: C_10  and  O_13
    4  A    between atoms: C_10  and  C_28
    5  A    between atoms: C_22  and  C_35
    6  A    between atoms: C_28  and  O_30
                            x       y       z     vdW  Elec       q    Type
                         _______ _______ _______ _____ _____    ______ ____

>  <TORSDO>
F 6

$$$$
=
 OpenBabel10222421533D

 40 44  0  0  1  0  0  0  0  0999 V2000
  186.6990  178.8260  142.2960 N   0  0  0  0  0  2  0  0  0  0  0  0
  185.6080  178.4710  142.8880 C   0  0  0  0  0  2  0  0  0  0  0  0
  190.5340  176.5380  141.5430 C   0  0  0  0  0  3  0  0  0  0  0  0
  190.4200  176.2850  142.8150 N   0  0  0  0  0  2  0  0  0  0  0  0
  182.0770  178.8320  140.5330 C   0  0  0  0  0  0  0  0  0  0  0  0
  184.3690  178.7800  142.1650 C   0  0  0  0  0  0  0  0  0  0  0  0
  187.9650  178.1980  142.4060 C   0  0  0  0  0  0  0  0  0  0  0  0
  183.5910  178.8300  138.4830 C   0  0  0  0  0  2  0  0  0  0  0  0
  188.2840  177.3330  143.5520 C   0  0  0  0  0  3  0  0  0  0  0  0
  186.3290  178.0400  137.1780 S   0  0  0  0  0  0  0  0  0  0  0  0
  184.4730  178.8580  140.7730 C   0  0  0  0  0  3  0  0  0  0  0  0
  189.3400  176.5350  143.7280 C   0  0  0  0  0  3  0  0  0  0  0  0
  181.9600  178.7500  141.9390 C   0  0  0  0  0  3  0  0  0  0  0  0
  183.8180  177.4500  138.0580 N   0  0  0  0  0  0  0  0  0  0  0  0
  187.4470  176.8510  137.9950 C   0  0  2  0  0  3  0  0  0  0  0  0
  184.8910  177.0000  137.4710 C   0  0  0  0  0  0  0  0  0  0  0  0
  188.5440  178.1320  141.2220 C   0  0  0  0  0  3  0  0  0  0  0  0
  188.5790  177.5730  138.5760 N   0  0  0  0  0  2  0  0  0  0  0  0
  189.1250  175.4550  137.0250 O   0  0  0  0  0  0  0  0  0  0  0  0
  187.9190  175.8150  137.0050 C   0  0  0  0  0  0  0  0  0  0  0  0
  183.3570  178.8820  139.9560 C   0  0  0  0  0  0  0  0  0  0  0  0
  187.0520  175.1770  136.0540 N   0  0  0  0  0  0  0  0  0  0  0  0
  185.7540  175.0960  136.0030 C   0  0  0  0  0  0  0  0  0  0  0  0
  189.5450  177.2160  140.7040 C   0  0  0  0  0  0  0  0  0  0  0  0
  183.1030  178.7030  142.7540 C   0  0  0  0  0  3  0  0  0  0  0  0
  189.5080  176.9470  139.4330 N   0  0  0  0  0  2  0  0  0  0  0  0
  184.8750  175.6570  136.9860 N   0  0  0  0  0  2  0  0  0  0  0  0
  180.9460  178.8380  139.7080 O   0  0  0  0  0  0  0  0  0  0  0  0
  180.0120  179.9110  139.6970 C   0  0  0  0  0  2  0  0  0  0  0  0
  180.2270  180.7850  138.4690 C   0  0  2  0  0  3  0  0  0  0  0  0
  180.4990  179.9860  137.3580 O   0  0  0  0  0  1  0  0  0  0  0  0
  181.1020  182.6740  137.7230 C   0  0  0  0  0  1  0  0  0  0  0  0
  181.2830  181.6740  138.6810 O   0  0  0  0  0  0  0  0  0  0  0  0
  185.1410  174.3210  134.8880 C   0  0  0  0  0  2  0  0  0  0  0  0
  183.7340  171.2400  136.5960 C   0  0  0  0  0  3  0  0  0  0  0  0
  184.1730  173.3160  135.4240 C   0  0  0  0  0  0  0  0  0  0  0  0
  182.3590  171.4470  136.4450 C   0  0  0  0  0  3  0  0  0  0  0  0
  181.8890  172.5920  135.7920 C   0  0  0  0  0  3  0  0  0  0  0  0
  184.6410  172.1750  136.0870 C   0  0  0  0  0  3  0  0  0  0  0  0
  182.7970  173.5270  135.2840 C   0  0  0  0  0  3  0  0  0  0  0  0
  1  7  1  0  0  0  0
  1  2  1  0  0  0  0
  3  4  1  0  0  0  0
  4 12  1  0  0  0  0
  5 13  1  0  0  0  0
  6 25  1  0  0  0  0
  6  2  1  0  0  0  0
  7  9  1  0  0  0  0
  8 21  1  0  0  0  0
  9 12  2  0  0  0  0
 10 16  1  0  0  0  0
 10 15  1  0  0  0  0
 11  6  2  0  0  0  0
 13 25  2  0  0  0  0
 14  8  1  0  0  0  0
 15 20  1  6  0  0  0
 15 18  1  0  0  0  0
 16 14  2  0  0  0  0
 17  7  2  0  0  0  0
 18 26  1  0  0  0  0
 20 19  2  0  0  0  0
 21  5  2  0  0  0  0
 21 11  1  0  0  0  0
 22 20  1  0  0  0  0
 23 22  2  0  0  0  0
 23 27  1  0  0  0  0
 24 17  1  0  0  0  0
 24  3  2  0  0  0  0
 26 24  1  0  0  0  0
 27 16  1  0  0  0  0
 28  5  1  0  0  0  0
 29 28  1  0  0  0  0
 30 31  1  6  0  0  0
 30 33  1  0  0  0  0
 30 29  1  0  0  0  0
 32 33  1  0  0  0  0
 34 36  1  0  0  0  0
 34 23  1  0  0  0  0
 36 39  1  0  0  0  0
 37 35  1  0  0  0  0
 38 37  2  0  0  0  0
 39 35  2  0  0  0  0
 40 36  2  0  0  0  0
 40 38  1  0  0  0  0
M  END
>  <MODEL>
6

>  <REMARK>
 VINA RESULT:      -8.2      3.403     10.206
  Name = 
  6 active torsions:
  status: ('A' for Active; 'I' for Inactive)
    1  A    between atoms: C_4  and  C_22
    2  A    between atoms: C_7  and  O_13
    3  A    between atoms: C_10  and  O_13
    4  A    between atoms: C_10  and  C_28
    5  A    between atoms: C_22  and  C_35
    6  A    between atoms: C_28  and  O_30
                            x       y       z     vdW  Elec       q    Type
                         _______ _______ _______ _____ _____    ______ ____

>  <TORSDO>
F 6

$$$$
=
 OpenBabel10222421533D

 40 44  0  0  1  0  0  0  0  0999 V2000
  186.0440  175.4940  136.2030 N   0  0  0  0  0  2  0  0  0  0  0  0
  186.4380  174.2660  136.1440 C   0  0  0  0  0  2  0  0  0  0  0  0
  183.1710  177.5480  139.0380 C   0  0  0  0  0  3  0  0  0  0  0  0
  182.4180  176.5340  138.7210 N   0  0  0  0  0  2  0  0  0  0  0  0
  190.6540  173.7070  136.3800 C   0  0  0  0  0  0  0  0  0  0  0  0
  187.8870  174.0730  136.0200 C   0  0  0  0  0  0  0  0  0  0  0  0
  184.8960  175.9850  136.8740 C   0  0  0  0  0  0  0  0  0  0  0  0
  190.7810  176.0310  137.4200 C   0  0  0  0  0  2  0  0  0  0  0  0
  183.7780  175.0910  137.2130 C   0  0  0  0  0  3  0  0  0  0  0  0
  189.3660  178.3350  139.0040 S   0  0  0  0  0  0  0  0  0  0  0  0
  188.6900  175.0910  136.5430 C   0  0  0  0  0  3  0  0  0  0  0  0
  182.7160  175.3370  137.9850 C   0  0  0  0  0  3  0  0  0  0  0  0
  189.8520  172.6700  135.8520 C   0  0  0  0  0  3  0  0  0  0  0  0
  190.6140  175.9170  138.8670 N   0  0  0  0  0  0  0  0  0  0  0  0
  187.7850  178.0440  139.8680 C   0  0  2  0  0  3  0  0  0  0  0  0
  190.0800  176.8140  139.6460 C   0  0  0  0  0  0  0  0  0  0  0  0
  185.1810  177.1120  137.4980 C   0  0  0  0  0  3  0  0  0  0  0  0
  186.6990  178.6650  139.1100 N   0  0  0  0  0  2  0  0  0  0  0  0
  186.8520  179.2110  141.7320 O   0  0  0  0  0  0  0  0  0  0  0  0
  187.8480  178.5940  141.2710 C   0  0  0  0  0  0  0  0  0  0  0  0
  190.0510  174.9270  136.7290 C   0  0  0  0  0  0  0  0  0  0  0  0
  188.9800  178.4190  142.1380 N   0  0  0  0  0  0  0  0  0  0  0  0
  189.9820  177.5910  142.0770 C   0  0  0  0  0  0  0  0  0  0  0  0
  184.5720  177.7360  138.6590 C   0  0  0  0  0  0  0  0  0  0  0  0
  188.4670  172.8430  135.6920 C   0  0  0  0  0  3  0  0  0  0  0  0
  185.3420  178.4470  139.4280 N   0  0  0  0  0  2  0  0  0  0  0  0
  190.1420  176.5980  141.0560 N   0  0  0  0  0  2  0  0  0  0  0  0
  192.0280  173.5320  136.5830 O   0  0  0  0  0  0  0  0  0  0  0  0
  192.9500  173.4010  135.5090 C   0  0  0  0  0  2  0  0  0  0  0  0
  193.7860  172.1400  135.6810 C   0  0  2  0  0  3  0  0  0  0  0  0
  195.0860  172.4790  136.0590 O   0  0  0  0  0  1  0  0  0  0  0  0
  195.0870  170.8300  134.4640 C   0  0  0  0  0  1  0  0  0  0  0  0
  193.8160  171.4070  134.4930 O   0  0  0  0  0  0  0  0  0  0  0  0
  190.9960  177.6330  143.1680 C   0  0  0  0  0  2  0  0  0  0  0  0
  190.5180  176.8920  146.8570 C   0  0  0  0  0  3  0  0  0  0  0  0
  190.3450  177.3990  144.4920 C   0  0  0  0  0  0  0  0  0  0  0  0
  189.1280  176.9830  146.9760 C   0  0  0  0  0  3  0  0  0  0  0  0
  188.3460  177.2910  145.8590 C   0  0  0  0  0  3  0  0  0  0  0  0
  191.1270  177.1010  145.6150 C   0  0  0  0  0  3  0  0  0  0  0  0
  188.9550  177.5010  144.6170 C   0  0  0  0  0  3  0  0  0  0  0  0
  1  7  1  0  0  0  0
  2  1  1  0  0  0  0
  4  3  1  0  0  0  0
  5 28  1  0  0  0  0
  5 21  1  0  0  0  0
  6  2  1  0  0  0  0
  6 11  1  0  0  0  0
  7  9  1  0  0  0  0
  7 17  2  0  0  0  0
  8 14  1  0  0  0  0
  9 12  2  0  0  0  0
 10 16  1  0  0  0  0
 11 21  2  0  0  0  0
 12  4  1  0  0  0  0
 13  5  2  0  0  0  0
 14 16  2  0  0  0  0
 15 10  1  6  0  0  0
 15 20  1  0  0  0  0
 16 27  1  0  0  0  0
 17 24  1  0  0  0  0
 18 26  1  0  0  0  0
 18 15  1  0  0  0  0
 20 19  2  0  0  0  0
 20 22  1  0  0  0  0
 21  8  1  0  0  0  0
 23 22  2  0  0  0  0
 23 34  1  0  0  0  0
 24  3  2  0  0  0  0
 24 26  1  0  0  0  0
 25 13  1  0  0  0  0
 25  6  2  0  0  0  0
 27 23  1  0  0  0  0
 29 30  1  0  0  0  0
 29 28  1  0  0  0  0
 30 31  1  6  0  0  0
 32 33  1  0  0  0  0
 33 30  1  0  0  0  0
 34 36  1  0  0  0  0
 35 37  1  0  0  0  0
 36 40  2  0  0  0  0
 36 39  1  0  0  0  0
 38 37  2  0  0  0  0
 39 35  2  0  0  0  0
 40 38  1  0  0  0  0
M  END
>  <MODEL>
7

>  <REMARK>
 VINA RESULT:      -8.2      1.672      2.252
  Name = 
  6 active torsions:
  status: ('A' for Active; 'I' for Inactive)
    1  A    between atoms: C_4  and  C_22
    2  A    between atoms: C_7  and  O_13
    3  A    between atoms: C_10  and  O_13
    4  A    between atoms: C_10  and  C_28
    5  A    between atoms: C_22  and  C_35
    6  A    between atoms: C_28  and  O_30
                            x       y       z     vdW  Elec       q    Type
                         _______ _______ _______ _____ _____    ______ ____

>  <TORSDO>
F 6

$$$$
=
 OpenBabel10222421533D

 40 44  0  0  1  0  0  0  0  0999 V2000
  190.3170  172.1380  134.4010 N   0  0  0  0  0  2  0  0  0  0  0  0
  191.2200  171.5310  135.0950 C   0  0  0  0  0  2  0  0  0  0  0  0
  185.8160  172.2820  134.8830 C   0  0  0  0  0  3  0  0  0  0  0  0
  185.9640  170.9920  134.9550 N   0  0  0  0  0  2  0  0  0  0  0  0
  194.2690  174.0460  136.6850 C   0  0  0  0  0  0  0  0  0  0  0  0
  192.3780  172.3480  135.4750 C   0  0  0  0  0  0  0  0  0  0  0  0
  188.9270  171.8600  134.3900 C   0  0  0  0  0  0  0  0  0  0  0  0
  192.6620  175.9960  136.3560 C   0  0  0  0  0  2  0  0  0  0  0  0
  188.4140  170.5560  134.8360 C   0  0  0  0  0  3  0  0  0  0  0  0
  189.7110  177.0160  136.0740 S   0  0  0  0  0  0  0  0  0  0  0  0
  192.1530  173.7240  135.5820 C   0  0  0  0  0  3  0  0  0  0  0  0
  187.1490  170.1860  135.0570 C   0  0  0  0  0  3  0  0  0  0  0  0
  194.5070  172.6560  136.5840 C   0  0  0  0  0  3  0  0  0  0  0  0
  191.8290  176.1350  137.5470 N   0  0  0  0  0  0  0  0  0  0  0  0
  188.3040  175.9400  136.5130 C   0  0  2  0  0  3  0  0  0  0  0  0
  190.6040  176.5810  137.5740 C   0  0  0  0  0  0  0  0  0  0  0  0
  188.2370  172.9850  134.3860 C   0  0  0  0  0  3  0  0  0  0  0  0
  187.6580  175.4680  135.2880 N   0  0  0  0  0  2  0  0  0  0  0  0
  186.0930  176.5540  137.1760 O   0  0  0  0  0  0  0  0  0  0  0  0
  187.3270  176.6900  137.3830 C   0  0  0  0  0  0  0  0  0  0  0  0
  193.0700  174.5710  136.1760 C   0  0  0  0  0  0  0  0  0  0  0  0
  187.7270  177.5310  138.4770 N   0  0  0  0  0  0  0  0  0  0  0  0
  188.8550  177.6160  139.1210 C   0  0  0  0  0  0  0  0  0  0  0  0
  186.8910  173.2750  134.8460 C   0  0  0  0  0  0  0  0  0  0  0  0
  193.5560  171.8050  136.0000 C   0  0  0  0  0  3  0  0  0  0  0  0
  186.6610  174.4700  135.3030 N   0  0  0  0  0  2  0  0  0  0  0  0
  189.9980  176.7950  138.8490 N   0  0  0  0  0  2  0  0  0  0  0  0
  195.1920  174.8990  137.3010 O   0  0  0  0  0  0  0  0  0  0  0  0
  196.5930  174.6570  137.2790 C   0  0  0  0  0  2  0  0  0  0  0  0
  197.1370  174.5760  138.6980 C   0  0  2  0  0  3  0  0  0  0  0  0
  196.1800  175.0390  139.6030 O   0  0  0  0  0  1  0  0  0  0  0  0
  199.3340  174.4560  138.4700 C   0  0  0  0  0  1  0  0  0  0  0  0
  198.3050  175.3330  138.8180 O   0  0  0  0  0  0  0  0  0  0  0  0
  188.9480  178.5800  140.2520 C   0  0  0  0  0  2  0  0  0  0  0  0
  188.4240  176.5190  143.3930 C   0  0  0  0  0  3  0  0  0  0  0  0
  188.3200  178.0050  141.4800 C   0  0  0  0  0  0  0  0  0  0  0  0
  187.1530  176.9440  143.7900 C   0  0  0  0  0  3  0  0  0  0  0  0
  186.4680  177.9050  143.0400 C   0  0  0  0  0  3  0  0  0  0  0  0
  189.0090  177.0490  142.2380 C   0  0  0  0  0  3  0  0  0  0  0  0
  187.0530  178.4370  141.8860 C   0  0  0  0  0  3  0  0  0  0  0  0
  1  2  1  0  0  0  0
  2  6  1  0  0  0  0
  3  4  1  0  0  0  0
  4 12  1  0  0  0  0
  5 28  1  0  0  0  0
  6 11  2  0  0  0  0
  6 25  1  0  0  0  0
  7  1  1  0  0  0  0
  7  9  1  0  0  0  0
  8 14  1  0  0  0  0
  9 12  2  0  0  0  0
 10 15  1  0  0  0  0
 10 16  1  0  0  0  0
 11 21  1  0  0  0  0
 13  5  1  0  0  0  0
 14 16  2  0  0  0  0
 15 18  1  6  0  0  0
 15 20  1  0  0  0  0
 16 27  1  0  0  0  0
 17  7  2  0  0  0  0
 17 24  1  0  0  0  0
 18 26  1  0  0  0  0
 19 20  2  0  0  0  0
 20 22  1  0  0  0  0
 21  8  1  0  0  0  0
 21  5  2  0  0  0  0
 22 23  2  0  0  0  0
 23 34  1  0  0  0  0
 24  3  2  0  0  0  0
 24 26  1  0  0  0  0
 25 13  2  0  0  0  0
 27 23  1  0  0  0  0
 29 28  1  0  0  0  0
 29 30  1  0  0  0  0
 30 33  1  0  0  0  0
 30 31  1  1  0  0  0
 32 33  1  0  0  0  0
 34 36  1  0  0  0  0
 35 37  1  0  0  0  0
 36 40  2  0  0  0  0
 36 39  1  0  0  0  0
 38 37  2  0  0  0  0
 39 35  2  0  0  0  0
 40 38  1  0  0  0  0
M  END
>  <MODEL>
8

>  <REMARK>
 VINA RESULT:      -7.9      2.211      3.716
  Name = 
  6 active torsions:
  status: ('A' for Active; 'I' for Inactive)
    1  A    between atoms: C_4  and  C_22
    2  A    between atoms: C_7  and  O_13
    3  A    between atoms: C_10  and  O_13
    4  A    between atoms: C_10  and  C_28
    5  A    between atoms: C_22  and  C_35
    6  A    between atoms: C_28  and  O_30
                            x       y       z     vdW  Elec       q    Type
                         _______ _______ _______ _____ _____    ______ ____

>  <TORSDO>
F 6

$$$$
=
 OpenBabel10222421533D

 40 44  0  0  1  0  0  0  0  0999 V2000
  187.5640  178.6090  142.8900 N   0  0  0  0  0  2  0  0  0  0  0  0
  186.3900  178.1470  143.1670 C   0  0  0  0  0  2  0  0  0  0  0  0
  191.6060  176.5680  142.8260 C   0  0  0  0  0  3  0  0  0  0  0  0
  191.2180  176.1640  144.0000 N   0  0  0  0  0  2  0  0  0  0  0  0
  183.4800  178.6510  140.0980 C   0  0  0  0  0  0  0  0  0  0  0  0
  185.3340  178.4930  142.2090 C   0  0  0  0  0  0  0  0  0  0  0  0
  188.8080  178.0200  143.2280 C   0  0  0  0  0  0  0  0  0  0  0  0
  185.4220  178.9450  138.4730 C   0  0  0  0  0  2  0  0  0  0  0  0
  188.9080  177.0390  144.3190 C   0  0  0  0  0  3  0  0  0  0  0  0
  188.4320  178.4140  137.7750 S   0  0  0  0  0  0  0  0  0  0  0  0
  185.7500  178.7370  140.8960 C   0  0  0  0  0  3  0  0  0  0  0  0
  189.9430  176.2650  144.6550 C   0  0  0  0  0  3  0  0  0  0  0  0
  183.0480  178.4010  141.4200 C   0  0  0  0  0  3  0  0  0  0  0  0
  185.8280  177.6340  137.9710 N   0  0  0  0  0  0  0  0  0  0  0  0
  189.4040  177.1800  138.7020 C   0  0  2  0  0  3  0  0  0  0  0  0
  187.0330  177.2950  137.6100 C   0  0  0  0  0  0  0  0  0  0  0  0
  189.6470  178.1140  142.2140 C   0  0  0  0  0  3  0  0  0  0  0  0
  190.3240  177.8700  139.6070 N   0  0  0  0  0  2  0  0  0  0  0  0
  191.3450  175.9700  138.0140 O   0  0  0  0  0  0  0  0  0  0  0  0
  190.1560  176.2850  137.7490 C   0  0  0  0  0  0  0  0  0  0  0  0
  184.8530  178.8150  139.8470 C   0  0  0  0  0  0  0  0  0  0  0  0
  189.5730  175.7320  136.5580 N   0  0  0  0  0  0  0  0  0  0  0  0
  188.3290  175.6100  136.1940 C   0  0  0  0  0  0  0  0  0  0  0  0
  190.7950  177.3020  141.8530 C   0  0  0  0  0  0  0  0  0  0  0  0
  183.9740  178.3000  142.4710 C   0  0  0  0  0  3  0  0  0  0  0  0
  191.0690  177.1830  140.5880 N   0  0  0  0  0  2  0  0  0  0  0  0
  187.2140  176.0190  136.9970 N   0  0  0  0  0  2  0  0  0  0  0  0
  182.5710  178.7120  139.0350 O   0  0  0  0  0  0  0  0  0  0  0  0
  181.5780  177.7180  138.8170 C   0  0  0  0  0  2  0  0  0  0  0  0
  182.0210  176.7590  137.7210 C   0  0  2  0  0  3  0  0  0  0  0  0
  182.8830  175.7970  138.2500 O   0  0  0  0  0  1  0  0  0  0  0  0
  183.2190  176.4610  135.8860 C   0  0  0  0  0  1  0  0  0  0  0  0
  182.6630  177.4550  136.6940 O   0  0  0  0  0  0  0  0  0  0  0  0
  188.0400  174.9480  134.8920 C   0  0  0  0  0  2  0  0  0  0  0  0
  187.4670  171.3210  135.8430 C   0  0  0  0  0  3  0  0  0  0  0  0
  187.3690  173.6310  135.1150 C   0  0  0  0  0  0  0  0  0  0  0  0
  186.1070  171.1730  135.5520 C   0  0  0  0  0  3  0  0  0  0  0  0
  185.3750  172.2540  135.0510 C   0  0  0  0  0  3  0  0  0  0  0  0
  188.0980  172.5500  135.6260 C   0  0  0  0  0  3  0  0  0  0  0  0
  186.0060  173.4840  134.8340 C   0  0  0  0  0  3  0  0  0  0  0  0
  1  2  1  0  0  0  0
  1  7  1  0  0  0  0
  3  4  1  0  0  0  0
  4 12  1  0  0  0  0
  5 13  1  0  0  0  0
  6 25  1  0  0  0  0
  6  2  1  0  0  0  0
  7  9  1  0  0  0  0
  8 21  1  0  0  0  0
  9 12  2  0  0  0  0
 10 15  1  0  0  0  0
 11  6  2  0  0  0  0
 13 25  2  0  0  0  0
 14  8  1  0  0  0  0
 15 20  1  6  0  0  0
 15 18  1  0  0  0  0
 16 10  1  0  0  0  0
 16 14  2  0  0  0  0
 17  7  2  0  0  0  0
 18 26  1  0  0  0  0
 20 19  2  0  0  0  0
 21  5  2  0  0  0  0
 21 11  1  0  0  0  0
 22 20  1  0  0  0  0
 23 22  2  0  0  0  0
 23 27  1  0  0  0  0
 24 17  1  0  0  0  0
 24  3  2  0  0  0  0
 26 24  1  0  0  0  0
 27 16  1  0  0  0  0
 28  5  1  0  0  0  0
 29 28  1  0  0  0  0
 30 31  1  1  0  0  0
 30 29  1  0  0  0  0
 32 33  1  0  0  0  0
 33 30  1  0  0  0  0
 34 36  1  0  0  0  0
 34 23  1  0  0  0  0
 36 39  2  0  0  0  0
 37 35  2  0  0  0  0
 38 37  1  0  0  0  0
 39 35  1  0  0  0  0
 40 38  2  0  0  0  0
 40 36  1  0  0  0  0
M  END
>  <MODEL>
9

>  <REMARK>
 VINA RESULT:      -7.7      2.698      9.419
  Name = 
  6 active torsions:
  status: ('A' for Active; 'I' for Inactive)
    1  A    between atoms: C_4  and  C_22
    2  A    between atoms: C_7  and  O_13
    3  A    between atoms: C_10  and  O_13
    4  A    between atoms: C_10  and  C_28
    5  A    between atoms: C_22  and  C_35
    6  A    between atoms: C_28  and  O_30
                            x       y       z     vdW  Elec       q    Type
                         _______ _______ _______ _____ _____    ______ ____

>  <TORSDO>
F 6

$$$$
