=
 OpenBabel10232407513D

 61 67  0  0  1  0  0  0  0  0999 V2000
  192.3030  172.3980  135.5030 C   0  0  0  0  0  3  0  0  0  0  0  0
  193.6000  172.6970  135.7230 C   0  0  0  0  0  0  0  0  0  0  0  0
  193.9060  173.8090  136.6240 C   0  0  0  0  0  0  0  0  0  0  0  0
  195.0940  174.3980  137.0550 C   0  0  0  0  0  3  0  0  0  0  0  0
  191.5690  174.3160  137.0510 C   0  0  0  0  0  0  0  0  0  0  0  0
  192.9230  174.5210  137.2120 C   0  0  0  0  0  0  0  0  0  0  0  0
  191.2710  176.2500  138.5470 C   0  0  0  0  0  0  0  0  0  0  0  0
  191.1410  173.1600  136.1520 C   0  0  0  0  0  2  0  0  0  0  0  0
  193.4470  175.4870  137.9560 N   0  0  0  0  0  0  0  0  0  0  0  0
  193.2880  177.3920  139.4250 N   0  0  0  0  0  1  0  0  0  0  0  0
  190.6980  175.2120  137.7330 C   0  0  0  0  0  0  0  0  0  0  0  0
  192.6810  176.3650  138.6430 C   0  0  0  0  0  0  0  0  0  0  0  0
  194.7710  175.4340  137.8800 N   0  0  0  0  0  0  0  0  0  0  0  0
  190.5720  177.1250  140.7980 C   0  0  2  0  0  3  0  0  0  0  0  0
  190.4240  177.2390  139.3100 C   0  0  2  0  0  3  0  0  0  0  0  0
  188.9570  177.0500  139.0870 C   0  0  0  0  0  2  0  0  0  0  0  0
  189.2640  177.4030  141.3800 N   0  0  0  0  0  0  0  0  0  0  0  0
  188.2920  177.3710  140.3450 N   0  0  0  0  0  0  0  0  0  0  0  0
  191.5830  178.1430  141.2950 C   0  0  0  0  0  1  0  0  0  0  0  0
  188.9640  176.3030  142.2890 C   0  0  0  0  0  2  0  0  0  0  0  0
  191.5050  176.4500  145.5680 C   0  0  0  0  0  3  0  0  0  0  0  0
  188.7890  178.1740  143.9160 C   0  0  0  0  0  2  0  0  0  0  0  0
  188.2370  176.8100  143.5270 C   0  0  2  0  0  3  0  0  0  0  0  0
  188.4810  176.9110  146.1370 C   0  0  1  0  0  3  0  0  0  0  0  0
  189.1430  176.9630  144.7520 C   0  0  2  0  0  0  0  0  0  0  0  0
  189.1680  177.9060  147.0440 C   0  0  0  0  0  2  0  0  0  0  0  0
  191.3810  176.7010  147.0190 C   0  0  0  0  0  3  0  0  0  0  0  0
  190.3800  177.2970  147.6740 C   0  0  0  0  0  3  0  0  0  0  0  0
  190.5780  176.5540  144.6080 C   0  0  0  0  0  3  0  0  0  0  0  0
  186.9860  177.1890  146.1290 C   0  0  0  0  0  1  0  0  0  0  0  0
  187.7730  178.7280  140.2060 C   0  0  0  0  0  2  0  0  0  0  0  0
  186.5300  178.8980  141.0600 C   0  0  0  0  0  2  0  0  0  0  0  0
  185.3600  177.8300  138.9020 O   0  0  0  0  0  0  0  0  0  0  0  0
  185.0850  178.7800  140.0300 S   0  0  0  0  0  0  0  0  0  0  0  0
  184.7660  180.1360  139.4680 O   0  0  0  0  0  0  0  0  0  0  0  0
  183.7070  178.1900  141.0150 C   0  0  1  0  0  3  0  0  0  0  0  0
  181.9130  177.3950  139.9630 C   0  0  0  0  0  1  0  0  0  0  0  0
  183.1630  177.0180  140.4620 O   0  0  0  0  0  0  0  0  0  0  0  0
  184.0780  177.9890  142.4250 N   0  0  0  0  0  2  0  0  0  0  0  0
  184.6660  179.6490  143.9590 O   0  0  0  0  0  1  0  0  0  0  0  0
  182.6090  178.6030  144.1880 N   0  0  0  0  0  1  0  0  0  0  0  0
  183.6030  179.0950  143.2520 C   0  0  2  0  0  3  0  0  0  0  0  0
  189.2660  175.1190  137.6360 N   0  0  0  0  0  2  0  0  0  0  0  0
  188.5060  174.9750  136.4070 C   0  0  2  0  0  3  0  0  0  0  0  0
  188.1530  176.2360  135.9220 O   0  0  0  0  0  1  0  0  0  0  0  0
  187.2920  174.0760  136.6450 C   0  0  2  0  0  3  0  0  0  0  0  0
  187.6970  172.8110  137.0660 O   0  0  0  0  0  1  0  0  0  0  0  0
  186.3170  173.9880  135.4680 C   0  0  0  0  0  2  0  0  0  0  0  0
  184.8900  173.7210  135.9250 C   0  0  0  0  0  2  0  0  0  0  0  0
  183.9060  174.7880  135.4380 C   0  0  1  0  0  3  0  0  0  0  0  0
  183.3560  175.6260  136.5840 C   0  0  0  0  0  1  0  0  0  0  0  0
  184.5040  175.6150  134.4760 O   0  0  0  0  0  1  0  0  0  0  0  0
  194.6880  171.9290  135.0510 C   0  0  0  0  0  2  0  0  0  0  0  0
  195.7840  168.9710  137.0670 C   0  0  2  0  0  3  0  0  0  0  0  0
  197.5940  171.6070  135.4860 O   0  0  0  0  0  0  0  0  0  0  0  0
  197.1400  169.6370  136.8060 C   0  0  2  0  0  3  0  0  0  0  0  0
  197.7430  170.0160  137.9960 F   0  0  0  0  0  0  0  0  0  0  0  0
  195.3660  171.0580  135.9970 N   0  0  0  0  0  0  0  0  0  0  0  0
  194.6920  169.9840  136.6900 C   0  0  0  0  0  2  0  0  0  0  0  0
  196.7610  170.8460  136.0430 C   0  0  0  0  0  0  0  0  0  0  0  0
  195.6540  168.5790  138.3890 F   0  0  0  0  0  0  0  0  0  0  0  0
  1  2  2  0  0  0  0
  1  8  1  0  0  0  0
  2  3  1  0  0  0  0
  3  4  1  0  0  0  0
  3  6  2  0  0  0  0
  4 13  2  0  0  0  0
  5  6  1  0  0  0  0
  5 11  2  0  0  0  0
  6  9  1  0  0  0  0
  7 12  2  0  0  0  0
  8  5  1  0  0  0  0
  9 12  1  0  0  0  0
 11  7  1  0  0  0  0
 12 10  1  0  0  0  0
 13  9  1  0  0  0  0
 14 19  1  1  0  0  0
 14 17  1  0  0  0  0
 15  7  1  6  0  0  0
 15 14  1  0  0  0  0
 16 15  1  0  0  0  0
 16 18  1  0  0  0  0
 17 20  1  0  0  0  0
 18 17  1  0  0  0  0
 21 27  1  0  0  0  0
 23 20  1  6  0  0  0
 23 22  1  0  0  0  0
 23 25  1  0  0  0  0
 24 30  1  6  0  0  0
 24 26  1  0  0  0  0
 25 22  1  6  0  0  0
 25 24  1  0  0  0  0
 26 28  1  0  0  0  0
 27 28  2  0  0  0  0
 29 25  1  0  0  0  0
 29 21  2  0  0  0  0
 31 18  1  0  0  0  0
 31 32  1  0  0  0  0
 33 34  2  0  0  0  0
 34 36  1  0  0  0  0
 34 32  1  0  0  0  0
 35 34  2  0  0  0  0
 36 38  1  6  0  0  0
 36 39  1  0  0  0  0
 37 38  1  0  0  0  0
 39 42  1  0  0  0  0
 42 40  1  1  0  0  0
 42 41  1  0  0  0  0
 43 11  1  0  0  0  0
 44 45  1  1  0  0  0
 44 46  1  0  0  0  0
 44 43  1  0  0  0  0
 46 47  1  6  0  0  0
 48 49  1  0  0  0  0
 48 46  1  0  0  0  0
 50 49  1  0  0  0  0
 50 51  1  1  0  0  0
 52 50  1  0  0  0  0
 53  2  1  0  0  0  0
 53 58  1  0  0  0  0
 54 61  1  1  0  0  0
 55 60  2  0  0  0  0
 56 54  1  0  0  0  0
 56 57  1  1  0  0  0
 58 60  1  0  0  0  0
 58 59  1  0  0  0  0
 59 54  1  0  0  0  0
 60 56  1  0  0  0  0
M  END
>  <MODEL>
1

>  <REMARK>
 VINA RESULT:      -7.6      0.000      0.000
  Name = 
  18 active torsions:
  status: ('A' for Active; 'I' for Inactive)
    1  A    between atoms: C_2  and  N_9
    2  A    between atoms: C_2  and  C_29
    3  A    between atoms: C_3  and  C_30
    4  A    between atoms: C_3  and  C_58
    5  A    between atoms: C_4  and  C_8
    6  A    between atoms: C_4  and  N_44
    7  A    between atoms: N_9  and  C_51
    8  A    between atoms: C_12  and  S_16
    9  A    between atoms: C_12  and  C_26
   10  A    between atoms: O_13  and  C_15
   11  A    between atoms: C_15  and  S_16
   12  A    between atoms: C_15  and  N_35
   13  A    between atoms: C_18  and  C_19
   14  A    between atoms: C_18  and  N_41
   15  A    between atoms: C_23  and  C_37
   16  A    between atoms: C_26  and  N_45
   17  A    between atoms: C_29  and  C_58
   18  A    between atoms: N_35  and  C_40
                            x       y       z     vdW  Elec       q    Type
                         _______ _______ _______ _____ _____    ______ ____

>  <TORSDO>
F 18

$$$$
=
 OpenBabel10232407513D

 61 67  0  0  1  0  0  0  0  0999 V2000
  191.3200  177.4450  142.1160 C   0  0  0  0  0  3  0  0  0  0  0  0
  190.3840  178.2140  142.7080 C   0  0  0  0  0  0  0  0  0  0  0  0
  189.1210  178.4280  142.0000 C   0  0  0  0  0  0  0  0  0  0  0  0
  187.9710  179.1610  142.2880 C   0  0  0  0  0  3  0  0  0  0  0  0
  189.7850  177.0920  140.0830 C   0  0  0  0  0  0  0  0  0  0  0  0
  188.9000  177.8810  140.7870 C   0  0  0  0  0  0  0  0  0  0  0  0
  188.0640  177.0300  138.3220 C   0  0  0  0  0  0  0  0  0  0  0  0
  191.1230  176.7830  140.7460 C   0  0  0  0  0  2  0  0  0  0  0  0
  187.7030  178.2390  140.3410 N   0  0  0  0  0  0  0  0  0  0  0  0
  185.9440  178.2590  138.6930 N   0  0  0  0  0  1  0  0  0  0  0  0
  189.3660  176.6490  138.7960 C   0  0  0  0  0  0  0  0  0  0  0  0
  187.2340  177.8440  139.1350 C   0  0  0  0  0  0  0  0  0  0  0  0
  187.1120  179.0190  141.2370 N   0  0  0  0  0  0  0  0  0  0  0  0
  186.7000  177.6500  136.3030 C   0  0  2  0  0  3  0  0  0  0  0  0
  187.5360  176.6020  136.9750 C   0  0  2  0  0  3  0  0  0  0  0  0
  186.6220  175.4200  137.0520 C   0  0  0  0  0  2  0  0  0  0  0  0
  185.6380  176.9550  135.5850 N   0  0  0  0  0  0  0  0  0  0  0  0
  185.6010  175.6050  136.0260 N   0  0  0  0  0  0  0  0  0  0  0  0
  187.5520  178.4400  135.3250 C   0  0  0  0  0  1  0  0  0  0  0  0
  184.3810  177.5760  135.9840 C   0  0  0  0  0  2  0  0  0  0  0  0
  181.8100  179.7110  138.4460 C   0  0  0  0  0  3  0  0  0  0  0  0
  182.1160  176.6850  136.4900 C   0  0  0  0  0  2  0  0  0  0  0  0
  183.5840  176.6450  136.8880 C   0  0  2  0  0  3  0  0  0  0  0  0
  182.1180  176.6770  139.0630 C   0  0  1  0  0  3  0  0  0  0  0  0
  182.5580  177.3700  137.7650 C   0  0  2  0  0  0  0  0  0  0  0  0
  180.6440  176.9340  139.2770 C   0  0  0  0  0  2  0  0  0  0  0  0
  180.9210  179.4190  139.5900 C   0  0  0  0  0  3  0  0  0  0  0  0
  180.4320  178.2380  139.9790 C   0  0  0  0  0  3  0  0  0  0  0  0
  182.5020  178.8640  137.6750 C   0  0  0  0  0  3  0  0  0  0  0  0
  182.3740  175.1780  139.0940 C   0  0  0  0  0  1  0  0  0  0  0  0
  185.9940  174.7750  134.8930 C   0  0  0  0  0  2  0  0  0  0  0  0
  187.3110  174.0800  135.1910 C   0  0  0  0  0  2  0  0  0  0  0  0
  187.4950  171.9300  136.7740 O   0  0  0  0  0  0  0  0  0  0  0  0
  187.0250  172.3390  135.4090 S   0  0  0  0  0  0  0  0  0  0  0  0
  187.7990  171.5770  134.3710 O   0  0  0  0  0  0  0  0  0  0  0  0
  185.2730  172.0030  135.2300 C   0  0  1  0  0  3  0  0  0  0  0  0
  184.7550  169.8380  135.1630 C   0  0  0  0  0  1  0  0  0  0  0  0
  185.0570  170.9310  134.3460 O   0  0  0  0  0  0  0  0  0  0  0  0
  184.6170  171.7620  136.5250 N   0  0  0  0  0  2  0  0  0  0  0  0
  182.4270  171.9640  137.3130 O   0  0  0  0  0  1  0  0  0  0  0  0
  183.0370  173.1390  135.4080 N   0  0  0  0  0  1  0  0  0  0  0  0
  183.4730  172.6510  136.7030 C   0  0  2  0  0  3  0  0  0  0  0  0
  190.2000  175.8350  137.9520 N   0  0  0  0  0  2  0  0  0  0  0  0
  191.2080  176.3240  137.0290 C   0  0  2  0  0  3  0  0  0  0  0  0
  190.8360  176.0160  135.7190 O   0  0  0  0  0  1  0  0  0  0  0  0
  192.5770  175.7540  137.4000 C   0  0  2  0  0  3  0  0  0  0  0  0
  193.4730  176.7820  137.6840 O   0  0  0  0  0  1  0  0  0  0  0  0
  193.1610  174.7700  136.3820 C   0  0  0  0  0  2  0  0  0  0  0  0
  192.6700  173.3480  136.6140 C   0  0  0  0  0  2  0  0  0  0  0  0
  193.3650  172.3300  135.7060 C   0  0  1  0  0  3  0  0  0  0  0  0
  194.6410  172.8890  135.0900 C   0  0  0  0  0  1  0  0  0  0  0  0
  193.6420  171.1460  136.4040 O   0  0  0  0  0  1  0  0  0  0  0  0
  190.6390  178.8450  144.0350 C   0  0  0  0  0  2  0  0  0  0  0  0
  191.1950  176.7330  147.0770 C   0  0  2  0  0  3  0  0  0  0  0  0
  188.3130  178.4090  145.8080 O   0  0  0  0  0  0  0  0  0  0  0  0
  189.6960  177.0220  147.2190 C   0  0  2  0  0  3  0  0  0  0  0  0
  188.9590  175.8480  147.1760 F   0  0  0  0  0  0  0  0  0  0  0  0
  190.4920  177.8730  145.1060 N   0  0  0  0  0  0  0  0  0  0  0  0
  191.6110  177.1410  145.6540 C   0  0  0  0  0  2  0  0  0  0  0  0
  189.4090  177.8240  146.0100 C   0  0  0  0  0  0  0  0  0  0  0  0
  191.4820  175.3990  147.3090 F   0  0  0  0  0  0  0  0  0  0  0  0
  1  2  2  0  0  0  0
  2 53  1  0  0  0  0
  3  4  1  0  0  0  0
  3  2  1  0  0  0  0
  5  8  1  0  0  0  0
  5  6  1  0  0  0  0
  6  3  2  0  0  0  0
  7 11  1  0  0  0  0
  7 12  2  0  0  0  0
  8  1  1  0  0  0  0
  9  6  1  0  0  0  0
  9 13  1  0  0  0  0
 10 12  1  0  0  0  0
 11  5  2  0  0  0  0
 12  9  1  0  0  0  0
 13  4  2  0  0  0  0
 14 19  1  6  0  0  0
 14 15  1  0  0  0  0
 15 16  1  0  0  0  0
 15  7  1  1  0  0  0
 17 20  1  0  0  0  0
 17 18  1  0  0  0  0
 17 14  1  0  0  0  0
 18 16  1  0  0  0  0
 21 27  1  0  0  0  0
 22 23  1  0  0  0  0
 23 20  1  6  0  0  0
 23 25  1  0  0  0  0
 24 30  1  6  0  0  0
 24 26  1  0  0  0  0
 25 22  1  6  0  0  0
 25 24  1  0  0  0  0
 26 28  1  0  0  0  0
 27 28  2  0  0  0  0
 29 25  1  0  0  0  0
 29 21  2  0  0  0  0
 31 32  1  0  0  0  0
 31 18  1  0  0  0  0
 32 34  1  0  0  0  0
 34 33  2  0  0  0  0
 35 34  2  0  0  0  0
 36 38  1  6  0  0  0
 36 34  1  0  0  0  0
 36 39  1  0  0  0  0
 38 37  1  0  0  0  0
 39 42  1  0  0  0  0
 42 41  1  6  0  0  0
 42 40  1  0  0  0  0
 43 11  1  0  0  0  0
 44 45  1  6  0  0  0
 44 46  1  0  0  0  0
 44 43  1  0  0  0  0
 46 47  1  6  0  0  0
 48 49  1  0  0  0  0
 48 46  1  0  0  0  0
 50 51  1  1  0  0  0
 50 52  1  0  0  0  0
 50 49  1  0  0  0  0
 53 58  1  0  0  0  0
 54 56  1  0  0  0  0
 54 61  1  6  0  0  0
 55 60  2  0  0  0  0
 56 57  1  6  0  0  0
 58 59  1  0  0  0  0
 58 60  1  0  0  0  0
 59 54  1  0  0  0  0
 60 56  1  0  0  0  0
M  END
>  <MODEL>
2

>  <REMARK>
 VINA RESULT:      -6.9      3.784      9.218
  Name = 
  18 active torsions:
  status: ('A' for Active; 'I' for Inactive)
    1  A    between atoms: C_2  and  N_9
    2  A    between atoms: C_2  and  C_29
    3  A    between atoms: C_3  and  C_30
    4  A    between atoms: C_3  and  C_58
    5  A    between atoms: C_4  and  C_8
    6  A    between atoms: C_4  and  N_44
    7  A    between atoms: N_9  and  C_51
    8  A    between atoms: C_12  and  S_16
    9  A    between atoms: C_12  and  C_26
   10  A    between atoms: O_13  and  C_15
   11  A    between atoms: C_15  and  S_16
   12  A    between atoms: C_15  and  N_35
   13  A    between atoms: C_18  and  C_19
   14  A    between atoms: C_18  and  N_41
   15  A    between atoms: C_23  and  C_37
   16  A    between atoms: C_26  and  N_45
   17  A    between atoms: C_29  and  C_58
   18  A    between atoms: N_35  and  C_40
                            x       y       z     vdW  Elec       q    Type
                         _______ _______ _______ _____ _____    ______ ____

>  <TORSDO>
F 18

$$$$
=
 OpenBabel10232407513D

 61 67  0  0  1  0  0  0  0  0999 V2000
  191.7060  174.4280  135.2800 C   0  0  0  0  0  3  0  0  0  0  0  0
  192.9420  174.4080  135.8170 C   0  0  0  0  0  0  0  0  0  0  0  0
  193.1490  175.0960  137.0920 C   0  0  0  0  0  0  0  0  0  0  0  0
  194.2640  175.2970  137.9060 C   0  0  0  0  0  3  0  0  0  0  0  0
  190.8420  175.8370  137.2490 C   0  0  0  0  0  0  0  0  0  0  0  0
  192.1380  175.7390  137.7100 C   0  0  0  0  0  0  0  0  0  0  0  0
  190.4130  177.2020  139.2550 C   0  0  0  0  0  0  0  0  0  0  0  0
  190.5120  175.1290  135.9400 C   0  0  0  0  0  2  0  0  0  0  0  0
  192.5770  176.3050  138.8270 N   0  0  0  0  0  0  0  0  0  0  0  0
  192.2860  177.6280  140.8220 N   0  0  0  0  0  1  0  0  0  0  0  0
  189.9360  176.6020  138.0390 C   0  0  0  0  0  0  0  0  0  0  0  0
  191.7690  177.0330  139.6330 C   0  0  0  0  0  0  0  0  0  0  0  0
  193.8700  176.0490  138.9740 N   0  0  0  0  0  0  0  0  0  0  0  0
  189.7650  177.7770  141.6150 C   0  0  2  0  0  3  0  0  0  0  0  0
  189.5230  178.0220  140.1550 C   0  0  2  0  0  3  0  0  0  0  0  0
  188.0700  177.7110  139.9840 C   0  0  0  0  0  2  0  0  0  0  0  0
  188.4720  177.8650  142.2850 N   0  0  0  0  0  0  0  0  0  0  0  0
  187.4500  177.8400  141.2990 N   0  0  0  0  0  0  0  0  0  0  0  0
  190.7030  178.8370  142.1660 C   0  0  0  0  0  1  0  0  0  0  0  0
  188.3300  176.6560  143.0880 C   0  0  0  0  0  2  0  0  0  0  0  0
  191.7820  176.0380  145.3080 C   0  0  0  0  0  3  0  0  0  0  0  0
  188.9380  178.2350  144.9090 C   0  0  0  0  0  2  0  0  0  0  0  0
  188.1130  177.0070  144.5530 C   0  0  2  0  0  3  0  0  0  0  0  0
  189.1910  176.6460  146.9180 C   0  0  1  0  0  3  0  0  0  0  0  0
  189.3760  176.8760  145.4100 C   0  0  2  0  0  0  0  0  0  0  0  0
  190.2590  177.4140  147.6630 C   0  0  0  0  0  2  0  0  0  0  0  0
  192.1640  176.0500  146.7350 C   0  0  0  0  0  3  0  0  0  0  0  0
  191.5160  176.6080  147.7610 C   0  0  0  0  0  3  0  0  0  0  0  0
  190.6200  176.3780  144.7390 C   0  0  0  0  0  3  0  0  0  0  0  0
  187.8230  177.0450  147.4510 C   0  0  0  0  0  1  0  0  0  0  0  0
  186.7990  179.1450  141.3260 C   0  0  0  0  0  2  0  0  0  0  0  0
  185.2940  178.9720  141.4140 C   0  0  0  0  0  2  0  0  0  0  0  0
  185.6660  178.5460  138.7980 O   0  0  0  0  0  0  0  0  0  0  0  0
  184.6040  178.9560  139.7750 S   0  0  0  0  0  0  0  0  0  0  0  0
  184.1200  180.3350  139.4280 O   0  0  0  0  0  0  0  0  0  0  0  0
  183.2340  177.8000  139.7240 C   0  0  1  0  0  3  0  0  0  0  0  0
  181.5880  178.5350  141.0320 C   0  0  0  0  0  1  0  0  0  0  0  0
  182.0050  178.4810  139.6990 O   0  0  0  0  0  0  0  0  0  0  0  0
  183.3420  176.8580  138.5980 N   0  0  0  0  0  2  0  0  0  0  0  0
  181.2960  175.8830  138.0330 O   0  0  0  0  0  1  0  0  0  0  0  0
  182.5700  176.8460  136.3520 N   0  0  0  0  0  1  0  0  0  0  0  0
  182.1620  176.9330  137.7410 C   0  0  2  0  0  3  0  0  0  0  0  0
  188.5610  176.7960  137.6640 N   0  0  0  0  0  2  0  0  0  0  0  0
  188.0950  177.3440  136.4020 C   0  0  2  0  0  3  0  0  0  0  0  0
  187.8150  178.7040  136.5550 O   0  0  0  0  0  1  0  0  0  0  0  0
  186.8890  176.5490  135.9000 C   0  0  2  0  0  3  0  0  0  0  0  0
  185.8120  177.3980  135.6580 O   0  0  0  0  0  1  0  0  0  0  0  0
  186.4830  175.3700  136.7890 C   0  0  0  0  0  2  0  0  0  0  0  0
  186.3320  174.0800  135.9940 C   0  0  0  0  0  2  0  0  0  0  0  0
  186.4050  172.8320  136.8780 C   0  0  1  0  0  3  0  0  0  0  0  0
  187.8410  172.4020  137.1440 C   0  0  0  0  0  1  0  0  0  0  0  0
  185.7280  173.0380  138.0890 O   0  0  0  0  0  1  0  0  0  0  0  0
  194.0690  173.7230  135.1210 C   0  0  0  0  0  2  0  0  0  0  0  0
  194.6650  170.2180  136.2970 C   0  0  2  0  0  3  0  0  0  0  0  0
  196.7930  173.0710  136.0670 O   0  0  0  0  0  0  0  0  0  0  0  0
  196.0440  170.8310  136.5660 C   0  0  2  0  0  3  0  0  0  0  0  0
  196.3530  170.7840  137.9170 F   0  0  0  0  0  0  0  0  0  0  0  0
  194.5080  172.5570  135.8710 N   0  0  0  0  0  0  0  0  0  0  0  0
  193.6910  171.3750  136.0250 C   0  0  0  0  0  2  0  0  0  0  0  0
  195.8530  172.2400  136.1570 C   0  0  0  0  0  0  0  0  0  0  0  0
  194.2300  169.4520  137.3660 F   0  0  0  0  0  0  0  0  0  0  0  0
  1  2  2  0  0  0  0
  1  8  1  0  0  0  0
  2  3  1  0  0  0  0
  3  6  2  0  0  0  0
  3  4  1  0  0  0  0
  4 13  2  0  0  0  0
  5  6  1  0  0  0  0
  5 11  2  0  0  0  0
  6  9  1  0  0  0  0
  7 12  2  0  0  0  0
  8  5  1  0  0  0  0
  9 13  1  0  0  0  0
  9 12  1  0  0  0  0
 11  7  1  0  0  0  0
 12 10  1  0  0  0  0
 14 19  1  1  0  0  0
 14 17  1  0  0  0  0
 15  7  1  6  0  0  0
 15 14  1  0  0  0  0
 16 15  1  0  0  0  0
 16 18  1  0  0  0  0
 17 20  1  0  0  0  0
 18 31  1  0  0  0  0
 18 17  1  0  0  0  0
 21 27  1  0  0  0  0
 22 25  1  0  0  0  0
 23 20  1  6  0  0  0
 23 22  1  0  0  0  0
 23 25  1  0  0  0  0
 24 30  1  1  0  0  0
 24 26  1  0  0  0  0
 25 29  1  6  0  0  0
 25 24  1  0  0  0  0
 26 28  1  0  0  0  0
 27 28  2  0  0  0  0
 29 21  2  0  0  0  0
 31 32  1  0  0  0  0
 33 34  2  0  0  0  0
 34 32  1  0  0  0  0
 35 34  2  0  0  0  0
 36 39  1  6  0  0  0
 36 34  1  0  0  0  0
 38 36  1  0  0  0  0
 38 37  1  0  0  0  0
 42 41  1  6  0  0  0
 42 40  1  0  0  0  0
 42 39  1  0  0  0  0
 43 11  1  0  0  0  0
 44 45  1  1  0  0  0
 44 43  1  0  0  0  0
 46 47  1  1  0  0  0
 46 44  1  0  0  0  0
 46 48  1  0  0  0  0
 49 48  1  0  0  0  0
 49 50  1  0  0  0  0
 50 51  1  1  0  0  0
 50 52  1  0  0  0  0
 53  2  1  0  0  0  0
 53 58  1  0  0  0  0
 54 56  1  0  0  0  0
 54 61  1  1  0  0  0
 55 60  2  0  0  0  0
 56 57  1  1  0  0  0
 58 59  1  0  0  0  0
 58 60  1  0  0  0  0
 59 54  1  0  0  0  0
 60 56  1  0  0  0  0
M  END
>  <MODEL>
3

>  <REMARK>
 VINA RESULT:      -6.7      1.760      2.564
  Name = 
  18 active torsions:
  status: ('A' for Active; 'I' for Inactive)
    1  A    between atoms: C_2  and  N_9
    2  A    between atoms: C_2  and  C_29
    3  A    between atoms: C_3  and  C_30
    4  A    between atoms: C_3  and  C_58
    5  A    between atoms: C_4  and  C_8
    6  A    between atoms: C_4  and  N_44
    7  A    between atoms: N_9  and  C_51
    8  A    between atoms: C_12  and  S_16
    9  A    between atoms: C_12  and  C_26
   10  A    between atoms: O_13  and  C_15
   11  A    between atoms: C_15  and  S_16
   12  A    between atoms: C_15  and  N_35
   13  A    between atoms: C_18  and  C_19
   14  A    between atoms: C_18  and  N_41
   15  A    between atoms: C_23  and  C_37
   16  A    between atoms: C_26  and  N_45
   17  A    between atoms: C_29  and  C_58
   18  A    between atoms: N_35  and  C_40
                            x       y       z     vdW  Elec       q    Type
                         _______ _______ _______ _____ _____    ______ ____

>  <TORSDO>
F 18

$$$$
=
 OpenBabel10232407513D

 61 67  0  0  1  0  0  0  0  0999 V2000
  191.4550  177.2750  142.8620 C   0  0  0  0  0  3  0  0  0  0  0  0
  190.4910  178.1650  143.1690 C   0  0  0  0  0  0  0  0  0  0  0  0
  189.4270  178.3930  142.1890 C   0  0  0  0  0  0  0  0  0  0  0  0
  188.3130  179.2300  142.1580 C   0  0  0  0  0  3  0  0  0  0  0  0
  190.3500  176.8200  140.5850 C   0  0  0  0  0  0  0  0  0  0  0  0
  189.4130  177.7390  141.0100 C   0  0  2  0  0  3  0  0  0  0  0  0
  189.0330  176.6960  138.5060 C   0  0  0  0  0  0  0  0  0  0  0  0
  191.4870  176.4890  141.5440 C   0  0  0  0  0  3  0  0  0  0  0  0
  188.3730  178.1320  140.2870 N   0  0  0  0  0  0  0  0  0  0  0  0
  187.0030  178.1030  138.3030 N   0  0  0  0  0  1  0  0  0  0  0  0
  190.1690  176.2760  139.2810 C   0  0  0  0  0  0  0  0  0  0  0  0
  188.1310  177.6470  139.0470 C   0  0  0  0  0  0  0  0  0  0  0  0
  187.6820  179.0400  140.9630 N   0  0  0  0  0  0  0  0  0  0  0  0
  187.9610  177.1110  136.2700 C   0  0  2  0  0  3  0  0  0  0  0  0
  188.7610  176.1680  137.1200 C   0  0  2  0  0  3  0  0  0  0  0  0
  187.9410  174.9160  137.1200 C   0  0  0  0  0  2  0  0  0  0  0  0
  187.0840  176.2980  135.4360 N   0  0  0  0  0  0  0  0  0  0  0  0
  187.0830  174.9700  135.9410 N   0  0  0  0  0  0  0  0  0  0  0  0
  188.8940  177.9290  135.3930 C   0  0  0  0  0  1  0  0  0  0  0  0
  185.7350  176.8260  135.6030 C   0  0  0  0  0  2  0  0  0  0  0  0
  183.0650  178.0230  138.5460 C   0  0  0  0  0  3  0  0  0  0  0  0
  183.3600  176.1010  135.4970 C   0  0  0  0  0  2  0  0  0  0  0  0
  184.7600  175.7100  135.9480 C   0  0  2  0  0  3  0  0  0  0  0  0
  183.0440  175.0020  137.8020 C   0  0  1  0  0  3  0  0  0  0  0  0
  183.6970  176.1180  136.9720 C   0  0  2  0  0  0  0  0  0  0  0  0
  181.5810  175.3300  137.9960 C   0  0  0  0  0  2  0  0  0  0  0  0
  182.0210  177.3900  139.3790 C   0  0  0  0  0  3  0  0  0  0  0  0
  181.3930  176.2280  139.1770 C   0  0  0  0  0  3  0  0  0  0  0  0
  183.7760  177.5040  137.5380 C   0  0  0  0  0  3  0  0  0  0  0  0
  183.1710  173.6130  137.1970 C   0  0  0  0  0  1  0  0  0  0  0  0
  187.7140  174.1290  134.9290 C   0  0  0  0  0  2  0  0  0  0  0  0
  186.9030  172.8620  134.7290 C   0  0  0  0  0  2  0  0  0  0  0  0
  187.6520  171.4120  136.8500 O   0  0  0  0  0  0  0  0  0  0  0  0
  187.8130  171.4710  135.3600 S   0  0  0  0  0  0  0  0  0  0  0  0
  189.2680  171.6400  135.0270 O   0  0  0  0  0  0  0  0  0  0  0  0
  187.1880  169.9680  134.6080 C   0  0  1  0  0  3  0  0  0  0  0  0
  187.9230  167.9200  135.0840 C   0  0  0  0  0  1  0  0  0  0  0  0
  188.2350  169.0660  134.3480 O   0  0  0  0  0  0  0  0  0  0  0  0
  186.1340  169.3370  135.4190 N   0  0  0  0  0  2  0  0  0  0  0  0
  184.3990  170.8170  134.9160 O   0  0  0  0  0  1  0  0  0  0  0  0
  183.8700  168.6190  135.4400 N   0  0  0  0  0  1  0  0  0  0  0  0
  184.8260  169.4980  134.7910 C   0  0  2  0  0  3  0  0  0  0  0  0
  191.0820  175.3220  138.7110 N   0  0  0  0  0  2  0  0  0  0  0  0
  192.0540  175.5960  137.6670 C   0  0  2  0  0  3  0  0  0  0  0  0
  191.9390  174.6420  136.6540 O   0  0  0  0  0  1  0  0  0  0  0  0
  193.4600  175.6530  138.2650 C   0  0  2  0  0  3  0  0  0  0  0  0
  193.7580  176.9450  138.6910 O   0  0  0  0  0  1  0  0  0  0  0  0
  194.5640  175.0940  137.3630 C   0  0  0  0  0  2  0  0  0  0  0  0
  194.7040  175.8880  136.0710 C   0  0  0  0  0  2  0  0  0  0  0  0
  195.0960  175.0090  134.8800 C   0  0  1  0  0  3  0  0  0  0  0  0
  196.1910  174.0140  135.2380 C   0  0  0  0  0  1  0  0  0  0  0  0
  193.9780  174.3360  134.3680 O   0  0  0  0  0  1  0  0  0  0  0  0
  190.5200  178.9120  144.4600 C   0  0  0  0  0  2  0  0  0  0  0  0
  187.8610  176.8870  146.1490 C   0  0  2  0  0  3  0  0  0  0  0  0
  191.3470  177.2900  146.7890 O   0  0  0  0  0  0  0  0  0  0  0  0
  189.0600  176.5630  147.0480 C   0  0  2  0  0  3  0  0  0  0  0  0
  188.8320  176.9890  148.3490 F   0  0  0  0  0  0  0  0  0  0  0  0
  189.6780  178.2630  145.4510 N   0  0  0  0  0  0  0  0  0  0  0  0
  188.2550  178.0850  145.2690 C   0  0  0  0  0  2  0  0  0  0  0  0
  190.1390  177.3780  146.4490 C   0  0  0  0  0  0  0  0  0  0  0  0
  186.7280  177.1750  146.8910 F   0  0  0  0  0  0  0  0  0  0  0  0
  1  2  1  0  0  0  0
  2 53  1  0  0  0  0
  3  2  2  0  0  0  0
  4  3  1  0  0  0  0
  5  8  1  0  0  0  0
  6  5  1  6  0  0  0
  6  3  1  0  0  0  0
  7 12  2  0  0  0  0
  7 11  1  0  0  0  0
  8  1  2  0  0  0  0
  9 13  1  0  0  0  0
  9  6  1  0  0  0  0
 10 12  1  0  0  0  0
 11  5  2  0  0  0  0
 12  9  1  0  0  0  0
 13  4  2  0  0  0  0
 14 19  1  6  0  0  0
 14 15  1  0  0  0  0
 15  7  1  1  0  0  0
 16 15  1  0  0  0  0
 17 20  1  0  0  0  0
 17 18  1  0  0  0  0
 17 14  1  0  0  0  0
 18 16  1  0  0  0  0
 21 27  1  0  0  0  0
 22 23  1  0  0  0  0
 23 20  1  6  0  0  0
 23 25  1  0  0  0  0
 24 30  1  6  0  0  0
 24 26  1  0  0  0  0
 25 22  1  6  0  0  0
 25 29  1  0  0  0  0
 25 24  1  0  0  0  0
 26 28  1  0  0  0  0
 28 27  2  0  0  0  0
 29 21  2  0  0  0  0
 31 18  1  0  0  0  0
 32 31  1  0  0  0  0
 32 34  1  0  0  0  0
 34 33  2  0  0  0  0
 35 34  2  0  0  0  0
 36 38  1  1  0  0  0
 36 34  1  0  0  0  0
 36 39  1  0  0  0  0
 38 37  1  0  0  0  0
 42 40  1  1  0  0  0
 42 39  1  0  0  0  0
 42 41  1  0  0  0  0
 43 11  1  0  0  0  0
 44 45  1  6  0  0  0
 44 46  1  0  0  0  0
 44 43  1  0  0  0  0
 46 47  1  6  0  0  0
 48 46  1  0  0  0  0
 49 48  1  0  0  0  0
 50 51  1  1  0  0  0
 50 49  1  0  0  0  0
 52 50  1  0  0  0  0
 53 58  1  0  0  0  0
 54 61  1  1  0  0  0
 54 56  1  0  0  0  0
 56 57  1  1  0  0  0
 58 60  1  0  0  0  0
 59 58  1  0  0  0  0
 59 54  1  0  0  0  0
 60 55  2  0  0  0  0
 60 56  1  0  0  0  0
M  END
>  <MODEL>
4

>  <REMARK>
 VINA RESULT:      -6.2      4.449      9.802
  Name = 
  18 active torsions:
  status: ('A' for Active; 'I' for Inactive)
    1  A    between atoms: C_2  and  N_9
    2  A    between atoms: C_2  and  C_29
    3  A    between atoms: C_3  and  C_30
    4  A    between atoms: C_3  and  C_58
    5  A    between atoms: C_4  and  C_8
    6  A    between atoms: C_4  and  N_44
    7  A    between atoms: N_9  and  C_51
    8  A    between atoms: C_12  and  S_16
    9  A    between atoms: C_12  and  C_26
   10  A    between atoms: O_13  and  C_15
   11  A    between atoms: C_15  and  S_16
   12  A    between atoms: C_15  and  N_35
   13  A    between atoms: C_18  and  C_19
   14  A    between atoms: C_18  and  N_41
   15  A    between atoms: C_23  and  C_37
   16  A    between atoms: C_26  and  N_45
   17  A    between atoms: C_29  and  C_58
   18  A    between atoms: N_35  and  C_40
                            x       y       z     vdW  Elec       q    Type
                         _______ _______ _______ _____ _____    ______ ____

>  <TORSDO>
F 18

$$$$
=
 OpenBabel10232407513D

 61 67  0  0  1  0  0  0  0  0999 V2000
  191.1610  175.9230  135.1070 C   0  0  0  0  0  3  0  0  0  0  0  0
  192.3460  175.6960  135.7090 C   0  0  0  0  0  0  0  0  0  0  0  0
  192.4780  176.0450  137.1250 C   0  0  0  0  0  0  0  0  0  0  0  0
  193.5280  175.9720  138.0380 C   0  0  0  0  0  3  0  0  0  0  0  0
  190.2010  176.8740  137.2950 C   0  0  0  0  0  0  0  0  0  0  0  0
  191.4490  176.5850  137.8080 C   0  0  0  0  0  0  0  0  0  0  0  0
  189.6700  177.7450  139.5380 C   0  0  0  0  0  0  0  0  0  0  0  0
  189.9500  176.5220  135.8340 C   0  0  0  0  0  2  0  0  0  0  0  0
  191.8180  176.8380  139.0570 N   0  0  0  0  0  0  0  0  0  0  0  0
  191.4230  177.6620  141.2880 N   0  0  0  0  0  1  0  0  0  0  0  0
  189.2690  177.4850  138.1820 C   0  0  0  0  0  0  0  0  0  0  0  0
  190.9810  177.4030  139.9570 C   0  0  0  0  0  0  0  0  0  0  0  0
  193.0820  176.4720  139.2270 N   0  0  0  0  0  0  0  0  0  0  0  0
  189.2000  178.2030  141.9650 C   0  0  2  0  0  3  0  0  0  0  0  0
  188.7470  178.3830  140.5460 C   0  0  2  0  0  3  0  0  0  0  0  0
  187.3730  177.7910  140.5400 C   0  0  0  0  0  2  0  0  0  0  0  0
  188.0010  178.0410  142.7800 N   0  0  0  0  0  0  0  0  0  0  0  0
  186.8970  177.8070  141.9190 N   0  0  0  0  0  0  0  0  0  0  0  0
  189.9690  179.4320  142.4190 C   0  0  0  0  0  1  0  0  0  0  0  0
  188.1930  176.8360  143.5770 C   0  0  0  0  0  2  0  0  0  0  0  0
  191.8090  175.8440  145.3580 C   0  0  0  0  0  3  0  0  0  0  0  0
  189.1580  178.3040  145.3360 C   0  0  0  0  0  2  0  0  0  0  0  0
  188.1840  177.1670  145.0630 C   0  0  2  0  0  3  0  0  0  0  0  0
  189.4950  176.6470  147.2760 C   0  0  1  0  0  3  0  0  0  0  0  0
  189.5210  176.8970  145.7600 C   0  0  2  0  0  0  0  0  0  0  0  0
  190.7110  177.2930  147.8990 C   0  0  0  0  0  2  0  0  0  0  0  0
  192.3570  175.7840  146.7290 C   0  0  0  0  0  3  0  0  0  0  0  0
  191.8890  176.3730  147.8330 C   0  0  0  0  0  3  0  0  0  0  0  0
  190.6250  176.3050  144.9370 C   0  0  0  0  0  3  0  0  0  0  0  0
  188.2440  177.1560  147.9750 C   0  0  0  0  0  1  0  0  0  0  0  0
  186.0100  178.9590  142.0390 C   0  0  0  0  0  2  0  0  0  0  0  0
  184.5620  178.5030  142.0320 C   0  0  0  0  0  2  0  0  0  0  0  0
  183.8330  177.5960  139.6220 O   0  0  0  0  0  0  0  0  0  0  0  0
  183.8400  178.8500  140.4450 S   0  0  0  0  0  0  0  0  0  0  0  0
  184.6620  179.8950  139.7460 O   0  0  0  0  0  0  0  0  0  0  0  0
  182.1660  179.4490  140.6790 C   0  0  1  0  0  3  0  0  0  0  0  0
  181.1120  178.8120  138.8230 C   0  0  0  0  0  1  0  0  0  0  0  0
  181.6360  179.9350  139.4710 O   0  0  0  0  0  0  0  0  0  0  0  0
  181.2870  178.4280  141.2710 N   0  0  0  0  0  2  0  0  0  0  0  0
  181.6470  179.4330  143.3490 O   0  0  0  0  0  1  0  0  0  0  0  0
  179.9830  177.8270  143.1630 N   0  0  0  0  0  1  0  0  0  0  0  0
  180.6710  178.9200  142.4990 C   0  0  2  0  0  3  0  0  0  0  0  0
  187.9410  177.8520  137.7700 N   0  0  0  0  0  2  0  0  0  0  0  0
  187.5150  178.1050  136.4050 C   0  0  2  0  0  3  0  0  0  0  0  0
  187.0380  179.4130  136.2950 O   0  0  0  0  0  1  0  0  0  0  0  0
  186.4790  177.0640  135.9800 C   0  0  2  0  0  3  0  0  0  0  0  0
  185.4170  177.6750  135.3180 O   0  0  0  0  0  1  0  0  0  0  0  0
  185.9850  176.1520  137.1070 C   0  0  0  0  0  2  0  0  0  0  0  0
  186.3020  174.6870  136.8390 C   0  0  0  0  0  2  0  0  0  0  0  0
  185.0510  173.8620  136.5260 C   0  0  1  0  0  3  0  0  0  0  0  0
  183.7950  174.4730  137.1340 C   0  0  0  0  0  1  0  0  0  0  0  0
  184.8910  173.7020  135.1420 O   0  0  0  0  0  1  0  0  0  0  0  0
  193.4940  175.1250  134.9470 C   0  0  0  0  0  2  0  0  0  0  0  0
  194.5360  171.9830  136.6980 C   0  0  2  0  0  3  0  0  0  0  0  0
  191.5180  172.9280  135.0480 O   0  0  0  0  0  0  0  0  0  0  0  0
  193.1370  171.5760  136.2220 C   0  0  2  0  0  3  0  0  0  0  0  0
  193.2040  170.4970  135.3530 F   0  0  0  0  0  0  0  0  0  0  0  0
  193.7120  173.7330  135.3070 N   0  0  0  0  0  0  0  0  0  0  0  0
  194.9180  173.2740  135.9570 C   0  0  0  0  0  2  0  0  0  0  0  0
  192.6900  172.7740  135.4790 C   0  0  0  0  0  0  0  0  0  0  0  0
  195.4680  170.9860  136.4580 F   0  0  0  0  0  0  0  0  0  0  0  0
  1  2  2  0  0  0  0
  1  8  1  0  0  0  0
  2  3  1  0  0  0  0
  3  6  2  0  0  0  0
  3  4  1  0  0  0  0
  4 13  2  0  0  0  0
  5  6  1  0  0  0  0
  5 11  2  0  0  0  0
  6  9  1  0  0  0  0
  7 12  2  0  0  0  0
  8  5  1  0  0  0  0
  9 13  1  0  0  0  0
  9 12  1  0  0  0  0
 11  7  1  0  0  0  0
 12 10  1  0  0  0  0
 14 19  1  1  0  0  0
 14 17  1  0  0  0  0
 15  7  1  6  0  0  0
 15 14  1  0  0  0  0
 16 15  1  0  0  0  0
 16 18  1  0  0  0  0
 17 20  1  0  0  0  0
 18 31  1  0  0  0  0
 18 17  1  0  0  0  0
 21 27  1  0  0  0  0
 22 25  1  0  0  0  0
 23 20  1  6  0  0  0
 23 22  1  0  0  0  0
 23 25  1  0  0  0  0
 24 26  1  0  0  0  0
 24 30  1  1  0  0  0
 25 29  1  6  0  0  0
 25 24  1  0  0  0  0
 27 28  2  0  0  0  0
 28 26  1  0  0  0  0
 29 21  2  0  0  0  0
 32 31  1  0  0  0  0
 33 34  2  0  0  0  0
 34 36  1  0  0  0  0
 34 32  1  0  0  0  0
 35 34  2  0  0  0  0
 36 38  1  6  0  0  0
 36 39  1  0  0  0  0
 37 38  1  0  0  0  0
 39 42  1  0  0  0  0
 42 41  1  1  0  0  0
 42 40  1  0  0  0  0
 43 11  1  0  0  0  0
 44 45  1  1  0  0  0
 44 43  1  0  0  0  0
 46 47  1  1  0  0  0
 46 44  1  0  0  0  0
 46 48  1  0  0  0  0
 49 48  1  0  0  0  0
 50 49  1  0  0  0  0
 50 51  1  6  0  0  0
 52 50  1  0  0  0  0
 53 58  1  0  0  0  0
 53  2  1  0  0  0  0
 54 61  1  6  0  0  0
 55 60  2  0  0  0  0
 56 57  1  6  0  0  0
 56 54  1  0  0  0  0
 58 60  1  0  0  0  0
 58 59  1  0  0  0  0
 59 54  1  0  0  0  0
 60 56  1  0  0  0  0
M  END
>  <MODEL>
5

>  <REMARK>
 VINA RESULT:      -6.0      2.035      2.821
  Name = 
  18 active torsions:
  status: ('A' for Active; 'I' for Inactive)
    1  A    between atoms: C_2  and  N_9
    2  A    between atoms: C_2  and  C_29
    3  A    between atoms: C_3  and  C_30
    4  A    between atoms: C_3  and  C_58
    5  A    between atoms: C_4  and  C_8
    6  A    between atoms: C_4  and  N_44
    7  A    between atoms: N_9  and  C_51
    8  A    between atoms: C_12  and  S_16
    9  A    between atoms: C_12  and  C_26
   10  A    between atoms: O_13  and  C_15
   11  A    between atoms: C_15  and  S_16
   12  A    between atoms: C_15  and  N_35
   13  A    between atoms: C_18  and  C_19
   14  A    between atoms: C_18  and  N_41
   15  A    between atoms: C_23  and  C_37
   16  A    between atoms: C_26  and  N_45
   17  A    between atoms: C_29  and  C_58
   18  A    between atoms: N_35  and  C_40
                            x       y       z     vdW  Elec       q    Type
                         _______ _______ _______ _____ _____    ______ ____

>  <TORSDO>
F 18

$$$$
=
 OpenBabel10232407513D

 61 67  0  0  1  0  0  0  0  0999 V2000
  191.8370  176.8960  140.0770 C   0  0  0  0  0  3  0  0  0  0  0  0
  191.1060  177.6710  140.9030 C   0  0  0  0  0  0  0  0  0  0  0  0
  189.7050  177.9150  140.5570 C   0  0  0  0  0  0  0  0  0  0  0  0
  188.6850  178.6610  141.1480 C   0  0  0  0  0  3  0  0  0  0  0  0
  189.8120  176.5980  138.5190 C   0  0  0  0  0  0  0  0  0  0  0  0
  189.1600  177.3900  139.4410 C   0  0  0  0  0  0  0  0  0  0  0  0
  187.6850  176.5900  137.2760 C   0  0  0  0  0  0  0  0  0  0  0  0
  191.2720  176.2580  138.8010 C   0  0  0  0  0  2  0  0  0  0  0  0
  187.8950  177.7740  139.3310 N   0  0  0  0  0  0  0  0  0  0  0  0
  185.7630  177.8460  138.2080 N   0  0  0  0  0  1  0  0  0  0  0  0
  189.0590  176.1820  137.3850 C   0  0  0  0  0  0  0  0  0  0  0  0
  187.1160  177.4050  138.2880 C   0  0  0  0  0  0  0  0  0  0  0  0
  187.5770  178.5490  140.3600 N   0  0  0  0  0  0  0  0  0  0  0  0
  185.9610  177.3120  135.5960 C   0  0  2  0  0  3  0  0  0  0  0  0
  186.8120  176.1900  136.1120 C   0  0  2  0  0  3  0  0  0  0  0  0
  185.8190  175.1290  136.4620 C   0  0  0  0  0  2  0  0  0  0  0  0
  184.6900  176.7290  135.1800 N   0  0  0  0  0  0  0  0  0  0  0  0
  184.6110  175.4060  135.6910 N   0  0  0  0  0  0  0  0  0  0  0  0
  186.6400  177.9680  134.4050 C   0  0  0  0  0  1  0  0  0  0  0  0
  183.6380  177.5060  135.8240 C   0  0  0  0  0  2  0  0  0  0  0  0
  181.5110  180.0040  138.3670 C   0  0  0  0  0  3  0  0  0  0  0  0
  181.5030  176.7300  136.8310 C   0  0  0  0  0  2  0  0  0  0  0  0
  183.0180  176.7230  136.9720 C   0  0  2  0  0  3  0  0  0  0  0  0
  181.9470  177.0810  139.3400 C   0  0  1  0  0  3  0  0  0  0  0  0
  182.1520  177.5790  137.9020 C   0  0  2  0  0  0  0  0  0  0  0  0
  180.5300  177.3890  139.7670 C   0  0  0  0  0  2  0  0  0  0  0  0
  180.8350  179.8890  139.6750 C   0  0  0  0  0  3  0  0  0  0  0  0
  180.4310  178.7810  140.3040 C   0  0  0  0  0  3  0  0  0  0  0  0
  182.0680  179.0470  137.6140 C   0  0  0  0  0  3  0  0  0  0  0  0
  182.2190  175.5980  139.5370 C   0  0  0  0  0  1  0  0  0  0  0  0
  184.6340  174.5030  134.5450 C   0  0  0  0  0  2  0  0  0  0  0  0
  183.6350  173.3790  134.7510 C   0  0  0  0  0  2  0  0  0  0  0  0
  184.2240  172.0690  137.0090 O   0  0  0  0  0  0  0  0  0  0  0  0
  184.4480  172.0010  135.5280 S   0  0  0  0  0  0  0  0  0  0  0  0
  185.9220  172.0740  135.2470 O   0  0  0  0  0  0  0  0  0  0  0  0
  183.7780  170.4750  134.8680 C   0  0  1  0  0  3  0  0  0  0  0  0
  184.1090  168.3280  134.3760 C   0  0  0  0  0  1  0  0  0  0  0  0
  184.7760  169.4890  134.7750 O   0  0  0  0  0  0  0  0  0  0  0  0
  182.6260  169.9900  135.6460 N   0  0  0  0  0  2  0  0  0  0  0  0
  180.7960  171.4050  135.9670 O   0  0  0  0  0  1  0  0  0  0  0  0
  180.4610  169.3800  134.8850 N   0  0  0  0  0  1  0  0  0  0  0  0
  181.3730  170.4910  135.0900 C   0  0  2  0  0  3  0  0  0  0  0  0
  189.6240  175.3670  136.3420 N   0  0  0  0  0  2  0  0  0  0  0  0
  189.4500  173.9330  136.1970 C   0  0  2  0  0  3  0  0  0  0  0  0
  189.1530  173.3670  137.4380 O   0  0  0  0  0  1  0  0  0  0  0  0
  190.6930  173.3180  135.5520 C   0  0  2  0  0  3  0  0  0  0  0  0
  190.5560  171.9350  135.4520 O   0  0  0  0  0  1  0  0  0  0  0  0
  192.0170  173.7020  136.2180 C   0  0  0  0  0  2  0  0  0  0  0  0
  193.2140  173.4040  135.3250 C   0  0  0  0  0  2  0  0  0  0  0  0
  194.1390  174.6120  135.1590 C   0  0  1  0  0  3  0  0  0  0  0  0
  193.9020  175.6670  136.2310 C   0  0  0  0  0  1  0  0  0  0  0  0
  195.4840  174.2150  135.1590 O   0  0  0  0  0  1  0  0  0  0  0  0
  191.7140  178.2770  142.1230 C   0  0  0  0  0  2  0  0  0  0  0  0
  189.0420  177.9790  144.7290 C   0  0  2  0  0  3  0  0  0  0  0  0
  191.2370  175.5870  143.2520 O   0  0  0  0  0  0  0  0  0  0  0  0
  189.5480  176.5330  144.6940 C   0  0  2  0  0  3  0  0  0  0  0  0
  190.0650  176.1590  145.9260 F   0  0  0  0  0  0  0  0  0  0  0  0
  190.9560  177.9200  143.3110 N   0  0  0  0  0  0  0  0  0  0  0  0
  190.0650  178.8440  143.9740 C   0  0  0  0  0  2  0  0  0  0  0  0
  190.6440  176.6000  143.7040 C   0  0  0  0  0  0  0  0  0  0  0  0
  188.8800  178.4330  146.0280 F   0  0  0  0  0  0  0  0  0  0  0  0
  1  2  2  0  0  0  0
  2 53  1  0  0  0  0
  3  2  1  0  0  0  0
  3  4  1  0  0  0  0
  5  8  1  0  0  0  0
  5  6  1  0  0  0  0
  6  3  2  0  0  0  0
  7 11  1  0  0  0  0
  7 12  2  0  0  0  0
  8  1  1  0  0  0  0
  9  6  1  0  0  0  0
  9 13  1  0  0  0  0
 10 12  1  0  0  0  0
 11  5  2  0  0  0  0
 12  9  1  0  0  0  0
 13  4  2  0  0  0  0
 14 19  1  6  0  0  0
 14 15  1  0  0  0  0
 15 16  1  0  0  0  0
 15  7  1  1  0  0  0
 17 14  1  0  0  0  0
 17 18  1  0  0  0  0
 17 20  1  0  0  0  0
 18 16  1  0  0  0  0
 21 27  1  0  0  0  0
 22 23  1  0  0  0  0
 23 20  1  6  0  0  0
 23 25  1  0  0  0  0
 24 30  1  6  0  0  0
 24 26  1  0  0  0  0
 25 22  1  6  0  0  0
 25 24  1  0  0  0  0
 26 28  1  0  0  0  0
 27 28  2  0  0  0  0
 29 25  1  0  0  0  0
 29 21  2  0  0  0  0
 31 32  1  0  0  0  0
 31 18  1  0  0  0  0
 32 34  1  0  0  0  0
 34 33  2  0  0  0  0
 35 34  2  0  0  0  0
 36 38  1  1  0  0  0
 36 34  1  0  0  0  0
 36 39  1  0  0  0  0
 37 38  1  0  0  0  0
 42 41  1  1  0  0  0
 42 39  1  0  0  0  0
 42 40  1  0  0  0  0
 43 11  1  0  0  0  0
 44 43  1  0  0  0  0
 44 45  1  1  0  0  0
 46 47  1  1  0  0  0
 46 44  1  0  0  0  0
 46 48  1  0  0  0  0
 49 48  1  0  0  0  0
 50 52  1  0  0  0  0
 50 49  1  0  0  0  0
 50 51  1  1  0  0  0
 53 58  1  0  0  0  0
 54 61  1  1  0  0  0
 55 60  2  0  0  0  0
 56 54  1  0  0  0  0
 56 57  1  1  0  0  0
 58 60  1  0  0  0  0
 58 59  1  0  0  0  0
 59 54  1  0  0  0  0
 60 56  1  0  0  0  0
M  END
>  <MODEL>
6

>  <REMARK>
 VINA RESULT:      -6.0      4.122      9.088
  Name = 
  18 active torsions:
  status: ('A' for Active; 'I' for Inactive)
    1  A    between atoms: C_2  and  N_9
    2  A    between atoms: C_2  and  C_29
    3  A    between atoms: C_3  and  C_30
    4  A    between atoms: C_3  and  C_58
    5  A    between atoms: C_4  and  C_8
    6  A    between atoms: C_4  and  N_44
    7  A    between atoms: N_9  and  C_51
    8  A    between atoms: C_12  and  S_16
    9  A    between atoms: C_12  and  C_26
   10  A    between atoms: O_13  and  C_15
   11  A    between atoms: C_15  and  S_16
   12  A    between atoms: C_15  and  N_35
   13  A    between atoms: C_18  and  C_19
   14  A    between atoms: C_18  and  N_41
   15  A    between atoms: C_23  and  C_37
   16  A    between atoms: C_26  and  N_45
   17  A    between atoms: C_29  and  C_58
   18  A    between atoms: N_35  and  C_40
                            x       y       z     vdW  Elec       q    Type
                         _______ _______ _______ _____ _____    ______ ____

>  <TORSDO>
F 18

$$$$
=
 OpenBabel10232407513D

 61 67  0  0  1  0  0  0  0  0999 V2000
  186.5260  178.6730  141.6320 C   0  0  0  0  0  3  0  0  0  0  0  0
  185.5890  178.8980  140.6890 C   0  0  0  0  0  0  0  0  0  0  0  0
  185.8750  178.4700  139.3180 C   0  0  0  0  0  0  0  0  0  0  0  0
  185.1710  178.5570  138.1180 C   0  0  0  0  0  3  0  0  0  0  0  0
  188.0760  177.6080  139.8780 C   0  0  0  0  0  0  0  0  0  0  0  0
  187.0440  177.8760  139.0030 C   0  0  2  0  0  3  0  0  0  0  0  0
  189.2730  176.7100  137.9210 C   0  0  0  0  0  0  0  0  0  0  0  0
  187.8680  177.9890  141.3390 C   0  0  0  0  0  3  0  0  0  0  0  0
  187.0790  177.6080  137.7040 N   0  0  0  0  0  0  0  0  0  0  0  0
  188.1460  176.7630  135.7140 N   0  0  0  0  0  1  0  0  0  0  0  0
  189.2450  177.0090  139.3260 C   0  0  0  0  0  0  0  0  0  0  0  0
  188.1500  177.0270  137.1150 C   0  0  0  0  0  0  0  0  0  0  0  0
  185.9480  178.0110  137.1390 N   0  0  0  0  0  0  0  0  0  0  0  0
  190.2870  175.8710  135.7780 C   0  0  2  0  0  3  0  0  0  0  0  0
  190.4660  176.0700  137.2540 C   0  0  2  0  0  3  0  0  0  0  0  0
  190.7520  174.6920  137.7610 C   0  0  0  0  0  2  0  0  0  0  0  0
  190.9530  174.6220  135.4300 N   0  0  0  0  0  0  0  0  0  0  0  0
  191.2470  173.9170  136.6280 N   0  0  0  0  0  0  0  0  0  0  0  0
  190.9260  177.0240  135.0220 C   0  0  0  0  0  1  0  0  0  0  0  0
  189.9890  173.8230  134.6830 C   0  0  0  0  0  2  0  0  0  0  0  0
  185.9100  174.5170  134.3550 C   0  0  0  0  0  3  0  0  0  0  0  0
  188.3900  171.9230  134.8000 C   0  0  0  0  0  2  0  0  0  0  0  0
  189.2000  172.9180  135.6190 C   0  0  2  0  0  3  0  0  0  0  0  0
  186.8180  172.6760  136.6930 C   0  0  1  0  0  3  0  0  0  0  0  0
  187.6810  173.0710  135.4850 C   0  0  2  0  0  0  0  0  0  0  0  0
  185.5530  172.0160  136.1940 C   0  0  0  0  0  2  0  0  0  0  0  0
  184.6820  174.0920  135.0600 C   0  0  0  0  0  3  0  0  0  0  0  0
  184.5140  173.0430  135.8710 C   0  0  0  0  0  3  0  0  0  0  0  0
  187.1700  174.1000  134.5230 C   0  0  0  0  0  3  0  0  0  0  0  0
  187.5090  171.7510  137.6830 C   0  0  0  0  0  1  0  0  0  0  0  0
  192.6990  173.8770  136.7540 C   0  0  0  0  0  2  0  0  0  0  0  0
  193.2050  172.4700  136.4880 C   0  0  0  0  0  2  0  0  0  0  0  0
  194.9010  173.7820  134.8870 O   0  0  0  0  0  0  0  0  0  0  0  0
  194.8170  172.5530  135.7420 S   0  0  0  0  0  0  0  0  0  0  0  0
  195.0270  171.3380  134.8840 O   0  0  0  0  0  0  0  0  0  0  0  0
  196.0600  172.6080  137.0330 C   0  0  1  0  0  3  0  0  0  0  0  0
  196.3130  170.5300  137.7950 C   0  0  0  0  0  1  0  0  0  0  0  0
  196.9040  171.4850  136.9620 O   0  0  0  0  0  0  0  0  0  0  0  0
  196.8380  173.8570  137.0030 N   0  0  0  0  0  2  0  0  0  0  0  0
  196.0080  174.7340  139.0030 O   0  0  0  0  0  1  0  0  0  0  0  0
  198.1130  175.3950  138.2870 N   0  0  0  0  0  1  0  0  0  0  0  0
  197.1620  174.3010  138.3560 C   0  0  2  0  0  3  0  0  0  0  0  0
  190.3990  176.6930  140.1260 N   0  0  0  0  0  2  0  0  0  0  0  0
  191.2040  177.6470  140.8670 C   0  0  2  0  0  3  0  0  0  0  0  0
  192.4870  177.7070  140.3200 O   0  0  0  0  0  1  0  0  0  0  0  0
  191.2150  177.2790  142.3510 C   0  0  2  0  0  3  0  0  0  0  0  0
  190.6800  176.0070  142.5420 O   0  0  0  0  0  1  0  0  0  0  0  0
  190.5520  178.3070  143.2730 C   0  0  0  0  0  2  0  0  0  0  0  0
  190.8180  178.0130  144.7430 C   0  0  0  0  0  2  0  0  0  0  0  0
  189.5360  177.9960  145.5800 C   0  0  1  0  0  3  0  0  0  0  0  0
  188.3450  177.4630  144.7950 C   0  0  0  0  0  1  0  0  0  0  0  0
  189.7160  177.2500  146.7540 O   0  0  0  0  0  1  0  0  0  0  0  0
  184.3090  179.5830  141.0300 C   0  0  0  0  0  2  0  0  0  0  0  0
  181.1430  177.6170  140.6630 C   0  0  2  0  0  3  0  0  0  0  0  0
  182.4710  180.3930  138.8600 O   0  0  0  0  0  0  0  0  0  0  0  0
  180.9950  178.5890  139.4870 C   0  0  2  0  0  3  0  0  0  0  0  0
  180.9460  177.9050  138.2820 F   0  0  0  0  0  0  0  0  0  0  0  0
  183.1730  178.8520  140.4910 N   0  0  0  0  0  0  0  0  0  0  0  0
  182.5970  177.7050  141.1550 C   0  0  0  0  0  2  0  0  0  0  0  0
  182.2490  179.3690  139.5570 C   0  0  0  0  0  0  0  0  0  0  0  0
  180.8280  176.3190  140.2960 F   0  0  0  0  0  0  0  0  0  0  0  0
  2 53  1  0  0  0  0
  2  1  1  0  0  0  0
  3  2  2  0  0  0  0
  4  3  1  0  0  0  0
  5  8  1  0  0  0  0
  6  3  1  6  0  0  0
  6  5  1  0  0  0  0
  7 11  1  0  0  0  0
  8  1  2  0  0  0  0
  9  6  1  0  0  0  0
 10 12  1  0  0  0  0
 11  5  2  0  0  0  0
 11 43  1  0  0  0  0
 12  9  1  0  0  0  0
 12  7  2  0  0  0  0
 13  9  1  0  0  0  0
 13  4  2  0  0  0  0
 14 19  1  6  0  0  0
 14 15  1  0  0  0  0
 15 16  1  0  0  0  0
 15  7  1  1  0  0  0
 17 14  1  0  0  0  0
 17 18  1  0  0  0  0
 18 31  1  0  0  0  0
 18 16  1  0  0  0  0
 20 17  1  0  0  0  0
 21 29  2  0  0  0  0
 21 27  1  0  0  0  0
 22 25  1  0  0  0  0
 22 23  1  0  0  0  0
 23 20  1  6  0  0  0
 24 30  1  1  0  0  0
 25 29  1  6  0  0  0
 25 23  1  0  0  0  0
 25 24  1  0  0  0  0
 26 24  1  0  0  0  0
 27 28  2  0  0  0  0
 28 26  1  0  0  0  0
 32 31  1  0  0  0  0
 33 34  2  0  0  0  0
 34 32  1  0  0  0  0
 34 36  1  0  0  0  0
 35 34  2  0  0  0  0
 36 38  1  6  0  0  0
 38 37  1  0  0  0  0
 39 36  1  0  0  0  0
 39 42  1  0  0  0  0
 42 41  1  6  0  0  0
 42 40  1  0  0  0  0
 43 44  1  0  0  0  0
 44 45  1  6  0  0  0
 44 46  1  0  0  0  0
 46 47  1  6  0  0  0
 46 48  1  0  0  0  0
 48 49  1  0  0  0  0
 49 50  1  0  0  0  0
 50 51  1  6  0  0  0
 50 52  1  0  0  0  0
 54 61  1  6  0  0  0
 54 59  1  0  0  0  0
 55 60  2  0  0  0  0
 56 57  1  6  0  0  0
 56 60  1  0  0  0  0
 56 54  1  0  0  0  0
 58 53  1  0  0  0  0
 58 59  1  0  0  0  0
 60 58  1  0  0  0  0
M  END
>  <MODEL>
7

>  <REMARK>
 VINA RESULT:      -5.7      4.339     11.453
  Name = 
  18 active torsions:
  status: ('A' for Active; 'I' for Inactive)
    1  A    between atoms: C_2  and  N_9
    2  A    between atoms: C_2  and  C_29
    3  A    between atoms: C_3  and  C_30
    4  A    between atoms: C_3  and  C_58
    5  A    between atoms: C_4  and  C_8
    6  A    between atoms: C_4  and  N_44
    7  A    between atoms: N_9  and  C_51
    8  A    between atoms: C_12  and  S_16
    9  A    between atoms: C_12  and  C_26
   10  A    between atoms: O_13  and  C_15
   11  A    between atoms: C_15  and  S_16
   12  A    between atoms: C_15  and  N_35
   13  A    between atoms: C_18  and  C_19
   14  A    between atoms: C_18  and  N_41
   15  A    between atoms: C_23  and  C_37
   16  A    between atoms: C_26  and  N_45
   17  A    between atoms: C_29  and  C_58
   18  A    between atoms: N_35  and  C_40
                            x       y       z     vdW  Elec       q    Type
                         _______ _______ _______ _____ _____    ______ ____

>  <TORSDO>
F 18

$$$$
=
 OpenBabel10232407513D

 61 67  0  0  1  0  0  0  0  0999 V2000
  188.8310  178.1410  143.9390 C   0  0  0  0  0  3  0  0  0  0  0  0
  190.1530  178.0730  143.6820 C   0  0  0  0  0  0  0  0  0  0  0  0
  190.5750  177.8910  142.2920 C   0  0  0  0  0  0  0  0  0  0  0  0
  191.8190  177.7590  141.6750 C   0  0  0  0  0  3  0  0  0  0  0  0
  188.3010  177.8270  141.4430 C   0  0  0  0  0  0  0  0  0  0  0  0
  189.6720  177.7850  141.2970 C   0  0  2  0  0  3  0  0  0  0  0  0
  188.2030  177.4630  139.0080 C   0  0  0  0  0  0  0  0  0  0  0  0
  187.7550  178.0420  142.8500 C   0  0  0  0  0  3  0  0  0  0  0  0
  190.2930  177.5990  140.1400 N   0  0  0  0  0  0  0  0  0  0  0  0
  190.3290  177.2380  137.7560 N   0  0  0  0  0  1  0  0  0  0  0  0
  187.5250  177.6530  140.2620 C   0  0  0  0  0  0  0  0  0  0  0  0
  189.6200  177.4410  138.9760 C   0  0  0  0  0  0  0  0  0  0  0  0
  191.6040  177.5810  140.3400 N   0  0  0  0  0  0  0  0  0  0  0  0
  187.9290  176.0890  136.9210 C   0  0  2  0  0  3  0  0  0  0  0  0
  187.4610  177.2780  137.7080 C   0  0  2  0  0  3  0  0  0  0  0  0
  187.6440  178.4200  136.7590 C   0  0  0  0  0  2  0  0  0  0  0  0
  187.8500  176.4510  135.5100 N   0  0  0  0  0  0  0  0  0  0  0  0
  187.6630  177.8560  135.4140 N   0  0  0  0  0  0  0  0  0  0  0  0
  187.0260  174.9000  137.1980 C   0  0  0  0  0  1  0  0  0  0  0  0
  189.1480  176.1450  134.9220 C   0  0  0  0  0  2  0  0  0  0  0  0
  193.2090  175.3850  134.5260 C   0  0  0  0  0  3  0  0  0  0  0  0
  190.2200  174.3650  136.2870 C   0  0  0  0  0  2  0  0  0  0  0  0
  189.4400  174.6540  135.0120 C   0  0  2  0  0  3  0  0  0  0  0  0
  191.3250  172.9090  134.4760 C   0  0  1  0  0  3  0  0  0  0  0  0
  190.9330  174.3160  134.9540 C   0  0  2  0  0  0  0  0  0  0  0  0
  192.5130  172.4340  135.2810 C   0  0  0  0  0  2  0  0  0  0  0  0
  194.0760  174.1970  134.3850 C   0  0  0  0  0  3  0  0  0  0  0  0
  193.7910  172.9240  134.6760 C   0  0  0  0  0  3  0  0  0  0  0  0
  191.8940  175.4500  134.7620 C   0  0  0  0  0  3  0  0  0  0  0  0
  190.2100  171.8800  134.5720 C   0  0  0  0  0  1  0  0  0  0  0  0
  186.3340  178.0730  134.8530 C   0  0  0  0  0  2  0  0  0  0  0  0
  185.7310  176.7480  134.4220 C   0  0  0  0  0  2  0  0  0  0  0  0
  183.1280  177.3710  134.4190 O   0  0  0  0  0  0  0  0  0  0  0  0
  184.1320  176.5530  135.1760 S   0  0  0  0  0  0  0  0  0  0  0  0
  184.1930  177.0380  136.5960 O   0  0  0  0  0  0  0  0  0  0  0  0
  183.6730  174.8200  135.1430 C   0  0  1  0  0  3  0  0  0  0  0  0
  184.3150  172.6990  134.9260 C   0  0  0  0  0  1  0  0  0  0  0  0
  184.7920  174.0120  134.8730 O   0  0  0  0  0  0  0  0  0  0  0  0
  183.0020  174.3990  136.3830 N   0  0  0  0  0  2  0  0  0  0  0  0
  180.9230  175.4570  136.2620 O   0  0  0  0  0  1  0  0  0  0  0  0
  181.0360  173.3270  137.1740 N   0  0  0  0  0  1  0  0  0  0  0  0
  181.5680  174.2270  136.1680 C   0  0  2  0  0  3  0  0  0  0  0  0
  186.0860  177.6580  140.2770 N   0  0  0  0  0  2  0  0  0  0  0  0
  185.2390  178.8170  140.0550 C   0  0  2  0  0  3  0  0  0  0  0  0
  185.6540  179.8670  140.8780 O   0  0  0  0  0  1  0  0  0  0  0  0
  183.7730  178.4420  140.2740 C   0  0  2  0  0  3  0  0  0  0  0  0
  182.9800  178.9560  139.2500 O   0  0  0  0  0  1  0  0  0  0  0  0
  183.2150  178.8110  141.6510 C   0  0  0  0  0  2  0  0  0  0  0  0
  184.1680  178.4320  142.7760 C   0  0  0  0  0  2  0  0  0  0  0  0
  183.9570  179.2750  144.0360 C   0  0  1  0  0  3  0  0  0  0  0  0
  184.3430  178.5210  145.3020 C   0  0  0  0  0  1  0  0  0  0  0  0
  184.6670  180.4820  143.9550 O   0  0  0  0  0  1  0  0  0  0  0  0
  191.1540  178.1600  144.7850 C   0  0  0  0  0  2  0  0  0  0  0  0
  192.6970  174.8240  145.5000 C   0  0  2  0  0  3  0  0  0  0  0  0
  191.3200  177.3400  147.6200 O   0  0  0  0  0  0  0  0  0  0  0  0
  192.3130  175.2540  146.9200 C   0  0  2  0  0  3  0  0  0  0  0  0
  191.4000  174.3700  147.4760 F   0  0  0  0  0  0  0  0  0  0  0  0
  191.4410  176.8420  145.3260 N   0  0  0  0  0  0  0  0  0  0  0  0
  191.9790  175.7680  144.5220 C   0  0  0  0  0  2  0  0  0  0  0  0
  191.6540  176.5580  146.6930 C   0  0  0  0  0  0  0  0  0  0  0  0
  192.3490  173.5060  145.2530 F   0  0  0  0  0  0  0  0  0  0  0  0
  2  1  1  0  0  0  0
  2 53  1  0  0  0  0
  3  2  2  0  0  0  0
  4  3  1  0  0  0  0
  5  8  1  0  0  0  0
  6  5  1  1  0  0  0
  6  3  1  0  0  0  0
  7 11  1  0  0  0  0
  8  1  2  0  0  0  0
  9 13  1  0  0  0  0
  9  6  1  0  0  0  0
 10 12  1  0  0  0  0
 11 43  1  0  0  0  0
 11  5  2  0  0  0  0
 12  7  2  0  0  0  0
 12  9  1  0  0  0  0
 13  4  2  0  0  0  0
 14 19  1  6  0  0  0
 14 15  1  0  0  0  0
 15  7  1  1  0  0  0
 16 15  1  0  0  0  0
 17 14  1  0  0  0  0
 18 17  1  0  0  0  0
 18 16  1  0  0  0  0
 20 17  1  0  0  0  0
 21 29  2  0  0  0  0
 23 20  1  1  0  0  0
 23 22  1  0  0  0  0
 24 30  1  1  0  0  0
 24 25  1  0  0  0  0
 24 26  1  0  0  0  0
 25 29  1  6  0  0  0
 25 23  1  0  0  0  0
 25 22  1  0  0  0  0
 27 21  1  0  0  0  0
 27 28  2  0  0  0  0
 28 26  1  0  0  0  0
 31 18  1  0  0  0  0
 32 31  1  0  0  0  0
 32 34  1  0  0  0  0
 33 34  2  0  0  0  0
 34 35  2  0  0  0  0
 36 38  1  1  0  0  0
 36 34  1  0  0  0  0
 36 39  1  0  0  0  0
 38 37  1  0  0  0  0
 42 40  1  1  0  0  0
 42 39  1  0  0  0  0
 42 41  1  0  0  0  0
 44 46  1  0  0  0  0
 44 43  1  0  0  0  0
 44 45  1  1  0  0  0
 46 47  1  6  0  0  0
 46 48  1  0  0  0  0
 48 49  1  0  0  0  0
 49 50  1  0  0  0  0
 50 51  1  1  0  0  0
 52 50  1  0  0  0  0
 53 58  1  0  0  0  0
 54 61  1  6  0  0  0
 54 56  1  0  0  0  0
 56 57  1  6  0  0  0
 58 60  1  0  0  0  0
 59 58  1  0  0  0  0
 59 54  1  0  0  0  0
 60 56  1  0  0  0  0
 60 55  2  0  0  0  0
M  END
>  <MODEL>
8

>  <REMARK>
 VINA RESULT:      -5.7      3.553      8.760
  Name = 
  18 active torsions:
  status: ('A' for Active; 'I' for Inactive)
    1  A    between atoms: C_2  and  N_9
    2  A    between atoms: C_2  and  C_29
    3  A    between atoms: C_3  and  C_30
    4  A    between atoms: C_3  and  C_58
    5  A    between atoms: C_4  and  C_8
    6  A    between atoms: C_4  and  N_44
    7  A    between atoms: N_9  and  C_51
    8  A    between atoms: C_12  and  S_16
    9  A    between atoms: C_12  and  C_26
   10  A    between atoms: O_13  and  C_15
   11  A    between atoms: C_15  and  S_16
   12  A    between atoms: C_15  and  N_35
   13  A    between atoms: C_18  and  C_19
   14  A    between atoms: C_18  and  N_41
   15  A    between atoms: C_23  and  C_37
   16  A    between atoms: C_26  and  N_45
   17  A    between atoms: C_29  and  C_58
   18  A    between atoms: N_35  and  C_40
                            x       y       z     vdW  Elec       q    Type
                         _______ _______ _______ _____ _____    ______ ____

>  <TORSDO>
F 18

$$$$
=
 OpenBabel10232407513D

 61 67  0  0  1  0  0  0  0  0999 V2000
  187.8260  177.8480  143.3600 C   0  0  0  0  0  3  0  0  0  0  0  0
  189.0470  177.9990  143.9120 C   0  0  0  0  0  0  0  0  0  0  0  0
  190.2160  177.9040  143.0350 C   0  0  0  0  0  0  0  0  0  0  0  0
  191.5900  177.9830  143.2540 C   0  0  0  0  0  3  0  0  0  0  0  0
  188.8870  177.4810  141.0460 C   0  0  0  0  0  0  0  0  0  0  0  0
  190.0790  177.6650  141.7150 C   0  0  2  0  0  3  0  0  0  0  0  0
  190.2670  177.1360  139.0340 C   0  0  0  0  0  0  0  0  0  0  0  0
  187.6050  177.5890  141.8640 C   0  0  0  0  0  3  0  0  0  0  0  0
  191.2740  177.5960  141.1420 N   0  0  0  0  0  0  0  0  0  0  0  0
  192.7320  177.2730  139.2490 N   0  0  0  0  0  1  0  0  0  0  0  0
  188.9700  177.1980  139.6530 C   0  0  0  0  0  0  0  0  0  0  0  0
  191.4270  177.3450  139.8210 C   0  0  0  0  0  0  0  0  0  0  0  0
  192.2150  177.7880  142.0570 N   0  0  0  0  0  0  0  0  0  0  0  0
  189.2350  177.1680  136.7420 C   0  0  2  0  0  3  0  0  0  0  0  0
  190.4480  176.8480  137.5640 C   0  0  2  0  0  3  0  0  0  0  0  0
  190.6940  175.4010  137.2770 C   0  0  0  0  0  2  0  0  0  0  0  0
  189.1560  176.1640  135.6870 N   0  0  0  0  0  0  0  0  0  0  0  0
  190.0470  175.1050  136.0030 N   0  0  0  0  0  0  0  0  0  0  0  0
  189.3790  178.5500  136.1280 C   0  0  0  0  0  1  0  0  0  0  0  0
  187.8040  175.6190  135.7230 C   0  0  0  0  0  2  0  0  0  0  0  0
  183.9880  174.0220  136.0660 C   0  0  0  0  0  3  0  0  0  0  0  0
  187.1620  173.6310  134.3760 C   0  0  0  0  0  2  0  0  0  0  0  0
  187.8360  174.0980  135.6580 C   0  0  2  0  0  3  0  0  0  0  0  0
  186.3520  172.0030  136.1960 C   0  0  1  0  0  3  0  0  0  0  0  0
  186.4470  173.4530  135.6980 C   0  0  2  0  0  0  0  0  0  0  0  0
  185.3080  171.2740  135.3810 C   0  0  0  0  0  2  0  0  0  0  0  0
  183.3900  172.6790  136.2150 C   0  0  0  0  0  3  0  0  0  0  0  0
  183.9440  171.4920  135.9540 C   0  0  0  0  0  3  0  0  0  0  0  0
  185.2650  174.3610  135.8510 C   0  0  0  0  0  3  0  0  0  0  0  0
  187.6610  171.2310  136.1390 C   0  0  0  0  0  1  0  0  0  0  0  0
  191.0980  175.1150  134.9910 C   0  0  0  0  0  2  0  0  0  0  0  0
  192.0500  173.9550  135.2200 C   0  0  0  0  0  2  0  0  0  0  0  0
  193.9550  174.9960  136.7860 O   0  0  0  0  0  0  0  0  0  0  0  0
  193.7110  174.5740  135.3670 S   0  0  0  0  0  0  0  0  0  0  0  0
  193.8780  175.7610  134.4630 O   0  0  0  0  0  0  0  0  0  0  0  0
  194.8640  173.2840  134.8960 C   0  0  1  0  0  3  0  0  0  0  0  0
  196.9720  173.8100  135.3820 C   0  0  0  0  0  1  0  0  0  0  0  0
  196.0340  173.8350  134.3460 O   0  0  0  0  0  0  0  0  0  0  0  0
  195.1790  172.3820  136.0170 N   0  0  0  0  0  2  0  0  0  0  0  0
  195.5740  170.0860  136.1810 O   0  0  0  0  0  1  0  0  0  0  0  0
  194.3840  170.8820  134.3560 N   0  0  0  0  0  1  0  0  0  0  0  0
  194.6490  171.0440  135.7740 C   0  0  2  0  0  3  0  0  0  0  0  0
  187.8040  176.9700  138.8420 N   0  0  0  0  0  2  0  0  0  0  0  0
  186.8760  177.9890  138.3850 C   0  0  2  0  0  3  0  0  0  0  0  0
  186.5750  178.8570  139.4360 O   0  0  0  0  0  1  0  0  0  0  0  0
  185.6300  177.3310  137.7900 C   0  0  2  0  0  3  0  0  0  0  0  0
  185.3610  177.8500  136.5250 O   0  0  0  0  0  1  0  0  0  0  0  0
  184.3900  177.3770  138.6870 C   0  0  0  0  0  2  0  0  0  0  0  0
  183.2070  178.0420  137.9970 C   0  0  0  0  0  2  0  0  0  0  0  0
  182.6400  179.2140  138.8010 C   0  0  1  0  0  3  0  0  0  0  0  0
  181.9380  178.7520  140.0710 C   0  0  0  0  0  1  0  0  0  0  0  0
  183.6460  180.1400  139.1130 O   0  0  0  0  0  1  0  0  0  0  0  0
  189.2020  178.2340  145.3760 C   0  0  0  0  0  2  0  0  0  0  0  0
  192.0590  175.9940  146.2940 C   0  0  2  0  0  3  0  0  0  0  0  0
  189.5470  177.6070  148.2450 O   0  0  0  0  0  0  0  0  0  0  0  0
  191.4310  176.2100  147.6750 C   0  0  2  0  0  3  0  0  0  0  0  0
  190.9950  175.0090  148.2150 F   0  0  0  0  0  0  0  0  0  0  0  0
  190.0290  177.2020  145.9800 N   0  0  0  0  0  0  0  0  0  0  0  0
  191.0500  176.4910  145.2460 C   0  0  0  0  0  2  0  0  0  0  0  0
  190.2610  177.0610  147.3660 C   0  0  0  0  0  0  0  0  0  0  0  0
  192.3730  174.6620  146.0780 F   0  0  0  0  0  0  0  0  0  0  0  0
  1  2  1  0  0  0  0
  2 53  1  0  0  0  0
  3  4  1  0  0  0  0
  3  2  2  0  0  0  0
  5  8  1  0  0  0  0
  6  5  1  1  0  0  0
  6  3  1  0  0  0  0
  7 11  1  0  0  0  0
  7 12  2  0  0  0  0
  8  1  2  0  0  0  0
  9  6  1  0  0  0  0
  9 13  1  0  0  0  0
 10 12  1  0  0  0  0
 11  5  2  0  0  0  0
 12  9  1  0  0  0  0
 13  4  2  0  0  0  0
 14 19  1  6  0  0  0
 14 15  1  0  0  0  0
 15  7  1  1  0  0  0
 16 15  1  0  0  0  0
 17 20  1  0  0  0  0
 17 18  1  0  0  0  0
 17 14  1  0  0  0  0
 18 16  1  0  0  0  0
 21 27  1  0  0  0  0
 22 23  1  0  0  0  0
 23 25  1  0  0  0  0
 23 20  1  6  0  0  0
 24 30  1  6  0  0  0
 25 22  1  6  0  0  0
 25 29  1  0  0  0  0
 25 24  1  0  0  0  0
 26 28  1  0  0  0  0
 26 24  1  0  0  0  0
 28 27  2  0  0  0  0
 29 21  2  0  0  0  0
 31 32  1  0  0  0  0
 31 18  1  0  0  0  0
 32 34  1  0  0  0  0
 34 33  2  0  0  0  0
 35 34  2  0  0  0  0
 36 38  1  1  0  0  0
 36 34  1  0  0  0  0
 36 39  1  0  0  0  0
 38 37  1  0  0  0  0
 42 41  1  6  0  0  0
 42 39  1  0  0  0  0
 42 40  1  0  0  0  0
 43 11  1  0  0  0  0
 44 43  1  0  0  0  0
 44 45  1  1  0  0  0
 46 47  1  6  0  0  0
 46 44  1  0  0  0  0
 46 48  1  0  0  0  0
 49 48  1  0  0  0  0
 49 50  1  0  0  0  0
 50 52  1  0  0  0  0
 50 51  1  1  0  0  0
 53 58  1  0  0  0  0
 54 61  1  6  0  0  0
 54 56  1  0  0  0  0
 56 57  1  6  0  0  0
 58 60  1  0  0  0  0
 59 58  1  0  0  0  0
 59 54  1  0  0  0  0
 60 56  1  0  0  0  0
 60 55  2  0  0  0  0
M  END
>  <MODEL>
9

>  <REMARK>
 VINA RESULT:      -5.6      3.360      9.990
  Name = 
  18 active torsions:
  status: ('A' for Active; 'I' for Inactive)
    1  A    between atoms: C_2  and  N_9
    2  A    between atoms: C_2  and  C_29
    3  A    between atoms: C_3  and  C_30
    4  A    between atoms: C_3  and  C_58
    5  A    between atoms: C_4  and  C_8
    6  A    between atoms: C_4  and  N_44
    7  A    between atoms: N_9  and  C_51
    8  A    between atoms: C_12  and  S_16
    9  A    between atoms: C_12  and  C_26
   10  A    between atoms: O_13  and  C_15
   11  A    between atoms: C_15  and  S_16
   12  A    between atoms: C_15  and  N_35
   13  A    between atoms: C_18  and  C_19
   14  A    between atoms: C_18  and  N_41
   15  A    between atoms: C_23  and  C_37
   16  A    between atoms: C_26  and  N_45
   17  A    between atoms: C_29  and  C_58
   18  A    between atoms: N_35  and  C_40
                            x       y       z     vdW  Elec       q    Type
                         _______ _______ _______ _____ _____    ______ ____

>  <TORSDO>
F 18

$$$$
