=
 OpenBabel10232409083D

 44 45  0  0  1  0  0  0  0  0999 V2000
  189.7180  176.9890  138.7590 N   0  0  0  0  0  0  0  0  0  0  0  0
  188.7750  178.9690  137.7680 N   0  0  0  0  0  0  0  0  0  0  0  0
  189.7560  178.3690  138.3770 C   0  0  0  0  0  3  0  0  0  0  0  0
  187.4670  178.4330  137.5270 C   0  0  0  0  0  0  0  0  0  0  0  0
  184.9650  177.3400  136.9490 C   0  0  0  0  0  0  0  0  0  0  0  0
  185.1970  177.9410  138.3050 C   0  0  0  0  0  2  0  0  0  0  0  0
  183.8180  176.8230  136.6700 N   0  0  0  0  0  2  0  0  0  0  0  0
  187.0980  178.0360  136.1590 C   0  0  0  0  0  3  0  0  0  0  0  0
  186.5850  178.3780  138.4830 N   0  0  0  0  0  0  0  0  0  0  0  0
  185.9330  177.5230  135.9120 N   0  0  0  0  0  0  0  0  0  0  0  0
  190.4480  176.5950  139.9530 C   0  0  0  0  0  2  0  0  0  0  0  0
  189.8920  177.3260  141.1640 C   0  0  0  0  0  2  0  0  0  0  0  0
  190.9910  177.5830  142.1830 C   0  0  0  0  0  2  0  0  0  0  0  0
  190.4430  177.6030  143.6060 C   0  0  1  0  0  3  0  0  0  0  0  0
  188.9390  177.6190  143.6110 C   0  0  0  0  0  3  0  0  0  0  0  0
  188.2270  177.2190  144.6680 C   0  0  0  0  0  3  0  0  0  0  0  0
  186.1240  178.2090  146.0670 S   0  0  0  0  0  0  0  0  0  0  0  0
  186.7350  177.2530  144.6450 C   0  0  1  0  0  3  0  0  0  0  0  0
  186.2350  177.9120  143.3740 C   0  0  0  0  0  2  0  0  0  0  0  0
  184.9980  179.1800  145.0170 C   0  0  0  0  0  2  0  0  0  0  0  0
  184.8740  178.4760  143.6870 C   0  0  0  0  0  2  0  0  0  0  0  0
  191.0040  176.4150  144.3790 C   0  0  0  0  0  2  0  0  0  0  0  0
  191.6160  176.8490  145.7020 C   0  0  0  0  0  2  0  0  0  0  0  0
  191.2200  175.9830  146.7210 O   0  0  0  0  0  0  0  0  0  0  0  0
  192.2380  176.0680  147.6690 C   0  0  0  0  0  1  0  0  0  0  0  0
  189.4420  175.9810  137.7400 C   0  0  0  0  0  2  0  0  0  0  0  0
  190.7030  175.6010  136.9780 C   0  0  2  0  0  3  0  0  0  0  0  0
  190.4690  175.7430  135.4820 C   0  0  0  0  0  2  0  0  0  0  0  0
  189.1030  175.6880  135.2010 O   0  0  0  0  0  1  0  0  0  0  0  0
  191.0680  174.1650  137.3160 C   0  0  0  0  0  2  0  0  0  0  0  0
  192.4930  173.9580  137.1200 N   0  0  0  0  0  2  0  0  0  0  0  0
  193.1860  174.9030  137.9790 C   0  0  0  0  0  2  0  0  0  0  0  0
  194.6360  175.0120  137.5490 C   0  0  1  0  0  3  0  0  0  0  0  0
  195.6450  173.8580  138.4740 S   0  0  0  0  0  0  0  0  0  0  0  0
  194.9140  172.5530  138.6120 O   0  0  0  0  0  0  0  0  0  0  0  0
  195.9220  174.4180  139.8430 O   0  0  0  0  0  0  0  0  0  0  0  0
  197.1880  173.5720  137.6240 C   0  0  0  0  0  2  0  0  0  0  0  0
  198.2490  175.2870  136.3510 O   0  0  0  0  0  0  0  0  0  0  0  0
  198.3680  175.5210  138.6280 O   0  0  0  0  0  1  0  0  0  0  0  0
  197.9530  174.8420  137.4920 C   0  0  0  0  0  0  0  0  0  0  0  0
  194.7300  174.7310  136.0580 C   0  0  0  0  0  2  0  0  0  0  0  0
  193.8190  176.2020  134.4200 O   0  0  0  0  0  0  0  0  0  0  0  0
  195.6870  176.9680  135.5050 O   0  0  0  0  0  1  0  0  0  0  0  0
  194.7160  176.0010  135.2780 C   0  0  0  0  0  0  0  0  0  0  0  0
  1 11  1  0  0  0  0
  2  3  2  0  0  0  0
  3  1  1  0  0  0  0
  4  2  1  0  0  0  0
  4  9  2  0  0  0  0
  5  6  1  0  0  0  0
  6  9  1  0  0  0  0
  7  5  2  0  0  0  0
  8  4  1  0  0  0  0
 10  8  2  0  0  0  0
 10  5  1  0  0  0  0
 11 12  1  0  0  0  0
 12 13  1  0  0  0  0
 14 13  1  6  0  0  0
 14 15  1  0  0  0  0
 14 22  1  0  0  0  0
 15 16  2  0  0  0  0
 18 16  1  6  0  0  0
 18 17  1  0  0  0  0
 19 21  1  0  0  0  0
 19 18  1  0  0  0  0
 20 17  1  0  0  0  0
 21 20  1  0  0  0  0
 22 23  1  0  0  0  0
 23 24  1  0  0  0  0
 24 25  1  0  0  0  0
 26  1  1  0  0  0  0
 27 28  1  6  0  0  0
 27 30  1  0  0  0  0
 27 26  1  0  0  0  0
 29 28  1  0  0  0  0
 31 30  1  0  0  0  0
 31 32  1  0  0  0  0
 33 41  1  6  0  0  0
 33 32  1  0  0  0  0
 33 34  1  0  0  0  0
 34 35  2  0  0  0  0
 34 36  2  0  0  0  0
 37 34  1  0  0  0  0
 38 40  2  0  0  0  0
 40 37  1  0  0  0  0
 40 39  1  0  0  0  0
 42 44  2  0  0  0  0
 44 43  1  0  0  0  0
 44 41  1  0  0  0  0
M  END
>  <MODEL>
1

>  <REMARK>
 VINA RESULT:      -6.5      0.000      0.000
  Name = 
  22 active torsions:
  status: ('A' for Active; 'I' for Inactive)
    1  A    between atoms: C_1  and  C_3
    2  A    between atoms: C_1  and  C_9
    3  A    between atoms: C_1  and  C_18
    4  A    between atoms: C_5  and  C_18
    5  A    between atoms: C_5  and  C_38
    6  A    between atoms: C_6  and  N_32
    7  A    between atoms: C_6  and  C_43
    8  A    between atoms: C_7  and  N_13
    9  A    between atoms: C_7  and  C_35
   10  A    between atoms: C_8  and  N_29
   11  A    between atoms: C_9  and  C_36
   12  A    between atoms: C_10  and  C_25
   13  A    between atoms: C_11  and  S_15
   14  A    between atoms: C_11  and  C_30
   15  A    between atoms: O_12  and  C_36
   16  A    between atoms: N_13  and  C_38
   17  A    between atoms: S_15  and  C_43
   18  A    between atoms: C_22  and  C_35
   19  A    between atoms: C_23  and  C_40
   20  A    between atoms: C_23  and  C_43
   21  A    between atoms: C_26  and  N_32
   22  A    between atoms: C_26  and  C_35
                            x       y       z     vdW  Elec       q    Type
                         _______ _______ _______ _____ _____    ______ ____

>  <TORSDO>
F 22

$$$$
=
 OpenBabel10232409083D

 44 45  0  0  1  0  0  0  0  0999 V2000
  184.9700  178.4840  139.0220 N   0  0  0  0  0  0  0  0  0  0  0  0
  182.7440  179.3050  138.6200 N   0  0  0  0  0  0  0  0  0  0  0  0
  183.9810  179.5180  138.9640 C   0  0  0  0  0  3  0  0  0  0  0  0
  182.1270  178.0270  138.4090 C   0  0  0  0  0  0  0  0  0  0  0  0
  180.9490  175.5550  137.8730 C   0  0  0  0  0  0  0  0  0  0  0  0
  181.1930  175.9460  139.3020 C   0  0  0  0  0  2  0  0  0  0  0  0
  180.4140  174.4120  137.6090 N   0  0  0  0  0  2  0  0  0  0  0  0
  181.6540  177.6770  137.0610 C   0  0  0  0  0  3  0  0  0  0  0  0
  181.9060  177.2220  139.4090 N   0  0  0  0  0  0  0  0  0  0  0  0
  181.1160  176.5190  136.8300 N   0  0  0  0  0  0  0  0  0  0  0  0
  186.0320  178.6160  140.0060 C   0  0  0  0  0  2  0  0  0  0  0  0
  185.4720  179.1920  141.2970 C   0  0  0  0  0  2  0  0  0  0  0  0
  184.7380  178.1190  142.0860 C   0  0  0  0  0  2  0  0  0  0  0  0
  185.2020  178.0720  143.5370 C   0  0  1  0  0  3  0  0  0  0  0  0
  186.7010  177.9890  143.6270 C   0  0  0  0  0  3  0  0  0  0  0  0
  187.3310  176.8680  143.9890 C   0  0  0  0  0  3  0  0  0  0  0  0
  189.5320  178.0550  142.9380 S   0  0  0  0  0  0  0  0  0  0  0  0
  188.8200  176.8160  144.0640 C   0  0  1  0  0  3  0  0  0  0  0  0
  189.2970  177.1180  145.4710 C   0  0  0  0  0  2  0  0  0  0  0  0
  190.6570  178.6800  144.2260 C   0  0  0  0  0  2  0  0  0  0  0  0
  190.6940  177.6670  145.3460 C   0  0  0  0  0  2  0  0  0  0  0  0
  184.6510  179.2820  144.2820 C   0  0  0  0  0  2  0  0  0  0  0  0
  184.1590  178.9040  145.6710 C   0  0  0  0  0  2  0  0  0  0  0  0
  185.0750  178.0530  146.2890 O   0  0  0  0  0  0  0  0  0  0  0  0
  185.8790  178.8960  147.0530 C   0  0  0  0  0  1  0  0  0  0  0  0
  185.2090  177.6660  137.8360 C   0  0  0  0  0  2  0  0  0  0  0  0
  186.6950  177.5540  137.5280 C   0  0  2  0  0  3  0  0  0  0  0  0
  187.0660  178.5120  136.4070 C   0  0  0  0  0  2  0  0  0  0  0  0
  187.8280  179.5680  136.9060 O   0  0  0  0  0  1  0  0  0  0  0  0
  187.0060  176.1250  137.1190 C   0  0  0  0  0  2  0  0  0  0  0  0
  188.3390  176.0540  136.5440 N   0  0  0  0  0  2  0  0  0  0  0  0
  189.0050  174.9100  137.1430 C   0  0  0  0  0  2  0  0  0  0  0  0
  190.3840  175.3200  137.6250 C   0  0  1  0  0  3  0  0  0  0  0  0
  191.6430  174.6340  136.5530 S   0  0  0  0  0  0  0  0  0  0  0  0
  191.9790  175.6250  135.4760 O   0  0  0  0  0  0  0  0  0  0  0  0
  191.1290  173.3690  135.9200 O   0  0  0  0  0  0  0  0  0  0  0  0
  193.1170  174.2720  137.4910 C   0  0  0  0  0  2  0  0  0  0  0  0
  194.8600  175.6850  136.6820 O   0  0  0  0  0  0  0  0  0  0  0  0
  193.8730  176.3470  138.6420 O   0  0  0  0  0  1  0  0  0  0  0  0
  193.9920  175.4740  137.5710 C   0  0  0  0  0  0  0  0  0  0  0  0
  190.4660  176.8380  137.6470 C   0  0  0  0  0  2  0  0  0  0  0  0
  189.5270  178.2930  139.2830 O   0  0  0  0  0  0  0  0  0  0  0  0
  191.0770  176.7970  140.0660 O   0  0  0  0  0  1  0  0  0  0  0  0
  190.3290  177.3560  139.0380 C   0  0  0  0  0  0  0  0  0  0  0  0
  1 11  1  0  0  0  0
  2  3  2  0  0  0  0
  3  1  1  0  0  0  0
  4  2  1  0  0  0  0
  4  9  2  0  0  0  0
  5  6  1  0  0  0  0
  6  9  1  0  0  0  0
  7  5  2  0  0  0  0
  8  4  1  0  0  0  0
 10  8  2  0  0  0  0
 10  5  1  0  0  0  0
 11 12  1  0  0  0  0
 12 13  1  0  0  0  0
 14 13  1  6  0  0  0
 14 15  1  0  0  0  0
 14 22  1  0  0  0  0
 15 16  2  0  0  0  0
 17 18  1  0  0  0  0
 17 20  1  0  0  0  0
 18 16  1  1  0  0  0
 18 19  1  0  0  0  0
 20 21  1  0  0  0  0
 21 19  1  0  0  0  0
 22 23  1  0  0  0  0
 23 24  1  0  0  0  0
 24 25  1  0  0  0  0
 26  1  1  0  0  0  0
 27 28  1  6  0  0  0
 27 26  1  0  0  0  0
 28 29  1  0  0  0  0
 30 27  1  0  0  0  0
 31 30  1  0  0  0  0
 31 32  1  0  0  0  0
 33 32  1  6  0  0  0
 33 41  1  0  0  0  0
 34 37  1  0  0  0  0
 34 33  1  0  0  0  0
 35 34  2  0  0  0  0
 36 34  2  0  0  0  0
 37 40  1  0  0  0  0
 38 40  2  0  0  0  0
 40 39  1  0  0  0  0
 41 44  1  0  0  0  0
 44 42  2  0  0  0  0
 44 43  1  0  0  0  0
M  END
>  <MODEL>
2

>  <REMARK>
 VINA RESULT:      -6.3      2.819      5.130
  Name = 
  22 active torsions:
  status: ('A' for Active; 'I' for Inactive)
    1  A    between atoms: C_1  and  C_3
    2  A    between atoms: C_1  and  C_9
    3  A    between atoms: C_1  and  C_18
    4  A    between atoms: C_5  and  C_18
    5  A    between atoms: C_5  and  C_38
    6  A    between atoms: C_6  and  N_32
    7  A    between atoms: C_6  and  C_43
    8  A    between atoms: C_7  and  N_13
    9  A    between atoms: C_7  and  C_35
   10  A    between atoms: C_8  and  N_29
   11  A    between atoms: C_9  and  C_36
   12  A    between atoms: C_10  and  C_25
   13  A    between atoms: C_11  and  S_15
   14  A    between atoms: C_11  and  C_30
   15  A    between atoms: O_12  and  C_36
   16  A    between atoms: N_13  and  C_38
   17  A    between atoms: S_15  and  C_43
   18  A    between atoms: C_22  and  C_35
   19  A    between atoms: C_23  and  C_40
   20  A    between atoms: C_23  and  C_43
   21  A    between atoms: C_26  and  N_32
   22  A    between atoms: C_26  and  C_35
                            x       y       z     vdW  Elec       q    Type
                         _______ _______ _______ _____ _____    ______ ____

>  <TORSDO>
F 22

$$$$
=
 OpenBabel10232409083D

 44 45  0  0  1  0  0  0  0  0999 V2000
  189.5500  177.5920  138.1360 N   0  0  0  0  0  0  0  0  0  0  0  0
  190.5680  175.4300  138.4240 N   0  0  0  0  0  0  0  0  0  0  0  0
  189.6330  176.2860  138.7180 C   0  0  0  0  0  3  0  0  0  0  0  0
  191.7340  175.6830  137.6270 C   0  0  0  0  0  0  0  0  0  0  0  0
  194.0610  176.2090  136.1810 C   0  0  0  0  0  0  0  0  0  0  0  0
  192.9300  175.4960  135.4980 C   0  0  0  0  0  2  0  0  0  0  0  0
  195.1470  176.4530  135.5300 N   0  0  0  0  0  2  0  0  0  0  0  0
  192.7820  176.5680  138.1550 C   0  0  0  0  0  3  0  0  0  0  0  0
  191.8260  175.2080  136.4180 N   0  0  0  0  0  0  0  0  0  0  0  0
  193.8610  176.7950  137.4710 N   0  0  0  0  0  0  0  0  0  0  0  0
  188.9850  178.6600  138.9440 C   0  0  0  0  0  2  0  0  0  0  0  0
  187.8600  178.1140  139.8080 C   0  0  0  0  0  2  0  0  0  0  0  0
  188.0840  178.4780  141.2680 C   0  0  0  0  0  2  0  0  0  0  0  0
  186.9000  178.0700  142.1360 C   0  0  1  0  0  3  0  0  0  0  0  0
  187.3520  177.6290  143.5020 C   0  0  0  0  0  3  0  0  0  0  0  0
  186.5810  177.7660  144.5850 C   0  0  0  0  0  3  0  0  0  0  0  0
  188.8710  177.1920  145.9220 S   0  0  0  0  0  0  0  0  0  0  0  0
  187.0550  177.3120  145.9250 C   0  0  1  0  0  3  0  0  0  0  0  0
  186.6430  178.2990  147.0000 C   0  0  0  0  0  2  0  0  0  0  0  0
  189.0030  178.1150  147.4840 C   0  0  0  0  0  2  0  0  0  0  0  0
  187.6360  178.1520  148.1240 C   0  0  0  0  0  2  0  0  0  0  0  0
  185.9060  179.2230  142.2090 C   0  0  0  0  0  2  0  0  0  0  0  0
  184.7110  178.9880  141.2980 C   0  0  0  0  0  2  0  0  0  0  0  0
  183.8040  178.1220  141.9090 O   0  0  0  0  0  0  0  0  0  0  0  0
  183.3730  178.8080  143.0420 C   0  0  0  0  0  1  0  0  0  0  0  0
  189.5140  177.7160  136.6810 C   0  0  0  0  0  2  0  0  0  0  0  0
  188.3370  176.9550  136.0880 C   0  0  2  0  0  3  0  0  0  0  0  0
  188.7910  176.1650  134.8700 C   0  0  0  0  0  2  0  0  0  0  0  0
  188.6930  174.7960  135.1180 O   0  0  0  0  0  1  0  0  0  0  0  0
  187.2580  177.9480  135.6940 C   0  0  0  0  0  2  0  0  0  0  0  0
  186.0060  177.2490  135.4560 N   0  0  0  0  0  2  0  0  0  0  0  0
  185.5950  176.6620  136.7190 C   0  0  0  0  0  2  0  0  0  0  0  0
  184.0840  176.7260  136.8420 C   0  0  1  0  0  3  0  0  0  0  0  0
  183.3760  175.0960  136.6210 S   0  0  0  0  0  0  0  0  0  0  0  0
  182.3970  175.1250  135.4820 O   0  0  0  0  0  0  0  0  0  0  0  0
  182.6620  174.6840  137.8790 O   0  0  0  0  0  0  0  0  0  0  0  0
  184.6610  173.9140  136.2520 C   0  0  0  0  0  2  0  0  0  0  0  0
  185.5120  172.8920  138.2320 O   0  0  0  0  0  1  0  0  0  0  0  0
  183.8300  171.7540  137.1710 O   0  0  0  0  0  0  0  0  0  0  0  0
  184.6890  172.8370  137.2800 C   0  0  0  0  0  0  0  0  0  0  0  0
  183.7240  177.2870  138.2070 C   0  0  0  0  0  2  0  0  0  0  0  0
  182.8280  179.4870  138.3930 O   0  0  0  0  0  1  0  0  0  0  0  0
  181.3640  177.8840  137.6570 O   0  0  0  0  0  0  0  0  0  0  0  0
  182.6200  178.2830  138.0970 C   0  0  0  0  0  0  0  0  0  0  0  0
  1  3  1  0  0  0  0
  1 11  1  0  0  0  0
  2  3  2  0  0  0  0
  4  8  1  0  0  0  0
  4  2  1  0  0  0  0
  5 10  1  0  0  0  0
  6  5  1  0  0  0  0
  6  9  1  0  0  0  0
  7  5  2  0  0  0  0
  9  4  2  0  0  0  0
 10  8  2  0  0  0  0
 11 12  1  0  0  0  0
 12 13  1  0  0  0  0
 14 13  1  6  0  0  0
 14 22  1  0  0  0  0
 14 15  1  0  0  0  0
 15 16  2  0  0  0  0
 17 18  1  0  0  0  0
 17 20  1  0  0  0  0
 18 16  1  6  0  0  0
 18 19  1  0  0  0  0
 19 21  1  0  0  0  0
 20 21  1  0  0  0  0
 23 24  1  0  0  0  0
 23 22  1  0  0  0  0
 24 25  1  0  0  0  0
 26  1  1  0  0  0  0
 27 28  1  6  0  0  0
 27 26  1  0  0  0  0
 28 29  1  0  0  0  0
 30 27  1  0  0  0  0
 31 30  1  0  0  0  0
 31 32  1  0  0  0  0
 33 32  1  1  0  0  0
 33 41  1  0  0  0  0
 34 33  1  0  0  0  0
 34 36  2  0  0  0  0
 35 34  2  0  0  0  0
 37 34  1  0  0  0  0
 37 40  1  0  0  0  0
 39 40  2  0  0  0  0
 40 38  1  0  0  0  0
 43 44  2  0  0  0  0
 44 41  1  0  0  0  0
 44 42  1  0  0  0  0
M  END
>  <MODEL>
3

>  <REMARK>
 VINA RESULT:      -6.1      4.230      8.364
  Name = 
  22 active torsions:
  status: ('A' for Active; 'I' for Inactive)
    1  A    between atoms: C_1  and  C_3
    2  A    between atoms: C_1  and  C_9
    3  A    between atoms: C_1  and  C_18
    4  A    between atoms: C_5  and  C_18
    5  A    between atoms: C_5  and  C_38
    6  A    between atoms: C_6  and  N_32
    7  A    between atoms: C_6  and  C_43
    8  A    between atoms: C_7  and  N_13
    9  A    between atoms: C_7  and  C_35
   10  A    between atoms: C_8  and  N_29
   11  A    between atoms: C_9  and  C_36
   12  A    between atoms: C_10  and  C_25
   13  A    between atoms: C_11  and  S_15
   14  A    between atoms: C_11  and  C_30
   15  A    between atoms: O_12  and  C_36
   16  A    between atoms: N_13  and  C_38
   17  A    between atoms: S_15  and  C_43
   18  A    between atoms: C_22  and  C_35
   19  A    between atoms: C_23  and  C_40
   20  A    between atoms: C_23  and  C_43
   21  A    between atoms: C_26  and  N_32
   22  A    between atoms: C_26  and  C_35
                            x       y       z     vdW  Elec       q    Type
                         _______ _______ _______ _____ _____    ______ ____

>  <TORSDO>
F 22

$$$$
=
 OpenBabel10232409083D

 44 45  0  0  1  0  0  0  0  0999 V2000
  185.0830  178.7020  139.8490 N   0  0  0  0  0  0  0  0  0  0  0  0
  182.7800  178.5830  139.1630 N   0  0  0  0  0  0  0  0  0  0  0  0
  183.7090  179.1030  139.9100 C   0  0  0  0  0  3  0  0  0  0  0  0
  182.9170  177.4460  138.3000 C   0  0  0  0  0  0  0  0  0  0  0  0
  183.1480  175.1600  136.7160 C   0  0  0  0  0  0  0  0  0  0  0  0
  183.2570  176.5070  136.0630 C   0  0  0  0  0  2  0  0  0  0  0  0
  183.2440  174.0940  135.9970 N   0  0  0  0  0  2  0  0  0  0  0  0
  183.0480  176.1080  138.8960 C   0  0  0  0  0  3  0  0  0  0  0  0
  183.0140  177.5990  137.0100 N   0  0  0  0  0  0  0  0  0  0  0  0
  183.1460  175.0560  138.1430 N   0  0  0  0  0  0  0  0  0  0  0  0
  185.8650  178.7760  141.0720 C   0  0  0  0  0  2  0  0  0  0  0  0
  185.0480  178.2510  142.2410 C   0  0  0  0  0  2  0  0  0  0  0  0
  185.6100  178.7630  143.5590 C   0  0  0  0  0  2  0  0  0  0  0  0
  186.1350  177.6250  144.4260 C   0  0  1  0  0  3  0  0  0  0  0  0
  187.5900  177.3560  144.1510 C   0  0  0  0  0  3  0  0  0  0  0  0
  187.9920  176.3560  143.3610 C   0  0  0  0  0  3  0  0  0  0  0  0
  189.9040  176.8430  141.4990 S   0  0  0  0  0  0  0  0  0  0  0  0
  189.4430  176.1200  143.1030 C   0  0  1  0  0  3  0  0  0  0  0  0
  190.2900  176.7670  144.1820 C   0  0  0  0  0  2  0  0  0  0  0  0
  191.3630  177.6650  142.2110 C   0  0  0  0  0  2  0  0  0  0  0  0
  191.6350  177.0480  143.5630 C   0  0  0  0  0  2  0  0  0  0  0  0
  185.8820  177.9500  145.8930 C   0  0  0  0  0  2  0  0  0  0  0  0
  187.1690  178.3260  146.6110 C   0  0  0  0  0  2  0  0  0  0  0  0
  187.4150  177.4330  147.6550 O   0  0  0  0  0  0  0  0  0  0  0  0
  188.3660  178.0730  148.4470 C   0  0  0  0  0  1  0  0  0  0  0  0
  185.7780  178.7500  138.5660 C   0  0  0  0  0  2  0  0  0  0  0  0
  186.9340  177.7600  138.5230 C   0  0  2  0  0  3  0  0  0  0  0  0
  188.2560  178.5090  138.4610 C   0  0  0  0  0  2  0  0  0  0  0  0
  188.3130  179.2920  137.3080 O   0  0  0  0  0  1  0  0  0  0  0  0
  186.7770  176.8750  137.2990 C   0  0  0  0  0  2  0  0  0  0  0  0
  187.7480  175.7940  137.3430 N   0  0  0  0  0  2  0  0  0  0  0  0
  188.4750  175.8200  136.0860 C   0  0  0  0  0  2  0  0  0  0  0  0
  189.5770  174.7780  136.1150 C   0  0  1  0  0  3  0  0  0  0  0  0
  191.0350  175.4410  136.9170 S   0  0  0  0  0  0  0  0  0  0  0  0
  191.2680  174.7160  138.2120 O   0  0  0  0  0  0  0  0  0  0  0  0
  190.8310  176.9050  137.1980 O   0  0  0  0  0  0  0  0  0  0  0  0
  192.4620  175.2300  135.8670 C   0  0  0  0  0  2  0  0  0  0  0  0
  194.1110  176.7080  136.7520 O   0  0  0  0  0  0  0  0  0  0  0  0
  194.4550  174.4790  137.1560 O   0  0  0  0  0  1  0  0  0  0  0  0
  193.7120  175.5210  136.6220 C   0  0  0  0  0  0  0  0  0  0  0  0
  189.0720  173.5480  136.8520 C   0  0  0  0  0  2  0  0  0  0  0  0
  187.5120  172.0410  135.8650 O   0  0  0  0  0  1  0  0  0  0  0  0
  189.6400  171.9560  135.0160 O   0  0  0  0  0  0  0  0  0  0  0  0
  188.6930  172.4730  135.8910 C   0  0  0  0  0  0  0  0  0  0  0  0
  1  3  1  0  0  0  0
  1 11  1  0  0  0  0
  2  3  2  0  0  0  0
  4  8  1  0  0  0  0
  4  2  1  0  0  0  0
  5 10  1  0  0  0  0
  6  5  1  0  0  0  0
  6  9  1  0  0  0  0
  7  5  2  0  0  0  0
  9  4  2  0  0  0  0
 10  8  2  0  0  0  0
 11 12  1  0  0  0  0
 12 13  1  0  0  0  0
 14 13  1  6  0  0  0
 14 22  1  0  0  0  0
 15 14  1  0  0  0  0
 16 15  2  0  0  0  0
 17 20  1  0  0  0  0
 17 18  1  0  0  0  0
 18 16  1  1  0  0  0
 18 19  1  0  0  0  0
 20 21  1  0  0  0  0
 21 19  1  0  0  0  0
 22 23  1  0  0  0  0
 23 24  1  0  0  0  0
 24 25  1  0  0  0  0
 26  1  1  0  0  0  0
 27 30  1  6  0  0  0
 27 26  1  0  0  0  0
 28 27  1  0  0  0  0
 29 28  1  0  0  0  0
 30 31  1  0  0  0  0
 32 31  1  0  0  0  0
 33 32  1  1  0  0  0
 33 41  1  0  0  0  0
 33 34  1  0  0  0  0
 34 36  2  0  0  0  0
 34 35  2  0  0  0  0
 37 40  1  0  0  0  0
 37 34  1  0  0  0  0
 40 38  2  0  0  0  0
 40 39  1  0  0  0  0
 42 44  1  0  0  0  0
 43 44  2  0  0  0  0
 44 41  1  0  0  0  0
M  END
>  <MODEL>
4

>  <REMARK>
 VINA RESULT:      -6.1      2.685      5.091
  Name = 
  22 active torsions:
  status: ('A' for Active; 'I' for Inactive)
    1  A    between atoms: C_1  and  C_3
    2  A    between atoms: C_1  and  C_9
    3  A    between atoms: C_1  and  C_18
    4  A    between atoms: C_5  and  C_18
    5  A    between atoms: C_5  and  C_38
    6  A    between atoms: C_6  and  N_32
    7  A    between atoms: C_6  and  C_43
    8  A    between atoms: C_7  and  N_13
    9  A    between atoms: C_7  and  C_35
   10  A    between atoms: C_8  and  N_29
   11  A    between atoms: C_9  and  C_36
   12  A    between atoms: C_10  and  C_25
   13  A    between atoms: C_11  and  S_15
   14  A    between atoms: C_11  and  C_30
   15  A    between atoms: O_12  and  C_36
   16  A    between atoms: N_13  and  C_38
   17  A    between atoms: S_15  and  C_43
   18  A    between atoms: C_22  and  C_35
   19  A    between atoms: C_23  and  C_40
   20  A    between atoms: C_23  and  C_43
   21  A    between atoms: C_26  and  N_32
   22  A    between atoms: C_26  and  C_35
                            x       y       z     vdW  Elec       q    Type
                         _______ _______ _______ _____ _____    ______ ____

>  <TORSDO>
F 22

$$$$
=
 OpenBabel10232409083D

 44 45  0  0  1  0  0  0  0  0999 V2000
  185.3310  178.6320  139.5580 N   0  0  0  0  0  0  0  0  0  0  0  0
  182.9870  179.1670  139.4760 N   0  0  0  0  0  0  0  0  0  0  0  0
  184.2020  179.4690  139.8300 C   0  0  0  0  0  3  0  0  0  0  0  0
  182.5450  177.9200  138.9220 C   0  0  0  0  0  0  0  0  0  0  0  0
  181.7030  175.5420  137.7300 C   0  0  0  0  0  0  0  0  0  0  0  0
  181.9550  175.5600  139.2100 C   0  0  0  0  0  2  0  0  0  0  0  0
  181.3220  174.4490  137.1630 N   0  0  0  0  0  2  0  0  0  0  0  0
  182.0640  177.8850  137.5330 C   0  0  0  0  0  3  0  0  0  0  0  0
  182.4870  176.8490  139.6620 N   0  0  0  0  0  0  0  0  0  0  0  0
  181.6840  176.7680  136.9940 N   0  0  0  0  0  0  0  0  0  0  0  0
  186.4330  178.6490  140.5060 C   0  0  0  0  0  2  0  0  0  0  0  0
  185.9150  178.9960  141.8920 C   0  0  0  0  0  2  0  0  0  0  0  0
  185.5580  177.7340  142.6610 C   0  0  0  0  0  2  0  0  0  0  0  0
  185.7590  177.9130  144.1610 C   0  0  1  0  0  3  0  0  0  0  0  0
  187.2150  177.8240  144.5300 C   0  0  0  0  0  3  0  0  0  0  0  0
  188.0340  176.9230  143.9810 C   0  0  0  0  0  3  0  0  0  0  0  0
  190.4240  176.0420  143.0460 S   0  0  0  0  0  0  0  0  0  0  0  0
  189.4750  176.8630  144.3640 C   0  0  1  0  0  3  0  0  0  0  0  0
  190.0350  178.2600  144.5570 C   0  0  0  0  0  2  0  0  0  0  0  0
  191.6850  177.3550  143.0420 C   0  0  0  0  0  2  0  0  0  0  0  0
  191.5170  178.1700  144.3010 C   0  0  0  0  0  2  0  0  0  0  0  0
  185.1390  179.2340  144.5990 C   0  0  0  0  0  2  0  0  0  0  0  0
  183.6540  179.0830  144.8930 C   0  0  0  0  0  2  0  0  0  0  0  0
  182.9010  179.6310  143.8540 O   0  0  0  0  0  0  0  0  0  0  0  0
  181.7730  178.8180  143.7710 C   0  0  0  0  0  1  0  0  0  0  0  0
  185.5970  178.2290  138.1790 C   0  0  0  0  0  2  0  0  0  0  0  0
  187.0320  177.7520  138.0070 C   0  0  2  0  0  3  0  0  0  0  0  0
  187.8140  178.7540  137.1710 C   0  0  0  0  0  2  0  0  0  0  0  0
  188.8520  179.3040  137.9240 O   0  0  0  0  0  1  0  0  0  0  0  0
  187.0200  176.3970  137.3220 C   0  0  0  0  0  2  0  0  0  0  0  0
  188.3520  175.8160  137.3510 N   0  0  0  0  0  2  0  0  0  0  0  0
  188.7340  175.5490  135.9750 C   0  0  0  0  0  2  0  0  0  0  0  0
  189.3830  174.1810  135.8850 C   0  0  1  0  0  3  0  0  0  0  0  0
  191.1060  174.2810  136.3590 S   0  0  0  0  0  0  0  0  0  0  0  0
  191.9140  173.3350  135.5160 O   0  0  0  0  0  0  0  0  0  0  0  0
  191.2520  173.9020  137.8080 O   0  0  0  0  0  0  0  0  0  0  0  0
  191.7150  175.9400  136.1150 C   0  0  0  0  0  2  0  0  0  0  0  0
  191.4500  177.0170  138.2260 O   0  0  0  0  0  1  0  0  0  0  0  0
  193.6000  176.4730  137.6510 O   0  0  0  0  0  0  0  0  0  0  0  0
  192.2380  176.4980  137.3920 C   0  0  0  0  0  0  0  0  0  0  0  0
  188.6320  173.2190  136.7910 C   0  0  0  0  0  2  0  0  0  0  0  0
  186.7570  171.9810  135.9960 O   0  0  0  0  0  1  0  0  0  0  0  0
  188.8020  171.2630  135.2500 O   0  0  0  0  0  0  0  0  0  0  0  0
  188.0060  172.1230  135.9970 C   0  0  0  0  0  0  0  0  0  0  0  0
  1  3  1  0  0  0  0
  1 11  1  0  0  0  0
  2  3  2  0  0  0  0
  4  2  1  0  0  0  0
  4  9  2  0  0  0  0
  5  6  1  0  0  0  0
  6  9  1  0  0  0  0
  7  5  2  0  0  0  0
  8  4  1  0  0  0  0
 10  8  2  0  0  0  0
 10  5  1  0  0  0  0
 11 12  1  0  0  0  0
 12 13  1  0  0  0  0
 14 13  1  6  0  0  0
 14 15  1  0  0  0  0
 14 22  1  0  0  0  0
 16 15  2  0  0  0  0
 17 18  1  0  0  0  0
 18 16  1  6  0  0  0
 18 19  1  0  0  0  0
 20 17  1  0  0  0  0
 20 21  1  0  0  0  0
 21 19  1  0  0  0  0
 22 23  1  0  0  0  0
 24 23  1  0  0  0  0
 25 24  1  0  0  0  0
 26  1  1  0  0  0  0
 27 28  1  6  0  0  0
 27 26  1  0  0  0  0
 28 29  1  0  0  0  0
 30 31  1  0  0  0  0
 30 27  1  0  0  0  0
 32 31  1  0  0  0  0
 33 32  1  1  0  0  0
 33 34  1  0  0  0  0
 33 41  1  0  0  0  0
 34 36  2  0  0  0  0
 35 34  2  0  0  0  0
 37 34  1  0  0  0  0
 37 40  1  0  0  0  0
 40 39  2  0  0  0  0
 40 38  1  0  0  0  0
 42 44  1  0  0  0  0
 43 44  2  0  0  0  0
 44 41  1  0  0  0  0
M  END
>  <MODEL>
5

>  <REMARK>
 VINA RESULT:      -6.0      3.264      5.765
  Name = 
  22 active torsions:
  status: ('A' for Active; 'I' for Inactive)
    1  A    between atoms: C_1  and  C_3
    2  A    between atoms: C_1  and  C_9
    3  A    between atoms: C_1  and  C_18
    4  A    between atoms: C_5  and  C_18
    5  A    between atoms: C_5  and  C_38
    6  A    between atoms: C_6  and  N_32
    7  A    between atoms: C_6  and  C_43
    8  A    between atoms: C_7  and  N_13
    9  A    between atoms: C_7  and  C_35
   10  A    between atoms: C_8  and  N_29
   11  A    between atoms: C_9  and  C_36
   12  A    between atoms: C_10  and  C_25
   13  A    between atoms: C_11  and  S_15
   14  A    between atoms: C_11  and  C_30
   15  A    between atoms: O_12  and  C_36
   16  A    between atoms: N_13  and  C_38
   17  A    between atoms: S_15  and  C_43
   18  A    between atoms: C_22  and  C_35
   19  A    between atoms: C_23  and  C_40
   20  A    between atoms: C_23  and  C_43
   21  A    between atoms: C_26  and  N_32
   22  A    between atoms: C_26  and  C_35
                            x       y       z     vdW  Elec       q    Type
                         _______ _______ _______ _____ _____    ______ ____

>  <TORSDO>
F 22

$$$$
=
 OpenBabel10232409083D

 44 45  0  0  1  0  0  0  0  0999 V2000
  185.3870  178.5430  139.4010 N   0  0  0  0  0  0  0  0  0  0  0  0
  183.0940  179.2400  139.6190 N   0  0  0  0  0  0  0  0  0  0  0  0
  184.3520  179.3920  139.9120 C   0  0  0  0  0  3  0  0  0  0  0  0
  182.5130  178.1430  138.9000 C   0  0  0  0  0  0  0  0  0  0  0  0
  181.3570  175.9550  137.6110 C   0  0  0  0  0  0  0  0  0  0  0  0
  181.7070  177.1700  136.8020 C   0  0  0  0  0  2  0  0  0  0  0  0
  180.8150  174.9380  137.0320 N   0  0  0  0  0  2  0  0  0  0  0  0
  182.3550  176.8480  139.5780 C   0  0  0  0  0  3  0  0  0  0  0  0
  182.2090  178.2630  137.6390 N   0  0  0  0  0  0  0  0  0  0  0  0
  181.8080  175.8440  138.9640 N   0  0  0  0  0  0  0  0  0  0  0  0
  186.5540  178.3180  140.2370 C   0  0  0  0  0  2  0  0  0  0  0  0
  186.1580  178.3750  141.7040 C   0  0  0  0  0  2  0  0  0  0  0  0
  187.3100  177.9200  142.5860 C   0  0  0  0  0  2  0  0  0  0  0  0
  186.8340  177.5570  143.9880 C   0  0  1  0  0  3  0  0  0  0  0  0
  187.9850  177.4960  144.9560 C   0  0  0  0  0  3  0  0  0  0  0  0
  189.2440  177.7390  144.5800 C   0  0  0  0  0  3  0  0  0  0  0  0
  189.7090  177.2480  147.2070 S   0  0  0  0  0  0  0  0  0  0  0  0
  190.3630  177.6780  145.5650 C   0  0  1  0  0  3  0  0  0  0  0  0
  191.3740  176.6220  145.1610 C   0  0  0  0  0  2  0  0  0  0  0  0
  190.9750  175.9640  147.4520 C   0  0  0  0  0  2  0  0  0  0  0  0
  192.0620  176.1770  146.4250 C   0  0  0  0  0  2  0  0  0  0  0  0
  185.7670  178.5500  144.4320 C   0  0  0  0  0  2  0  0  0  0  0  0
  185.2700  178.2430  145.8360 C   0  0  0  0  0  2  0  0  0  0  0  0
  184.1050  178.9630  146.1010 O   0  0  0  0  0  0  0  0  0  0  0  0
  183.4150  178.9720  144.8910 C   0  0  0  0  0  1  0  0  0  0  0  0
  185.5150  178.3760  137.9560 C   0  0  0  0  0  2  0  0  0  0  0  0
  186.7430  177.5500  137.5990 C   0  0  2  0  0  3  0  0  0  0  0  0
  187.8580  178.4630  137.1120 C   0  0  0  0  0  2  0  0  0  0  0  0
  187.3490  179.7260  136.8090 O   0  0  0  0  0  1  0  0  0  0  0  0
  186.3680  176.5580  136.5120 C   0  0  0  0  0  2  0  0  0  0  0  0
  187.2950  176.6710  135.3980 N   0  0  0  0  0  2  0  0  0  0  0  0
  187.5090  175.3310  134.8800 C   0  0  0  0  0  2  0  0  0  0  0  0
  187.9620  174.4180  136.0040 C   0  0  1  0  0  3  0  0  0  0  0  0
  186.9920  172.9120  136.0060 S   0  0  0  0  0  0  0  0  0  0  0  0
  187.8800  171.7450  135.6790 O   0  0  0  0  0  0  0  0  0  0  0  0
  185.9040  173.0140  134.9720 O   0  0  0  0  0  0  0  0  0  0  0  0
  186.2630  172.6540  137.6140 C   0  0  0  0  0  2  0  0  0  0  0  0
  184.3160  174.0210  137.7920 O   0  0  0  0  0  1  0  0  0  0  0  0
  183.9410  171.8180  137.2880 O   0  0  0  0  0  0  0  0  0  0  0  0
  184.7920  172.8780  137.5610 C   0  0  0  0  0  0  0  0  0  0  0  0
  189.4380  174.1060  135.8210 C   0  0  0  0  0  2  0  0  0  0  0  0
  190.6590  174.1590  137.8660 O   0  0  0  0  0  1  0  0  0  0  0  0
  190.5870  176.1360  136.7080 O   0  0  0  0  0  0  0  0  0  0  0  0
  190.2570  174.7950  136.8580 C   0  0  0  0  0  0  0  0  0  0  0  0
  1  3  1  0  0  0  0
  1 11  1  0  0  0  0
  2  3  2  0  0  0  0
  4  8  1  0  0  0  0
  4  2  1  0  0  0  0
  5 10  1  0  0  0  0
  6  5  1  0  0  0  0
  6  9  1  0  0  0  0
  7  5  2  0  0  0  0
  9  4  2  0  0  0  0
 10  8  2  0  0  0  0
 11 12  1  0  0  0  0
 12 13  1  0  0  0  0
 14 13  1  6  0  0  0
 14 22  1  0  0  0  0
 14 15  1  0  0  0  0
 16 15  2  0  0  0  0
 17 20  1  0  0  0  0
 18 16  1  6  0  0  0
 18 17  1  0  0  0  0
 19 18  1  0  0  0  0
 19 21  1  0  0  0  0
 21 20  1  0  0  0  0
 22 23  1  0  0  0  0
 23 24  1  0  0  0  0
 25 24  1  0  0  0  0
 26  1  1  0  0  0  0
 27 30  1  6  0  0  0
 27 26  1  0  0  0  0
 28 27  1  0  0  0  0
 29 28  1  0  0  0  0
 31 30  1  0  0  0  0
 32 31  1  0  0  0  0
 33 32  1  6  0  0  0
 33 34  1  0  0  0  0
 34 37  1  0  0  0  0
 35 34  2  0  0  0  0
 36 34  2  0  0  0  0
 39 40  2  0  0  0  0
 40 37  1  0  0  0  0
 40 38  1  0  0  0  0
 41 33  1  0  0  0  0
 41 44  1  0  0  0  0
 43 44  2  0  0  0  0
 44 42  1  0  0  0  0
M  END
>  <MODEL>
6

>  <REMARK>
 VINA RESULT:      -5.9      3.991      6.810
  Name = 
  22 active torsions:
  status: ('A' for Active; 'I' for Inactive)
    1  A    between atoms: C_1  and  C_3
    2  A    between atoms: C_1  and  C_9
    3  A    between atoms: C_1  and  C_18
    4  A    between atoms: C_5  and  C_18
    5  A    between atoms: C_5  and  C_38
    6  A    between atoms: C_6  and  N_32
    7  A    between atoms: C_6  and  C_43
    8  A    between atoms: C_7  and  N_13
    9  A    between atoms: C_7  and  C_35
   10  A    between atoms: C_8  and  N_29
   11  A    between atoms: C_9  and  C_36
   12  A    between atoms: C_10  and  C_25
   13  A    between atoms: C_11  and  S_15
   14  A    between atoms: C_11  and  C_30
   15  A    between atoms: O_12  and  C_36
   16  A    between atoms: N_13  and  C_38
   17  A    between atoms: S_15  and  C_43
   18  A    between atoms: C_22  and  C_35
   19  A    between atoms: C_23  and  C_40
   20  A    between atoms: C_23  and  C_43
   21  A    between atoms: C_26  and  N_32
   22  A    between atoms: C_26  and  C_35
                            x       y       z     vdW  Elec       q    Type
                         _______ _______ _______ _____ _____    ______ ____

>  <TORSDO>
F 22

$$$$
=
 OpenBabel10232409083D

 44 45  0  0  1  0  0  0  0  0999 V2000
  188.6870  175.6690  135.9780 N   0  0  0  0  0  0  0  0  0  0  0  0
  190.2900  174.3670  134.7430 N   0  0  0  0  0  0  0  0  0  0  0  0
  189.0620  174.7400  134.9540 C   0  0  0  0  0  3  0  0  0  0  0  0
  191.4260  174.6710  135.5640 C   0  0  0  0  0  0  0  0  0  0  0  0
  193.6050  175.1660  137.2360 C   0  0  0  0  0  0  0  0  0  0  0  0
  193.5150  175.8980  135.9280 C   0  0  0  0  0  2  0  0  0  0  0  0
  194.6090  175.3770  138.0160 N   0  0  0  0  0  2  0  0  0  0  0  0
  191.4650  174.1690  136.9450 C   0  0  0  0  0  3  0  0  0  0  0  0
  192.3710  175.4530  135.1260 N   0  0  0  0  0  0  0  0  0  0  0  0
  192.4900  174.4030  137.7050 N   0  0  0  0  0  0  0  0  0  0  0  0
  187.3780  175.5110  136.5900 C   0  0  0  0  0  2  0  0  0  0  0  0
  186.3570  176.3620  135.8520 C   0  0  0  0  0  2  0  0  0  0  0  0
  185.0820  175.5710  135.6040 C   0  0  0  0  0  2  0  0  0  0  0  0
  184.5960  174.8770  136.8720 C   0  0  1  0  0  3  0  0  0  0  0  0
  183.7230  175.7880  137.6920 C   0  0  0  0  0  3  0  0  0  0  0  0
  183.0550  176.8100  137.1510 C   0  0  0  0  0  3  0  0  0  0  0  0
  181.6240  176.7750  139.4550 S   0  0  0  0  0  0  0  0  0  0  0  0
  182.1920  177.6920  137.9900 C   0  0  1  0  0  3  0  0  0  0  0  0
  182.9650  178.9090  138.4570 C   0  0  0  0  0  2  0  0  0  0  0  0
  182.0860  178.1360  140.5700 C   0  0  0  0  0  2  0  0  0  0  0  0
  182.3120  179.3720  139.7330 C   0  0  0  0  0  2  0  0  0  0  0  0
  183.8800  173.5850  136.4970 C   0  0  0  0  0  2  0  0  0  0  0  0
  184.4440  172.3940  137.2570 C   0  0  0  0  0  2  0  0  0  0  0  0
  183.5260  171.3440  137.2540 O   0  0  0  0  0  0  0  0  0  0  0  0
  183.2950  171.0830  135.9050 C   0  0  0  0  0  1  0  0  0  0  0  0
  189.3240  176.9820  136.0090 C   0  0  0  0  0  2  0  0  0  0  0  0
  189.0220  177.7160  137.3080 C   0  0  2  0  0  3  0  0  0  0  0  0
  188.8490  179.2020  137.0360 C   0  0  0  0  0  2  0  0  0  0  0  0
  187.4940  179.5250  136.9640 O   0  0  0  0  0  1  0  0  0  0  0  0
  190.1700  177.4910  138.2770 C   0  0  0  0  0  2  0  0  0  0  0  0
  189.8180  178.0090  139.5880 N   0  0  0  0  0  2  0  0  0  0  0  0
  189.4110  176.8760  140.4020 C   0  0  0  0  0  2  0  0  0  0  0  0
  188.7030  177.3740  141.6480 C   0  0  1  0  0  3  0  0  0  0  0  0
  189.8420  177.4260  143.0280 S   0  0  0  0  0  0  0  0  0  0  0  0
  190.1500  178.8560  143.3700 O   0  0  0  0  0  0  0  0  0  0  0  0
  191.1170  176.7210  142.6540 O   0  0  0  0  0  0  0  0  0  0  0  0
  189.1180  176.6310  144.4520 C   0  0  0  0  0  2  0  0  0  0  0  0
  188.9040  178.0220  146.3780 O   0  0  0  0  0  1  0  0  0  0  0  0
  190.9270  176.9760  146.1270 O   0  0  0  0  0  0  0  0  0  0  0  0
  189.6320  177.2420  145.7080 C   0  0  0  0  0  0  0  0  0  0  0  0
  188.1310  178.7550  141.3710 C   0  0  0  0  0  2  0  0  0  0  0  0
  186.2190  178.3280  142.7260 O   0  0  0  0  0  1  0  0  0  0  0  0
  185.7950  179.3330  140.7100 O   0  0  0  0  0  0  0  0  0  0  0  0
  186.6660  178.7870  141.6440 C   0  0  0  0  0  0  0  0  0  0  0  0
  1 26  1  0  0  0  0
  1 11  1  0  0  0  0
  2  3  2  0  0  0  0
  2  4  1  0  0  0  0
  3  1  1  0  0  0  0
  4  8  1  0  0  0  0
  5 10  1  0  0  0  0
  5  7  2  0  0  0  0
  6  5  1  0  0  0  0
  8 10  2  0  0  0  0
  9  4  2  0  0  0  0
  9  6  1  0  0  0  0
 12 11  1  0  0  0  0
 13 12  1  0  0  0  0
 14 13  1  6  0  0  0
 14 15  1  0  0  0  0
 16 15  2  0  0  0  0
 17 20  1  0  0  0  0
 18 16  1  6  0  0  0
 18 19  1  0  0  0  0
 18 17  1  0  0  0  0
 19 21  1  0  0  0  0
 21 20  1  0  0  0  0
 22 14  1  0  0  0  0
 22 23  1  0  0  0  0
 24 23  1  0  0  0  0
 25 24  1  0  0  0  0
 27 26  1  6  0  0  0
 27 30  1  0  0  0  0
 28 27  1  0  0  0  0
 29 28  1  0  0  0  0
 30 31  1  0  0  0  0
 31 32  1  0  0  0  0
 33 32  1  6  0  0  0
 33 34  1  0  0  0  0
 34 35  2  0  0  0  0
 34 37  1  0  0  0  0
 36 34  2  0  0  0  0
 37 40  1  0  0  0  0
 40 39  2  0  0  0  0
 40 38  1  0  0  0  0
 41 44  1  0  0  0  0
 41 33  1  0  0  0  0
 43 44  2  0  0  0  0
 44 42  1  0  0  0  0
M  END
>  <MODEL>
7

>  <REMARK>
 VINA RESULT:      -5.4      3.925      8.528
  Name = 
  22 active torsions:
  status: ('A' for Active; 'I' for Inactive)
    1  A    between atoms: C_1  and  C_3
    2  A    between atoms: C_1  and  C_9
    3  A    between atoms: C_1  and  C_18
    4  A    between atoms: C_5  and  C_18
    5  A    between atoms: C_5  and  C_38
    6  A    between atoms: C_6  and  N_32
    7  A    between atoms: C_6  and  C_43
    8  A    between atoms: C_7  and  N_13
    9  A    between atoms: C_7  and  C_35
   10  A    between atoms: C_8  and  N_29
   11  A    between atoms: C_9  and  C_36
   12  A    between atoms: C_10  and  C_25
   13  A    between atoms: C_11  and  S_15
   14  A    between atoms: C_11  and  C_30
   15  A    between atoms: O_12  and  C_36
   16  A    between atoms: N_13  and  C_38
   17  A    between atoms: S_15  and  C_43
   18  A    between atoms: C_22  and  C_35
   19  A    between atoms: C_23  and  C_40
   20  A    between atoms: C_23  and  C_43
   21  A    between atoms: C_26  and  N_32
   22  A    between atoms: C_26  and  C_35
                            x       y       z     vdW  Elec       q    Type
                         _______ _______ _______ _____ _____    ______ ____

>  <TORSDO>
F 22

$$$$
=
 OpenBabel10232409083D

 44 45  0  0  1  0  0  0  0  0999 V2000
  190.6620  177.1040  139.5700 N   0  0  0  0  0  0  0  0  0  0  0  0
  192.2040  177.2540  141.4120 N   0  0  0  0  0  0  0  0  0  0  0  0
  191.9750  177.0870  140.1420 C   0  0  0  0  0  3  0  0  0  0  0  0
  191.2200  177.3140  142.4540 C   0  0  0  0  0  0  0  0  0  0  0  0
  189.2970  177.3060  144.4760 C   0  0  0  0  0  0  0  0  0  0  0  0
  190.0330  178.5810  144.1810 C   0  0  0  0  0  2  0  0  0  0  0  0
  188.4120  177.2830  145.4130 N   0  0  0  0  0  2  0  0  0  0  0  0
  190.3090  176.1760  142.6440 C   0  0  0  0  0  3  0  0  0  0  0  0
  191.0740  178.3940  143.1670 N   0  0  0  0  0  0  0  0  0  0  0  0
  189.4260  176.1870  143.5940 N   0  0  0  0  0  0  0  0  0  0  0  0
  190.4210  176.2760  138.4000 C   0  0  0  0  0  2  0  0  0  0  0  0
  191.0640  176.9100  137.1770 C   0  0  0  0  0  2  0  0  0  0  0  0
  190.1920  176.7040  135.9490 C   0  0  0  0  0  2  0  0  0  0  0  0
  189.2130  175.5520  136.1410 C   0  0  1  0  0  3  0  0  0  0  0  0
  187.8110  175.9610  135.7780 C   0  0  0  0  0  3  0  0  0  0  0  0
  186.7410  175.2690  136.1820 C   0  0  0  0  0  3  0  0  0  0  0  0
  184.1430  174.7260  136.7410 S   0  0  0  0  0  0  0  0  0  0  0  0
  185.3630  175.7040  135.8110 C   0  0  1  0  0  3  0  0  0  0  0  0
  185.1570  177.1690  136.1440 C   0  0  0  0  0  2  0  0  0  0  0  0
  183.2210  176.2160  137.2310 C   0  0  0  0  0  2  0  0  0  0  0  0
  183.6770  177.3590  136.3570 C   0  0  0  0  0  2  0  0  0  0  0  0
  189.6840  174.3490  135.3310 C   0  0  0  0  0  2  0  0  0  0  0  0
  189.3650  173.0410  136.0400 C   0  0  0  0  0  2  0  0  0  0  0  0
  188.3760  172.3470  135.3430 O   0  0  0  0  0  0  0  0  0  0  0  0
  187.6790  171.6480  136.3260 C   0  0  0  0  0  1  0  0  0  0  0  0
  189.8060  178.2650  139.7980 C   0  0  0  0  0  2  0  0  0  0  0  0
  188.3790  177.8480  140.1240 C   0  0  2  0  0  3  0  0  0  0  0  0
  187.4980  178.0080  138.8950 C   0  0  0  0  0  2  0  0  0  0  0  0
  188.0990  178.8750  137.9810 O   0  0  0  0  0  1  0  0  0  0  0  0
  187.8600  178.7190  141.2560 C   0  0  0  0  0  2  0  0  0  0  0  0
  186.5160  178.3040  141.6210 N   0  0  0  0  0  2  0  0  0  0  0  0
  185.6440  179.4480  141.4170 C   0  0  0  0  0  2  0  0  0  0  0  0
  184.2850  179.1670  142.0290 C   0  0  1  0  0  3  0  0  0  0  0  0
  183.1480  178.5880  140.7720 S   0  0  0  0  0  0  0  0  0  0  0  0
  181.7440  178.9520  141.1610 O   0  0  0  0  0  0  0  0  0  0  0  0
  183.2570  177.0930  140.6470 O   0  0  0  0  0  0  0  0  0  0  0  0
  183.5320  179.3460  139.2030 C   0  0  0  0  0  2  0  0  0  0  0  0
  181.3910  179.4910  138.1610 O   0  0  0  0  0  0  0  0  0  0  0  0
  182.3410  181.4870  138.7620 O   0  0  0  0  0  1  0  0  0  0  0  0
  182.3580  180.1030  138.6880 C   0  0  0  0  0  0  0  0  0  0  0  0
  184.4450  178.1280  143.1270 C   0  0  0  0  0  2  0  0  0  0  0  0
  182.9710  178.8530  144.8530 O   0  0  0  0  0  0  0  0  0  0  0  0
  185.2060  179.1230  145.2850 O   0  0  0  0  0  1  0  0  0  0  0  0
  184.1600  178.7220  144.4640 C   0  0  0  0  0  0  0  0  0  0  0  0
  1 26  1  0  0  0  0
  1  3  1  0  0  0  0
  2  4  1  0  0  0  0
  3  2  2  0  0  0  0
  4  8  1  0  0  0  0
  4  9  2  0  0  0  0
  5  7  2  0  0  0  0
  6  5  1  0  0  0  0
  8 10  2  0  0  0  0
  9  6  1  0  0  0  0
 10  5  1  0  0  0  0
 11  1  1  0  0  0  0
 12 11  1  0  0  0  0
 13 14  1  0  0  0  0
 13 12  1  0  0  0  0
 14 22  1  6  0  0  0
 15 14  1  0  0  0  0
 15 16  2  0  0  0  0
 17 20  1  0  0  0  0
 18 19  1  0  0  0  0
 18 16  1  1  0  0  0
 18 17  1  0  0  0  0
 19 21  1  0  0  0  0
 21 20  1  0  0  0  0
 22 23  1  0  0  0  0
 24 23  1  0  0  0  0
 24 25  1  0  0  0  0
 26 27  1  0  0  0  0
 27 28  1  6  0  0  0
 27 30  1  0  0  0  0
 29 28  1  0  0  0  0
 30 31  1  0  0  0  0
 32 31  1  0  0  0  0
 33 32  1  6  0  0  0
 33 41  1  0  0  0  0
 34 35  2  0  0  0  0
 34 33  1  0  0  0  0
 36 34  2  0  0  0  0
 37 34  1  0  0  0  0
 38 40  2  0  0  0  0
 40 39  1  0  0  0  0
 40 37  1  0  0  0  0
 41 44  1  0  0  0  0
 44 42  2  0  0  0  0
 44 43  1  0  0  0  0
M  END
>  <MODEL>
8

>  <REMARK>
 VINA RESULT:      -5.4      4.877     10.163
  Name = 
  22 active torsions:
  status: ('A' for Active; 'I' for Inactive)
    1  A    between atoms: C_1  and  C_3
    2  A    between atoms: C_1  and  C_9
    3  A    between atoms: C_1  and  C_18
    4  A    between atoms: C_5  and  C_18
    5  A    between atoms: C_5  and  C_38
    6  A    between atoms: C_6  and  N_32
    7  A    between atoms: C_6  and  C_43
    8  A    between atoms: C_7  and  N_13
    9  A    between atoms: C_7  and  C_35
   10  A    between atoms: C_8  and  N_29
   11  A    between atoms: C_9  and  C_36
   12  A    between atoms: C_10  and  C_25
   13  A    between atoms: C_11  and  S_15
   14  A    between atoms: C_11  and  C_30
   15  A    between atoms: O_12  and  C_36
   16  A    between atoms: N_13  and  C_38
   17  A    between atoms: S_15  and  C_43
   18  A    between atoms: C_22  and  C_35
   19  A    between atoms: C_23  and  C_40
   20  A    between atoms: C_23  and  C_43
   21  A    between atoms: C_26  and  N_32
   22  A    between atoms: C_26  and  C_35
                            x       y       z     vdW  Elec       q    Type
                         _______ _______ _______ _____ _____    ______ ____

>  <TORSDO>
F 22

$$$$
=
 OpenBabel10232409083D

 44 45  0  0  1  0  0  0  0  0999 V2000
  187.3950  177.6740  143.0960 N   0  0  0  0  0  0  0  0  0  0  0  0
  187.0360  177.9440  145.4600 N   0  0  0  0  0  0  0  0  0  0  0  0
  186.6050  178.0330  144.2360 C   0  0  0  0  0  3  0  0  0  0  0  0
  188.3770  177.6460  145.8720 C   0  0  0  0  0  0  0  0  0  0  0  0
  190.9400  176.9700  146.7430 C   0  0  0  0  0  0  0  0  0  0  0  0
  190.7920  177.9820  145.6440 C   0  0  0  0  0  2  0  0  0  0  0  0
  192.1180  176.6410  147.1510 N   0  0  0  0  0  2  0  0  0  0  0  0
  188.5900  176.8430  147.0850 C   0  0  0  0  0  3  0  0  0  0  0  0
  189.3950  178.1500  145.2350 N   0  0  0  0  0  0  0  0  0  0  0  0
  189.7890  176.5320  147.4700 N   0  0  0  0  0  0  0  0  0  0  0  0
  187.1670  178.3990  141.8570 C   0  0  0  0  0  2  0  0  0  0  0  0
  185.8410  179.1380  141.9280 C   0  0  0  0  0  2  0  0  0  0  0  0
  184.9890  178.8240  140.7070 C   0  0  0  0  0  2  0  0  0  0  0  0
  183.5270  178.6100  141.0820 C   0  0  1  0  0  3  0  0  0  0  0  0
  182.9730  177.3720  140.4290 C   0  0  0  0  0  3  0  0  0  0  0  0
  183.0670  177.1590  139.1140 C   0  0  0  0  0  3  0  0  0  0  0  0
  181.5860  176.3470  136.9910 S   0  0  0  0  0  0  0  0  0  0  0  0
  182.5120  175.9190  138.4970 C   0  0  1  0  0  3  0  0  0  0  0  0
  183.6280  174.9650  138.1180 C   0  0  0  0  0  2  0  0  0  0  0  0
  182.4240  175.0520  136.0250 C   0  0  0  0  0  2  0  0  0  0  0  0
  183.1040  174.1130  136.9920 C   0  0  0  0  0  2  0  0  0  0  0  0
  183.3980  178.5610  142.6000 C   0  0  0  0  0  2  0  0  0  0  0  0
  182.0880  179.1770  143.0680 C   0  0  0  0  0  2  0  0  0  0  0  0
  181.5500  178.4260  144.1130 O   0  0  0  0  0  0  0  0  0  0  0  0
  180.1930  178.7430  144.1100 C   0  0  0  0  0  1  0  0  0  0  0  0
  187.9740  176.3340  143.0310 C   0  0  0  0  0  2  0  0  0  0  0  0
  189.2150  176.3080  142.1500 C   0  0  2  0  0  3  0  0  0  0  0  0
  190.4240  175.8880  142.9710 C   0  0  0  0  0  2  0  0  0  0  0  0
  190.4190  174.5070  143.1650 O   0  0  0  0  0  1  0  0  0  0  0  0
  189.4340  177.6950  141.5680 C   0  0  0  0  0  2  0  0  0  0  0  0
  190.4010  177.6290  140.4860 N   0  0  0  0  0  2  0  0  0  0  0  0
  189.9110  176.6500  139.5310 C   0  0  0  0  0  2  0  0  0  0  0  0
  190.2380  177.1060  138.1220 C   0  0  1  0  0  3  0  0  0  0  0  0
  191.3550  175.9450  137.3400 S   0  0  0  0  0  0  0  0  0  0  0  0
  191.0060  175.8160  135.8850 O   0  0  0  0  0  0  0  0  0  0  0  0
  191.2260  174.6000  138.0020 O   0  0  0  0  0  0  0  0  0  0  0  0
  193.0380  176.5200  137.4850 C   0  0  0  0  0  2  0  0  0  0  0  0
  194.8140  175.2040  138.3820 O   0  0  0  0  0  1  0  0  0  0  0  0
  193.9800  174.5060  136.3650 O   0  0  0  0  0  0  0  0  0  0  0  0
  193.9870  175.3730  137.4470 C   0  0  0  0  0  0  0  0  0  0  0  0
  188.9460  177.2240  137.3300 C   0  0  0  0  0  2  0  0  0  0  0  0
  189.0340  179.5540  137.8220 O   0  0  0  0  0  1  0  0  0  0  0  0
  186.9430  178.7110  137.4070 O   0  0  0  0  0  0  0  0  0  0  0  0
  188.3180  178.5600  137.5370 C   0  0  0  0  0  0  0  0  0  0  0  0
  1  3  1  0  0  0  0
  2  4  1  0  0  0  0
  3  2  2  0  0  0  0
  4  8  1  0  0  0  0
  5  7  2  0  0  0  0
  5 10  1  0  0  0  0
  6  5  1  0  0  0  0
  8 10  2  0  0  0  0
  9  6  1  0  0  0  0
  9  4  2  0  0  0  0
 11 12  1  0  0  0  0
 11  1  1  0  0  0  0
 13 14  1  0  0  0  0
 13 12  1  0  0  0  0
 14 15  1  6  0  0  0
 14 22  1  0  0  0  0
 16 15  2  0  0  0  0
 17 18  1  0  0  0  0
 18 16  1  6  0  0  0
 19 18  1  0  0  0  0
 20 17  1  0  0  0  0
 20 21  1  0  0  0  0
 21 19  1  0  0  0  0
 22 23  1  0  0  0  0
 23 24  1  0  0  0  0
 25 24  1  0  0  0  0
 26  1  1  0  0  0  0
 27 30  1  1  0  0  0
 27 28  1  0  0  0  0
 27 26  1  0  0  0  0
 28 29  1  0  0  0  0
 31 30  1  0  0  0  0
 32 31  1  0  0  0  0
 33 41  1  6  0  0  0
 33 32  1  0  0  0  0
 34 37  1  0  0  0  0
 34 36  2  0  0  0  0
 34 33  1  0  0  0  0
 35 34  2  0  0  0  0
 39 40  2  0  0  0  0
 40 37  1  0  0  0  0
 40 38  1  0  0  0  0
 41 44  1  0  0  0  0
 43 44  2  0  0  0  0
 44 42  1  0  0  0  0
M  END
>  <MODEL>
9

>  <REMARK>
 VINA RESULT:      -5.4      4.098      7.766
  Name = 
  22 active torsions:
  status: ('A' for Active; 'I' for Inactive)
    1  A    between atoms: C_1  and  C_3
    2  A    between atoms: C_1  and  C_9
    3  A    between atoms: C_1  and  C_18
    4  A    between atoms: C_5  and  C_18
    5  A    between atoms: C_5  and  C_38
    6  A    between atoms: C_6  and  N_32
    7  A    between atoms: C_6  and  C_43
    8  A    between atoms: C_7  and  N_13
    9  A    between atoms: C_7  and  C_35
   10  A    between atoms: C_8  and  N_29
   11  A    between atoms: C_9  and  C_36
   12  A    between atoms: C_10  and  C_25
   13  A    between atoms: C_11  and  S_15
   14  A    between atoms: C_11  and  C_30
   15  A    between atoms: O_12  and  C_36
   16  A    between atoms: N_13  and  C_38
   17  A    between atoms: S_15  and  C_43
   18  A    between atoms: C_22  and  C_35
   19  A    between atoms: C_23  and  C_40
   20  A    between atoms: C_23  and  C_43
   21  A    between atoms: C_26  and  N_32
   22  A    between atoms: C_26  and  C_35
                            x       y       z     vdW  Elec       q    Type
                         _______ _______ _______ _____ _____    ______ ____

>  <TORSDO>
F 22

$$$$
