=
 OpenBabel10232412233D

 38 41  0  0  1  0  0  0  0  0999 V2000
  188.9040  176.7360  143.4250 C   0  0  0  0  0  2  0  0  0  0  0  0
  191.7410  177.6670  141.3110 O   0  0  0  0  0  0  0  0  0  0  0  0
  190.1890  177.2950  143.0250 N   0  0  0  0  0  0  0  0  0  0  0  0
  190.5660  177.3460  141.6370 C   0  0  0  0  0  0  0  0  0  0  0  0
  190.1620  176.2690  139.5050 O   0  0  0  0  0  0  0  0  0  0  0  0
  190.6430  177.1510  138.5160 C   0  0  0  0  0  2  0  0  0  0  0  0
  188.7390  178.2320  140.1360 C   0  0  0  0  0  2  0  0  0  0  0  0
  189.5720  177.0090  140.5640 C   0  0  2  0  0  3  0  0  0  0  0  0
  189.4790  177.8260  137.7760 C   0  0  2  0  0  3  0  0  0  0  0  0
  188.2760  178.0680  138.6950 C   0  0  0  0  0  2  0  0  0  0  0  0
  189.0730  177.0570  136.5200 C   0  0  0  0  0  2  0  0  0  0  0  0
  187.8120  176.2260  136.7280 C   0  0  0  0  0  2  0  0  0  0  0  0
  188.0750  174.7730  136.3720 C   0  0  0  0  0  2  0  0  0  0  0  0
  190.2380  173.6440  136.9470 C   0  0  0  0  0  1  0  0  0  0  0  0
  189.5270  174.5620  135.9700 C   0  0  0  0  0  2  0  0  0  0  0  0
  191.1670  177.5750  144.0730 C   0  0  0  0  0  2  0  0  0  0  0  0
  191.4500  175.2040  143.7990 O   0  0  0  0  0  1  0  0  0  0  0  0
  191.9290  176.3180  144.4880 C   0  0  2  0  0  3  0  0  0  0  0  0
  191.8260  176.0950  145.9200 N   0  0  0  0  0  1  0  0  0  0  0  0
  188.5880  177.1260  144.8600 C   0  0  0  0  0  2  0  0  0  0  0  0
  183.3220  179.0410  144.7400 C   0  0  0  0  0  3  0  0  0  0  0  0
  185.3410  178.5080  146.1920 C   0  0  0  0  0  0  0  0  0  0  0  0
  185.2660  178.3550  143.8230 C   0  0  0  0  0  0  0  0  0  0  0  0
  187.3740  177.8470  147.3840 C   0  0  0  0  0  1  0  0  0  0  0  0
  184.4190  178.5440  142.8140 N   0  0  0  0  0  0  0  0  0  0  0  0
  184.6500  178.6770  145.0000 C   0  0  0  0  0  0  0  0  0  0  0  0
  184.7900  178.7840  147.2940 O   0  0  0  0  0  0  0  0  0  0  0  0
  182.2240  178.8850  142.3610 C   0  0  0  0  0  0  0  0  0  0  0  0
  186.6270  178.0250  146.1410 N   0  0  0  0  0  0  0  0  0  0  0  0
  182.8030  178.4670  141.2120 C   0  0  0  0  0  0  0  0  0  0  0  0
  183.2760  178.9370  143.3470 C   0  0  0  0  0  0  0  0  0  0  0  0
  184.2690  178.1450  141.4310 C   0  0  0  0  0  3  0  0  0  0  0  0
  187.2100  177.6960  144.9320 C   0  0  2  0  0  3  0  0  0  0  0  0
  186.5160  177.8500  143.7630 N   0  0  0  0  0  0  0  0  0  0  0  0
  180.8780  179.1610  142.6200 O   0  0  0  0  0  0  0  0  0  0  0  0
  180.0190  178.2500  143.2880 C   0  0  0  0  0  1  0  0  0  0  0  0
  182.1920  178.3510  139.9610 O   0  0  0  0  0  0  0  0  0  0  0  0
  181.1000  177.4770  139.7260 C   0  0  0  0  0  1  0  0  0  0  0  0
  1 20  1  0  0  0  0
  2  4  2  0  0  0  0
  3  1  1  0  0  0  0
  3 16  1  0  0  0  0
  4  3  1  0  0  0  0
  5  8  1  0  0  0  0
  6  5  1  0  0  0  0
  7  8  1  0  0  0  0
  8  4  1  1  0  0  0
  9 11  1  6  0  0  0
  9  6  1  0  0  0  0
  9 10  1  0  0  0  0
 10  7  1  0  0  0  0
 11 12  1  0  0  0  0
 13 12  1  0  0  0  0
 15 13  1  0  0  0  0
 15 14  1  0  0  0  0
 16 18  1  0  0  0  0
 18 17  1  6  0  0  0
 18 19  1  0  0  0  0
 21 26  2  0  0  0  0
 22 27  2  0  0  0  0
 23 26  1  0  0  0  0
 25 31  1  0  0  0  0
 25 23  1  0  0  0  0
 26 22  1  0  0  0  0
 28 35  1  0  0  0  0
 28 31  2  0  0  0  0
 29 22  1  0  0  0  0
 29 24  1  0  0  0  0
 30 32  2  0  0  0  0
 30 28  1  0  0  0  0
 31 21  1  0  0  0  0
 32 25  1  0  0  0  0
 33 20  1  1  0  0  0
 33 29  1  0  0  0  0
 34 23  2  0  0  0  0
 34 33  1  0  0  0  0
 35 36  1  0  0  0  0
 37 30  1  0  0  0  0
 38 37  1  0  0  0  0
M  END
>  <MODEL>
1

>  <REMARK>
 VINA RESULT:      -7.9      0.000      0.000
  Name = 
  12 active torsions:
  status: ('A' for Active; 'I' for Inactive)
    1  A    between atoms: C_4  and  C_12
    2  A    between atoms: C_4  and  N_21
    3  A    between atoms: O_9  and  C_14
    4  A    between atoms: C_12  and  C_24
    5  A    between atoms: C_13  and  C_32
    6  A    between atoms: C_16  and  O_28
    7  A    between atoms: N_21  and  C_32
    8  A    between atoms: C_22  and  C_30
    9  A    between atoms: C_26  and  C_31
   10  A    between atoms: C_26  and  C_35
   11  A    between atoms: C_27  and  C_38
   12  A    between atoms: C_30  and  C_31
                            x       y       z     vdW  Elec       q    Type
                         _______ _______ _______ _____ _____    ______ ____

>  <TORSDO>
F 12

$$$$
=
 OpenBabel10232412233D

 38 41  0  0  1  0  0  0  0  0999 V2000
  189.3880  177.4900  139.4320 C   0  0  0  0  0  2  0  0  0  0  0  0
  190.1690  176.8990  135.9080 O   0  0  0  0  0  0  0  0  0  0  0  0
  189.2620  177.5040  137.9810 N   0  0  0  0  0  0  0  0  0  0  0  0
  190.1710  176.7470  137.1600 C   0  0  0  0  0  0  0  0  0  0  0  0
  192.3260  176.4200  138.2170 O   0  0  0  0  0  0  0  0  0  0  0  0
  193.2810  176.4100  137.1800 C   0  0  0  0  0  2  0  0  0  0  0  0
  191.3360  174.5200  136.9160 C   0  0  0  0  0  2  0  0  0  0  0  0
  191.1350  175.7800  137.7810 C   0  0  2  0  0  3  0  0  0  0  0  0
  193.8000  174.9860  136.9310 C   0  0  2  0  0  3  0  0  0  0  0  0
  192.7160  173.9290  137.1720 C   0  0  0  0  0  2  0  0  0  0  0  0
  195.0600  174.6840  137.7390 C   0  0  0  0  0  2  0  0  0  0  0  0
  194.9820  173.3440  138.4600 C   0  0  0  0  0  2  0  0  0  0  0  0
  196.0230  172.3870  137.9060 C   0  0  0  0  0  2  0  0  0  0  0  0
  195.6460  169.9160  137.7240 C   0  0  0  0  0  1  0  0  0  0  0  0
  195.3690  171.2720  137.1030 C   0  0  0  0  0  2  0  0  0  0  0  0
  188.3570  178.4810  137.3840 C   0  0  0  0  0  2  0  0  0  0  0  0
  186.9030  176.5770  137.5650 O   0  0  0  0  0  1  0  0  0  0  0  0
  187.0050  177.8620  137.0340 C   0  0  2  0  0  3  0  0  0  0  0  0
  186.8070  177.8210  135.5960 N   0  0  0  0  0  1  0  0  0  0  0  0
  188.6320  178.6640  140.0330 C   0  0  0  0  0  2  0  0  0  0  0  0
  187.1730  177.4000  145.2960 C   0  0  0  0  0  3  0  0  0  0  0  0
  186.3550  178.0690  142.9820 C   0  0  0  0  0  0  0  0  0  0  0  0
  188.6070  177.5890  143.5650 C   0  0  0  0  0  0  0  0  0  0  0  0
  185.8210  178.7890  140.7050 C   0  0  0  0  0  1  0  0  0  0  0  0
  189.3360  177.2360  144.6210 N   0  0  0  0  0  0  0  0  0  0  0  0
  187.2920  177.6670  143.9250 C   0  0  0  0  0  0  0  0  0  0  0  0
  185.1350  178.1630  143.2930 O   0  0  0  0  0  0  0  0  0  0  0  0
  189.2370  177.0380  146.8770 C   0  0  0  0  0  0  0  0  0  0  0  0
  186.7920  178.3710  141.7130 N   0  0  0  0  0  0  0  0  0  0  0  0
  190.5470  177.0640  146.5420 C   0  0  0  0  0  0  0  0  0  0  0  0
  188.5010  177.1330  145.6400 C   0  0  0  0  0  0  0  0  0  0  0  0
  190.7180  177.2640  145.0480 C   0  0  0  0  0  3  0  0  0  0  0  0
  188.1340  178.2950  141.3920 C   0  0  2  0  0  3  0  0  0  0  0  0
  189.0520  177.9140  142.3320 N   0  0  0  0  0  0  0  0  0  0  0  0
  188.6530  176.9980  148.1470 O   0  0  0  0  0  0  0  0  0  0  0  0
  188.1500  178.1510  148.8020 C   0  0  0  0  0  1  0  0  0  0  0  0
  191.6340  176.9100  147.4040 O   0  0  0  0  0  0  0  0  0  0  0  0
  192.3550  175.6920  147.5100 C   0  0  0  0  0  1  0  0  0  0  0  0
  1 20  1  0  0  0  0
  2  4  2  0  0  0  0
  3  1  1  0  0  0  0
  4  3  1  0  0  0  0
  6  5  1  0  0  0  0
  7 10  1  0  0  0  0
  7  8  1  0  0  0  0
  8  4  1  6  0  0  0
  8  5  1  0  0  0  0
  9 10  1  0  0  0  0
  9  6  1  0  0  0  0
  9 11  1  1  0  0  0
 11 12  1  0  0  0  0
 13 12  1  0  0  0  0
 15 14  1  0  0  0  0
 15 13  1  0  0  0  0
 16  3  1  0  0  0  0
 18 19  1  6  0  0  0
 18 16  1  0  0  0  0
 18 17  1  0  0  0  0
 21 31  1  0  0  0  0
 22 27  2  0  0  0  0
 22 26  1  0  0  0  0
 23 26  1  0  0  0  0
 23 25  1  0  0  0  0
 24 29  1  0  0  0  0
 25 32  1  0  0  0  0
 25 31  1  0  0  0  0
 26 21  2  0  0  0  0
 28 35  1  0  0  0  0
 29 22  1  0  0  0  0
 30 28  1  0  0  0  0
 30 37  1  0  0  0  0
 31 28  2  0  0  0  0
 32 30  2  0  0  0  0
 33 20  1  1  0  0  0
 33 29  1  0  0  0  0
 33 34  1  0  0  0  0
 34 23  2  0  0  0  0
 35 36  1  0  0  0  0
 37 38  1  0  0  0  0
M  END
>  <MODEL>
2

>  <REMARK>
 VINA RESULT:      -7.9      3.324      6.911
  Name = 
  12 active torsions:
  status: ('A' for Active; 'I' for Inactive)
    1  A    between atoms: C_4  and  C_12
    2  A    between atoms: C_4  and  N_21
    3  A    between atoms: O_9  and  C_14
    4  A    between atoms: C_12  and  C_24
    5  A    between atoms: C_13  and  C_32
    6  A    between atoms: C_16  and  O_28
    7  A    between atoms: N_21  and  C_32
    8  A    between atoms: C_22  and  C_30
    9  A    between atoms: C_26  and  C_31
   10  A    between atoms: C_26  and  C_35
   11  A    between atoms: C_27  and  C_38
   12  A    between atoms: C_30  and  C_31
                            x       y       z     vdW  Elec       q    Type
                         _______ _______ _______ _____ _____    ______ ____

>  <TORSDO>
F 12

$$$$
=
 OpenBabel10232412233D

 38 41  0  0  1  0  0  0  0  0999 V2000
  183.8420  178.9520  139.9610 C   0  0  0  0  0  2  0  0  0  0  0  0
  183.6030  177.6300  136.5590 O   0  0  0  0  0  0  0  0  0  0  0  0
  183.2570  178.4890  138.7100 N   0  0  0  0  0  0  0  0  0  0  0  0
  184.0780  177.8690  137.7030 C   0  0  0  0  0  0  0  0  0  0  0  0
  186.3810  178.6120  137.8050 O   0  0  0  0  0  0  0  0  0  0  0  0
  186.8560  178.6210  136.4780 C   0  0  0  0  0  2  0  0  0  0  0  0
  185.9290  176.1980  137.3090 C   0  0  0  0  0  2  0  0  0  0  0  0
  185.5050  177.5100  137.9950 C   0  0  2  0  0  3  0  0  0  0  0  0
  187.8190  177.4490  136.2370 C   0  0  2  0  0  3  0  0  0  0  0  0
  187.4290  176.2090  137.0490 C   0  0  0  0  0  2  0  0  0  0  0  0
  189.2740  177.8410  136.4830 C   0  0  0  0  0  2  0  0  0  0  0  0
  189.6180  177.9020  137.9660 C   0  0  0  0  0  2  0  0  0  0  0  0
  190.7070  176.8950  138.2970 C   0  0  0  0  0  2  0  0  0  0  0  0
  192.2930  177.4530  140.1560 C   0  0  0  0  0  1  0  0  0  0  0  0
  190.9560  176.8310  139.7960 C   0  0  0  0  0  2  0  0  0  0  0  0
  181.8830  178.8830  138.4120 C   0  0  0  0  0  2  0  0  0  0  0  0
  181.0860  181.0270  139.1480 O   0  0  0  0  0  1  0  0  0  0  0  0
  181.7720  180.3780  138.1220 C   0  0  2  0  0  3  0  0  0  0  0  0
  181.1050  180.6150  136.8540 N   0  0  0  0  0  1  0  0  0  0  0  0
  182.9470  178.5720  141.1290 C   0  0  0  0  0  2  0  0  0  0  0  0
  186.3900  178.2510  145.5410 C   0  0  0  0  0  3  0  0  0  0  0  0
  184.0260  178.7410  144.7400 C   0  0  0  0  0  0  0  0  0  0  0  0
  185.8150  177.9780  143.3760 C   0  0  0  0  0  0  0  0  0  0  0  0
  181.8570  179.2400  143.7240 C   0  0  0  0  0  1  0  0  0  0  0  0
  187.1010  177.6490  143.4690 N   0  0  0  0  0  0  0  0  0  0  0  0
  185.3420  178.3160  144.6130 C   0  0  0  0  0  0  0  0  0  0  0  0
  183.5690  179.0730  145.8690 O   0  0  0  0  0  0  0  0  0  0  0  0
  188.8800  177.7610  144.8690 C   0  0  0  0  0  0  0  0  0  0  0  0
  183.2460  178.8020  143.6100 N   0  0  0  0  0  0  0  0  0  0  0  0
  189.3690  177.5290  143.6290 C   0  0  0  0  0  0  0  0  0  0  0  0
  187.4450  177.8160  144.7330 C   0  0  0  0  0  0  0  0  0  0  0  0
  188.2520  177.5040  142.6030 C   0  0  0  0  0  3  0  0  0  0  0  0
  183.7660  178.4670  142.3740 C   0  0  2  0  0  3  0  0  0  0  0  0
  185.0680  178.0650  142.2550 N   0  0  0  0  0  0  0  0  0  0  0  0
  189.5740  177.9800  146.0630 O   0  0  0  0  0  0  0  0  0  0  0  0
  189.7190  176.9860  147.0650 C   0  0  0  0  0  1  0  0  0  0  0  0
  190.7050  177.3110  143.2840 O   0  0  0  0  0  0  0  0  0  0  0  0
  191.4170  176.1540  143.6930 C   0  0  0  0  0  1  0  0  0  0  0  0
  1 20  1  0  0  0  0
  2  4  2  0  0  0  0
  3  1  1  0  0  0  0
  4  3  1  0  0  0  0
  5  8  1  0  0  0  0
  6  5  1  0  0  0  0
  7  8  1  0  0  0  0
  8  4  1  6  0  0  0
  9  6  1  0  0  0  0
  9 11  1  1  0  0  0
  9 10  1  0  0  0  0
 10  7  1  0  0  0  0
 11 12  1  0  0  0  0
 12 13  1  0  0  0  0
 13 15  1  0  0  0  0
 15 14  1  0  0  0  0
 16  3  1  0  0  0  0
 18 19  1  6  0  0  0
 18 16  1  0  0  0  0
 18 17  1  0  0  0  0
 22 27  2  0  0  0  0
 23 25  1  0  0  0  0
 23 26  1  0  0  0  0
 25 31  1  0  0  0  0
 26 22  1  0  0  0  0
 26 21  2  0  0  0  0
 28 35  1  0  0  0  0
 29 24  1  0  0  0  0
 29 22  1  0  0  0  0
 30 28  1  0  0  0  0
 31 28  2  0  0  0  0
 31 21  1  0  0  0  0
 32 25  1  0  0  0  0
 32 30  2  0  0  0  0
 33 20  1  6  0  0  0
 33 29  1  0  0  0  0
 34 33  1  0  0  0  0
 34 23  2  0  0  0  0
 35 36  1  0  0  0  0
 37 30  1  0  0  0  0
 37 38  1  0  0  0  0
M  END
>  <MODEL>
3

>  <REMARK>
 VINA RESULT:      -7.9      2.408      6.886
  Name = 
  12 active torsions:
  status: ('A' for Active; 'I' for Inactive)
    1  A    between atoms: C_4  and  C_12
    2  A    between atoms: C_4  and  N_21
    3  A    between atoms: O_9  and  C_14
    4  A    between atoms: C_12  and  C_24
    5  A    between atoms: C_13  and  C_32
    6  A    between atoms: C_16  and  O_28
    7  A    between atoms: N_21  and  C_32
    8  A    between atoms: C_22  and  C_30
    9  A    between atoms: C_26  and  C_31
   10  A    between atoms: C_26  and  C_35
   11  A    between atoms: C_27  and  C_38
   12  A    between atoms: C_30  and  C_31
                            x       y       z     vdW  Elec       q    Type
                         _______ _______ _______ _____ _____    ______ ____

>  <TORSDO>
F 12

$$$$
=
 OpenBabel10232412233D

 38 41  0  0  1  0  0  0  0  0999 V2000
  184.4420  179.1660  140.7270 C   0  0  0  0  0  2  0  0  0  0  0  0
  182.3380  178.3760  143.6130 O   0  0  0  0  0  0  0  0  0  0  0  0
  183.2530  178.8650  141.5130 N   0  0  0  0  0  0  0  0  0  0  0  0
  183.3210  178.8060  142.9500 C   0  0  0  0  0  0  0  0  0  0  0  0
  185.7240  178.5990  143.1750 O   0  0  0  0  0  0  0  0  0  0  0  0
  185.9550  177.4080  143.8940 C   0  0  0  0  0  2  0  0  0  0  0  0
  184.3850  179.2070  145.2040 C   0  0  0  0  0  2  0  0  0  0  0  0
  184.5600  179.2430  143.6740 C   0  0  2  0  0  3  0  0  0  0  0  0
  186.3970  177.7170  145.3320 C   0  0  2  0  0  3  0  0  0  0  0  0
  185.7330  178.9860  145.8770 C   0  0  0  0  0  2  0  0  0  0  0  0
  187.9170  177.7830  145.4650 C   0  0  0  0  0  2  0  0  0  0  0  0
  188.3700  177.9080  146.9140 C   0  0  0  0  0  2  0  0  0  0  0  0
  189.6400  177.1050  147.1400 C   0  0  0  0  0  2  0  0  0  0  0  0
  191.8150  176.3800  146.1280 C   0  0  0  0  0  1  0  0  0  0  0  0
  190.4600  177.0100  145.8630 C   0  0  0  0  0  2  0  0  0  0  0  0
  182.0660  178.3950  140.8040 C   0  0  0  0  0  2  0  0  0  0  0  0
  180.3490  179.9010  141.5480 O   0  0  0  0  0  1  0  0  0  0  0  0
  181.1260  179.5440  140.4470 C   0  0  2  0  0  3  0  0  0  0  0  0
  180.2680  179.1890  139.3310 N   0  0  0  0  0  1  0  0  0  0  0  0
  184.1640  178.9360  139.2500 C   0  0  0  0  0  2  0  0  0  0  0  0
  188.8170  176.5210  137.2650 C   0  0  0  0  0  3  0  0  0  0  0  0
  186.3450  176.9760  136.8760 C   0  0  0  0  0  0  0  0  0  0  0  0
  187.6380  177.8290  138.6770 C   0  0  0  0  0  0  0  0  0  0  0  0
  183.9510  177.4740  136.7630 C   0  0  0  0  0  1  0  0  0  0  0  0
  188.8800  177.7840  139.1520 N   0  0  0  0  0  0  0  0  0  0  0  0
  187.5680  177.1050  137.5200 C   0  0  0  0  0  0  0  0  0  0  0  0
  186.2500  176.3010  135.8130 O   0  0  0  0  0  0  0  0  0  0  0  0
  190.8440  176.6760  138.9250 C   0  0  0  0  0  0  0  0  0  0  0  0
  185.2460  177.5910  137.4290 N   0  0  0  0  0  0  0  0  0  0  0  0
  190.8840  177.3050  140.1220 C   0  0  0  0  0  0  0  0  0  0  0  0
  189.5720  177.0120  138.3330 C   0  0  0  0  0  0  0  0  0  0  0  0
  189.5780  178.0250  140.3970 C   0  0  0  0  0  3  0  0  0  0  0  0
  185.3550  178.3010  138.6100 C   0  0  2  0  0  3  0  0  0  0  0  0
  186.5600  178.4090  139.2470 N   0  0  0  0  0  0  0  0  0  0  0  0
  191.7820  175.8090  138.3540 O   0  0  0  0  0  0  0  0  0  0  0  0
  192.7020  176.2180  137.3550 C   0  0  0  0  0  1  0  0  0  0  0  0
  191.9590  177.3420  141.0120 O   0  0  0  0  0  0  0  0  0  0  0  0
  191.7820  177.4380  142.4170 C   0  0  0  0  0  1  0  0  0  0  0  0
  1  3  1  0  0  0  0
  3  4  1  0  0  0  0
  4  2  2  0  0  0  0
  5  8  1  0  0  0  0
  5  6  1  0  0  0  0
  6  9  1  0  0  0  0
  7 10  1  0  0  0  0
  8  4  1  6  0  0  0
  8  7  1  0  0  0  0
  9 11  1  6  0  0  0
  9 10  1  0  0  0  0
 11 12  1  0  0  0  0
 12 13  1  0  0  0  0
 15 14  1  0  0  0  0
 15 13  1  0  0  0  0
 16  3  1  0  0  0  0
 18 19  1  6  0  0  0
 18 16  1  0  0  0  0
 18 17  1  0  0  0  0
 20  1  1  0  0  0  0
 21 26  2  0  0  0  0
 21 31  1  0  0  0  0
 22 29  1  0  0  0  0
 22 26  1  0  0  0  0
 23 25  1  0  0  0  0
 23 34  2  0  0  0  0
 24 29  1  0  0  0  0
 25 32  1  0  0  0  0
 26 23  1  0  0  0  0
 27 22  2  0  0  0  0
 28 30  1  0  0  0  0
 29 33  1  0  0  0  0
 30 32  2  0  0  0  0
 30 37  1  0  0  0  0
 31 28  2  0  0  0  0
 31 25  1  0  0  0  0
 33 34  1  0  0  0  0
 33 20  1  1  0  0  0
 35 28  1  0  0  0  0
 36 35  1  0  0  0  0
 37 38  1  0  0  0  0
M  END
>  <MODEL>
4

>  <REMARK>
 VINA RESULT:      -7.8      2.503      9.212
  Name = 
  12 active torsions:
  status: ('A' for Active; 'I' for Inactive)
    1  A    between atoms: C_4  and  C_12
    2  A    between atoms: C_4  and  N_21
    3  A    between atoms: O_9  and  C_14
    4  A    between atoms: C_12  and  C_24
    5  A    between atoms: C_13  and  C_32
    6  A    between atoms: C_16  and  O_28
    7  A    between atoms: N_21  and  C_32
    8  A    between atoms: C_22  and  C_30
    9  A    between atoms: C_26  and  C_31
   10  A    between atoms: C_26  and  C_35
   11  A    between atoms: C_27  and  C_38
   12  A    between atoms: C_30  and  C_31
                            x       y       z     vdW  Elec       q    Type
                         _______ _______ _______ _____ _____    ______ ____

>  <TORSDO>
F 12

$$$$
=
 OpenBabel10232412233D

 38 41  0  0  1  0  0  0  0  0999 V2000
  185.8100  179.2370  141.0820 C   0  0  0  0  0  2  0  0  0  0  0  0
  182.3990  177.9300  141.2850 O   0  0  0  0  0  0  0  0  0  0  0  0
  184.6470  178.5180  141.5850 N   0  0  0  0  0  0  0  0  0  0  0  0
  183.4570  178.3980  140.7820 C   0  0  0  0  0  0  0  0  0  0  0  0
  182.6350  179.9760  139.1380 O   0  0  0  0  0  0  0  0  0  0  0  0
  181.3260  179.5670  138.8140 C   0  0  0  0  0  2  0  0  0  0  0  0
  183.2240  177.6620  138.3790 C   0  0  0  0  0  2  0  0  0  0  0  0
  183.4570  178.8370  139.3480 C   0  0  2  0  0  3  0  0  0  0  0  0
  181.2850  178.9280  137.4170 C   0  0  2  0  0  3  0  0  0  0  0  0
  182.5760  178.1660  137.0960 C   0  0  0  0  0  2  0  0  0  0  0  0
  180.9550  179.9470  136.3290 C   0  0  0  0  0  2  0  0  0  0  0  0
  180.1340  181.1180  136.8560 C   0  0  0  0  0  2  0  0  0  0  0  0
  180.6870  182.4300  136.3250 C   0  0  0  0  0  2  0  0  0  0  0  0
  181.3080  184.7750  136.9530 C   0  0  0  0  0  1  0  0  0  0  0  0
  180.4920  183.5530  137.3320 C   0  0  0  0  0  2  0  0  0  0  0  0
  184.6350  178.1370  142.9940 C   0  0  0  0  0  2  0  0  0  0  0  0
  185.3280  179.1810  145.0440 O   0  0  0  0  0  1  0  0  0  0  0  0
  184.5370  179.3550  143.9100 C   0  0  2  0  0  3  0  0  0  0  0  0
  183.1600  179.6030  144.3010 N   0  0  0  0  0  1  0  0  0  0  0  0
  186.6820  178.3060  140.2550 C   0  0  0  0  0  2  0  0  0  0  0  0
  191.3110  177.3100  143.2550 C   0  0  0  0  0  3  0  0  0  0  0  0
  190.3150  177.5420  140.9260 C   0  0  0  0  0  0  0  0  0  0  0  0
  189.1560  177.9120  142.9660 C   0  0  0  0  0  0  0  0  0  0  0  0
  189.1170  177.7340  138.8010 C   0  0  0  0  0  1  0  0  0  0  0  0
  189.3640  177.8750  144.2800 N   0  0  0  0  0  0  0  0  0  0  0  0
  190.3170  177.6080  142.3130 C   0  0  0  0  0  0  0  0  0  0  0  0
  191.3710  177.2490  140.3000 O   0  0  0  0  0  0  0  0  0  0  0  0
  190.8530  177.1690  145.8360 C   0  0  0  0  0  0  0  0  0  0  0  0
  189.1380  177.7910  140.2610 N   0  0  0  0  0  0  0  0  0  0  0  0
  189.6790  177.3670  146.4780 C   0  0  0  0  0  0  0  0  0  0  0  0
  190.6230  177.5130  144.4550 C   0  0  0  0  0  0  0  0  0  0  0  0
  188.5930  177.7790  145.5020 C   0  0  0  0  0  3  0  0  0  0  0  0
  187.9800  178.0790  140.9590 C   0  0  2  0  0  3  0  0  0  0  0  0
  187.9870  178.1260  142.3250 N   0  0  0  0  0  0  0  0  0  0  0  0
  192.0580  176.6690  146.3400 O   0  0  0  0  0  0  0  0  0  0  0  0
  192.1190  175.6500  147.3250 C   0  0  0  0  0  1  0  0  0  0  0  0
  189.4440  177.2480  147.8490 O   0  0  0  0  0  0  0  0  0  0  0  0
  188.6650  178.1880  148.5720 C   0  0  0  0  0  1  0  0  0  0  0  0
  1  3  1  0  0  0  0
  3 16  1  0  0  0  0
  4  2  2  0  0  0  0
  4  3  1  0  0  0  0
  5  8  1  0  0  0  0
  6  5  1  0  0  0  0
  7  8  1  0  0  0  0
  8  4  1  1  0  0  0
  9 11  1  6  0  0  0
  9  6  1  0  0  0  0
 10  9  1  0  0  0  0
 10  7  1  0  0  0  0
 11 12  1  0  0  0  0
 13 12  1  0  0  0  0
 13 15  1  0  0  0  0
 14 15  1  0  0  0  0
 16 18  1  0  0  0  0
 18 19  1  1  0  0  0
 18 17  1  0  0  0  0
 20  1  1  0  0  0  0
 21 31  1  0  0  0  0
 22 26  1  0  0  0  0
 23 25  1  0  0  0  0
 24 29  1  0  0  0  0
 25 31  1  0  0  0  0
 25 32  1  0  0  0  0
 26 23  1  0  0  0  0
 26 21  2  0  0  0  0
 27 22  2  0  0  0  0
 28 35  1  0  0  0  0
 28 30  1  0  0  0  0
 29 22  1  0  0  0  0
 29 33  1  0  0  0  0
 30 37  1  0  0  0  0
 31 28  2  0  0  0  0
 32 30  2  0  0  0  0
 33 20  1  1  0  0  0
 33 34  1  0  0  0  0
 34 23  2  0  0  0  0
 35 36  1  0  0  0  0
 37 38  1  0  0  0  0
M  END
>  <MODEL>
5

>  <REMARK>
 VINA RESULT:      -7.6      2.890      8.460
  Name = 
  12 active torsions:
  status: ('A' for Active; 'I' for Inactive)
    1  A    between atoms: C_4  and  C_12
    2  A    between atoms: C_4  and  N_21
    3  A    between atoms: O_9  and  C_14
    4  A    between atoms: C_12  and  C_24
    5  A    between atoms: C_13  and  C_32
    6  A    between atoms: C_16  and  O_28
    7  A    between atoms: N_21  and  C_32
    8  A    between atoms: C_22  and  C_30
    9  A    between atoms: C_26  and  C_31
   10  A    between atoms: C_26  and  C_35
   11  A    between atoms: C_27  and  C_38
   12  A    between atoms: C_30  and  C_31
                            x       y       z     vdW  Elec       q    Type
                         _______ _______ _______ _____ _____    ______ ____

>  <TORSDO>
F 12

$$$$
=
 OpenBabel10232412233D

 38 41  0  0  1  0  0  0  0  0999 V2000
  188.1580  177.2090  138.9780 C   0  0  0  0  0  2  0  0  0  0  0  0
  188.8790  176.9840  135.3990 O   0  0  0  0  0  0  0  0  0  0  0  0
  188.8960  177.2690  137.7240 N   0  0  0  0  0  0  0  0  0  0  0  0
  188.2160  177.1060  136.4650 C   0  0  0  0  0  0  0  0  0  0  0  0
  186.2010  175.8080  136.8150 O   0  0  0  0  0  0  0  0  0  0  0  0
  186.0760  174.9580  135.6970 C   0  0  0  0  0  2  0  0  0  0  0  0
  186.1710  177.6080  135.0720 C   0  0  0  0  0  2  0  0  0  0  0  0
  186.7180  177.0670  136.4070 C   0  0  2  0  0  3  0  0  0  0  0  0
  184.9490  175.4400  134.7710 C   0  0  2  0  0  3  0  0  0  0  0  0
  184.8250  176.9680  134.7640 C   0  0  0  0  0  2  0  0  0  0  0  0
  183.6130  174.7750  135.0970 C   0  0  0  0  0  2  0  0  0  0  0  0
  182.5490  175.7820  135.5170 C   0  0  0  0  0  2  0  0  0  0  0  0
  181.9460  175.3840  136.8540 C   0  0  0  0  0  2  0  0  0  0  0  0
  182.6410  175.8480  139.2170 C   0  0  0  0  0  1  0  0  0  0  0  0
  183.0290  175.1910  137.9060 C   0  0  0  0  0  2  0  0  0  0  0  0
  190.3550  177.2590  137.7890 C   0  0  0  0  0  2  0  0  0  0  0  0
  191.9200  176.7570  139.5420 O   0  0  0  0  0  1  0  0  0  0  0  0
  190.8700  176.2280  138.7910 C   0  0  2  0  0  3  0  0  0  0  0  0
  191.3060  175.0180  138.1160 N   0  0  0  0  0  1  0  0  0  0  0  0
  188.4890  178.4190  139.8370 C   0  0  0  0  0  2  0  0  0  0  0  0
  187.2790  177.5780  145.2450 C   0  0  0  0  0  3  0  0  0  0  0  0
  186.3660  178.1700  142.9460 C   0  0  0  0  0  0  0  0  0  0  0  0
  188.6110  177.5570  143.4240 C   0  0  0  0  0  0  0  0  0  0  0  0
  185.7420  178.7940  140.6640 C   0  0  0  0  0  1  0  0  0  0  0  0
  189.3780  177.2120  144.4560 N   0  0  0  0  0  0  0  0  0  0  0  0
  187.3300  177.7550  143.8560 C   0  0  0  0  0  0  0  0  0  0  0  0
  185.1790  178.3740  143.3220 O   0  0  0  0  0  0  0  0  0  0  0  0
  189.4080  177.1540  146.7210 C   0  0  0  0  0  0  0  0  0  0  0  0
  186.7420  178.3640  141.6380 N   0  0  0  0  0  0  0  0  0  0  0  0
  190.6930  177.0620  146.3090 C   0  0  0  0  0  0  0  0  0  0  0  0
  188.6040  177.2320  145.5260 C   0  0  0  0  0  0  0  0  0  0  0  0
  190.7830  177.1600  144.7980 C   0  0  0  0  0  3  0  0  0  0  0  0
  188.0520  178.1690  141.2440 C   0  0  2  0  0  3  0  0  0  0  0  0
  188.9980  177.7750  142.1490 N   0  0  0  0  0  0  0  0  0  0  0  0
  188.9050  177.2320  148.0240 O   0  0  0  0  0  0  0  0  0  0  0  0
  188.1510  178.3370  148.4960 C   0  0  0  0  0  1  0  0  0  0  0  0
  191.8190  176.8770  147.1130 O   0  0  0  0  0  0  0  0  0  0  0  0
  192.3550  175.5920  147.3880 C   0  0  0  0  0  1  0  0  0  0  0  0
  1 20  1  0  0  0  0
  2  4  2  0  0  0  0
  3 16  1  0  0  0  0
  3  1  1  0  0  0  0
  4  3  1  0  0  0  0
  6  5  1  0  0  0  0
  7  8  1  0  0  0  0
  8  4  1  6  0  0  0
  8  5  1  0  0  0  0
  9 11  1  1  0  0  0
  9  6  1  0  0  0  0
 10  9  1  0  0  0  0
 10  7  1  0  0  0  0
 11 12  1  0  0  0  0
 12 13  1  0  0  0  0
 13 15  1  0  0  0  0
 15 14  1  0  0  0  0
 16 18  1  0  0  0  0
 18 19  1  6  0  0  0
 18 17  1  0  0  0  0
 21 31  1  0  0  0  0
 22 27  2  0  0  0  0
 22 26  1  0  0  0  0
 23 26  1  0  0  0  0
 23 25  1  0  0  0  0
 24 29  1  0  0  0  0
 25 32  1  0  0  0  0
 25 31  1  0  0  0  0
 26 21  2  0  0  0  0
 28 35  1  0  0  0  0
 29 22  1  0  0  0  0
 30 28  1  0  0  0  0
 30 37  1  0  0  0  0
 31 28  2  0  0  0  0
 32 30  2  0  0  0  0
 33 20  1  1  0  0  0
 33 29  1  0  0  0  0
 33 34  1  0  0  0  0
 34 23  2  0  0  0  0
 35 36  1  0  0  0  0
 37 38  1  0  0  0  0
M  END
>  <MODEL>
6

>  <REMARK>
 VINA RESULT:      -7.4      2.879      6.642
  Name = 
  12 active torsions:
  status: ('A' for Active; 'I' for Inactive)
    1  A    between atoms: C_4  and  C_12
    2  A    between atoms: C_4  and  N_21
    3  A    between atoms: O_9  and  C_14
    4  A    between atoms: C_12  and  C_24
    5  A    between atoms: C_13  and  C_32
    6  A    between atoms: C_16  and  O_28
    7  A    between atoms: N_21  and  C_32
    8  A    between atoms: C_22  and  C_30
    9  A    between atoms: C_26  and  C_31
   10  A    between atoms: C_26  and  C_35
   11  A    between atoms: C_27  and  C_38
   12  A    between atoms: C_30  and  C_31
                            x       y       z     vdW  Elec       q    Type
                         _______ _______ _______ _____ _____    ______ ____

>  <TORSDO>
F 12

$$$$
=
 OpenBabel10232412233D

 38 41  0  0  1  0  0  0  0  0999 V2000
  184.8160  179.0790  141.2080 C   0  0  0  0  0  2  0  0  0  0  0  0
  182.6270  178.3130  144.0370 O   0  0  0  0  0  0  0  0  0  0  0  0
  183.6050  178.7820  141.9610 N   0  0  0  0  0  0  0  0  0  0  0  0
  183.6290  178.7380  143.4000 C   0  0  0  0  0  0  0  0  0  0  0  0
  186.0310  178.5750  143.6690 O   0  0  0  0  0  0  0  0  0  0  0  0
  186.2730  177.3760  144.3690 C   0  0  0  0  0  2  0  0  0  0  0  0
  184.6400  179.1170  145.6820 C   0  0  0  0  0  2  0  0  0  0  0  0
  184.8440  179.1860  144.1570 C   0  0  2  0  0  3  0  0  0  0  0  0
  186.6790  177.6650  145.8220 C   0  0  2  0  0  3  0  0  0  0  0  0
  185.9790  178.9110  146.3770 C   0  0  0  0  0  2  0  0  0  0  0  0
  188.1950  177.7600  145.9860 C   0  0  0  0  0  2  0  0  0  0  0  0
  188.9460  177.2740  144.7530 C   0  0  0  0  0  2  0  0  0  0  0  0
  190.4260  177.5950  144.8780 C   0  0  0  0  0  2  0  0  0  0  0  0
  191.3770  177.3430  142.5730 C   0  0  0  0  0  1  0  0  0  0  0  0
  190.9340  178.3230  143.6430 C   0  0  0  0  0  2  0  0  0  0  0  0
  182.4420  178.3010  141.2210 C   0  0  0  0  0  2  0  0  0  0  0  0
  180.1440  178.5110  141.8930 O   0  0  0  0  0  1  0  0  0  0  0  0
  181.2360  179.2220  141.3980 C   0  0  2  0  0  3  0  0  0  0  0  0
  180.8810  179.8630  140.1440 N   0  0  0  0  0  1  0  0  0  0  0  0
  184.4650  179.4390  139.7740 C   0  0  0  0  0  2  0  0  0  0  0  0
  187.6400  176.0990  136.5830 C   0  0  0  0  0  3  0  0  0  0  0  0
  185.2990  176.9890  137.0290 C   0  0  0  0  0  0  0  0  0  0  0  0
  187.2740  177.6730  138.1570 C   0  0  0  0  0  0  0  0  0  0  0  0
  183.1380  177.9200  137.7000 C   0  0  0  0  0  1  0  0  0  0  0  0
  188.5810  177.4210  138.1730 N   0  0  0  0  0  0  0  0  0  0  0  0
  186.6770  176.9180  137.1880 C   0  0  0  0  0  0  0  0  0  0  0  0
  184.7210  176.2910  136.1510 O   0  0  0  0  0  0  0  0  0  0  0  0
  190.1290  175.9540  137.4040 C   0  0  0  0  0  0  0  0  0  0  0  0
  184.5870  177.8260  137.8560 N   0  0  0  0  0  0  0  0  0  0  0  0
  190.6980  176.6240  138.4330 C   0  0  0  0  0  0  0  0  0  0  0  0
  188.7990  176.4930  137.2580 C   0  0  0  0  0  0  0  0  0  0  0  0
  189.7110  177.5890  139.0610 C   0  0  0  0  0  3  0  0  0  0  0  0
  185.2270  178.5610  138.8360 C   0  0  2  0  0  3  0  0  0  0  0  0
  186.5820  178.4730  138.9970 N   0  0  0  0  0  0  0  0  0  0  0  0
  190.6470  174.9000  136.6460 O   0  0  0  0  0  0  0  0  0  0  0  0
  190.4300  173.5360  136.9710 C   0  0  0  0  0  1  0  0  0  0  0  0
  192.0150  176.5040  138.8820 O   0  0  0  0  0  0  0  0  0  0  0  0
  193.1270  176.5520  138.0020 C   0  0  0  0  0  1  0  0  0  0  0  0
  1  3  1  0  0  0  0
  3  4  1  0  0  0  0
  4  2  2  0  0  0  0
  5  8  1  0  0  0  0
  5  6  1  0  0  0  0
  6  9  1  0  0  0  0
  7 10  1  0  0  0  0
  8  4  1  6  0  0  0
  8  7  1  0  0  0  0
  9 11  1  6  0  0  0
  9 10  1  0  0  0  0
 12 13  1  0  0  0  0
 12 11  1  0  0  0  0
 14 15  1  0  0  0  0
 15 13  1  0  0  0  0
 16 18  1  0  0  0  0
 16  3  1  0  0  0  0
 18 19  1  6  0  0  0
 18 17  1  0  0  0  0
 20  1  1  0  0  0  0
 21 26  2  0  0  0  0
 21 31  1  0  0  0  0
 22 26  1  0  0  0  0
 22 29  1  0  0  0  0
 23 25  1  0  0  0  0
 23 34  2  0  0  0  0
 24 29  1  0  0  0  0
 25 32  1  0  0  0  0
 26 23  1  0  0  0  0
 27 22  2  0  0  0  0
 28 30  1  0  0  0  0
 29 33  1  0  0  0  0
 30 37  1  0  0  0  0
 30 32  2  0  0  0  0
 31 28  2  0  0  0  0
 31 25  1  0  0  0  0
 33 34  1  0  0  0  0
 33 20  1  1  0  0  0
 35 36  1  0  0  0  0
 35 28  1  0  0  0  0
 38 37  1  0  0  0  0
M  END
>  <MODEL>
7

>  <REMARK>
 VINA RESULT:      -7.3      2.546      8.929
  Name = 
  12 active torsions:
  status: ('A' for Active; 'I' for Inactive)
    1  A    between atoms: C_4  and  C_12
    2  A    between atoms: C_4  and  N_21
    3  A    between atoms: O_9  and  C_14
    4  A    between atoms: C_12  and  C_24
    5  A    between atoms: C_13  and  C_32
    6  A    between atoms: C_16  and  O_28
    7  A    between atoms: N_21  and  C_32
    8  A    between atoms: C_22  and  C_30
    9  A    between atoms: C_26  and  C_31
   10  A    between atoms: C_26  and  C_35
   11  A    between atoms: C_27  and  C_38
   12  A    between atoms: C_30  and  C_31
                            x       y       z     vdW  Elec       q    Type
                         _______ _______ _______ _____ _____    ______ ____

>  <TORSDO>
F 12

$$$$
=
 OpenBabel10232412233D

 38 41  0  0  1  0  0  0  0  0999 V2000
  190.5410  175.6580  138.0730 C   0  0  0  0  0  2  0  0  0  0  0  0
  191.9910  177.6690  140.7630 O   0  0  0  0  0  0  0  0  0  0  0  0
  191.5250  176.4010  138.8500 N   0  0  0  0  0  0  0  0  0  0  0  0
  191.2050  176.8830  140.1680 C   0  0  0  0  0  0  0  0  0  0  0  0
  188.8550  177.3380  140.5400 O   0  0  0  0  0  0  0  0  0  0  0  0
  188.7960  178.3750  141.4920 C   0  0  0  0  0  2  0  0  0  0  0  0
  190.1400  176.1640  142.3420 C   0  0  0  0  0  2  0  0  0  0  0  0
  189.9330  176.4650  140.8450 C   0  0  2  0  0  3  0  0  0  0  0  0
  188.3450  177.8360  142.8580 C   0  0  2  0  0  3  0  0  0  0  0  0
  188.8460  176.4090  143.1060 C   0  0  0  0  0  2  0  0  0  0  0  0
  186.8320  177.9340  143.0440 C   0  0  0  0  0  2  0  0  0  0  0  0
  186.3930  177.5540  144.4530 C   0  0  0  0  0  2  0  0  0  0  0  0
  185.2670  178.4620  144.9160 C   0  0  0  0  0  2  0  0  0  0  0  0
  186.3500  178.6300  147.1700 C   0  0  0  0  0  1  0  0  0  0  0  0
  185.0600  178.3550  146.4190 C   0  0  0  0  0  2  0  0  0  0  0  0
  192.7380  176.8440  138.1690 C   0  0  0  0  0  2  0  0  0  0  0  0
  194.6830  175.5200  138.6570 O   0  0  0  0  0  1  0  0  0  0  0  0
  193.6230  175.6680  137.7640 C   0  0  2  0  0  3  0  0  0  0  0  0
  194.1340  175.8400  136.4150 N   0  0  0  0  0  1  0  0  0  0  0  0
  190.1270  176.4600  136.8500 C   0  0  0  0  0  2  0  0  0  0  0  0
  184.5330  176.7970  136.9720 C   0  0  0  0  0  3  0  0  0  0  0  0
  186.7300  178.0280  137.3300 C   0  0  0  0  0  0  0  0  0  0  0  0
  186.5090  175.8080  136.5160 C   0  0  0  0  0  0  0  0  0  0  0  0
  188.9600  178.9710  137.6850 C   0  0  0  0  0  1  0  0  0  0  0  0
  185.5660  174.9130  136.2330 N   0  0  0  0  0  0  0  0  0  0  0  0
  185.9240  176.9690  136.9350 C   0  0  0  0  0  0  0  0  0  0  0  0
  186.2140  179.1070  137.7350 O   0  0  0  0  0  0  0  0  0  0  0  0
  183.3540  174.4980  136.5060 C   0  0  0  0  0  0  0  0  0  0  0  0
  188.0940  177.8660  137.2800 N   0  0  0  0  0  0  0  0  0  0  0  0
  183.9400  173.3190  136.1930 C   0  0  0  0  0  0  0  0  0  0  0  0
  184.4070  175.4850  136.5070 C   0  0  0  0  0  0  0  0  0  0  0  0
  185.4410  173.4820  136.0560 C   0  0  0  0  0  3  0  0  0  0  0  0
  188.6480  176.6700  136.8660 C   0  0  2  0  0  3  0  0  0  0  0  0
  187.8470  175.6260  136.4940 N   0  0  0  0  0  0  0  0  0  0  0  0
  182.0210  174.7590  136.8370 O   0  0  0  0  0  0  0  0  0  0  0  0
  181.0640  175.2090  135.8900 C   0  0  0  0  0  1  0  0  0  0  0  0
  183.2990  172.0960  135.9880 O   0  0  0  0  0  0  0  0  0  0  0  0
  182.7760  171.3220  137.0560 C   0  0  0  0  0  1  0  0  0  0  0  0
  1  3  1  0  0  0  0
  3  4  1  0  0  0  0
  4  2  2  0  0  0  0
  5  8  1  0  0  0  0
  5  6  1  0  0  0  0
  6  9  1  0  0  0  0
  7 10  1  0  0  0  0
  8  4  1  1  0  0  0
  8  7  1  0  0  0  0
  9 11  1  6  0  0  0
  9 10  1  0  0  0  0
 11 12  1  0  0  0  0
 12 13  1  0  0  0  0
 13 15  1  0  0  0  0
 15 14  1  0  0  0  0
 16  3  1  0  0  0  0
 18 19  1  6  0  0  0
 18 16  1  0  0  0  0
 18 17  1  0  0  0  0
 20  1  1  0  0  0  0
 22 27  2  0  0  0  0
 23 26  1  0  0  0  0
 25 31  1  0  0  0  0
 25 23  1  0  0  0  0
 26 21  2  0  0  0  0
 26 22  1  0  0  0  0
 28 31  2  0  0  0  0
 28 35  1  0  0  0  0
 29 22  1  0  0  0  0
 29 24  1  0  0  0  0
 30 28  1  0  0  0  0
 31 21  1  0  0  0  0
 32 30  2  0  0  0  0
 32 25  1  0  0  0  0
 33 20  1  1  0  0  0
 33 29  1  0  0  0  0
 34 23  2  0  0  0  0
 34 33  1  0  0  0  0
 36 35  1  0  0  0  0
 37 30  1  0  0  0  0
 37 38  1  0  0  0  0
M  END
>  <MODEL>
8

>  <REMARK>
 VINA RESULT:      -7.2      3.807      7.423
  Name = 
  12 active torsions:
  status: ('A' for Active; 'I' for Inactive)
    1  A    between atoms: C_4  and  C_12
    2  A    between atoms: C_4  and  N_21
    3  A    between atoms: O_9  and  C_14
    4  A    between atoms: C_12  and  C_24
    5  A    between atoms: C_13  and  C_32
    6  A    between atoms: C_16  and  O_28
    7  A    between atoms: N_21  and  C_32
    8  A    between atoms: C_22  and  C_30
    9  A    between atoms: C_26  and  C_31
   10  A    between atoms: C_26  and  C_35
   11  A    between atoms: C_27  and  C_38
   12  A    between atoms: C_30  and  C_31
                            x       y       z     vdW  Elec       q    Type
                         _______ _______ _______ _____ _____    ______ ____

>  <TORSDO>
F 12

$$$$
=
 OpenBabel10232412233D

 38 41  0  0  1  0  0  0  0  0999 V2000
  184.9670  178.2870  142.5520 C   0  0  0  0  0  2  0  0  0  0  0  0
  184.3180  178.7780  146.1180 O   0  0  0  0  0  0  0  0  0  0  0  0
  184.4100  178.8410  143.7790 N   0  0  0  0  0  0  0  0  0  0  0  0
  184.9160  178.4320  145.0630 C   0  0  0  0  0  0  0  0  0  0  0  0
  186.3140  177.0330  146.4620 O   0  0  0  0  0  0  0  0  0  0  0  0
  187.0850  177.9080  147.2550 C   0  0  0  0  0  2  0  0  0  0  0  0
  187.3880  178.2830  144.5740 C   0  0  0  0  0  2  0  0  0  0  0  0
  186.1480  177.5830  145.1630 C   0  0  2  0  0  3  0  0  0  0  0  0
  188.5420  177.9380  146.7730 C   0  0  2  0  0  3  0  0  0  0  0  0
  188.6490  177.7660  145.2530 C   0  0  0  0  0  2  0  0  0  0  0  0
  189.4140  176.9230  147.5100 C   0  0  0  0  0  2  0  0  0  0  0  0
  190.8960  177.2670  147.4370 C   0  0  0  0  0  2  0  0  0  0  0  0
  191.6540  176.1750  146.7010 C   0  0  0  0  0  2  0  0  0  0  0  0
  191.9740  175.1340  144.4440 C   0  0  0  0  0  1  0  0  0  0  0  0
  191.6120  176.4000  145.1970 C   0  0  0  0  0  2  0  0  0  0  0  0
  183.1830  179.6260  143.6770 C   0  0  0  0  0  2  0  0  0  0  0  0
  181.4900  179.2260  142.0200 O   0  0  0  0  0  1  0  0  0  0  0  0
  181.9970  178.7710  143.2360 C   0  0  2  0  0  3  0  0  0  0  0  0
  180.9490  178.7750  144.2410 N   0  0  0  0  0  1  0  0  0  0  0  0
  185.2490  179.4000  141.5570 C   0  0  0  0  0  2  0  0  0  0  0  0
  187.5030  177.0110  137.0150 C   0  0  0  0  0  3  0  0  0  0  0  0
  185.3930  177.9550  138.0750 C   0  0  0  0  0  0  0  0  0  0  0  0
  187.5590  177.9850  139.0490 C   0  0  0  0  0  0  0  0  0  0  0  0
  183.4880  178.8400  139.3310 C   0  0  0  0  0  1  0  0  0  0  0  0
  188.8040  177.5950  138.7840 N   0  0  0  0  0  0  0  0  0  0  0  0
  186.7510  177.6780  137.9910 C   0  0  0  0  0  0  0  0  0  0  0  0
  184.6230  177.6680  137.1160 O   0  0  0  0  0  0  0  0  0  0  0  0
  190.0110  176.3130  137.3570 C   0  0  0  0  0  0  0  0  0  0  0  0
  184.9130  178.5340  139.2260 N   0  0  0  0  0  0  0  0  0  0  0  0
  190.7840  176.5230  138.4480 C   0  0  0  0  0  0  0  0  0  0  0  0
  188.7740  177.0160  137.5970 C   0  0  0  0  0  0  0  0  0  0  0  0
  190.0330  177.3210  139.4960 C   0  0  0  0  0  3  0  0  0  0  0  0
  185.7600  178.8140  140.2810 C   0  0  2  0  0  3  0  0  0  0  0  0
  187.0940  178.5230  140.1970 N   0  0  0  0  0  0  0  0  0  0  0  0
  190.2730  175.5290  136.2290 O   0  0  0  0  0  0  0  0  0  0  0  0
  189.7330  174.2290  136.0500 C   0  0  0  0  0  1  0  0  0  0  0  0
  192.1050  176.1080  138.6290 O   0  0  0  0  0  0  0  0  0  0  0  0
  193.1580  176.5280  137.7760 C   0  0  0  0  0  1  0  0  0  0  0  0
  1  3  1  0  0  0  0
  3  4  1  0  0  0  0
  4  2  2  0  0  0  0
  5  6  1  0  0  0  0
  7  8  1  0  0  0  0
  7 10  1  0  0  0  0
  8  4  1  1  0  0  0
  8  5  1  0  0  0  0
  9  6  1  0  0  0  0
  9 11  1  1  0  0  0
 10  9  1  0  0  0  0
 12 11  1  0  0  0  0
 13 12  1  0  0  0  0
 14 15  1  0  0  0  0
 15 13  1  0  0  0  0
 16  3  1  0  0  0  0
 18 17  1  6  0  0  0
 18 16  1  0  0  0  0
 18 19  1  0  0  0  0
 20  1  1  0  0  0  0
 21 31  1  0  0  0  0
 21 26  2  0  0  0  0
 22 29  1  0  0  0  0
 23 34  2  0  0  0  0
 25 23  1  0  0  0  0
 25 32  1  0  0  0  0
 26 22  1  0  0  0  0
 26 23  1  0  0  0  0
 27 22  2  0  0  0  0
 28 31  2  0  0  0  0
 28 30  1  0  0  0  0
 29 24  1  0  0  0  0
 29 33  1  0  0  0  0
 30 37  1  0  0  0  0
 30 32  2  0  0  0  0
 31 25  1  0  0  0  0
 33 20  1  1  0  0  0
 34 33  1  0  0  0  0
 35 28  1  0  0  0  0
 36 35  1  0  0  0  0
 38 37  1  0  0  0  0
M  END
>  <MODEL>
9

>  <REMARK>
 VINA RESULT:      -7.2      2.288      8.671
  Name = 
  12 active torsions:
  status: ('A' for Active; 'I' for Inactive)
    1  A    between atoms: C_4  and  C_12
    2  A    between atoms: C_4  and  N_21
    3  A    between atoms: O_9  and  C_14
    4  A    between atoms: C_12  and  C_24
    5  A    between atoms: C_13  and  C_32
    6  A    between atoms: C_16  and  O_28
    7  A    between atoms: N_21  and  C_32
    8  A    between atoms: C_22  and  C_30
    9  A    between atoms: C_26  and  C_31
   10  A    between atoms: C_26  and  C_35
   11  A    between atoms: C_27  and  C_38
   12  A    between atoms: C_30  and  C_31
                            x       y       z     vdW  Elec       q    Type
                         _______ _______ _______ _____ _____    ______ ____

>  <TORSDO>
F 12

$$$$
