=
 OpenBabel10232409363D

 33 36  0  0  1  0  0  0  0  0999 V2000
  186.0230  178.0350  144.0640 C   0  0  0  0  0  0  0  0  0  0  0  0
  187.6870  178.1130  147.8970 C   0  0  0  0  0  3  0  0  0  0  0  0
  189.2980  177.1740  145.7930 C   0  0  0  0  0  0  0  0  0  0  0  0
  185.8900  178.4730  146.4130 N   0  0  0  0  0  0  0  0  0  0  0  0
  183.9770  178.8940  145.0680 C   0  0  0  0  0  3  0  0  0  0  0  0
  191.9240  176.3290  146.4170 C   0  0  0  0  0  3  0  0  0  0  0  0
  185.3860  178.0420  142.8110 C   0  0  0  0  0  3  0  0  0  0  0  0
  185.3020  178.4660  145.1960 C   0  0  0  0  0  0  0  0  0  0  0  0
  183.3520  178.8980  143.8180 C   0  0  0  0  0  0  0  0  0  0  0  0
  184.0620  178.4690  142.6900 C   0  0  0  0  0  3  0  0  0  0  0  0
  191.0920  176.8180  147.4240 C   0  0  0  0  0  3  0  0  0  0  0  0
  187.3620  177.6090  144.2120 C   0  0  0  0  0  0  0  0  0  0  0  0
  187.1690  178.0670  146.6030 C   0  0  0  0  0  0  0  0  0  0  0  0
  191.4570  176.2540  145.1060 C   0  0  0  0  0  3  0  0  0  0  0  0
  188.9870  177.7020  148.1570 C   0  0  0  0  0  3  0  0  0  0  0  0
  189.7910  177.2340  147.1250 C   0  0  0  0  0  0  0  0  0  0  0  0
  190.1590  176.6690  144.8020 C   0  0  0  0  0  3  0  0  0  0  0  0
  187.9620  177.6080  145.5120 C   0  0  0  0  0  0  0  0  0  0  0  0
  188.1170  177.2110  142.9730 C   0  0  0  0  0  2  0  0  0  0  0  0
  188.6660  178.4450  142.2740 C   0  0  0  0  0  2  0  0  0  0  0  0
  188.2050  178.4800  140.8300 C   0  0  0  0  0  2  0  0  0  0  0  0
  189.2360  177.8220  139.9290 C   0  0  0  0  0  2  0  0  0  0  0  0
  189.0050  179.5810  137.6880 O   0  0  0  0  0  0  0  0  0  0  0  0
  188.6360  177.4820  138.6480 N   0  0  0  0  0  2  0  0  0  0  0  0
  187.9550  177.9850  136.2750 C   0  0  0  0  0  1  0  0  0  0  0  0
  188.5630  178.4090  137.5630 C   0  0  0  0  0  0  0  0  0  0  0  0
  181.9960  179.3390  143.7190 N   0  0  0  0  0  2  0  0  0  0  0  0
  180.8620  178.4290  143.8000 C   0  0  0  0  0  2  0  0  0  0  0  0
  180.0720  177.4580  141.7570 O   0  0  0  0  0  1  0  0  0  0  0  0
  179.9820  178.5890  142.5710 C   0  0  2  0  0  3  0  0  0  0  0  0
  180.3530  179.8440  141.7870 C   0  0  0  0  0  2  0  0  0  0  0  0
  180.4210  179.5840  140.2900 C   0  0  0  0  0  2  0  0  0  0  0  0
  181.7550  179.4990  139.8940 O   0  0  0  0  0  1  0  0  0  0  0  0
  1 12  2  0  0  0  0
  1  8  1  0  0  0  0
  2 15  1  0  0  0  0
  3 16  1  0  0  0  0
  4 13  1  0  0  0  0
  5  8  1  0  0  0  0
  6 11  2  0  0  0  0
  7  1  1  0  0  0  0
  8  4  2  0  0  0  0
  9  5  2  0  0  0  0
 10  7  2  0  0  0  0
 10  9  1  0  0  0  0
 12 18  1  0  0  0  0
 13  2  2  0  0  0  0
 14  6  1  0  0  0  0
 16 11  1  0  0  0  0
 16 15  2  0  0  0  0
 17 14  2  0  0  0  0
 17  3  1  0  0  0  0
 18  3  2  0  0  0  0
 18 13  1  0  0  0  0
 19 12  1  0  0  0  0
 20 19  1  0  0  0  0
 21 20  1  0  0  0  0
 22 21  1  0  0  0  0
 24 22  1  0  0  0  0
 25 26  1  0  0  0  0
 26 23  2  0  0  0  0
 26 24  1  0  0  0  0
 27 28  1  0  0  0  0
 27  9  1  0  0  0  0
 30 29  1  6  0  0  0
 30 28  1  0  0  0  0
 31 30  1  0  0  0  0
 32 31  1  0  0  0  0
 33 32  1  0  0  0  0
M  END
>  <MODEL>
1

>  <REMARK>
 VINA RESULT:      -9.6      0.000      0.000
  Name = 
  10 active torsions:
  status: ('A' for Active; 'I' for Inactive)
    1  A    between atoms: C_1  and  C_19
    2  A    between atoms: C_1  and  C_26
    3  A    between atoms: C_2  and  C_12
    4  A    between atoms: C_5  and  N_24
    5  A    between atoms: C_5  and  C_30
    6  A    between atoms: N_6  and  C_25
    7  A    between atoms: C_12  and  C_30
    8  A    between atoms: C_14  and  C_19
    9  A    between atoms: C_14  and  C_25
   10  A    between atoms: C_18  and  N_24
                            x       y       z     vdW  Elec       q    Type
                         _______ _______ _______ _____ _____    ______ ____

>  <TORSDO>
F 10

$$$$
=
 OpenBabel10232409363D

 33 36  0  0  1  0  0  0  0  0999 V2000
  188.7810  177.6020  141.4400 C   0  0  0  0  0  0  0  0  0  0  0  0
  184.8760  179.0670  141.7010 C   0  0  0  0  0  3  0  0  0  0  0  0
  186.1310  178.2590  144.0840 C   0  0  0  0  0  0  0  0  0  0  0  0
  186.7890  178.4840  140.4510 N   0  0  0  0  0  0  0  0  0  0  0  0
  188.6200  177.9500  139.0350 C   0  0  0  0  0  3  0  0  0  0  0  0
  184.6580  178.4740  146.4890 C   0  0  0  0  0  3  0  0  0  0  0  0
  190.0910  177.1230  141.2610 C   0  0  0  0  0  3  0  0  0  0  0  0
  188.0490  178.0160  140.3090 C   0  0  0  0  0  0  0  0  0  0  0  0
  189.9230  177.4730  138.8670 C   0  0  0  0  0  0  0  0  0  0  0  0
  190.6560  177.0580  139.9850 C   0  0  0  0  0  3  0  0  0  0  0  0
  184.0840  178.8770  145.2840 C   0  0  0  0  0  3  0  0  0  0  0  0
  188.1890  177.6790  142.7200 C   0  0  0  0  0  0  0  0  0  0  0  0
  186.1780  178.5690  141.6580 C   0  0  0  0  0  0  0  0  0  0  0  0
  185.9540  177.9610  146.5050 C   0  0  0  0  0  3  0  0  0  0  0  0
  184.1950  179.1690  142.9060 C   0  0  0  0  0  3  0  0  0  0  0  0
  184.8040  178.7700  144.0900 C   0  0  0  0  0  0  0  0  0  0  0  0
  186.6770  177.8550  145.3160 C   0  0  0  0  0  3  0  0  0  0  0  0
  186.8470  178.1620  142.8480 C   0  0  0  0  0  0  0  0  0  0  0  0
  189.0220  177.2820  143.9080 C   0  0  0  0  0  2  0  0  0  0  0  0
  189.9610  178.4150  144.2920 C   0  0  0  0  0  2  0  0  0  0  0  0
  191.3610  177.8800  144.5280 C   0  0  0  0  0  2  0  0  0  0  0  0
  191.3250  176.3730  144.7240 C   0  0  0  0  0  2  0  0  0  0  0  0
  190.6420  176.6100  147.4890 O   0  0  0  0  0  0  0  0  0  0  0  0
  192.1800  175.9950  145.8390 N   0  0  0  0  0  2  0  0  0  0  0  0
  192.6870  175.7010  148.2890 C   0  0  0  0  0  1  0  0  0  0  0  0
  191.7710  176.1300  147.2010 C   0  0  0  0  0  0  0  0  0  0  0  0
  190.4790  177.4150  137.5510 N   0  0  0  0  0  2  0  0  0  0  0  0
  190.3220  176.2630  136.6760 C   0  0  0  0  0  2  0  0  0  0  0  0
  191.3170  174.3940  137.7990 O   0  0  0  0  0  1  0  0  0  0  0  0
  191.5290  175.3490  136.8020 C   0  0  2  0  0  3  0  0  0  0  0  0
  192.7970  176.1480  137.0870 C   0  0  0  0  0  2  0  0  0  0  0  0
  193.8310  175.9940  135.9810 C   0  0  0  0  0  2  0  0  0  0  0  0
  194.7670  177.0220  136.0770 O   0  0  0  0  0  1  0  0  0  0  0  0
  1 12  2  0  0  0  0
  2 15  1  0  0  0  0
  3 16  1  0  0  0  0
  3 17  1  0  0  0  0
  4 13  1  0  0  0  0
  5  8  1  0  0  0  0
  6 14  1  0  0  0  0
  7  1  1  0  0  0  0
  8  4  2  0  0  0  0
  8  1  1  0  0  0  0
  9  5  2  0  0  0  0
  9 10  1  0  0  0  0
 10  7  2  0  0  0  0
 11  6  2  0  0  0  0
 12 18  1  0  0  0  0
 12 19  1  0  0  0  0
 13  2  2  0  0  0  0
 13 18  1  0  0  0  0
 15 16  2  0  0  0  0
 16 11  1  0  0  0  0
 17 14  2  0  0  0  0
 18  3  2  0  0  0  0
 19 20  1  0  0  0  0
 20 21  1  0  0  0  0
 21 22  1  0  0  0  0
 22 24  1  0  0  0  0
 24 26  1  0  0  0  0
 26 23  2  0  0  0  0
 26 25  1  0  0  0  0
 27  9  1  0  0  0  0
 28 30  1  0  0  0  0
 28 27  1  0  0  0  0
 30 31  1  0  0  0  0
 30 29  1  1  0  0  0
 32 33  1  0  0  0  0
 32 31  1  0  0  0  0
M  END
>  <MODEL>
2

>  <REMARK>
 VINA RESULT:      -9.4      3.876      8.413
  Name = 
  10 active torsions:
  status: ('A' for Active; 'I' for Inactive)
    1  A    between atoms: C_1  and  C_19
    2  A    between atoms: C_1  and  C_26
    3  A    between atoms: C_2  and  C_12
    4  A    between atoms: C_5  and  N_24
    5  A    between atoms: C_5  and  C_30
    6  A    between atoms: N_6  and  C_25
    7  A    between atoms: C_12  and  C_30
    8  A    between atoms: C_14  and  C_19
    9  A    between atoms: C_14  and  C_25
   10  A    between atoms: C_18  and  N_24
                            x       y       z     vdW  Elec       q    Type
                         _______ _______ _______ _____ _____    ______ ____

>  <TORSDO>
F 10

$$$$
=
 OpenBabel10232409363D

 33 36  0  0  1  0  0  0  0  0999 V2000
  188.5890  177.7500  141.1260 C   0  0  0  0  0  0  0  0  0  0  0  0
  184.7300  179.1480  141.9090 C   0  0  0  0  0  3  0  0  0  0  0  0
  186.2530  178.2280  144.0860 C   0  0  0  0  0  0  0  0  0  0  0  0
  186.4910  178.6590  140.4200 N   0  0  0  0  0  0  0  0  0  0  0  0
  188.1520  178.2260  138.7770 C   0  0  0  0  0  3  0  0  0  0  0  0
  185.0630  178.2940  146.6510 C   0  0  0  0  0  3  0  0  0  0  0  0
  189.8720  177.2980  140.7730 C   0  0  0  0  0  3  0  0  0  0  0  0
  187.7290  178.2150  140.1100 C   0  0  0  0  0  0  0  0  0  0  0  0
  189.4300  177.7750  138.4360 C   0  0  0  0  0  0  0  0  0  0  0  0
  190.2890  177.3090  139.4400 C   0  0  0  0  0  3  0  0  0  0  0  0
  184.3530  178.7540  145.5430 C   0  0  0  0  0  3  0  0  0  0  0  0
  188.1460  177.7490  142.4670 C   0  0  0  0  0  0  0  0  0  0  0  0
  186.0210  178.6700  141.6910 C   0  0  0  0  0  0  0  0  0  0  0  0
  186.3560  177.7980  146.4910 C   0  0  0  0  0  3  0  0  0  0  0  0
  184.1890  179.1770  143.1870 C   0  0  0  0  0  3  0  0  0  0  0  0
  184.9330  178.7220  144.2700 C   0  0  0  0  0  0  0  0  0  0  0  0
  186.9390  177.7650  145.2230 C   0  0  0  0  0  3  0  0  0  0  0  0
  186.8240  178.2080  142.7730 C   0  0  0  0  0  0  0  0  0  0  0  0
  189.1120  177.3000  143.5290 C   0  0  0  0  0  2  0  0  0  0  0  0
  190.0940  178.4150  143.8510 C   0  0  0  0  0  2  0  0  0  0  0  0
  191.4100  177.8340  144.3320 C   0  0  0  0  0  2  0  0  0  0  0  0
  191.2560  176.3520  144.6320 C   0  0  0  0  0  2  0  0  0  0  0  0
  190.5820  176.7610  147.3790 O   0  0  0  0  0  0  0  0  0  0  0  0
  192.0870  175.9830  145.7680 N   0  0  0  0  0  2  0  0  0  0  0  0
  192.5740  175.7840  148.2320 C   0  0  0  0  0  1  0  0  0  0  0  0
  191.6830  176.2070  147.1200 C   0  0  0  0  0  0  0  0  0  0  0  0
  189.8330  177.7960  137.0650 N   0  0  0  0  0  2  0  0  0  0  0  0
  188.8920  177.6640  135.9630 C   0  0  0  0  0  2  0  0  0  0  0  0
  187.6180  175.6370  136.0760 O   0  0  0  0  0  1  0  0  0  0  0  0
  188.7800  176.2060  135.5490 C   0  0  2  0  0  3  0  0  0  0  0  0
  190.0090  175.4140  135.9860 C   0  0  0  0  0  2  0  0  0  0  0  0
  189.6520  174.2840  136.9410 C   0  0  0  0  0  2  0  0  0  0  0  0
  190.7380  174.0220  137.7750 O   0  0  0  0  0  1  0  0  0  0  0  0
  1 12  2  0  0  0  0
  2 15  1  0  0  0  0
  3 16  1  0  0  0  0
  3 17  1  0  0  0  0
  4 13  1  0  0  0  0
  5  8  1  0  0  0  0
  7  1  1  0  0  0  0
  8  4  2  0  0  0  0
  8  1  1  0  0  0  0
  9  5  2  0  0  0  0
  9 10  1  0  0  0  0
 10  7  2  0  0  0  0
 11  6  2  0  0  0  0
 12 18  1  0  0  0  0
 12 19  1  0  0  0  0
 13  2  2  0  0  0  0
 13 18  1  0  0  0  0
 14  6  1  0  0  0  0
 15 16  2  0  0  0  0
 16 11  1  0  0  0  0
 17 14  2  0  0  0  0
 18  3  2  0  0  0  0
 19 20  1  0  0  0  0
 20 21  1  0  0  0  0
 21 22  1  0  0  0  0
 22 24  1  0  0  0  0
 24 26  1  0  0  0  0
 26 23  2  0  0  0  0
 26 25  1  0  0  0  0
 27  9  1  0  0  0  0
 28 27  1  0  0  0  0
 30 28  1  0  0  0  0
 30 31  1  0  0  0  0
 30 29  1  1  0  0  0
 31 32  1  0  0  0  0
 32 33  1  0  0  0  0
M  END
>  <MODEL>
3

>  <REMARK>
 VINA RESULT:      -9.2      3.296      7.703
  Name = 
  10 active torsions:
  status: ('A' for Active; 'I' for Inactive)
    1  A    between atoms: C_1  and  C_19
    2  A    between atoms: C_1  and  C_26
    3  A    between atoms: C_2  and  C_12
    4  A    between atoms: C_5  and  N_24
    5  A    between atoms: C_5  and  C_30
    6  A    between atoms: N_6  and  C_25
    7  A    between atoms: C_12  and  C_30
    8  A    between atoms: C_14  and  C_19
    9  A    between atoms: C_14  and  C_25
   10  A    between atoms: C_18  and  N_24
                            x       y       z     vdW  Elec       q    Type
                         _______ _______ _______ _____ _____    ______ ____

>  <TORSDO>
F 10

$$$$
=
 OpenBabel10232409363D

 33 36  0  0  1  0  0  0  0  0999 V2000
  188.9320  177.3500  141.4260 C   0  0  0  0  0  0  0  0  0  0  0  0
  185.2020  179.2040  141.7690 C   0  0  0  0  0  3  0  0  0  0  0  0
  186.3450  178.1280  144.1010 C   0  0  0  0  0  0  0  0  0  0  0  0
  187.0520  178.4960  140.4880 N   0  0  0  0  0  0  0  0  0  0  0  0
  188.8270  177.8560  139.0460 C   0  0  0  0  0  3  0  0  0  0  0  0
  184.8840  178.3560  146.5120 C   0  0  0  0  0  3  0  0  0  0  0  0
  190.1840  176.7460  141.2210 C   0  0  0  0  0  3  0  0  0  0  0  0
  188.2560  177.9060  140.3210 C   0  0  0  0  0  0  0  0  0  0  0  0
  190.0730  177.2530  138.8520 C   0  0  0  0  0  0  0  0  0  0  0  0
  190.7500  176.6970  139.9450 C   0  0  0  0  0  3  0  0  0  0  0  0
  184.3670  178.8880  145.3320 C   0  0  0  0  0  3  0  0  0  0  0  0
  188.3410  177.4130  142.7080 C   0  0  0  0  0  0  0  0  0  0  0  0
  186.4440  178.5740  141.6970 C   0  0  0  0  0  0  0  0  0  0  0  0
  186.1190  177.7080  146.4990 C   0  0  0  0  0  3  0  0  0  0  0  0
  184.5260  179.3070  142.9760 C   0  0  0  0  0  3  0  0  0  0  0  0
  185.0800  178.7760  144.1350 C   0  0  0  0  0  0  0  0  0  0  0  0
  186.8350  177.5950  145.3070 C   0  0  0  0  0  3  0  0  0  0  0  0
  187.0570  178.0280  142.8620 C   0  0  0  0  0  0  0  0  0  0  0  0
  189.1180  176.8610  143.8710 C   0  0  0  0  0  2  0  0  0  0  0  0
  190.1910  177.8480  144.3020 C   0  0  0  0  0  2  0  0  0  0  0  0
  191.5030  177.1260  144.5450 C   0  0  0  0  0  2  0  0  0  0  0  0
  191.5590  176.5960  145.9680 C   0  0  0  0  0  2  0  0  0  0  0  0
  189.1640  176.2180  147.4810 O   0  0  0  0  0  0  0  0  0  0  0  0
  190.9780  177.5660  146.8840 N   0  0  0  0  0  2  0  0  0  0  0  0
  189.2570  178.3360  148.5550 C   0  0  0  0  0  1  0  0  0  0  0  0
  189.7810  177.3070  147.6200 C   0  0  0  0  0  0  0  0  0  0  0  0
  190.6310  177.2140  137.5360 N   0  0  0  0  0  2  0  0  0  0  0  0
  191.7460  176.3500  137.1760 C   0  0  0  0  0  2  0  0  0  0  0  0
  190.3150  175.7930  135.3360 O   0  0  0  0  0  1  0  0  0  0  0  0
  191.2760  175.2770  136.2080 C   0  0  2  0  0  3  0  0  0  0  0  0
  190.7260  174.0650  136.9540 C   0  0  0  0  0  2  0  0  0  0  0  0
  189.2060  174.0070  136.9070 C   0  0  0  0  0  2  0  0  0  0  0  0
  188.8060  172.7580  136.4330 O   0  0  0  0  0  1  0  0  0  0  0  0
  1 12  2  0  0  0  0
  2 15  1  0  0  0  0
  3 16  1  0  0  0  0
  3 17  1  0  0  0  0
  4 13  1  0  0  0  0
  5  8  1  0  0  0  0
  7  1  1  0  0  0  0
  8  4  2  0  0  0  0
  8  1  1  0  0  0  0
  9  5  2  0  0  0  0
  9 10  1  0  0  0  0
 10  7  2  0  0  0  0
 11  6  2  0  0  0  0
 12 18  1  0  0  0  0
 12 19  1  0  0  0  0
 13  2  2  0  0  0  0
 13 18  1  0  0  0  0
 14  6  1  0  0  0  0
 15 16  2  0  0  0  0
 16 11  1  0  0  0  0
 17 14  2  0  0  0  0
 18  3  2  0  0  0  0
 19 20  1  0  0  0  0
 20 21  1  0  0  0  0
 21 22  1  0  0  0  0
 22 24  1  0  0  0  0
 23 26  2  0  0  0  0
 24 26  1  0  0  0  0
 26 25  1  0  0  0  0
 27  9  1  0  0  0  0
 28 27  1  0  0  0  0
 30 29  1  6  0  0  0
 30 31  1  0  0  0  0
 30 28  1  0  0  0  0
 32 31  1  0  0  0  0
 33 32  1  0  0  0  0
M  END
>  <MODEL>
4

>  <REMARK>
 VINA RESULT:      -9.0      3.615      8.069
  Name = 
  10 active torsions:
  status: ('A' for Active; 'I' for Inactive)
    1  A    between atoms: C_1  and  C_19
    2  A    between atoms: C_1  and  C_26
    3  A    between atoms: C_2  and  C_12
    4  A    between atoms: C_5  and  N_24
    5  A    between atoms: C_5  and  C_30
    6  A    between atoms: N_6  and  C_25
    7  A    between atoms: C_12  and  C_30
    8  A    between atoms: C_14  and  C_19
    9  A    between atoms: C_14  and  C_25
   10  A    between atoms: C_18  and  N_24
                            x       y       z     vdW  Elec       q    Type
                         _______ _______ _______ _____ _____    ______ ____

>  <TORSDO>
F 10

$$$$
=
 OpenBabel10232409363D

 33 36  0  0  1  0  0  0  0  0999 V2000
  189.3170  177.2730  141.6460 C   0  0  0  0  0  0  0  0  0  0  0  0
  191.4280  177.1390  145.2500 C   0  0  0  0  0  3  0  0  0  0  0  0
  188.6510  177.5590  145.3770 C   0  0  0  0  0  0  0  0  0  0  0  0
  191.3460  177.0510  142.8950 N   0  0  0  0  0  0  0  0  0  0  0  0
  191.4520  176.9390  140.5240 C   0  0  0  0  0  3  0  0  0  0  0  0
  187.4810  177.8810  147.9320 C   0  0  0  0  0  3  0  0  0  0  0  0
  188.6860  177.3040  140.3900 C   0  0  0  0  0  3  0  0  0  0  0  0
  190.7130  177.0890  141.7010 C   0  0  0  0  0  0  0  0  0  0  0  0
  190.8170  176.9720  139.2800 C   0  0  0  0  0  0  0  0  0  0  0  0
  189.4300  177.1560  139.2170 C   0  0  0  0  0  3  0  0  0  0  0  0
  188.8520  177.6550  147.8180 C   0  0  0  0  0  3  0  0  0  0  0  0
  188.5850  177.4200  142.8460 C   0  0  0  0  0  0  0  0  0  0  0  0
  190.6860  177.1940  144.0700 C   0  0  0  0  0  0  0  0  0  0  0  0
  186.6910  177.9530  146.7860 C   0  0  0  0  0  3  0  0  0  0  0  0
  190.8110  177.2880  146.4840 C   0  0  0  0  0  3  0  0  0  0  0  0
  189.4390  177.4980  146.5590 C   0  0  0  0  0  0  0  0  0  0  0  0
  187.2720  177.7960  145.5270 C   0  0  0  0  0  3  0  0  0  0  0  0
  189.2760  177.3930  144.1000 C   0  0  0  0  0  0  0  0  0  0  0  0
  187.0900  177.5560  142.7490 C   0  0  0  0  0  2  0  0  0  0  0  0
  186.7240  178.9080  142.1570 C   0  0  0  0  0  2  0  0  0  0  0  0
  185.2360  179.1630  142.3090 C   0  0  0  0  0  2  0  0  0  0  0  0
  184.5430  179.0650  140.9600 C   0  0  0  0  0  2  0  0  0  0  0  0
  184.2400  177.7370  138.4470 O   0  0  0  0  0  0  0  0  0  0  0  0
  185.5300  179.0470  139.8920 N   0  0  0  0  0  2  0  0  0  0  0  0
  186.3540  178.4130  137.5970 C   0  0  0  0  0  1  0  0  0  0  0  0
  185.3090  178.3710  138.6530 C   0  0  0  0  0  0  0  0  0  0  0  0
  191.6000  176.8180  138.0930 N   0  0  0  0  0  2  0  0  0  0  0  0
  192.2020  175.5510  137.7040 C   0  0  0  0  0  2  0  0  0  0  0  0
  194.2360  176.4650  136.8260 O   0  0  0  0  0  1  0  0  0  0  0  0
  193.7150  175.6390  137.8240 C   0  0  2  0  0  3  0  0  0  0  0  0
  194.3530  174.2550  137.7600 C   0  0  0  0  0  2  0  0  0  0  0  0
  195.5910  174.1550  138.6380 C   0  0  0  0  0  2  0  0  0  0  0  0
  195.5730  175.1800  139.5830 O   0  0  0  0  0  1  0  0  0  0  0  0
  1  8  1  0  0  0  0
  1 12  2  0  0  0  0
  2 15  1  0  0  0  0
  3 17  1  0  0  0  0
  3 16  1  0  0  0  0
  4 13  1  0  0  0  0
  5  8  1  0  0  0  0
  7  1  1  0  0  0  0
  8  4  2  0  0  0  0
  9  5  2  0  0  0  0
 10  9  1  0  0  0  0
 10  7  2  0  0  0  0
 11  6  2  0  0  0  0
 12 18  1  0  0  0  0
 13 18  1  0  0  0  0
 13  2  2  0  0  0  0
 14  6  1  0  0  0  0
 15 16  2  0  0  0  0
 16 11  1  0  0  0  0
 17 14  2  0  0  0  0
 18  3  2  0  0  0  0
 19 12  1  0  0  0  0
 20 21  1  0  0  0  0
 20 19  1  0  0  0  0
 22 21  1  0  0  0  0
 23 26  2  0  0  0  0
 24 22  1  0  0  0  0
 25 26  1  0  0  0  0
 26 24  1  0  0  0  0
 27  9  1  0  0  0  0
 28 30  1  0  0  0  0
 28 27  1  0  0  0  0
 30 29  1  6  0  0  0
 31 30  1  0  0  0  0
 31 32  1  0  0  0  0
 32 33  1  0  0  0  0
M  END
>  <MODEL>
5

>  <REMARK>
 VINA RESULT:      -8.8      3.319      7.811
  Name = 
  10 active torsions:
  status: ('A' for Active; 'I' for Inactive)
    1  A    between atoms: C_1  and  C_19
    2  A    between atoms: C_1  and  C_26
    3  A    between atoms: C_2  and  C_12
    4  A    between atoms: C_5  and  N_24
    5  A    between atoms: C_5  and  C_30
    6  A    between atoms: N_6  and  C_25
    7  A    between atoms: C_12  and  C_30
    8  A    between atoms: C_14  and  C_19
    9  A    between atoms: C_14  and  C_25
   10  A    between atoms: C_18  and  N_24
                            x       y       z     vdW  Elec       q    Type
                         _______ _______ _______ _____ _____    ______ ____

>  <TORSDO>
F 10

$$$$
=
 OpenBabel10232409363D

 33 36  0  0  1  0  0  0  0  0999 V2000
  186.7280  178.2750  142.5100 C   0  0  0  0  0  0  0  0  0  0  0  0
  186.7170  177.5690  146.6280 C   0  0  0  0  0  3  0  0  0  0  0  0
  189.1850  177.4440  145.2880 C   0  0  0  0  0  0  0  0  0  0  0  0
  185.6010  178.0590  144.6100 N   0  0  0  0  0  0  0  0  0  0  0  0
  184.3140  178.5540  142.6750 C   0  0  0  0  0  3  0  0  0  0  0  0
  191.4850  176.8290  146.8140 C   0  0  0  0  0  3  0  0  0  0  0  0
  186.6400  178.5250  141.1290 C   0  0  0  0  0  3  0  0  0  0  0  0
  185.5470  178.2920  143.2800 C   0  0  0  0  0  0  0  0  0  0  0  0
  184.2360  178.8010  141.3020 C   0  0  0  0  0  0  0  0  0  0  0  0
  185.4050  178.7850  140.5300 C   0  0  0  0  0  3  0  0  0  0  0  0
  190.2410  176.9190  147.4370 C   0  0  0  0  0  3  0  0  0  0  0  0
  187.9650  178.0120  143.1380 C   0  0  0  0  0  0  0  0  0  0  0  0
  186.7640  177.7950  145.2530 C   0  0  0  0  0  0  0  0  0  0  0  0
  191.5920  177.0380  145.4400 C   0  0  0  0  0  3  0  0  0  0  0  0
  187.8720  177.2850  147.3420 C   0  0  0  0  0  3  0  0  0  0  0  0
  189.0980  177.2180  146.6890 C   0  0  0  0  0  0  0  0  0  0  0  0
  190.4540  177.3390  144.6900 C   0  0  0  0  0  3  0  0  0  0  0  0
  188.0000  177.7510  144.5450 C   0  0  0  0  0  0  0  0  0  0  0  0
  189.2090  178.0590  142.2940 C   0  0  0  0  0  2  0  0  0  0  0  0
  189.3990  176.7400  141.5630 C   0  0  0  0  0  2  0  0  0  0  0  0
  190.4890  176.8700  140.5160 C   0  0  0  0  0  2  0  0  0  0  0  0
  189.9820  177.6590  139.3200 C   0  0  0  0  0  2  0  0  0  0  0  0
  187.9320  178.8670  137.7370 O   0  0  0  0  0  0  0  0  0  0  0  0
  188.8780  176.9530  138.6880 N   0  0  0  0  0  2  0  0  0  0  0  0
  186.8030  176.8300  137.2640 C   0  0  0  0  0  1  0  0  0  0  0  0
  187.8910  177.6190  137.8990 C   0  0  0  0  0  0  0  0  0  0  0  0
  182.9610  179.0640  140.7120 N   0  0  0  0  0  2  0  0  0  0  0  0
  181.9360  178.0420  140.5590 C   0  0  0  0  0  2  0  0  0  0  0  0
  180.6240  180.0430  140.6940 O   0  0  0  0  0  1  0  0  0  0  0  0
  180.5610  178.6500  140.7810 C   0  0  2  0  0  3  0  0  0  0  0  0
  179.9820  178.2240  142.1260 C   0  0  0  0  0  2  0  0  0  0  0  0
  180.2390  179.2580  143.2130 C   0  0  0  0  0  2  0  0  0  0  0  0
  181.2050  178.7730  144.0930 O   0  0  0  0  0  1  0  0  0  0  0  0
  1 12  2  0  0  0  0
  1  8  1  0  0  0  0
  2 15  1  0  0  0  0
  3 16  1  0  0  0  0
  4 13  1  0  0  0  0
  5  8  1  0  0  0  0
  6 11  2  0  0  0  0
  7  1  1  0  0  0  0
  8  4  2  0  0  0  0
  9  5  2  0  0  0  0
 10  7  2  0  0  0  0
 10  9  1  0  0  0  0
 12 18  1  0  0  0  0
 13  2  2  0  0  0  0
 14  6  1  0  0  0  0
 16 15  2  0  0  0  0
 16 11  1  0  0  0  0
 17  3  1  0  0  0  0
 17 14  2  0  0  0  0
 18 13  1  0  0  0  0
 18  3  2  0  0  0  0
 19 12  1  0  0  0  0
 20 19  1  0  0  0  0
 21 20  1  0  0  0  0
 22 21  1  0  0  0  0
 23 26  2  0  0  0  0
 24 22  1  0  0  0  0
 25 26  1  0  0  0  0
 26 24  1  0  0  0  0
 27  9  1  0  0  0  0
 28 27  1  0  0  0  0
 28 30  1  0  0  0  0
 30 29  1  1  0  0  0
 30 31  1  0  0  0  0
 31 32  1  0  0  0  0
 32 33  1  0  0  0  0
M  END
>  <MODEL>
6

>  <REMARK>
 VINA RESULT:      -8.8      1.418      2.010
  Name = 
  10 active torsions:
  status: ('A' for Active; 'I' for Inactive)
    1  A    between atoms: C_1  and  C_19
    2  A    between atoms: C_1  and  C_26
    3  A    between atoms: C_2  and  C_12
    4  A    between atoms: C_5  and  N_24
    5  A    between atoms: C_5  and  C_30
    6  A    between atoms: N_6  and  C_25
    7  A    between atoms: C_12  and  C_30
    8  A    between atoms: C_14  and  C_19
    9  A    between atoms: C_14  and  C_25
   10  A    between atoms: C_18  and  N_24
                            x       y       z     vdW  Elec       q    Type
                         _______ _______ _______ _____ _____    ______ ____

>  <TORSDO>
F 10

$$$$
=
 OpenBabel10232409363D

 33 36  0  0  1  0  0  0  0  0999 V2000
  186.6190  178.2730  142.6130 C   0  0  0  0  0  0  0  0  0  0  0  0
  186.6930  177.5920  146.7350 C   0  0  0  0  0  3  0  0  0  0  0  0
  189.1310  177.4490  145.3440 C   0  0  0  0  0  0  0  0  0  0  0  0
  185.5360  178.0740  144.7380 N   0  0  0  0  0  0  0  0  0  0  0  0
  184.2100  178.5620  142.8280 C   0  0  0  0  0  3  0  0  0  0  0  0
  191.4620  176.8350  146.8250 C   0  0  0  0  0  3  0  0  0  0  0  0
  186.5030  178.5150  141.2330 C   0  0  0  0  0  3  0  0  0  0  0  0
  185.4540  178.2990  143.4080 C   0  0  0  0  0  0  0  0  0  0  0  0
  184.1040  178.8010  141.4550 C   0  0  0  0  0  0  0  0  0  0  0  0
  185.2560  178.7750  140.6590 C   0  0  0  0  0  3  0  0  0  0  0  0
  190.2310  176.9330  147.4730 C   0  0  0  0  0  3  0  0  0  0  0  0
  187.8680  178.0090  143.2170 C   0  0  0  0  0  0  0  0  0  0  0  0
  186.7120  177.8090  145.3580 C   0  0  0  0  0  0  0  0  0  0  0  0
  191.5390  177.0360  145.4470 C   0  0  0  0  0  3  0  0  0  0  0  0
  187.8620  177.3080  147.4260 C   0  0  0  0  0  3  0  0  0  0  0  0
  189.0730  177.2320  146.7480 C   0  0  0  0  0  0  0  0  0  0  0  0
  190.3870  177.3360  144.7200 C   0  0  0  0  0  3  0  0  0  0  0  0
  187.9320  177.7560  144.6250 C   0  0  0  0  0  0  0  0  0  0  0  0
  189.0950  178.0470  142.3460 C   0  0  0  0  0  2  0  0  0  0  0  0
  189.1950  176.7710  141.5250 C   0  0  0  0  0  2  0  0  0  0  0  0
  190.5590  176.6740  140.8680 C   0  0  0  0  0  2  0  0  0  0  0  0
  190.5130  177.2590  139.4660 C   0  0  0  0  0  2  0  0  0  0  0  0
  188.9700  179.2340  138.0910 O   0  0  0  0  0  0  0  0  0  0  0  0
  189.1990  177.0440  138.8780 N   0  0  0  0  0  2  0  0  0  0  0  0
  187.1570  177.7790  137.5980 C   0  0  0  0  0  1  0  0  0  0  0  0
  188.4860  178.0760  138.1940 C   0  0  0  0  0  0  0  0  0  0  0  0
  182.8170  179.0650  140.8910 N   0  0  0  0  0  2  0  0  0  0  0  0
  182.4650  178.7050  139.5250 C   0  0  0  0  0  2  0  0  0  0  0  0
  183.3520  180.8260  138.8470 O   0  0  0  0  0  1  0  0  0  0  0  0
  182.2650  179.9620  138.6940 C   0  0  2  0  0  3  0  0  0  0  0  0
  180.9650  180.6670  139.0680 C   0  0  0  0  0  2  0  0  0  0  0  0
  180.8190  182.0080  138.3630 C   0  0  0  0  0  2  0  0  0  0  0  0
  180.6590  181.7970  136.9950 O   0  0  0  0  0  1  0  0  0  0  0  0
  1 12  2  0  0  0  0
  1  8  1  0  0  0  0
  2 15  1  0  0  0  0
  3 16  1  0  0  0  0
  4 13  1  0  0  0  0
  5  8  1  0  0  0  0
  6 11  2  0  0  0  0
  7  1  1  0  0  0  0
  8  4  2  0  0  0  0
  9  5  2  0  0  0  0
 10  7  2  0  0  0  0
 10  9  1  0  0  0  0
 12 18  1  0  0  0  0
 13  2  2  0  0  0  0
 14  6  1  0  0  0  0
 16 15  2  0  0  0  0
 16 11  1  0  0  0  0
 17  3  1  0  0  0  0
 17 14  2  0  0  0  0
 18  3  2  0  0  0  0
 18 13  1  0  0  0  0
 19 12  1  0  0  0  0
 20 19  1  0  0  0  0
 21 20  1  0  0  0  0
 22 21  1  0  0  0  0
 23 26  2  0  0  0  0
 24 22  1  0  0  0  0
 25 26  1  0  0  0  0
 26 24  1  0  0  0  0
 27  9  1  0  0  0  0
 28 27  1  0  0  0  0
 30 29  1  1  0  0  0
 30 31  1  0  0  0  0
 30 28  1  0  0  0  0
 32 31  1  0  0  0  0
 33 32  1  0  0  0  0
M  END
>  <MODEL>
7

>  <REMARK>
 VINA RESULT:      -8.7      1.871      2.322
  Name = 
  10 active torsions:
  status: ('A' for Active; 'I' for Inactive)
    1  A    between atoms: C_1  and  C_19
    2  A    between atoms: C_1  and  C_26
    3  A    between atoms: C_2  and  C_12
    4  A    between atoms: C_5  and  N_24
    5  A    between atoms: C_5  and  C_30
    6  A    between atoms: N_6  and  C_25
    7  A    between atoms: C_12  and  C_30
    8  A    between atoms: C_14  and  C_19
    9  A    between atoms: C_14  and  C_25
   10  A    between atoms: C_18  and  N_24
                            x       y       z     vdW  Elec       q    Type
                         _______ _______ _______ _____ _____    ______ ____

>  <TORSDO>
F 10

$$$$
=
 OpenBabel10232409363D

 33 36  0  0  1  0  0  0  0  0999 V2000
  189.2960  177.2550  141.6310 C   0  0  0  0  0  0  0  0  0  0  0  0
  191.5000  176.9640  145.1700 C   0  0  0  0  0  3  0  0  0  0  0  0
  188.7380  177.4460  145.3860 C   0  0  0  0  0  0  0  0  0  0  0  0
  191.3520  176.9480  142.8160 N   0  0  0  0  0  0  0  0  0  0  0  0
  191.3920  176.9040  140.4410 C   0  0  0  0  0  3  0  0  0  0  0  0
  187.6460  177.7200  147.9810 C   0  0  0  0  0  3  0  0  0  0  0  0
  188.6330  177.3390  140.3940 C   0  0  0  0  0  3  0  0  0  0  0  0
  190.6890  177.0360  141.6420 C   0  0  0  0  0  0  0  0  0  0  0  0
  190.7240  176.9880  139.2170 C   0  0  0  0  0  0  0  0  0  0  0  0
  189.3410  177.2080  139.1970 C   0  0  0  0  0  3  0  0  0  0  0  0
  189.0070  177.4650  147.8230 C   0  0  0  0  0  3  0  0  0  0  0  0
  188.6010  177.3840  142.8540 C   0  0  0  0  0  0  0  0  0  0  0  0
  190.7280  177.0710  144.0130 C   0  0  0  0  0  0  0  0  0  0  0  0
  186.8270  177.8450  146.8590 C   0  0  0  0  0  3  0  0  0  0  0  0
  190.9200  177.0900  146.4240 C   0  0  0  0  0  3  0  0  0  0  0  0
  189.5560  177.3310  146.5430 C   0  0  0  0  0  0  0  0  0  0  0  0
  187.3710  177.7110  145.5810 C   0  0  0  0  0  3  0  0  0  0  0  0
  189.3240  177.3040  144.0880 C   0  0  0  0  0  0  0  0  0  0  0  0
  187.1080  177.5590  142.8030 C   0  0  0  0  0  2  0  0  0  0  0  0
  186.7540  178.8270  142.0420 C   0  0  0  0  0  2  0  0  0  0  0  0
  185.2730  179.1260  142.1770 C   0  0  0  0  0  2  0  0  0  0  0  0
  184.5950  179.0670  140.8180 C   0  0  0  0  0  2  0  0  0  0  0  0
  184.1320  178.0020  138.2060 O   0  0  0  0  0  0  0  0  0  0  0  0
  185.5940  178.9460  139.7670 N   0  0  0  0  0  2  0  0  0  0  0  0
  186.3570  178.3420  137.4440 C   0  0  0  0  0  1  0  0  0  0  0  0
  185.2920  178.4140  138.4770 C   0  0  0  0  0  0  0  0  0  0  0  0
  191.4710  176.8510  138.0050 N   0  0  0  0  0  2  0  0  0  0  0  0
  192.8930  176.5440  137.9850 C   0  0  0  0  0  2  0  0  0  0  0  0
  192.5470  175.8920  135.7050 O   0  0  0  0  0  1  0  0  0  0  0  0
  193.1880  175.5300  136.8920 C   0  0  2  0  0  3  0  0  0  0  0  0
  192.7740  174.1250  137.3170 C   0  0  0  0  0  2  0  0  0  0  0  0
  191.5650  173.6250  136.5390 C   0  0  0  0  0  2  0  0  0  0  0  0
  190.4320  173.6950  137.3480 O   0  0  0  0  0  1  0  0  0  0  0  0
  1  8  1  0  0  0  0
  1 12  2  0  0  0  0
  2 15  1  0  0  0  0
  3 17  1  0  0  0  0
  3 16  1  0  0  0  0
  4 13  1  0  0  0  0
  5  8  1  0  0  0  0
  7  1  1  0  0  0  0
  8  4  2  0  0  0  0
  9  5  2  0  0  0  0
 10  9  1  0  0  0  0
 10  7  2  0  0  0  0
 11  6  2  0  0  0  0
 12 18  1  0  0  0  0
 13 18  1  0  0  0  0
 13  2  2  0  0  0  0
 14  6  1  0  0  0  0
 15 16  2  0  0  0  0
 16 11  1  0  0  0  0
 17 14  2  0  0  0  0
 18  3  2  0  0  0  0
 19 12  1  0  0  0  0
 20 21  1  0  0  0  0
 20 19  1  0  0  0  0
 22 21  1  0  0  0  0
 23 26  2  0  0  0  0
 24 22  1  0  0  0  0
 25 26  1  0  0  0  0
 26 24  1  0  0  0  0
 27  9  1  0  0  0  0
 28 27  1  0  0  0  0
 30 29  1  6  0  0  0
 30 31  1  0  0  0  0
 30 28  1  0  0  0  0
 32 31  1  0  0  0  0
 32 33  1  0  0  0  0
M  END
>  <MODEL>
8

>  <REMARK>
 VINA RESULT:      -8.7      2.959      7.302
  Name = 
  10 active torsions:
  status: ('A' for Active; 'I' for Inactive)
    1  A    between atoms: C_1  and  C_19
    2  A    between atoms: C_1  and  C_26
    3  A    between atoms: C_2  and  C_12
    4  A    between atoms: C_5  and  N_24
    5  A    between atoms: C_5  and  C_30
    6  A    between atoms: N_6  and  C_25
    7  A    between atoms: C_12  and  C_30
    8  A    between atoms: C_14  and  C_19
    9  A    between atoms: C_14  and  C_25
   10  A    between atoms: C_18  and  N_24
                            x       y       z     vdW  Elec       q    Type
                         _______ _______ _______ _____ _____    ______ ____

>  <TORSDO>
F 10

$$$$
=
 OpenBabel10232409363D

 33 36  0  0  1  0  0  0  0  0999 V2000
  189.6490  177.2040  141.5950 C   0  0  0  0  0  0  0  0  0  0  0  0
  191.5780  177.0370  145.2980 C   0  0  0  0  0  3  0  0  0  0  0  0
  188.7940  177.4270  145.2920 C   0  0  0  0  0  0  0  0  0  0  0  0
  191.6150  176.9840  142.9410 N   0  0  0  0  0  0  0  0  0  0  0  0
  191.8420  176.9080  140.5780 C   0  0  0  0  0  3  0  0  0  0  0  0
  187.4940  177.6990  147.7900 C   0  0  0  0  0  3  0  0  0  0  0  0
  189.0820  177.2470  140.3100 C   0  0  0  0  0  3  0  0  0  0  0  0
  191.0430  177.0330  141.7180 C   0  0  0  0  0  0  0  0  0  0  0  0
  191.2700  176.9530  139.3040 C   0  0  0  0  0  0  0  0  0  0  0  0
  189.8860  177.1240  139.1730 C   0  0  0  0  0  3  0  0  0  0  0  0
  188.8710  177.4880  147.7410 C   0  0  0  0  0  3  0  0  0  0  0  0
  188.8570  177.3250  142.7590 C   0  0  0  0  0  0  0  0  0  0  0  0
  190.8960  177.1020  144.0840 C   0  0  0  0  0  0  0  0  0  0  0  0
  186.7620  177.7800  146.6060 C   0  0  0  0  0  3  0  0  0  0  0  0
  190.8990  177.1610  146.5020 C   0  0  0  0  0  3  0  0  0  0  0  0
  189.5230  177.3560  146.5110 C   0  0  0  0  0  0  0  0  0  0  0  0
  187.4070  177.6480  145.3760 C   0  0  0  0  0  3  0  0  0  0  0  0
  189.4840  177.2870  144.0460 C   0  0  0  0  0  0  0  0  0  0  0  0
  187.3670  177.4480  142.5890 C   0  0  0  0  0  2  0  0  0  0  0  0
  187.0070  178.8470  142.1130 C   0  0  0  0  0  2  0  0  0  0  0  0
  185.9090  178.7810  141.0680 C   0  0  0  0  0  2  0  0  0  0  0  0
  184.5750  179.1760  141.6780 C   0  0  0  0  0  2  0  0  0  0  0  0
  182.3290  178.8710  143.4200 O   0  0  0  0  0  0  0  0  0  0  0  0
  184.6400  179.0770  143.1280 N   0  0  0  0  0  2  0  0  0  0  0  0
  183.6190  178.7960  145.4140 C   0  0  0  0  0  1  0  0  0  0  0  0
  183.4750  178.9140  143.9400 C   0  0  0  0  0  0  0  0  0  0  0  0
  192.1130  176.8250  138.1560 N   0  0  0  0  0  2  0  0  0  0  0  0
  192.5630  175.5380  137.6470 C   0  0  0  0  0  2  0  0  0  0  0  0
  194.6020  176.1030  136.5210 O   0  0  0  0  0  1  0  0  0  0  0  0
  194.0820  175.4800  137.6580 C   0  0  2  0  0  3  0  0  0  0  0  0
  194.5770  174.0400  137.7520 C   0  0  0  0  0  2  0  0  0  0  0  0
  195.6250  173.8660  138.8420 C   0  0  0  0  0  2  0  0  0  0  0  0
  195.7460  175.0530  139.5620 O   0  0  0  0  0  1  0  0  0  0  0  0
  1  8  1  0  0  0  0
  1 12  2  0  0  0  0
  2 15  1  0  0  0  0
  3 17  1  0  0  0  0
  3 16  1  0  0  0  0
  4 13  1  0  0  0  0
  5  8  1  0  0  0  0
  7  1  1  0  0  0  0
  8  4  2  0  0  0  0
  9  5  2  0  0  0  0
 10  9  1  0  0  0  0
 10  7  2  0  0  0  0
 11  6  2  0  0  0  0
 12 18  1  0  0  0  0
 13  2  2  0  0  0  0
 14  6  1  0  0  0  0
 15 16  2  0  0  0  0
 16 11  1  0  0  0  0
 17 14  2  0  0  0  0
 18 13  1  0  0  0  0
 18  3  2  0  0  0  0
 19 12  1  0  0  0  0
 20 19  1  0  0  0  0
 21 22  1  0  0  0  0
 21 20  1  0  0  0  0
 22 24  1  0  0  0  0
 23 26  2  0  0  0  0
 24 26  1  0  0  0  0
 26 25  1  0  0  0  0
 27  9  1  0  0  0  0
 28 30  1  0  0  0  0
 28 27  1  0  0  0  0
 30 29  1  6  0  0  0
 30 31  1  0  0  0  0
 31 32  1  0  0  0  0
 32 33  1  0  0  0  0
M  END
>  <MODEL>
9

>  <REMARK>
 VINA RESULT:      -8.6      3.369      8.407
  Name = 
  10 active torsions:
  status: ('A' for Active; 'I' for Inactive)
    1  A    between atoms: C_1  and  C_19
    2  A    between atoms: C_1  and  C_26
    3  A    between atoms: C_2  and  C_12
    4  A    between atoms: C_5  and  N_24
    5  A    between atoms: C_5  and  C_30
    6  A    between atoms: N_6  and  C_25
    7  A    between atoms: C_12  and  C_30
    8  A    between atoms: C_14  and  C_19
    9  A    between atoms: C_14  and  C_25
   10  A    between atoms: C_18  and  N_24
                            x       y       z     vdW  Elec       q    Type
                         _______ _______ _______ _____ _____    ______ ____

>  <TORSDO>
F 10

$$$$
