=
 OpenBabel10232409053D

 28 31  0  0  1  0  0  0  0  0999 V2000
  188.9730  177.7420  138.6350 C   0  0  0  0  0  0  0  0  0  0  0  0
  190.9210  177.2630  139.9790 C   0  0  0  0  0  3  0  0  0  0  0  0
  188.3920  177.9630  137.3940 O   0  0  0  0  0  1  0  0  0  0  0  0
  188.7580  177.5610  141.0540 C   0  0  0  0  0  0  0  0  0  0  0  0
  190.1530  177.3170  141.1510 C   0  0  0  0  0  0  0  0  0  0  0  0
  190.3370  177.4720  138.7290 C   0  0  0  0  0  3  0  0  0  0  0  0
  188.1890  177.7800  139.7890 C   0  0  0  0  0  3  0  0  0  0  0  0
  188.1490  176.8180  144.5660 C   0  0  0  0  0  3  0  0  0  0  0  0
  185.7920  178.4190  143.3530 C   0  0  0  0  0  0  0  0  0  0  0  0
  184.8750  178.2490  145.6820 C   0  0  2  0  0  3  0  0  0  0  0  0
  183.3380  178.7460  143.7990 C   0  0  0  0  0  2  0  0  0  0  0  0
  185.9910  178.1050  144.6650 C   0  0  0  0  0  0  0  0  0  0  0  0
  183.7130  179.1180  145.2170 C   0  0  0  0  0  2  0  0  0  0  0  0
  185.3610  178.7520  146.8770 F   0  0  0  0  0  0  0  0  0  0  0  0
  186.8350  178.3660  142.3040 C   0  0  0  0  0  3  0  0  0  0  0  0
  187.2610  177.5700  145.2120 C   0  0  0  0  0  3  0  0  0  0  0  0
  187.8540  177.5060  142.2240 C   0  0  0  0  0  0  0  0  0  0  0  0
  187.9580  176.3520  143.1660 C   0  0  0  0  0  2  0  0  0  0  0  0
  184.5160  179.0750  142.8980 C   0  0  0  0  0  2  0  0  0  0  0  0
  191.4450  176.8130  145.1850 N   0  0  0  0  0  0  0  0  0  0  0  0
  191.1420  175.9590  142.9230 C   0  0  0  0  0  3  0  0  0  0  0  0
  190.8600  177.1780  142.4400 C   0  0  0  0  0  0  0  0  0  0  0  0
  191.8490  175.7790  144.2350 C   0  0  0  0  0  2  0  0  0  0  0  0
  190.8780  179.0660  145.5150 O   0  0  0  0  0  0  0  0  0  0  0  0
  191.1490  178.1360  144.7090 C   0  0  0  0  0  0  0  0  0  0  0  0
  191.1870  178.4160  143.2380 C   0  0  0  0  0  2  0  0  0  0  0  0
  192.3760  175.5060  146.8810 O   0  0  0  0  0  1  0  0  0  0  0  0
  191.4250  176.4900  146.6040 C   0  0  0  0  0  2  0  0  0  0  0  0
  1  6  2  0  0  0  0
  1  7  1  0  0  0  0
  2  5  2  0  0  0  0
  3  1  1  0  0  0  0
  4  5  1  0  0  0  0
  4 17  1  0  0  0  0
  5 22  1  0  0  0  0
  6  2  1  0  0  0  0
  7  4  2  0  0  0  0
  8 16  2  0  0  0  0
  9 12  2  0  0  0  0
 10 14  1  1  0  0  0
 11 13  1  0  0  0  0
 12 16  1  0  0  0  0
 12 10  1  0  0  0  0
 13 10  1  0  0  0  0
 15  9  1  0  0  0  0
 17 15  2  0  0  0  0
 17 18  1  0  0  0  0
 18  8  1  0  0  0  0
 19  9  1  0  0  0  0
 19 11  1  0  0  0  0
 20 28  1  0  0  0  0
 21 23  1  0  0  0  0
 22 21  2  0  0  0  0
 22 26  1  0  0  0  0
 23 20  1  0  0  0  0
 25 20  1  0  0  0  0
 25 24  2  0  0  0  0
 26 25  1  0  0  0  0
 28 27  1  0  0  0  0
M  END
>  <MODEL>
1

>  <REMARK>
 VINA RESULT:      -9.8      0.000      0.000
  Name = 
  3 active torsions:
  status: ('A' for Active; 'I' for Inactive)
    1  A    between atoms: N_8  and  C_12
    2  A    between atoms: C_15  and  C_23
    3  A    between atoms: C_17  and  C_21
                            x       y       z     vdW  Elec       q    Type
                         _______ _______ _______ _____ _____    ______ ____

>  <TORSDO>
F 3

$$$$
=
 OpenBabel10232409053D

 28 31  0  0  1  0  0  0  0  0999 V2000
  188.7680  176.9580  138.0810 C   0  0  0  0  0  0  0  0  0  0  0  0
  190.6160  176.3940  139.5290 C   0  0  0  0  0  3  0  0  0  0  0  0
  188.1880  176.9710  136.8200 O   0  0  0  0  0  1  0  0  0  0  0  0
  188.6510  177.4940  140.4530 C   0  0  0  0  0  0  0  0  0  0  0  0
  189.9500  176.9500  140.6310 C   0  0  0  0  0  0  0  0  0  0  0  0
  190.0300  176.3950  138.2630 C   0  0  0  0  0  3  0  0  0  0  0  0
  188.0810  177.4970  139.1700 C   0  0  0  0  0  3  0  0  0  0  0  0
  185.7050  179.2120  141.7300 C   0  0  0  0  0  3  0  0  0  0  0  0
  187.1660  177.6920  143.9990 C   0  0  0  0  0  0  0  0  0  0  0  0
  185.2890  178.5940  145.3990 C   0  0  2  0  0  3  0  0  0  0  0  0
  187.3790  177.8390  146.5010 C   0  0  0  0  0  2  0  0  0  0  0  0
  185.9510  178.3090  144.0640 C   0  0  0  0  0  0  0  0  0  0  0  0
  185.8670  177.8030  146.5660 C   0  0  0  0  0  2  0  0  0  0  0  0
  183.9260  178.3610  145.3310 F   0  0  0  0  0  0  0  0  0  0  0  0
  187.8590  177.3220  142.7450 C   0  0  0  0  0  3  0  0  0  0  0  0
  185.1930  178.7870  142.8830 C   0  0  0  0  0  3  0  0  0  0  0  0
  187.8280  177.9810  141.5830 C   0  0  0  0  0  0  0  0  0  0  0  0
  187.1670  179.3160  141.4760 C   0  0  0  0  0  2  0  0  0  0  0  0
  187.8130  177.1240  145.2330 C   0  0  0  0  0  2  0  0  0  0  0  0
  191.3030  177.2230  144.6680 N   0  0  0  0  0  0  0  0  0  0  0  0
  190.7170  175.9080  142.7020 C   0  0  0  0  0  3  0  0  0  0  0  0
  190.6740  176.9950  141.9180 C   0  0  0  0  0  0  0  0  0  0  0  0
  191.4340  175.9190  144.0210 C   0  0  0  0  0  2  0  0  0  0  0  0
  191.2390  179.5530  144.3990 O   0  0  0  0  0  0  0  0  0  0  0  0
  191.2690  178.4120  143.8640 C   0  0  0  0  0  0  0  0  0  0  0  0
  191.2930  178.2940  142.3700 C   0  0  0  0  0  2  0  0  0  0  0  0
  192.1950  176.3640  146.6470 O   0  0  0  0  0  1  0  0  0  0  0  0
  191.2850  177.2830  146.1220 C   0  0  0  0  0  2  0  0  0  0  0  0
  1  6  2  0  0  0  0
  1  7  1  0  0  0  0
  2  5  2  0  0  0  0
  3  1  1  0  0  0  0
  4  5  1  0  0  0  0
  4 17  1  0  0  0  0
  5 22  1  0  0  0  0
  6  2  1  0  0  0  0
  7  4  2  0  0  0  0
  8 16  2  0  0  0  0
  9 12  2  0  0  0  0
  9 19  1  0  0  0  0
 10 14  1  6  0  0  0
 10 13  1  0  0  0  0
 11 13  1  0  0  0  0
 12 10  1  0  0  0  0
 15  9  1  0  0  0  0
 16 12  1  0  0  0  0
 17 15  2  0  0  0  0
 18 17  1  0  0  0  0
 18  8  1  0  0  0  0
 19 11  1  0  0  0  0
 20 28  1  0  0  0  0
 21 23  1  0  0  0  0
 22 26  1  0  0  0  0
 22 21  2  0  0  0  0
 23 20  1  0  0  0  0
 25 24  2  0  0  0  0
 25 20  1  0  0  0  0
 26 25  1  0  0  0  0
 28 27  1  0  0  0  0
M  END
>  <MODEL>
2

>  <REMARK>
 VINA RESULT:      -9.6      1.030      2.065
  Name = 
  3 active torsions:
  status: ('A' for Active; 'I' for Inactive)
    1  A    between atoms: N_8  and  C_12
    2  A    between atoms: C_15  and  C_23
    3  A    between atoms: C_17  and  C_21
                            x       y       z     vdW  Elec       q    Type
                         _______ _______ _______ _____ _____    ______ ____

>  <TORSDO>
F 3

$$$$
=
 OpenBabel10232409053D

 28 31  0  0  1  0  0  0  0  0999 V2000
  192.4080  177.0280  139.3350 C   0  0  0  0  0  0  0  0  0  0  0  0
  190.0160  177.3400  139.2390 C   0  0  0  0  0  3  0  0  0  0  0  0
  193.6230  176.8340  138.6920 O   0  0  0  0  0  1  0  0  0  0  0  0
  191.1420  177.2980  141.3970 C   0  0  0  0  0  0  0  0  0  0  0  0
  189.9460  177.3990  140.6390 C   0  0  0  0  0  0  0  0  0  0  0  0
  191.2370  177.1580  138.5910 C   0  0  0  0  0  3  0  0  0  0  0  0
  192.3610  177.1040  140.7280 C   0  0  0  0  0  3  0  0  0  0  0  0
  190.1340  179.0940  144.4000 C   0  0  0  0  0  3  0  0  0  0  0  0
  191.4890  176.4050  145.1250 C   0  0  0  0  0  0  0  0  0  0  0  0
  190.9940  177.1380  147.4740 C   0  0  2  0  0  3  0  0  0  0  0  0
  192.7320  175.4130  147.0750 C   0  0  0  0  0  2  0  0  0  0  0  0
  190.8460  177.2630  145.9690 C   0  0  0  0  0  0  0  0  0  0  0  0
  191.5510  175.7980  147.9390 C   0  0  0  0  0  2  0  0  0  0  0  0
  189.7840  177.3650  148.1070 F   0  0  0  0  0  0  0  0  0  0  0  0
  191.3590  176.4140  143.6520 C   0  0  0  0  0  3  0  0  0  0  0  0
  189.9970  178.3930  145.5230 C   0  0  0  0  0  3  0  0  0  0  0  0
  191.1740  177.4790  142.8660 C   0  0  0  0  0  0  0  0  0  0  0  0
  191.2330  178.8630  143.4240 C   0  0  0  0  0  2  0  0  0  0  0  0
  192.2310  175.2080  145.6560 C   0  0  0  0  0  2  0  0  0  0  0  0
  186.4290  178.2480  142.9000 N   0  0  0  0  0  0  0  0  0  0  0  0
  187.7650  178.4720  140.8750 C   0  0  0  0  0  3  0  0  0  0  0  0
  188.6070  177.4990  141.2540 C   0  0  0  0  0  0  0  0  0  0  0  0
  186.4010  178.6120  141.4850 C   0  0  0  0  0  2  0  0  0  0  0  0
  187.2910  176.8100  144.5420 O   0  0  0  0  0  0  0  0  0  0  0  0
  187.3050  177.2000  143.3440 C   0  0  0  0  0  0  0  0  0  0  0  0
  188.2320  176.5480  142.3630 C   0  0  0  0  0  2  0  0  0  0  0  0
  184.2170  178.4130  143.6280 O   0  0  0  0  0  1  0  0  0  0  0  0
  185.5080  178.9100  143.8120 C   0  0  0  0  0  2  0  0  0  0  0  0
  1  7  1  0  0  0  0
  2  5  2  0  0  0  0
  3  1  1  0  0  0  0
  4 17  1  0  0  0  0
  5 22  1  0  0  0  0
  5  4  1  0  0  0  0
  6  2  1  0  0  0  0
  6  1  2  0  0  0  0
  7  4  2  0  0  0  0
  8 16  2  0  0  0  0
  9 19  1  0  0  0  0
  9 12  2  0  0  0  0
 10 13  1  0  0  0  0
 10 14  1  1  0  0  0
 11 13  1  0  0  0  0
 12 10  1  0  0  0  0
 15  9  1  0  0  0  0
 16 12  1  0  0  0  0
 17 18  1  0  0  0  0
 17 15  2  0  0  0  0
 18  8  1  0  0  0  0
 19 11  1  0  0  0  0
 20 25  1  0  0  0  0
 20 28  1  0  0  0  0
 21 22  2  0  0  0  0
 21 23  1  0  0  0  0
 22 26  1  0  0  0  0
 23 20  1  0  0  0  0
 25 24  2  0  0  0  0
 26 25  1  0  0  0  0
 27 28  1  0  0  0  0
M  END
>  <MODEL>
3

>  <REMARK>
 VINA RESULT:      -8.5      2.561      5.460
  Name = 
  3 active torsions:
  status: ('A' for Active; 'I' for Inactive)
    1  A    between atoms: N_8  and  C_12
    2  A    between atoms: C_15  and  C_23
    3  A    between atoms: C_17  and  C_21
                            x       y       z     vdW  Elec       q    Type
                         _______ _______ _______ _____ _____    ______ ____

>  <TORSDO>
F 3

$$$$
=
 OpenBabel10232409053D

 28 31  0  0  1  0  0  0  0  0999 V2000
  183.1920  178.8060  142.6300 C   0  0  0  0  0  0  0  0  0  0  0  0
  184.7720  178.9070  140.8070 C   0  0  0  0  0  3  0  0  0  0  0  0
  181.8990  178.9550  143.1110 O   0  0  0  0  0  1  0  0  0  0  0  0
  185.5290  178.2470  143.0250 C   0  0  0  0  0  0  0  0  0  0  0  0
  185.8160  178.5230  141.6620 C   0  0  0  0  0  0  0  0  0  0  0  0
  183.4690  179.0460  141.2860 C   0  0  0  0  0  3  0  0  0  0  0  0
  184.2140  178.4030  143.4910 C   0  0  0  0  0  3  0  0  0  0  0  0
  188.5610  176.3380  143.6760 C   0  0  0  0  0  3  0  0  0  0  0  0
  187.7280  177.9710  146.1720 C   0  0  0  0  0  0  0  0  0  0  0  0
  189.7990  176.9500  147.1550 C   0  0  2  0  0  3  0  0  0  0  0  0
  188.0510  177.8570  148.6640 C   0  0  0  0  0  2  0  0  0  0  0  0
  188.8840  177.2710  145.9880 C   0  0  0  0  0  0  0  0  0  0  0  0
  189.5400  177.7870  148.4020 C   0  0  0  0  0  2  0  0  0  0  0  0
  191.1270  177.0880  146.7910 F   0  0  0  0  0  0  0  0  0  0  0  0
  186.8070  178.3800  145.0880 C   0  0  0  0  0  3  0  0  0  0  0  0
  189.3360  176.7340  144.6820 C   0  0  0  0  0  3  0  0  0  0  0  0
  186.5430  177.7130  143.9610 C   0  0  0  0  0  0  0  0  0  0  0  0
  187.0750  176.3340  143.7440 C   0  0  0  0  0  2  0  0  0  0  0  0
  187.4020  178.5910  147.5040 C   0  0  0  0  0  2  0  0  0  0  0  0
  189.8320  177.7260  140.4650 N   0  0  0  0  0  0  0  0  0  0  0  0
  187.4400  177.7620  140.0050 C   0  0  0  0  0  3  0  0  0  0  0  0
  187.1820  178.4890  141.1020 C   0  0  0  0  0  0  0  0  0  0  0  0
  188.8180  177.6950  139.4130 C   0  0  0  0  0  2  0  0  0  0  0  0
  190.4910  178.6170  142.5330 O   0  0  0  0  0  0  0  0  0  0  0  0
  189.6010  178.5060  141.6490 C   0  0  0  0  0  0  0  0  0  0  0  0
  188.2910  179.2140  141.8220 C   0  0  0  0  0  2  0  0  0  0  0  0
  190.9030  176.0000  139.3150 O   0  0  0  0  0  1  0  0  0  0  0  0
  191.0870  177.0220  140.2470 C   0  0  0  0  0  2  0  0  0  0  0  0
  1  3  1  0  0  0  0
  1  7  1  0  0  0  0
  2  6  1  0  0  0  0
  2  5  2  0  0  0  0
  4  7  2  0  0  0  0
  4 17  1  0  0  0  0
  5  4  1  0  0  0  0
  6  1  2  0  0  0  0
  8 18  1  0  0  0  0
  8 16  2  0  0  0  0
  9 19  1  0  0  0  0
 10 14  1  6  0  0  0
 10 13  1  0  0  0  0
 12  9  2  0  0  0  0
 12 10  1  0  0  0  0
 13 11  1  0  0  0  0
 15  9  1  0  0  0  0
 16 12  1  0  0  0  0
 17 15  2  0  0  0  0
 18 17  1  0  0  0  0
 19 11  1  0  0  0  0
 20 25  1  0  0  0  0
 21 22  2  0  0  0  0
 22  5  1  0  0  0  0
 22 26  1  0  0  0  0
 23 21  1  0  0  0  0
 23 20  1  0  0  0  0
 25 26  1  0  0  0  0
 25 24  2  0  0  0  0
 27 28  1  0  0  0  0
 28 20  1  0  0  0  0
M  END
>  <MODEL>
4

>  <REMARK>
 VINA RESULT:      -8.5      2.805      5.193
  Name = 
  3 active torsions:
  status: ('A' for Active; 'I' for Inactive)
    1  A    between atoms: N_8  and  C_12
    2  A    between atoms: C_15  and  C_23
    3  A    between atoms: C_17  and  C_21
                            x       y       z     vdW  Elec       q    Type
                         _______ _______ _______ _____ _____    ______ ____

>  <TORSDO>
F 3

$$$$
=
 OpenBabel10232409053D

 28 31  0  0  1  0  0  0  0  0999 V2000
  188.5030  177.9210  138.7200 C   0  0  0  0  0  0  0  0  0  0  0  0
  186.2080  178.2920  138.0690 C   0  0  0  0  0  3  0  0  0  0  0  0
  189.8240  177.6670  138.3790 O   0  0  0  0  0  1  0  0  0  0  0  0
  186.8130  178.3200  140.4270 C   0  0  0  0  0  0  0  0  0  0  0  0
  185.8240  178.4170  139.4120 C   0  0  0  0  0  0  0  0  0  0  0  0
  187.5370  178.0480  137.7240 C   0  0  0  0  0  3  0  0  0  0  0  0
  188.1440  178.0630  140.0610 C   0  0  0  0  0  3  0  0  0  0  0  0
  184.5890  179.5110  143.0520 C   0  0  0  0  0  3  0  0  0  0  0  0
  186.9580  177.9200  144.2520 C   0  0  0  0  0  0  0  0  0  0  0  0
  185.8000  178.4210  146.4220 C   0  0  2  0  0  3  0  0  0  0  0  0
  188.2010  177.7950  146.4360 C   0  0  0  0  0  2  0  0  0  0  0  0
  185.8520  178.3760  144.9060 C   0  0  0  0  0  0  0  0  0  0  0  0
  186.8640  177.5720  147.1090 C   0  0  0  0  0  2  0  0  0  0  0  0
  184.5530  178.0360  146.8830 F   0  0  0  0  0  0  0  0  0  0  0  0
  187.0760  177.7850  142.7840 C   0  0  0  0  0  3  0  0  0  0  0  0
  184.6380  178.8960  144.2310 C   0  0  0  0  0  3  0  0  0  0  0  0
  186.5180  178.5680  141.8560 C   0  0  0  0  0  0  0  0  0  0  0  0
  185.7970  179.8180  142.2400 C   0  0  0  0  0  2  0  0  0  0  0  0
  188.0990  177.2910  145.0070 C   0  0  0  0  0  2  0  0  0  0  0  0
  181.5610  178.4790  139.5490 N   0  0  0  0  0  0  0  0  0  0  0  0
  183.7040  177.5930  140.2980 C   0  0  0  0  0  3  0  0  0  0  0  0
  184.3850  178.5820  139.7020 C   0  0  0  0  0  0  0  0  0  0  0  0
  182.2380  177.7200  140.5980 C   0  0  0  0  0  2  0  0  0  0  0  0
  181.6650  180.2790  138.0480 O   0  0  0  0  0  0  0  0  0  0  0  0
  182.2510  179.5560  138.8960 C   0  0  0  0  0  0  0  0  0  0  0  0
  183.6810  179.8360  139.2480 C   0  0  0  0  0  2  0  0  0  0  0  0
  179.9820  176.7850  139.2560 O   0  0  0  0  0  1  0  0  0  0  0  0
  180.1720  178.1680  139.2460 C   0  0  0  0  0  2  0  0  0  0  0  0
  1  7  1  0  0  0  0
  2  5  2  0  0  0  0
  3  1  1  0  0  0  0
  4 17  1  0  0  0  0
  5 22  1  0  0  0  0
  5  4  1  0  0  0  0
  6  2  1  0  0  0  0
  6  1  2  0  0  0  0
  7  4  2  0  0  0  0
  8 16  2  0  0  0  0
  9 12  2  0  0  0  0
  9 19  1  0  0  0  0
 10 14  1  1  0  0  0
 10 13  1  0  0  0  0
 11 13  1  0  0  0  0
 12 10  1  0  0  0  0
 15  9  1  0  0  0  0
 16 12  1  0  0  0  0
 17 18  1  0  0  0  0
 17 15  2  0  0  0  0
 18  8  1  0  0  0  0
 19 11  1  0  0  0  0
 20 23  1  0  0  0  0
 21 23  1  0  0  0  0
 22 21  2  0  0  0  0
 24 25  2  0  0  0  0
 25 26  1  0  0  0  0
 25 20  1  0  0  0  0
 26 22  1  0  0  0  0
 28 27  1  0  0  0  0
 28 20  1  0  0  0  0
M  END
>  <MODEL>
5

>  <REMARK>
 VINA RESULT:      -8.3      3.765      6.760
  Name = 
  3 active torsions:
  status: ('A' for Active; 'I' for Inactive)
    1  A    between atoms: N_8  and  C_12
    2  A    between atoms: C_15  and  C_23
    3  A    between atoms: C_17  and  C_21
                            x       y       z     vdW  Elec       q    Type
                         _______ _______ _______ _____ _____    ______ ____

>  <TORSDO>
F 3

$$$$
=
 OpenBabel10232409053D

 28 31  0  0  1  0  0  0  0  0999 V2000
  183.5120  179.0330  143.5770 C   0  0  0  0  0  0  0  0  0  0  0  0
  185.1520  178.1090  145.0900 C   0  0  0  0  0  3  0  0  0  0  0  0
  182.2330  179.5120  143.3360 O   0  0  0  0  0  1  0  0  0  0  0  0
  185.7480  178.5120  142.7640 C   0  0  0  0  0  0  0  0  0  0  0  0
  186.0990  178.0430  144.0580 C   0  0  0  0  0  0  0  0  0  0  0  0
  183.8680  178.6020  144.8530 C   0  0  0  0  0  3  0  0  0  0  0  0
  184.4490  178.9950  142.5420 C   0  0  0  0  0  3  0  0  0  0  0  0
  189.1800  178.6260  141.5520 C   0  0  0  0  0  3  0  0  0  0  0  0
  187.1980  178.1790  139.2140 C   0  0  0  0  0  0  0  0  0  0  0  0
  189.3000  178.1240  137.8440 C   0  0  2  0  0  3  0  0  0  0  0  0
  187.1290  178.5750  136.7300 C   0  0  0  0  0  2  0  0  0  0  0  0
  188.5600  178.1180  139.1690 C   0  0  0  0  0  0  0  0  0  0  0  0
  188.4260  177.8010  136.6370 C   0  0  0  0  0  2  0  0  0  0  0  0
  190.3670  177.2430  137.8730 F   0  0  0  0  0  0  0  0  0  0  0  0
  186.3910  178.1200  140.4530 C   0  0  0  0  0  3  0  0  0  0  0  0
  189.4350  178.0800  140.3650 C   0  0  0  0  0  3  0  0  0  0  0  0
  186.7240  178.6000  141.6550 C   0  0  0  0  0  0  0  0  0  0  0  0
  187.9560  179.4230  141.8370 C   0  0  0  0  0  2  0  0  0  0  0  0
  186.3760  178.0880  137.9560 C   0  0  0  0  0  2  0  0  0  0  0  0
  190.1580  176.7700  144.3800 N   0  0  0  0  0  0  0  0  0  0  0  0
  188.2430  178.0160  145.2260 C   0  0  0  0  0  3  0  0  0  0  0  0
  187.4040  177.4230  144.3640 C   0  0  0  0  0  0  0  0  0  0  0  0
  189.5820  177.4210  145.5540 C   0  0  0  0  0  2  0  0  0  0  0  0
  189.7700  175.4710  142.4650 O   0  0  0  0  0  0  0  0  0  0  0  0
  189.2950  176.1100  143.4410 C   0  0  0  0  0  0  0  0  0  0  0  0
  187.8100  176.1640  143.6390 C   0  0  0  0  0  2  0  0  0  0  0  0
  192.0100  177.7340  143.3370 O   0  0  0  0  0  1  0  0  0  0  0  0
  191.6060  176.7450  144.2340 C   0  0  0  0  0  2  0  0  0  0  0  0
  1  6  1  0  0  0  0
  3  1  1  0  0  0  0
  4  5  2  0  0  0  0
  5 22  1  0  0  0  0
  5  2  1  0  0  0  0
  6  2  2  0  0  0  0
  7  4  1  0  0  0  0
  7  1  2  0  0  0  0
  8 18  1  0  0  0  0
  9 15  1  0  0  0  0
 10 14  1  1  0  0  0
 10 12  1  0  0  0  0
 11 19  1  0  0  0  0
 12  9  2  0  0  0  0
 12 16  1  0  0  0  0
 13 11  1  0  0  0  0
 13 10  1  0  0  0  0
 15 17  2  0  0  0  0
 16  8  2  0  0  0  0
 17 18  1  0  0  0  0
 17  4  1  0  0  0  0
 19  9  1  0  0  0  0
 20 23  1  0  0  0  0
 21 23  1  0  0  0  0
 22 21  2  0  0  0  0
 24 25  2  0  0  0  0
 25 26  1  0  0  0  0
 25 20  1  0  0  0  0
 26 22  1  0  0  0  0
 27 28  1  0  0  0  0
 28 20  1  0  0  0  0
M  END
>  <MODEL>
6

>  <REMARK>
 VINA RESULT:      -8.2      3.043      5.817
  Name = 
  3 active torsions:
  status: ('A' for Active; 'I' for Inactive)
    1  A    between atoms: N_8  and  C_12
    2  A    between atoms: C_15  and  C_23
    3  A    between atoms: C_17  and  C_21
                            x       y       z     vdW  Elec       q    Type
                         _______ _______ _______ _____ _____    ______ ____

>  <TORSDO>
F 3

$$$$
=
 OpenBabel10232409053D

 28 31  0  0  1  0  0  0  0  0999 V2000
  185.9390  178.8420  140.9110 C   0  0  0  0  0  0  0  0  0  0  0  0
  187.6110  178.1180  139.3260 C   0  0  0  0  0  3  0  0  0  0  0  0
  184.7120  179.4310  141.1800 O   0  0  0  0  0  1  0  0  0  0  0  0
  187.9810  177.7810  141.7090 C   0  0  0  0  0  0  0  0  0  0  0  0
  188.4340  177.6660  140.3680 C   0  0  0  0  0  0  0  0  0  0  0  0
  186.3710  178.7000  139.5940 C   0  0  0  0  0  3  0  0  0  0  0  0
  186.7350  178.3790  141.9600 C   0  0  0  0  0  3  0  0  0  0  0  0
  190.6430  175.6880  143.0450 C   0  0  0  0  0  3  0  0  0  0  0  0
  189.4270  177.4760  145.2630 C   0  0  0  0  0  0  0  0  0  0  0  0
  191.1530  176.3500  146.6950 C   0  0  2  0  0  3  0  0  0  0  0  0
  189.2000  177.4390  147.7680 C   0  0  0  0  0  2  0  0  0  0  0  0
  190.5370  176.6880  145.3500 C   0  0  0  0  0  0  0  0  0  0  0  0
  190.7000  177.2530  147.8360 C   0  0  0  0  0  2  0  0  0  0  0  0
  192.5360  176.3780  146.6230 F   0  0  0  0  0  0  0  0  0  0  0  0
  188.7940  177.9050  143.9960 C   0  0  0  0  0  3  0  0  0  0  0  0
  191.2150  176.0680  144.1860 C   0  0  0  0  0  3  0  0  0  0  0  0
  188.7250  177.2130  142.8550 C   0  0  0  0  0  0  0  0  0  0  0  0
  189.1820  175.7930  142.7910 C   0  0  0  0  0  2  0  0  0  0  0  0
  188.8730  178.1710  146.4770 C   0  0  0  0  0  2  0  0  0  0  0  0
  192.2410  176.6920  138.7070 N   0  0  0  0  0  0  0  0  0  0  0  0
  190.8710  177.8190  140.3770 C   0  0  0  0  0  3  0  0  0  0  0  0
  189.7700  177.1470  140.0100 C   0  0  0  0  0  0  0  0  0  0  0  0
  192.2450  177.3290  140.0220 C   0  0  0  0  0  2  0  0  0  0  0  0
  191.0870  175.3240  137.1890 O   0  0  0  0  0  0  0  0  0  0  0  0
  191.0860  175.9500  138.2820 C   0  0  0  0  0  0  0  0  0  0  0  0
  189.8740  175.9030  139.1630 C   0  0  0  0  0  2  0  0  0  0  0  0
  194.3090  175.7240  138.2250 O   0  0  0  0  0  1  0  0  0  0  0  0
  193.4430  176.7660  137.8900 C   0  0  0  0  0  2  0  0  0  0  0  0
  1  3  1  0  0  0  0
  1  7  1  0  0  0  0
  2  6  1  0  0  0  0
  2  5  2  0  0  0  0
  4  7  2  0  0  0  0
  4 17  1  0  0  0  0
  5  4  1  0  0  0  0
  6  1  2  0  0  0  0
  8 16  2  0  0  0  0
  9 12  2  0  0  0  0
  9 19  1  0  0  0  0
 10 14  1  6  0  0  0
 10 13  1  0  0  0  0
 11 13  1  0  0  0  0
 12 10  1  0  0  0  0
 15  9  1  0  0  0  0
 16 12  1  0  0  0  0
 17 15  2  0  0  0  0
 18 17  1  0  0  0  0
 18  8  1  0  0  0  0
 19 11  1  0  0  0  0
 20 23  1  0  0  0  0
 22  5  1  0  0  0  0
 22 21  2  0  0  0  0
 23 21  1  0  0  0  0
 24 25  2  0  0  0  0
 25 20  1  0  0  0  0
 25 26  1  0  0  0  0
 26 22  1  0  0  0  0
 28 27  1  0  0  0  0
 28 20  1  0  0  0  0
M  END
>  <MODEL>
7

>  <REMARK>
 VINA RESULT:      -8.0      3.518      5.363
  Name = 
  3 active torsions:
  status: ('A' for Active; 'I' for Inactive)
    1  A    between atoms: N_8  and  C_12
    2  A    between atoms: C_15  and  C_23
    3  A    between atoms: C_17  and  C_21
                            x       y       z     vdW  Elec       q    Type
                         _______ _______ _______ _____ _____    ______ ____

>  <TORSDO>
F 3

$$$$
=
 OpenBabel10232409053D

 28 31  0  0  1  0  0  0  0  0999 V2000
  190.4300  176.8100  146.2160 C   0  0  0  0  0  0  0  0  0  0  0  0
  191.7270  176.6600  144.1850 C   0  0  0  0  0  3  0  0  0  0  0  0
  190.3290  176.6620  147.5920 O   0  0  0  0  0  1  0  0  0  0  0  0
  189.4140  177.4110  144.0860 C   0  0  0  0  0  0  0  0  0  0  0  0
  190.6280  177.0890  143.4260 C   0  0  0  0  0  0  0  0  0  0  0  0
  191.6310  176.5230  145.5700 C   0  0  0  0  0  3  0  0  0  0  0  0
  189.3320  177.2570  145.4800 C   0  0  0  0  0  3  0  0  0  0  0  0
  187.8540  178.7010  141.0600 C   0  0  0  0  0  3  0  0  0  0  0  0
  185.7430  178.2440  143.2790 C   0  0  0  0  0  0  0  0  0  0  0  0
  184.1540  179.0510  141.5120 C   0  0  2  0  0  3  0  0  0  0  0  0
  183.4690  179.1250  143.8960 C   0  0  0  0  0  2  0  0  0  0  0  0
  185.5160  178.5640  141.9730 C   0  0  0  0  0  0  0  0  0  0  0  0
  183.0230  178.7680  142.4940 C   0  0  0  0  0  2  0  0  0  0  0  0
  183.8280  178.5050  140.2830 F   0  0  0  0  0  0  0  0  0  0  0  0
  187.0170  177.7080  143.8080 C   0  0  0  0  0  3  0  0  0  0  0  0
  186.5450  178.5100  140.9080 C   0  0  0  0  0  3  0  0  0  0  0  0
  188.2510  177.9920  143.3800 C   0  0  0  0  0  0  0  0  0  0  0  0
  188.4810  179.0590  142.3610 C   0  0  0  0  0  2  0  0  0  0  0  0
  184.6150  178.2040  144.2750 C   0  0  0  0  0  2  0  0  0  0  0  0
  191.5120  176.4980  139.2940 N   0  0  0  0  0  0  0  0  0  0  0  0
  189.9790  176.3720  141.1840 C   0  0  0  0  0  3  0  0  0  0  0  0
  190.7800  177.1190  141.9570 C   0  0  0  0  0  0  0  0  0  0  0  0
  190.1110  176.3680  139.6880 C   0  0  0  0  0  2  0  0  0  0  0  0
  193.5910  177.4970  139.7260 O   0  0  0  0  0  0  0  0  0  0  0  0
  192.4000  177.3020  140.0870 C   0  0  0  0  0  0  0  0  0  0  0  0
  191.8940  177.9350  141.3480 C   0  0  0  0  0  2  0  0  0  0  0  0
  191.5580  174.5260  138.0460 O   0  0  0  0  0  1  0  0  0  0  0  0
  191.9530  175.8640  138.0600 C   0  0  0  0  0  2  0  0  0  0  0  0
  1  3  1  0  0  0  0
  2  6  2  0  0  0  0
  4  7  1  0  0  0  0
  5  4  2  0  0  0  0
  5  2  1  0  0  0  0
  6  1  1  0  0  0  0
  7  1  2  0  0  0  0
  8 18  1  0  0  0  0
  9 15  1  0  0  0  0
  9 19  1  0  0  0  0
 10 14  1  6  0  0  0
 10 12  1  0  0  0  0
 10 13  1  0  0  0  0
 11 19  1  0  0  0  0
 12  9  2  0  0  0  0
 13 11  1  0  0  0  0
 16  8  2  0  0  0  0
 16 12  1  0  0  0  0
 17 15  2  0  0  0  0
 17  4  1  0  0  0  0
 18 17  1  0  0  0  0
 20 23  1  0  0  0  0
 20 25  1  0  0  0  0
 21 22  2  0  0  0  0
 22  5  1  0  0  0  0
 23 21  1  0  0  0  0
 24 25  2  0  0  0  0
 25 26  1  0  0  0  0
 26 22  1  0  0  0  0
 27 28  1  0  0  0  0
 28 20  1  0  0  0  0
M  END
>  <MODEL>
8

>  <REMARK>
 VINA RESULT:      -7.9      2.553      5.024
  Name = 
  3 active torsions:
  status: ('A' for Active; 'I' for Inactive)
    1  A    between atoms: N_8  and  C_12
    2  A    between atoms: C_15  and  C_23
    3  A    between atoms: C_17  and  C_21
                            x       y       z     vdW  Elec       q    Type
                         _______ _______ _______ _____ _____    ______ ____

>  <TORSDO>
F 3

$$$$
=
 OpenBabel10232409053D

 28 31  0  0  1  0  0  0  0  0999 V2000
  185.0080  178.3990  143.7870 C   0  0  0  0  0  0  0  0  0  0  0  0
  186.9750  177.6400  144.9650 C   0  0  0  0  0  3  0  0  0  0  0  0
  183.6730  178.7750  143.7930 O   0  0  0  0  0  1  0  0  0  0  0  0
  187.0810  178.0250  142.5640 C   0  0  0  0  0  0  0  0  0  0  0  0
  187.7090  177.6190  143.7700 C   0  0  0  0  0  0  0  0  0  0  0  0
  185.6350  178.0290  144.9750 C   0  0  0  0  0  3  0  0  0  0  0  0
  185.7290  178.4040  142.5910 C   0  0  0  0  0  3  0  0  0  0  0  0
  190.1870  177.9780  140.6650 C   0  0  0  0  0  3  0  0  0  0  0  0
  187.7370  177.9860  138.7710 C   0  0  0  0  0  0  0  0  0  0  0  0
  189.4990  177.9080  136.9860 C   0  0  2  0  0  3  0  0  0  0  0  0
  187.2110  178.6760  136.4090 C   0  0  0  0  0  2  0  0  0  0  0  0
  189.0460  177.8110  138.4310 C   0  0  0  0  0  0  0  0  0  0  0  0
  188.3690  177.8070  135.9670 C   0  0  0  0  0  2  0  0  0  0  0  0
  190.4450  176.9390  136.7020 F   0  0  0  0  0  0  0  0  0  0  0  0
  187.1950  177.8530  140.1420 C   0  0  0  0  0  3  0  0  0  0  0  0
  190.1350  177.5550  139.4040 C   0  0  0  0  0  3  0  0  0  0  0  0
  187.8150  178.1570  141.2860 C   0  0  0  0  0  0  0  0  0  0  0  0
  189.1430  178.8410  141.2800 C   0  0  0  0  0  2  0  0  0  0  0  0
  186.6720  178.1160  137.7150 C   0  0  0  0  0  2  0  0  0  0  0  0
  191.4410  175.7150  144.5780 N   0  0  0  0  0  0  0  0  0  0  0  0
  189.3930  175.9220  143.2730 C   0  0  0  0  0  3  0  0  0  0  0  0
  189.0930  177.1060  143.8260 C   0  0  0  0  0  0  0  0  0  0  0  0
  190.7860  175.3640  143.3190 C   0  0  0  0  0  2  0  0  0  0  0  0
  191.7690  177.3430  146.2350 O   0  0  0  0  0  0  0  0  0  0  0  0
  191.1580  176.9810  145.1940 C   0  0  0  0  0  0  0  0  0  0  0  0
  190.1400  177.8910  144.5770 C   0  0  0  0  0  2  0  0  0  0  0  0
  192.2600  173.5290  144.5730 O   0  0  0  0  0  1  0  0  0  0  0  0
  192.4220  174.7960  145.1350 C   0  0  0  0  0  2  0  0  0  0  0  0
  1  3  1  0  0  0  0
  1  6  1  0  0  0  0
  2  6  2  0  0  0  0
  4  7  1  0  0  0  0
  4  5  2  0  0  0  0
  5 22  1  0  0  0  0
  5  2  1  0  0  0  0
  7  1  2  0  0  0  0
  8 18  1  0  0  0  0
  9 15  1  0  0  0  0
 10 14  1  6  0  0  0
 10 12  1  0  0  0  0
 11 19  1  0  0  0  0
 12  9  2  0  0  0  0
 12 16  1  0  0  0  0
 13 11  1  0  0  0  0
 13 10  1  0  0  0  0
 15 17  2  0  0  0  0
 16  8  2  0  0  0  0
 17  4  1  0  0  0  0
 18 17  1  0  0  0  0
 19  9  1  0  0  0  0
 20 28  1  0  0  0  0
 20 25  1  0  0  0  0
 21 23  1  0  0  0  0
 21 22  2  0  0  0  0
 22 26  1  0  0  0  0
 23 20  1  0  0  0  0
 25 24  2  0  0  0  0
 26 25  1  0  0  0  0
 27 28  1  0  0  0  0
M  END
>  <MODEL>
9

>  <REMARK>
 VINA RESULT:      -7.7      2.975      5.579
  Name = 
  3 active torsions:
  status: ('A' for Active; 'I' for Inactive)
    1  A    between atoms: N_8  and  C_12
    2  A    between atoms: C_15  and  C_23
    3  A    between atoms: C_17  and  C_21
                            x       y       z     vdW  Elec       q    Type
                         _______ _______ _______ _____ _____    ______ ____

>  <TORSDO>
F 3

$$$$
