=
 OpenBabel10232408583D

 46 51  0  0  1  0  0  0  0  0999 V2000
  185.0770  178.4370  139.8210 C   0  0  0  0  0  0  0  0  0  0  0  0
  186.0290  178.6770  140.8230 C   0  0  0  0  0  0  0  0  0  0  0  0
  182.5070  177.2820  136.8660 O   0  0  0  0  0  0  0  0  0  0  0  0
  185.4680  178.3840  138.4010 C   0  0  0  0  0  3  0  0  0  0  0  0
  184.2960  178.4130  142.4930 C   0  0  0  0  0  0  0  0  0  0  0  0
  183.3870  178.2020  141.4980 N   0  0  0  0  0  0  0  0  0  0  0  0
  184.6140  178.0560  137.4800 N   0  0  0  0  0  0  0  0  0  0  0  0
  183.2460  177.7490  137.7740 C   0  0  0  0  0  0  0  0  0  0  0  0
  182.6660  178.0180  139.1360 C   0  0  1  0  0  3  0  0  0  0  0  0
  183.7370  178.2090  140.1830 C   0  0  0  0  0  0  0  0  0  0  0  0
  185.6290  178.6660  142.1650 C   0  0  0  0  0  3  0  0  0  0  0  0
  183.8840  178.4120  143.9410 C   0  0  2  0  0  0  0  0  0  0  0  0
  183.5810  179.8470  144.3520 C   0  0  2  0  0  3  0  0  0  0  0  0
  184.8340  179.1590  144.8600 C   0  0  1  0  0  3  0  0  0  0  0  0
  182.4510  178.8630  144.1450 C   0  0  0  0  0  2  0  0  0  0  0  0
  184.6340  178.7300  146.2350 N   0  0  0  0  0  2  0  0  0  0  0  0
  185.9420  178.7350  146.8620 C   0  0  0  0  0  2  0  0  0  0  0  0
  186.8860  177.8490  146.0740 C   0  0  0  0  0  2  0  0  0  0  0  0
  188.3250  178.1610  146.4530 C   0  0  1  0  0  3  0  0  0  0  0  0
  188.6140  177.6610  147.8300 C   0  0  0  0  0  0  0  0  0  0  0  0
  189.3180  178.4450  148.7370 O   0  0  0  0  0  1  0  0  0  0  0  0
  188.2310  176.5110  148.1660 O   0  0  0  0  0  0  0  0  0  0  0  0
  189.4720  177.4640  145.2650 S   0  0  0  0  0  0  0  0  0  0  0  0
  188.7650  176.4480  144.4120 O   0  0  0  0  0  0  0  0  0  0  0  0
  190.6080  176.7940  145.9860 O   0  0  0  0  0  0  0  0  0  0  0  0
  190.1230  178.7560  144.2230 C   0  0  0  0  0  2  0  0  0  0  0  0
  192.4340  179.2880  144.4610 O   0  0  0  0  0  1  0  0  0  0  0  0
  191.9630  177.4970  143.1110 O   0  0  0  0  0  0  0  0  0  0  0  0
  191.5690  178.5270  143.9530 C   0  0  0  0  0  0  0  0  0  0  0  0
  181.7770  179.2230  139.0630 C   0  0  0  0  0  3  0  0  0  0  0  0
  180.5460  179.2070  139.5700 C   0  0  0  0  0  2  0  0  0  0  0  0
  187.4000  178.9040  140.4730 N   0  0  0  0  0  2  0  0  0  0  0  0
  189.0490  177.2300  141.1870 C   0  0  0  0  0  1  0  0  0  0  0  0
  188.3010  177.8510  140.0160 C   0  0  2  0  0  3  0  0  0  0  0  0
  189.2230  178.3550  138.9970 N   0  0  0  0  0  2  0  0  0  0  0  0
  188.8540  177.8550  137.6750 C   0  0  0  0  0  2  0  0  0  0  0  0
  187.6420  174.8810  136.4380 C   0  0  0  0  0  0  0  0  0  0  0  0
  190.0390  175.7940  136.2630 S   0  0  1  0  0  0  0  0  0  0  0  0
  187.7030  175.7100  137.4310 N   0  0  0  0  0  0  0  0  0  0  0  0
  189.0020  176.3420  137.6380 C   0  0  2  0  0  3  0  0  0  0  0  0
  188.8240  174.7000  135.6730 N   0  0  0  0  0  2  0  0  0  0  0  0
  189.9870  176.9330  135.2520 O   0  0  0  0  0  0  0  0  0  0  0  0
  186.3990  174.1190  136.1410 C   0  0  0  0  0  2  0  0  0  0  0  0
  184.4980  173.8380  137.6950 C   0  0  0  0  0  2  0  0  0  0  0  0
  185.9190  173.4080  137.3920 C   0  0  0  0  0  3  0  0  0  0  0  0
  184.7580  172.5060  137.0290 C   0  0  0  0  0  2  0  0  0  0  0  0
  1 10  2  0  0  0  0
  1  2  1  0  0  0  0
  2 11  2  0  0  0  0
  3  8  2  0  0  0  0
  4  1  1  0  0  0  0
  6  5  2  0  0  0  0
  7  8  1  0  0  0  0
  7  4  2  0  0  0  0
  8  9  1  0  0  0  0
  9 30  1  6  0  0  0
  9 10  1  0  0  0  0
 10  6  1  0  0  0  0
 11  5  1  0  0  0  0
 12  5  1  6  0  0  0
 12 15  1  0  0  0  0
 12 13  1  0  0  0  0
 12 14  1  0  0  0  0
 13 15  1  1  0  0  0
 13 14  1  0  0  0  0
 14 16  1  1  0  0  0
 16 17  1  0  0  0  0
 18 17  1  0  0  0  0
 19 18  1  6  0  0  0
 19 20  1  0  0  0  0
 20 22  2  0  0  0  0
 20 21  1  0  0  0  0
 23 25  2  0  0  0  0
 23 19  1  0  0  0  0
 24 23  2  0  0  0  0
 26 23  1  0  0  0  0
 28 29  2  0  0  0  0
 29 26  1  0  0  0  0
 29 27  1  0  0  0  0
 30 31  2  0  0  0  0
 32  2  1  0  0  0  0
 34 32  1  0  0  0  0
 34 33  1  1  0  0  0
 35 34  1  0  0  0  0
 36 35  1  0  0  0  0
 37 39  2  0  0  0  0
 38 42  2  6  0  0  0
 38 40  1  0  0  0  0
 39 40  1  0  0  0  0
 40 36  1  6  0  0  0
 41 38  1  0  0  0  0
 41 37  1  0  0  0  0
 43 37  1  0  0  0  0
 43 45  1  0  0  0  0
 45 44  1  0  0  0  0
 46 45  1  0  0  0  0
 46 44  1  0  0  0  0
M  END
>  <MODEL>
1

>  <REMARK>
 VINA RESULT:      -7.5      0.000      0.000
  Name = 
  17 active torsions:
  status: ('A' for Active; 'I' for Inactive)
    1  A    between atoms: C_2  and  C_40
    2  A    between atoms: C_3  and  C_23
    3  A    between atoms: C_4  and  C_42
    4  A    between atoms: C_6  and  S_14
    5  A    between atoms: C_6  and  C_33
    6  A    between atoms: C_7  and  N_9
    7  A    between atoms: N_9  and  C_15
    8  A    between atoms: S_14  and  C_42
    9  A    between atoms: C_15  and  N_35
   10  A    between atoms: C_16  and  C_21
   11  A    between atoms: N_19  and  C_20
   12  A    between atoms: N_19  and  C_32
   13  A    between atoms: C_20  and  C_43
   14  A    between atoms: C_22  and  C_23
   15  A    between atoms: C_27  and  C_37
   16  A    between atoms: N_35  and  C_37
   17  A    between atoms: C_42  and  C_43
                            x       y       z     vdW  Elec       q    Type
                         _______ _______ _______ _____ _____    ______ ____

>  <TORSDO>
F 17

$$$$
=
 OpenBabel10232408583D

 46 51  0  0  1  0  0  0  0  0999 V2000
  185.0650  178.4660  139.7840 C   0  0  0  0  0  0  0  0  0  0  0  0
  186.0240  178.6980  140.7810 C   0  0  0  0  0  0  0  0  0  0  0  0
  182.4750  177.3350  136.8380 O   0  0  0  0  0  0  0  0  0  0  0  0
  185.4450  178.4280  138.3620 C   0  0  0  0  0  3  0  0  0  0  0  0
  184.3050  178.4120  142.4620 C   0  0  0  0  0  0  0  0  0  0  0  0
  183.3900  178.2100  141.4720 N   0  0  0  0  0  0  0  0  0  0  0  0
  184.5850  178.1080  137.4440 N   0  0  0  0  0  0  0  0  0  0  0  0
  183.2200  177.7950  137.7450 C   0  0  0  0  0  0  0  0  0  0  0  0
  182.6500  178.0480  139.1140 C   0  0  1  0  0  3  0  0  0  0  0  0
  183.7290  178.2300  140.1550 C   0  0  0  0  0  0  0  0  0  0  0  0
  185.6350  178.6720  142.1270 C   0  0  0  0  0  3  0  0  0  0  0  0
  183.9050  178.3950  143.9140 C   0  0  2  0  0  0  0  0  0  0  0  0
  183.5380  179.8160  144.3240 C   0  0  2  0  0  3  0  0  0  0  0  0
  184.8250  179.1890  144.8240 C   0  0  1  0  0  3  0  0  0  0  0  0
  182.4530  178.7790  144.1270 C   0  0  0  0  0  2  0  0  0  0  0  0
  184.6560  178.7540  146.2010 N   0  0  0  0  0  2  0  0  0  0  0  0
  185.9780  178.7600  146.8000 C   0  0  0  0  0  2  0  0  0  0  0  0
  186.8850  177.8180  146.0360 C   0  0  0  0  0  2  0  0  0  0  0  0
  188.3390  178.1270  146.3560 C   0  0  1  0  0  3  0  0  0  0  0  0
  188.6800  177.6400  147.7260 C   0  0  0  0  0  0  0  0  0  0  0  0
  188.2600  176.3880  148.1600 O   0  0  0  0  0  0  0  0  0  0  0  0
  189.3390  178.3800  148.5000 O   0  0  0  0  0  1  0  0  0  0  0  0
  189.4360  177.4140  145.1310 S   0  0  0  0  0  0  0  0  0  0  0  0
  188.6790  176.4310  144.2820 O   0  0  0  0  0  0  0  0  0  0  0  0
  190.5690  176.7030  145.8150 O   0  0  0  0  0  0  0  0  0  0  0  0
  190.0990  178.7020  144.0900 C   0  0  0  0  0  2  0  0  0  0  0  0
  192.4070  179.1710  144.4550 O   0  0  0  0  0  1  0  0  0  0  0  0
  191.9600  177.5290  142.9190 O   0  0  0  0  0  0  0  0  0  0  0  0
  191.5500  178.4780  143.8470 C   0  0  0  0  0  0  0  0  0  0  0  0
  181.7570  179.2520  139.0610 C   0  0  0  0  0  3  0  0  0  0  0  0
  182.1980  180.4200  138.5990 C   0  0  0  0  0  2  0  0  0  0  0  0
  187.3920  178.9320  140.4230 N   0  0  0  0  0  2  0  0  0  0  0  0
  188.9890  177.1420  140.9520 C   0  0  0  0  0  1  0  0  0  0  0  0
  188.2630  177.9080  139.8550 C   0  0  2  0  0  3  0  0  0  0  0  0
  189.2040  178.4940  138.8970 N   0  0  0  0  0  2  0  0  0  0  0  0
  188.6290  178.5090  137.5540 C   0  0  0  0  0  2  0  0  0  0  0  0
  190.7220  175.7920  137.2640 C   0  0  0  0  0  0  0  0  0  0  0  0
  188.5430  176.2410  135.9750 S   0  0  1  0  0  0  0  0  0  0  0  0
  190.6040  177.0790  137.3470 N   0  0  0  0  0  0  0  0  0  0  0  0
  189.4710  177.6490  136.6250 C   0  0  2  0  0  3  0  0  0  0  0  0
  189.7420  175.0990  136.5050 N   0  0  0  0  0  2  0  0  0  0  0  0
  187.4080  176.0250  136.9690 O   0  0  0  0  0  0  0  0  0  0  0  0
  191.8600  175.0770  137.9010 C   0  0  0  0  0  2  0  0  0  0  0  0
  194.3270  174.9830  138.0130 C   0  0  0  0  0  2  0  0  0  0  0  0
  193.1380  175.8730  137.7160 C   0  0  0  0  0  3  0  0  0  0  0  0
  193.9350  175.2650  136.5810 C   0  0  0  0  0  2  0  0  0  0  0  0
  1 10  2  0  0  0  0
  1  2  1  0  0  0  0
  2 11  2  0  0  0  0
  3  8  2  0  0  0  0
  4  1  1  0  0  0  0
  6  5  2  0  0  0  0
  7  8  1  0  0  0  0
  7  4  2  0  0  0  0
  8  9  1  0  0  0  0
  9 30  1  6  0  0  0
  9 10  1  0  0  0  0
 10  6  1  0  0  0  0
 11  5  1  0  0  0  0
 12  5  1  6  0  0  0
 12 15  1  0  0  0  0
 12 13  1  0  0  0  0
 12 14  1  0  0  0  0
 13 15  1  1  0  0  0
 13 14  1  0  0  0  0
 14 16  1  1  0  0  0
 16 17  1  0  0  0  0
 18 17  1  0  0  0  0
 19 18  1  6  0  0  0
 19 20  1  0  0  0  0
 20 21  2  0  0  0  0
 20 22  1  0  0  0  0
 23 25  2  0  0  0  0
 23 19  1  0  0  0  0
 24 23  2  0  0  0  0
 26 23  1  0  0  0  0
 28 29  2  0  0  0  0
 29 26  1  0  0  0  0
 29 27  1  0  0  0  0
 31 30  2  0  0  0  0
 32  2  1  0  0  0  0
 34 32  1  0  0  0  0
 34 33  1  1  0  0  0
 35 34  1  0  0  0  0
 36 35  1  0  0  0  0
 37 39  2  0  0  0  0
 37 43  1  0  0  0  0
 38 41  1  0  0  0  0
 38 40  1  0  0  0  0
 38 42  2  1  0  0  0
 40 39  1  0  0  0  0
 40 36  1  1  0  0  0
 41 37  1  0  0  0  0
 45 43  1  0  0  0  0
 45 44  1  0  0  0  0
 46 45  1  0  0  0  0
 46 44  1  0  0  0  0
M  END
>  <MODEL>
2

>  <REMARK>
 VINA RESULT:      -7.5      1.702      2.709
  Name = 
  17 active torsions:
  status: ('A' for Active; 'I' for Inactive)
    1  A    between atoms: C_2  and  C_40
    2  A    between atoms: C_3  and  C_23
    3  A    between atoms: C_4  and  C_42
    4  A    between atoms: C_6  and  S_14
    5  A    between atoms: C_6  and  C_33
    6  A    between atoms: C_7  and  N_9
    7  A    between atoms: N_9  and  C_15
    8  A    between atoms: S_14  and  C_42
    9  A    between atoms: C_15  and  N_35
   10  A    between atoms: C_16  and  C_21
   11  A    between atoms: N_19  and  C_20
   12  A    between atoms: N_19  and  C_32
   13  A    between atoms: C_20  and  C_43
   14  A    between atoms: C_22  and  C_23
   15  A    between atoms: C_27  and  C_37
   16  A    between atoms: N_35  and  C_37
   17  A    between atoms: C_42  and  C_43
                            x       y       z     vdW  Elec       q    Type
                         _______ _______ _______ _____ _____    ______ ____

>  <TORSDO>
F 17

$$$$
=
 OpenBabel10232408583D

 46 51  0  0  1  0  0  0  0  0999 V2000
  188.6510  177.6900  140.4840 C   0  0  0  0  0  0  0  0  0  0  0  0
  188.3240  177.9920  139.1540 C   0  0  0  0  0  0  0  0  0  0  0  0
  189.2200  176.4850  144.3430 O   0  0  0  0  0  0  0  0  0  0  0  0
  187.8060  178.1560  141.5970 C   0  0  0  0  0  3  0  0  0  0  0  0
  190.2240  176.6830  138.4200 C   0  0  0  0  0  0  0  0  0  0  0  0
  190.5300  176.4210  139.7220 N   0  0  0  0  0  0  0  0  0  0  0  0
  188.0400  177.7910  142.8200 N   0  0  0  0  0  0  0  0  0  0  0  0
  189.1370  176.9370  143.1700 C   0  0  0  0  0  0  0  0  0  0  0  0
  190.2130  176.6080  142.1720 C   0  0  1  0  0  3  0  0  0  0  0  0
  189.7820  176.8980  140.7540 C   0  0  0  0  0  0  0  0  0  0  0  0
  189.1210  177.4840  138.1200 C   0  0  0  0  0  3  0  0  0  0  0  0
  191.0720  176.1520  137.2940 C   0  0  2  0  0  0  0  0  0  0  0  0
  190.8810  174.6420  137.2240 C   0  0  2  0  0  3  0  0  0  0  0  0
  192.1850  175.2210  137.7380 C   0  0  1  0  0  3  0  0  0  0  0  0
  190.2490  175.5350  136.1790 C   0  0  0  0  0  2  0  0  0  0  0  0
  193.2020  175.1340  136.7020 N   0  0  0  0  0  2  0  0  0  0  0  0
  193.5100  173.7250  136.5430 C   0  0  0  0  0  2  0  0  0  0  0  0
  195.0100  173.5230  136.6040 C   0  0  0  0  0  2  0  0  0  0  0  0
  195.6520  174.6540  137.3910 C   0  0  1  0  0  3  0  0  0  0  0  0
  195.6680  174.3240  138.8470 C   0  0  0  0  0  0  0  0  0  0  0  0
  195.5610  175.3260  139.8040 O   0  0  0  0  0  1  0  0  0  0  0  0
  195.7990  173.1270  139.2100 O   0  0  0  0  0  0  0  0  0  0  0  0
  197.3060  174.9990  136.7940 S   0  0  0  0  0  0  0  0  0  0  0  0
  198.2300  175.2280  137.9570 O   0  0  0  0  0  0  0  0  0  0  0  0
  197.2900  176.2300  135.9310 O   0  0  0  0  0  0  0  0  0  0  0  0
  197.9020  173.6210  135.8320 C   0  0  0  0  0  2  0  0  0  0  0  0
  200.1790  174.0930  135.3120 O   0  0  0  0  0  0  0  0  0  0  0  0
  199.8410  172.5420  136.9660 O   0  0  0  0  0  1  0  0  0  0  0  0
  199.3670  173.4460  136.0250 C   0  0  0  0  0  0  0  0  0  0  0  0
  191.4540  177.3760  142.5150 C   0  0  0  0  0  3  0  0  0  0  0  0
  191.4240  178.3930  143.3730 C   0  0  0  0  0  2  0  0  0  0  0  0
  187.1710  178.7900  138.8600 N   0  0  0  0  0  2  0  0  0  0  0  0
  185.2200  177.7910  137.7520 C   0  0  0  0  0  1  0  0  0  0  0  0
  185.8000  178.3280  139.0530 C   0  0  2  0  0  3  0  0  0  0  0  0
  184.9620  179.3900  139.6150 N   0  0  0  0  0  2  0  0  0  0  0  0
  183.5810  178.9370  139.7560 C   0  0  0  0  0  2  0  0  0  0  0  0
  183.7490  179.1330  143.1880 C   0  0  0  0  0  0  0  0  0  0  0  0
  181.7470  178.3970  141.7530 S   0  0  1  0  0  0  0  0  0  0  0  0
  184.3140  178.7600  142.0840 N   0  0  0  0  0  0  0  0  0  0  0  0
  183.4120  178.2060  141.0780 C   0  0  2  0  0  3  0  0  0  0  0  0
  182.3410  178.9750  143.2810 N   0  0  0  0  0  2  0  0  0  0  0  0
  181.2010  179.6630  141.1020 O   0  0  0  0  0  0  0  0  0  0  0  0
  184.5480  179.6640  144.3240 C   0  0  0  0  0  2  0  0  0  0  0  0
  185.8360  177.8960  145.4750 C   0  0  0  0  0  2  0  0  0  0  0  0
  184.5350  178.6720  145.4720 C   0  0  0  0  0  3  0  0  0  0  0  0
  185.6350  179.0360  146.4480 C   0  0  0  0  0  2  0  0  0  0  0  0
  1 10  1  0  0  0  0
  1  4  1  0  0  0  0
  2  1  2  0  0  0  0
  4  7  2  0  0  0  0
  5  6  1  0  0  0  0
  6 10  2  0  0  0  0
  7  8  1  0  0  0  0
  8  3  2  0  0  0  0
  9 30  1  1  0  0  0
  9  8  1  0  0  0  0
 10  9  1  0  0  0  0
 11  5  2  0  0  0  0
 11  2  1  0  0  0  0
 12 14  1  0  0  0  0
 12  5  1  1  0  0  0
 13 15  1  6  0  0  0
 13 12  1  0  0  0  0
 13 14  1  0  0  0  0
 14 16  1  6  0  0  0
 15 12  1  0  0  0  0
 17 18  1  0  0  0  0
 17 16  1  0  0  0  0
 19 18  1  6  0  0  0
 19 20  1  0  0  0  0
 20 22  2  0  0  0  0
 20 21  1  0  0  0  0
 23 19  1  0  0  0  0
 23 24  2  0  0  0  0
 25 23  2  0  0  0  0
 26 29  1  0  0  0  0
 26 23  1  0  0  0  0
 27 29  2  0  0  0  0
 29 28  1  0  0  0  0
 30 31  2  0  0  0  0
 32 34  1  0  0  0  0
 32  2  1  0  0  0  0
 34 33  1  6  0  0  0
 34 35  1  0  0  0  0
 35 36  1  0  0  0  0
 37 41  1  0  0  0  0
 37 43  1  0  0  0  0
 38 42  2  6  0  0  0
 38 41  1  0  0  0  0
 39 37  2  0  0  0  0
 40 36  1  6  0  0  0
 40 38  1  0  0  0  0
 40 39  1  0  0  0  0
 43 45  1  0  0  0  0
 44 46  1  0  0  0  0
 45 44  1  0  0  0  0
 45 46  1  0  0  0  0
M  END
>  <MODEL>
3

>  <REMARK>
 VINA RESULT:      -7.5      4.814      9.734
  Name = 
  17 active torsions:
  status: ('A' for Active; 'I' for Inactive)
    1  A    between atoms: C_2  and  C_40
    2  A    between atoms: C_3  and  C_23
    3  A    between atoms: C_4  and  C_42
    4  A    between atoms: C_6  and  S_14
    5  A    between atoms: C_6  and  C_33
    6  A    between atoms: C_7  and  N_9
    7  A    between atoms: N_9  and  C_15
    8  A    between atoms: S_14  and  C_42
    9  A    between atoms: C_15  and  N_35
   10  A    between atoms: C_16  and  C_21
   11  A    between atoms: N_19  and  C_20
   12  A    between atoms: N_19  and  C_32
   13  A    between atoms: C_20  and  C_43
   14  A    between atoms: C_22  and  C_23
   15  A    between atoms: C_27  and  C_37
   16  A    between atoms: N_35  and  C_37
   17  A    between atoms: C_42  and  C_43
                            x       y       z     vdW  Elec       q    Type
                         _______ _______ _______ _____ _____    ______ ____

>  <TORSDO>
F 17

$$$$
=
 OpenBabel10232408583D

 46 51  0  0  1  0  0  0  0  0999 V2000
  189.3780  176.9950  143.9660 C   0  0  0  0  0  0  0  0  0  0  0  0
  188.5830  177.0620  142.8120 C   0  0  0  0  0  0  0  0  0  0  0  0
  191.9730  177.1570  147.1130 O   0  0  0  0  0  0  0  0  0  0  0  0
  190.7110  176.3680  143.9320 C   0  0  0  0  0  3  0  0  0  0  0  0
  186.9170  178.2940  144.0660 C   0  0  0  0  0  0  0  0  0  0  0  0
  187.7010  178.1960  145.1770 N   0  0  0  0  0  0  0  0  0  0  0  0
  191.4940  176.3980  144.9660 N   0  0  0  0  0  0  0  0  0  0  0  0
  191.1150  177.0150  146.2020 C   0  0  0  0  0  0  0  0  0  0  0  0
  189.6970  177.4560  146.4450 C   0  0  1  0  0  3  0  0  0  0  0  0
  188.9080  177.5680  145.1610 C   0  0  0  0  0  0  0  0  0  0  0  0
  187.3450  177.7150  142.8700 C   0  0  0  0  0  3  0  0  0  0  0  0
  185.5800  178.9850  144.1100 C   0  0  2  0  0  0  0  0  0  0  0  0
  184.5750  178.0390  144.7550 C   0  0  2  0  0  3  0  0  0  0  0  0
  184.5070  178.3210  143.2660 C   0  0  1  0  0  3  0  0  0  0  0  0
  185.0940  179.2340  145.5250 C   0  0  0  0  0  2  0  0  0  0  0  0
  183.4350  179.2650  142.9940 N   0  0  0  0  0  2  0  0  0  0  0  0
  182.5090  178.5910  142.1040 C   0  0  0  0  0  2  0  0  0  0  0  0
  183.2840  177.8110  141.0620 C   0  0  0  0  0  2  0  0  0  0  0  0
  183.1590  178.4920  139.7080 C   0  0  1  0  0  3  0  0  0  0  0  0
  184.3460  179.3630  139.4580 C   0  0  0  0  0  0  0  0  0  0  0  0
  185.6200  178.9530  139.8350 O   0  0  0  0  0  1  0  0  0  0  0  0
  184.1870  180.4870  138.9180 O   0  0  0  0  0  0  0  0  0  0  0  0
  182.9600  177.2880  138.3950 S   0  0  0  0  0  0  0  0  0  0  0  0
  181.5630  177.3600  137.8470 O   0  0  0  0  0  0  0  0  0  0  0  0
  183.2070  175.9050  138.9310 O   0  0  0  0  0  0  0  0  0  0  0  0
  184.1240  177.6220  137.0860 C   0  0  0  0  0  2  0  0  0  0  0  0
  186.2430  176.6110  137.4900 O   0  0  0  0  0  1  0  0  0  0  0  0
  184.7760  175.3710  136.2390 O   0  0  0  0  0  0  0  0  0  0  0  0
  185.1040  176.5090  136.9640 C   0  0  0  0  0  0  0  0  0  0  0  0
  189.0370  176.4970  147.3890 C   0  0  0  0  0  3  0  0  0  0  0  0
  188.2200  176.9220  148.3500 C   0  0  0  0  0  2  0  0  0  0  0  0
  189.0490  176.4920  141.5830 N   0  0  0  0  0  2  0  0  0  0  0  0
  188.9540  178.1270  139.7540 C   0  0  0  0  0  1  0  0  0  0  0  0
  189.8400  177.2260  140.6010 C   0  0  2  0  0  3  0  0  0  0  0  0
  190.6260  176.3110  139.7710 N   0  0  0  0  0  2  0  0  0  0  0  0
  189.9920  176.1250  138.4680 C   0  0  0  0  0  2  0  0  0  0  0  0
  193.1110  174.9140  137.6620 C   0  0  0  0  0  0  0  0  0  0  0  0
  190.8840  174.4330  136.4720 S   0  0  1  0  0  0  0  0  0  0  0  0
  192.3850  175.9330  137.9970 N   0  0  0  0  0  0  0  0  0  0  0  0
  191.0570  175.9780  137.3940 C   0  0  2  0  0  3  0  0  0  0  0  0
  192.5320  173.9700  136.7750 N   0  0  0  0  0  2  0  0  0  0  0  0
  190.0980  173.5090  137.3950 O   0  0  0  0  0  0  0  0  0  0  0  0
  194.5060  174.7640  138.1540 C   0  0  0  0  0  2  0  0  0  0  0  0
  196.7240  173.7890  137.6660 C   0  0  0  0  0  2  0  0  0  0  0  0
  195.2620  173.7870  137.2720 C   0  0  0  0  0  3  0  0  0  0  0  0
  195.8180  172.6750  138.1360 C   0  0  0  0  0  2  0  0  0  0  0  0
  1 10  1  0  0  0  0
  2 11  1  0  0  0  0
  2  1  2  0  0  0  0
  4  1  1  0  0  0  0
  4  7  2  0  0  0  0
  5  6  1  0  0  0  0
  7  8  1  0  0  0  0
  8  9  1  0  0  0  0
  8  3  2  0  0  0  0
  9 30  1  1  0  0  0
 10  6  2  0  0  0  0
 10  9  1  0  0  0  0
 11  5  2  0  0  0  0
 12  5  1  6  0  0  0
 12 13  1  0  0  0  0
 12 15  1  0  0  0  0
 13 15  1  1  0  0  0
 14 16  1  1  0  0  0
 14 12  1  0  0  0  0
 14 13  1  0  0  0  0
 17 16  1  0  0  0  0
 18 17  1  0  0  0  0
 19 18  1  1  0  0  0
 20 19  1  0  0  0  0
 20 21  1  0  0  0  0
 22 20  2  0  0  0  0
 23 25  2  0  0  0  0
 23 19  1  0  0  0  0
 24 23  2  0  0  0  0
 26 23  1  0  0  0  0
 28 29  2  0  0  0  0
 29 26  1  0  0  0  0
 29 27  1  0  0  0  0
 30 31  2  0  0  0  0
 32  2  1  0  0  0  0
 34 33  1  6  0  0  0
 34 32  1  0  0  0  0
 35 34  1  0  0  0  0
 36 35  1  0  0  0  0
 37 39  2  0  0  0  0
 37 43  1  0  0  0  0
 38 41  1  0  0  0  0
 38 40  1  0  0  0  0
 38 42  2  1  0  0  0
 40 39  1  0  0  0  0
 40 36  1  1  0  0  0
 41 37  1  0  0  0  0
 44 46  1  0  0  0  0
 45 44  1  0  0  0  0
 45 46  1  0  0  0  0
 45 43  1  0  0  0  0
M  END
>  <MODEL>
4

>  <REMARK>
 VINA RESULT:      -7.4      3.430      7.689
  Name = 
  17 active torsions:
  status: ('A' for Active; 'I' for Inactive)
    1  A    between atoms: C_2  and  C_40
    2  A    between atoms: C_3  and  C_23
    3  A    between atoms: C_4  and  C_42
    4  A    between atoms: C_6  and  S_14
    5  A    between atoms: C_6  and  C_33
    6  A    between atoms: C_7  and  N_9
    7  A    between atoms: N_9  and  C_15
    8  A    between atoms: S_14  and  C_42
    9  A    between atoms: C_15  and  N_35
   10  A    between atoms: C_16  and  C_21
   11  A    between atoms: N_19  and  C_20
   12  A    between atoms: N_19  and  C_32
   13  A    between atoms: C_20  and  C_43
   14  A    between atoms: C_22  and  C_23
   15  A    between atoms: C_27  and  C_37
   16  A    between atoms: N_35  and  C_37
   17  A    between atoms: C_42  and  C_43
                            x       y       z     vdW  Elec       q    Type
                         _______ _______ _______ _____ _____    ______ ____

>  <TORSDO>
F 17

$$$$
=
 OpenBabel10232408583D

 46 51  0  0  1  0  0  0  0  0999 V2000
  188.5820  177.7700  140.7380 C   0  0  0  0  0  0  0  0  0  0  0  0
  187.6840  178.3020  139.8010 C   0  0  0  0  0  0  0  0  0  0  0  0
  190.8610  175.8560  143.5330 O   0  0  0  0  0  0  0  0  0  0  0  0
  188.3140  177.8620  142.1830 C   0  0  0  0  0  3  0  0  0  0  0  0
  189.0890  177.4610  138.0170 C   0  0  0  0  0  0  0  0  0  0  0  0
  189.9550  176.9710  138.9490 N   0  0  0  0  0  0  0  0  0  0  0  0
  189.0840  177.2790  143.0490 N   0  0  0  0  0  0  0  0  0  0  0  0
  190.2460  176.5330  142.6660 C   0  0  0  0  0  0  0  0  0  0  0  0
  190.7680  176.5810  141.2560 C   0  0  1  0  0  3  0  0  0  0  0  0
  189.7370  177.1060  140.2850 C   0  0  0  0  0  0  0  0  0  0  0  0
  187.9450  178.1460  138.4340 C   0  0  0  0  0  3  0  0  0  0  0  0
  189.3560  177.3100  136.5430 C   0  0  2  0  0  0  0  0  0  0  0  0
  188.6780  176.0320  136.0640 C   0  0  2  0  0  3  0  0  0  0  0  0
  190.1890  176.0940  136.1820 C   0  0  1  0  0  3  0  0  0  0  0  0
  188.0920  177.3810  135.7070 C   0  0  0  0  0  2  0  0  0  0  0  0
  190.7770  176.2690  134.8630 N   0  0  0  0  0  2  0  0  0  0  0  0
  191.3070  174.9760  134.4740 C   0  0  0  0  0  2  0  0  0  0  0  0
  192.8200  175.0070  134.5380 C   0  0  0  0  0  2  0  0  0  0  0  0
  193.3170  173.9570  135.5190 C   0  0  1  0  0  3  0  0  0  0  0  0
  194.5200  173.2650  134.9670 C   0  0  0  0  0  0  0  0  0  0  0  0
  195.7050  173.9610  134.7570 O   0  0  0  0  0  1  0  0  0  0  0  0
  194.4530  172.0450  134.6720 O   0  0  0  0  0  0  0  0  0  0  0  0
  193.6720  174.6820  137.1180 S   0  0  0  0  0  0  0  0  0  0  0  0
  192.4170  174.7330  137.9440 O   0  0  0  0  0  0  0  0  0  0  0  0
  194.1980  176.0790  136.9390 O   0  0  0  0  0  0  0  0  0  0  0  0
  194.8970  173.7040  137.9680 C   0  0  0  0  0  2  0  0  0  0  0  0
  195.6550  175.0160  139.8070 O   0  0  0  0  0  1  0  0  0  0  0  0
  197.0480  174.9610  137.9890 O   0  0  0  0  0  0  0  0  0  0  0  0
  195.8860  174.5840  138.6480 C   0  0  0  0  0  0  0  0  0  0  0  0
  192.0070  177.4240  141.2180 C   0  0  0  0  0  3  0  0  0  0  0  0
  192.8830  177.3230  140.2200 C   0  0  0  0  0  2  0  0  0  0  0  0
  186.4980  178.9740  140.2440 N   0  0  0  0  0  2  0  0  0  0  0  0
  184.5500  178.7430  138.7660 C   0  0  0  0  0  1  0  0  0  0  0  0
  185.1570  178.4100  140.1210 C   0  0  2  0  0  3  0  0  0  0  0  0
  184.2970  178.8570  141.2190 N   0  0  0  0  0  2  0  0  0  0  0  0
  185.1000  179.2540  142.3730 C   0  0  0  0  0  2  0  0  0  0  0  0
  185.3850  178.7520  145.7650 C   0  0  0  0  0  0  0  0  0  0  0  0
  183.2360  178.7720  144.3560 S   0  0  1  0  0  0  0  0  0  0  0  0
  185.8220  178.4780  144.5780 N   0  0  0  0  0  0  0  0  0  0  0  0
  184.7950  178.3420  143.5500 C   0  0  2  0  0  3  0  0  0  0  0  0
  183.9820  178.9000  145.9210 N   0  0  0  0  0  2  0  0  0  0  0  0
  182.9860  180.2280  143.9810 O   0  0  0  0  0  0  0  0  0  0  0  0
  186.3110  178.8640  146.9240 C   0  0  0  0  0  2  0  0  0  0  0  0
  188.5460  177.8240  146.7460 C   0  0  0  0  0  2  0  0  0  0  0  0
  187.0920  177.5730  147.0870 C   0  0  0  0  0  3  0  0  0  0  0  0
  188.1110  177.7520  148.1920 C   0  0  0  0  0  2  0  0  0  0  0  0
  1  4  1  0  0  0  0
  2 32  1  0  0  0  0
  2  1  2  0  0  0  0
  4  7  2  0  0  0  0
  5 11  2  0  0  0  0
  5  6  1  0  0  0  0
  6 10  2  0  0  0  0
  8  7  1  0  0  0  0
  8  3  2  0  0  0  0
  9 30  1  1  0  0  0
  9  8  1  0  0  0  0
 10  1  1  0  0  0  0
 10  9  1  0  0  0  0
 11  2  1  0  0  0  0
 12  5  1  1  0  0  0
 13 15  1  6  0  0  0
 13 14  1  0  0  0  0
 13 12  1  0  0  0  0
 14 16  1  6  0  0  0
 14 12  1  0  0  0  0
 15 12  1  0  0  0  0
 17 18  1  0  0  0  0
 17 16  1  0  0  0  0
 19 18  1  6  0  0  0
 19 23  1  0  0  0  0
 20 19  1  0  0  0  0
 21 20  1  0  0  0  0
 22 20  2  0  0  0  0
 23 24  2  0  0  0  0
 23 26  1  0  0  0  0
 25 23  2  0  0  0  0
 26 29  1  0  0  0  0
 28 29  2  0  0  0  0
 29 27  1  0  0  0  0
 31 30  2  0  0  0  0
 34 33  1  6  0  0  0
 34 32  1  0  0  0  0
 34 35  1  0  0  0  0
 35 36  1  0  0  0  0
 37 41  1  0  0  0  0
 37 43  1  0  0  0  0
 38 42  2  6  0  0  0
 38 41  1  0  0  0  0
 39 37  2  0  0  0  0
 40 36  1  6  0  0  0
 40 38  1  0  0  0  0
 40 39  1  0  0  0  0
 43 45  1  0  0  0  0
 44 45  1  0  0  0  0
 44 46  1  0  0  0  0
 45 46  1  0  0  0  0
M  END
>  <MODEL>
5

>  <REMARK>
 VINA RESULT:      -7.3      3.674      9.761
  Name = 
  17 active torsions:
  status: ('A' for Active; 'I' for Inactive)
    1  A    between atoms: C_2  and  C_40
    2  A    between atoms: C_3  and  C_23
    3  A    between atoms: C_4  and  C_42
    4  A    between atoms: C_6  and  S_14
    5  A    between atoms: C_6  and  C_33
    6  A    between atoms: C_7  and  N_9
    7  A    between atoms: N_9  and  C_15
    8  A    between atoms: S_14  and  C_42
    9  A    between atoms: C_15  and  N_35
   10  A    between atoms: C_16  and  C_21
   11  A    between atoms: N_19  and  C_20
   12  A    between atoms: N_19  and  C_32
   13  A    between atoms: C_20  and  C_43
   14  A    between atoms: C_22  and  C_23
   15  A    between atoms: C_27  and  C_37
   16  A    between atoms: N_35  and  C_37
   17  A    between atoms: C_42  and  C_43
                            x       y       z     vdW  Elec       q    Type
                         _______ _______ _______ _____ _____    ______ ____

>  <TORSDO>
F 17

$$$$
=
 OpenBabel10232408583D

 46 51  0  0  1  0  0  0  0  0999 V2000
  185.6440  178.5310  140.6040 C   0  0  0  0  0  0  0  0  0  0  0  0
  187.0370  178.4550  140.4580 C   0  0  0  0  0  0  0  0  0  0  0  0
  181.6480  179.2480  141.0350 O   0  0  0  0  0  0  0  0  0  0  0  0
  185.0360  178.9010  141.8930 C   0  0  0  0  0  3  0  0  0  0  0  0
  186.7340  177.9370  138.1120 C   0  0  0  0  0  0  0  0  0  0  0  0
  185.3830  177.9980  138.2870 N   0  0  0  0  0  0  0  0  0  0  0  0
  183.7560  179.0780  142.0080 N   0  0  0  0  0  0  0  0  0  0  0  0
  182.8540  178.9060  140.9080 C   0  0  0  0  0  0  0  0  0  0  0  0
  183.3140  178.2830  139.6180 C   0  0  1  0  0  3  0  0  0  0  0  0
  184.8190  178.2840  139.4910 C   0  0  0  0  0  0  0  0  0  0  0  0
  187.5790  178.1540  139.2020 C   0  0  0  0  0  3  0  0  0  0  0  0
  187.3370  177.6080  136.7720 C   0  0  2  0  0  0  0  0  0  0  0  0
  186.6020  176.4010  136.2020 C   0  0  2  0  0  3  0  0  0  0  0  0
  188.0230  176.2550  136.7120 C   0  0  1  0  0  3  0  0  0  0  0  0
  186.3540  177.7790  135.6290 C   0  0  0  0  0  2  0  0  0  0  0  0
  188.9450  176.2160  135.5880 N   0  0  0  0  0  2  0  0  0  0  0  0
  190.1450  176.9100  136.0160 C   0  0  0  0  0  2  0  0  0  0  0  0
  191.1330  175.9130  136.5840 C   0  0  0  0  0  2  0  0  0  0  0  0
  192.0230  176.5940  137.6120 C   0  0  1  0  0  3  0  0  0  0  0  0
  191.3530  176.6030  138.9460 C   0  0  0  0  0  0  0  0  0  0  0  0
  191.5540  177.6540  139.8350 O   0  0  0  0  0  1  0  0  0  0  0  0
  190.6150  175.6400  139.2760 O   0  0  0  0  0  0  0  0  0  0  0  0
  193.6270  175.8010  137.7050 S   0  0  0  0  0  0  0  0  0  0  0  0
  194.2510  176.0730  139.0450 O   0  0  0  0  0  0  0  0  0  0  0  0
  194.5250  176.3410  136.6270 O   0  0  0  0  0  0  0  0  0  0  0  0
  193.4460  174.0410  137.4860 C   0  0  0  0  0  2  0  0  0  0  0  0
  195.4610  173.1210  136.6090 O   0  0  0  0  0  0  0  0  0  0  0  0
  195.2040  172.9570  138.8800 O   0  0  0  0  0  1  0  0  0  0  0  0
  194.7620  173.3610  137.6280 C   0  0  0  0  0  0  0  0  0  0  0  0
  182.7770  176.8870  139.5260 C   0  0  0  0  0  3  0  0  0  0  0  0
  181.9460  176.5270  138.5500 C   0  0  0  0  0  2  0  0  0  0  0  0
  187.8930  178.7110  141.5780 N   0  0  0  0  0  2  0  0  0  0  0  0
  188.9330  176.5860  142.2350 C   0  0  0  0  0  1  0  0  0  0  0  0
  189.1620  178.0260  141.7980 C   0  0  2  0  0  3  0  0  0  0  0  0
  189.9910  178.7530  142.7610 N   0  0  0  0  0  2  0  0  0  0  0  0
  190.9420  177.8520  143.4070 C   0  0  0  0  0  2  0  0  0  0  0  0
  189.2370  177.4770  146.3730 C   0  0  0  0  0  0  0  0  0  0  0  0
  191.6210  176.6890  145.8210 S   0  0  1  0  0  0  0  0  0  0  0  0
  189.5740  178.2560  145.3950 N   0  0  0  0  0  0  0  0  0  0  0  0
  190.9400  178.0920  144.9080 C   0  0  2  0  0  3  0  0  0  0  0  0
  190.2170  176.5610  146.8380 N   0  0  0  0  0  2  0  0  0  0  0  0
  191.4690  175.4970  144.8830 O   0  0  0  0  0  0  0  0  0  0  0  0
  187.8960  177.5700  147.0090 C   0  0  0  0  0  2  0  0  0  0  0  0
  186.0370  177.6750  145.3840 C   0  0  0  0  0  2  0  0  0  0  0  0
  187.0070  178.4990  146.2040 C   0  0  0  0  0  3  0  0  0  0  0  0
  185.5740  178.3290  146.6650 C   0  0  0  0  0  2  0  0  0  0  0  0
  1  4  1  0  0  0  0
  2  1  1  0  0  0  0
  2 32  1  0  0  0  0
  4  7  2  0  0  0  0
  5  6  2  0  0  0  0
  5 11  1  0  0  0  0
  6 10  1  0  0  0  0
  8  3  2  0  0  0  0
  8  7  1  0  0  0  0
  9 30  1  1  0  0  0
  9  8  1  0  0  0  0
 10  9  1  0  0  0  0
 10  1  2  0  0  0  0
 11  2  2  0  0  0  0
 12  5  1  1  0  0  0
 13 15  1  6  0  0  0
 13 14  1  0  0  0  0
 13 12  1  0  0  0  0
 14 16  1  6  0  0  0
 14 12  1  0  0  0  0
 15 12  1  0  0  0  0
 16 17  1  0  0  0  0
 17 18  1  0  0  0  0
 19 18  1  6  0  0  0
 19 23  1  0  0  0  0
 19 20  1  0  0  0  0
 20 22  2  0  0  0  0
 20 21  1  0  0  0  0
 23 24  2  0  0  0  0
 25 23  2  0  0  0  0
 26 29  1  0  0  0  0
 26 23  1  0  0  0  0
 27 29  2  0  0  0  0
 29 28  1  0  0  0  0
 31 30  2  0  0  0  0
 32 34  1  0  0  0  0
 34 33  1  1  0  0  0
 34 35  1  0  0  0  0
 35 36  1  0  0  0  0
 37 41  1  0  0  0  0
 37 43  1  0  0  0  0
 38 42  2  6  0  0  0
 38 41  1  0  0  0  0
 39 37  2  0  0  0  0
 40 36  1  6  0  0  0
 40 39  1  0  0  0  0
 40 38  1  0  0  0  0
 44 45  1  0  0  0  0
 44 46  1  0  0  0  0
 45 46  1  0  0  0  0
 45 43  1  0  0  0  0
M  END
>  <MODEL>
6

>  <REMARK>
 VINA RESULT:      -7.0      3.056      7.835
  Name = 
  17 active torsions:
  status: ('A' for Active; 'I' for Inactive)
    1  A    between atoms: C_2  and  C_40
    2  A    between atoms: C_3  and  C_23
    3  A    between atoms: C_4  and  C_42
    4  A    between atoms: C_6  and  S_14
    5  A    between atoms: C_6  and  C_33
    6  A    between atoms: C_7  and  N_9
    7  A    between atoms: N_9  and  C_15
    8  A    between atoms: S_14  and  C_42
    9  A    between atoms: C_15  and  N_35
   10  A    between atoms: C_16  and  C_21
   11  A    between atoms: N_19  and  C_20
   12  A    between atoms: N_19  and  C_32
   13  A    between atoms: C_20  and  C_43
   14  A    between atoms: C_22  and  C_23
   15  A    between atoms: C_27  and  C_37
   16  A    between atoms: N_35  and  C_37
   17  A    between atoms: C_42  and  C_43
                            x       y       z     vdW  Elec       q    Type
                         _______ _______ _______ _____ _____    ______ ____

>  <TORSDO>
F 17

$$$$
=
 OpenBabel10232408583D

 46 51  0  0  1  0  0  0  0  0999 V2000
  184.0140  178.8240  140.4600 C   0  0  0  0  0  0  0  0  0  0  0  0
  185.0620  179.0040  141.3740 C   0  0  0  0  0  0  0  0  0  0  0  0
  180.9210  178.7990  137.7950 O   0  0  0  0  0  0  0  0  0  0  0  0
  182.6120  179.0260  140.8640 C   0  0  0  0  0  3  0  0  0  0  0  0
  186.6480  178.5400  139.6040 C   0  0  0  0  0  0  0  0  0  0  0  0
  185.6090  178.3510  138.7410 N   0  0  0  0  0  0  0  0  0  0  0  0
  181.6460  178.9670  140.0000 N   0  0  0  0  0  0  0  0  0  0  0  0
  181.8720  178.6840  138.6130 C   0  0  0  0  0  0  0  0  0  0  0  0
  183.2140  178.2070  138.1280 C   0  0  1  0  0  3  0  0  0  0  0  0
  184.3110  178.4820  139.1280 C   0  0  0  0  0  0  0  0  0  0  0  0
  186.3850  178.8570  140.9380 C   0  0  0  0  0  3  0  0  0  0  0  0
  188.0760  178.3790  139.1560 C   0  0  2  0  0  0  0  0  0  0  0  0
  188.2820  176.9330  138.7250 C   0  0  2  0  0  3  0  0  0  0  0  0
  188.8980  177.4350  140.0160 C   0  0  1  0  0  3  0  0  0  0  0  0
  188.1950  178.0290  137.6850 C   0  0  0  0  0  2  0  0  0  0  0  0
  190.3150  177.6890  139.8170 N   0  0  0  0  0  2  0  0  0  0  0  0
  190.9310  176.4030  139.5520 C   0  0  0  0  0  2  0  0  0  0  0  0
  191.8620  176.5200  138.3640 C   0  0  0  0  0  2  0  0  0  0  0  0
  192.0080  175.1670  137.6860 C   0  0  1  0  0  3  0  0  0  0  0  0
  190.8820  174.9450  136.7310 C   0  0  0  0  0  0  0  0  0  0  0  0
  190.4770  175.9530  135.8630 O   0  0  0  0  0  0  0  0  0  0  0  0
  190.2830  173.8400  136.7250 O   0  0  0  0  0  1  0  0  0  0  0  0
  193.5900  175.0280  136.8550 S   0  0  0  0  0  0  0  0  0  0  0  0
  194.2580  176.3740  136.8060 O   0  0  0  0  0  0  0  0  0  0  0  0
  193.3870  174.5300  135.4520 O   0  0  0  0  0  0  0  0  0  0  0  0
  194.6370  173.8830  137.7340 C   0  0  0  0  0  2  0  0  0  0  0  0
  195.3620  175.1950  139.5850 O   0  0  0  0  0  1  0  0  0  0  0  0
  196.9740  174.6940  138.0350 O   0  0  0  0  0  0  0  0  0  0  0  0
  195.6720  174.6160  138.5120 C   0  0  0  0  0  0  0  0  0  0  0  0
  183.1340  176.7420  137.8190 C   0  0  0  0  0  3  0  0  0  0  0  0
  183.0200  175.8350  138.7870 C   0  0  0  0  0  2  0  0  0  0  0  0
  184.7790  179.3610  142.7320 N   0  0  0  0  0  2  0  0  0  0  0  0
  183.5820  178.4660  144.6810 C   0  0  0  0  0  1  0  0  0  0  0  0
  184.8540  178.4220  143.8470 C   0  0  2  0  0  3  0  0  0  0  0  0
  186.0420  178.6740  144.6660 N   0  0  0  0  0  2  0  0  0  0  0  0
  185.9010  178.0550  145.9810 C   0  0  0  0  0  2  0  0  0  0  0  0
  189.3220  177.7430  145.7730 C   0  0  0  0  0  0  0  0  0  0  0  0
  187.8550  177.5810  147.8780 S   0  0  1  0  0  0  0  0  0  0  0  0
  188.1620  177.4310  145.2870 N   0  0  0  0  0  0  0  0  0  0  0  0
  187.1160  177.1910  146.2760 C   0  0  2  0  0  3  0  0  0  0  0  0
  189.4310  177.8270  147.1850 N   0  0  0  0  0  2  0  0  0  0  0  0
  187.3970  179.0010  148.1880 O   0  0  0  0  0  0  0  0  0  0  0  0
  190.4970  177.9610  144.8880 C   0  0  0  0  0  2  0  0  0  0  0  0
  190.2570  176.0520  143.3360 C   0  0  0  0  0  2  0  0  0  0  0  0
  191.0820  176.6250  144.4690 C   0  0  0  0  0  3  0  0  0  0  0  0
  191.5750  176.7310  143.0410 C   0  0  0  0  0  2  0  0  0  0  0  0
  1  4  1  0  0  0  0
  1  2  1  0  0  0  0
  2 32  1  0  0  0  0
  3  8  2  0  0  0  0
  5 11  1  0  0  0  0
  6 10  1  0  0  0  0
  6  5  2  0  0  0  0
  7  4  2  0  0  0  0
  8  7  1  0  0  0  0
  9 30  1  1  0  0  0
  9  8  1  0  0  0  0
  9 10  1  0  0  0  0
 10  1  2  0  0  0  0
 11  2  2  0  0  0  0
 12  5  1  1  0  0  0
 12 14  1  0  0  0  0
 13 15  1  6  0  0  0
 13 12  1  0  0  0  0
 13 14  1  0  0  0  0
 14 16  1  6  0  0  0
 15 12  1  0  0  0  0
 17 16  1  0  0  0  0
 18 17  1  0  0  0  0
 19 18  1  6  0  0  0
 20 19  1  0  0  0  0
 21 20  2  0  0  0  0
 22 20  1  0  0  0  0
 23 19  1  0  0  0  0
 23 26  1  0  0  0  0
 24 23  2  0  0  0  0
 25 23  2  0  0  0  0
 26 29  1  0  0  0  0
 28 29  2  0  0  0  0
 29 27  1  0  0  0  0
 30 31  2  0  0  0  0
 32 34  1  0  0  0  0
 34 35  1  0  0  0  0
 34 33  1  1  0  0  0
 35 36  1  0  0  0  0
 37 41  1  0  0  0  0
 38 42  2  6  0  0  0
 39 37  2  0  0  0  0
 39 40  1  0  0  0  0
 40 36  1  6  0  0  0
 40 38  1  0  0  0  0
 41 38  1  0  0  0  0
 43 37  1  0  0  0  0
 44 45  1  0  0  0  0
 45 43  1  0  0  0  0
 46 44  1  0  0  0  0
 46 45  1  0  0  0  0
M  END
>  <MODEL>
7

>  <REMARK>
 VINA RESULT:      -7.0      2.913      8.013
  Name = 
  17 active torsions:
  status: ('A' for Active; 'I' for Inactive)
    1  A    between atoms: C_2  and  C_40
    2  A    between atoms: C_3  and  C_23
    3  A    between atoms: C_4  and  C_42
    4  A    between atoms: C_6  and  S_14
    5  A    between atoms: C_6  and  C_33
    6  A    between atoms: C_7  and  N_9
    7  A    between atoms: N_9  and  C_15
    8  A    between atoms: S_14  and  C_42
    9  A    between atoms: C_15  and  N_35
   10  A    between atoms: C_16  and  C_21
   11  A    between atoms: N_19  and  C_20
   12  A    between atoms: N_19  and  C_32
   13  A    between atoms: C_20  and  C_43
   14  A    between atoms: C_22  and  C_23
   15  A    between atoms: C_27  and  C_37
   16  A    between atoms: N_35  and  C_37
   17  A    between atoms: C_42  and  C_43
                            x       y       z     vdW  Elec       q    Type
                         _______ _______ _______ _____ _____    ______ ____

>  <TORSDO>
F 17

$$$$
=
 OpenBabel10232408583D

 46 51  0  0  1  0  0  0  0  0999 V2000
  185.8990  178.6420  143.8620 C   0  0  0  0  0  0  0  0  0  0  0  0
  186.2650  178.7480  142.5120 C   0  0  0  0  0  0  0  0  0  0  0  0
  184.4600  178.0390  147.6350 O   0  0  0  0  0  0  0  0  0  0  0  0
  184.7120  179.3420  144.3830 C   0  0  0  0  0  3  0  0  0  0  0  0
  188.0860  177.2030  142.9140 C   0  0  0  0  0  0  0  0  0  0  0  0
  187.7200  177.1340  144.2250 N   0  0  0  0  0  0  0  0  0  0  0  0
  184.3060  179.1630  145.6030 N   0  0  0  0  0  0  0  0  0  0  0  0
  184.9880  178.3000  146.5220 C   0  0  0  0  0  0  0  0  0  0  0  0
  186.3450  177.7370  146.1950 C   0  0  1  0  0  3  0  0  0  0  0  0
  186.6580  177.8250  144.7200 C   0  0  0  0  0  0  0  0  0  0  0  0
  187.3670  178.0230  142.0420 C   0  0  0  0  0  3  0  0  0  0  0  0
  189.2720  176.4380  142.3900 C   0  0  2  0  0  0  0  0  0  0  0  0
  190.5340  177.2130  142.7460 C   0  0  2  0  0  3  0  0  0  0  0  0
  190.0530  177.1610  141.3080 C   0  0  1  0  0  3  0  0  0  0  0  0
  190.1870  175.9450  143.4950 C   0  0  0  0  0  2  0  0  0  0  0  0
  190.8560  176.2100  140.5560 N   0  0  0  0  0  2  0  0  0  0  0  0
  190.9430  176.7250  139.2030 C   0  0  0  0  0  2  0  0  0  0  0  0
  189.6310  176.4870  138.4840 C   0  0  0  0  0  2  0  0  0  0  0  0
  189.8910  176.2140  137.0110 C   0  0  1  0  0  3  0  0  0  0  0  0
  190.5860  174.9030  136.8450 C   0  0  0  0  0  0  0  0  0  0  0  0
  191.7530  174.8080  136.0960 O   0  0  0  0  0  0  0  0  0  0  0  0
  190.0990  173.8720  137.3740 O   0  0  0  0  0  1  0  0  0  0  0  0
  188.3680  176.2560  136.0680 S   0  0  0  0  0  0  0  0  0  0  0  0
  187.2470  175.6810  136.8870 O   0  0  0  0  0  0  0  0  0  0  0  0
  188.5240  175.4450  134.8120 O   0  0  0  0  0  0  0  0  0  0  0  0
  187.9740  177.9390  135.6300 C   0  0  0  0  0  2  0  0  0  0  0  0
  186.6590  178.7790  137.4300 O   0  0  0  0  0  1  0  0  0  0  0  0
  188.8170  179.5440  137.3390 O   0  0  0  0  0  0  0  0  0  0  0  0
  187.7770  178.7630  136.8540 C   0  0  0  0  0  0  0  0  0  0  0  0
  187.3840  178.4580  147.0000 C   0  0  0  0  0  3  0  0  0  0  0  0
  188.3360  177.7960  147.6540 C   0  0  0  0  0  2  0  0  0  0  0  0
  185.4990  179.5690  141.6220 N   0  0  0  0  0  2  0  0  0  0  0  0
  183.9800  177.6680  141.2860 C   0  0  0  0  0  1  0  0  0  0  0  0
  184.2480  179.1400  141.0040 C   0  0  2  0  0  3  0  0  0  0  0  0
  184.2520  179.4190  139.5660 N   0  0  0  0  0  2  0  0  0  0  0  0
  183.1360  180.2910  139.2080 C   0  0  0  0  0  2  0  0  0  0  0  0
  181.8440  177.2930  138.1180 C   0  0  0  0  0  0  0  0  0  0  0  0
  180.5480  179.3950  138.8320 S   0  0  1  0  0  0  0  0  0  0  0  0
  182.7170  178.2340  137.9500 N   0  0  0  0  0  0  0  0  0  0  0  0
  182.2330  179.5870  138.2080 C   0  0  2  0  0  3  0  0  0  0  0  0
  180.5460  177.6810  138.5420 N   0  0  0  0  0  2  0  0  0  0  0  0
  180.6770  179.4810  140.3480 O   0  0  0  0  0  0  0  0  0  0  0  0
  182.1770  175.8710  137.8390 C   0  0  0  0  0  2  0  0  0  0  0  0
  184.0870  174.3060  137.7210 C   0  0  0  0  0  2  0  0  0  0  0  0
  183.6530  175.7420  137.5090 C   0  0  0  0  0  3  0  0  0  0  0  0
  183.8120  174.8140  136.3230 C   0  0  0  0  0  2  0  0  0  0  0  0
  1  4  1  0  0  0  0
  1 10  1  0  0  0  0
  2  1  2  0  0  0  0
  4  7  2  0  0  0  0
  5  6  1  0  0  0  0
  6 10  2  0  0  0  0
  7  8  1  0  0  0  0
  8  3  2  0  0  0  0
  9  8  1  0  0  0  0
  9 30  1  1  0  0  0
 10  9  1  0  0  0  0
 11  2  1  0  0  0  0
 11  5  2  0  0  0  0
 12 13  1  0  0  0  0
 12  5  1  1  0  0  0
 12 15  1  0  0  0  0
 13 15  1  6  0  0  0
 14 16  1  6  0  0  0
 14 12  1  0  0  0  0
 14 13  1  0  0  0  0
 17 16  1  0  0  0  0
 18 17  1  0  0  0  0
 19 18  1  1  0  0  0
 20 19  1  0  0  0  0
 20 22  1  0  0  0  0
 21 20  2  0  0  0  0
 23 24  2  0  0  0  0
 23 19  1  0  0  0  0
 25 23  2  0  0  0  0
 26 23  1  0  0  0  0
 26 29  1  0  0  0  0
 29 28  2  0  0  0  0
 29 27  1  0  0  0  0
 30 31  2  0  0  0  0
 32  2  1  0  0  0  0
 34 33  1  6  0  0  0
 34 32  1  0  0  0  0
 35 34  1  0  0  0  0
 36 35  1  0  0  0  0
 37 41  1  0  0  0  0
 38 42  2  1  0  0  0
 39 37  2  0  0  0  0
 39 40  1  0  0  0  0
 40 38  1  0  0  0  0
 40 36  1  1  0  0  0
 41 38  1  0  0  0  0
 43 37  1  0  0  0  0
 45 44  1  0  0  0  0
 45 43  1  0  0  0  0
 46 45  1  0  0  0  0
 46 44  1  0  0  0  0
M  END
>  <MODEL>
8

>  <REMARK>
 VINA RESULT:      -7.0      3.294      7.822
  Name = 
  17 active torsions:
  status: ('A' for Active; 'I' for Inactive)
    1  A    between atoms: C_2  and  C_40
    2  A    between atoms: C_3  and  C_23
    3  A    between atoms: C_4  and  C_42
    4  A    between atoms: C_6  and  S_14
    5  A    between atoms: C_6  and  C_33
    6  A    between atoms: C_7  and  N_9
    7  A    between atoms: N_9  and  C_15
    8  A    between atoms: S_14  and  C_42
    9  A    between atoms: C_15  and  N_35
   10  A    between atoms: C_16  and  C_21
   11  A    between atoms: N_19  and  C_20
   12  A    between atoms: N_19  and  C_32
   13  A    between atoms: C_20  and  C_43
   14  A    between atoms: C_22  and  C_23
   15  A    between atoms: C_27  and  C_37
   16  A    between atoms: N_35  and  C_37
   17  A    between atoms: C_42  and  C_43
                            x       y       z     vdW  Elec       q    Type
                         _______ _______ _______ _____ _____    ______ ____

>  <TORSDO>
F 17

$$$$
=
 OpenBabel10232408583D

 46 51  0  0  1  0  0  0  0  0999 V2000
  185.8140  178.6560  143.7420 C   0  0  0  0  0  0  0  0  0  0  0  0
  186.1260  178.7950  142.3820 C   0  0  0  0  0  0  0  0  0  0  0  0
  184.5180  177.9730  147.5530 O   0  0  0  0  0  0  0  0  0  0  0  0
  184.6650  179.3660  144.3320 C   0  0  0  0  0  3  0  0  0  0  0  0
  187.9270  177.2000  142.6620 C   0  0  0  0  0  0  0  0  0  0  0  0
  187.6140  177.1000  143.9860 N   0  0  0  0  0  0  0  0  0  0  0  0
  184.3060  179.1590  145.5610 N   0  0  0  0  0  0  0  0  0  0  0  0
  185.0060  178.2560  146.4260 C   0  0  0  0  0  0  0  0  0  0  0  0
  186.3350  177.6740  146.0270 C   0  0  1  0  0  3  0  0  0  0  0  0
  186.5890  177.7980  144.5440 C   0  0  0  0  0  0  0  0  0  0  0  0
  187.1920  178.0610  141.8450 C   0  0  0  0  0  3  0  0  0  0  0  0
  189.0730  176.4260  142.0680 C   0  0  2  0  0  0  0  0  0  0  0  0
  190.3710  177.1310  142.4430 C   0  0  2  0  0  3  0  0  0  0  0  0
  189.8610  177.1860  141.0160 C   0  0  1  0  0  3  0  0  0  0  0  0
  189.9900  175.8330  143.1210 C   0  0  0  0  0  2  0  0  0  0  0  0
  190.6130  176.2550  140.1900 N   0  0  0  0  0  2  0  0  0  0  0  0
  191.4470  177.0590  139.3180 C   0  0  0  0  0  2  0  0  0  0  0  0
  191.1130  176.7530  137.8720 C   0  0  0  0  0  2  0  0  0  0  0  0
  189.6970  176.2080  137.7740 C   0  0  1  0  0  3  0  0  0  0  0  0
  188.7800  177.2520  137.2280 C   0  0  0  0  0  0  0  0  0  0  0  0
  187.4410  177.2870  137.6030 O   0  0  0  0  0  1  0  0  0  0  0  0
  189.2200  178.0970  136.4070 O   0  0  0  0  0  0  0  0  0  0  0  0
  189.6460  174.7220  136.7720 S   0  0  0  0  0  0  0  0  0  0  0  0
  190.3850  173.6140  137.4680 O   0  0  0  0  0  0  0  0  0  0  0  0
  190.2920  174.9830  135.4400 O   0  0  0  0  0  0  0  0  0  0  0  0
  187.9530  174.2270  136.5110 C   0  0  0  0  0  2  0  0  0  0  0  0
  187.8240  173.0080  134.4680 O   0  0  0  0  0  0  0  0  0  0  0  0
  187.8820  171.7400  136.3760 O   0  0  0  0  0  1  0  0  0  0  0  0
  187.8950  172.9650  135.7240 C   0  0  0  0  0  0  0  0  0  0  0  0
  187.4220  178.3490  146.8080 C   0  0  0  0  0  3  0  0  0  0  0  0
  188.2330  177.6580  147.6070 C   0  0  0  0  0  2  0  0  0  0  0  0
  185.3430  179.6570  141.5480 N   0  0  0  0  0  2  0  0  0  0  0  0
  183.8920  177.7380  141.0550 C   0  0  0  0  0  1  0  0  0  0  0  0
  184.1420  179.2240  140.8410 C   0  0  2  0  0  3  0  0  0  0  0  0
  184.2240  179.5530  139.4160 N   0  0  0  0  0  2  0  0  0  0  0  0
  182.8930  179.7870  138.8640 C   0  0  0  0  0  2  0  0  0  0  0  0
  183.3810  176.6330  137.5760 C   0  0  0  0  0  0  0  0  0  0  0  0
  181.1480  177.8520  137.9400 S   0  0  1  0  0  0  0  0  0  0  0  0
  183.7370  177.8790  137.5860 N   0  0  0  0  0  0  0  0  0  0  0  0
  182.6430  178.8390  137.7030 C   0  0  2  0  0  3  0  0  0  0  0  0
  181.9950  176.3540  137.6920 N   0  0  0  0  0  2  0  0  0  0  0  0
  180.9060  177.8580  139.4450 O   0  0  0  0  0  0  0  0  0  0  0  0
  184.3810  175.5450  137.4070 C   0  0  0  0  0  2  0  0  0  0  0  0
  183.9300  173.2740  136.5440 C   0  0  0  0  0  2  0  0  0  0  0  0
  183.7440  174.2050  137.7230 C   0  0  0  0  0  3  0  0  0  0  0  0
  184.8240  173.1440  137.7560 C   0  0  0  0  0  2  0  0  0  0  0  0
  1  4  1  0  0  0  0
  1 10  1  0  0  0  0
  2  1  2  0  0  0  0
  4  7  2  0  0  0  0
  5  6  1  0  0  0  0
  6 10  2  0  0  0  0
  7  8  1  0  0  0  0
  8  3  2  0  0  0  0
  9  8  1  0  0  0  0
  9 30  1  1  0  0  0
 10  9  1  0  0  0  0
 11  2  1  0  0  0  0
 11  5  2  0  0  0  0
 12 13  1  0  0  0  0
 12  5  1  1  0  0  0
 12 15  1  0  0  0  0
 13 15  1  6  0  0  0
 14 16  1  6  0  0  0
 14 12  1  0  0  0  0
 14 13  1  0  0  0  0
 17 16  1  0  0  0  0
 18 17  1  0  0  0  0
 19 18  1  6  0  0  0
 20 21  1  0  0  0  0
 20 19  1  0  0  0  0
 22 20  2  0  0  0  0
 23 24  2  0  0  0  0
 23 19  1  0  0  0  0
 25 23  2  0  0  0  0
 26 23  1  0  0  0  0
 27 29  2  0  0  0  0
 29 28  1  0  0  0  0
 29 26  1  0  0  0  0
 30 31  2  0  0  0  0
 32  2  1  0  0  0  0
 34 33  1  6  0  0  0
 34 32  1  0  0  0  0
 35 34  1  0  0  0  0
 36 35  1  0  0  0  0
 37 39  2  0  0  0  0
 37 41  1  0  0  0  0
 38 42  2  1  0  0  0
 39 40  1  0  0  0  0
 40 38  1  0  0  0  0
 40 36  1  1  0  0  0
 41 38  1  0  0  0  0
 43 37  1  0  0  0  0
 43 45  1  0  0  0  0
 44 45  1  0  0  0  0
 44 46  1  0  0  0  0
 45 46  1  0  0  0  0
M  END
>  <MODEL>
9

>  <REMARK>
 VINA RESULT:      -6.9      3.152      7.749
  Name = 
  17 active torsions:
  status: ('A' for Active; 'I' for Inactive)
    1  A    between atoms: C_2  and  C_40
    2  A    between atoms: C_3  and  C_23
    3  A    between atoms: C_4  and  C_42
    4  A    between atoms: C_6  and  S_14
    5  A    between atoms: C_6  and  C_33
    6  A    between atoms: C_7  and  N_9
    7  A    between atoms: N_9  and  C_15
    8  A    between atoms: S_14  and  C_42
    9  A    between atoms: C_15  and  N_35
   10  A    between atoms: C_16  and  C_21
   11  A    between atoms: N_19  and  C_20
   12  A    between atoms: N_19  and  C_32
   13  A    between atoms: C_20  and  C_43
   14  A    between atoms: C_22  and  C_23
   15  A    between atoms: C_27  and  C_37
   16  A    between atoms: N_35  and  C_37
   17  A    between atoms: C_42  and  C_43
                            x       y       z     vdW  Elec       q    Type
                         _______ _______ _______ _____ _____    ______ ____

>  <TORSDO>
F 17

$$$$
