=
 OpenBabel10232410013D

 26 30  0  0  0  0  0  0  0  0999 V2000
  190.0730  176.9800  145.2010 C   0  0  0  0  0  0  0  0  0  0  0  0
  183.5090  178.9690  144.3220 C   0  0  0  0  0  3  0  0  0  0  0  0
  192.0420  176.4580  146.4740 N   0  0  0  0  0  0  0  0  0  0  0  0
  185.1520  178.5800  146.0140 C   0  0  0  0  0  3  0  0  0  0  0  0
  184.4090  178.6110  143.3070 C   0  0  0  0  0  3  0  0  0  0  0  0
  187.3990  177.8170  145.2130 C   0  0  0  0  0  0  0  0  0  0  0  0
  186.0720  178.2190  145.0310 C   0  0  0  0  0  0  0  0  0  0  0  0
  189.3760  177.1040  143.9610 C   0  0  0  0  0  0  0  0  0  0  0  0
  188.0690  177.6990  146.4280 C   0  0  0  0  0  3  0  0  0  0  0  0
  190.0800  177.1590  147.6380 C   0  0  0  0  0  3  0  0  0  0  0  0
  183.8940  178.9460  145.6340 N   0  0  0  0  0  0  0  0  0  0  0  0
  185.6910  178.2390  143.6970 C   0  0  0  0  0  0  0  0  0  0  0  0
  186.9780  177.7620  142.7190 S   0  0  0  0  0  0  0  0  0  0  0  0
  189.4040  177.2800  146.4240 C   0  0  0  0  0  0  0  0  0  0  0  0
  191.4100  176.5660  145.2760 C   0  0  0  0  0  3  0  0  0  0  0  0
  191.4110  176.7430  147.6430 C   0  0  0  0  0  3  0  0  0  0  0  0
  188.0440  177.5250  144.0140 C   0  0  0  0  0  0  0  0  0  0  0  0
  190.7210  177.6200  141.9940 C   0  0  0  0  0  3  0  0  0  0  0  0
  189.9480  176.8290  142.6680 N   0  0  0  0  0  0  0  0  0  0  0  0
  190.9620  176.3430  138.4500 C   0  0  0  0  0  3  0  0  0  0  0  0
  192.3260  176.5370  138.2210 C   0  0  0  0  0  0  0  0  0  0  0  0
  191.2490  177.2380  140.6820 C   0  0  0  0  0  0  0  0  0  0  0  0
  190.4240  176.6960  139.6880 C   0  0  0  0  0  3  0  0  0  0  0  0
  192.6080  177.4150  140.4090 C   0  0  0  0  0  3  0  0  0  0  0  0
  193.1130  177.0650  139.1970 N   0  0  0  0  0  0  0  0  0  0  0  0
  193.0220  176.1020  136.6760 Cl  0  0  0  0  0  0  0  0  0  0  0  0
  1 15  1  0  0  0  0
  1 14  1  0  0  0  0
  2 11  1  0  0  0  0
  3 16  1  0  0  0  0
  5 12  1  0  0  0  0
  5  2  2  0  0  0  0
  6  9  1  0  0  0  0
  7  6  1  0  0  0  0
  7  4  1  0  0  0  0
  8 17  1  0  0  0  0
  8  1  2  0  0  0  0
 10 16  2  0  0  0  0
 11  4  2  0  0  0  0
 12  7  2  0  0  0  0
 13 12  1  0  0  0  0
 13 17  1  0  0  0  0
 14  9  2  0  0  0  0
 14 10  1  0  0  0  0
 15  3  2  0  0  0  0
 17  6  2  0  0  0  0
 18 19  2  0  0  0  0
 19  8  1  0  0  0  0
 20 23  1  0  0  0  0
 21 20  2  0  0  0  0
 21 25  1  0  0  0  0
 22 18  1  0  0  0  0
 23 22  2  0  0  0  0
 24 22  1  0  0  0  0
 25 24  2  0  0  0  0
 26 21  1  0  0  0  0
M  END
>  <MODEL>
1

>  <REMARK>
 VINA RESULT:     -10.9      0.000      0.000
  Name = 
  2 active torsions:
  status: ('A' for Active; 'I' for Inactive)
    1  A    between atoms: C_3  and  C_9
    2  A    between atoms: N_6  and  C_14
                            x       y       z     vdW  Elec       q    Type
                         _______ _______ _______ _____ _____    ______ ____

>  <TORSDO>
F 2

$$$$
=
 OpenBabel10232410013D

 26 30  0  0  0  0  0  0  0  0999 V2000
  185.9660  178.1580  143.6080 C   0  0  0  0  0  0  0  0  0  0  0  0
  191.8200  176.4980  146.8930 C   0  0  0  0  0  3  0  0  0  0  0  0
  183.6720  178.8580  143.4560 N   0  0  0  0  0  0  0  0  0  0  0  0
  189.5720  177.2100  147.2870 C   0  0  0  0  0  3  0  0  0  0  0  0
  191.6200  176.4980  145.5040 C   0  0  0  0  0  3  0  0  0  0  0  0
  188.1540  177.5570  145.2510 C   0  0  0  0  0  0  0  0  0  0  0  0
  189.3390  177.2200  145.9120 C   0  0  0  0  0  0  0  0  0  0  0  0
  187.1960  177.7530  143.0090 C   0  0  0  0  0  0  0  0  0  0  0  0
  186.9580  177.9510  145.8460 C   0  0  0  0  0  3  0  0  0  0  0  0
  184.6640  178.6490  145.6170 C   0  0  0  0  0  3  0  0  0  0  0  0
  190.8060  176.8490  147.7420 N   0  0  0  0  0  0  0  0  0  0  0  0
  190.3610  176.8660  145.0430 C   0  0  0  0  0  0  0  0  0  0  0  0
  189.8240  176.9610  143.4480 S   0  0  0  0  0  0  0  0  0  0  0  0
  185.8640  178.2520  145.0270 C   0  0  0  0  0  0  0  0  0  0  0  0
  184.8290  178.4760  142.8520 C   0  0  0  0  0  3  0  0  0  0  0  0
  183.5690  178.9500  144.8070 C   0  0  0  0  0  3  0  0  0  0  0  0
  188.2610  177.4620  143.8660 C   0  0  0  0  0  0  0  0  0  0  0  0
  187.9530  178.5130  140.8190 C   0  0  0  0  0  3  0  0  0  0  0  0
  187.4140  177.6220  141.5910 N   0  0  0  0  0  0  0  0  0  0  0  0
  187.2380  177.8550  137.1720 C   0  0  0  0  0  3  0  0  0  0  0  0
  188.5430  177.8290  136.6750 C   0  0  0  0  0  0  0  0  0  0  0  0
  188.1280  178.2750  139.3840 C   0  0  0  0  0  0  0  0  0  0  0  0
  187.0330  178.0790  138.5340 C   0  0  0  0  0  3  0  0  0  0  0  0
  189.4170  178.2410  138.8450 C   0  0  0  0  0  3  0  0  0  0  0  0
  189.5960  178.0210  137.5150 N   0  0  0  0  0  0  0  0  0  0  0  0
  188.8230  177.5500  134.9710 Cl  0  0  0  0  0  0  0  0  0  0  0  0
  1 14  1  0  0  0  0
  2 11  1  0  0  0  0
  3 16  1  0  0  0  0
  4 11  2  0  0  0  0
  5  2  2  0  0  0  0
  6  9  1  0  0  0  0
  6  7  1  0  0  0  0
  7  4  1  0  0  0  0
  8  1  2  0  0  0  0
  8 17  1  0  0  0  0
 12  5  1  0  0  0  0
 12  7  2  0  0  0  0
 13 17  1  0  0  0  0
 13 12  1  0  0  0  0
 14 10  1  0  0  0  0
 14  9  2  0  0  0  0
 15  3  2  0  0  0  0
 15  1  1  0  0  0  0
 16 10  2  0  0  0  0
 17  6  2  0  0  0  0
 18 19  2  0  0  0  0
 19  8  1  0  0  0  0
 20 23  1  0  0  0  0
 21 20  2  0  0  0  0
 21 25  1  0  0  0  0
 22 18  1  0  0  0  0
 23 22  2  0  0  0  0
 24 22  1  0  0  0  0
 25 24  2  0  0  0  0
 26 21  1  0  0  0  0
M  END
>  <MODEL>
2

>  <REMARK>
 VINA RESULT:     -10.1      2.286      5.174
  Name = 
  2 active torsions:
  status: ('A' for Active; 'I' for Inactive)
    1  A    between atoms: C_3  and  C_9
    2  A    between atoms: N_6  and  C_14
                            x       y       z     vdW  Elec       q    Type
                         _______ _______ _______ _____ _____    ______ ____

>  <TORSDO>
F 2

$$$$
=
 OpenBabel10232410013D

 26 30  0  0  0  0  0  0  0  0999 V2000
  185.4300  178.2120  142.9580 C   0  0  0  0  0  0  0  0  0  0  0  0
  189.4490  177.7050  148.5620 C   0  0  0  0  0  3  0  0  0  0  0  0
  183.3880  178.6510  141.7700 N   0  0  0  0  0  0  0  0  0  0  0  0
  187.2240  178.2520  147.8790 C   0  0  0  0  0  3  0  0  0  0  0  0
  189.8380  177.4520  147.2380 C   0  0  0  0  0  3  0  0  0  0  0  0
  186.7610  178.1110  145.4210 C   0  0  0  0  0  0  0  0  0  0  0  0
  187.5770  178.0070  146.5520 C   0  0  0  0  0  0  0  0  0  0  0  0
  186.8050  177.8330  142.9910 C   0  0  0  0  0  0  0  0  0  0  0  0
  185.4190  178.4830  145.4000 C   0  0  0  0  0  3  0  0  0  0  0  0
  183.4090  178.9060  144.1420 C   0  0  0  0  0  3  0  0  0  0  0  0
  188.1690  178.0940  148.8500 N   0  0  0  0  0  0  0  0  0  0  0  0
  188.8720  177.6130  146.2500 C   0  0  0  0  0  0  0  0  0  0  0  0
  189.0360  177.3850  144.5880 S   0  0  0  0  0  0  0  0  0  0  0  0
  184.7520  178.5340  144.1710 C   0  0  0  0  0  0  0  0  0  0  0  0
  184.6980  178.2860  141.7640 C   0  0  0  0  0  3  0  0  0  0  0  0
  182.7370  178.9590  142.9220 C   0  0  0  0  0  3  0  0  0  0  0  0
  187.4300  177.7950  144.2410 C   0  0  0  0  0  0  0  0  0  0  0  0
  188.3110  178.3030  141.1320 C   0  0  0  0  0  3  0  0  0  0  0  0
  187.5890  177.4870  141.8330 N   0  0  0  0  0  0  0  0  0  0  0  0
  189.5580  177.8690  137.5960 C   0  0  0  0  0  3  0  0  0  0  0  0
  190.5590  176.9190  137.8120 C   0  0  0  0  0  0  0  0  0  0  0  0
  189.0720  177.8420  139.9680 C   0  0  0  0  0  0  0  0  0  0  0  0
  188.8130  178.3310  138.6810 C   0  0  0  0  0  3  0  0  0  0  0  0
  190.0830  176.8930  140.1390 C   0  0  0  0  0  3  0  0  0  0  0  0
  190.7980  176.4550  139.0690 N   0  0  0  0  0  0  0  0  0  0  0  0
  191.5060  176.3260  136.4660 Cl  0  0  0  0  0  0  0  0  0  0  0  0
  1  8  2  0  0  0  0
  1 14  1  0  0  0  0
  2 11  1  0  0  0  0
  3 16  1  0  0  0  0
  4 11  2  0  0  0  0
  5  2  2  0  0  0  0
  6  7  1  0  0  0  0
  7  4  1  0  0  0  0
  8 17  1  0  0  0  0
  9  6  1  0  0  0  0
 10 14  1  0  0  0  0
 12  7  2  0  0  0  0
 12  5  1  0  0  0  0
 13 12  1  0  0  0  0
 14  9  2  0  0  0  0
 15  3  2  0  0  0  0
 15  1  1  0  0  0  0
 16 10  2  0  0  0  0
 17 13  1  0  0  0  0
 17  6  2  0  0  0  0
 18 19  2  0  0  0  0
 19  8  1  0  0  0  0
 20 21  2  0  0  0  0
 20 23  1  0  0  0  0
 21 25  1  0  0  0  0
 22 24  1  0  0  0  0
 22 18  1  0  0  0  0
 23 22  2  0  0  0  0
 25 24  2  0  0  0  0
 26 21  1  0  0  0  0
M  END
>  <MODEL>
3

>  <REMARK>
 VINA RESULT:      -9.8      1.972      4.865
  Name = 
  2 active torsions:
  status: ('A' for Active; 'I' for Inactive)
    1  A    between atoms: C_3  and  C_9
    2  A    between atoms: N_6  and  C_14
                            x       y       z     vdW  Elec       q    Type
                         _______ _______ _______ _____ _____    ______ ____

>  <TORSDO>
F 2

$$$$
=
 OpenBabel10232410013D

 26 30  0  0  0  0  0  0  0  0999 V2000
  189.5470  177.0890  143.6710 C   0  0  0  0  0  0  0  0  0  0  0  0
  183.0190  179.0580  144.8230 C   0  0  0  0  0  3  0  0  0  0  0  0
  191.7870  176.4870  144.2980 N   0  0  0  0  0  0  0  0  0  0  0  0
  185.0640  178.5490  145.9530 C   0  0  0  0  0  3  0  0  0  0  0  0
  183.5990  178.8000  143.5710 C   0  0  0  0  0  3  0  0  0  0  0  0
  186.9910  177.8870  144.4970 C   0  0  0  0  0  0  0  0  0  0  0  0
  185.6700  178.2850  144.7250 C   0  0  0  0  0  0  0  0  0  0  0  0
  188.5360  177.3090  142.6890 C   0  0  0  0  0  0  0  0  0  0  0  0
  187.9710  177.6740  145.4630 C   0  0  0  0  0  3  0  0  0  0  0  0
  190.2330  177.0600  146.0170 C   0  0  0  0  0  3  0  0  0  0  0  0
  183.7540  178.9290  145.9700 N   0  0  0  0  0  0  0  0  0  0  0  0
  184.9340  178.4130  143.5570 C   0  0  0  0  0  0  0  0  0  0  0  0
  185.8940  178.0390  142.2220 S   0  0  0  0  0  0  0  0  0  0  0  0
  189.2480  177.2750  145.0540 C   0  0  0  0  0  0  0  0  0  0  0  0
  190.8480  176.6880  143.3360 C   0  0  0  0  0  3  0  0  0  0  0  0
  191.5080  176.6630  145.6160 C   0  0  0  0  0  3  0  0  0  0  0  0
  187.2750  177.7070  143.1450 C   0  0  0  0  0  0  0  0  0  0  0  0
  189.0080  178.0990  140.4310 C   0  0  0  0  0  3  0  0  0  0  0  0
  188.7230  177.1530  141.2700 N   0  0  0  0  0  0  0  0  0  0  0  0
  190.3270  176.7530  137.1610 C   0  0  0  0  0  3  0  0  0  0  0  0
  189.4340  177.3610  136.2760 C   0  0  0  0  0  0  0  0  0  0  0  0
  189.1770  177.8270  139.0020 C   0  0  0  0  0  0  0  0  0  0  0  0
  190.1960  176.9880  138.5300 C   0  0  0  0  0  3  0  0  0  0  0  0
  188.3060  178.4150  138.0810 C   0  0  0  0  0  3  0  0  0  0  0  0
  188.4500  178.1720  136.7510 N   0  0  0  0  0  0  0  0  0  0  0  0
  189.5790  177.0790  134.5560 Cl  0  0  0  0  0  0  0  0  0  0  0  0
  1 14  1  0  0  0  0
  2 11  1  0  0  0  0
  3 16  1  0  0  0  0
  4 11  2  0  0  0  0
  5  2  2  0  0  0  0
  6  7  1  0  0  0  0
  6  9  1  0  0  0  0
  7  4  1  0  0  0  0
  8 17  1  0  0  0  0
  8  1  2  0  0  0  0
 12  5  1  0  0  0  0
 12  7  2  0  0  0  0
 13 17  1  0  0  0  0
 13 12  1  0  0  0  0
 14  9  2  0  0  0  0
 14 10  1  0  0  0  0
 15  1  1  0  0  0  0
 15  3  2  0  0  0  0
 16 10  2  0  0  0  0
 17  6  2  0  0  0  0
 18 19  2  0  0  0  0
 19  8  1  0  0  0  0
 20 23  1  0  0  0  0
 21 25  1  0  0  0  0
 21 20  2  0  0  0  0
 22 18  1  0  0  0  0
 23 22  2  0  0  0  0
 24 22  1  0  0  0  0
 25 24  2  0  0  0  0
 26 21  1  0  0  0  0
M  END
>  <MODEL>
4

>  <REMARK>
 VINA RESULT:      -9.7      1.923      2.268
  Name = 
  2 active torsions:
  status: ('A' for Active; 'I' for Inactive)
    1  A    between atoms: C_3  and  C_9
    2  A    between atoms: N_6  and  C_14
                            x       y       z     vdW  Elec       q    Type
                         _______ _______ _______ _____ _____    ______ ____

>  <TORSDO>
F 2

$$$$
=
 OpenBabel10232410013D

 26 30  0  0  0  0  0  0  0  0999 V2000
  188.0760  177.6580  145.4470 C   0  0  0  0  0  0  0  0  0  0  0  0
  181.8830  179.1210  142.7410 C   0  0  0  0  0  3  0  0  0  0  0  0
  189.6670  177.3710  147.2230 N   0  0  0  0  0  0  0  0  0  0  0  0
  183.0440  178.9760  144.8250 C   0  0  0  0  0  3  0  0  0  0  0  0
  183.0320  178.7500  142.0270 C   0  0  0  0  0  3  0  0  0  0  0  0
  185.4550  178.3090  144.6980 C   0  0  0  0  0  0  0  0  0  0  0  0
  184.2050  178.6050  144.1470 C   0  0  0  0  0  0  0  0  0  0  0  0
  187.7220  177.6400  144.0640 C   0  0  0  0  0  0  0  0  0  0  0  0
  185.7900  178.3300  146.0490 C   0  0  0  0  0  3  0  0  0  0  0  0
  187.4400  178.0220  147.7780 C   0  0  0  0  0  3  0  0  0  0  0  0
  181.9130  179.2250  144.1050 N   0  0  0  0  0  0  0  0  0  0  0  0
  184.1830  178.4970  142.7650 C   0  0  0  0  0  0  0  0  0  0  0  0
  185.7020  178.0370  142.1950 S   0  0  0  0  0  0  0  0  0  0  0  0
  187.0980  178.0040  146.4260 C   0  0  0  0  0  0  0  0  0  0  0  0
  189.3650  177.3440  145.8980 C   0  0  0  0  0  3  0  0  0  0  0  0
  188.7410  177.7000  148.1610 C   0  0  0  0  0  3  0  0  0  0  0  0
  186.4040  177.9720  143.7360 C   0  0  0  0  0  0  0  0  0  0  0  0
  189.3250  178.1480  142.2990 C   0  0  0  0  0  3  0  0  0  0  0  0
  188.6230  177.3070  142.9910 N   0  0  0  0  0  0  0  0  0  0  0  0
  190.5920  176.8780  138.9780 C   0  0  0  0  0  3  0  0  0  0  0  0
  191.9640  176.8580  139.2390 C   0  0  0  0  0  0  0  0  0  0  0  0
  190.2140  177.6980  141.2250 C   0  0  0  0  0  0  0  0  0  0  0  0
  189.7150  177.3000  139.9780 C   0  0  0  0  0  3  0  0  0  0  0  0
  191.5930  177.6630  141.4430 C   0  0  0  0  0  3  0  0  0  0  0  0
  192.4320  177.2490  140.4560 N   0  0  0  0  0  0  0  0  0  0  0  0
  193.0820  176.3330  138.0010 Cl  0  0  0  0  0  0  0  0  0  0  0  0
  1 15  1  0  0  0  0
  1 14  1  0  0  0  0
  2 11  1  0  0  0  0
  3 16  1  0  0  0  0
  5  2  2  0  0  0  0
  5 12  1  0  0  0  0
  6  9  1  0  0  0  0
  7  6  1  0  0  0  0
  7  4  1  0  0  0  0
  8  1  2  0  0  0  0
  9 14  2  0  0  0  0
 10 16  2  0  0  0  0
 11  4  2  0  0  0  0
 12  7  2  0  0  0  0
 13 12  1  0  0  0  0
 13 17  1  0  0  0  0
 14 10  1  0  0  0  0
 15  3  2  0  0  0  0
 17  8  1  0  0  0  0
 17  6  2  0  0  0  0
 18 19  2  0  0  0  0
 19  8  1  0  0  0  0
 20 21  2  0  0  0  0
 20 23  1  0  0  0  0
 21 25  1  0  0  0  0
 22 24  1  0  0  0  0
 22 18  1  0  0  0  0
 23 22  2  0  0  0  0
 25 24  2  0  0  0  0
 26 21  1  0  0  0  0
M  END
>  <MODEL>
5

>  <REMARK>
 VINA RESULT:      -9.5      1.404      1.964
  Name = 
  2 active torsions:
  status: ('A' for Active; 'I' for Inactive)
    1  A    between atoms: C_3  and  C_9
    2  A    between atoms: N_6  and  C_14
                            x       y       z     vdW  Elec       q    Type
                         _______ _______ _______ _____ _____    ______ ____

>  <TORSDO>
F 2

$$$$
=
 OpenBabel10232410013D

 26 30  0  0  0  0  0  0  0  0999 V2000
  188.0710  178.0330  141.2380 C   0  0  0  0  0  0  0  0  0  0  0  0
  191.1470  176.4870  147.2350 C   0  0  0  0  0  3  0  0  0  0  0  0
  186.2410  178.7110  139.8360 N   0  0  0  0  0  0  0  0  0  0  0  0
  189.0560  177.1880  146.3130 C   0  0  0  0  0  3  0  0  0  0  0  0
  191.7440  176.4580  145.9650 C   0  0  0  0  0  3  0  0  0  0  0  0
  188.9920  177.4820  143.8260 C   0  0  0  0  0  0  0  0  0  0  0  0
  189.6180  177.1690  145.0370 C   0  0  0  0  0  0  0  0  0  0  0  0
  189.4260  177.6250  141.4230 C   0  0  0  0  0  0  0  0  0  0  0  0
  187.6680  177.8790  143.6570 C   0  0  0  0  0  3  0  0  0  0  0  0
  185.8810  178.5540  142.1890 C   0  0  0  0  0  3  0  0  0  0  0  0
  189.8350  176.8470  147.3790 N   0  0  0  0  0  0  0  0  0  0  0  0
  190.9470  176.8060  144.8810 C   0  0  0  0  0  0  0  0  0  0  0  0
  191.3760  176.8640  143.2510 S   0  0  0  0  0  0  0  0  0  0  0  0
  187.2060  178.1550  142.3650 C   0  0  0  0  0  0  0  0  0  0  0  0
  187.5380  178.3260  139.9750 C   0  0  0  0  0  3  0  0  0  0  0  0
  185.4130  178.8300  140.9060 C   0  0  0  0  0  3  0  0  0  0  0  0
  189.8430  177.3610  142.7310 C   0  0  0  0  0  0  0  0  0  0  0  0
  190.5200  176.4250  139.6040 C   0  0  0  0  0  3  0  0  0  0  0  0
  190.3870  177.4680  140.3620 N   0  0  0  0  0  0  0  0  0  0  0  0
  192.2130  175.9240  136.2680 C   0  0  0  0  0  3  0  0  0  0  0  0
  193.5160  176.2960  136.6050 C   0  0  0  0  0  0  0  0  0  0  0  0
  191.5350  176.3720  138.5490 C   0  0  0  0  0  0  0  0  0  0  0  0
  191.2200  175.9630  137.2470 C   0  0  0  0  0  3  0  0  0  0  0  0
  192.8510  176.7360  138.8430 C   0  0  0  0  0  3  0  0  0  0  0  0
  193.8060  176.6920  137.8750 N   0  0  0  0  0  0  0  0  0  0  0  0
  194.7780  176.2560  135.3940 Cl  0  0  0  0  0  0  0  0  0  0  0  0
  1  8  2  0  0  0  0
  1 14  1  0  0  0  0
  2 11  1  0  0  0  0
  3 15  2  0  0  0  0
  3 16  1  0  0  0  0
  4 11  2  0  0  0  0
  5  2  2  0  0  0  0
  6  7  1  0  0  0  0
  7  4  1  0  0  0  0
  8 17  1  0  0  0  0
  9  6  1  0  0  0  0
 10 14  1  0  0  0  0
 12  7  2  0  0  0  0
 12  5  1  0  0  0  0
 13 12  1  0  0  0  0
 14  9  2  0  0  0  0
 15  1  1  0  0  0  0
 16 10  2  0  0  0  0
 17 13  1  0  0  0  0
 17  6  2  0  0  0  0
 18 19  2  0  0  0  0
 19  8  1  0  0  0  0
 20 21  2  0  0  0  0
 20 23  1  0  0  0  0
 21 25  1  0  0  0  0
 22 24  1  0  0  0  0
 22 18  1  0  0  0  0
 23 22  2  0  0  0  0
 25 24  2  0  0  0  0
 26 21  1  0  0  0  0
M  END
>  <MODEL>
6

>  <REMARK>
 VINA RESULT:      -9.3      2.208      4.965
  Name = 
  2 active torsions:
  status: ('A' for Active; 'I' for Inactive)
    1  A    between atoms: C_3  and  C_9
    2  A    between atoms: N_6  and  C_14
                            x       y       z     vdW  Elec       q    Type
                         _______ _______ _______ _____ _____    ______ ____

>  <TORSDO>
F 2

$$$$
=
 OpenBabel10232410013D

 26 30  0  0  0  0  0  0  0  0999 V2000
  188.7600  177.8040  141.0580 C   0  0  0  0  0  0  0  0  0  0  0  0
  191.0300  176.5610  147.4710 C   0  0  0  0  0  3  0  0  0  0  0  0
  188.9480  177.9490  138.6670 N   0  0  0  0  0  0  0  0  0  0  0  0
  191.7290  176.5380  145.1850 C   0  0  0  0  0  3  0  0  0  0  0  0
  189.7410  176.9880  147.1160 C   0  0  0  0  0  3  0  0  0  0  0  0
  190.0030  177.2140  143.5000 C   0  0  0  0  0  0  0  0  0  0  0  0
  190.4580  176.9640  144.7980 C   0  0  0  0  0  0  0  0  0  0  0  0
  188.0140  177.9310  142.2680 C   0  0  0  0  0  0  0  0  0  0  0  0
  190.7400  177.0860  142.3250 C   0  0  0  0  0  3  0  0  0  0  0  0
  190.8540  177.2540  139.9240 C   0  0  0  0  0  3  0  0  0  0  0  0
  191.9820  176.3480  146.5120 N   0  0  0  0  0  0  0  0  0  0  0  0
  189.4860  177.1810  145.7630 C   0  0  0  0  0  0  0  0  0  0  0  0
  188.0510  177.6860  145.0370 S   0  0  0  0  0  0  0  0  0  0  0  0
  190.1220  177.3800  141.1040 C   0  0  0  0  0  0  0  0  0  0  0  0
  188.2080  178.0810  139.8000 C   0  0  0  0  0  3  0  0  0  0  0  0
  190.2450  177.5460  138.7050 C   0  0  0  0  0  3  0  0  0  0  0  0
  188.6740  177.6270  143.4630 C   0  0  0  0  0  0  0  0  0  0  0  0
  185.6860  177.7270  142.9640 C   0  0  0  0  0  3  0  0  0  0  0  0
  186.6380  178.3500  142.3430 N   0  0  0  0  0  0  0  0  0  0  0  0
  182.3980  179.1630  144.1340 C   0  0  0  0  0  3  0  0  0  0  0  0
  181.7140  179.2120  142.9170 C   0  0  0  0  0  0  0  0  0  0  0  0
  184.3160  178.2440  142.9760 C   0  0  0  0  0  0  0  0  0  0  0  0
  183.7050  178.6770  144.1600 C   0  0  0  0  0  3  0  0  0  0  0  0
  183.5950  178.3110  141.7810 C   0  0  0  0  0  3  0  0  0  0  0  0
  182.3220  178.7890  141.7760 N   0  0  0  0  0  0  0  0  0  0  0  0
  180.0740  179.8190  142.8600 Cl  0  0  0  0  0  0  0  0  0  0  0  0
  1 14  1  0  0  0  0
  1  8  1  0  0  0  0
  3 16  2  0  0  0  0
  3 15  1  0  0  0  0
  4 11  1  0  0  0  0
  5  2  1  0  0  0  0
  6  7  1  0  0  0  0
  7  4  2  0  0  0  0
  7 12  1  0  0  0  0
  8 19  1  0  0  0  0
  8 17  2  0  0  0  0
  9  6  2  0  0  0  0
 10 14  2  0  0  0  0
 11  2  2  0  0  0  0
 12  5  2  0  0  0  0
 13 12  1  0  0  0  0
 14  9  1  0  0  0  0
 15  1  2  0  0  0  0
 16 10  1  0  0  0  0
 17  6  1  0  0  0  0
 17 13  1  0  0  0  0
 18 22  1  0  0  0  0
 19 18  2  0  0  0  0
 20 23  1  0  0  0  0
 21 20  2  0  0  0  0
 22 23  2  0  0  0  0
 24 22  1  0  0  0  0
 25 24  2  0  0  0  0
 25 21  1  0  0  0  0
 26 21  1  0  0  0  0
M  END
>  <MODEL>
7

>  <REMARK>
 VINA RESULT:      -9.2      3.451      7.546
  Name = 
  2 active torsions:
  status: ('A' for Active; 'I' for Inactive)
    1  A    between atoms: C_3  and  C_9
    2  A    between atoms: N_6  and  C_14
                            x       y       z     vdW  Elec       q    Type
                         _______ _______ _______ _____ _____    ______ ____

>  <TORSDO>
F 2

$$$$
=
 OpenBabel10232410013D

 26 30  0  0  0  0  0  0  0  0999 V2000
  188.9400  177.5960  141.7490 C   0  0  0  0  0  0  0  0  0  0  0  0
  188.2320  177.8230  148.6240 C   0  0  0  0  0  3  0  0  0  0  0  0
  190.1590  177.4110  139.6860 N   0  0  0  0  0  0  0  0  0  0  0  0
  189.8760  177.5950  146.9030 C   0  0  0  0  0  3  0  0  0  0  0  0
  187.1980  177.9220  147.6800 C   0  0  0  0  0  3  0  0  0  0  0  0
  189.0200  177.6450  144.5490 C   0  0  0  0  0  0  0  0  0  0  0  0
  188.8720  177.6920  145.9390 C   0  0  0  0  0  0  0  0  0  0  0  0
  187.7230  177.7510  142.4780 C   0  0  0  0  0  0  0  0  0  0  0  0
  190.2130  177.4920  143.8480 C   0  0  0  0  0  3  0  0  0  0  0  0
  191.3680  177.3140  141.7410 C   0  0  0  0  0  3  0  0  0  0  0  0
  189.5290  177.6630  148.2210 N   0  0  0  0  0  0  0  0  0  0  0  0
  187.5540  177.8520  146.3380 C   0  0  0  0  0  0  0  0  0  0  0  0
  186.5470  177.9410  144.9890 S   0  0  0  0  0  0  0  0  0  0  0  0
  190.1760  177.4670  142.4490 C   0  0  0  0  0  0  0  0  0  0  0  0
  188.9810  177.5610  140.3480 C   0  0  0  0  0  3  0  0  0  0  0  0
  191.3390  177.2880  140.3480 C   0  0  0  0  0  3  0  0  0  0  0  0
  187.8090  177.7710  143.8730 C   0  0  0  0  0  0  0  0  0  0  0  0
  185.9020  178.9900  141.4310 C   0  0  0  0  0  3  0  0  0  0  0  0
  186.4210  177.8900  141.8790 N   0  0  0  0  0  0  0  0  0  0  0  0
  183.0500  179.5390  139.0210 C   0  0  0  0  0  3  0  0  0  0  0  0
  181.9940  179.0350  139.7830 C   0  0  0  0  0  0  0  0  0  0  0  0
  184.5630  179.0170  140.8380 C   0  0  0  0  0  0  0  0  0  0  0  0
  184.3390  179.5300  139.5540 C   0  0  0  0  0  3  0  0  0  0  0  0
  183.4780  178.5220  141.5660 C   0  0  0  0  0  3  0  0  0  0  0  0
  182.2290  178.5400  141.0290 N   0  0  0  0  0  0  0  0  0  0  0  0
  180.3700  179.0360  139.1350 Cl  0  0  0  0  0  0  0  0  0  0  0  0
  1 14  1  0  0  0  0
  1  8  1  0  0  0  0
  3 16  2  0  0  0  0
  3 15  1  0  0  0  0
  4 11  2  0  0  0  0
  5  2  2  0  0  0  0
  6  7  1  0  0  0  0
  7 12  2  0  0  0  0
  7  4  1  0  0  0  0
  8 17  2  0  0  0  0
  9  6  2  0  0  0  0
 10 14  2  0  0  0  0
 11  2  1  0  0  0  0
 12  5  1  0  0  0  0
 13 12  1  0  0  0  0
 14  9  1  0  0  0  0
 15  1  2  0  0  0  0
 16 10  1  0  0  0  0
 17  6  1  0  0  0  0
 17 13  1  0  0  0  0
 18 19  2  0  0  0  0
 19  8  1  0  0  0  0
 20 23  2  0  0  0  0
 20 21  1  0  0  0  0
 21 25  2  0  0  0  0
 22 18  1  0  0  0  0
 22 24  2  0  0  0  0
 23 22  1  0  0  0  0
 25 24  1  0  0  0  0
 26 21  1  0  0  0  0
M  END
>  <MODEL>
8

>  <REMARK>
 VINA RESULT:      -8.9      3.560      6.463
  Name = 
  2 active torsions:
  status: ('A' for Active; 'I' for Inactive)
    1  A    between atoms: C_3  and  C_9
    2  A    between atoms: N_6  and  C_14
                            x       y       z     vdW  Elec       q    Type
                         _______ _______ _______ _____ _____    ______ ____

>  <TORSDO>
F 2

$$$$
=
 OpenBabel10232410013D

 26 30  0  0  0  0  0  0  0  0999 V2000
  185.9440  178.2370  143.3180 C   0  0  0  0  0  0  0  0  0  0  0  0
  188.7950  178.2580  137.0190 C   0  0  0  0  0  3  0  0  0  0  0  0
  184.1900  178.5980  144.9200 N   0  0  0  0  0  0  0  0  0  0  0  0
  186.7710  178.7890  138.1750 C   0  0  0  0  0  3  0  0  0  0  0  0
  189.4140  177.8410  138.2070 C   0  0  0  0  0  3  0  0  0  0  0  0
  186.7760  178.3800  140.6460 C   0  0  0  0  0  0  0  0  0  0  0  0
  187.3570  178.3830  139.3740 C   0  0  0  0  0  0  0  0  0  0  0  0
  187.2660  177.8200  142.9770 C   0  0  0  0  0  0  0  0  0  0  0  0
  185.4840  178.7880  140.9680 C   0  0  0  0  0  3  0  0  0  0  0  0
  183.7730  179.1240  142.6300 C   0  0  0  0  0  3  0  0  0  0  0  0
  187.5060  178.7160  137.0280 N   0  0  0  0  0  0  0  0  0  0  0  0
  188.6630  177.9170  139.3740 C   0  0  0  0  0  0  0  0  0  0  0  0
  189.1270  177.4930  140.9390 S   0  0  0  0  0  0  0  0  0  0  0  0
  185.0660  178.7170  142.3020 C   0  0  0  0  0  0  0  0  0  0  0  0
  185.4550  178.1930  144.6320 C   0  0  0  0  0  3  0  0  0  0  0  0
  183.3500  179.0570  143.9570 C   0  0  0  0  0  3  0  0  0  0  0  0
  187.6390  177.9090  141.6330 C   0  0  0  0  0  0  0  0  0  0  0  0
  189.0040  178.0380  144.6730 C   0  0  0  0  0  3  0  0  0  0  0  0
  188.2360  177.3190  143.9170 N   0  0  0  0  0  0  0  0  0  0  0  0
  191.9820  176.1690  146.0460 C   0  0  0  0  0  3  0  0  0  0  0  0
  191.7220  176.2800  147.4130 C   0  0  0  0  0  0  0  0  0  0  0  0
  189.9590  177.4220  145.5980 C   0  0  0  0  0  0  0  0  0  0  0  0
  191.0940  176.7430  145.1360 C   0  0  0  0  0  3  0  0  0  0  0  0
  189.7380  177.5100  146.9740 C   0  0  0  0  0  3  0  0  0  0  0  0
  190.6150  176.9440  147.8450 N   0  0  0  0  0  0  0  0  0  0  0  0
  192.8220  175.5680  148.5720 Cl  0  0  0  0  0  0  0  0  0  0  0  0
  1 15  2  0  0  0  0
  2 11  2  0  0  0  0
  2  5  1  0  0  0  0
  4  7  2  0  0  0  0
  5 12  2  0  0  0  0
  6  9  2  0  0  0  0
  6 17  1  0  0  0  0
  7 12  1  0  0  0  0
  7  6  1  0  0  0  0
  8  1  1  0  0  0  0
  8 19  1  0  0  0  0
  9 14  1  0  0  0  0
 10 16  1  0  0  0  0
 11  4  1  0  0  0  0
 12 13  1  0  0  0  0
 13 17  1  0  0  0  0
 14 10  2  0  0  0  0
 14  1  1  0  0  0  0
 15  3  1  0  0  0  0
 16  3  2  0  0  0  0
 17  8  2  0  0  0  0
 18 22  1  0  0  0  0
 19 18  2  0  0  0  0
 20 21  1  0  0  0  0
 21 25  2  0  0  0  0
 21 26  1  0  0  0  0
 22 24  2  0  0  0  0
 23 22  1  0  0  0  0
 23 20  2  0  0  0  0
 24 25  1  0  0  0  0
M  END
>  <MODEL>
9

>  <REMARK>
 VINA RESULT:      -8.7      3.296      6.889
  Name = 
  2 active torsions:
  status: ('A' for Active; 'I' for Inactive)
    1  A    between atoms: C_3  and  C_9
    2  A    between atoms: N_6  and  C_14
                            x       y       z     vdW  Elec       q    Type
                         _______ _______ _______ _____ _____    ______ ____

>  <TORSDO>
F 2

$$$$
