=
 OpenBabel10232408493D

 25 27  0  0  1  0  0  0  0  0999 V2000
  188.5970  177.8170  141.3670 C   0  0  0  0  0  0  0  0  0  0  0  0
  186.8240  178.0610  142.6150 C   0  0  0  0  0  0  0  0  0  0  0  0
  185.1360  179.6740  139.8620 O   0  0  0  0  0  0  0  0  0  0  0  0
  189.9630  177.8450  139.4400 N   0  0  0  0  0  0  0  0  0  0  0  0
  188.1570  177.6370  142.6640 C   0  0  0  0  0  3  0  0  0  0  0  0
  185.1920  178.9740  140.9100 C   0  0  0  0  0  0  0  0  0  0  0  0
  190.7950  177.1090  141.4300 O   0  0  0  0  0  0  0  0  0  0  0  0
  187.7090  178.5810  139.3000 N   0  0  0  0  0  2  0  0  0  0  0  0
  186.4640  178.4710  141.3660 N   0  0  0  0  0  0  0  0  0  0  0  0
  188.9180  178.3430  138.7090 C   0  0  0  0  0  3  0  0  0  0  0  0
  187.5740  178.3170  140.6240 C   0  0  0  0  0  0  0  0  0  0  0  0
  189.8280  177.5720  140.7700 C   0  0  0  0  0  0  0  0  0  0  0  0
  183.9220  178.6850  141.6690 C   0  0  1  0  0  3  0  0  0  0  0  0
  182.7620  179.2890  140.9880 N   0  0  0  0  0  2  0  0  0  0  0  0
  182.9340  177.8290  140.9680 C   0  0  1  0  0  3  0  0  0  0  0  0
  183.3100  177.3790  139.5560 C   0  0  1  0  0  3  0  0  0  0  0  0
  182.9630  175.9800  139.3850 N   0  0  0  0  0  1  0  0  0  0  0  0
  182.6190  178.1470  138.6170 O   0  0  0  0  0  0  0  0  0  0  0  0
  183.0760  177.6940  137.3800 C   0  0  0  0  0  1  0  0  0  0  0  0
  185.9300  178.0680  143.8100 C   0  0  0  0  0  2  0  0  0  0  0  0
  186.5290  177.2140  144.9090 C   0  0  0  0  0  2  0  0  0  0  0  0
  186.8060  178.0780  146.1300 C   0  0  0  0  0  2  0  0  0  0  0  0
  187.9720  177.5520  146.9640 C   0  0  0  0  0  3  0  0  0  0  0  0
  189.2910  177.6760  146.2210 C   0  0  0  0  0  1  0  0  0  0  0  0
  188.0560  178.2490  148.3110 C   0  0  0  0  0  1  0  0  0  0  0  0
  1  5  1  0  0  0  0
  2  5  2  0  0  0  0
  2 20  1  0  0  0  0
  3  6  2  0  0  0  0
  4 12  1  0  0  0  0
  6  9  1  0  0  0  0
  8 11  1  0  0  0  0
  9  2  1  0  0  0  0
 10  8  1  0  0  0  0
 10  4  2  0  0  0  0
 11  9  1  0  0  0  0
 11  1  2  0  0  0  0
 12  1  1  0  0  0  0
 12  7  2  0  0  0  0
 13  6  1  6  0  0  0
 14 13  1  0  0  0  0
 15 16  1  6  0  0  0
 15 14  1  0  0  0  0
 15 13  1  0  0  0  0
 16 17  1  1  0  0  0
 18 16  1  0  0  0  0
 19 18  1  0  0  0  0
 20 21  1  0  0  0  0
 21 22  1  0  0  0  0
 22 23  1  0  0  0  0
 23 25  1  0  0  0  0
 24 23  1  0  0  0  0
M  END
>  <MODEL>
1

>  <REMARK>
 VINA RESULT:      -7.2      0.000      0.000
  Name = 
  7 active torsions:
  status: ('A' for Active; 'I' for Inactive)
    1  A    between atoms: C_2  and  C_3
    2  A    between atoms: C_2  and  C_5
    3  A    between atoms: C_3  and  C_20
    4  A    between atoms: C_4  and  C_20
    5  A    between atoms: C_7  and  C_13
    6  A    between atoms: O_10  and  C_16
    7  A    between atoms: C_16  and  C_22
                            x       y       z     vdW  Elec       q    Type
                         _______ _______ _______ _____ _____    ______ ____

>  <TORSDO>
F 7

$$$$
=
 OpenBabel10232408493D

 25 27  0  0  1  0  0  0  0  0999 V2000
  189.2880  177.1630  140.8910 C   0  0  0  0  0  0  0  0  0  0  0  0
  187.9870  177.1730  142.6420 C   0  0  0  0  0  0  0  0  0  0  0  0
  186.0160  179.7950  141.1360 O   0  0  0  0  0  0  0  0  0  0  0  0
  190.0860  177.6820  138.7290 N   0  0  0  0  0  2  0  0  0  0  0  0
  189.1700  176.6100  142.1510 C   0  0  0  0  0  3  0  0  0  0  0  0
  186.1950  178.7830  141.8670 C   0  0  0  0  0  0  0  0  0  0  0  0
  191.2330  176.2330  140.0610 O   0  0  0  0  0  0  0  0  0  0  0  0
  188.0740  178.6720  139.5130 N   0  0  0  0  0  0  0  0  0  0  0  0
  187.4090  178.0160  141.7400 N   0  0  0  0  0  0  0  0  0  0  0  0
  189.0130  178.5110  138.5340 C   0  0  0  0  0  3  0  0  0  0  0  0
  188.2340  177.9960  140.6790 C   0  0  0  0  0  0  0  0  0  0  0  0
  190.2460  176.9960  139.8970 C   0  0  0  0  0  0  0  0  0  0  0  0
  185.1320  178.4010  142.8660 C   0  0  1  0  0  3  0  0  0  0  0  0
  184.0440  179.3950  142.8700 N   0  0  0  0  0  2  0  0  0  0  0  0
  183.8060  178.0620  142.2970 C   0  0  1  0  0  3  0  0  0  0  0  0
  183.6720  178.1770  140.7780 C   0  0  1  0  0  3  0  0  0  0  0  0
  183.1410  176.9360  140.2420 N   0  0  0  0  0  1  0  0  0  0  0  0
  182.8090  179.2270  140.4590 O   0  0  0  0  0  0  0  0  0  0  0  0
  183.1110  179.5470  139.1350 C   0  0  0  0  0  1  0  0  0  0  0  0
  187.4530  176.8800  144.0050 C   0  0  0  0  0  2  0  0  0  0  0  0
  188.2870  177.5920  145.0500 C   0  0  0  0  0  2  0  0  0  0  0  0
  187.5210  177.6410  146.3650 C   0  0  0  0  0  2  0  0  0  0  0  0
  188.3530  177.1420  147.5430 C   0  0  0  0  0  3  0  0  0  0  0  0
  189.7990  176.9020  147.1450 C   0  0  0  0  0  1  0  0  0  0  0  0
  188.2810  178.0950  148.7230 C   0  0  0  0  0  1  0  0  0  0  0  0
  1  5  1  0  0  0  0
  2 20  1  0  0  0  0
  3  6  2  0  0  0  0
  4 12  1  0  0  0  0
  5  2  2  0  0  0  0
  8 11  1  0  0  0  0
  9  6  1  0  0  0  0
  9  2  1  0  0  0  0
 10  4  1  0  0  0  0
 10  8  2  0  0  0  0
 11  1  2  0  0  0  0
 11  9  1  0  0  0  0
 12  7  2  0  0  0  0
 12  1  1  0  0  0  0
 13  6  1  6  0  0  0
 13 14  1  0  0  0  0
 15 16  1  6  0  0  0
 15 13  1  0  0  0  0
 15 14  1  0  0  0  0
 16 17  1  1  0  0  0
 18 16  1  0  0  0  0
 19 18  1  0  0  0  0
 20 21  1  0  0  0  0
 21 22  1  0  0  0  0
 22 23  1  0  0  0  0
 23 25  1  0  0  0  0
 24 23  1  0  0  0  0
M  END
>  <MODEL>
2

>  <REMARK>
 VINA RESULT:      -7.1      1.282      1.454
  Name = 
  7 active torsions:
  status: ('A' for Active; 'I' for Inactive)
    1  A    between atoms: C_2  and  C_3
    2  A    between atoms: C_2  and  C_5
    3  A    between atoms: C_3  and  C_20
    4  A    between atoms: C_4  and  C_20
    5  A    between atoms: C_7  and  C_13
    6  A    between atoms: O_10  and  C_16
    7  A    between atoms: C_16  and  C_22
                            x       y       z     vdW  Elec       q    Type
                         _______ _______ _______ _____ _____    ______ ____

>  <TORSDO>
F 7

$$$$
=
 OpenBabel10232408493D

 25 27  0  0  1  0  0  0  0  0999 V2000
  185.7700  178.2330  144.9060 C   0  0  0  0  0  0  0  0  0  0  0  0
  187.6540  177.5810  144.0190 C   0  0  0  0  0  0  0  0  0  0  0  0
  186.4290  178.5420  140.7630 O   0  0  0  0  0  0  0  0  0  0  0  0
  183.6260  179.2120  145.0660 N   0  0  0  0  0  0  0  0  0  0  0  0
  186.9530  177.5980  145.2300 C   0  0  0  0  0  3  0  0  0  0  0  0
  187.3230  178.3530  141.6320 C   0  0  0  0  0  0  0  0  0  0  0  0
  184.6060  178.2790  146.9000 O   0  0  0  0  0  0  0  0  0  0  0  0
  184.7680  179.2060  142.9830 N   0  0  0  0  0  2  0  0  0  0  0  0
  186.9500  178.1720  143.0130 N   0  0  0  0  0  0  0  0  0  0  0  0
  183.6750  179.5320  143.7360 C   0  0  0  0  0  3  0  0  0  0  0  0
  185.7960  178.5550  143.5850 C   0  0  0  0  0  0  0  0  0  0  0  0
  184.6610  178.5630  145.6750 C   0  0  0  0  0  0  0  0  0  0  0  0
  188.7680  178.3120  141.2030 C   0  0  1  0  0  3  0  0  0  0  0  0
  189.1080  176.9880  140.6520 N   0  0  0  0  0  2  0  0  0  0  0  0
  189.0030  178.1430  139.7490 C   0  0  1  0  0  3  0  0  0  0  0  0
  187.7570  177.9950  138.8750 C   0  0  1  0  0  3  0  0  0  0  0  0
  187.8060  178.9630  137.7930 N   0  0  0  0  0  1  0  0  0  0  0  0
  187.7060  176.7060  138.3410 O   0  0  0  0  0  0  0  0  0  0  0  0
  186.6920  176.7560  137.3850 C   0  0  0  0  0  1  0  0  0  0  0  0
  189.0050  176.9650  143.8720 C   0  0  0  0  0  2  0  0  0  0  0  0
  190.0250  177.7620  144.6580 C   0  0  0  0  0  2  0  0  0  0  0  0
  191.1560  176.8460  145.1010 C   0  0  0  0  0  2  0  0  0  0  0  0
  191.3410  176.8380  146.6170 C   0  0  0  0  0  3  0  0  0  0  0  0
  190.0070  176.8750  147.3420 C   0  0  0  0  0  1  0  0  0  0  0  0
  192.1590  175.6430  147.0750 C   0  0  0  0  0  1  0  0  0  0  0  0
  1  5  1  0  0  0  0
  1 12  1  0  0  0  0
  2  5  2  0  0  0  0
  3  6  2  0  0  0  0
  4 12  1  0  0  0  0
  6  9  1  0  0  0  0
  8 11  1  0  0  0  0
  8 10  1  0  0  0  0
  9 11  1  0  0  0  0
  9  2  1  0  0  0  0
 10  4  2  0  0  0  0
 11  1  2  0  0  0  0
 12  7  2  0  0  0  0
 13  6  1  6  0  0  0
 14 13  1  0  0  0  0
 15 16  1  6  0  0  0
 15 14  1  0  0  0  0
 15 13  1  0  0  0  0
 16 17  1  6  0  0  0
 18 16  1  0  0  0  0
 19 18  1  0  0  0  0
 20  2  1  0  0  0  0
 20 21  1  0  0  0  0
 21 22  1  0  0  0  0
 22 23  1  0  0  0  0
 23 25  1  0  0  0  0
 23 24  1  0  0  0  0
M  END
>  <MODEL>
3

>  <REMARK>
 VINA RESULT:      -7.0      2.562      4.969
  Name = 
  7 active torsions:
  status: ('A' for Active; 'I' for Inactive)
    1  A    between atoms: C_2  and  C_3
    2  A    between atoms: C_2  and  C_5
    3  A    between atoms: C_3  and  C_20
    4  A    between atoms: C_4  and  C_20
    5  A    between atoms: C_7  and  C_13
    6  A    between atoms: O_10  and  C_16
    7  A    between atoms: C_16  and  C_22
                            x       y       z     vdW  Elec       q    Type
                         _______ _______ _______ _____ _____    ______ ____

>  <TORSDO>
F 7

$$$$
=
 OpenBabel10232408493D

 25 27  0  0  1  0  0  0  0  0999 V2000
  189.0240  177.8930  139.2840 C   0  0  0  0  0  0  0  0  0  0  0  0
  187.8420  178.4090  141.0440 C   0  0  0  0  0  0  0  0  0  0  0  0
  189.5130  175.8060  142.9040 O   0  0  0  0  0  0  0  0  0  0  0  0
  190.6800  176.8430  137.9650 N   0  0  0  0  0  2  0  0  0  0  0  0
  187.9790  178.7040  139.6820 C   0  0  0  0  0  3  0  0  0  0  0  0
  188.9280  176.9160  142.7740 C   0  0  0  0  0  0  0  0  0  0  0  0
  189.2720  178.3770  137.0390 O   0  0  0  0  0  0  0  0  0  0  0  0
  190.4870  176.3010  140.2700 N   0  0  0  0  0  0  0  0  0  0  0  0
  188.7480  177.4790  141.4590 N   0  0  0  0  0  0  0  0  0  0  0  0
  191.1000  176.1360  139.0600 C   0  0  0  0  0  3  0  0  0  0  0  0
  189.4540  177.1760  140.3570 C   0  0  0  0  0  0  0  0  0  0  0  0
  189.6450  177.7290  138.0510 C   0  0  0  0  0  0  0  0  0  0  0  0
  188.4210  177.6270  144.0030 C   0  0  1  0  0  3  0  0  0  0  0  0
  188.7760  176.8750  145.2200 N   0  0  0  0  0  2  0  0  0  0  0  0
  189.4630  178.1410  144.9250 C   0  0  1  0  0  3  0  0  0  0  0  0
  190.9130  177.8550  144.5330 C   0  0  1  0  0  3  0  0  0  0  0  0
  191.4880  179.0330  143.9080 N   0  0  0  0  0  1  0  0  0  0  0  0
  191.6520  177.5260  145.6710 O   0  0  0  0  0  0  0  0  0  0  0  0
  191.9100  176.1610  145.5460 C   0  0  0  0  0  1  0  0  0  0  0  0
  186.8040  179.0410  141.9100 C   0  0  0  0  0  2  0  0  0  0  0  0
  185.4610  178.3800  141.6740 C   0  0  0  0  0  2  0  0  0  0  0  0
  184.9020  177.8780  142.9970 C   0  0  0  0  0  2  0  0  0  0  0  0
  184.4560  179.0170  143.9110 C   0  0  0  0  0  3  0  0  0  0  0  0
  182.9540  179.2310  143.8460 C   0  0  0  0  0  1  0  0  0  0  0  0
  184.8960  178.7860  145.3460 C   0  0  0  0  0  1  0  0  0  0  0  0
  1  5  1  0  0  0  0
  1 11  2  0  0  0  0
  2  9  1  0  0  0  0
  2 20  1  0  0  0  0
  4 12  1  0  0  0  0
  4 10  1  0  0  0  0
  5  2  2  0  0  0  0
  6  3  2  0  0  0  0
  7 12  2  0  0  0  0
  8 11  1  0  0  0  0
  9  6  1  0  0  0  0
 10  8  2  0  0  0  0
 11  9  1  0  0  0  0
 12  1  1  0  0  0  0
 13  6  1  6  0  0  0
 13 15  1  0  0  0  0
 13 14  1  0  0  0  0
 15 16  1  6  0  0  0
 15 14  1  0  0  0  0
 16 17  1  1  0  0  0
 16 18  1  0  0  0  0
 19 18  1  0  0  0  0
 21 20  1  0  0  0  0
 21 22  1  0  0  0  0
 22 23  1  0  0  0  0
 23 25  1  0  0  0  0
 24 23  1  0  0  0  0
M  END
>  <MODEL>
4

>  <REMARK>
 VINA RESULT:      -6.8      3.215      5.948
  Name = 
  7 active torsions:
  status: ('A' for Active; 'I' for Inactive)
    1  A    between atoms: C_2  and  C_3
    2  A    between atoms: C_2  and  C_5
    3  A    between atoms: C_3  and  C_20
    4  A    between atoms: C_4  and  C_20
    5  A    between atoms: C_7  and  C_13
    6  A    between atoms: O_10  and  C_16
    7  A    between atoms: C_16  and  C_22
                            x       y       z     vdW  Elec       q    Type
                         _______ _______ _______ _____ _____    ______ ____

>  <TORSDO>
F 7

$$$$
=
 OpenBabel10232408493D

 25 27  0  0  1  0  0  0  0  0999 V2000
  189.0460  177.4020  143.3630 C   0  0  0  0  0  0  0  0  0  0  0  0
  187.4180  178.0810  142.0790 C   0  0  0  0  0  0  0  0  0  0  0  0
  189.7560  178.4680  139.3560 O   0  0  0  0  0  0  0  0  0  0  0  0
  191.2110  176.7030  144.0030 N   0  0  0  0  0  0  0  0  0  0  0  0
  187.7060  177.7320  143.4040 C   0  0  0  0  0  3  0  0  0  0  0  0
  188.6240  178.2310  139.8590 C   0  0  0  0  0  0  0  0  0  0  0  0
  189.5340  176.8130  145.5430 O   0  0  0  0  0  0  0  0  0  0  0  0
  190.7800  177.2880  141.7410 N   0  0  0  0  0  2  0  0  0  0  0  0
  188.5100  177.9670  141.2720 N   0  0  0  0  0  0  0  0  0  0  0  0
  191.6400  176.8600  142.7120 C   0  0  0  0  0  3  0  0  0  0  0  0
  189.4950  177.5560  142.0890 C   0  0  0  0  0  0  0  0  0  0  0  0
  189.9190  176.9660  144.3540 C   0  0  0  0  0  0  0  0  0  0  0  0
  187.4070  178.2380  138.9680 C   0  0  1  0  0  3  0  0  0  0  0  0
  187.7520  178.7390  137.6250 N   0  0  0  0  0  2  0  0  0  0  0  0
  187.4530  177.3110  137.8110 C   0  0  1  0  0  3  0  0  0  0  0  0
  188.7350  176.4960  137.6480 C   0  0  1  0  0  3  0  0  0  0  0  0
  188.3970  175.1090  137.3790 N   0  0  0  0  0  1  0  0  0  0  0  0
  189.4850  177.0040  136.5850 O   0  0  0  0  0  0  0  0  0  0  0  0
  190.7010  176.3220  136.6480 C   0  0  0  0  0  1  0  0  0  0  0  0
  186.0680  178.5370  141.6350 C   0  0  0  0  0  2  0  0  0  0  0  0
  185.0500  178.2740  142.7250 C   0  0  0  0  0  2  0  0  0  0  0  0
  184.6430  179.5920  143.3700 C   0  0  0  0  0  2  0  0  0  0  0  0
  183.8830  179.3900  144.6780 C   0  0  0  0  0  3  0  0  0  0  0  0
  182.5500  178.6990  144.4490 C   0  0  0  0  0  1  0  0  0  0  0  0
  184.7100  178.6230  145.6940 C   0  0  0  0  0  1  0  0  0  0  0  0
  1  5  1  0  0  0  0
  1 12  1  0  0  0  0
  2  5  2  0  0  0  0
  3  6  2  0  0  0  0
  4 12  1  0  0  0  0
  6  9  1  0  0  0  0
  8 11  1  0  0  0  0
  8 10  1  0  0  0  0
  9  2  1  0  0  0  0
  9 11  1  0  0  0  0
 10  4  2  0  0  0  0
 11  1  2  0  0  0  0
 12  7  2  0  0  0  0
 13  6  1  1  0  0  0
 14 15  1  0  0  0  0
 14 13  1  0  0  0  0
 15 16  1  1  0  0  0
 15 13  1  0  0  0  0
 16 17  1  6  0  0  0
 18 19  1  0  0  0  0
 18 16  1  0  0  0  0
 20  2  1  0  0  0  0
 20 21  1  0  0  0  0
 21 22  1  0  0  0  0
 22 23  1  0  0  0  0
 23 25  1  0  0  0  0
 24 23  1  0  0  0  0
M  END
>  <MODEL>
5

>  <REMARK>
 VINA RESULT:      -6.6      3.223      4.648
  Name = 
  7 active torsions:
  status: ('A' for Active; 'I' for Inactive)
    1  A    between atoms: C_2  and  C_3
    2  A    between atoms: C_2  and  C_5
    3  A    between atoms: C_3  and  C_20
    4  A    between atoms: C_4  and  C_20
    5  A    between atoms: C_7  and  C_13
    6  A    between atoms: O_10  and  C_16
    7  A    between atoms: C_16  and  C_22
                            x       y       z     vdW  Elec       q    Type
                         _______ _______ _______ _____ _____    ______ ____

>  <TORSDO>
F 7

$$$$
=
 OpenBabel10232408493D

 25 27  0  0  1  0  0  0  0  0999 V2000
  189.2540  177.2510  144.3860 C   0  0  0  0  0  0  0  0  0  0  0  0
  187.9910  177.8440  142.7080 C   0  0  0  0  0  0  0  0  0  0  0  0
  190.8760  177.7790  140.5400 O   0  0  0  0  0  0  0  0  0  0  0  0
  191.1750  176.5330  145.5580 N   0  0  0  0  0  0  0  0  0  0  0  0
  187.9640  177.6490  144.0940 C   0  0  0  0  0  3  0  0  0  0  0  0
  189.6480  177.6610  140.8050 C   0  0  0  0  0  0  0  0  0  0  0  0
  189.2220  176.9130  146.6700 O   0  0  0  0  0  0  0  0  0  0  0  0
  191.2790  176.8540  143.2070 N   0  0  0  0  0  2  0  0  0  0  0  0
  189.2180  177.5790  142.1780 N   0  0  0  0  0  0  0  0  0  0  0  0
  191.8800  176.5090  144.3850 C   0  0  0  0  0  3  0  0  0  0  0  0
  189.9740  177.2250  143.2320 C   0  0  0  0  0  0  0  0  0  0  0  0
  189.8610  176.9000  145.5850 C   0  0  0  0  0  0  0  0  0  0  0  0
  188.6530  177.6160  139.6720 C   0  0  1  0  0  3  0  0  0  0  0  0
  189.1850  178.3130  138.4880 N   0  0  0  0  0  2  0  0  0  0  0  0
  189.0740  176.8470  138.4770 C   0  0  1  0  0  3  0  0  0  0  0  0
  190.4720  176.2300  138.5260 C   0  0  1  0  0  3  0  0  0  0  0  0
  190.4060  174.8440  138.0970 N   0  0  0  0  0  1  0  0  0  0  0  0
  191.3300  176.9370  137.6820 O   0  0  0  0  0  0  0  0  0  0  0  0
  192.4470  176.1140  137.5380 C   0  0  0  0  0  1  0  0  0  0  0  0
  186.8040  178.3060  141.9300 C   0  0  0  0  0  2  0  0  0  0  0  0
  185.5410  178.0960  142.7420 C   0  0  0  0  0  2  0  0  0  0  0  0
  184.8630  179.4370  142.9830 C   0  0  0  0  0  2  0  0  0  0  0  0
  184.0690  179.4630  144.2870 C   0  0  0  0  0  3  0  0  0  0  0  0
  182.7130  178.7990  144.1280 C   0  0  0  0  0  1  0  0  0  0  0  0
  184.8430  178.8210  145.4250 C   0  0  0  0  0  1  0  0  0  0  0  0
  1 12  1  0  0  0  0
  2  5  2  0  0  0  0
  3  6  2  0  0  0  0
  4 12  1  0  0  0  0
  5  1  1  0  0  0  0
  6  9  1  0  0  0  0
  8 11  1  0  0  0  0
  8 10  1  0  0  0  0
  9  2  1  0  0  0  0
  9 11  1  0  0  0  0
 10  4  2  0  0  0  0
 11  1  2  0  0  0  0
 12  7  2  0  0  0  0
 13  6  1  1  0  0  0
 14 13  1  0  0  0  0
 15 14  1  0  0  0  0
 15 16  1  1  0  0  0
 15 13  1  0  0  0  0
 16 17  1  6  0  0  0
 18 16  1  0  0  0  0
 19 18  1  0  0  0  0
 20  2  1  0  0  0  0
 20 21  1  0  0  0  0
 21 22  1  0  0  0  0
 22 23  1  0  0  0  0
 23 25  1  0  0  0  0
 24 23  1  0  0  0  0
M  END
>  <MODEL>
6

>  <REMARK>
 VINA RESULT:      -6.6      3.564      5.607
  Name = 
  7 active torsions:
  status: ('A' for Active; 'I' for Inactive)
    1  A    between atoms: C_2  and  C_3
    2  A    between atoms: C_2  and  C_5
    3  A    between atoms: C_3  and  C_20
    4  A    between atoms: C_4  and  C_20
    5  A    between atoms: C_7  and  C_13
    6  A    between atoms: O_10  and  C_16
    7  A    between atoms: C_16  and  C_22
                            x       y       z     vdW  Elec       q    Type
                         _______ _______ _______ _____ _____    ______ ____

>  <TORSDO>
F 7

$$$$
=
 OpenBabel10232408493D

 25 27  0  0  1  0  0  0  0  0999 V2000
  188.7480  177.8450  139.3770 C   0  0  0  0  0  0  0  0  0  0  0  0
  187.5720  178.2030  141.1800 C   0  0  0  0  0  0  0  0  0  0  0  0
  189.5970  175.7980  142.9530 O   0  0  0  0  0  0  0  0  0  0  0  0
  190.4700  177.0080  137.9930 N   0  0  0  0  0  2  0  0  0  0  0  0
  187.6290  178.5240  139.8190 C   0  0  0  0  0  3  0  0  0  0  0  0
  188.8820  176.8330  142.8560 C   0  0  0  0  0  0  0  0  0  0  0  0
  188.8620  178.3750  137.1320 O   0  0  0  0  0  0  0  0  0  0  0  0
  190.4190  176.4260  140.2960 N   0  0  0  0  0  0  0  0  0  0  0  0
  188.5940  177.3830  141.5550 N   0  0  0  0  0  0  0  0  0  0  0  0
  191.0060  176.3450  139.0650 C   0  0  0  0  0  3  0  0  0  0  0  0
  189.2930  177.1740  140.4270 C   0  0  0  0  0  0  0  0  0  0  0  0
  189.3420  177.7660  138.1230 C   0  0  0  0  0  0  0  0  0  0  0  0
  188.3370  177.4690  144.1100 C   0  0  1  0  0  3  0  0  0  0  0  0
  188.8360  176.7680  145.3060 N   0  0  0  0  0  2  0  0  0  0  0  0
  189.3390  178.1140  144.9920 C   0  0  1  0  0  3  0  0  0  0  0  0
  190.7970  178.0210  144.5410 C   0  0  1  0  0  3  0  0  0  0  0  0
  191.2120  179.2930  143.9760 N   0  0  0  0  0  1  0  0  0  0  0  0
  191.6100  177.7110  145.6330 O   0  0  0  0  0  0  0  0  0  0  0  0
  191.8480  176.3410  145.5230 C   0  0  0  0  0  1  0  0  0  0  0  0
  186.4970  178.7020  142.0870 C   0  0  0  0  0  2  0  0  0  0  0  0
  185.2810  179.1020  141.2760 C   0  0  0  0  0  2  0  0  0  0  0  0
  184.1560  178.1080  141.5230 C   0  0  0  0  0  2  0  0  0  0  0  0
  183.4180  177.7330  140.2400 C   0  0  0  0  0  3  0  0  0  0  0  0
  181.9150  177.8790  140.3970 C   0  0  0  0  0  1  0  0  0  0  0  0
  183.9080  178.5460  139.0550 C   0  0  0  0  0  1  0  0  0  0  0  0
  1  5  1  0  0  0  0
  1 11  2  0  0  0  0
  2  9  1  0  0  0  0
  2 20  1  0  0  0  0
  4 12  1  0  0  0  0
  4 10  1  0  0  0  0
  5  2  2  0  0  0  0
  6  3  2  0  0  0  0
  7 12  2  0  0  0  0
  8 11  1  0  0  0  0
  9  6  1  0  0  0  0
 10  8  2  0  0  0  0
 11  9  1  0  0  0  0
 12  1  1  0  0  0  0
 13  6  1  6  0  0  0
 13 15  1  0  0  0  0
 13 14  1  0  0  0  0
 15 16  1  6  0  0  0
 15 14  1  0  0  0  0
 16 17  1  1  0  0  0
 16 18  1  0  0  0  0
 19 18  1  0  0  0  0
 21 22  1  0  0  0  0
 21 20  1  0  0  0  0
 23 24  1  0  0  0  0
 23 22  1  0  0  0  0
 25 23  1  0  0  0  0
M  END
>  <MODEL>
7

>  <REMARK>
 VINA RESULT:      -6.3      2.885      6.507
  Name = 
  7 active torsions:
  status: ('A' for Active; 'I' for Inactive)
    1  A    between atoms: C_2  and  C_3
    2  A    between atoms: C_2  and  C_5
    3  A    between atoms: C_3  and  C_20
    4  A    between atoms: C_4  and  C_20
    5  A    between atoms: C_7  and  C_13
    6  A    between atoms: O_10  and  C_16
    7  A    between atoms: C_16  and  C_22
                            x       y       z     vdW  Elec       q    Type
                         _______ _______ _______ _____ _____    ______ ____

>  <TORSDO>
F 7

$$$$
=
 OpenBabel10232408493D

 25 27  0  0  1  0  0  0  0  0999 V2000
  185.6920  178.2250  144.2960 C   0  0  0  0  0  0  0  0  0  0  0  0
  187.5500  177.7330  143.2650 C   0  0  0  0  0  0  0  0  0  0  0  0
  189.3800  178.3410  146.3160 O   0  0  0  0  0  0  0  0  0  0  0  0
  184.2240  178.7580  146.0690 N   0  0  0  0  0  2  0  0  0  0  0  0
  186.1830  177.9290  143.0400 C   0  0  0  0  0  3  0  0  0  0  0  0
  189.1730  177.7800  145.2060 C   0  0  0  0  0  0  0  0  0  0  0  0
  183.4310  178.5390  143.9440 O   0  0  0  0  0  0  0  0  0  0  0  0
  186.5370  178.4430  146.5070 N   0  0  0  0  0  0  0  0  0  0  0  0
  187.8810  177.8940  144.5770 N   0  0  0  0  0  0  0  0  0  0  0  0
  185.2750  178.7250  146.9460 C   0  0  0  0  0  3  0  0  0  0  0  0
  186.7220  178.2030  145.1840 C   0  0  0  0  0  0  0  0  0  0  0  0
  184.4060  178.5110  144.7390 C   0  0  0  0  0  0  0  0  0  0  0  0
  190.2900  177.0030  144.5560 C   0  0  1  0  0  3  0  0  0  0  0  0
  191.5950  177.6150  144.8650 N   0  0  0  0  0  2  0  0  0  0  0  0
  191.2320  176.3310  145.4840 C   0  0  1  0  0  3  0  0  0  0  0  0
  190.9750  176.5390  146.9760 C   0  0  1  0  0  3  0  0  0  0  0  0
  190.5070  175.2970  147.5650 N   0  0  0  0  0  1  0  0  0  0  0  0
  192.1550  176.9370  147.6070 O   0  0  0  0  0  0  0  0  0  0  0  0
  192.7340  175.7510  148.0610 C   0  0  0  0  0  1  0  0  0  0  0  0
  188.5130  177.4050  142.1730 C   0  0  0  0  0  2  0  0  0  0  0  0
  188.6110  178.5660  141.2040 C   0  0  0  0  0  2  0  0  0  0  0  0
  188.1090  178.1290  139.8350 C   0  0  0  0  0  2  0  0  0  0  0  0
  189.2410  177.9740  138.8210 C   0  0  0  0  0  3  0  0  0  0  0  0
  189.4790  176.5170  138.4690 C   0  0  0  0  0  1  0  0  0  0  0  0
  188.9820  178.7880  137.5660 C   0  0  0  0  0  1  0  0  0  0  0  0
  1 12  1  0  0  0  0
  1 11  2  0  0  0  0
  2  9  1  0  0  0  0
  4 10  1  0  0  0  0
  5  2  2  0  0  0  0
  5  1  1  0  0  0  0
  6  3  2  0  0  0  0
  7 12  2  0  0  0  0
  8 10  2  0  0  0  0
  9 11  1  0  0  0  0
  9  6  1  0  0  0  0
 11  8  1  0  0  0  0
 12  4  1  0  0  0  0
 13 14  1  0  0  0  0
 13  6  1  1  0  0  0
 13 15  1  0  0  0  0
 14 15  1  0  0  0  0
 15 16  1  1  0  0  0
 16 17  1  1  0  0  0
 16 18  1  0  0  0  0
 18 19  1  0  0  0  0
 20  2  1  0  0  0  0
 21 20  1  0  0  0  0
 22 21  1  0  0  0  0
 23 22  1  0  0  0  0
 24 23  1  0  0  0  0
 25 23  1  0  0  0  0
M  END
>  <MODEL>
8

>  <REMARK>
 VINA RESULT:      -6.2      3.666      8.134
  Name = 
  7 active torsions:
  status: ('A' for Active; 'I' for Inactive)
    1  A    between atoms: C_2  and  C_3
    2  A    between atoms: C_2  and  C_5
    3  A    between atoms: C_3  and  C_20
    4  A    between atoms: C_4  and  C_20
    5  A    between atoms: C_7  and  C_13
    6  A    between atoms: O_10  and  C_16
    7  A    between atoms: C_16  and  C_22
                            x       y       z     vdW  Elec       q    Type
                         _______ _______ _______ _____ _____    ______ ____

>  <TORSDO>
F 7

$$$$
=
 OpenBabel10232408493D

 25 27  0  0  1  0  0  0  0  0999 V2000
  189.2470  177.8840  141.3720 C   0  0  0  0  0  0  0  0  0  0  0  0
  187.3020  178.3560  140.5020 C   0  0  0  0  0  0  0  0  0  0  0  0
  188.7880  178.3230  137.2130 O   0  0  0  0  0  0  0  0  0  0  0  0
  191.5310  177.2930  141.4840 N   0  0  0  0  0  0  0  0  0  0  0  0
  187.9550  178.2150  141.7320 C   0  0  0  0  0  3  0  0  0  0  0  0
  187.8480  178.1650  138.0390 C   0  0  0  0  0  0  0  0  0  0  0  0
  190.3360  177.6360  143.3930 O   0  0  0  0  0  0  0  0  0  0  0  0
  190.4740  177.5230  139.3680 N   0  0  0  0  0  2  0  0  0  0  0  0
  188.1360  178.1200  139.4500 N   0  0  0  0  0  0  0  0  0  0  0  0
  191.5850  177.2510  140.1160 C   0  0  0  0  0  3  0  0  0  0  0  0
  189.3230  177.8410  140.0140 C   0  0  0  0  0  0  0  0  0  0  0  0
  190.3740  177.6060  142.1350 C   0  0  0  0  0  0  0  0  0  0  0  0
  186.4350  178.0330  137.5270 C   0  0  1  0  0  3  0  0  0  0  0  0
  186.4290  177.8490  136.0650 N   0  0  0  0  0  2  0  0  0  0  0  0
  186.0840  176.7180  136.9390 C   0  0  1  0  0  3  0  0  0  0  0  0
  187.2030  175.6770  136.8920 C   0  0  1  0  0  3  0  0  0  0  0  0
  186.6910  174.3940  137.3400 N   0  0  0  0  0  1  0  0  0  0  0  0
  187.6800  175.5560  135.5850 O   0  0  0  0  0  0  0  0  0  0  0  0
  186.9580  174.4940  135.0390 C   0  0  0  0  0  1  0  0  0  0  0  0
  185.8640  178.7360  140.3860 C   0  0  0  0  0  2  0  0  0  0  0  0
  185.3670  179.2900  141.7060 C   0  0  0  0  0  2  0  0  0  0  0  0
  184.1380  178.5130  142.1540 C   0  0  0  0  0  2  0  0  0  0  0  0
  183.9240  178.5790  143.6650 C   0  0  0  0  0  3  0  0  0  0  0  0
  184.9300  179.5010  144.3310 C   0  0  0  0  0  1  0  0  0  0  0  0
  182.5080  179.0010  144.0110 C   0  0  0  0  0  1  0  0  0  0  0  0
  1  5  1  0  0  0  0
  1 12  1  0  0  0  0
  2  5  2  0  0  0  0
  3  6  2  0  0  0  0
  4 12  1  0  0  0  0
  6  9  1  0  0  0  0
  8 11  1  0  0  0  0
  8 10  1  0  0  0  0
  9 11  1  0  0  0  0
  9  2  1  0  0  0  0
 10  4  2  0  0  0  0
 11  1  2  0  0  0  0
 12  7  2  0  0  0  0
 13  6  1  1  0  0  0
 14 15  1  0  0  0  0
 14 13  1  0  0  0  0
 15 16  1  1  0  0  0
 15 13  1  0  0  0  0
 16 17  1  6  0  0  0
 18 16  1  0  0  0  0
 19 18  1  0  0  0  0
 20  2  1  0  0  0  0
 20 21  1  0  0  0  0
 21 22  1  0  0  0  0
 22 23  1  0  0  0  0
 23 25  1  0  0  0  0
 23 24  1  0  0  0  0
M  END
>  <MODEL>
9

>  <REMARK>
 VINA RESULT:      -6.1      3.111      4.251
  Name = 
  7 active torsions:
  status: ('A' for Active; 'I' for Inactive)
    1  A    between atoms: C_2  and  C_3
    2  A    between atoms: C_2  and  C_5
    3  A    between atoms: C_3  and  C_20
    4  A    between atoms: C_4  and  C_20
    5  A    between atoms: C_7  and  C_13
    6  A    between atoms: O_10  and  C_16
    7  A    between atoms: C_16  and  C_22
                            x       y       z     vdW  Elec       q    Type
                         _______ _______ _______ _____ _____    ______ ____

>  <TORSDO>
F 7

$$$$
