=
 OpenBabel10232412203D

 51 54  0  0  1  0  0  0  0  0999 V2000
  187.1490  178.4700  140.6200 C   0  0  0  0  0  0  0  0  0  0  0  0
  189.1960  177.4720  140.9680 C   0  0  0  0  0  3  0  0  0  0  0  0
  188.2630  177.8380  139.8570 C   0  0  2  0  0  3  0  0  0  0  0  0
  188.6800  177.8460  142.1350 C   0  0  0  0  0  0  0  0  0  0  0  0
  187.3820  178.4730  141.9240 C   0  0  0  0  0  3  0  0  0  0  0  0
  181.7760  178.0700  140.6350 O   0  0  0  0  0  0  0  0  0  0  0  0
  185.9620  178.9780  139.9980 N   0  0  0  0  0  2  0  0  0  0  0  0
  183.5390  179.2210  139.6050 N   0  0  0  0  0  2  0  0  0  0  0  0
  184.6170  178.5890  140.3050 C   0  0  0  0  0  0  0  0  0  0  0  0
  184.3850  177.7070  141.1740 O   0  0  0  0  0  0  0  0  0  0  0  0
  182.1490  178.9420  139.8040 C   0  0  0  0  0  0  0  0  0  0  0  0
  181.1380  179.7000  139.0060 C   0  0  0  0  0  3  0  0  0  0  0  0
  181.2200  181.1900  139.2900 C   0  0  0  0  0  2  0  0  0  0  0  0
  180.9730  180.8400  136.8990 C   0  0  0  0  0  2  0  0  0  0  0  0
  181.3730  179.5240  137.5200 C   0  0  0  0  0  2  0  0  0  0  0  0
  181.2830  181.8900  137.9440 C   0  0  0  0  0  2  0  0  0  0  0  0
  190.6570  177.1290  145.8860 C   0  0  0  0  0  3  0  0  0  0  0  0
  188.5930  177.5110  144.6550 C   0  0  0  0  0  0  0  0  0  0  0  0
  189.3320  177.6150  143.4510 C   0  0  0  0  0  0  0  0  0  0  0  0
  191.3870  177.2400  144.7050 C   0  0  0  0  0  3  0  0  0  0  0  0
  190.7300  177.4800  143.4990 C   0  0  0  0  0  3  0  0  0  0  0  0
  189.2700  177.2650  145.8610 C   0  0  0  0  0  3  0  0  0  0  0  0
  187.2000  177.6680  144.6440 O   0  0  0  0  0  0  0  0  0  0  0  0
  186.4010  177.6800  145.8230 C   0  0  0  0  0  2  0  0  0  0  0  0
  184.7310  178.7710  144.3910 C   0  0  0  0  0  3  0  0  0  0  0  0
  185.1860  178.5260  145.6200 C   0  0  0  0  0  3  0  0  0  0  0  0
  183.5160  179.6130  144.1760 C   0  0  0  0  0  2  0  0  0  0  0  0
  182.2770  178.7420  144.0710 C   0  0  0  0  0  1  0  0  0  0  0  0
  188.9120  178.8590  138.9360 C   0  0  0  0  0  2  0  0  0  0  0  0
  189.0550  178.2870  137.5380 C   0  0  0  0  0  2  0  0  0  0  0  0
  189.7210  176.7040  135.2920 O   0  0  0  0  0  0  0  0  0  0  0  0
  190.2360  176.3800  136.3960 C   0  0  0  0  0  0  0  0  0  0  0  0
  189.9320  177.1290  137.5750 N   0  0  0  0  0  2  0  0  0  0  0  0
  191.1480  175.2290  136.4740 C   0  0  0  0  0  0  0  0  0  0  0  0
  192.3910  175.4210  136.5720 O   0  0  0  0  0  0  0  0  0  0  0  0
  190.5980  173.8370  136.4380 C   0  0  0  0  0  2  0  0  0  0  0  0
  189.6430  173.6450  137.4410 O   0  0  0  0  0  0  0  0  0  0  0  0
  188.5470  173.1810  136.7910 N   0  0  0  0  0  2  0  0  0  0  0  0
  187.2640  175.0590  137.3110 O   0  0  0  0  0  0  0  0  0  0  0  0
  187.3470  173.9510  136.7170 C   0  0  0  0  0  0  0  0  0  0  0  0
  186.1780  173.4340  135.9400 C   0  0  0  0  0  2  0  0  0  0  0  0
  185.4730  172.8510  138.1580 O   0  0  0  0  0  1  0  0  0  0  0  0
  185.0360  172.9200  136.8310 C   0  0  1  0  0  0  0  0  0  0  0  0
  182.5540  175.5290  135.3820 C   0  0  0  0  0  2  0  0  0  0  0  0
  182.6700  176.4560  136.4620 O   0  0  0  0  0  0  0  0  0  0  0  0
  183.8390  173.8910  136.7390 C   0  0  2  0  0  3  0  0  0  0  0  0
  183.2590  176.1050  137.6840 C   0  0  0  0  0  3  0  0  0  0  0  0
  183.7470  174.5780  135.3720 C   0  0  0  0  0  2  0  0  0  0  0  0
  183.8410  174.9160  137.8470 C   0  0  0  0  0  3  0  0  0  0  0  0
  183.3830  171.1580  136.9250 O   0  0  0  0  0  1  0  0  0  0  0  0
  184.6190  171.5150  136.3800 C   0  0  0  0  0  2  0  0  0  0  0  0
  1  5  2  0  0  0  0
  2  4  2  0  0  0  0
  3 29  1  6  0  0  0
  3  1  1  0  0  0  0
  3  2  1  0  0  0  0
  4 19  1  0  0  0  0
  5  4  1  0  0  0  0
  7  9  1  0  0  0  0
  7  1  1  0  0  0  0
  8 11  1  0  0  0  0
  8  9  1  0  0  0  0
  9 10  2  0  0  0  0
 11  6  2  0  0  0  0
 12 13  1  0  0  0  0
 12 11  1  0  0  0  0
 14 15  1  0  0  0  0
 14 16  1  0  0  0  0
 15 12  1  0  0  0  0
 16 13  1  0  0  0  0
 18 22  2  0  0  0  0
 19 21  2  0  0  0  0
 19 18  1  0  0  0  0
 20 17  2  0  0  0  0
 21 20  1  0  0  0  0
 22 17  1  0  0  0  0
 23 18  1  0  0  0  0
 23 24  1  0  0  0  0
 25 26  2  0  0  0  0
 26 24  1  0  0  0  0
 27 25  1  0  0  0  0
 28 27  1  0  0  0  0
 30 33  1  0  0  0  0
 30 29  1  0  0  0  0
 31 32  2  0  0  0  0
 32 34  1  0  0  0  0
 32 33  1  0  0  0  0
 34 35  2  0  0  0  0
 36 34  1  0  0  0  0
 36 37  1  0  0  0  0
 38 37  1  0  0  0  0
 40 38  1  0  0  0  0
 40 39  2  0  0  0  0
 41 40  1  0  0  0  0
 41 43  1  0  0  0  0
 43 42  1  1  0  0  0
 44 45  1  0  0  0  0
 45 47  1  0  0  0  0
 46 43  1  6  0  0  0
 46 49  1  0  0  0  0
 47 49  2  0  0  0  0
 48 44  1  0  0  0  0
 48 46  1  0  0  0  0
 51 43  1  0  0  0  0
 51 50  1  0  0  0  0
M  END
>  <MODEL>
1

>  <REMARK>
 VINA RESULT:      -7.6      0.000      0.000
  Name = 
  18 active torsions:
  status: ('A' for Active; 'I' for Inactive)
    1  A    between atoms: N_3  and  C_12
    2  A    between atoms: C_4  and  C_20
    3  A    between atoms: C_4  and  C_24
    4  A    between atoms: C_6  and  C_8
    5  A    between atoms: C_7  and  C_40
    6  A    between atoms: C_7  and  C_48
    7  A    between atoms: C_8  and  C_46
    8  A    between atoms: O_11  and  N_26
    9  A    between atoms: O_11  and  C_46
   10  A    between atoms: C_13  and  O_43
   11  A    between atoms: C_16  and  C_37
   12  A    between atoms: C_17  and  C_50
   13  A    between atoms: N_19  and  C_24
   14  A    between atoms: C_22  and  C_40
   15  A    between atoms: C_28  and  C_33
   16  A    between atoms: C_34  and  C_45
   17  A    between atoms: C_39  and  C_40
   18  A    between atoms: O_43  and  C_45
                            x       y       z     vdW  Elec       q    Type
                         _______ _______ _______ _____ _____    ______ ____

>  <TORSDO>
F 18

$$$$
=
 OpenBabel10232412203D

 51 54  0  0  1  0  0  0  0  0999 V2000
  189.9400  176.9060  141.1740 C   0  0  0  0  0  0  0  0  0  0  0  0
  189.1070  178.1620  142.9160 C   0  0  0  0  0  3  0  0  0  0  0  0
  189.0240  178.0550  141.4260 C   0  0  2  0  0  3  0  0  0  0  0  0
  189.9240  177.2280  143.3930 C   0  0  0  0  0  0  0  0  0  0  0  0
  190.4600  176.4330  142.2950 C   0  0  0  0  0  3  0  0  0  0  0  0
  193.7590  176.7840  137.3740 O   0  0  0  0  0  0  0  0  0  0  0  0
  190.2330  176.4100  139.8610 N   0  0  0  0  0  2  0  0  0  0  0  0
  191.5950  176.0150  137.8430 N   0  0  0  0  0  2  0  0  0  0  0  0
  191.4550  176.6060  139.1390 C   0  0  0  0  0  0  0  0  0  0  0  0
  192.3930  177.2880  139.6350 O   0  0  0  0  0  0  0  0  0  0  0  0
  192.7520  176.1190  137.0070 C   0  0  0  0  0  0  0  0  0  0  0  0
  192.7520  175.4280  135.6820 C   0  0  0  0  0  3  0  0  0  0  0  0
  194.1640  175.0770  135.2460 C   0  0  0  0  0  2  0  0  0  0  0  0
  192.6930  173.1960  134.7980 C   0  0  0  0  0  2  0  0  0  0  0  0
  191.9770  174.1280  135.7440 C   0  0  0  0  0  2  0  0  0  0  0  0
  194.1480  173.6120  134.8460 C   0  0  0  0  0  2  0  0  0  0  0  0
  190.9590  176.6620  147.5280 C   0  0  0  0  0  3  0  0  0  0  0  0
  189.3650  177.4450  145.8640 C   0  0  0  0  0  0  0  0  0  0  0  0
  190.2560  177.0620  144.8320 C   0  0  0  0  0  0  0  0  0  0  0  0
  191.8410  176.2920  146.5150 C   0  0  0  0  0  3  0  0  0  0  0  0
  191.4910  176.4900  145.1800 C   0  0  0  0  0  3  0  0  0  0  0  0
  189.7300  177.2350  147.2050 C   0  0  0  0  0  3  0  0  0  0  0  0
  188.1360  178.0420  145.5510 O   0  0  0  0  0  0  0  0  0  0  0  0
  186.8830  177.5560  146.0210 C   0  0  0  0  0  2  0  0  0  0  0  0
  185.0930  178.5010  144.6290 C   0  0  0  0  0  3  0  0  0  0  0  0
  185.8040  178.5560  145.7560 C   0  0  0  0  0  3  0  0  0  0  0  0
  184.0110  179.4930  144.3560 C   0  0  0  0  0  2  0  0  0  0  0  0
  182.6700  178.7940  144.2230 C   0  0  0  0  0  1  0  0  0  0  0  0
  187.6080  177.7000  140.9990 C   0  0  0  0  0  2  0  0  0  0  0  0
  186.6700  178.8570  141.2820 C   0  0  0  0  0  2  0  0  0  0  0  0
  184.8640  179.9200  139.3820 O   0  0  0  0  0  0  0  0  0  0  0  0
  184.4390  178.9930  140.1230 C   0  0  0  0  0  0  0  0  0  0  0  0
  185.2940  178.4190  141.1140 N   0  0  0  0  0  2  0  0  0  0  0  0
  183.0610  178.5030  139.9720 C   0  0  0  0  0  0  0  0  0  0  0  0
  182.1660  178.8950  140.7700 O   0  0  0  0  0  0  0  0  0  0  0  0
  182.7260  177.5430  138.8730 C   0  0  0  0  0  2  0  0  0  0  0  0
  183.1280  178.0390  137.6290 O   0  0  0  0  0  0  0  0  0  0  0  0
  183.4110  176.9380  136.8920 N   0  0  0  0  0  2  0  0  0  0  0  0
  185.7040  177.0760  137.3010 O   0  0  0  0  0  0  0  0  0  0  0  0
  184.7480  176.4500  136.7700 C   0  0  0  0  0  0  0  0  0  0  0  0
  185.0150  175.1970  135.9990 C   0  0  0  0  0  2  0  0  0  0  0  0
  184.3510  174.1610  138.0570 O   0  0  0  0  0  1  0  0  0  0  0  0
  185.0760  173.9410  136.8820 C   0  0  1  0  0  0  0  0  0  0  0  0
  183.0840  170.6790  136.2000 C   0  0  0  0  0  2  0  0  0  0  0  0
  184.1490  169.9930  135.5420 O   0  0  0  0  0  0  0  0  0  0  0  0
  184.4580  172.7490  136.1190 C   0  0  2  0  0  3  0  0  0  0  0  0
  185.2960  170.6590  135.0900 C   0  0  0  0  0  3  0  0  0  0  0  0
  183.6340  171.8340  137.0320 C   0  0  0  0  0  2  0  0  0  0  0  0
  185.4900  171.9510  135.3620 C   0  0  0  0  0  3  0  0  0  0  0  0
  187.4140  174.4450  136.5300 O   0  0  0  0  0  1  0  0  0  0  0  0
  186.5320  173.6390  137.2540 C   0  0  0  0  0  2  0  0  0  0  0  0
  1  3  1  0  0  0  0
  1  5  2  0  0  0  0
  2  4  2  0  0  0  0
  3 29  1  1  0  0  0
  3  2  1  0  0  0  0
  4 19  1  0  0  0  0
  5  4  1  0  0  0  0
  7  1  1  0  0  0  0
  8  9  1  0  0  0  0
  9 10  2  0  0  0  0
  9  7  1  0  0  0  0
 11  6  2  0  0  0  0
 11  8  1  0  0  0  0
 12 15  1  0  0  0  0
 12 11  1  0  0  0  0
 13 12  1  0  0  0  0
 14 16  1  0  0  0  0
 14 15  1  0  0  0  0
 16 13  1  0  0  0  0
 18 22  2  0  0  0  0
 19 21  2  0  0  0  0
 19 18  1  0  0  0  0
 20 17  2  0  0  0  0
 21 20  1  0  0  0  0
 22 17  1  0  0  0  0
 23 18  1  0  0  0  0
 23 24  1  0  0  0  0
 25 26  2  0  0  0  0
 26 24  1  0  0  0  0
 27 25  1  0  0  0  0
 28 27  1  0  0  0  0
 29 30  1  0  0  0  0
 31 32  2  0  0  0  0
 32 33  1  0  0  0  0
 33 30  1  0  0  0  0
 34 32  1  0  0  0  0
 34 35  2  0  0  0  0
 36 34  1  0  0  0  0
 37 36  1  0  0  0  0
 38 37  1  0  0  0  0
 40 38  1  0  0  0  0
 40 39  2  0  0  0  0
 41 40  1  0  0  0  0
 41 43  1  0  0  0  0
 43 51  1  0  0  0  0
 43 42  1  1  0  0  0
 44 48  1  0  0  0  0
 45 44  1  0  0  0  0
 46 43  1  1  0  0  0
 46 48  1  0  0  0  0
 47 49  2  0  0  0  0
 47 45  1  0  0  0  0
 49 46  1  0  0  0  0
 50 51  1  0  0  0  0
M  END
>  <MODEL>
2

>  <REMARK>
 VINA RESULT:      -7.6      1.984      6.739
  Name = 
  18 active torsions:
  status: ('A' for Active; 'I' for Inactive)
    1  A    between atoms: N_3  and  C_12
    2  A    between atoms: C_4  and  C_20
    3  A    between atoms: C_4  and  C_24
    4  A    between atoms: C_6  and  C_8
    5  A    between atoms: C_7  and  C_40
    6  A    between atoms: C_7  and  C_48
    7  A    between atoms: C_8  and  C_46
    8  A    between atoms: O_11  and  N_26
    9  A    between atoms: O_11  and  C_46
   10  A    between atoms: C_13  and  O_43
   11  A    between atoms: C_16  and  C_37
   12  A    between atoms: C_17  and  C_50
   13  A    between atoms: N_19  and  C_24
   14  A    between atoms: C_22  and  C_40
   15  A    between atoms: C_28  and  C_33
   16  A    between atoms: C_34  and  C_45
   17  A    between atoms: C_39  and  C_40
   18  A    between atoms: O_43  and  C_45
                            x       y       z     vdW  Elec       q    Type
                         _______ _______ _______ _____ _____    ______ ____

>  <TORSDO>
F 18

$$$$
=
 OpenBabel10232412203D

 51 54  0  0  1  0  0  0  0  0999 V2000
  187.1640  178.5070  140.8350 C   0  0  0  0  0  0  0  0  0  0  0  0
  189.2060  177.4750  141.0970 C   0  0  0  0  0  3  0  0  0  0  0  0
  188.2250  177.8390  140.0290 C   0  0  2  0  0  3  0  0  0  0  0  0
  188.7580  177.8790  142.2820 C   0  0  0  0  0  0  0  0  0  0  0  0
  187.4630  178.5290  142.1250 C   0  0  0  0  0  3  0  0  0  0  0  0
  181.7950  178.0790  140.9960 O   0  0  0  0  0  0  0  0  0  0  0  0
  185.9560  179.0290  140.2650 N   0  0  0  0  0  2  0  0  0  0  0  0
  183.5220  179.2720  139.9520 N   0  0  0  0  0  2  0  0  0  0  0  0
  184.6230  178.6240  140.5990 C   0  0  0  0  0  0  0  0  0  0  0  0
  184.4200  177.7130  141.4460 O   0  0  0  0  0  0  0  0  0  0  0  0
  182.1390  178.9790  140.1830 C   0  0  0  0  0  0  0  0  0  0  0  0
  181.1030  179.7560  139.4400 C   0  0  0  0  0  3  0  0  0  0  0  0
  181.7220  180.9320  138.7020 C   0  0  0  0  0  2  0  0  0  0  0  0
  180.1110  179.8320  137.2540 C   0  0  0  0  0  2  0  0  0  0  0  0
  180.4190  178.8960  138.3970 C   0  0  0  0  0  2  0  0  0  0  0  0
  181.2140  180.8690  137.2720 C   0  0  0  0  0  2  0  0  0  0  0  0
  190.9220  177.2200  145.9390 C   0  0  0  0  0  3  0  0  0  0  0  0
  188.8030  177.2360  144.7420 C   0  0  0  0  0  0  0  0  0  0  0  0
  189.4710  177.6570  143.5670 C   0  0  0  0  0  0  0  0  0  0  0  0
  191.5810  177.6430  144.7880 C   0  0  0  0  0  3  0  0  0  0  0  0
  190.8610  177.8590  143.6120 C   0  0  0  0  0  3  0  0  0  0  0  0
  189.5420  177.0190  145.9170 C   0  0  0  0  0  3  0  0  0  0  0  0
  187.4130  177.0510  144.7360 O   0  0  0  0  0  0  0  0  0  0  0  0
  186.5430  177.6020  145.7200 C   0  0  0  0  0  2  0  0  0  0  0  0
  185.0800  179.3180  144.7480 C   0  0  0  0  0  3  0  0  0  0  0  0
  185.2600  178.0430  145.0920 C   0  0  0  0  0  3  0  0  0  0  0  0
  183.8040  179.7690  144.1160 C   0  0  0  0  0  2  0  0  0  0  0  0
  182.7070  178.7440  144.3430 C   0  0  0  0  0  1  0  0  0  0  0  0
  188.8460  178.8310  139.0570 C   0  0  0  0  0  2  0  0  0  0  0  0
  188.5200  178.4390  137.6280 C   0  0  0  0  0  2  0  0  0  0  0  0
  186.6590  177.9680  135.5510 O   0  0  0  0  0  0  0  0  0  0  0  0
  186.6270  177.1860  136.5400 C   0  0  0  0  0  0  0  0  0  0  0  0
  187.5300  177.3740  137.6310 N   0  0  0  0  0  2  0  0  0  0  0  0
  185.6580  176.0810  136.5730 C   0  0  0  0  0  0  0  0  0  0  0  0
  184.6990  176.1140  137.3920 O   0  0  0  0  0  0  0  0  0  0  0  0
  185.8120  174.9240  135.6370 C   0  0  0  0  0  2  0  0  0  0  0  0
  185.8740  173.7140  136.3340 O   0  0  0  0  0  0  0  0  0  0  0  0
  187.0990  173.7110  136.9150 N   0  0  0  0  0  2  0  0  0  0  0  0
  188.0490  172.3870  135.2450 O   0  0  0  0  0  0  0  0  0  0  0  0
  188.2060  173.0420  136.3090 C   0  0  0  0  0  0  0  0  0  0  0  0
  189.5570  173.1120  136.9480 C   0  0  0  0  0  2  0  0  0  0  0  0
  189.6510  175.2500  135.8660 O   0  0  0  0  0  1  0  0  0  0  0  0
  190.4500  174.2150  136.3610 C   0  0  1  0  0  0  0  0  0  0  0  0
  192.2210  176.7510  138.7080 C   0  0  0  0  0  2  0  0  0  0  0  0
  193.5490  176.3130  138.4200 O   0  0  0  0  0  0  0  0  0  0  0  0
  191.3720  174.7700  137.4690 C   0  0  2  0  0  3  0  0  0  0  0  0
  193.8080  175.1000  137.7670 C   0  0  0  0  0  3  0  0  0  0  0  0
  191.2650  176.2930  137.6100 C   0  0  0  0  0  2  0  0  0  0  0  0
  192.8110  174.3560  137.2830 C   0  0  0  0  0  3  0  0  0  0  0  0
  191.3320  172.2520  135.2590 O   0  0  0  0  0  1  0  0  0  0  0  0
  191.2850  173.6480  135.2070 C   0  0  0  0  0  2  0  0  0  0  0  0
  1  5  2  0  0  0  0
  2  4  2  0  0  0  0
  3 29  1  6  0  0  0
  3  1  1  0  0  0  0
  3  2  1  0  0  0  0
  4 19  1  0  0  0  0
  5  4  1  0  0  0  0
  7  9  1  0  0  0  0
  7  1  1  0  0  0  0
  8 11  1  0  0  0  0
  8  9  1  0  0  0  0
  9 10  2  0  0  0  0
 11  6  2  0  0  0  0
 12 11  1  0  0  0  0
 13 12  1  0  0  0  0
 14 16  1  0  0  0  0
 14 15  1  0  0  0  0
 15 12  1  0  0  0  0
 16 13  1  0  0  0  0
 18 22  2  0  0  0  0
 19 21  2  0  0  0  0
 19 18  1  0  0  0  0
 20 17  2  0  0  0  0
 21 20  1  0  0  0  0
 22 17  1  0  0  0  0
 23 18  1  0  0  0  0
 23 24  1  0  0  0  0
 25 26  2  0  0  0  0
 26 24  1  0  0  0  0
 27 28  1  0  0  0  0
 27 25  1  0  0  0  0
 30 33  1  0  0  0  0
 30 29  1  0  0  0  0
 31 32  2  0  0  0  0
 32 34  1  0  0  0  0
 32 33  1  0  0  0  0
 34 35  2  0  0  0  0
 36 37  1  0  0  0  0
 36 34  1  0  0  0  0
 37 38  1  0  0  0  0
 39 40  2  0  0  0  0
 40 38  1  0  0  0  0
 40 41  1  0  0  0  0
 43 42  1  6  0  0  0
 43 41  1  0  0  0  0
 45 44  1  0  0  0  0
 46 43  1  6  0  0  0
 46 48  1  0  0  0  0
 47 45  1  0  0  0  0
 48 44  1  0  0  0  0
 49 46  1  0  0  0  0
 49 47  2  0  0  0  0
 51 50  1  0  0  0  0
 51 43  1  0  0  0  0
M  END
>  <MODEL>
3

>  <REMARK>
 VINA RESULT:      -7.5      1.529      4.252
  Name = 
  18 active torsions:
  status: ('A' for Active; 'I' for Inactive)
    1  A    between atoms: N_3  and  C_12
    2  A    between atoms: C_4  and  C_20
    3  A    between atoms: C_4  and  C_24
    4  A    between atoms: C_6  and  C_8
    5  A    between atoms: C_7  and  C_40
    6  A    between atoms: C_7  and  C_48
    7  A    between atoms: C_8  and  C_46
    8  A    between atoms: O_11  and  N_26
    9  A    between atoms: O_11  and  C_46
   10  A    between atoms: C_13  and  O_43
   11  A    between atoms: C_16  and  C_37
   12  A    between atoms: C_17  and  C_50
   13  A    between atoms: N_19  and  C_24
   14  A    between atoms: C_22  and  C_40
   15  A    between atoms: C_28  and  C_33
   16  A    between atoms: C_34  and  C_45
   17  A    between atoms: C_39  and  C_40
   18  A    between atoms: O_43  and  C_45
                            x       y       z     vdW  Elec       q    Type
                         _______ _______ _______ _____ _____    ______ ____

>  <TORSDO>
F 18

$$$$
=
 OpenBabel10232412203D

 51 54  0  0  1  0  0  0  0  0999 V2000
  189.2180  176.9110  142.2470 C   0  0  0  0  0  0  0  0  0  0  0  0
  190.4610  177.2870  144.1490 C   0  0  0  0  0  3  0  0  0  0  0  0
  190.6370  176.9700  142.6980 C   0  0  2  0  0  3  0  0  0  0  0  0
  189.1670  177.3870  144.4370 C   0  0  0  0  0  0  0  0  0  0  0  0
  188.3740  177.1440  143.2400 C   0  0  0  0  0  3  0  0  0  0  0  0
  187.7180  179.1520  137.5820 O   0  0  0  0  0  0  0  0  0  0  0  0
  188.8340  176.6030  140.9000 N   0  0  0  0  0  2  0  0  0  0  0  0
  188.1530  177.0750  138.5770 N   0  0  0  0  0  2  0  0  0  0  0  0
  188.4850  177.5530  139.8860 C   0  0  0  0  0  0  0  0  0  0  0  0
  188.4680  178.7880  140.1380 O   0  0  0  0  0  0  0  0  0  0  0  0
  187.7880  177.8980  137.4640 C   0  0  0  0  0  0  0  0  0  0  0  0
  187.4840  177.2490  136.1540 C   0  0  0  0  0  3  0  0  0  0  0  0
  187.6380  175.7400  136.2400 C   0  0  0  0  0  2  0  0  0  0  0  0
  185.6180  176.2730  135.0000 C   0  0  0  0  0  2  0  0  0  0  0  0
  186.0560  177.5200  135.7280 C   0  0  0  0  0  2  0  0  0  0  0  0
  186.3720  175.1360  135.6560 C   0  0  0  0  0  2  0  0  0  0  0  0
  187.7010  178.1320  148.4110 C   0  0  0  0  0  3  0  0  0  0  0  0
  187.2900  178.0650  146.0130 C   0  0  0  0  0  0  0  0  0  0  0  0
  188.6320  177.6680  145.7950 C   0  0  0  0  0  0  0  0  0  0  0  0
  189.0240  177.7510  148.1990 C   0  0  0  0  0  3  0  0  0  0  0  0
  189.4840  177.5210  146.9020 C   0  0  0  0  0  3  0  0  0  0  0  0
  186.8400  178.2890  147.3260 C   0  0  0  0  0  3  0  0  0  0  0  0
  186.4210  178.2470  144.9270 O   0  0  0  0  0  0  0  0  0  0  0  0
  185.2450  179.0480  144.9860 C   0  0  0  0  0  2  0  0  0  0  0  0
  184.8240  178.1320  142.7460 C   0  0  0  0  0  3  0  0  0  0  0  0
  184.5650  179.0720  143.6560 C   0  0  0  0  0  3  0  0  0  0  0  0
  184.1480  178.1450  141.4150 C   0  0  0  0  0  2  0  0  0  0  0  0
  184.9070  179.0270  140.4410 C   0  0  0  0  0  1  0  0  0  0  0  0
  191.3630  178.1060  141.9930 C   0  0  0  0  0  2  0  0  0  0  0  0
  192.3510  177.5510  140.9850 C   0  0  0  0  0  2  0  0  0  0  0  0
  193.4150  176.8910  138.4490 O   0  0  0  0  0  0  0  0  0  0  0  0
  192.2380  176.5140  138.6940 C   0  0  0  0  0  0  0  0  0  0  0  0
  191.6330  176.8250  139.9510 N   0  0  0  0  0  2  0  0  0  0  0  0
  191.4820  175.7560  137.6850 C   0  0  0  0  0  0  0  0  0  0  0  0
  190.7760  174.7730  138.0410 O   0  0  0  0  0  0  0  0  0  0  0  0
  191.5540  176.1540  136.2440 C   0  0  0  0  0  2  0  0  0  0  0  0
  191.9110  175.0690  135.4370 O   0  0  0  0  0  0  0  0  0  0  0  0
  193.2310  174.8760  135.6790 N   0  0  0  0  0  2  0  0  0  0  0  0
  193.0300  172.5530  135.7390 O   0  0  0  0  0  0  0  0  0  0  0  0
  193.7800  173.5630  135.7980 C   0  0  0  0  0  0  0  0  0  0  0  0
  195.2510  173.3880  136.0040 C   0  0  0  0  0  2  0  0  0  0  0  0
  194.5290  173.5800  138.2830 O   0  0  0  0  0  1  0  0  0  0  0  0
  195.6630  173.4030  137.4840 C   0  0  1  0  0  0  0  0  0  0  0  0
  198.0660  170.3590  137.3070 C   0  0  0  0  0  2  0  0  0  0  0  0
  197.0420  169.3640  137.3350 O   0  0  0  0  0  0  0  0  0  0  0  0
  196.3330  172.0590  137.8430 C   0  0  2  0  0  3  0  0  0  0  0  0
  195.7220  169.6640  137.6960 C   0  0  0  0  0  3  0  0  0  0  0  0
  197.4810  171.7060  136.8910 C   0  0  0  0  0  2  0  0  0  0  0  0
  195.3420  170.9230  137.9210 C   0  0  0  0  0  3  0  0  0  0  0  0
  196.8290  175.3190  136.5820 O   0  0  0  0  0  1  0  0  0  0  0  0
  196.6290  174.5660  137.7410 C   0  0  0  0  0  2  0  0  0  0  0  0
  1  3  1  0  0  0  0
  1  5  2  0  0  0  0
  2  4  2  0  0  0  0
  3 29  1  6  0  0  0
  3  2  1  0  0  0  0
  4 19  1  0  0  0  0
  5  4  1  0  0  0  0
  7  1  1  0  0  0  0
  8  9  1  0  0  0  0
  9 10  2  0  0  0  0
  9  7  1  0  0  0  0
 11  6  2  0  0  0  0
 11  8  1  0  0  0  0
 12 13  1  0  0  0  0
 12 11  1  0  0  0  0
 14 16  1  0  0  0  0
 14 15  1  0  0  0  0
 15 12  1  0  0  0  0
 16 13  1  0  0  0  0
 18 22  1  0  0  0  0
 19 18  2  0  0  0  0
 19 21  1  0  0  0  0
 20 17  1  0  0  0  0
 21 20  2  0  0  0  0
 22 17  2  0  0  0  0
 23 24  1  0  0  0  0
 23 18  1  0  0  0  0
 25 26  2  0  0  0  0
 26 24  1  0  0  0  0
 27 25  1  0  0  0  0
 28 27  1  0  0  0  0
 30 29  1  0  0  0  0
 31 32  2  0  0  0  0
 32 33  1  0  0  0  0
 33 30  1  0  0  0  0
 34 35  2  0  0  0  0
 34 32  1  0  0  0  0
 36 34  1  0  0  0  0
 37 38  1  0  0  0  0
 37 36  1  0  0  0  0
 38 40  1  0  0  0  0
 39 40  2  0  0  0  0
 40 41  1  0  0  0  0
 41 43  1  0  0  0  0
 43 51  1  0  0  0  0
 43 42  1  1  0  0  0
 44 45  1  0  0  0  0
 45 47  1  0  0  0  0
 46 43  1  6  0  0  0
 46 49  1  0  0  0  0
 47 49  2  0  0  0  0
 48 44  1  0  0  0  0
 48 46  1  0  0  0  0
 50 51  1  0  0  0  0
M  END
>  <MODEL>
4

>  <REMARK>
 VINA RESULT:      -7.5      3.434      7.254
  Name = 
  18 active torsions:
  status: ('A' for Active; 'I' for Inactive)
    1  A    between atoms: N_3  and  C_12
    2  A    between atoms: C_4  and  C_20
    3  A    between atoms: C_4  and  C_24
    4  A    between atoms: C_6  and  C_8
    5  A    between atoms: C_7  and  C_40
    6  A    between atoms: C_7  and  C_48
    7  A    between atoms: C_8  and  C_46
    8  A    between atoms: O_11  and  N_26
    9  A    between atoms: O_11  and  C_46
   10  A    between atoms: C_13  and  O_43
   11  A    between atoms: C_16  and  C_37
   12  A    between atoms: C_17  and  C_50
   13  A    between atoms: N_19  and  C_24
   14  A    between atoms: C_22  and  C_40
   15  A    between atoms: C_28  and  C_33
   16  A    between atoms: C_34  and  C_45
   17  A    between atoms: C_39  and  C_40
   18  A    between atoms: O_43  and  C_45
                            x       y       z     vdW  Elec       q    Type
                         _______ _______ _______ _____ _____    ______ ____

>  <TORSDO>
F 18

$$$$
=
 OpenBabel10232412203D

 51 54  0  0  1  0  0  0  0  0999 V2000
  189.2890  176.8640  141.8540 C   0  0  0  0  0  0  0  0  0  0  0  0
  190.5640  177.1440  143.7510 C   0  0  0  0  0  3  0  0  0  0  0  0
  190.7150  176.8860  142.2850 C   0  0  2  0  0  3  0  0  0  0  0  0
  189.2760  177.2480  144.0630 C   0  0  0  0  0  0  0  0  0  0  0  0
  188.4620  177.0660  142.8680 C   0  0  0  0  0  3  0  0  0  0  0  0
  187.7140  179.3160  137.3210 O   0  0  0  0  0  0  0  0  0  0  0  0
  188.8810  176.6180  140.5010 N   0  0  0  0  0  2  0  0  0  0  0  0
  188.1600  177.1960  138.2140 N   0  0  0  0  0  2  0  0  0  0  0  0
  188.5160  177.6130  139.5370 C   0  0  0  0  0  0  0  0  0  0  0  0
  188.5060  178.8360  139.8450 O   0  0  0  0  0  0  0  0  0  0  0  0
  187.7790  178.0690  137.1460 C   0  0  0  0  0  0  0  0  0  0  0  0
  187.4510  177.4800  135.8130 C   0  0  0  0  0  3  0  0  0  0  0  0
  187.9400  176.0450  135.7120 C   0  0  0  0  0  2  0  0  0  0  0  0
  185.7050  176.2020  134.7720 C   0  0  0  0  0  2  0  0  0  0  0  0
  185.9540  177.4500  135.5820 C   0  0  0  0  0  2  0  0  0  0  0  0
  186.7690  175.2180  135.2090 C   0  0  0  0  0  2  0  0  0  0  0  0
  187.8790  177.8430  148.0860 C   0  0  0  0  0  3  0  0  0  0  0  0
  187.4330  177.8900  145.6940 C   0  0  0  0  0  0  0  0  0  0  0  0
  188.7650  177.4790  145.4390 C   0  0  0  0  0  0  0  0  0  0  0  0
  189.1910  177.4480  147.8380 C   0  0  0  0  0  3  0  0  0  0  0  0
  189.6290  177.2670  146.5270 C   0  0  0  0  0  3  0  0  0  0  0  0
  187.0060  178.0640  147.0210 C   0  0  0  0  0  3  0  0  0  0  0  0
  186.5540  178.1350  144.6300 O   0  0  0  0  0  0  0  0  0  0  0  0
  185.2450  178.6700  144.7980 C   0  0  0  0  0  2  0  0  0  0  0  0
  184.9560  178.5890  142.3610 C   0  0  0  0  0  3  0  0  0  0  0  0
  184.4240  178.4320  143.5730 C   0  0  0  0  0  3  0  0  0  0  0  0
  184.1450  178.3500  141.1290 C   0  0  0  0  0  2  0  0  0  0  0  0
  184.8950  178.8250  139.8980 C   0  0  0  0  0  1  0  0  0  0  0  0
  191.4460  178.0420  141.6180 C   0  0  0  0  0  2  0  0  0  0  0  0
  192.4870  177.5140  140.6500 C   0  0  0  0  0  2  0  0  0  0  0  0
  193.7040  176.5990  138.2670 O   0  0  0  0  0  0  0  0  0  0  0  0
  192.5290  176.2060  138.4990 C   0  0  0  0  0  0  0  0  0  0  0  0
  191.8490  176.6410  139.6790 N   0  0  0  0  0  2  0  0  0  0  0  0
  191.8550  175.3030  137.5560 C   0  0  0  0  0  0  0  0  0  0  0  0
  190.7810  174.7340  137.8930 O   0  0  0  0  0  0  0  0  0  0  0  0
  192.4430  175.0640  136.2000 C   0  0  0  0  0  2  0  0  0  0  0  0
  192.4730  173.7000  135.8950 O   0  0  0  0  0  0  0  0  0  0  0  0
  193.7900  173.3870  135.8290 N   0  0  0  0  0  2  0  0  0  0  0  0
  193.3850  171.1070  135.5500 O   0  0  0  0  0  0  0  0  0  0  0  0
  194.2250  172.0440  135.6180 C   0  0  0  0  0  0  0  0  0  0  0  0
  195.6840  171.7450  135.4900 C   0  0  0  0  0  2  0  0  0  0  0  0
  197.1860  170.3380  136.7210 O   0  0  0  0  0  1  0  0  0  0  0  0
  196.3680  171.4660  136.8370 C   0  0  1  0  0  0  0  0  0  0  0  0
  197.4990  174.7090  138.6480 C   0  0  0  0  0  2  0  0  0  0  0  0
  197.7550  175.4580  137.4590 O   0  0  0  0  0  0  0  0  0  0  0  0
  197.2330  172.6820  137.2330 C   0  0  2  0  0  3  0  0  0  0  0  0
  197.8500  174.8480  136.2010 C   0  0  0  0  0  3  0  0  0  0  0  0
  196.5880  173.5240  138.3390 C   0  0  0  0  0  2  0  0  0  0  0  0
  197.5890  173.5480  136.0490 C   0  0  0  0  0  3  0  0  0  0  0  0
  195.2270  169.8300  138.2030 O   0  0  0  0  0  1  0  0  0  0  0  0
  195.3080  171.1940  137.9100 C   0  0  0  0  0  2  0  0  0  0  0  0
  1  3  1  0  0  0  0
  1  5  2  0  0  0  0
  2  4  2  0  0  0  0
  3 29  1  6  0  0  0
  3  2  1  0  0  0  0
  4 19  1  0  0  0  0
  5  4  1  0  0  0  0
  7  1  1  0  0  0  0
  8  9  1  0  0  0  0
  9 10  2  0  0  0  0
  9  7  1  0  0  0  0
 11  6  2  0  0  0  0
 11  8  1  0  0  0  0
 12 11  1  0  0  0  0
 13 12  1  0  0  0  0
 14 16  1  0  0  0  0
 14 15  1  0  0  0  0
 15 12  1  0  0  0  0
 16 13  1  0  0  0  0
 18 22  1  0  0  0  0
 19 18  2  0  0  0  0
 19 21  1  0  0  0  0
 20 17  1  0  0  0  0
 21 20  2  0  0  0  0
 22 17  2  0  0  0  0
 23 24  1  0  0  0  0
 23 18  1  0  0  0  0
 25 26  2  0  0  0  0
 26 24  1  0  0  0  0
 27 25  1  0  0  0  0
 28 27  1  0  0  0  0
 30 29  1  0  0  0  0
 31 32  2  0  0  0  0
 32 33  1  0  0  0  0
 33 30  1  0  0  0  0
 34 35  2  0  0  0  0
 34 32  1  0  0  0  0
 36 34  1  0  0  0  0
 37 36  1  0  0  0  0
 38 37  1  0  0  0  0
 39 40  2  0  0  0  0
 40 38  1  0  0  0  0
 41 40  1  0  0  0  0
 41 43  1  0  0  0  0
 43 42  1  6  0  0  0
 43 51  1  0  0  0  0
 45 44  1  0  0  0  0
 46 43  1  6  0  0  0
 46 48  1  0  0  0  0
 47 45  1  0  0  0  0
 48 44  1  0  0  0  0
 49 47  2  0  0  0  0
 49 46  1  0  0  0  0
 51 50  1  0  0  0  0
M  END
>  <MODEL>
5

>  <REMARK>
 VINA RESULT:      -7.3      3.607      7.281
  Name = 
  18 active torsions:
  status: ('A' for Active; 'I' for Inactive)
    1  A    between atoms: N_3  and  C_12
    2  A    between atoms: C_4  and  C_20
    3  A    between atoms: C_4  and  C_24
    4  A    between atoms: C_6  and  C_8
    5  A    between atoms: C_7  and  C_40
    6  A    between atoms: C_7  and  C_48
    7  A    between atoms: C_8  and  C_46
    8  A    between atoms: O_11  and  N_26
    9  A    between atoms: O_11  and  C_46
   10  A    between atoms: C_13  and  O_43
   11  A    between atoms: C_16  and  C_37
   12  A    between atoms: C_17  and  C_50
   13  A    between atoms: N_19  and  C_24
   14  A    between atoms: C_22  and  C_40
   15  A    between atoms: C_28  and  C_33
   16  A    between atoms: C_34  and  C_45
   17  A    between atoms: C_39  and  C_40
   18  A    between atoms: O_43  and  C_45
                            x       y       z     vdW  Elec       q    Type
                         _______ _______ _______ _____ _____    ______ ____

>  <TORSDO>
F 18

$$$$
=
 OpenBabel10232412203D

 51 54  0  0  1  0  0  0  0  0999 V2000
  188.2870  177.5530  140.6800 C   0  0  0  0  0  0  0  0  0  0  0  0
  186.8780  178.9540  141.8460 C   0  0  0  0  0  3  0  0  0  0  0  0
  187.3920  178.7250  140.4600 C   0  0  2  0  0  3  0  0  0  0  0  0
  187.4010  178.0570  142.6770 C   0  0  0  0  0  0  0  0  0  0  0  0
  188.2980  177.1700  141.9470 C   0  0  0  0  0  3  0  0  0  0  0  0
  193.3210  176.9150  138.8680 O   0  0  0  0  0  0  0  0  0  0  0  0
  189.0590  176.9480  139.6340 N   0  0  0  0  0  2  0  0  0  0  0  0
  191.1020  176.3240  138.4000 N   0  0  0  0  0  2  0  0  0  0  0  0
  190.4830  177.0130  139.4930 C   0  0  0  0  0  0  0  0  0  0  0  0
  191.1830  177.6650  140.3150 O   0  0  0  0  0  0  0  0  0  0  0  0
  192.5080  176.2930  138.1320 C   0  0  0  0  0  0  0  0  0  0  0  0
  193.0020  175.5140  136.9570 C   0  0  0  0  0  3  0  0  0  0  0  0
  194.2060  176.1870  136.3190 C   0  0  0  0  0  2  0  0  0  0  0  0
  194.6060  173.7960  136.4640 C   0  0  0  0  0  2  0  0  0  0  0  0
  193.4460  174.1260  137.3710 C   0  0  0  0  0  2  0  0  0  0  0  0
  195.2750  175.1200  136.1650 C   0  0  0  0  0  2  0  0  0  0  0  0
  186.5150  177.9920  146.8840 C   0  0  0  0  0  3  0  0  0  0  0  0
  188.1170  177.6550  145.0840 C   0  0  0  0  0  0  0  0  0  0  0  0
  187.1260  178.0080  144.1360 C   0  0  0  0  0  0  0  0  0  0  0  0
  185.5350  178.3310  145.9550 C   0  0  0  0  0  3  0  0  0  0  0  0
  185.8390  178.3400  144.5930 C   0  0  0  0  0  3  0  0  0  0  0  0
  187.7970  177.6550  146.4520 C   0  0  0  0  0  3  0  0  0  0  0  0
  189.4040  177.2930  144.6580 O   0  0  0  0  0  0  0  0  0  0  0  0
  190.5650  178.0780  144.9100 C   0  0  0  0  0  2  0  0  0  0  0  0
  191.2530  176.2530  146.4040 C   0  0  0  0  0  3  0  0  0  0  0  0
  191.6060  177.2590  145.6020 C   0  0  0  0  0  3  0  0  0  0  0  0
  192.2860  175.4270  147.0970 C   0  0  0  0  0  2  0  0  0  0  0  0
  192.7470  176.1100  148.3710 C   0  0  0  0  0  1  0  0  0  0  0  0
  186.2500  178.3440  139.5290 C   0  0  0  0  0  2  0  0  0  0  0  0
  184.9700  179.0310  139.9630 C   0  0  0  0  0  2  0  0  0  0  0  0
  182.6680  178.3960  141.4790 O   0  0  0  0  0  0  0  0  0  0  0  0
  182.6880  178.0150  140.2780 C   0  0  0  0  0  0  0  0  0  0  0  0
  183.8260  178.2900  139.4570 N   0  0  0  0  0  2  0  0  0  0  0  0
  181.5420  177.2830  139.7190 C   0  0  0  0  0  0  0  0  0  0  0  0
  180.4720  177.8980  139.4600 O   0  0  0  0  0  0  0  0  0  0  0  0
  181.6510  175.8130  139.4580 C   0  0  0  0  0  2  0  0  0  0  0  0
  181.3350  175.5100  138.1300 O   0  0  0  0  0  0  0  0  0  0  0  0
  182.4750  175.7570  137.4380 N   0  0  0  0  0  2  0  0  0  0  0  0
  182.4370  173.6920  136.3540 O   0  0  0  0  0  0  0  0  0  0  0  0
  182.9980  174.8100  136.5060 C   0  0  0  0  0  0  0  0  0  0  0  0
  184.2230  175.1420  135.7160 C   0  0  0  0  0  2  0  0  0  0  0  0
  186.1070  173.6690  135.5330 O   0  0  0  0  0  1  0  0  0  0  0  0
  185.5200  174.6300  136.3620 C   0  0  1  0  0  0  0  0  0  0  0  0
  187.1060  178.1530  135.9820 C   0  0  0  0  0  2  0  0  0  0  0  0
  188.4080  177.6890  135.6240 O   0  0  0  0  0  0  0  0  0  0  0  0
  186.4990  175.8100  136.5460 C   0  0  2  0  0  3  0  0  0  0  0  0
  188.7980  176.3560  135.8030 C   0  0  0  0  0  3  0  0  0  0  0  0
  186.0730  177.0530  135.7570 C   0  0  0  0  0  2  0  0  0  0  0  0
  187.9230  175.4350  136.2130 C   0  0  0  0  0  3  0  0  0  0  0  0
  185.8920  172.7760  137.8680 O   0  0  0  0  0  1  0  0  0  0  0  0
  185.2040  173.9830  137.7150 C   0  0  0  0  0  2  0  0  0  0  0  0
  1  5  2  0  0  0  0
  2  4  2  0  0  0  0
  3 29  1  6  0  0  0
  3  1  1  0  0  0  0
  3  2  1  0  0  0  0
  4 19  1  0  0  0  0
  5  4  1  0  0  0  0
  7  1  1  0  0  0  0
  8  9  1  0  0  0  0
  9  7  1  0  0  0  0
  9 10  2  0  0  0  0
 11  8  1  0  0  0  0
 11  6  2  0  0  0  0
 12 15  1  0  0  0  0
 12 11  1  0  0  0  0
 13 12  1  0  0  0  0
 14 15  1  0  0  0  0
 16 13  1  0  0  0  0
 16 14  1  0  0  0  0
 18 22  2  0  0  0  0
 19 21  2  0  0  0  0
 19 18  1  0  0  0  0
 20 17  2  0  0  0  0
 21 20  1  0  0  0  0
 22 17  1  0  0  0  0
 23 24  1  0  0  0  0
 23 18  1  0  0  0  0
 24 26  1  0  0  0  0
 25 27  1  0  0  0  0
 26 25  2  0  0  0  0
 27 28  1  0  0  0  0
 29 30  1  0  0  0  0
 32 31  2  0  0  0  0
 33 30  1  0  0  0  0
 33 32  1  0  0  0  0
 34 32  1  0  0  0  0
 35 34  2  0  0  0  0
 36 34  1  0  0  0  0
 37 36  1  0  0  0  0
 38 37  1  0  0  0  0
 39 40  2  0  0  0  0
 40 38  1  0  0  0  0
 41 43  1  0  0  0  0
 41 40  1  0  0  0  0
 43 42  1  6  0  0  0
 43 51  1  0  0  0  0
 45 47  1  0  0  0  0
 45 44  1  0  0  0  0
 46 43  1  6  0  0  0
 47 49  2  0  0  0  0
 48 44  1  0  0  0  0
 48 46  1  0  0  0  0
 49 46  1  0  0  0  0
 51 50  1  0  0  0  0
M  END
>  <MODEL>
6

>  <REMARK>
 VINA RESULT:      -7.0      2.197      7.460
  Name = 
  18 active torsions:
  status: ('A' for Active; 'I' for Inactive)
    1  A    between atoms: N_3  and  C_12
    2  A    between atoms: C_4  and  C_20
    3  A    between atoms: C_4  and  C_24
    4  A    between atoms: C_6  and  C_8
    5  A    between atoms: C_7  and  C_40
    6  A    between atoms: C_7  and  C_48
    7  A    between atoms: C_8  and  C_46
    8  A    between atoms: O_11  and  N_26
    9  A    between atoms: O_11  and  C_46
   10  A    between atoms: C_13  and  O_43
   11  A    between atoms: C_16  and  C_37
   12  A    between atoms: C_17  and  C_50
   13  A    between atoms: N_19  and  C_24
   14  A    between atoms: C_22  and  C_40
   15  A    between atoms: C_28  and  C_33
   16  A    between atoms: C_34  and  C_45
   17  A    between atoms: C_39  and  C_40
   18  A    between atoms: O_43  and  C_45
                            x       y       z     vdW  Elec       q    Type
                         _______ _______ _______ _____ _____    ______ ____

>  <TORSDO>
F 18

$$$$
=
 OpenBabel10232412203D

 51 54  0  0  1  0  0  0  0  0999 V2000
  188.4860  177.2310  141.8590 C   0  0  0  0  0  0  0  0  0  0  0  0
  188.8320  177.5420  144.1150 C   0  0  0  0  0  3  0  0  0  0  0  0
  189.5850  177.2080  142.8660 C   0  0  2  0  0  3  0  0  0  0  0  0
  187.5450  177.7200  143.8340 C   0  0  0  0  0  0  0  0  0  0  0  0
  187.3170  177.5190  142.4090 C   0  0  0  0  0  3  0  0  0  0  0  0
  187.5110  179.0740  136.8900 O   0  0  0  0  0  0  0  0  0  0  0  0
  188.6890  176.9410  140.4690 N   0  0  0  0  0  2  0  0  0  0  0  0
  188.5570  177.3170  138.0360 N   0  0  0  0  0  2  0  0  0  0  0  0
  188.2430  177.7400  139.3670 C   0  0  0  0  0  0  0  0  0  0  0  0
  187.5840  178.7970  139.5630 O   0  0  0  0  0  0  0  0  0  0  0  0
  188.1840  178.0100  136.8390 C   0  0  0  0  0  0  0  0  0  0  0  0
  188.6030  177.4480  135.5190 C   0  0  0  0  0  3  0  0  0  0  0  0
  190.0240  176.9130  135.5760 C   0  0  0  0  0  2  0  0  0  0  0  0
  188.6210  175.3420  134.3660 C   0  0  0  0  0  2  0  0  0  0  0  0
  187.7150  176.2900  135.1130 C   0  0  0  0  0  2  0  0  0  0  0  0
  189.9880  175.5110  134.9930 C   0  0  0  0  0  2  0  0  0  0  0  0
  184.4790  178.7110  146.6830 C   0  0  0  0  0  3  0  0  0  0  0  0
  186.7480  177.9530  146.2380 C   0  0  0  0  0  0  0  0  0  0  0  0
  186.5040  178.0390  144.8460 C   0  0  0  0  0  0  0  0  0  0  0  0
  184.2320  178.7890  145.3140 C   0  0  0  0  0  3  0  0  0  0  0  0
  185.2360  178.4560  144.4050 C   0  0  0  0  0  3  0  0  0  0  0  0
  185.7280  178.2950  147.1420 C   0  0  0  0  0  3  0  0  0  0  0  0
  187.9940  177.5150  146.7110 O   0  0  0  0  0  0  0  0  0  0  0  0
  188.7110  178.1640  147.7560 C   0  0  0  0  0  2  0  0  0  0  0  0
  190.6900  176.8860  147.0610 C   0  0  0  0  0  3  0  0  0  0  0  0
  189.9800  177.4320  148.0490 C   0  0  0  0  0  3  0  0  0  0  0  0
  191.9610  176.1550  147.3420 C   0  0  0  0  0  2  0  0  0  0  0  0
  192.3460  175.2820  146.1620 C   0  0  0  0  0  1  0  0  0  0  0  0
  190.6020  178.2960  142.5560 C   0  0  0  0  0  2  0  0  0  0  0  0
  191.8850  177.6790  142.0340 C   0  0  0  0  0  2  0  0  0  0  0  0
  193.8960  177.1790  140.1090 O   0  0  0  0  0  0  0  0  0  0  0  0
  192.7150  176.8640  139.8010 C   0  0  0  0  0  0  0  0  0  0  0  0
  191.6480  177.1010  140.7210 N   0  0  0  0  0  2  0  0  0  0  0  0
  192.4320  176.2540  138.4930 C   0  0  0  0  0  0  0  0  0  0  0  0
  191.4720  175.4450  138.3740 O   0  0  0  0  0  0  0  0  0  0  0  0
  193.2830  176.5970  137.3100 C   0  0  0  0  0  2  0  0  0  0  0  0
  193.2110  175.6020  136.3310 O   0  0  0  0  0  0  0  0  0  0  0  0
  194.4920  175.1920  136.1570 N   0  0  0  0  0  2  0  0  0  0  0  0
  193.9740  172.9440  136.5020 O   0  0  0  0  0  0  0  0  0  0  0  0
  194.8450  173.8100  136.2210 C   0  0  0  0  0  0  0  0  0  0  0  0
  196.2570  173.3900  135.9640 C   0  0  0  0  0  2  0  0  0  0  0  0
  196.3310  173.5670  138.3550 O   0  0  0  0  0  1  0  0  0  0  0  0
  197.1380  173.4190  137.2230 C   0  0  1  0  0  0  0  0  0  0  0  0
  200.0830  170.8960  137.0410 C   0  0  0  0  0  2  0  0  0  0  0  0
  199.3950  169.9260  136.2510 O   0  0  0  0  0  0  0  0  0  0  0  0
  197.9240  172.0940  137.3280 C   0  0  2  0  0  3  0  0  0  0  0  0
  198.0060  169.9620  136.0720 C   0  0  0  0  0  3  0  0  0  0  0  0
  199.3950  172.2530  136.9270 C   0  0  0  0  0  2  0  0  0  0  0  0
  197.2800  170.9780  136.5430 C   0  0  0  0  0  3  0  0  0  0  0  0
  198.0020  175.4070  138.2930 O   0  0  0  0  0  1  0  0  0  0  0  0
  198.1030  174.6080  137.1520 C   0  0  0  0  0  2  0  0  0  0  0  0
  1  5  2  0  0  0  0
  1  3  1  0  0  0  0
  3 29  1  6  0  0  0
  3  2  1  0  0  0  0
  4  2  2  0  0  0  0
  4 19  1  0  0  0  0
  5  4  1  0  0  0  0
  7  1  1  0  0  0  0
  8  9  1  0  0  0  0
  9 10  2  0  0  0  0
  9  7  1  0  0  0  0
 11  6  2  0  0  0  0
 11  8  1  0  0  0  0
 12 13  1  0  0  0  0
 12 11  1  0  0  0  0
 14 16  1  0  0  0  0
 14 15  1  0  0  0  0
 15 12  1  0  0  0  0
 16 13  1  0  0  0  0
 17 22  1  0  0  0  0
 18 23  1  0  0  0  0
 18 22  2  0  0  0  0
 19 18  1  0  0  0  0
 20 17  2  0  0  0  0
 21 19  2  0  0  0  0
 21 20  1  0  0  0  0
 23 24  1  0  0  0  0
 24 26  1  0  0  0  0
 25 27  1  0  0  0  0
 25 26  2  0  0  0  0
 28 27  1  0  0  0  0
 30 29  1  0  0  0  0
 32 31  2  0  0  0  0
 32 33  1  0  0  0  0
 33 30  1  0  0  0  0
 34 32  1  0  0  0  0
 35 34  2  0  0  0  0
 36 34  1  0  0  0  0
 37 36  1  0  0  0  0
 38 40  1  0  0  0  0
 38 37  1  0  0  0  0
 40 39  2  0  0  0  0
 41 40  1  0  0  0  0
 41 43  1  0  0  0  0
 43 42  1  1  0  0  0
 45 44  1  0  0  0  0
 46 43  1  6  0  0  0
 47 45  1  0  0  0  0
 47 49  2  0  0  0  0
 48 44  1  0  0  0  0
 48 46  1  0  0  0  0
 49 46  1  0  0  0  0
 51 43  1  0  0  0  0
 51 50  1  0  0  0  0
M  END
>  <MODEL>
7

>  <REMARK>
 VINA RESULT:      -6.8      4.106      8.610
  Name = 
  18 active torsions:
  status: ('A' for Active; 'I' for Inactive)
    1  A    between atoms: N_3  and  C_12
    2  A    between atoms: C_4  and  C_20
    3  A    between atoms: C_4  and  C_24
    4  A    between atoms: C_6  and  C_8
    5  A    between atoms: C_7  and  C_40
    6  A    between atoms: C_7  and  C_48
    7  A    between atoms: C_8  and  C_46
    8  A    between atoms: O_11  and  N_26
    9  A    between atoms: O_11  and  C_46
   10  A    between atoms: C_13  and  O_43
   11  A    between atoms: C_16  and  C_37
   12  A    between atoms: C_17  and  C_50
   13  A    between atoms: N_19  and  C_24
   14  A    between atoms: C_22  and  C_40
   15  A    between atoms: C_28  and  C_33
   16  A    between atoms: C_34  and  C_45
   17  A    between atoms: C_39  and  C_40
   18  A    between atoms: O_43  and  C_45
                            x       y       z     vdW  Elec       q    Type
                         _______ _______ _______ _____ _____    ______ ____

>  <TORSDO>
F 18

$$$$
=
 OpenBabel10232412203D

 51 54  0  0  1  0  0  0  0  0999 V2000
  183.4320  176.2930  138.1420 C   0  0  0  0  0  0  0  0  0  0  0  0
  182.6520  175.8980  136.0110 C   0  0  0  0  0  3  0  0  0  0  0  0
  183.2560  176.9900  136.8360 C   0  0  2  0  0  3  0  0  0  0  0  0
  182.5240  174.7960  136.7420 C   0  0  0  0  0  0  0  0  0  0  0  0
  183.0100  175.0390  138.0940 C   0  0  0  0  0  3  0  0  0  0  0  0
  182.0250  178.8700  142.6600 O   0  0  0  0  0  0  0  0  0  0  0  0
  183.9660  176.9350  139.3080 N   0  0  0  0  0  2  0  0  0  0  0  0
  183.8990  178.1180  141.4710 N   0  0  0  0  0  2  0  0  0  0  0  0
  183.2050  177.5440  140.3570 C   0  0  0  0  0  0  0  0  0  0  0  0
  181.9460  177.5780  140.3040 O   0  0  0  0  0  0  0  0  0  0  0  0
  183.2790  178.7560  142.5930 C   0  0  0  0  0  0  0  0  0  0  0  0
  184.1420  179.2920  143.6870 C   0  0  0  0  0  3  0  0  0  0  0  0
  183.4580  179.1630  145.0380 C   0  0  0  0  0  2  0  0  0  0  0  0
  185.7880  178.5090  145.2510 C   0  0  0  0  0  2  0  0  0  0  0  0
  185.4450  178.5250  143.7820 C   0  0  0  0  0  2  0  0  0  0  0  0
  184.4600  178.5120  145.9760 C   0  0  0  0  0  2  0  0  0  0  0  0
  180.7500  171.1170  135.3950 C   0  0  0  0  0  3  0  0  0  0  0  0
  182.6350  172.6560  135.3710 C   0  0  0  0  0  0  0  0  0  0  0  0
  181.9350  173.5250  136.2440 C   0  0  0  0  0  0  0  0  0  0  0  0
  180.0560  171.9730  136.2470 C   0  0  0  0  0  3  0  0  0  0  0  0
  180.6440  173.1660  136.6670 C   0  0  0  0  0  3  0  0  0  0  0  0
  182.0300  171.4560  134.9600 C   0  0  0  0  0  3  0  0  0  0  0  0
  183.9140  172.9980  134.9100 O   0  0  0  0  0  0  0  0  0  0  0  0
  184.9080  172.0390  134.5640 C   0  0  0  0  0  2  0  0  0  0  0  0
  187.1190  173.0790  134.8110 C   0  0  0  0  0  3  0  0  0  0  0  0
  186.1680  172.2980  135.3250 C   0  0  0  0  0  3  0  0  0  0  0  0
  188.3810  173.3470  135.5640 C   0  0  0  0  0  2  0  0  0  0  0  0
  188.2800  172.8080  136.9790 C   0  0  0  0  0  1  0  0  0  0  0  0
  184.6110  177.3910  136.2700 C   0  0  0  0  0  2  0  0  0  0  0  0
  185.5230  176.1820  136.1890 C   0  0  0  0  0  2  0  0  0  0  0  0
  187.9250  177.2950  135.1920 O   0  0  0  0  0  0  0  0  0  0  0  0
  187.8940  176.9990  136.4170 C   0  0  0  0  0  0  0  0  0  0  0  0
  186.7170  176.4210  136.9840 N   0  0  0  0  0  2  0  0  0  0  0  0
  189.0700  177.2440  137.2630 C   0  0  0  0  0  0  0  0  0  0  0  0
  190.1540  176.6460  137.0190 O   0  0  0  0  0  0  0  0  0  0  0  0
  188.9790  178.2030  138.4090 C   0  0  0  0  0  2  0  0  0  0  0  0
  188.4140  177.5930  139.5340 O   0  0  0  0  0  0  0  0  0  0  0  0
  189.1350  178.0630  140.5820 N   0  0  0  0  0  2  0  0  0  0  0  0
  187.5970  177.3100  142.1660 O   0  0  0  0  0  0  0  0  0  0  0  0
  188.6990  177.8720  141.9280 C   0  0  0  0  0  0  0  0  0  0  0  0
  189.5500  178.3500  143.0610 C   0  0  0  0  0  2  0  0  0  0  0  0
  191.8860  177.9940  143.4730 O   0  0  0  0  0  1  0  0  0  0  0  0
  190.6450  177.3500  143.4630 C   0  0  1  0  0  0  0  0  0  0  0  0
  189.1720  177.1070  147.0470 C   0  0  0  0  0  2  0  0  0  0  0  0
  190.4240  176.9100  147.7060 O   0  0  0  0  0  0  0  0  0  0  0  0
  190.3440  176.8040  144.8760 C   0  0  2  0  0  3  0  0  0  0  0  0
  191.5890  176.5740  147.0040 C   0  0  0  0  0  3  0  0  0  0  0  0
  189.3930  177.7120  145.6640 C   0  0  0  0  0  2  0  0  0  0  0  0
  191.5990  176.5370  145.6700 C   0  0  0  0  0  3  0  0  0  0  0  0
  190.1130  175.0440  142.9670 O   0  0  0  0  0  1  0  0  0  0  0  0
  190.6970  176.2030  142.4480 C   0  0  0  0  0  2  0  0  0  0  0  0
  1  7  1  0  0  0  0
  2  4  2  0  0  0  0
  2  3  1  0  0  0  0
  3 29  1  6  0  0  0
  3  1  1  0  0  0  0
  4  5  1  0  0  0  0
  5  1  2  0  0  0  0
  7  9  1  0  0  0  0
  8 11  1  0  0  0  0
  9  8  1  0  0  0  0
 10  9  2  0  0  0  0
 11  6  2  0  0  0  0
 11 12  1  0  0  0  0
 12 15  1  0  0  0  0
 12 13  1  0  0  0  0
 13 16  1  0  0  0  0
 14 16  1  0  0  0  0
 15 14  1  0  0  0  0
 17 20  1  0  0  0  0
 18 19  2  0  0  0  0
 19 21  1  0  0  0  0
 19  4  1  0  0  0  0
 20 21  2  0  0  0  0
 22 18  1  0  0  0  0
 22 17  2  0  0  0  0
 23 18  1  0  0  0  0
 24 23  1  0  0  0  0
 24 26  1  0  0  0  0
 25 26  2  0  0  0  0
 25 27  1  0  0  0  0
 27 28  1  0  0  0  0
 30 29  1  0  0  0  0
 30 33  1  0  0  0  0
 31 32  2  0  0  0  0
 32 33  1  0  0  0  0
 32 34  1  0  0  0  0
 34 36  1  0  0  0  0
 35 34  2  0  0  0  0
 36 37  1  0  0  0  0
 37 38  1  0  0  0  0
 38 40  1  0  0  0  0
 40 39  2  0  0  0  0
 40 41  1  0  0  0  0
 41 43  1  0  0  0  0
 43 42  1  1  0  0  0
 44 45  1  0  0  0  0
 46 43  1  6  0  0  0
 46 48  1  0  0  0  0
 46 49  1  0  0  0  0
 47 45  1  0  0  0  0
 48 44  1  0  0  0  0
 49 47  2  0  0  0  0
 51 50  1  0  0  0  0
 51 43  1  0  0  0  0
M  END
>  <MODEL>
8

>  <REMARK>
 VINA RESULT:      -6.8      2.303      9.035
  Name = 
  18 active torsions:
  status: ('A' for Active; 'I' for Inactive)
    1  A    between atoms: N_3  and  C_12
    2  A    between atoms: C_4  and  C_20
    3  A    between atoms: C_4  and  C_24
    4  A    between atoms: C_6  and  C_8
    5  A    between atoms: C_7  and  C_40
    6  A    between atoms: C_7  and  C_48
    7  A    between atoms: C_8  and  C_46
    8  A    between atoms: O_11  and  N_26
    9  A    between atoms: O_11  and  C_46
   10  A    between atoms: C_13  and  O_43
   11  A    between atoms: C_16  and  C_37
   12  A    between atoms: C_17  and  C_50
   13  A    between atoms: N_19  and  C_24
   14  A    between atoms: C_22  and  C_40
   15  A    between atoms: C_28  and  C_33
   16  A    between atoms: C_34  and  C_45
   17  A    between atoms: C_39  and  C_40
   18  A    between atoms: O_43  and  C_45
                            x       y       z     vdW  Elec       q    Type
                         _______ _______ _______ _____ _____    ______ ____

>  <TORSDO>
F 18

$$$$
=
 OpenBabel10232412203D

 51 54  0  0  1  0  0  0  0  0999 V2000
  187.4050  178.0810  138.9580 C   0  0  0  0  0  0  0  0  0  0  0  0
  189.5680  177.5910  139.5800 C   0  0  0  0  0  3  0  0  0  0  0  0
  188.4070  178.4350  140.0030 C   0  0  2  0  0  3  0  0  0  0  0  0
  189.2500  176.8950  138.4930 C   0  0  0  0  0  0  0  0  0  0  0  0
  187.8840  177.2030  138.0900 C   0  0  0  0  0  3  0  0  0  0  0  0
  182.4110  177.2460  137.1130 O   0  0  0  0  0  0  0  0  0  0  0  0
  186.0940  178.6590  138.9000 N   0  0  0  0  0  2  0  0  0  0  0  0
  183.6980  178.7820  138.3300 N   0  0  0  0  0  2  0  0  0  0  0  0
  184.9450  178.0810  138.2690 C   0  0  0  0  0  0  0  0  0  0  0  0
  185.0270  176.9750  137.6700 O   0  0  0  0  0  0  0  0  0  0  0  0
  182.4670  178.3310  137.7530 C   0  0  0  0  0  0  0  0  0  0  0  0
  181.2420  179.1710  137.9160 C   0  0  0  0  0  3  0  0  0  0  0  0
  181.2970  179.9770  139.2040 C   0  0  0  0  0  2  0  0  0  0  0  0
  180.4810  181.3900  137.4040 C   0  0  0  0  0  2  0  0  0  0  0  0
  181.1070  180.1660  136.7830 C   0  0  0  0  0  2  0  0  0  0  0  0
  180.9750  181.4140  138.8350 C   0  0  0  0  0  2  0  0  0  0  0  0
  192.0260  174.2780  136.5080 C   0  0  0  0  0  3  0  0  0  0  0  0
  189.8270  175.3180  136.5830 C   0  0  0  0  0  0  0  0  0  0  0  0
  190.1780  175.9710  137.7890 C   0  0  0  0  0  0  0  0  0  0  0  0
  192.3710  174.9120  137.6990 C   0  0  0  0  0  3  0  0  0  0  0  0
  191.4550  175.7510  138.3330 C   0  0  0  0  0  3  0  0  0  0  0  0
  190.7620  174.4780  135.9540 C   0  0  0  0  0  3  0  0  0  0  0  0
  188.5510  175.4950  136.0290 O   0  0  0  0  0  0  0  0  0  0  0  0
  187.7020  174.4170  135.6490 C   0  0  0  0  0  2  0  0  0  0  0  0
  185.9030  173.0740  136.6460 C   0  0  0  0  0  3  0  0  0  0  0  0
  186.7010  174.1400  136.7240 C   0  0  0  0  0  3  0  0  0  0  0  0
  184.9020  172.7860  137.7170 C   0  0  0  0  0  2  0  0  0  0  0  0
  183.7090  172.0450  137.1430 C   0  0  0  0  0  1  0  0  0  0  0  0
  187.9100  178.0010  141.3730 C   0  0  0  0  0  2  0  0  0  0  0  0
  186.5700  178.6450  141.6730 C   0  0  0  0  0  2  0  0  0  0  0  0
  184.0470  179.1770  142.8330 O   0  0  0  0  0  0  0  0  0  0  0  0
  184.9570  178.7640  143.6010 C   0  0  0  0  0  0  0  0  0  0  0  0
  186.2600  178.4880  143.0840 N   0  0  0  0  0  2  0  0  0  0  0  0
  184.6810  178.5690  145.0320 C   0  0  0  0  0  0  0  0  0  0  0  0
  183.7040  179.1610  145.5680 O   0  0  0  0  0  0  0  0  0  0  0  0
  185.5570  177.6680  145.8460 C   0  0  0  0  0  2  0  0  0  0  0  0
  186.0480  178.3270  146.9770 O   0  0  0  0  0  0  0  0  0  0  0  0
  187.3880  178.3910  146.7870 N   0  0  0  0  0  2  0  0  0  0  0  0
  187.8770  177.7840  148.9860 O   0  0  0  0  0  0  0  0  0  0  0  0
  188.3030  178.0740  147.8360 C   0  0  0  0  0  0  0  0  0  0  0  0
  189.7750  178.0970  147.5720 C   0  0  0  0  0  2  0  0  0  0  0  0
  189.4610  175.7670  147.0960 O   0  0  0  0  0  1  0  0  0  0  0  0
  190.2720  176.8660  146.7980 C   0  0  1  0  0  0  0  0  0  0  0  0
  190.9270  176.5360  142.9860 C   0  0  0  0  0  2  0  0  0  0  0  0
  191.3220  177.8940  142.7880 O   0  0  0  0  0  0  0  0  0  0  0  0
  190.2030  177.1530  145.2830 C   0  0  2  0  0  3  0  0  0  0  0  0
  191.0880  178.8850  143.7500 C   0  0  0  0  0  3  0  0  0  0  0  0
  191.0380  176.1640  144.4610 C   0  0  0  0  0  2  0  0  0  0  0  0
  190.5840  178.5740  144.9460 C   0  0  0  0  0  3  0  0  0  0  0  0
  192.0940  177.2860  148.3310 O   0  0  0  0  0  1  0  0  0  0  0  0
  191.7110  176.5390  147.2140 C   0  0  0  0  0  2  0  0  0  0  0  0
  1  3  1  0  0  0  0
  2  3  1  0  0  0  0
  3 29  1  1  0  0  0
  4  2  2  0  0  0  0
  5  4  1  0  0  0  0
  5  1  2  0  0  0  0
  6 11  2  0  0  0  0
  7  1  1  0  0  0  0
  9  8  1  0  0  0  0
  9  7  1  0  0  0  0
 10  9  2  0  0  0  0
 11 12  1  0  0  0  0
 11  8  1  0  0  0  0
 12 13  1  0  0  0  0
 14 16  1  0  0  0  0
 15 14  1  0  0  0  0
 15 12  1  0  0  0  0
 16 13  1  0  0  0  0
 17 20  1  0  0  0  0
 18 19  2  0  0  0  0
 19 21  1  0  0  0  0
 19  4  1  0  0  0  0
 20 21  2  0  0  0  0
 22 17  2  0  0  0  0
 22 18  1  0  0  0  0
 23 18  1  0  0  0  0
 24 23  1  0  0  0  0
 24 26  1  0  0  0  0
 25 26  2  0  0  0  0
 25 27  1  0  0  0  0
 28 27  1  0  0  0  0
 29 30  1  0  0  0  0
 30 33  1  0  0  0  0
 31 32  2  0  0  0  0
 32 34  1  0  0  0  0
 33 32  1  0  0  0  0
 34 35  2  0  0  0  0
 34 36  1  0  0  0  0
 36 37  1  0  0  0  0
 38 37  1  0  0  0  0
 38 40  1  0  0  0  0
 40 39  2  0  0  0  0
 41 40  1  0  0  0  0
 43 42  1  1  0  0  0
 43 51  1  0  0  0  0
 43 41  1  0  0  0  0
 44 48  1  0  0  0  0
 45 44  1  0  0  0  0
 45 47  1  0  0  0  0
 46 43  1  1  0  0  0
 47 49  2  0  0  0  0
 48 46  1  0  0  0  0
 49 46  1  0  0  0  0
 51 50  1  0  0  0  0
M  END
>  <MODEL>
9

>  <REMARK>
 VINA RESULT:      -6.8      2.239      8.695
  Name = 
  18 active torsions:
  status: ('A' for Active; 'I' for Inactive)
    1  A    between atoms: N_3  and  C_12
    2  A    between atoms: C_4  and  C_20
    3  A    between atoms: C_4  and  C_24
    4  A    between atoms: C_6  and  C_8
    5  A    between atoms: C_7  and  C_40
    6  A    between atoms: C_7  and  C_48
    7  A    between atoms: C_8  and  C_46
    8  A    between atoms: O_11  and  N_26
    9  A    between atoms: O_11  and  C_46
   10  A    between atoms: C_13  and  O_43
   11  A    between atoms: C_16  and  C_37
   12  A    between atoms: C_17  and  C_50
   13  A    between atoms: N_19  and  C_24
   14  A    between atoms: C_22  and  C_40
   15  A    between atoms: C_28  and  C_33
   16  A    between atoms: C_34  and  C_45
   17  A    between atoms: C_39  and  C_40
   18  A    between atoms: O_43  and  C_45
                            x       y       z     vdW  Elec       q    Type
                         _______ _______ _______ _____ _____    ______ ____

>  <TORSDO>
F 18

$$$$
