=
 OpenBabel10232407563D

 26 29  0  0  1  0  0  0  0  0999 V2000
  184.8080  179.5740  139.9910 O   0  0  0  0  0  0  0  0  0  0  0  0
  185.3220  178.5080  144.6680 N   0  0  0  0  0  2  0  0  0  0  0  0
  187.9450  177.6030  142.2260 C   0  0  0  0  0  3  0  0  0  0  0  0
  183.0660  178.5810  141.7350 C   0  0  0  0  0  3  0  0  0  0  0  0
  181.8240  178.7460  142.3540 C   0  0  0  0  0  3  0  0  0  0  0  0
  186.4310  177.7100  144.1590 C   0  0  1  0  0  3  0  0  0  0  0  0
  184.2570  178.5690  142.4870 C   0  0  0  0  0  0  0  0  0  0  0  0
  184.1550  178.6610  143.8820 C   0  0  0  0  0  0  0  0  0  0  0  0
  186.8260  178.7390  139.6850 N   0  0  0  0  0  2  0  0  0  0  0  0
  188.5370  177.6490  140.9860 C   0  0  0  0  0  3  0  0  0  0  0  0
  182.9180  178.8480  144.5050 C   0  0  0  0  0  3  0  0  0  0  0  0
  181.7510  178.8950  143.7390 C   0  0  0  0  0  3  0  0  0  0  0  0
  188.0370  178.1600  139.8150 C   0  0  0  0  0  0  0  0  0  0  0  0
  186.6850  177.9880  142.6700 C   0  0  2  0  0  3  0  0  0  0  0  0
  185.6200  178.4580  141.8430 C   0  0  2  0  0  3  0  0  0  0  0  0
  188.7780  178.1060  138.8000 O   0  0  0  0  0  0  0  0  0  0  0  0
  185.7600  178.9240  140.4990 C   0  0  0  0  0  0  0  0  0  0  0  0
  187.3470  177.6890  146.5570 C   0  0  0  0  0  2  0  0  0  0  0  0
  188.6010  177.8970  147.4010 C   0  0  0  0  0  2  0  0  0  0  0  0
  190.0020  177.0420  145.5130 C   0  0  0  0  0  2  0  0  0  0  0  0
  188.7410  176.8380  144.6770 C   0  0  0  0  0  2  0  0  0  0  0  0
  189.6780  176.8910  146.9960 C   0  0  1  0  0  3  0  0  0  0  0  0
  187.6740  177.8650  145.0670 C   0  0  1  0  0  3  0  0  0  0  0  0
  190.9390  177.1180  147.8100 C   0  0  0  0  0  2  0  0  0  0  0  0
  192.0770  176.5060  147.1460 N   0  0  0  0  0  2  0  0  0  0  0  0
  192.7430  175.6800  148.1360 C   0  0  0  0  0  1  0  0  0  0  0  0
  1 17  2  0  0  0  0
  4  5  2  0  0  0  0
  4  7  1  0  0  0  0
  5 12  1  0  0  0  0
  6  2  1  1  0  0  0
  6 23  1  0  0  0  0
  7  8  2  0  0  0  0
  8 11  1  0  0  0  0
  8  2  1  0  0  0  0
  9 13  1  0  0  0  0
  9 17  1  0  0  0  0
 10  3  2  0  0  0  0
 12 11  2  0  0  0  0
 13 10  1  0  0  0  0
 14  3  1  6  0  0  0
 14  6  1  0  0  0  0
 15 17  1  1  0  0  0
 15  7  1  0  0  0  0
 15 14  1  0  0  0  0
 16 13  2  0  0  0  0
 18 19  1  0  0  0  0
 20 22  1  0  0  0  0
 21 20  1  0  0  0  0
 22 19  1  0  0  0  0
 22 24  1  1  0  0  0
 23 21  1  6  0  0  0
 23 18  1  0  0  0  0
 25 24  1  0  0  0  0
 25 26  1  0  0  0  0
M  END
>  <MODEL>
1

>  <REMARK>
 VINA RESULT:     -10.8      0.000      0.000
  Name = 
  3 active torsions:
  status: ('A' for Active; 'I' for Inactive)
    1  A    between atoms: C_9  and  C_22
    2  A    between atoms: C_10  and  N_11
    3  A    between atoms: C_10  and  C_19
                            x       y       z     vdW  Elec       q    Type
                         _______ _______ _______ _____ _____    ______ ____

>  <TORSDO>
F 3

$$$$
=
 OpenBabel10232407563D

 26 29  0  0  1  0  0  0  0  0999 V2000
  185.5320  179.6990  146.9690 O   0  0  0  0  0  0  0  0  0  0  0  0
  188.9370  177.4630  144.3830 N   0  0  0  0  0  2  0  0  0  0  0  0
  185.4710  177.7150  143.1240 C   0  0  0  0  0  3  0  0  0  0  0  0
  187.4240  177.9870  147.7200 C   0  0  0  0  0  3  0  0  0  0  0  0
  188.5240  177.7700  148.5530 C   0  0  0  0  0  3  0  0  0  0  0  0
  187.7810  177.0300  143.6070 C   0  0  1  0  0  3  0  0  0  0  0  0
  187.5560  177.9590  146.3180 C   0  0  0  0  0  0  0  0  0  0  0  0
  188.8110  177.6390  145.7820 C   0  0  0  0  0  0  0  0  0  0  0  0
  184.1540  179.3210  145.2900 N   0  0  0  0  0  2  0  0  0  0  0  0
  184.1860  178.2020  143.1560 C   0  0  0  0  0  3  0  0  0  0  0  0
  189.9200  177.4410  146.6100 C   0  0  0  0  0  3  0  0  0  0  0  0
  189.7770  177.5100  147.9970 C   0  0  0  0  0  3  0  0  0  0  0  0
  183.5680  178.9330  144.1390 C   0  0  0  0  0  0  0  0  0  0  0  0
  186.5020  177.7510  144.0570 C   0  0  2  0  0  3  0  0  0  0  0  0
  186.4010  178.2550  145.3890 C   0  0  2  0  0  3  0  0  0  0  0  0
  182.3780  179.2860  143.9340 O   0  0  0  0  0  0  0  0  0  0  0  0
  185.3530  179.0950  145.8790 C   0  0  0  0  0  0  0  0  0  0  0  0
  187.7470  178.5020  141.5040 C   0  0  0  0  0  2  0  0  0  0  0  0
  188.0190  178.5150  140.0030 C   0  0  0  0  0  2  0  0  0  0  0  0
  189.8350  176.8260  140.3260 C   0  0  0  0  0  2  0  0  0  0  0  0
  189.5560  176.8200  141.8260 C   0  0  0  0  0  2  0  0  0  0  0  0
  189.4870  178.1870  139.7330 C   0  0  1  0  0  3  0  0  0  0  0  0
  188.0780  177.1230  142.0920 C   0  0  1  0  0  3  0  0  0  0  0  0
  189.7520  178.1650  138.2380 C   0  0  0  0  0  2  0  0  0  0  0  0
  188.9360  179.1670  137.5730 N   0  0  0  0  0  2  0  0  0  0  0  0
  188.2720  178.4980  136.4700 C   0  0  0  0  0  1  0  0  0  0  0  0
  2  8  1  0  0  0  0
  3 10  2  0  0  0  0
  4  5  1  0  0  0  0
  6 14  1  0  0  0  0
  6  2  1  1  0  0  0
  7  4  2  0  0  0  0
  8  7  1  0  0  0  0
  8 11  2  0  0  0  0
  9 17  1  0  0  0  0
 10 13  1  0  0  0  0
 11 12  1  0  0  0  0
 12  5  2  0  0  0  0
 13  9  1  0  0  0  0
 14  3  1  1  0  0  0
 14 15  1  0  0  0  0
 15 17  1  6  0  0  0
 15  7  1  0  0  0  0
 16 13  2  0  0  0  0
 17  1  2  0  0  0  0
 19 18  1  0  0  0  0
 20 21  1  0  0  0  0
 21 23  1  0  0  0  0
 22 24  1  6  0  0  0
 22 19  1  0  0  0  0
 22 20  1  0  0  0  0
 23 18  1  1  0  0  0
 23  6  1  0  0  0  0
 25 24  1  0  0  0  0
 26 25  1  0  0  0  0
M  END
>  <MODEL>
2

>  <REMARK>
 VINA RESULT:     -10.5      2.532      6.703
  Name = 
  3 active torsions:
  status: ('A' for Active; 'I' for Inactive)
    1  A    between atoms: C_9  and  C_22
    2  A    between atoms: C_10  and  N_11
    3  A    between atoms: C_10  and  C_19
                            x       y       z     vdW  Elec       q    Type
                         _______ _______ _______ _____ _____    ______ ____

>  <TORSDO>
F 3

$$$$
=
 OpenBabel10232407563D

 26 29  0  0  1  0  0  0  0  0999 V2000
  188.0130  176.6930  147.9190 O   0  0  0  0  0  0  0  0  0  0  0  0
  187.2820  177.6360  143.2440 N   0  0  0  0  0  2  0  0  0  0  0  0
  190.7080  177.2720  144.5840 C   0  0  0  0  0  3  0  0  0  0  0  0
  186.3380  178.3890  146.7430 C   0  0  0  0  0  3  0  0  0  0  0  0
  185.0060  178.7790  146.5850 C   0  0  0  0  0  3  0  0  0  0  0  0
  188.7190  177.8800  143.2750 C   0  0  1  0  0  3  0  0  0  0  0  0
  187.0980  177.9350  145.6470 C   0  0  0  0  0  0  0  0  0  0  0  0
  186.4980  177.9500  144.3800 C   0  0  0  0  0  0  0  0  0  0  0  0
  190.1680  176.6020  147.4580 N   0  0  0  0  0  2  0  0  0  0  0  0
  191.6150  176.9350  145.5600 C   0  0  0  0  0  3  0  0  0  0  0  0
  185.1590  178.3180  144.2190 C   0  0  0  0  0  3  0  0  0  0  0  0
  184.4110  178.7300  145.3240 C   0  0  0  0  0  3  0  0  0  0  0  0
  191.3850  176.6310  146.8780 C   0  0  0  0  0  0  0  0  0  0  0  0
  189.3310  177.4630  144.6200 C   0  0  2  0  0  3  0  0  0  0  0  0
  188.5200  177.4440  145.7950 C   0  0  2  0  0  3  0  0  0  0  0  0
  192.3820  176.3330  147.5840 O   0  0  0  0  0  0  0  0  0  0  0  0
  188.9100  176.9100  147.0610 C   0  0  0  0  0  0  0  0  0  0  0  0
  188.5830  177.4470  140.7470 C   0  0  0  0  0  2  0  0  0  0  0  0
  189.2860  176.7770  139.5710 C   0  0  0  0  0  2  0  0  0  0  0  0
  191.4980  177.2170  140.6530 C   0  0  0  0  0  2  0  0  0  0  0  0
  190.7850  177.8860  141.8260 C   0  0  0  0  0  2  0  0  0  0  0  0
  190.6770  177.3810  139.3780 C   0  0  1  0  0  3  0  0  0  0  0  0
  189.4020  177.2600  142.0330 C   0  0  1  0  0  3  0  0  0  0  0  0
  191.3920  176.6930  138.2290 C   0  0  0  0  0  2  0  0  0  0  0  0
  191.1050  175.2680  138.2470 N   0  0  0  0  0  2  0  0  0  0  0  0
  192.2590  174.6040  137.6700 C   0  0  0  0  0  1  0  0  0  0  0  0
  2  8  1  0  0  0  0
  3 10  2  0  0  0  0
  5  4  1  0  0  0  0
  6  2  1  1  0  0  0
  6 14  1  0  0  0  0
  7  4  2  0  0  0  0
  8  7  1  0  0  0  0
 10 13  1  0  0  0  0
 11  8  2  0  0  0  0
 11 12  1  0  0  0  0
 12  5  2  0  0  0  0
 13  9  1  0  0  0  0
 13 16  2  0  0  0  0
 14  3  1  1  0  0  0
 14 15  1  0  0  0  0
 15  7  1  6  0  0  0
 15 17  1  0  0  0  0
 17  9  1  0  0  0  0
 17  1  2  0  0  0  0
 19 18  1  0  0  0  0
 20 21  1  0  0  0  0
 21 23  1  0  0  0  0
 22 24  1  6  0  0  0
 22 19  1  0  0  0  0
 22 20  1  0  0  0  0
 23 18  1  6  0  0  0
 23  6  1  0  0  0  0
 24 25  1  0  0  0  0
 26 25  1  0  0  0  0
M  END
>  <MODEL>
3

>  <REMARK>
 VINA RESULT:     -10.5      3.494      6.392
  Name = 
  3 active torsions:
  status: ('A' for Active; 'I' for Inactive)
    1  A    between atoms: C_9  and  C_22
    2  A    between atoms: C_10  and  N_11
    3  A    between atoms: C_10  and  C_19
                            x       y       z     vdW  Elec       q    Type
                         _______ _______ _______ _____ _____    ______ ____

>  <TORSDO>
F 3

$$$$
=
 OpenBabel10232407563D

 26 29  0  0  1  0  0  0  0  0999 V2000
  191.2830  175.8080  143.1170 O   0  0  0  0  0  0  0  0  0  0  0  0
  187.5700  177.4050  145.7510 N   0  0  0  0  0  2  0  0  0  0  0  0
  187.7070  178.0250  142.1100 C   0  0  0  0  0  3  0  0  0  0  0  0
  191.2390  176.9950  145.4960 C   0  0  0  0  0  3  0  0  0  0  0  0
  191.5950  176.9010  146.8440 C   0  0  0  0  0  3  0  0  0  0  0  0
  187.2760  178.1400  144.5260 C   0  0  1  0  0  3  0  0  0  0  0  0
  189.8900  177.0930  145.1050 C   0  0  0  0  0  0  0  0  0  0  0  0
  188.9170  177.1620  146.1120 C   0  0  0  0  0  0  0  0  0  0  0  0
  190.2370  176.6030  141.3470 N   0  0  0  0  0  2  0  0  0  0  0  0
  188.2260  177.8370  140.8510 C   0  0  0  0  0  3  0  0  0  0  0  0
  189.2650  177.0470  147.4610 C   0  0  0  0  0  3  0  0  0  0  0  0
  190.6050  176.9130  147.8270 C   0  0  0  0  0  3  0  0  0  0  0  0
  189.3830  177.1940  140.4860 C   0  0  0  0  0  0  0  0  0  0  0  0
  188.1850  177.6930  143.3720 C   0  0  2  0  0  3  0  0  0  0  0  0
  189.4670  177.1300  143.6540 C   0  0  2  0  0  3  0  0  0  0  0  0
  189.6450  177.1320  139.2580 O   0  0  0  0  0  0  0  0  0  0  0  0
  190.3290  176.5130  142.6950 C   0  0  0  0  0  0  0  0  0  0  0  0
  184.9010  178.6580  145.3520 C   0  0  0  0  0  2  0  0  0  0  0  0
  183.4210  178.5410  145.0030 C   0  0  0  0  0  2  0  0  0  0  0  0
  183.9840  178.7660  142.5760 C   0  0  0  0  0  2  0  0  0  0  0  0
  185.4630  178.8820  142.9360 C   0  0  0  0  0  2  0  0  0  0  0  0
  183.1240  179.3070  143.7140 C   0  0  1  0  0  3  0  0  0  0  0  0
  185.7620  178.0920  144.2140 C   0  0  1  0  0  3  0  0  0  0  0  0
  181.6580  179.1640  143.3450 C   0  0  0  0  0  2  0  0  0  0  0  0
  181.5310  178.7930  141.9460 N   0  0  0  0  0  2  0  0  0  0  0  0
  180.3760  179.5050  141.4300 C   0  0  0  0  0  1  0  0  0  0  0  0
  2  8  1  0  0  0  0
  4  5  1  0  0  0  0
  5 12  2  0  0  0  0
  6  2  1  1  0  0  0
  7  4  2  0  0  0  0
  7  8  1  0  0  0  0
  8 11  2  0  0  0  0
  9 17  1  0  0  0  0
 10  3  2  0  0  0  0
 11 12  1  0  0  0  0
 13 10  1  0  0  0  0
 13  9  1  0  0  0  0
 14  3  1  6  0  0  0
 14 15  1  0  0  0  0
 14  6  1  0  0  0  0
 15 17  1  1  0  0  0
 15  7  1  0  0  0  0
 16 13  2  0  0  0  0
 17  1  2  0  0  0  0
 19 18  1  0  0  0  0
 20 21  1  0  0  0  0
 20 22  1  0  0  0  0
 22 24  1  6  0  0  0
 22 19  1  0  0  0  0
 23 21  1  6  0  0  0
 23  6  1  0  0  0  0
 23 18  1  0  0  0  0
 25 24  1  0  0  0  0
 26 25  1  0  0  0  0
M  END
>  <MODEL>
4

>  <REMARK>
 VINA RESULT:      -9.4      2.047      6.836
  Name = 
  3 active torsions:
  status: ('A' for Active; 'I' for Inactive)
    1  A    between atoms: C_9  and  C_22
    2  A    between atoms: C_10  and  N_11
    3  A    between atoms: C_10  and  C_19
                            x       y       z     vdW  Elec       q    Type
                         _______ _______ _______ _____ _____    ______ ____

>  <TORSDO>
F 3

$$$$
=
 OpenBabel10232407563D

 26 29  0  0  1  0  0  0  0  0999 V2000
  190.3810  176.3410  144.2110 O   0  0  0  0  0  0  0  0  0  0  0  0
  186.0890  177.8190  145.8470 N   0  0  0  0  0  2  0  0  0  0  0  0
  186.9980  178.2340  142.2880 C   0  0  0  0  0  3  0  0  0  0  0  0
  189.7400  177.6580  146.4300 C   0  0  0  0  0  3  0  0  0  0  0  0
  189.7910  177.6680  147.8260 C   0  0  0  0  0  3  0  0  0  0  0  0
  186.0340  178.4580  144.5380 C   0  0  1  0  0  3  0  0  0  0  0  0
  188.5080  177.6370  145.7470 C   0  0  0  0  0  0  0  0  0  0  0  0
  187.3330  177.6950  146.5100 C   0  0  0  0  0  0  0  0  0  0  0  0
  189.7110  176.9550  142.2020 N   0  0  0  0  0  2  0  0  0  0  0  0
  187.7950  178.0100  141.1910 C   0  0  0  0  0  3  0  0  0  0  0  0
  187.3780  177.6840  147.9070 C   0  0  0  0  0  3  0  0  0  0  0  0
  188.6090  177.6670  148.5660 C   0  0  0  0  0  3  0  0  0  0  0  0
  189.0380  177.4320  141.1350 C   0  0  0  0  0  0  0  0  0  0  0  0
  187.2010  178.0110  143.6460 C   0  0  2  0  0  3  0  0  0  0  0  0
  188.4180  177.5590  144.2410 C   0  0  2  0  0  3  0  0  0  0  0  0
  189.5710  177.3170  140.0020 O   0  0  0  0  0  0  0  0  0  0  0  0
  189.5050  176.9510  143.5410 C   0  0  0  0  0  0  0  0  0  0  0  0
  183.5030  178.7890  144.8150 C   0  0  0  0  0  2  0  0  0  0  0  0
  182.1490  178.5480  144.1570 C   0  0  0  0  0  2  0  0  0  0  0  0
  183.2080  178.7960  141.9050 C   0  0  0  0  0  2  0  0  0  0  0  0
  184.5590  179.0350  142.5730 C   0  0  0  0  0  2  0  0  0  0  0  0
  182.0810  179.2750  142.8140 C   0  0  1  0  0  3  0  0  0  0  0  0
  184.6330  178.2840  143.9060 C   0  0  1  0  0  3  0  0  0  0  0  0
  180.7470  179.0090  142.1410 C   0  0  0  0  0  2  0  0  0  0  0  0
  180.0310  180.2590  141.9440 N   0  0  0  0  0  2  0  0  0  0  0  0
  179.9820  180.4880  140.5110 C   0  0  0  0  0  1  0  0  0  0  0  0
  2  8  1  0  0  0  0
  4  5  1  0  0  0  0
  5 12  2  0  0  0  0
  6  2  1  1  0  0  0
  7  4  2  0  0  0  0
  7  8  1  0  0  0  0
  8 11  2  0  0  0  0
  9 17  1  0  0  0  0
 10  3  2  0  0  0  0
 11 12  1  0  0  0  0
 13 10  1  0  0  0  0
 13  9  1  0  0  0  0
 14  3  1  6  0  0  0
 14 15  1  0  0  0  0
 14  6  1  0  0  0  0
 15 17  1  1  0  0  0
 15  7  1  0  0  0  0
 16 13  2  0  0  0  0
 17  1  2  0  0  0  0
 19 18  1  0  0  0  0
 20 21  1  0  0  0  0
 20 22  1  0  0  0  0
 22 24  1  6  0  0  0
 22 19  1  0  0  0  0
 23 21  1  6  0  0  0
 23  6  1  0  0  0  0
 23 18  1  0  0  0  0
 25 24  1  0  0  0  0
 26 25  1  0  0  0  0
M  END
>  <MODEL>
5

>  <REMARK>
 VINA RESULT:      -9.3      2.169      6.982
  Name = 
  3 active torsions:
  status: ('A' for Active; 'I' for Inactive)
    1  A    between atoms: C_9  and  C_22
    2  A    between atoms: C_10  and  N_11
    3  A    between atoms: C_10  and  C_19
                            x       y       z     vdW  Elec       q    Type
                         _______ _______ _______ _____ _____    ______ ____

>  <TORSDO>
F 3

$$$$
=
 OpenBabel10232407563D

 26 29  0  0  1  0  0  0  0  0999 V2000
  186.5960  177.2240  146.9060 O   0  0  0  0  0  0  0  0  0  0  0  0
  186.8860  177.7880  142.1230 N   0  0  0  0  0  2  0  0  0  0  0  0
  189.9440  177.5070  144.1800 C   0  0  0  0  0  3  0  0  0  0  0  0
  185.2480  178.8320  145.2740 C   0  0  0  0  0  3  0  0  0  0  0  0
  183.9890  179.2180  144.8090 C   0  0  0  0  0  3  0  0  0  0  0  0
  188.2900  178.0220  142.4370 C   0  0  1  0  0  3  0  0  0  0  0  0
  186.2090  178.2840  144.4020 C   0  0  0  0  0  0  0  0  0  0  0  0
  185.8890  178.2000  143.0400 C   0  0  0  0  0  0  0  0  0  0  0  0
  188.7960  177.0780  146.9190 N   0  0  0  0  0  2  0  0  0  0  0  0
  190.6170  177.2430  145.3490 C   0  0  0  0  0  3  0  0  0  0  0  0
  184.6230  178.5650  142.5720 C   0  0  0  0  0  3  0  0  0  0  0  0
  183.6710  179.0710  143.4580 C   0  0  0  0  0  3  0  0  0  0  0  0
  190.1080  177.0490  146.6090 C   0  0  0  0  0  0  0  0  0  0  0  0
  188.5960  177.7110  143.9100 C   0  0  2  0  0  3  0  0  0  0  0  0
  187.5560  177.7950  144.8850 C   0  0  2  0  0  3  0  0  0  0  0  0
  190.9280  176.8010  147.5300 O   0  0  0  0  0  0  0  0  0  0  0  0
  187.6580  177.3620  146.2430 C   0  0  0  0  0  0  0  0  0  0  0  0
  188.6610  177.3600  139.9850 C   0  0  0  0  0  2  0  0  0  0  0  0
  189.5790  176.5920  139.0400 C   0  0  0  0  0  2  0  0  0  0  0  0
  191.5320  177.1480  140.4990 C   0  0  0  0  0  2  0  0  0  0  0  0
  190.6050  177.9140  141.4390 C   0  0  0  0  0  2  0  0  0  0  0  0
  190.9860  177.1880  139.0760 C   0  0  1  0  0  3  0  0  0  0  0  0
  189.2030  177.2980  141.4200 C   0  0  1  0  0  3  0  0  0  0  0  0
  191.9100  176.4030  138.1620 C   0  0  0  0  0  2  0  0  0  0  0  0
  193.2960  176.6570  138.5190 N   0  0  0  0  0  2  0  0  0  0  0  0
  194.0600  175.5100  138.0650 C   0  0  0  0  0  1  0  0  0  0  0  0
  2  8  1  0  0  0  0
  3 10  2  0  0  0  0
  5  4  1  0  0  0  0
  6  2  1  6  0  0  0
  6 14  1  0  0  0  0
  7  4  2  0  0  0  0
  8  7  1  0  0  0  0
 10 13  1  0  0  0  0
 11  8  2  0  0  0  0
 11 12  1  0  0  0  0
 12  5  2  0  0  0  0
 13  9  1  0  0  0  0
 13 16  2  0  0  0  0
 14  3  1  1  0  0  0
 14 15  1  0  0  0  0
 15  7  1  6  0  0  0
 15 17  1  0  0  0  0
 17  1  2  0  0  0  0
 17  9  1  0  0  0  0
 19 22  1  0  0  0  0
 19 18  1  0  0  0  0
 20 21  1  0  0  0  0
 22 24  1  6  0  0  0
 22 20  1  0  0  0  0
 23 18  1  6  0  0  0
 23 21  1  0  0  0  0
 23  6  1  0  0  0  0
 24 25  1  0  0  0  0
 26 25  1  0  0  0  0
M  END
>  <MODEL>
6

>  <REMARK>
 VINA RESULT:      -9.2      3.461      5.947
  Name = 
  3 active torsions:
  status: ('A' for Active; 'I' for Inactive)
    1  A    between atoms: C_9  and  C_22
    2  A    between atoms: C_10  and  N_11
    3  A    between atoms: C_10  and  C_19
                            x       y       z     vdW  Elec       q    Type
                         _______ _______ _______ _____ _____    ______ ____

>  <TORSDO>
F 3

$$$$
=
 OpenBabel10232407563D

 26 29  0  0  1  0  0  0  0  0999 V2000
  190.8580  176.1110  144.1970 O   0  0  0  0  0  0  0  0  0  0  0  0
  186.3410  177.7740  144.5380 N   0  0  0  0  0  2  0  0  0  0  0  0
  188.2000  177.9980  141.3510 C   0  0  0  0  0  3  0  0  0  0  0  0
  189.6870  177.5470  146.1040 C   0  0  0  0  0  3  0  0  0  0  0  0
  189.3560  177.6210  147.4590 C   0  0  0  0  0  3  0  0  0  0  0  0
  186.6690  178.3520  143.2400 C   0  0  1  0  0  3  0  0  0  0  0  0
  188.6880  177.5250  145.1110 C   0  0  0  0  0  0  0  0  0  0  0  0
  187.3520  177.6480  145.5200 C   0  0  0  0  0  0  0  0  0  0  0  0
  190.7840  176.6480  142.0590 N   0  0  0  0  0  2  0  0  0  0  0  0
  189.2570  177.7030  140.5230 C   0  0  0  0  0  3  0  0  0  0  0  0
  187.0140  177.7020  146.8760 C   0  0  0  0  0  3  0  0  0  0  0  0
  188.0170  177.6840  147.8460 C   0  0  0  0  0  3  0  0  0  0  0  0
  190.4450  177.0910  140.8320 C   0  0  0  0  0  0  0  0  0  0  0  0
  188.0170  177.8340  142.7190 C   0  0  2  0  0  3  0  0  0  0  0  0
  189.0080  177.3790  143.6420 C   0  0  2  0  0  3  0  0  0  0  0  0
  191.2620  176.9100  139.8920 O   0  0  0  0  0  0  0  0  0  0  0  0
  190.2210  176.7110  143.2900 C   0  0  0  0  0  0  0  0  0  0  0  0
  184.1220  178.4130  142.9210 C   0  0  0  0  0  2  0  0  0  0  0  0
  183.0000  178.1900  141.9120 C   0  0  0  0  0  2  0  0  0  0  0  0
  184.5150  178.9430  140.0710 C   0  0  0  0  0  2  0  0  0  0  0  0
  185.6320  179.1630  141.0880 C   0  0  0  0  0  2  0  0  0  0  0  0
  183.1560  179.1480  140.7320 C   0  0  1  0  0  3  0  0  0  0  0  0
  185.4870  178.1840  142.2560 C   0  0  1  0  0  3  0  0  0  0  0  0
  182.0600  178.9040  139.7110 C   0  0  0  0  0  2  0  0  0  0  0  0
  182.4070  179.5360  138.4490 N   0  0  0  0  0  2  0  0  0  0  0  0
  181.8200  180.8630  138.4730 C   0  0  0  0  0  1  0  0  0  0  0  0
  2  8  1  0  0  0  0
  4  5  1  0  0  0  0
  5 12  2  0  0  0  0
  6  2  1  1  0  0  0
  7  8  1  0  0  0  0
  7  4  2  0  0  0  0
  8 11  2  0  0  0  0
  9 17  1  0  0  0  0
 10 13  1  0  0  0  0
 10  3  2  0  0  0  0
 11 12  1  0  0  0  0
 13  9  1  0  0  0  0
 14  3  1  1  0  0  0
 14  6  1  0  0  0  0
 14 15  1  0  0  0  0
 15 17  1  6  0  0  0
 15  7  1  0  0  0  0
 16 13  2  0  0  0  0
 17  1  2  0  0  0  0
 19 18  1  0  0  0  0
 20 22  1  0  0  0  0
 20 21  1  0  0  0  0
 22 24  1  6  0  0  0
 22 19  1  0  0  0  0
 23 21  1  6  0  0  0
 23 18  1  0  0  0  0
 23  6  1  0  0  0  0
 25 26  1  0  0  0  0
 25 24  1  0  0  0  0
M  END
>  <MODEL>
7

>  <REMARK>
 VINA RESULT:      -9.1      2.390      7.008
  Name = 
  3 active torsions:
  status: ('A' for Active; 'I' for Inactive)
    1  A    between atoms: C_9  and  C_22
    2  A    between atoms: C_10  and  N_11
    3  A    between atoms: C_10  and  C_19
                            x       y       z     vdW  Elec       q    Type
                         _______ _______ _______ _____ _____    ______ ____

>  <TORSDO>
F 3

$$$$
=
 OpenBabel10232407563D

 26 29  0  0  1  0  0  0  0  0999 V2000
  192.0530  178.3740  144.0630 O   0  0  0  0  0  0  0  0  0  0  0  0
  187.8470  177.7800  141.7760 N   0  0  0  0  0  2  0  0  0  0  0  0
  188.1640  177.0050  145.3760 C   0  0  0  0  0  3  0  0  0  0  0  0
  191.5190  177.3230  141.6810 C   0  0  0  0  0  3  0  0  0  0  0  0
  191.7630  177.3840  140.3070 C   0  0  0  0  0  3  0  0  0  0  0  0
  187.5020  177.0860  143.0110 C   0  0  1  0  0  3  0  0  0  0  0  0
  190.2240  177.5230  142.1990 C   0  0  0  0  0  0  0  0  0  0  0  0
  189.1750  177.7190  141.2900 C   0  0  0  0  0  0  0  0  0  0  0  0
  191.0140  177.7740  145.9130 N   0  0  0  0  0  2  0  0  0  0  0  0
  188.8250  177.0190  146.5810 C   0  0  0  0  0  3  0  0  0  0  0  0
  189.4170  177.8030  139.9160 C   0  0  0  0  0  3  0  0  0  0  0  0
  190.7130  177.6390  139.4240 C   0  0  0  0  0  3  0  0  0  0  0  0
  190.1280  177.3630  146.8430 C   0  0  0  0  0  0  0  0  0  0  0  0
  188.5910  177.2660  144.0790 C   0  0  2  0  0  3  0  0  0  0  0  0
  189.9380  177.5290  143.6840 C   0  0  2  0  0  3  0  0  0  0  0  0
  190.5070  177.3160  148.0410 O   0  0  0  0  0  0  0  0  0  0  0  0
  191.0030  177.8920  144.5640 C   0  0  0  0  0  0  0  0  0  0  0  0
  186.0730  178.5000  144.6080 C   0  0  0  0  0  2  0  0  0  0  0  0
  184.6430  178.8020  145.0440 C   0  0  0  0  0  2  0  0  0  0  0  0
  183.8460  178.3410  142.7180 C   0  0  0  0  0  2  0  0  0  0  0  0
  185.2800  178.0410  142.2920 C   0  0  0  0  0  2  0  0  0  0  0  0
  183.8390  179.3480  143.8640 C   0  0  1  0  0  3  0  0  0  0  0  0
  186.0760  177.4690  143.4700 C   0  0  1  0  0  3  0  0  0  0  0  0
  182.4060  179.6160  144.2870 C   0  0  0  0  0  2  0  0  0  0  0  0
  181.4890  179.1420  143.2650 N   0  0  0  0  0  2  0  0  0  0  0  0
  180.3210  178.6310  143.9590 C   0  0  0  0  0  1  0  0  0  0  0  0
  1 17  2  0  0  0  0
  3 10  2  0  0  0  0
  4  7  1  0  0  0  0
  5  4  2  0  0  0  0
  6  2  1  6  0  0  0
  6 23  1  0  0  0  0
  6 14  1  0  0  0  0
  8  2  1  0  0  0  0
  8  7  2  0  0  0  0
  9 13  1  0  0  0  0
 10 13  1  0  0  0  0
 11  8  1  0  0  0  0
 12 11  2  0  0  0  0
 12  5  1  0  0  0  0
 13 16  2  0  0  0  0
 14  3  1  6  0  0  0
 15  7  1  6  0  0  0
 15 14  1  0  0  0  0
 15 17  1  0  0  0  0
 17  9  1  0  0  0  0
 18 19  1  0  0  0  0
 20 22  1  0  0  0  0
 21 20  1  0  0  0  0
 22 24  1  1  0  0  0
 22 19  1  0  0  0  0
 23 21  1  6  0  0  0
 23 18  1  0  0  0  0
 25 26  1  0  0  0  0
 25 24  1  0  0  0  0
M  END
>  <MODEL>
8

>  <REMARK>
 VINA RESULT:      -8.6      2.819      7.269
  Name = 
  3 active torsions:
  status: ('A' for Active; 'I' for Inactive)
    1  A    between atoms: C_9  and  C_22
    2  A    between atoms: C_10  and  N_11
    3  A    between atoms: C_10  and  C_19
                            x       y       z     vdW  Elec       q    Type
                         _______ _______ _______ _____ _____    ______ ____

>  <TORSDO>
F 3

$$$$
=
 OpenBabel10232407563D

 26 29  0  0  1  0  0  0  0  0999 V2000
  186.6560  176.9280  137.2290 O   0  0  0  0  0  0  0  0  0  0  0  0
  189.9600  177.1910  140.7360 N   0  0  0  0  0  2  0  0  0  0  0  0
  186.7130  178.9280  141.0660 C   0  0  0  0  0  3  0  0  0  0  0  0
  189.2850  177.3000  137.0980 C   0  0  0  0  0  3  0  0  0  0  0  0
  190.4970  176.8310  136.5850 C   0  0  0  0  0  3  0  0  0  0  0  0
  189.0650  178.2330  141.2260 C   0  0  1  0  0  3  0  0  0  0  0  0
  189.0590  177.3620  138.4870 C   0  0  0  0  0  0  0  0  0  0  0  0
  190.1110  177.0030  139.3410 C   0  0  0  0  0  0  0  0  0  0  0  0
  185.3290  178.1120  138.5320 N   0  0  0  0  0  2  0  0  0  0  0  0
  185.4230  179.2020  140.6800 C   0  0  0  0  0  3  0  0  0  0  0  0
  191.3180  176.5120  138.8340 C   0  0  0  0  0  3  0  0  0  0  0  0
  191.5090  176.4230  137.4540 C   0  0  0  0  0  3  0  0  0  0  0  0
  184.7770  178.8410  139.5240 C   0  0  0  0  0  0  0  0  0  0  0  0
  187.7580  178.2750  140.4210 C   0  0  2  0  0  3  0  0  0  0  0  0
  187.7370  177.8020  139.0740 C   0  0  2  0  0  3  0  0  0  0  0  0
  183.5770  179.1950  139.3990 O   0  0  0  0  0  0  0  0  0  0  0  0
  186.5640  177.6170  138.2800 C   0  0  0  0  0  0  0  0  0  0  0  0
  188.3400  176.7410  143.1860 C   0  0  0  0  0  2  0  0  0  0  0  0
  188.1360  176.7030  144.6970 C   0  0  0  0  0  2  0  0  0  0  0  0
  190.0170  178.3260  144.9830 C   0  0  0  0  0  2  0  0  0  0  0  0
  190.2130  178.3580  143.4700 C   0  0  0  0  0  2  0  0  0  0  0  0
  189.4600  176.9720  145.4120 C   0  0  1  0  0  3  0  0  0  0  0  0
  188.8790  178.1140  142.7570 C   0  0  1  0  0  3  0  0  0  0  0  0
  189.2540  176.9690  146.9160 C   0  0  0  0  0  2  0  0  0  0  0  0
  187.9840  177.5920  147.2450 N   0  0  0  0  0  2  0  0  0  0  0  0
  188.1150  178.1190  148.5910 C   0  0  0  0  0  1  0  0  0  0  0  0
  1 17  2  0  0  0  0
  4  7  1  0  0  0  0
  5  4  2  0  0  0  0
  5 12  1  0  0  0  0
  6  2  1  6  0  0  0
  6 23  1  0  0  0  0
  7 15  1  0  0  0  0
  7  8  2  0  0  0  0
  8  2  1  0  0  0  0
  9 13  1  0  0  0  0
 10  3  2  0  0  0  0
 11  8  1  0  0  0  0
 12 11  2  0  0  0  0
 13 10  1  0  0  0  0
 14  3  1  6  0  0  0
 14  6  1  0  0  0  0
 15 17  1  1  0  0  0
 15 14  1  0  0  0  0
 16 13  2  0  0  0  0
 17  9  1  0  0  0  0
 18 19  1  0  0  0  0
 19 22  1  0  0  0  0
 20 22  1  0  0  0  0
 21 20  1  0  0  0  0
 22 24  1  1  0  0  0
 23 18  1  6  0  0  0
 23 21  1  0  0  0  0
 24 25  1  0  0  0  0
 25 26  1  0  0  0  0
M  END
>  <MODEL>
9

>  <REMARK>
 VINA RESULT:      -8.6      2.563      5.443
  Name = 
  3 active torsions:
  status: ('A' for Active; 'I' for Inactive)
    1  A    between atoms: C_9  and  C_22
    2  A    between atoms: C_10  and  N_11
    3  A    between atoms: C_10  and  C_19
                            x       y       z     vdW  Elec       q    Type
                         _______ _______ _______ _____ _____    ______ ____

>  <TORSDO>
F 3

$$$$
