=
 OpenBabel10222421353D

 43 47  0  0  1  0  0  0  0  0999 V2000
  184.9570  177.3220  138.1620 N   0  0  0  0  0  0  0  0  0  0  0  0
  184.0160  178.1700  138.4630 C   0  0  0  0  0  0  0  0  0  0  0  0
  184.5300  180.4030  139.0540 O   0  0  0  0  0  0  0  0  0  0  0  0
  184.2980  178.9490  140.8650 N   0  0  0  0  0  0  0  0  0  0  0  0
  184.2850  179.2320  139.4520 C   0  0  0  0  0  0  0  0  0  0  0  0
  183.2200  178.2800  141.5380 C   0  0  0  0  0  3  0  0  0  0  0  0
  182.7930  178.6440  142.7430 C   0  0  0  0  0  2  0  0  0  0  0  0
  185.3950  179.4370  141.6860 C   0  0  0  0  0  2  0  0  0  0  0  0
  186.5970  178.5150  141.5660 C   0  0  0  0  0  2  0  0  0  0  0  0
  186.8290  177.7980  142.8530 C   0  0  0  0  0  0  0  0  0  0  0  0
  187.9970  177.1250  143.1960 C   0  0  0  0  0  0  0  0  0  0  0  0
  188.8250  178.1800  147.7780 C   0  0  0  0  0  1  0  0  0  0  0  0
  186.7460  177.7420  146.3220 C   0  0  0  0  0  2  0  0  0  0  0  0
  188.8180  177.0480  145.4890 C   0  0  0  0  0  0  0  0  0  0  0  0
  188.1620  177.5190  146.6660 N   0  0  0  0  0  0  0  0  0  0  0  0
  187.8070  176.8400  144.5140 C   0  0  0  0  0  0  0  0  0  0  0  0
  190.2210  176.0470  142.9440 C   0  0  0  0  0  2  0  0  0  0  0  0
  186.6330  177.2840  144.9370 N   0  0  0  0  0  0  0  0  0  0  0  0
  190.5150  177.3580  143.6550 C   0  0  0  0  0  0  0  0  0  0  0  0
  190.0680  177.3620  145.1190 C   0  0  0  0  0  3  0  0  0  0  0  0
  189.3770  177.2700  142.5950 C   0  0  0  0  0  0  0  0  0  0  0  0
  186.0320  177.9250  143.9450 N   0  0  0  0  0  0  0  0  0  0  0  0
  182.6720  178.1100  137.7930 C   0  0  0  0  0  2  0  0  0  0  0  0
  181.1090  176.2380  138.0040 N   0  0  0  0  0  0  0  0  0  0  0  0
  181.7430  177.2130  138.5570 C   0  0  0  0  0  3  0  0  0  0  0  0
  181.2330  175.9210  136.6010 C   0  0  0  0  0  2  0  0  0  0  0  0
  180.3210  173.9670  135.5980 O   0  0  0  0  0  0  0  0  0  0  0  0
  181.1570  174.4470  136.4110 C   0  0  0  0  0  0  0  0  0  0  0  0
  181.9970  173.6150  137.1510 O   0  0  0  0  0  0  0  0  0  0  0  0
  183.8080  172.0440  137.1380 C   0  0  0  0  0  2  0  0  0  0  0  0
  183.5560  172.5000  135.7160 C   0  0  0  0  0  2  0  0  0  0  0  0
  182.3960  172.3350  136.6760 C   0  0  0  0  0  3  0  0  0  0  0  0
  184.8180  176.2420  137.1920 C   0  0  0  0  0  2  0  0  0  0  0  0
  186.0630  176.1490  136.3240 C   0  0  0  0  0  2  0  0  0  0  0  0
  187.0090  175.1490  136.9040 C   0  0  0  0  0  0  0  0  0  0  0  0
  188.4190  175.3820  136.9020 N   0  0  0  0  0  2  0  0  0  0  0  0
  186.5570  174.0960  137.4240 O   0  0  0  0  0  0  0  0  0  0  0  0
  189.3750  177.5960  136.9140 C   0  0  0  0  0  3  0  0  0  0  0  0
  189.0110  176.5040  136.2450 C   0  0  0  0  0  3  0  0  0  0  0  0
  190.4150  177.2650  139.1110 C   0  0  0  0  0  1  0  0  0  0  0  0
  189.1730  177.7500  138.3870 C   0  0  1  0  0  3  0  0  0  0  0  0
  188.9600  179.0970  138.6910 O   0  0  0  0  0  0  0  0  0  0  0  0
  188.9560  179.7090  137.5250 O   0  0  0  0  0  1  0  0  0  0  0  0
  1  2  2  0  0  0  0
  2  5  1  0  0  0  0
  3  5  2  0  0  0  0
  4  6  1  0  0  0  0
  4  8  1  0  0  0  0
  5  4  1  0  0  0  0
  6  7  2  0  0  0  0
  9  8  1  0  0  0  0
  9 10  1  0  0  0  0
 10 11  1  0  0  0  0
 10 22  2  0  0  0  0
 11 16  1  0  0  0  0
 13 15  1  0  0  0  0
 14 15  1  0  0  0  0
 15 12  1  0  0  0  0
 16 18  1  0  0  0  0
 16 14  2  0  0  0  0
 17 19  1  0  0  0  0
 18 13  1  0  0  0  0
 19 20  2  3  0  0  0
 20 14  1  0  0  0  0
 21 17  1  0  0  0  0
 21 11  2  3  0  0  0
 21 19  1  0  0  0  0
 22 18  1  0  0  0  0
 23  2  1  0  0  0  0
 23 25  1  0  0  0  0
 24 25  2  0  0  0  0
 26 24  1  0  0  0  0
 27 28  2  0  0  0  0
 28 26  1  0  0  0  0
 28 29  1  0  0  0  0
 31 32  1  0  0  0  0
 31 30  1  0  0  0  0
 32 30  1  0  0  0  0
 32 29  1  0  0  0  0
 33  1  1  0  0  0  0
 34 35  1  0  0  0  0
 34 33  1  0  0  0  0
 35 37  2  0  0  0  0
 36 35  1  0  0  0  0
 38 41  1  0  0  0  0
 39 36  1  0  0  0  0
 39 38  2  0  0  0  0
 41 42  1  0  0  0  0
 41 40  1  1  0  0  0
 43 42  1  0  0  0  0
M  END
>  <MODEL>
1

>  <REMARK>
 VINA RESULT:      -7.0      0.000      0.000
  Name = 
  17 active torsions:
  status: ('A' for Active; 'I' for Inactive)
    1  A    between atoms: C_2  and  C_6
    2  A    between atoms: N_3  and  C_29
    3  A    between atoms: C_4  and  C_40
    4  A    between atoms: C_5  and  C_6
    5  A    between atoms: C_5  and  N_11
    6  A    between atoms: C_10  and  C_39
    7  A    between atoms: N_11  and  C_12
    8  A    between atoms: N_13  and  C_20
    9  A    between atoms: C_19  and  C_26
   10  A    between atoms: C_20  and  C_38
   11  A    between atoms: C_22  and  N_37
   12  A    between atoms: C_26  and  C_31
   13  A    between atoms: O_27  and  C_36
   14  A    between atoms: O_27  and  C_38
   15  A    between atoms: O_28  and  C_39
   16  A    between atoms: C_29  and  C_40
   17  A    between atoms: C_31  and  C_43
                            x       y       z     vdW  Elec       q    Type
                         _______ _______ _______ _____ _____    ______ ____

>  <TORSDO>
F 17

$$$$
=
 OpenBabel10222421353D

 43 47  0  0  1  0  0  0  0  0999 V2000
  186.6990  178.3000  138.5770 N   0  0  0  0  0  0  0  0  0  0  0  0
  185.4090  178.2360  138.4060 C   0  0  0  0  0  0  0  0  0  0  0  0
  184.3470  180.2420  139.0760 O   0  0  0  0  0  0  0  0  0  0  0  0
  183.8650  178.3940  140.4180 N   0  0  0  0  0  0  0  0  0  0  0  0
  184.5200  179.0120  139.2930 C   0  0  0  0  0  0  0  0  0  0  0  0
  183.0830  177.1950  140.3060 C   0  0  0  0  0  3  0  0  0  0  0  0
  181.7680  177.2140  140.1160 C   0  0  0  0  0  2  0  0  0  0  0  0
  183.9010  179.0470  141.7180 C   0  0  0  0  0  2  0  0  0  0  0  0
  185.3360  179.2010  142.1920 C   0  0  0  0  0  2  0  0  0  0  0  0
  185.5340  178.4830  143.4850 C   0  0  0  0  0  0  0  0  0  0  0  0
  186.5720  177.5990  143.7590 C   0  0  0  0  0  0  0  0  0  0  0  0
  187.9890  178.5790  148.2130 C   0  0  0  0  0  1  0  0  0  0  0  0
  185.7460  178.5290  146.9490 C   0  0  0  0  0  2  0  0  0  0  0  0
  187.5590  177.4150  145.9800 C   0  0  0  0  0  0  0  0  0  0  0  0
  187.1140  178.0360  147.1860 N   0  0  0  0  0  0  0  0  0  0  0  0
  186.4450  177.3900  145.1000 C   0  0  0  0  0  0  0  0  0  0  0  0
  188.5090  176.0920  143.3730 C   0  0  0  0  0  2  0  0  0  0  0  0
  185.4230  178.0700  145.5970 N   0  0  0  0  0  0  0  0  0  0  0  0
  189.1170  177.3340  144.0040 C   0  0  0  0  0  0  0  0  0  0  0  0
  188.8090  177.4640  145.4980 C   0  0  0  0  0  3  0  0  0  0  0  0
  187.8960  177.4500  143.0440 C   0  0  0  0  0  0  0  0  0  0  0  0
  184.8760  178.7940  144.6320 N   0  0  0  0  0  0  0  0  0  0  0  0
  184.8120  177.4150  137.2980 C   0  0  0  0  0  2  0  0  0  0  0  0
  182.5980  177.2300  136.2720 N   0  0  0  0  0  0  0  0  0  0  0  0
  183.4490  177.9300  136.9390 C   0  0  0  0  0  3  0  0  0  0  0  0
  182.8760  175.8920  135.8110 C   0  0  0  0  0  2  0  0  0  0  0  0
  181.0450  175.1110  137.1130 O   0  0  0  0  0  0  0  0  0  0  0  0
  182.2230  174.9040  136.7120 C   0  0  0  0  0  0  0  0  0  0  0  0
  182.9300  173.7720  137.1180 O   0  0  0  0  0  0  0  0  0  0  0  0
  182.8450  171.3760  137.0740 C   0  0  0  0  0  2  0  0  0  0  0  0
  184.2600  171.8140  136.7560 C   0  0  0  0  0  2  0  0  0  0  0  0
  183.0850  172.6380  136.2720 C   0  0  0  0  0  3  0  0  0  0  0  0
  187.6780  177.5950  137.7590 C   0  0  0  0  0  2  0  0  0  0  0  0
  189.0810  178.0910  138.0710 C   0  0  0  0  0  2  0  0  0  0  0  0
  189.6520  177.3090  139.2080 C   0  0  0  0  0  0  0  0  0  0  0  0
  190.4320  176.1350  138.9760 N   0  0  0  0  0  2  0  0  0  0  0  0
  189.4640  177.7030  140.3880 O   0  0  0  0  0  0  0  0  0  0  0  0
  191.8100  175.2390  137.2100 C   0  0  0  0  0  3  0  0  0  0  0  0
  190.6070  175.5730  137.6740 C   0  0  0  0  0  3  0  0  0  0  0  0
  194.1800  174.6290  137.3640 C   0  0  0  0  0  1  0  0  0  0  0  0
  193.0670  175.4450  137.9920 C   0  0  1  0  0  3  0  0  0  0  0  0
  193.4170  176.7970  137.9660 O   0  0  0  0  0  0  0  0  0  0  0  0
  193.7990  177.0710  139.1970 O   0  0  0  0  0  1  0  0  0  0  0  0
  2  1  2  0  0  0  0
  2  5  1  0  0  0  0
  3  5  2  0  0  0  0
  4  8  1  0  0  0  0
  5  4  1  0  0  0  0
  6  4  1  0  0  0  0
  7  6  2  0  0  0  0
  8  9  1  0  0  0  0
  9 10  1  0  0  0  0
 10 11  1  0  0  0  0
 10 22  2  0  0  0  0
 11 16  1  0  0  0  0
 13 15  1  0  0  0  0
 14 15  1  0  0  0  0
 15 12  1  0  0  0  0
 16 18  1  0  0  0  0
 16 14  2  0  0  0  0
 17 19  1  0  0  0  0
 18 13  1  0  0  0  0
 19 20  2  3  0  0  0
 20 14  1  0  0  0  0
 21 17  1  0  0  0  0
 21 11  2  3  0  0  0
 21 19  1  0  0  0  0
 22 18  1  0  0  0  0
 23  2  1  0  0  0  0
 24 25  2  0  0  0  0
 25 23  1  0  0  0  0
 26 24  1  0  0  0  0
 26 28  1  0  0  0  0
 28 27  2  0  0  0  0
 28 29  1  0  0  0  0
 31 30  1  0  0  0  0
 32 31  1  0  0  0  0
 32 30  1  0  0  0  0
 32 29  1  0  0  0  0
 33 34  1  0  0  0  0
 33  1  1  0  0  0  0
 34 35  1  0  0  0  0
 35 37  2  0  0  0  0
 36 35  1  0  0  0  0
 38 39  2  0  0  0  0
 38 41  1  0  0  0  0
 39 36  1  0  0  0  0
 41 40  1  6  0  0  0
 42 41  1  0  0  0  0
 42 43  1  0  0  0  0
M  END
>  <MODEL>
2

>  <REMARK>
 VINA RESULT:      -6.9      2.013      2.587
  Name = 
  17 active torsions:
  status: ('A' for Active; 'I' for Inactive)
    1  A    between atoms: C_2  and  C_6
    2  A    between atoms: N_3  and  C_29
    3  A    between atoms: C_4  and  C_40
    4  A    between atoms: C_5  and  C_6
    5  A    between atoms: C_5  and  N_11
    6  A    between atoms: C_10  and  C_39
    7  A    between atoms: N_11  and  C_12
    8  A    between atoms: N_13  and  C_20
    9  A    between atoms: C_19  and  C_26
   10  A    between atoms: C_20  and  C_38
   11  A    between atoms: C_22  and  N_37
   12  A    between atoms: C_26  and  C_31
   13  A    between atoms: O_27  and  C_36
   14  A    between atoms: O_27  and  C_38
   15  A    between atoms: O_28  and  C_39
   16  A    between atoms: C_29  and  C_40
   17  A    between atoms: C_31  and  C_43
                            x       y       z     vdW  Elec       q    Type
                         _______ _______ _______ _____ _____    ______ ____

>  <TORSDO>
F 17

$$$$
=
 OpenBabel10222421353D

 43 47  0  0  1  0  0  0  0  0999 V2000
  188.8620  177.4550  139.7850 N   0  0  0  0  0  0  0  0  0  0  0  0
  189.5370  177.4360  138.6720 C   0  0  0  0  0  0  0  0  0  0  0  0
  189.2670  178.9210  136.8480 O   0  0  0  0  0  0  0  0  0  0  0  0
  187.7960  177.1080  136.8500 N   0  0  0  0  0  0  0  0  0  0  0  0
  188.8820  177.8640  137.4200 C   0  0  0  0  0  0  0  0  0  0  0  0
  187.8740  175.6970  136.5950 C   0  0  0  0  0  3  0  0  0  0  0  0
  188.5370  175.1930  135.5600 C   0  0  0  0  0  2  0  0  0  0  0  0
  186.5910  177.7980  136.4160 C   0  0  0  0  0  2  0  0  0  0  0  0
  185.3750  177.2450  137.1400 C   0  0  0  0  0  2  0  0  0  0  0  0
  184.9700  178.1610  138.2460 C   0  0  0  0  0  0  0  0  0  0  0  0
  183.6580  178.4540  138.6030 C   0  0  0  0  0  0  0  0  0  0  0  0
  183.5700  178.4740  143.3770 C   0  0  0  0  0  1  0  0  0  0  0  0
  185.2390  179.1880  141.5500 C   0  0  0  0  0  2  0  0  0  0  0  0
  183.0110  178.8660  140.9160 C   0  0  0  0  0  0  0  0  0  0  0  0
  183.8660  178.9930  142.0520 N   0  0  0  0  0  0  0  0  0  0  0  0
  183.8090  179.1360  139.7730 C   0  0  0  0  0  0  0  0  0  0  0  0
  181.1810  178.5840  138.4620 C   0  0  0  0  0  2  0  0  0  0  0  0
  185.0870  179.2590  140.0960 N   0  0  0  0  0  0  0  0  0  0  0  0
  181.4440  177.5000  139.4950 C   0  0  0  0  0  0  0  0  0  0  0  0
  181.9500  178.0510  140.8310 C   0  0  0  0  0  3  0  0  0  0  0  0
  182.3990  177.6820  138.2780 C   0  0  0  0  0  0  0  0  0  0  0  0
  185.8230  178.6200  139.1990 N   0  0  0  0  0  0  0  0  0  0  0  0
  190.9810  177.0230  138.6450 C   0  0  0  0  0  2  0  0  0  0  0  0
  191.7570  175.1070  137.3340 N   0  0  0  0  0  0  0  0  0  0  0  0
  191.1030  175.5570  138.3480 C   0  0  0  0  0  3  0  0  0  0  0  0
  192.4300  175.9700  136.3930 C   0  0  0  0  0  2  0  0  0  0  0  0
  194.5240  177.0920  136.2660 O   0  0  0  0  0  0  0  0  0  0  0  0
  193.8270  176.2130  136.8440 C   0  0  0  0  0  0  0  0  0  0  0  0
  194.3550  175.4490  137.8850 O   0  0  0  0  0  0  0  0  0  0  0  0
  194.9660  173.1750  138.3370 C   0  0  0  0  0  2  0  0  0  0  0  0
  195.9840  174.0870  138.9910 C   0  0  0  0  0  2  0  0  0  0  0  0
  195.3650  174.4710  137.6630 C   0  0  0  0  0  3  0  0  0  0  0  0
  189.3990  177.0730  141.0860 C   0  0  0  0  0  2  0  0  0  0  0  0
  189.2970  178.2330  142.0610 C   0  0  0  0  0  2  0  0  0  0  0  0
  190.2700  178.0410  143.1790 C   0  0  0  0  0  0  0  0  0  0  0  0
  189.8380  177.5820  144.4600 N   0  0  0  0  0  2  0  0  0  0  0  0
  191.4930  178.2640  142.9820 O   0  0  0  0  0  0  0  0  0  0  0  0
  188.0240  177.4530  146.0450 C   0  0  0  0  0  3  0  0  0  0  0  0
  188.4580  177.4020  144.7870 C   0  0  0  0  0  3  0  0  0  0  0  0
  188.1390  178.2740  148.3530 C   0  0  0  0  0  1  0  0  0  0  0  0
  188.9340  177.6730  147.2100 C   0  0  1  0  0  3  0  0  0  0  0  0
  189.4740  176.4510  147.6180 O   0  0  0  0  0  0  0  0  0  0  0  0
  190.7710  176.5740  147.4220 O   0  0  0  0  0  1  0  0  0  0  0  0
  1 33  1  0  0  0  0
  2  1  2  0  0  0  0
  3  5  2  0  0  0  0
  4  5  1  0  0  0  0
  5  2  1  0  0  0  0
  6  4  1  0  0  0  0
  7  6  2  0  0  0  0
  8  4  1  0  0  0  0
  8  9  1  0  0  0  0
  9 10  1  0  0  0  0
 10 11  1  0  0  0  0
 10 22  2  0  0  0  0
 11 16  1  0  0  0  0
 13 15  1  0  0  0  0
 14 15  1  0  0  0  0
 15 12  1  0  0  0  0
 16 18  1  0  0  0  0
 16 14  2  0  0  0  0
 17 19  1  0  0  0  0
 18 13  1  0  0  0  0
 19 20  2  3  0  0  0
 20 14  1  0  0  0  0
 21 17  1  0  0  0  0
 21 11  2  3  0  0  0
 21 19  1  0  0  0  0
 22 18  1  0  0  0  0
 23  2  1  0  0  0  0
 24 25  2  0  0  0  0
 25 23  1  0  0  0  0
 26 28  1  0  0  0  0
 26 24  1  0  0  0  0
 27 28  2  0  0  0  0
 28 29  1  0  0  0  0
 30 31  1  0  0  0  0
 32 29  1  0  0  0  0
 32 30  1  0  0  0  0
 32 31  1  0  0  0  0
 33 34  1  0  0  0  0
 34 35  1  0  0  0  0
 35 36  1  0  0  0  0
 36 39  1  0  0  0  0
 37 35  2  0  0  0  0
 38 41  1  0  0  0  0
 39 38  2  0  0  0  0
 41 42  1  0  0  0  0
 41 40  1  1  0  0  0
 43 42  1  0  0  0  0
M  END
>  <MODEL>
3

>  <REMARK>
 VINA RESULT:      -6.7      3.401      8.691
  Name = 
  17 active torsions:
  status: ('A' for Active; 'I' for Inactive)
    1  A    between atoms: C_2  and  C_6
    2  A    between atoms: N_3  and  C_29
    3  A    between atoms: C_4  and  C_40
    4  A    between atoms: C_5  and  C_6
    5  A    between atoms: C_5  and  N_11
    6  A    between atoms: C_10  and  C_39
    7  A    between atoms: N_11  and  C_12
    8  A    between atoms: N_13  and  C_20
    9  A    between atoms: C_19  and  C_26
   10  A    between atoms: C_20  and  C_38
   11  A    between atoms: C_22  and  N_37
   12  A    between atoms: C_26  and  C_31
   13  A    between atoms: O_27  and  C_36
   14  A    between atoms: O_27  and  C_38
   15  A    between atoms: O_28  and  C_39
   16  A    between atoms: C_29  and  C_40
   17  A    between atoms: C_31  and  C_43
                            x       y       z     vdW  Elec       q    Type
                         _______ _______ _______ _____ _____    ______ ____

>  <TORSDO>
F 17

$$$$
=
 OpenBabel10222421353D

 43 47  0  0  1  0  0  0  0  0999 V2000
  187.1450  178.4510  139.7920 N   0  0  0  0  0  0  0  0  0  0  0  0
  188.4250  178.3560  139.5720 C   0  0  0  0  0  0  0  0  0  0  0  0
  189.0750  179.4590  137.5820 O   0  0  0  0  0  0  0  0  0  0  0  0
  189.2190  177.1310  137.4920 N   0  0  0  0  0  0  0  0  0  0  0  0
  188.9240  178.3610  138.1820 C   0  0  0  0  0  0  0  0  0  0  0  0
  190.0740  176.1140  138.0360 C   0  0  0  0  0  3  0  0  0  0  0  0
  191.3810  176.2910  138.2020 C   0  0  0  0  0  2  0  0  0  0  0  0
  188.7200  176.9290  136.1400 C   0  0  0  0  0  2  0  0  0  0  0  0
  187.2040  176.8190  136.1470 C   0  0  0  0  0  2  0  0  0  0  0  0
  186.7840  175.4700  136.6250 C   0  0  0  0  0  0  0  0  0  0  0  0
  185.5440  175.1650  137.1750 C   0  0  0  0  0  0  0  0  0  0  0  0
  184.2880  170.9470  135.3220 C   0  0  0  0  0  1  0  0  0  0  0  0
  186.4800  172.0530  136.0970 C   0  0  0  0  0  2  0  0  0  0  0  0
  184.4720  173.0050  136.8250 C   0  0  0  0  0  0  0  0  0  0  0  0
  185.0240  171.8500  136.1930 N   0  0  0  0  0  0  0  0  0  0  0  0
  185.5690  173.8040  137.2410 C   0  0  0  0  0  0  0  0  0  0  0  0
  183.2950  175.5020  138.1750 C   0  0  0  0  0  2  0  0  0  0  0  0
  186.7150  173.3220  136.7880 N   0  0  0  0  0  0  0  0  0  0  0  0
  183.0110  175.0540  136.7510 C   0  0  0  0  0  0  0  0  0  0  0  0
  183.2940  173.5670  136.5190 C   0  0  0  0  0  3  0  0  0  0  0  0
  184.2510  175.9420  137.0690 C   0  0  0  0  0  0  0  0  0  0  0  0
  187.4630  174.3250  136.3520 N   0  0  0  0  0  0  0  0  0  0  0  0
  189.4060  178.2780  140.7070 C   0  0  0  0  0  2  0  0  0  0  0  0
  190.3600  176.4860  142.0730 N   0  0  0  0  0  0  0  0  0  0  0  0
  189.4180  176.8990  141.2980 C   0  0  0  0  0  3  0  0  0  0  0  0
  191.4870  177.3090  142.4430 C   0  0  0  0  0  2  0  0  0  0  0  0
  191.3450  179.1970  143.8830 O   0  0  0  0  0  0  0  0  0  0  0  0
  191.2320  177.9460  143.7630 C   0  0  0  0  0  0  0  0  0  0  0  0
  190.8940  177.1480  144.8570 O   0  0  0  0  0  0  0  0  0  0  0  0
  192.0080  175.8060  146.5010 C   0  0  0  0  0  2  0  0  0  0  0  0
  190.8270  176.4900  147.1570 C   0  0  0  0  0  2  0  0  0  0  0  0
  191.6160  177.2070  146.0810 C   0  0  0  0  0  3  0  0  0  0  0  0
  186.5320  178.4730  141.1150 C   0  0  0  0  0  2  0  0  0  0  0  0
  185.2050  179.2120  141.0700 C   0  0  0  0  0  2  0  0  0  0  0  0
  184.1570  178.4110  141.7730 C   0  0  0  0  0  0  0  0  0  0  0  0
  183.7630  178.7260  143.1090 N   0  0  0  0  0  2  0  0  0  0  0  0
  183.5960  177.4600  141.1700 O   0  0  0  0  0  0  0  0  0  0  0  0
  185.2940  179.4070  144.8440 C   0  0  0  0  0  3  0  0  0  0  0  0
  184.4220  179.7250  143.8900 C   0  0  0  0  0  3  0  0  0  0  0  0
  186.9850  177.6470  144.5940 C   0  0  0  0  0  1  0  0  0  0  0  0
  185.6360  177.9940  145.1940 C   0  0  1  0  0  3  0  0  0  0  0  0
  185.7010  177.8590  146.5820 O   0  0  0  0  0  0  0  0  0  0  0  0
  184.5480  178.3230  147.0200 O   0  0  0  0  0  1  0  0  0  0  0  0
  1 33  1  0  0  0  0
  2  1  2  0  0  0  0
  2 23  1  0  0  0  0
  3  5  2  0  0  0  0
  4  6  1  0  0  0  0
  4  5  1  0  0  0  0
  5  2  1  0  0  0  0
  6  7  2  0  0  0  0
  8  9  1  0  0  0  0
  8  4  1  0  0  0  0
  9 10  1  0  0  0  0
 10 11  1  0  0  0  0
 11 16  1  0  0  0  0
 12 15  1  0  0  0  0
 13 15  1  0  0  0  0
 13 18  1  0  0  0  0
 14 16  2  0  0  0  0
 15 14  1  0  0  0  0
 18 16  1  0  0  0  0
 19 21  1  0  0  0  0
 19 17  1  0  0  0  0
 20 19  2  3  0  0  0
 20 14  1  0  0  0  0
 21 11  2  3  0  0  0
 21 17  1  0  0  0  0
 22 10  2  0  0  0  0
 22 18  1  0  0  0  0
 23 25  1  0  0  0  0
 24 26  1  0  0  0  0
 25 24  2  0  0  0  0
 26 28  1  0  0  0  0
 28 27  2  0  0  0  0
 28 29  1  0  0  0  0
 29 32  1  0  0  0  0
 30 31  1  0  0  0  0
 32 30  1  0  0  0  0
 32 31  1  0  0  0  0
 34 33  1  0  0  0  0
 34 35  1  0  0  0  0
 35 36  1  0  0  0  0
 36 39  1  0  0  0  0
 37 35  2  0  0  0  0
 38 41  1  0  0  0  0
 39 38  2  0  0  0  0
 41 40  1  6  0  0  0
 41 42  1  0  0  0  0
 42 43  1  0  0  0  0
M  END
>  <MODEL>
4

>  <REMARK>
 VINA RESULT:      -6.7      2.983      9.404
  Name = 
  17 active torsions:
  status: ('A' for Active; 'I' for Inactive)
    1  A    between atoms: C_2  and  C_6
    2  A    between atoms: N_3  and  C_29
    3  A    between atoms: C_4  and  C_40
    4  A    between atoms: C_5  and  C_6
    5  A    between atoms: C_5  and  N_11
    6  A    between atoms: C_10  and  C_39
    7  A    between atoms: N_11  and  C_12
    8  A    between atoms: N_13  and  C_20
    9  A    between atoms: C_19  and  C_26
   10  A    between atoms: C_20  and  C_38
   11  A    between atoms: C_22  and  N_37
   12  A    between atoms: C_26  and  C_31
   13  A    between atoms: O_27  and  C_36
   14  A    between atoms: O_27  and  C_38
   15  A    between atoms: O_28  and  C_39
   16  A    between atoms: C_29  and  C_40
   17  A    between atoms: C_31  and  C_43
                            x       y       z     vdW  Elec       q    Type
                         _______ _______ _______ _____ _____    ______ ____

>  <TORSDO>
F 17

$$$$
=
 OpenBabel10222421353D

 43 47  0  0  1  0  0  0  0  0999 V2000
  190.2310  175.8590  141.9200 N   0  0  0  0  0  0  0  0  0  0  0  0
  189.7190  176.8280  141.2180 C   0  0  0  0  0  0  0  0  0  0  0  0
  188.6970  176.8200  139.0830 O   0  0  0  0  0  0  0  0  0  0  0  0
  191.0210  176.6050  139.0470 N   0  0  0  0  0  0  0  0  0  0  0  0
  189.7690  176.7610  139.7440 C   0  0  0  0  0  0  0  0  0  0  0  0
  192.1540  177.4580  139.2730 C   0  0  0  0  0  3  0  0  0  0  0  0
  193.2340  177.0520  139.9330 C   0  0  0  0  0  2  0  0  0  0  0  0
  191.1360  175.6100  137.9920 C   0  0  0  0  0  2  0  0  0  0  0  0
  191.2480  176.2870  136.6360 C   0  0  0  0  0  2  0  0  0  0  0  0
  189.8920  176.6040  136.1020 C   0  0  0  0  0  0  0  0  0  0  0  0
  188.9100  175.6650  135.8020 C   0  0  0  0  0  0  0  0  0  0  0  0
  184.7980  177.5220  137.3640 C   0  0  0  0  0  1  0  0  0  0  0  0
  186.9450  178.4300  136.2710 C   0  0  0  0  0  2  0  0  0  0  0  0
  186.5390  176.1320  136.1150 C   0  0  0  0  0  0  0  0  0  0  0  0
  185.9340  177.3750  136.4690 N   0  0  0  0  0  0  0  0  0  0  0  0
  187.8130  176.4390  135.5700 C   0  0  0  0  0  0  0  0  0  0  0  0
  187.8560  173.4600  135.3600 C   0  0  0  0  0  2  0  0  0  0  0  0
  188.0960  177.7260  135.7030 N   0  0  0  0  0  0  0  0  0  0  0  0
  187.3670  173.8400  136.7480 C   0  0  0  0  0  0  0  0  0  0  0  0
  186.3250  174.9620  136.7330 C   0  0  0  0  0  3  0  0  0  0  0  0
  188.7990  174.2340  136.2780 C   0  0  0  0  0  0  0  0  0  0  0  0
  189.3590  177.8530  136.0830 N   0  0  0  0  0  0  0  0  0  0  0  0
  189.0450  177.9960  141.8800 C   0  0  0  0  0  2  0  0  0  0  0  0
  186.6850  177.9650  142.5270 N   0  0  0  0  0  0  0  0  0  0  0  0
  187.8840  177.5330  142.7100 C   0  0  0  0  0  3  0  0  0  0  0  0
  186.3490  178.9330  141.5100 C   0  0  0  0  0  2  0  0  0  0  0  0
  184.3670  179.4930  140.3210 O   0  0  0  0  0  0  0  0  0  0  0  0
  184.8700  179.0350  141.3830 C   0  0  0  0  0  0  0  0  0  0  0  0
  184.0600  178.6420  142.4490 O   0  0  0  0  0  0  0  0  0  0  0  0
  184.3900  179.0700  144.7850 C   0  0  0  0  0  2  0  0  0  0  0  0
  182.9210  178.7870  144.5500 C   0  0  0  0  0  2  0  0  0  0  0  0
  183.7250  179.5340  143.5060 C   0  0  0  0  0  3  0  0  0  0  0  0
  190.2300  175.8020  143.3770 C   0  0  0  0  0  2  0  0  0  0  0  0
  191.6330  176.0240  143.9160 C   0  0  0  0  0  2  0  0  0  0  0  0
  191.7600  177.4190  144.4360 C   0  0  0  0  0  0  0  0  0  0  0  0
  191.6320  177.6980  145.8310 N   0  0  0  0  0  2  0  0  0  0  0  0
  192.0080  178.3590  143.6370 O   0  0  0  0  0  0  0  0  0  0  0  0
  190.1080  176.7720  147.4550 C   0  0  0  0  0  3  0  0  0  0  0  0
  191.2550  176.7010  146.7830 C   0  0  0  0  0  3  0  0  0  0  0  0
  187.9330  177.4070  146.5140 C   0  0  0  0  0  1  0  0  0  0  0  0
  189.1390  177.8990  147.2920 C   0  0  1  0  0  3  0  0  0  0  0  0
  188.7260  178.3450  148.5490 O   0  0  0  0  0  0  0  0  0  0  0  0
  187.7730  177.5080  148.9070 O   0  0  0  0  0  1  0  0  0  0  0  0
  1 33  1  0  0  0  0
  2 23  1  0  0  0  0
  2  1  2  0  0  0  0
  3  5  2  0  0  0  0
  4  6  1  0  0  0  0
  4  5  1  0  0  0  0
  5  2  1  0  0  0  0
  6  7  2  0  0  0  0
  8  4  1  0  0  0  0
  9  8  1  0  0  0  0
 10  9  1  0  0  0  0
 11 10  1  0  0  0  0
 11 21  1  0  0  0  0
 13 15  1  0  0  0  0
 14 15  1  0  0  0  0
 14 20  2  0  0  0  0
 15 12  1  0  0  0  0
 16 18  1  0  0  0  0
 16 11  2  0  0  0  0
 16 14  1  0  0  0  0
 17 21  1  0  0  0  0
 17 19  1  0  0  0  0
 18 22  1  0  0  0  0
 18 13  1  0  0  0  0
 20 19  1  0  0  0  0
 21 19  2  0  0  0  0
 22 10  2  0  0  0  0
 23 25  1  0  0  0  0
 24 25  2  0  0  0  0
 26 24  1  0  0  0  0
 27 28  2  0  0  0  0
 28 26  1  0  0  0  0
 28 29  1  0  0  0  0
 29 32  1  0  0  0  0
 31 30  1  0  0  0  0
 32 31  1  0  0  0  0
 32 30  1  0  0  0  0
 33 34  1  0  0  0  0
 34 35  1  0  0  0  0
 35 36  1  0  0  0  0
 36 39  1  0  0  0  0
 37 35  2  0  0  0  0
 39 38  2  0  0  0  0
 41 40  1  6  0  0  0
 41 38  1  0  0  0  0
 41 42  1  0  0  0  0
 42 43  1  0  0  0  0
M  END
>  <MODEL>
5

>  <REMARK>
 VINA RESULT:      -6.7      3.100      8.828
  Name = 
  17 active torsions:
  status: ('A' for Active; 'I' for Inactive)
    1  A    between atoms: C_2  and  C_6
    2  A    between atoms: N_3  and  C_29
    3  A    between atoms: C_4  and  C_40
    4  A    between atoms: C_5  and  C_6
    5  A    between atoms: C_5  and  N_11
    6  A    between atoms: C_10  and  C_39
    7  A    between atoms: N_11  and  C_12
    8  A    between atoms: N_13  and  C_20
    9  A    between atoms: C_19  and  C_26
   10  A    between atoms: C_20  and  C_38
   11  A    between atoms: C_22  and  N_37
   12  A    between atoms: C_26  and  C_31
   13  A    between atoms: O_27  and  C_36
   14  A    between atoms: O_27  and  C_38
   15  A    between atoms: O_28  and  C_39
   16  A    between atoms: C_29  and  C_40
   17  A    between atoms: C_31  and  C_43
                            x       y       z     vdW  Elec       q    Type
                         _______ _______ _______ _____ _____    ______ ____

>  <TORSDO>
F 17

$$$$
=
 OpenBabel10222421353D

 43 47  0  0  1  0  0  0  0  0999 V2000
  184.7430  177.1260  138.2200 N   0  0  0  0  0  0  0  0  0  0  0  0
  183.9550  178.1610  138.2640 C   0  0  0  0  0  0  0  0  0  0  0  0
  184.4150  180.4010  138.8740 O   0  0  0  0  0  0  0  0  0  0  0  0
  184.2300  178.9240  140.6720 N   0  0  0  0  0  0  0  0  0  0  0  0
  184.2030  179.2200  139.2620 C   0  0  0  0  0  0  0  0  0  0  0  0
  183.1740  178.2220  141.3450 C   0  0  0  0  0  3  0  0  0  0  0  0
  181.9680  178.7480  141.5280 C   0  0  0  0  0  2  0  0  0  0  0  0
  185.3190  179.4330  141.4920 C   0  0  0  0  0  2  0  0  0  0  0  0
  186.5050  178.4840  141.4450 C   0  0  0  0  0  2  0  0  0  0  0  0
  186.6860  177.8160  142.7660 C   0  0  0  0  0  0  0  0  0  0  0  0
  187.8370  177.1500  143.1770 C   0  0  0  0  0  0  0  0  0  0  0  0
  188.5110  178.3830  147.7400 C   0  0  0  0  0  1  0  0  0  0  0  0
  186.4820  177.9000  146.2300 C   0  0  0  0  0  2  0  0  0  0  0  0
  188.5760  177.1600  145.4990 C   0  0  0  0  0  0  0  0  0  0  0  0
  187.8830  177.6820  146.6320 N   0  0  0  0  0  0  0  0  0  0  0  0
  187.5980  176.9200  144.4980 C   0  0  0  0  0  0  0  0  0  0  0  0
  190.0590  176.0490  143.0470 C   0  0  0  0  0  2  0  0  0  0  0  0
  186.4130  177.3880  144.8610 N   0  0  0  0  0  0  0  0  0  0  0  0
  190.3390  177.3850  143.7150 C   0  0  0  0  0  0  0  0  0  0  0  0
  189.8400  177.4520  145.1620 C   0  0  0  0  0  3  0  0  0  0  0  0
  189.2380  177.2630  142.6200 C   0  0  0  0  0  0  0  0  0  0  0  0
  185.8520  177.9930  143.8240 N   0  0  0  0  0  0  0  0  0  0  0  0
  182.8190  178.3160  137.2920 C   0  0  0  0  0  2  0  0  0  0  0  0
  180.6520  179.2650  137.9190 N   0  0  0  0  0  0  0  0  0  0  0  0
  181.5040  178.3040  138.0140 C   0  0  0  0  0  3  0  0  0  0  0  0
  180.8850  180.4390  137.1130 C   0  0  0  0  0  2  0  0  0  0  0  0
  180.5780  181.6660  139.1280 O   0  0  0  0  0  0  0  0  0  0  0  0
  180.4830  181.6560  137.8700 C   0  0  0  0  0  0  0  0  0  0  0  0
  179.9850  182.7610  137.1790 O   0  0  0  0  0  0  0  0  0  0  0  0
  180.7600  184.8760  136.3570 C   0  0  0  0  0  2  0  0  0  0  0  0
  181.7750  184.3420  137.3460 C   0  0  0  0  0  2  0  0  0  0  0  0
  180.2970  184.0930  137.5680 C   0  0  0  0  0  3  0  0  0  0  0  0
  184.6120  176.0250  137.2730 C   0  0  0  0  0  2  0  0  0  0  0  0
  185.9400  175.3030  137.1150 C   0  0  0  0  0  2  0  0  0  0  0  0
  186.7790  176.0060  136.0980 C   0  0  0  0  0  0  0  0  0  0  0  0
  188.1440  175.6400  135.8900 N   0  0  0  0  0  2  0  0  0  0  0  0
  186.2700  176.9190  135.3980 O   0  0  0  0  0  0  0  0  0  0  0  0
  189.6660  175.0550  137.6680 C   0  0  0  0  0  3  0  0  0  0  0  0
  188.8170  174.6830  136.7120 C   0  0  0  0  0  3  0  0  0  0  0  0
  190.6690  176.5830  139.3040 C   0  0  0  0  0  1  0  0  0  0  0  0
  190.0030  176.4850  137.9440 C   0  0  1  0  0  3  0  0  0  0  0  0
  190.8820  176.9540  136.9660 O   0  0  0  0  0  0  0  0  0  0  0  0
  192.0260  176.3520  137.2240 O   0  0  0  0  0  1  0  0  0  0  0  0
  1  2  2  0  0  0  0
  2  5  1  0  0  0  0
  3  5  2  0  0  0  0
  4  6  1  0  0  0  0
  4  8  1  0  0  0  0
  5  4  1  0  0  0  0
  6  7  2  0  0  0  0
  9  8  1  0  0  0  0
  9 10  1  0  0  0  0
 10 11  1  0  0  0  0
 10 22  2  0  0  0  0
 11 16  1  0  0  0  0
 13 15  1  0  0  0  0
 14 15  1  0  0  0  0
 15 12  1  0  0  0  0
 16 18  1  0  0  0  0
 16 14  2  0  0  0  0
 17 19  1  0  0  0  0
 18 13  1  0  0  0  0
 19 20  2  3  0  0  0
 20 14  1  0  0  0  0
 21 17  1  0  0  0  0
 21 11  2  3  0  0  0
 21 19  1  0  0  0  0
 22 18  1  0  0  0  0
 23 25  1  0  0  0  0
 23  2  1  0  0  0  0
 24 25  2  0  0  0  0
 26 28  1  0  0  0  0
 26 24  1  0  0  0  0
 28 27  2  0  0  0  0
 29 32  1  0  0  0  0
 29 28  1  0  0  0  0
 30 31  1  0  0  0  0
 30 32  1  0  0  0  0
 31 32  1  0  0  0  0
 33  1  1  0  0  0  0
 34 33  1  0  0  0  0
 35 34  1  0  0  0  0
 36 35  1  0  0  0  0
 36 39  1  0  0  0  0
 37 35  2  0  0  0  0
 38 41  1  0  0  0  0
 39 38  2  0  0  0  0
 41 40  1  1  0  0  0
 42 43  1  0  0  0  0
 42 41  1  0  0  0  0
M  END
>  <MODEL>
6

>  <REMARK>
 VINA RESULT:      -6.6      2.523      4.247
  Name = 
  17 active torsions:
  status: ('A' for Active; 'I' for Inactive)
    1  A    between atoms: C_2  and  C_6
    2  A    between atoms: N_3  and  C_29
    3  A    between atoms: C_4  and  C_40
    4  A    between atoms: C_5  and  C_6
    5  A    between atoms: C_5  and  N_11
    6  A    between atoms: C_10  and  C_39
    7  A    between atoms: N_11  and  C_12
    8  A    between atoms: N_13  and  C_20
    9  A    between atoms: C_19  and  C_26
   10  A    between atoms: C_20  and  C_38
   11  A    between atoms: C_22  and  N_37
   12  A    between atoms: C_26  and  C_31
   13  A    between atoms: O_27  and  C_36
   14  A    between atoms: O_27  and  C_38
   15  A    between atoms: O_28  and  C_39
   16  A    between atoms: C_29  and  C_40
   17  A    between atoms: C_31  and  C_43
                            x       y       z     vdW  Elec       q    Type
                         _______ _______ _______ _____ _____    ______ ____

>  <TORSDO>
F 17

$$$$
=
 OpenBabel10222421353D

 43 47  0  0  1  0  0  0  0  0999 V2000
  191.8640  176.3660  137.2630 N   0  0  0  0  0  0  0  0  0  0  0  0
  190.7460  175.9660  137.7960 C   0  0  0  0  0  0  0  0  0  0  0  0
  190.7330  176.2240  140.1490 O   0  0  0  0  0  0  0  0  0  0  0  0
  189.2590  177.6310  139.0110 N   0  0  0  0  0  0  0  0  0  0  0  0
  190.2670  176.6020  139.0400 C   0  0  0  0  0  0  0  0  0  0  0  0
  189.3580  178.8000  138.1830 C   0  0  0  0  0  3  0  0  0  0  0  0
  188.6200  178.9670  137.0900 C   0  0  0  0  0  2  0  0  0  0  0  0
  188.1280  177.5550  139.9230 C   0  0  0  0  0  2  0  0  0  0  0  0
  188.3340  178.4950  141.1000 C   0  0  0  0  0  2  0  0  0  0  0  0
  188.0170  177.7980  142.3800 C   0  0  0  0  0  0  0  0  0  0  0  0
  188.9560  177.2500  143.2480 C   0  0  0  0  0  0  0  0  0  0  0  0
  187.4820  178.3600  147.6510 C   0  0  0  0  0  1  0  0  0  0  0  0
  186.3570  177.7140  145.4270 C   0  0  0  0  0  2  0  0  0  0  0  0
  188.6360  177.2470  145.6630 C   0  0  0  0  0  0  0  0  0  0  0  0
  187.4710  177.6390  146.3890 N   0  0  0  0  0  0  0  0  0  0  0  0
  188.2100  176.9400  144.3440 C   0  0  0  0  0  0  0  0  0  0  0  0
  191.1390  176.4130  144.0870 C   0  0  0  0  0  2  0  0  0  0  0  0
  186.9360  177.2550  144.1640 N   0  0  0  0  0  0  0  0  0  0  0  0
  190.9470  177.7430  144.7970 C   0  0  0  0  0  0  0  0  0  0  0  0
  189.8790  177.6930  145.8930 C   0  0  0  0  0  3  0  0  0  0  0  0
  190.4370  177.5430  143.3390 C   0  0  0  0  0  0  0  0  0  0  0  0
  186.7990  177.8350  142.9810 N   0  0  0  0  0  0  0  0  0  0  0  0
  189.9150  174.8950  137.1490 C   0  0  0  0  0  2  0  0  0  0  0  0
  187.8730  175.6090  136.0030 N   0  0  0  0  0  0  0  0  0  0  0  0
  189.1510  175.4530  135.9840 C   0  0  0  0  0  3  0  0  0  0  0  0
  187.0600  175.2620  137.1440 C   0  0  0  0  0  2  0  0  0  0  0  0
  185.6550  177.1730  136.9640 O   0  0  0  0  0  0  0  0  0  0  0  0
  185.7280  175.9150  137.0290 C   0  0  0  0  0  0  0  0  0  0  0  0
  184.5760  175.1280  137.0180 O   0  0  0  0  0  0  0  0  0  0  0  0
  183.2690  173.1290  136.8050 C   0  0  0  0  0  2  0  0  0  0  0  0
  184.5600  172.7880  137.5200 C   0  0  0  0  0  2  0  0  0  0  0  0
  184.5550  173.8350  136.4260 C   0  0  0  0  0  3  0  0  0  0  0  0
  192.4330  175.8290  136.0320 C   0  0  0  0  0  2  0  0  0  0  0  0
  193.9470  175.7640  136.1350 C   0  0  0  0  0  2  0  0  0  0  0  0
  194.3700  174.3790  136.5040 C   0  0  0  0  0  0  0  0  0  0  0  0
  195.7400  173.9820  136.4280 N   0  0  0  0  0  2  0  0  0  0  0  0
  193.5090  173.5560  136.9110 O   0  0  0  0  0  0  0  0  0  0  0  0
  197.9110  175.0290  136.5150 C   0  0  0  0  0  3  0  0  0  0  0  0
  196.7560  174.8280  135.8850 C   0  0  0  0  0  3  0  0  0  0  0  0
  199.5390  173.6560  137.7330 C   0  0  0  0  0  1  0  0  0  0  0  0
  198.2300  174.4150  137.8410 C   0  0  1  0  0  3  0  0  0  0  0  0
  198.3600  175.4210  138.8010 O   0  0  0  0  0  0  0  0  0  0  0  0
  199.6120  175.3440  139.2030 O   0  0  0  0  0  1  0  0  0  0  0  0
  1  2  2  0  0  0  0
  2  5  1  0  0  0  0
  4  5  1  0  0  0  0
  4  8  1  0  0  0  0
  5  3  2  0  0  0  0
  6  4  1  0  0  0  0
  7  6  2  0  0  0  0
  8  9  1  0  0  0  0
  9 10  1  0  0  0  0
 10 22  2  0  0  0  0
 10 11  1  0  0  0  0
 11 21  2  3  0  0  0
 11 16  1  0  0  0  0
 13 15  1  0  0  0  0
 14 20  1  0  0  0  0
 14 15  1  0  0  0  0
 15 12  1  0  0  0  0
 16 14  2  0  0  0  0
 17 19  1  0  0  0  0
 18 16  1  0  0  0  0
 18 13  1  0  0  0  0
 19 20  2  3  0  0  0
 21 17  1  0  0  0  0
 21 19  1  0  0  0  0
 22 18  1  0  0  0  0
 23  2  1  0  0  0  0
 24 26  1  0  0  0  0
 25 24  2  0  0  0  0
 25 23  1  0  0  0  0
 27 28  2  0  0  0  0
 28 26  1  0  0  0  0
 29 28  1  0  0  0  0
 30 31  1  0  0  0  0
 32 30  1  0  0  0  0
 32 29  1  0  0  0  0
 32 31  1  0  0  0  0
 33 34  1  0  0  0  0
 33  1  1  0  0  0  0
 34 35  1  0  0  0  0
 35 37  2  0  0  0  0
 36 35  1  0  0  0  0
 38 41  1  0  0  0  0
 39 36  1  0  0  0  0
 39 38  2  0  0  0  0
 41 40  1  6  0  0  0
 41 42  1  0  0  0  0
 42 43  1  0  0  0  0
M  END
>  <MODEL>
7

>  <REMARK>
 VINA RESULT:      -6.5      4.274      5.963
  Name = 
  17 active torsions:
  status: ('A' for Active; 'I' for Inactive)
    1  A    between atoms: C_2  and  C_6
    2  A    between atoms: N_3  and  C_29
    3  A    between atoms: C_4  and  C_40
    4  A    between atoms: C_5  and  C_6
    5  A    between atoms: C_5  and  N_11
    6  A    between atoms: C_10  and  C_39
    7  A    between atoms: N_11  and  C_12
    8  A    between atoms: N_13  and  C_20
    9  A    between atoms: C_19  and  C_26
   10  A    between atoms: C_20  and  C_38
   11  A    between atoms: C_22  and  N_37
   12  A    between atoms: C_26  and  C_31
   13  A    between atoms: O_27  and  C_36
   14  A    between atoms: O_27  and  C_38
   15  A    between atoms: O_28  and  C_39
   16  A    between atoms: C_29  and  C_40
   17  A    between atoms: C_31  and  C_43
                            x       y       z     vdW  Elec       q    Type
                         _______ _______ _______ _____ _____    ______ ____

>  <TORSDO>
F 17

$$$$
=
 OpenBabel10222421353D

 43 47  0  0  1  0  0  0  0  0999 V2000
  187.3360  178.4380  140.0440 N   0  0  0  0  0  0  0  0  0  0  0  0
  188.6340  178.3550  139.9800 C   0  0  0  0  0  0  0  0  0  0  0  0
  189.2500  179.4960  138.0000 O   0  0  0  0  0  0  0  0  0  0  0  0
  189.9900  177.2860  138.1160 N   0  0  0  0  0  0  0  0  0  0  0  0
  189.3010  178.4260  138.6650 C   0  0  0  0  0  0  0  0  0  0  0  0
  190.9930  176.5550  138.8390 C   0  0  0  0  0  3  0  0  0  0  0  0
  192.2380  176.4180  138.3960 C   0  0  0  0  0  2  0  0  0  0  0  0
  189.7490  176.8970  136.7350 C   0  0  0  0  0  2  0  0  0  0  0  0
  189.1340  175.5090  136.6770 C   0  0  0  0  0  2  0  0  0  0  0  0
  187.6730  175.6020  136.3910 C   0  0  0  0  0  0  0  0  0  0  0  0
  186.8190  174.5170  136.2190 C   0  0  0  0  0  0  0  0  0  0  0  0
  182.7900  175.6390  138.5230 C   0  0  0  0  0  1  0  0  0  0  0  0
  184.5420  176.9080  137.1260 C   0  0  0  0  0  2  0  0  0  0  0  0
  184.4930  174.5770  136.9430 C   0  0  0  0  0  0  0  0  0  0  0  0
  183.7650  175.6970  137.4460 N   0  0  0  0  0  0  0  0  0  0  0  0
  185.5880  175.1010  136.2060 C   0  0  0  0  0  0  0  0  0  0  0  0
  186.0770  172.1730  135.8660 C   0  0  0  0  0  2  0  0  0  0  0  0
  185.6770  176.4140  136.3450 N   0  0  0  0  0  0  0  0  0  0  0  0
  185.7780  172.4470  137.3310 C   0  0  0  0  0  0  0  0  0  0  0  0
  184.5810  173.3790  137.5380 C   0  0  0  0  0  3  0  0  0  0  0  0
  187.0240  173.0810  136.6450 C   0  0  0  0  0  0  0  0  0  0  0  0
  186.9490  176.7450  136.5140 N   0  0  0  0  0  0  0  0  0  0  0  0
  189.4670  178.2260  141.2230 C   0  0  0  0  0  2  0  0  0  0  0  0
  190.2160  176.4120  142.6860 N   0  0  0  0  0  0  0  0  0  0  0  0
  189.4930  176.8010  141.6930 C   0  0  0  0  0  3  0  0  0  0  0  0
  191.0640  177.3080  143.4340 C   0  0  0  0  0  2  0  0  0  0  0  0
  191.9910  175.4110  144.5290 O   0  0  0  0  0  0  0  0  0  0  0  0
  191.6030  176.6070  144.6310 C   0  0  0  0  0  0  0  0  0  0  0  0
  191.6520  177.2760  145.8550 O   0  0  0  0  0  0  0  0  0  0  0  0
  189.4450  176.5460  146.4440 C   0  0  0  0  0  2  0  0  0  0  0  0
  189.6970  177.8920  147.0900 C   0  0  0  0  0  2  0  0  0  0  0  0
  190.8290  176.8960  146.9510 C   0  0  0  0  0  3  0  0  0  0  0  0
  186.5640  178.3970  141.2800 C   0  0  0  0  0  2  0  0  0  0  0  0
  185.2610  179.1610  141.1140 C   0  0  0  0  0  2  0  0  0  0  0  0
  184.1580  178.4380  141.8180 C   0  0  0  0  0  0  0  0  0  0  0  0
  183.7530  178.8160  143.1350 N   0  0  0  0  0  2  0  0  0  0  0  0
  183.5610  177.4980  141.2330 O   0  0  0  0  0  0  0  0  0  0  0  0
  185.2330  179.4780  144.9210 C   0  0  0  0  0  3  0  0  0  0  0  0
  184.4460  179.8060  143.8980 C   0  0  0  0  0  3  0  0  0  0  0  0
  186.6350  177.4840  144.6470 C   0  0  0  0  0  1  0  0  0  0  0  0
  185.4350  178.0670  145.3700 C   0  0  1  0  0  3  0  0  0  0  0  0
  185.6700  178.0440  146.7460 O   0  0  0  0  0  0  0  0  0  0  0  0
  185.6080  179.3060  147.1200 O   0  0  0  0  0  1  0  0  0  0  0  0
  1 33  1  0  0  0  0
  2  1  2  0  0  0  0
  2 23  1  0  0  0  0
  3  5  2  0  0  0  0
  4  5  1  0  0  0  0
  4  6  1  0  0  0  0
  5  2  1  0  0  0  0
  7  6  2  0  0  0  0
  8  4  1  0  0  0  0
  9  8  1  0  0  0  0
 10 22  2  0  0  0  0
 10  9  1  0  0  0  0
 11 10  1  0  0  0  0
 11 21  1  0  0  0  0
 13 15  1  0  0  0  0
 14 15  1  0  0  0  0
 14 20  2  0  0  0  0
 15 12  1  0  0  0  0
 16 11  2  0  0  0  0
 16 18  1  0  0  0  0
 16 14  1  0  0  0  0
 17 21  1  0  0  0  0
 17 19  1  0  0  0  0
 18 22  1  0  0  0  0
 18 13  1  0  0  0  0
 19 20  1  0  0  0  0
 21 19  2  0  0  0  0
 23 25  1  0  0  0  0
 24 26  1  0  0  0  0
 25 24  2  0  0  0  0
 26 28  1  0  0  0  0
 27 28  2  0  0  0  0
 28 29  1  0  0  0  0
 29 32  1  0  0  0  0
 30 32  1  0  0  0  0
 30 31  1  0  0  0  0
 32 31  1  0  0  0  0
 34 33  1  0  0  0  0
 34 35  1  0  0  0  0
 35 36  1  0  0  0  0
 36 39  1  0  0  0  0
 37 35  2  0  0  0  0
 38 41  1  0  0  0  0
 39 38  2  0  0  0  0
 41 40  1  6  0  0  0
 41 42  1  0  0  0  0
 42 43  1  0  0  0  0
M  END
>  <MODEL>
8

>  <REMARK>
 VINA RESULT:      -6.5      3.024      9.191
  Name = 
  17 active torsions:
  status: ('A' for Active; 'I' for Inactive)
    1  A    between atoms: C_2  and  C_6
    2  A    between atoms: N_3  and  C_29
    3  A    between atoms: C_4  and  C_40
    4  A    between atoms: C_5  and  C_6
    5  A    between atoms: C_5  and  N_11
    6  A    between atoms: C_10  and  C_39
    7  A    between atoms: N_11  and  C_12
    8  A    between atoms: N_13  and  C_20
    9  A    between atoms: C_19  and  C_26
   10  A    between atoms: C_20  and  C_38
   11  A    between atoms: C_22  and  N_37
   12  A    between atoms: C_26  and  C_31
   13  A    between atoms: O_27  and  C_36
   14  A    between atoms: O_27  and  C_38
   15  A    between atoms: O_28  and  C_39
   16  A    between atoms: C_29  and  C_40
   17  A    between atoms: C_31  and  C_43
                            x       y       z     vdW  Elec       q    Type
                         _______ _______ _______ _____ _____    ______ ____

>  <TORSDO>
F 17

$$$$
=
 OpenBabel10222421353D

 43 47  0  0  1  0  0  0  0  0999 V2000
  189.8750  174.8060  137.5770 N   0  0  0  0  0  0  0  0  0  0  0  0
  190.5650  175.8150  138.0270 C   0  0  0  0  0  0  0  0  0  0  0  0
  190.4940  176.2020  140.3600 O   0  0  0  0  0  0  0  0  0  0  0  0
  189.1500  177.6330  139.0990 N   0  0  0  0  0  0  0  0  0  0  0  0
  190.0890  176.5470  139.2170 C   0  0  0  0  0  0  0  0  0  0  0  0
  189.3490  178.7470  138.2140 C   0  0  0  0  0  3  0  0  0  0  0  0
  188.7180  178.8570  137.0490 C   0  0  0  0  0  2  0  0  0  0  0  0
  187.9880  177.6780  139.9740 C   0  0  0  0  0  2  0  0  0  0  0  0
  188.2610  178.5760  141.1690 C   0  0  0  0  0  2  0  0  0  0  0  0
  187.9790  177.8470  142.4390 C   0  0  0  0  0  0  0  0  0  0  0  0
  188.9430  177.3060  143.2830 C   0  0  0  0  0  0  0  0  0  0  0  0
  187.5040  178.2940  147.7270 C   0  0  0  0  0  1  0  0  0  0  0  0
  186.3640  177.6630  145.5060 C   0  0  0  0  0  2  0  0  0  0  0  0
  188.6570  177.2480  145.7020 C   0  0  0  0  0  0  0  0  0  0  0  0
  187.4930  177.5970  146.4510 N   0  0  0  0  0  0  0  0  0  0  0  0
  188.2200  176.9560  144.3830 C   0  0  0  0  0  0  0  0  0  0  0  0
  191.1580  176.5070  144.0760 C   0  0  0  0  0  2  0  0  0  0  0  0
  186.9370  177.2430  144.2270 N   0  0  0  0  0  0  0  0  0  0  0  0
  190.9430  177.8180  144.8140 C   0  0  0  0  0  0  0  0  0  0  0  0
  189.8920  177.7200  145.9240 C   0  0  0  0  0  3  0  0  0  0  0  0
  190.4180  177.6340  143.3600 C   0  0  0  0  0  0  0  0  0  0  0  0
  186.7690  177.8430  143.0570 N   0  0  0  0  0  0  0  0  0  0  0  0
  191.8560  176.2250  137.3770 C   0  0  0  0  0  2  0  0  0  0  0  0
  193.9560  175.8550  138.5780 N   0  0  0  0  0  0  0  0  0  0  0  0
  192.8870  176.5540  138.4160 C   0  0  0  0  0  3  0  0  0  0  0  0
  194.2590  174.6930  137.7780 C   0  0  0  0  0  2  0  0  0  0  0  0
  195.7630  173.5490  139.2220 O   0  0  0  0  0  0  0  0  0  0  0  0
  195.6060  174.1730  138.1370 C   0  0  0  0  0  0  0  0  0  0  0  0
  196.6820  174.4030  137.2790 O   0  0  0  0  0  0  0  0  0  0  0  0
  197.7940  174.3470  135.1560 C   0  0  0  0  0  2  0  0  0  0  0  0
  197.3860  175.7760  135.4490 C   0  0  0  0  0  2  0  0  0  0  0  0
  196.4980  174.6300  135.8870 C   0  0  0  0  0  3  0  0  0  0  0  0
  190.2470  173.9970  136.4230 C   0  0  0  0  0  2  0  0  0  0  0  0
  189.0080  173.5790  135.6490 C   0  0  0  0  0  2  0  0  0  0  0  0
  187.8900  173.2980  136.5990 C   0  0  0  0  0  0  0  0  0  0  0  0
  186.7910  174.2010  136.7300 N   0  0  0  0  0  2  0  0  0  0  0  0
  187.9040  172.2380  137.2770 O   0  0  0  0  0  0  0  0  0  0  0  0
  185.7980  176.3610  136.3200 C   0  0  0  0  0  3  0  0  0  0  0  0
  186.7530  175.4670  136.0690 C   0  0  0  0  0  3  0  0  0  0  0  0
  184.2700  177.4230  137.9170 C   0  0  0  0  0  1  0  0  0  0  0  0
  184.6830  176.1090  137.2830 C   0  0  1  0  0  3  0  0  0  0  0  0
  183.5920  175.5620  136.6030 O   0  0  0  0  0  0  0  0  0  0  0  0
  183.3390  176.4160  135.6320 O   0  0  0  0  0  1  0  0  0  0  0  0
  1  2  2  0  0  0  0
  2  5  1  0  0  0  0
  4  5  1  0  0  0  0
  4  8  1  0  0  0  0
  5  3  2  0  0  0  0
  6  4  1  0  0  0  0
  7  6  2  0  0  0  0
  8  9  1  0  0  0  0
  9 10  1  0  0  0  0
 10 22  2  0  0  0  0
 10 11  1  0  0  0  0
 11 21  2  3  0  0  0
 11 16  1  0  0  0  0
 13 15  1  0  0  0  0
 14 20  1  0  0  0  0
 14 15  1  0  0  0  0
 15 12  1  0  0  0  0
 16 14  2  0  0  0  0
 17 19  1  0  0  0  0
 18 16  1  0  0  0  0
 18 13  1  0  0  0  0
 19 20  2  3  0  0  0
 21 17  1  0  0  0  0
 21 19  1  0  0  0  0
 22 18  1  0  0  0  0
 23  2  1  0  0  0  0
 23 25  1  0  0  0  0
 25 24  2  0  0  0  0
 26 28  1  0  0  0  0
 26 24  1  0  0  0  0
 28 27  2  0  0  0  0
 29 28  1  0  0  0  0
 30 31  1  0  0  0  0
 30 32  1  0  0  0  0
 31 32  1  0  0  0  0
 32 29  1  0  0  0  0
 33  1  1  0  0  0  0
 34 33  1  0  0  0  0
 34 35  1  0  0  0  0
 35 36  1  0  0  0  0
 35 37  2  0  0  0  0
 38 41  1  0  0  0  0
 39 38  2  0  0  0  0
 39 36  1  0  0  0  0
 41 40  1  6  0  0  0
 42 41  1  0  0  0  0
 43 42  1  0  0  0  0
M  END
>  <MODEL>
9

>  <REMARK>
 VINA RESULT:      -6.5      3.631      7.522
  Name = 
  17 active torsions:
  status: ('A' for Active; 'I' for Inactive)
    1  A    between atoms: C_2  and  C_6
    2  A    between atoms: N_3  and  C_29
    3  A    between atoms: C_4  and  C_40
    4  A    between atoms: C_5  and  C_6
    5  A    between atoms: C_5  and  N_11
    6  A    between atoms: C_10  and  C_39
    7  A    between atoms: N_11  and  C_12
    8  A    between atoms: N_13  and  C_20
    9  A    between atoms: C_19  and  C_26
   10  A    between atoms: C_20  and  C_38
   11  A    between atoms: C_22  and  N_37
   12  A    between atoms: C_26  and  C_31
   13  A    between atoms: O_27  and  C_36
   14  A    between atoms: O_27  and  C_38
   15  A    between atoms: O_28  and  C_39
   16  A    between atoms: C_29  and  C_40
   17  A    between atoms: C_31  and  C_43
                            x       y       z     vdW  Elec       q    Type
                         _______ _______ _______ _____ _____    ______ ____

>  <TORSDO>
F 17

$$$$
