=
 OpenBabel10232410313D

 43 46  0  0  1  0  0  0  0  0999 V2000
  186.5820  177.9580  139.3900 N   0  0  0  0  0  0  0  0  0  0  0  0
  187.8460  174.8250  136.5800 C   0  0  0  0  0  2  0  0  0  0  0  0
  179.9820  178.1530  138.7180 N   0  0  0  0  0  0  0  0  0  0  0  0
  180.5180  177.0580  138.1760 N   0  0  0  0  0  0  0  0  0  0  0  0
  189.4730  178.9930  136.9440 F   0  0  0  0  0  0  0  0  0  0  0  0
  188.6970  177.3800  138.2950 C   0  0  0  0  0  2  0  0  0  0  0  0
  183.3830  179.0370  138.7490 C   0  0  0  0  0  3  0  0  0  0  0  0
  184.4400  178.2310  138.2790 C   0  0  0  0  0  0  0  0  0  0  0  0
  187.9260  176.0050  135.6290 C   0  0  0  0  0  2  0  0  0  0  0  0
  182.8550  176.4560  137.6620 C   0  0  0  0  0  3  0  0  0  0  0  0
  185.1350  174.4910  136.7620 S   0  0  0  0  0  0  0  0  0  0  0  0
  180.9230  179.0430  139.0110 N   0  0  0  0  0  0  0  0  0  0  0  0
  181.8440  177.2840  138.1330 C   0  0  0  0  0  0  0  0  0  0  0  0
  189.0680  176.9390  136.0050 C   0  0  1  0  0  3  0  0  0  0  0  0
  180.6800  180.3420  139.6150 C   0  0  0  0  0  1  0  0  0  0  0  0
  184.1280  174.3900  135.6520 O   0  0  0  0  0  0  0  0  0  0  0  0
  184.6910  173.6480  137.9250 O   0  0  0  0  0  0  0  0  0  0  0  0
  188.0020  178.2820  139.3070 C   0  0  0  0  0  2  0  0  0  0  0  0
  186.7120  173.9020  136.1560 C   0  0  2  0  0  3  0  0  0  0  0  0
  185.2740  176.1410  137.2730 N   0  0  0  0  0  2  0  0  0  0  0  0
  184.1800  176.9400  137.7340 C   0  0  0  0  0  0  0  0  0  0  0  0
  182.0980  178.5150  138.6500 C   0  0  0  0  0  0  0  0  0  0  0  0
  185.8390  178.7440  138.4050 C   0  0  0  0  0  2  0  0  0  0  0  0
  189.5640  177.5830  134.7180 C   0  0  0  0  0  1  0  0  0  0  0  0
  188.6040  177.9530  136.9590 N   0  0  0  0  0  0  0  0  0  0  0  0
  186.1220  178.2370  140.6740 O   0  0  0  0  0  0  0  0  0  0  0  0
  186.9350  178.5880  141.7680 C   0  0  0  0  0  3  0  0  0  0  0  0
  186.9940  177.8800  142.8920 C   0  0  0  0  0  3  0  0  0  0  0  0
  188.8360  176.8840  145.7520 C   0  0  0  0  0  2  0  0  0  0  0  0
  189.3340  177.9990  143.6820 C   0  0  0  0  0  2  0  0  0  0  0  0
  187.8800  178.2960  144.0160 C   0  0  2  0  0  3  0  0  0  0  0  0
  189.7370  176.8230  144.5420 C   0  0  1  0  0  3  0  0  0  0  0  0
  191.1850  176.9510  144.9610 C   0  0  0  0  0  1  0  0  0  0  0  0
  187.5360  177.4790  145.2530 C   0  0  2  0  0  3  0  0  0  0  0  0
  186.9270  178.3550  146.3390 C   0  0  0  0  0  2  0  0  0  0  0  0
  184.5750  178.4680  146.7580 O   0  0  0  0  0  1  0  0  0  0  0  0
  185.5820  178.9160  145.9040 C   0  0  0  0  0  2  0  0  0  0  0  0
  186.9480  172.5830  136.6360 O   0  0  0  0  0  0  0  0  0  0  0  0
  186.7390  171.4490  135.8480 C   0  0  0  0  0  0  0  0  0  0  0  0
  187.7180  170.7850  135.4060 O   0  0  0  0  0  0  0  0  0  0  0  0
  185.4030  171.0520  135.5410 N   0  0  0  0  0  2  0  0  0  0  0  0
  184.0120  169.0760  135.3770 C   0  0  0  0  0  1  0  0  0  0  0  0
  185.1150  169.8830  134.7280 C   0  0  0  0  0  2  0  0  0  0  0  0
  1 26  1  0  0  0  0
  3 12  1  0  0  0  0
  4  3  2  0  0  0  0
  5 25  1  0  0  0  0
  6 18  1  0  0  0  0
  8 23  1  0  0  0  0
  8  7  2  0  0  0  0
  9 14  1  0  0  0  0
  9  2  1  0  0  0  0
 10 21  2  0  0  0  0
 10 13  1  0  0  0  0
 11 20  1  0  0  0  0
 11 17  2  0  0  0  0
 12 15  1  0  0  0  0
 13  4  1  0  0  0  0
 13 22  2  0  0  0  0
 14 24  1  6  0  0  0
 14 25  1  0  0  0  0
 16 11  2  0  0  0  0
 18  1  1  0  0  0  0
 19  2  1  0  0  0  0
 19 38  1  1  0  0  0
 19 11  1  0  0  0  0
 20 21  1  0  0  0  0
 21  8  1  0  0  0  0
 22  7  1  0  0  0  0
 22 12  1  0  0  0  0
 23  1  1  0  0  0  0
 25  6  1  0  0  0  0
 26 27  1  0  0  0  0
 27 28  2  0  0  0  0
 30 31  1  0  0  0  0
 30 32  1  0  0  0  0
 31 28  1  6  0  0  0
 31 34  1  0  0  0  0
 32 33  1  1  0  0  0
 32 29  1  0  0  0  0
 34 29  1  0  0  0  0
 34 35  1  1  0  0  0
 37 35  1  0  0  0  0
 37 36  1  0  0  0  0
 39 38  1  0  0  0  0
 40 39  2  0  0  0  0
 41 39  1  0  0  0  0
 43 42  1  0  0  0  0
 43 41  1  0  0  0  0
M  END
>  <MODEL>
1

>  <REMARK>
 VINA RESULT:      -7.3      0.000      0.000
  Name = 
  8 active torsions:
  status: ('A' for Active; 'I' for Inactive)
    1  A    between atoms: N_1  and  O_5
    2  A    between atoms: O_5  and  C_38
    3  A    between atoms: C_18  and  O_30
    4  A    between atoms: C_19  and  C_40
    5  A    between atoms: C_29  and  C_33
    6  A    between atoms: C_29  and  C_43
    7  A    between atoms: O_30  and  C_31
    8  A    between atoms: C_32  and  N_42
                            x       y       z     vdW  Elec       q    Type
                         _______ _______ _______ _____ _____    ______ ____

>  <TORSDO>
F 8

$$$$
=
 OpenBabel10232410313D

 43 46  0  0  1  0  0  0  0  0999 V2000
  187.1250  177.9980  139.2960 N   0  0  0  0  0  0  0  0  0  0  0  0
  188.2880  174.8950  136.4110 C   0  0  0  0  0  2  0  0  0  0  0  0
  180.4920  177.7790  139.3070 N   0  0  0  0  0  0  0  0  0  0  0  0
  181.0360  176.7080  138.7270 N   0  0  0  0  0  0  0  0  0  0  0  0
  189.6800  179.1610  136.5520 F   0  0  0  0  0  0  0  0  0  0  0  0
  189.1480  177.5290  137.9960 C   0  0  0  0  0  2  0  0  0  0  0  0
  183.8160  178.8680  138.9750 C   0  0  0  0  0  3  0  0  0  0  0  0
  184.8670  178.1190  138.4090 C   0  0  0  0  0  0  0  0  0  0  0  0
  188.1960  176.0600  135.4420 C   0  0  0  0  0  2  0  0  0  0  0  0
  183.3420  176.2390  137.9820 C   0  0  0  0  0  3  0  0  0  0  0  0
  185.6360  174.4010  136.8760 S   0  0  0  0  0  0  0  0  0  0  0  0
  181.4010  178.7300  139.4900 N   0  0  0  0  0  0  0  0  0  0  0  0
  182.3350  177.0140  138.5450 C   0  0  0  0  0  0  0  0  0  0  0  0
  189.3100  177.0680  135.6850 C   0  0  1  0  0  3  0  0  0  0  0  0
  181.1390  180.0220  140.1000 C   0  0  0  0  0  1  0  0  0  0  0  0
  184.5280  174.2170  135.8770 O   0  0  0  0  0  0  0  0  0  0  0  0
  185.3670  173.5550  138.0890 O   0  0  0  0  0  0  0  0  0  0  0  0
  188.5060  178.4060  139.0630 C   0  0  0  0  0  2  0  0  0  0  0  0
  187.1760  173.8970  136.1170 C   0  0  2  0  0  3  0  0  0  0  0  0
  185.7230  176.0650  137.3490 N   0  0  0  0  0  2  0  0  0  0  0  0
  184.6350  176.8050  137.9100 C   0  0  0  0  0  0  0  0  0  0  0  0
  182.5630  178.2680  139.0160 C   0  0  0  0  0  0  0  0  0  0  0  0
  186.2370  178.7190  138.3840 C   0  0  0  0  0  2  0  0  0  0  0  0
  189.6300  177.7170  134.3460 C   0  0  0  0  0  1  0  0  0  0  0  0
  188.8830  178.0690  136.6690 N   0  0  0  0  0  0  0  0  0  0  0  0
  186.7820  178.2730  140.6170 O   0  0  0  0  0  0  0  0  0  0  0  0
  187.3780  177.6840  141.7480 C   0  0  0  0  0  3  0  0  0  0  0  0
  186.7790  177.6050  142.9320 C   0  0  0  0  0  3  0  0  0  0  0  0
  189.0000  177.9960  145.6670 C   0  0  0  0  0  2  0  0  0  0  0  0
  186.7190  177.2920  145.3840 C   0  0  0  0  0  2  0  0  0  0  0  0
  187.4570  176.9630  144.0950 C   0  0  2  0  0  3  0  0  0  0  0  0
  187.5910  178.2720  146.1350 C   0  0  1  0  0  3  0  0  0  0  0  0
  187.4790  178.0380  147.6260 C   0  0  0  0  0  1  0  0  0  0  0  0
  188.8610  177.5330  144.2330 C   0  0  2  0  0  3  0  0  0  0  0  0
  189.9150  176.4760  143.9350 C   0  0  0  0  0  2  0  0  0  0  0  0
  190.4820  176.1910  141.6280 O   0  0  0  0  0  1  0  0  0  0  0  0
  190.8110  176.9020  142.7820 C   0  0  0  0  0  2  0  0  0  0  0  0
  187.5420  172.6040  136.5870 O   0  0  0  0  0  0  0  0  0  0  0  0
  187.3350  171.4460  135.8340 C   0  0  0  0  0  0  0  0  0  0  0  0
  186.1660  171.0830  135.5230 O   0  0  0  0  0  0  0  0  0  0  0  0
  188.4610  170.6720  135.4240 N   0  0  0  0  0  2  0  0  0  0  0  0
  188.4940  168.2530  135.5360 C   0  0  0  0  0  1  0  0  0  0  0  0
  188.3170  169.4580  134.6390 C   0  0  0  0  0  2  0  0  0  0  0  0
  1 26  1  0  0  0  0
  3 12  1  0  0  0  0
  4  3  2  0  0  0  0
  5 25  1  0  0  0  0
  6 18  1  0  0  0  0
  7 22  1  0  0  0  0
  8  7  2  0  0  0  0
  9 14  1  0  0  0  0
  9  2  1  0  0  0  0
 10 13  1  0  0  0  0
 11 20  1  0  0  0  0
 11 17  2  0  0  0  0
 12 15  1  0  0  0  0
 13  4  1  0  0  0  0
 13 22  2  0  0  0  0
 14 24  1  6  0  0  0
 14 25  1  0  0  0  0
 16 11  2  0  0  0  0
 18  1  1  0  0  0  0
 19  2  1  0  0  0  0
 19 38  1  1  0  0  0
 19 11  1  0  0  0  0
 20 21  1  0  0  0  0
 21 10  2  0  0  0  0
 21  8  1  0  0  0  0
 22 12  1  0  0  0  0
 23  8  1  0  0  0  0
 23  1  1  0  0  0  0
 25  6  1  0  0  0  0
 26 27  1  0  0  0  0
 27 28  2  0  0  0  0
 29 32  1  0  0  0  0
 30 32  1  0  0  0  0
 31 28  1  6  0  0  0
 31 34  1  0  0  0  0
 31 30  1  0  0  0  0
 32 33  1  1  0  0  0
 34 35  1  1  0  0  0
 34 29  1  0  0  0  0
 36 37  1  0  0  0  0
 37 35  1  0  0  0  0
 39 38  1  0  0  0  0
 40 39  2  0  0  0  0
 41 39  1  0  0  0  0
 43 41  1  0  0  0  0
 43 42  1  0  0  0  0
M  END
>  <MODEL>
2

>  <REMARK>
 VINA RESULT:      -7.2      1.548      2.298
  Name = 
  8 active torsions:
  status: ('A' for Active; 'I' for Inactive)
    1  A    between atoms: N_1  and  O_5
    2  A    between atoms: O_5  and  C_38
    3  A    between atoms: C_18  and  O_30
    4  A    between atoms: C_19  and  C_40
    5  A    between atoms: C_29  and  C_33
    6  A    between atoms: C_29  and  C_43
    7  A    between atoms: O_30  and  C_31
    8  A    between atoms: C_32  and  N_42
                            x       y       z     vdW  Elec       q    Type
                         _______ _______ _______ _____ _____    ______ ____

>  <TORSDO>
F 8

$$$$
=
 OpenBabel10232410313D

 43 46  0  0  1  0  0  0  0  0999 V2000
  188.5430  176.8290  139.5550 N   0  0  0  0  0  0  0  0  0  0  0  0
  189.7250  173.6440  136.7680 C   0  0  0  0  0  2  0  0  0  0  0  0
  182.3670  178.3870  137.6910 N   0  0  0  0  0  0  0  0  0  0  0  0
  182.7830  177.2340  137.1660 N   0  0  0  0  0  0  0  0  0  0  0  0
  192.0050  177.3740  137.7850 F   0  0  0  0  0  0  0  0  0  0  0  0
  190.6850  175.8880  138.8250 C   0  0  0  0  0  2  0  0  0  0  0  0
  185.7990  178.5620  138.4280 C   0  0  0  0  0  3  0  0  0  0  0  0
  186.7560  177.5830  138.0940 C   0  0  0  0  0  0  0  0  0  0  0  0
  190.2140  174.8280  135.9530 C   0  0  0  0  0  2  0  0  0  0  0  0
  185.0180  176.1970  137.0430 C   0  0  0  0  0  3  0  0  0  0  0  0
  187.0180  173.8580  136.4140 S   0  0  0  0  0  0  0  0  0  0  0  0
  183.3830  179.0540  138.2300 N   0  0  0  0  0  0  0  0  0  0  0  0
  184.1100  177.1890  137.3890 C   0  0  0  0  0  0  0  0  0  0  0  0
  191.4140  175.4920  136.6140 C   0  0  1  0  0  3  0  0  0  0  0  0
  183.2740  180.3440  138.8880 C   0  0  0  0  0  1  0  0  0  0  0  0
  186.2510  174.0160  135.1320 O   0  0  0  0  0  0  0  0  0  0  0  0
  186.2010  173.0670  137.3970 O   0  0  0  0  0  0  0  0  0  0  0  0
  189.9870  176.8620  139.7640 C   0  0  0  0  0  2  0  0  0  0  0  0
  188.5430  172.9910  136.0620 C   0  0  2  0  0  3  0  0  0  0  0  0
  187.3630  175.4180  137.0830 N   0  0  0  0  0  2  0  0  0  0  0  0
  186.3710  176.3990  137.4000 C   0  0  0  0  0  0  0  0  0  0  0  0
  184.4840  178.3170  138.0480 C   0  0  0  0  0  0  0  0  0  0  0  0
  188.1730  177.7960  138.5210 C   0  0  0  0  0  2  0  0  0  0  0  0
  192.2680  176.0840  135.5010 C   0  0  0  0  0  1  0  0  0  0  0  0
  190.9700  176.5320  137.5480 N   0  0  0  0  0  0  0  0  0  0  0  0
  187.8990  177.1340  140.7500 O   0  0  0  0  0  0  0  0  0  0  0  0
  188.5370  177.5690  141.9270 C   0  0  0  0  0  3  0  0  0  0  0  0
  187.9210  177.6580  143.1020 C   0  0  0  0  0  3  0  0  0  0  0  0
  189.3390  176.7830  146.2310 C   0  0  0  0  0  2  0  0  0  0  0  0
  190.1320  177.7970  144.2010 C   0  0  0  0  0  2  0  0  0  0  0  0
  188.6500  178.1200  144.3180 C   0  0  2  0  0  3  0  0  0  0  0  0
  190.3970  176.6590  145.1610 C   0  0  1  0  0  3  0  0  0  0  0  0
  191.7760  176.7960  145.7690 C   0  0  0  0  0  1  0  0  0  0  0  0
  188.1280  177.3640  145.5320 C   0  0  2  0  0  3  0  0  0  0  0  0
  187.3890  178.2940  146.4830 C   0  0  0  0  0  2  0  0  0  0  0  0
  185.2670  179.2920  146.9580 O   0  0  0  0  0  1  0  0  0  0  0  0
  185.9010  178.3350  146.1670 C   0  0  0  0  0  2  0  0  0  0  0  0
  188.4260  171.6300  136.4620 O   0  0  0  0  0  0  0  0  0  0  0  0
  188.1220  170.6070  135.5610 C   0  0  0  0  0  0  0  0  0  0  0  0
  189.0380  170.0290  134.9130 O   0  0  0  0  0  0  0  0  0  0  0  0
  186.7590  170.2260  135.3740 N   0  0  0  0  0  2  0  0  0  0  0  0
  185.0280  168.6120  134.8620 C   0  0  0  0  0  1  0  0  0  0  0  0
  186.3740  169.1710  134.4540 C   0  0  0  0  0  2  0  0  0  0  0  0
  1 18  1  0  0  0  0
  1 26  1  0  0  0  0
  3 12  1  0  0  0  0
  4 13  1  0  0  0  0
  4  3  2  0  0  0  0
  6 18  1  0  0  0  0
  8  7  1  0  0  0  0
  8 23  1  0  0  0  0
  9 14  1  0  0  0  0
  9  2  1  0  0  0  0
 10 13  2  0  0  0  0
 10 21  1  0  0  0  0
 11 20  1  0  0  0  0
 11 17  2  0  0  0  0
 12 15  1  0  0  0  0
 13 22  1  0  0  0  0
 14 24  1  6  0  0  0
 14 25  1  0  0  0  0
 16 11  2  0  0  0  0
 19 11  1  0  0  0  0
 19 38  1  1  0  0  0
 19  2  1  0  0  0  0
 20 21  1  0  0  0  0
 21  8  2  0  0  0  0
 22 12  1  0  0  0  0
 22  7  2  0  0  0  0
 23  1  1  0  0  0  0
 25  5  1  0  0  0  0
 25  6  1  0  0  0  0
 26 27  1  0  0  0  0
 27 28  2  0  0  0  0
 30 31  1  0  0  0  0
 30 32  1  0  0  0  0
 31 28  1  6  0  0  0
 31 34  1  0  0  0  0
 32 33  1  1  0  0  0
 32 29  1  0  0  0  0
 34 29  1  0  0  0  0
 34 35  1  1  0  0  0
 37 35  1  0  0  0  0
 37 36  1  0  0  0  0
 39 38  1  0  0  0  0
 40 39  2  0  0  0  0
 41 39  1  0  0  0  0
 43 42  1  0  0  0  0
 43 41  1  0  0  0  0
M  END
>  <MODEL>
3

>  <REMARK>
 VINA RESULT:      -6.8      1.800      2.067
  Name = 
  8 active torsions:
  status: ('A' for Active; 'I' for Inactive)
    1  A    between atoms: N_1  and  O_5
    2  A    between atoms: O_5  and  C_38
    3  A    between atoms: C_18  and  O_30
    4  A    between atoms: C_19  and  C_40
    5  A    between atoms: C_29  and  C_33
    6  A    between atoms: C_29  and  C_43
    7  A    between atoms: O_30  and  C_31
    8  A    between atoms: C_32  and  N_42
                            x       y       z     vdW  Elec       q    Type
                         _______ _______ _______ _____ _____    ______ ____

>  <TORSDO>
F 8

$$$$
=
 OpenBabel10232410313D

 43 46  0  0  1  0  0  0  0  0999 V2000
  189.0500  176.9690  136.5520 N   0  0  0  0  0  0  0  0  0  0  0  0
  192.5450  174.9080  134.8650 C   0  0  0  0  0  2  0  0  0  0  0  0
  190.7030  178.0080  142.8950 N   0  0  0  0  0  0  0  0  0  0  0  0
  191.7520  177.6710  142.1430 N   0  0  0  0  0  0  0  0  0  0  0  0
  188.2390  173.6690  134.5870 F   0  0  0  0  0  0  0  0  0  0  0  0
  189.4340  175.5670  134.5790 C   0  0  0  0  0  2  0  0  0  0  0  0
  189.0640  176.9090  139.9870 C   0  0  0  0  0  3  0  0  0  0  0  0
  189.7000  176.4230  138.8270 C   0  0  0  0  0  0  0  0  0  0  0  0
  191.7770  173.6810  135.3200 C   0  0  0  0  0  2  0  0  0  0  0  0
  191.9070  176.7550  139.8580 C   0  0  0  0  0  3  0  0  0  0  0  0
  193.4440  175.8730  137.2640 S   0  0  0  0  0  0  0  0  0  0  0  0
  189.5660  177.7890  142.2440 N   0  0  0  0  0  0  0  0  0  0  0  0
  191.2390  177.2240  140.9820 C   0  0  0  0  0  0  0  0  0  0  0  0
  190.5230  173.4740  134.4810 C   0  0  1  0  0  3  0  0  0  0  0  0
  188.2400  178.0510  142.7760 C   0  0  0  0  0  1  0  0  0  0  0  0
  194.1580  175.1350  138.3610 O   0  0  0  0  0  0  0  0  0  0  0  0
  193.9230  177.2970  137.2190 O   0  0  0  0  0  0  0  0  0  0  0  0
  188.4400  176.4340  135.3400 C   0  0  0  0  0  2  0  0  0  0  0  0
  193.8040  175.0650  135.7080 C   0  0  2  0  0  3  0  0  0  0  0  0
  191.7380  175.8530  137.5640 N   0  0  0  0  0  2  0  0  0  0  0  0
  191.1210  176.3420  138.7580 C   0  0  0  0  0  0  0  0  0  0  0  0
  189.8830  177.2950  141.0420 C   0  0  0  0  0  0  0  0  0  0  0  0
  188.8510  176.0340  137.6590 C   0  0  0  0  0  2  0  0  0  0  0  0
  190.2550  171.9760  134.4370 C   0  0  0  0  0  1  0  0  0  0  0  0
  189.3910  174.1960  135.0710 N   0  0  0  0  0  0  0  0  0  0  0  0
  188.4720  178.2000  136.8520 O   0  0  0  0  0  0  0  0  0  0  0  0
  187.0900  178.4390  136.9670 C   0  0  0  0  0  3  0  0  0  0  0  0
  186.4060  178.2510  138.0920 C   0  0  0  0  0  3  0  0  0  0  0  0
  183.2050  177.1090  139.0980 C   0  0  0  0  0  2  0  0  0  0  0  0
  184.5620  179.0430  139.5360 C   0  0  0  0  0  2  0  0  0  0  0  0
  184.9430  178.5280  138.1560 C   0  0  2  0  0  3  0  0  0  0  0  0
  183.8100  177.9220  140.2170 C   0  0  1  0  0  3  0  0  0  0  0  0
  182.7200  178.4850  141.1040 C   0  0  0  0  0  1  0  0  0  0  0  0
  184.1770  177.2300  137.9440 C   0  0  2  0  0  3  0  0  0  0  0  0
  183.4090  177.2530  136.6310 C   0  0  0  0  0  2  0  0  0  0  0  0
  185.0460  175.5820  136.1300 O   0  0  0  0  0  1  0  0  0  0  0  0
  184.1410  176.4710  135.5510 C   0  0  0  0  0  2  0  0  0  0  0  0
  194.7810  175.8130  134.9940 O   0  0  0  0  0  0  0  0  0  0  0  0
  196.1300  175.8210  135.3550 C   0  0  0  0  0  0  0  0  0  0  0  0
  196.7770  176.9050  135.3960 O   0  0  0  0  0  0  0  0  0  0  0  0
  196.7730  174.5870  135.6730 N   0  0  0  0  0  2  0  0  0  0  0  0
  198.2790  174.4390  137.5650 C   0  0  0  0  0  1  0  0  0  0  0  0
  198.1730  174.5250  136.0570 C   0  0  0  0  0  2  0  0  0  0  0  0
  1 26  1  0  0  0  0
  1 23  1  0  0  0  0
  2  9  1  0  0  0  0
  2 19  1  0  0  0  0
  4  3  2  0  0  0  0
  5 25  1  0  0  0  0
  6 25  1  0  0  0  0
  6 18  1  0  0  0  0
  7 22  1  0  0  0  0
  8  7  2  0  0  0  0
 10 13  1  0  0  0  0
 11 20  1  0  0  0  0
 11 16  2  0  0  0  0
 12 15  1  0  0  0  0
 12  3  1  0  0  0  0
 13 22  2  0  0  0  0
 13  4  1  0  0  0  0
 14 24  1  1  0  0  0
 14 25  1  0  0  0  0
 14  9  1  0  0  0  0
 17 11  2  0  0  0  0
 18  1  1  0  0  0  0
 19 38  1  6  0  0  0
 19 11  1  0  0  0  0
 20 21  1  0  0  0  0
 21  8  1  0  0  0  0
 21 10  2  0  0  0  0
 22 12  1  0  0  0  0
 23  8  1  0  0  0  0
 26 27  1  0  0  0  0
 27 28  2  0  0  0  0
 29 32  1  0  0  0  0
 30 32  1  0  0  0  0
 31 28  1  1  0  0  0
 31 30  1  0  0  0  0
 32 33  1  1  0  0  0
 34 35  1  6  0  0  0
 34 31  1  0  0  0  0
 34 29  1  0  0  0  0
 37 36  1  0  0  0  0
 37 35  1  0  0  0  0
 38 39  1  0  0  0  0
 39 40  2  0  0  0  0
 39 41  1  0  0  0  0
 41 43  1  0  0  0  0
 43 42  1  0  0  0  0
M  END
>  <MODEL>
4

>  <REMARK>
 VINA RESULT:      -6.8      4.918      8.419
  Name = 
  8 active torsions:
  status: ('A' for Active; 'I' for Inactive)
    1  A    between atoms: N_1  and  O_5
    2  A    between atoms: O_5  and  C_38
    3  A    between atoms: C_18  and  O_30
    4  A    between atoms: C_19  and  C_40
    5  A    between atoms: C_29  and  C_33
    6  A    between atoms: C_29  and  C_43
    7  A    between atoms: O_30  and  C_31
    8  A    between atoms: C_32  and  N_42
                            x       y       z     vdW  Elec       q    Type
                         _______ _______ _______ _____ _____    ______ ____

>  <TORSDO>
F 8

$$$$
=
 OpenBabel10232410313D

 43 46  0  0  1  0  0  0  0  0999 V2000
  188.6390  176.9100  139.2650 N   0  0  0  0  0  0  0  0  0  0  0  0
  189.5050  173.5510  136.5660 C   0  0  0  0  0  2  0  0  0  0  0  0
  182.3380  178.4860  137.8990 N   0  0  0  0  0  0  0  0  0  0  0  0
  182.6850  177.2980  137.4040 N   0  0  0  0  0  0  0  0  0  0  0  0
  191.9260  177.2860  137.1520 F   0  0  0  0  0  0  0  0  0  0  0  0
  190.6880  175.8870  138.3930 C   0  0  0  0  0  2  0  0  0  0  0  0
  185.8260  178.6330  138.3010 C   0  0  0  0  0  3  0  0  0  0  0  0
  186.7330  177.6170  137.9360 C   0  0  0  0  0  0  0  0  0  0  0  0
  189.9320  174.6780  135.6440 C   0  0  0  0  0  2  0  0  0  0  0  0
  184.8840  176.2100  137.1330 C   0  0  0  0  0  3  0  0  0  0  0  0
  186.7800  173.8000  136.4550 S   0  0  0  0  0  0  0  0  0  0  0  0
  183.4100  179.1610  138.3010 N   0  0  0  0  0  0  0  0  0  0  0  0
  184.0260  177.2390  137.5040 C   0  0  0  0  0  0  0  0  0  0  0  0
  191.1990  175.3540  136.1500 C   0  0  1  0  0  3  0  0  0  0  0  0
  183.3830  180.4880  138.8920 C   0  0  0  0  0  1  0  0  0  0  0  0
  185.8980  173.9020  135.2430 O   0  0  0  0  0  0  0  0  0  0  0  0
  186.0480  173.0810  137.5540 O   0  0  0  0  0  0  0  0  0  0  0  0
  190.0960  176.9250  139.3370 C   0  0  0  0  0  2  0  0  0  0  0  0
  188.2520  172.8840  136.0130 C   0  0  2  0  0  3  0  0  0  0  0  0
  187.2090  175.3880  136.9980 N   0  0  0  0  0  2  0  0  0  0  0  0
  186.2660  176.4050  137.3500 C   0  0  0  0  0  0  0  0  0  0  0  0
  184.4780  178.3930  138.0600 C   0  0  0  0  0  0  0  0  0  0  0  0
  188.1870  177.8250  138.2170 C   0  0  0  0  0  2  0  0  0  0  0  0
  191.9540  175.8650  134.9310 C   0  0  0  0  0  1  0  0  0  0  0  0
  190.8600  176.4520  137.0610 N   0  0  0  0  0  0  0  0  0  0  0  0
  188.1140  177.2930  140.4960 O   0  0  0  0  0  0  0  0  0  0  0  0
  188.5720  176.8400  141.7480 C   0  0  0  0  0  3  0  0  0  0  0  0
  188.1000  177.2930  142.9050 C   0  0  0  0  0  3  0  0  0  0  0  0
  189.5430  178.0530  146.0530 C   0  0  0  0  0  2  0  0  0  0  0  0
  187.5650  176.9200  145.2900 C   0  0  0  0  0  2  0  0  0  0  0  0
  188.6190  176.7720  144.2020 C   0  0  2  0  0  3  0  0  0  0  0  0
  188.0400  178.0360  146.1930 C   0  0  1  0  0  3  0  0  0  0  0  0
  187.6510  177.7510  147.6280 C   0  0  0  0  0  1  0  0  0  0  0  0
  189.8180  177.6040  144.6330 C   0  0  2  0  0  3  0  0  0  0  0  0
  191.0980  176.7820  144.5980 C   0  0  0  0  0  2  0  0  0  0  0  0
  191.9880  177.6790  142.5660 O   0  0  0  0  0  1  0  0  0  0  0  0
  191.5350  176.5050  143.1680 C   0  0  0  0  0  2  0  0  0  0  0  0
  188.1530  171.5500  136.4990 O   0  0  0  0  0  0  0  0  0  0  0  0
  188.2550  170.4370  135.6610 C   0  0  0  0  0  0  0  0  0  0  0  0
  189.1530  170.3800  134.7750 O   0  0  0  0  0  0  0  0  0  0  0  0
  187.3260  169.3640  135.8140 N   0  0  0  0  0  2  0  0  0  0  0  0
  186.0050  167.9140  134.3940 C   0  0  0  0  0  1  0  0  0  0  0  0
  187.3760  168.1780  134.9770 C   0  0  0  0  0  2  0  0  0  0  0  0
  1 18  1  0  0  0  0
  1 26  1  0  0  0  0
  3 12  1  0  0  0  0
  4 13  1  0  0  0  0
  4  3  2  0  0  0  0
  6 18  1  0  0  0  0
  8 23  1  0  0  0  0
  8  7  2  0  0  0  0
  9 14  1  0  0  0  0
  9  2  1  0  0  0  0
 10 21  2  0  0  0  0
 10 13  1  0  0  0  0
 11 20  1  0  0  0  0
 11 17  2  0  0  0  0
 12 15  1  0  0  0  0
 13 22  2  0  0  0  0
 14 24  1  6  0  0  0
 14 25  1  0  0  0  0
 16 11  2  0  0  0  0
 19 11  1  0  0  0  0
 19 38  1  1  0  0  0
 19  2  1  0  0  0  0
 20 21  1  0  0  0  0
 21  8  1  0  0  0  0
 22  7  1  0  0  0  0
 22 12  1  0  0  0  0
 23  1  1  0  0  0  0
 25  5  1  0  0  0  0
 25  6  1  0  0  0  0
 26 27  1  0  0  0  0
 27 28  2  0  0  0  0
 29 32  1  0  0  0  0
 30 32  1  0  0  0  0
 31 28  1  6  0  0  0
 31 34  1  0  0  0  0
 31 30  1  0  0  0  0
 32 33  1  1  0  0  0
 34 35  1  1  0  0  0
 34 29  1  0  0  0  0
 36 37  1  0  0  0  0
 37 35  1  0  0  0  0
 39 41  1  0  0  0  0
 39 38  1  0  0  0  0
 40 39  2  0  0  0  0
 42 43  1  0  0  0  0
 43 41  1  0  0  0  0
M  END
>  <MODEL>
5

>  <REMARK>
 VINA RESULT:      -6.6      2.189      2.946
  Name = 
  8 active torsions:
  status: ('A' for Active; 'I' for Inactive)
    1  A    between atoms: N_1  and  O_5
    2  A    between atoms: O_5  and  C_38
    3  A    between atoms: C_18  and  O_30
    4  A    between atoms: C_19  and  C_40
    5  A    between atoms: C_29  and  C_33
    6  A    between atoms: C_29  and  C_43
    7  A    between atoms: O_30  and  C_31
    8  A    between atoms: C_32  and  N_42
                            x       y       z     vdW  Elec       q    Type
                         _______ _______ _______ _____ _____    ______ ____

>  <TORSDO>
F 8

$$$$
=
 OpenBabel10232410313D

 43 46  0  0  1  0  0  0  0  0999 V2000
  187.9130  176.9410  141.5070 N   0  0  0  0  0  0  0  0  0  0  0  0
  185.8990  177.2630  137.6140 C   0  0  0  0  0  2  0  0  0  0  0  0
  183.4030  179.1610  145.8390 N   0  0  0  0  0  0  0  0  0  0  0  0
  182.8740  178.8930  144.6450 N   0  0  0  0  0  0  0  0  0  0  0  0
  189.9720  178.7930  138.7230 F   0  0  0  0  0  0  0  0  0  0  0  0
  188.6720  177.0220  139.1780 C   0  0  0  0  0  2  0  0  0  0  0  0
  186.3270  178.7960  143.9250 C   0  0  0  0  0  3  0  0  0  0  0  0
  186.3690  178.4990  142.5480 C   0  0  0  0  0  0  0  0  0  0  0  0
  186.5280  178.6450  137.6410 C   0  0  0  0  0  2  0  0  0  0  0  0
  183.9130  178.4360  142.4540 C   0  0  0  0  0  3  0  0  0  0  0  0
  183.8760  177.5840  139.4310 S   0  0  0  0  0  0  0  0  0  0  0  0
  184.7300  179.1710  145.7760 N   0  0  0  0  0  0  0  0  0  0  0  0
  183.9190  178.7330  143.8110 C   0  0  0  0  0  0  0  0  0  0  0  0
  188.0420  178.5630  137.5030 C   0  0  1  0  0  3  0  0  0  0  0  0
  185.6130  179.4270  146.9010 C   0  0  0  0  0  1  0  0  0  0  0  0
  182.8440  178.6730  139.5000 O   0  0  0  0  0  0  0  0  0  0  0  0
  183.2870  176.2960  139.9340 O   0  0  0  0  0  0  0  0  0  0  0  0
  189.0790  176.8420  140.6340 C   0  0  0  0  0  2  0  0  0  0  0  0
  184.3860  177.3890  137.7270 C   0  0  2  0  0  3  0  0  0  0  0  0
  185.2390  178.0100  140.4130 N   0  0  0  0  0  2  0  0  0  0  0  0
  185.1650  178.3200  141.8080 C   0  0  0  0  0  0  0  0  0  0  0  0
  185.0710  178.9050  144.5100 C   0  0  0  0  0  0  0  0  0  0  0  0
  187.7040  178.3360  141.8940 C   0  0  0  0  0  2  0  0  0  0  0  0
  188.4990  179.8340  136.8000 C   0  0  0  0  0  1  0  0  0  0  0  0
  188.6680  178.4350  138.8240 N   0  0  0  0  0  0  0  0  0  0  0  0
  188.1180  176.1540  142.6360 O   0  0  0  0  0  0  0  0  0  0  0  0
  188.6990  176.5980  143.8390 C   0  0  0  0  0  3  0  0  0  0  0  0
  190.0040  176.8000  143.9890 C   0  0  0  0  0  3  0  0  0  0  0  0
  190.3640  176.2190  147.4680 C   0  0  0  0  0  2  0  0  0  0  0  0
  191.8540  176.5410  145.6090 C   0  0  0  0  0  2  0  0  0  0  0  0
  190.5630  177.2780  145.2860 C   0  0  2  0  0  3  0  0  0  0  0  0
  191.5310  175.5930  146.7420 C   0  0  1  0  0  3  0  0  0  0  0  0
  192.7180  175.4630  147.6720 C   0  0  0  0  0  1  0  0  0  0  0  0
  189.5810  176.9590  146.4040 C   0  0  2  0  0  3  0  0  0  0  0  0
  188.9900  178.2290  146.9970 C   0  0  0  0  0  2  0  0  0  0  0  0
  187.6840  176.9790  148.5630 O   0  0  0  0  0  1  0  0  0  0  0  0
  188.5980  178.0260  148.4530 C   0  0  0  0  0  2  0  0  0  0  0  0
  183.7570  176.2420  137.1660 O   0  0  0  0  0  0  0  0  0  0  0  0
  184.4650  175.0860  136.8320 C   0  0  0  0  0  0  0  0  0  0  0  0
  185.1490  175.0350  135.7720 O   0  0  0  0  0  0  0  0  0  0  0  0
  184.4040  173.9570  137.7030 N   0  0  0  0  0  2  0  0  0  0  0  0
  184.1340  171.6650  136.9650 C   0  0  0  0  0  1  0  0  0  0  0  0
  185.1170  172.7240  137.4170 C   0  0  0  0  0  2  0  0  0  0  0  0
  1 23  1  0  0  0  0
  1 26  1  0  0  0  0
  2  9  1  0  0  0  0
  2 19  1  0  0  0  0
  4  3  2  0  0  0  0
  5 25  1  0  0  0  0
  6 18  1  0  0  0  0
  7 22  1  0  0  0  0
  8  7  2  0  0  0  0
 10 13  1  0  0  0  0
 11 16  2  0  0  0  0
 11 17  2  0  0  0  0
 11 20  1  0  0  0  0
 12  3  1  0  0  0  0
 12 15  1  0  0  0  0
 13 22  2  0  0  0  0
 13  4  1  0  0  0  0
 14 24  1  1  0  0  0
 14  9  1  0  0  0  0
 14 25  1  0  0  0  0
 18  1  1  0  0  0  0
 19 38  1  1  0  0  0
 19 11  1  0  0  0  0
 20 21  1  0  0  0  0
 21 10  2  0  0  0  0
 21  8  1  0  0  0  0
 22 12  1  0  0  0  0
 23  8  1  0  0  0  0
 25  6  1  0  0  0  0
 26 27  1  0  0  0  0
 27 28  2  0  0  0  0
 30 32  1  0  0  0  0
 31 28  1  6  0  0  0
 31 30  1  0  0  0  0
 31 34  1  0  0  0  0
 32 29  1  0  0  0  0
 32 33  1  1  0  0  0
 34 35  1  1  0  0  0
 34 29  1  0  0  0  0
 35 37  1  0  0  0  0
 37 36  1  0  0  0  0
 39 38  1  0  0  0  0
 39 41  1  0  0  0  0
 40 39  2  0  0  0  0
 42 43  1  0  0  0  0
 43 41  1  0  0  0  0
M  END
>  <MODEL>
6

>  <REMARK>
 VINA RESULT:      -6.6      2.807      4.442
  Name = 
  8 active torsions:
  status: ('A' for Active; 'I' for Inactive)
    1  A    between atoms: N_1  and  O_5
    2  A    between atoms: O_5  and  C_38
    3  A    between atoms: C_18  and  O_30
    4  A    between atoms: C_19  and  C_40
    5  A    between atoms: C_29  and  C_33
    6  A    between atoms: C_29  and  C_43
    7  A    between atoms: O_30  and  C_31
    8  A    between atoms: C_32  and  N_42
                            x       y       z     vdW  Elec       q    Type
                         _______ _______ _______ _____ _____    ______ ____

>  <TORSDO>
F 8

$$$$
=
 OpenBabel10232410313D

 43 46  0  0  1  0  0  0  0  0999 V2000
  186.1640  175.8490  137.7960 N   0  0  0  0  0  0  0  0  0  0  0  0
  184.8550  178.1690  141.2920 C   0  0  0  0  0  2  0  0  0  0  0  0
  192.7630  176.5550  137.7760 N   0  0  0  0  0  0  0  0  0  0  0  0
  192.2130  176.9300  138.9320 N   0  0  0  0  0  0  0  0  0  0  0  0
  183.2750  178.4140  137.0970 F   0  0  0  0  0  0  0  0  0  0  0  0
  184.0390  176.8430  138.5040 C   0  0  0  0  0  2  0  0  0  0  0  0
  189.3720  176.6470  136.8590 C   0  0  0  0  0  3  0  0  0  0  0  0
  188.3050  176.9920  137.7130 C   0  0  0  0  0  0  0  0  0  0  0  0
  184.7850  179.2820  140.2620 C   0  0  0  0  0  2  0  0  0  0  0  0
  189.8680  177.3460  139.5770 C   0  0  0  0  0  3  0  0  0  0  0  0
  187.5640  177.9460  141.6260 S   0  0  0  0  0  0  0  0  0  0  0  0
  191.8320  176.3940  136.8420 N   0  0  0  0  0  0  0  0  0  0  0  0
  190.8890  177.0030  138.6990 C   0  0  0  0  0  0  0  0  0  0  0  0
  183.6550  179.0440  139.2710 C   0  0  1  0  0  3  0  0  0  0  0  0
  192.0920  175.9860  135.4720 C   0  0  0  0  0  1  0  0  0  0  0  0
  188.5660  179.0310  141.8990 O   0  0  0  0  0  0  0  0  0  0  0  0
  188.0020  176.6730  142.2950 O   0  0  0  0  0  0  0  0  0  0  0  0
  184.7470  175.9750  137.4730 C   0  0  0  0  0  2  0  0  0  0  0  0
  185.9780  178.4560  142.2800 C   0  0  2  0  0  3  0  0  0  0  0  0
  187.4440  177.6810  139.9170 N   0  0  0  0  0  2  0  0  0  0  0  0
  188.5480  177.3440  139.0720 C   0  0  0  0  0  0  0  0  0  0  0  0
  190.6500  176.6710  137.4040 C   0  0  0  0  0  0  0  0  0  0  0  0
  186.9120  176.9390  137.1710 C   0  0  0  0  0  2  0  0  0  0  0  0
  183.1610  180.4100  138.8160 C   0  0  0  0  0  1  0  0  0  0  0  0
  184.1330  178.2500  138.1340 N   0  0  0  0  0  0  0  0  0  0  0  0
  186.6320  174.6210  137.3380 O   0  0  0  0  0  0  0  0  0  0  0  0
  185.8390  173.6240  136.7380 C   0  0  0  0  0  3  0  0  0  0  0  0
  185.8170  173.3980  135.4280 C   0  0  0  0  0  3  0  0  0  0  0  0
  183.9770  170.4240  136.0070 C   0  0  0  0  0  2  0  0  0  0  0  0
  183.4930  172.6080  135.1280 C   0  0  0  0  0  2  0  0  0  0  0  0
  184.9610  172.3240  134.8480 C   0  0  2  0  0  3  0  0  0  0  0  0
  183.0590  171.6100  136.1770 C   0  0  1  0  0  3  0  0  0  0  0  0
  181.6210  171.1970  135.9450 C   0  0  0  0  0  1  0  0  0  0  0  0
  185.2910  171.0010  135.5250 C   0  0  2  0  0  3  0  0  0  0  0  0
  185.9450  170.0320  134.5500 C   0  0  0  0  0  2  0  0  0  0  0  0
  187.8990  170.5780  135.8180 O   0  0  0  0  0  1  0  0  0  0  0  0
  187.3030  169.5710  135.0590 C   0  0  0  0  0  2  0  0  0  0  0  0
  185.7300  177.7880  143.5110 O   0  0  0  0  0  0  0  0  0  0  0  0
  185.6920  178.4610  144.7350 C   0  0  0  0  0  0  0  0  0  0  0  0
  185.0530  179.5430  144.8530 O   0  0  0  0  0  0  0  0  0  0  0  0
  186.3920  177.9130  145.8520 N   0  0  0  0  0  2  0  0  0  0  0  0
  187.6080  178.1130  147.9370 C   0  0  0  0  0  1  0  0  0  0  0  0
  186.3940  178.5600  147.1520 C   0  0  0  0  0  2  0  0  0  0  0  0
  2 19  1  0  0  0  0
  3  4  2  0  0  0  0
  5 25  1  0  0  0  0
  7 22  2  0  0  0  0
  7  8  1  0  0  0  0
  8 21  2  0  0  0  0
  9  2  1  0  0  0  0
 11 16  2  0  0  0  0
 11 19  1  0  0  0  0
 11 17  2  0  0  0  0
 12 22  1  0  0  0  0
 12  3  1  0  0  0  0
 13  4  1  0  0  0  0
 13 10  2  0  0  0  0
 14 24  1  6  0  0  0
 14  9  1  0  0  0  0
 15 12  1  0  0  0  0
 18  1  1  0  0  0  0
 18  6  1  0  0  0  0
 19 38  1  1  0  0  0
 20 11  1  0  0  0  0
 21 10  1  0  0  0  0
 21 20  1  0  0  0  0
 22 13  1  0  0  0  0
 23  8  1  0  0  0  0
 23  1  1  0  0  0  0
 25  6  1  0  0  0  0
 25 14  1  0  0  0  0
 26  1  1  0  0  0  0
 27 26  1  0  0  0  0
 28 27  2  0  0  0  0
 29 32  1  0  0  0  0
 30 32  1  0  0  0  0
 31 30  1  0  0  0  0
 31 28  1  1  0  0  0
 31 34  1  0  0  0  0
 32 33  1  6  0  0  0
 34 35  1  6  0  0  0
 34 29  1  0  0  0  0
 35 37  1  0  0  0  0
 37 36  1  0  0  0  0
 38 39  1  0  0  0  0
 39 40  2  0  0  0  0
 39 41  1  0  0  0  0
 41 43  1  0  0  0  0
 43 42  1  0  0  0  0
M  END
>  <MODEL>
7

>  <REMARK>
 VINA RESULT:      -6.4      2.747      9.805
  Name = 
  8 active torsions:
  status: ('A' for Active; 'I' for Inactive)
    1  A    between atoms: N_1  and  O_5
    2  A    between atoms: O_5  and  C_38
    3  A    between atoms: C_18  and  O_30
    4  A    between atoms: C_19  and  C_40
    5  A    between atoms: C_29  and  C_33
    6  A    between atoms: C_29  and  C_43
    7  A    between atoms: O_30  and  C_31
    8  A    between atoms: C_32  and  N_42
                            x       y       z     vdW  Elec       q    Type
                         _______ _______ _______ _____ _____    ______ ____

>  <TORSDO>
F 8

$$$$
=
 OpenBabel10232410313D

 43 46  0  0  1  0  0  0  0  0999 V2000
  190.0270  176.4710  139.6860 N   0  0  0  0  0  0  0  0  0  0  0  0
  191.9070  174.0180  136.5610 C   0  0  0  0  0  2  0  0  0  0  0  0
  183.9330  177.6630  137.3450 N   0  0  0  0  0  0  0  0  0  0  0  0
  184.5500  176.6830  136.6840 N   0  0  0  0  0  0  0  0  0  0  0  0
  193.5550  177.7180  138.4980 F   0  0  0  0  0  0  0  0  0  0  0  0
  192.3400  175.9260  139.0840 C   0  0  0  0  0  2  0  0  0  0  0  0
  187.2140  178.0720  138.5360 C   0  0  0  0  0  3  0  0  0  0  0  0
  188.3210  177.2850  138.1620 C   0  0  0  0  0  0  0  0  0  0  0  0
  192.3190  175.3820  136.0350 C   0  0  0  0  0  2  0  0  0  0  0  0
  186.9030  175.9400  136.6710 C   0  0  0  0  0  3  0  0  0  0  0  0
  189.2490  173.9960  135.9060 S   0  0  0  0  0  0  0  0  0  0  0  0
  184.7890  178.3240  138.1170 N   0  0  0  0  0  0  0  0  0  0  0  0
  185.8400  176.7430  137.0650 C   0  0  0  0  0  0  0  0  0  0  0  0
  193.3450  176.0370  136.9500 C   0  0  1  0  0  3  0  0  0  0  0  0
  184.4420  179.4460  138.9710 C   0  0  0  0  0  1  0  0  0  0  0  0
  188.6080  174.3080  134.5830 O   0  0  0  0  0  0  0  0  0  0  0  0
  188.4440  172.9490  136.6220 O   0  0  0  0  0  0  0  0  0  0  0  0
  191.4230  176.6220  140.0820 C   0  0  0  0  0  2  0  0  0  0  0  0
  190.9040  173.3850  135.6060 C   0  0  2  0  0  3  0  0  0  0  0  0
  189.3120  175.4310  136.8750 N   0  0  0  0  0  2  0  0  0  0  0  0
  188.1710  176.2180  137.2290 C   0  0  0  0  0  0  0  0  0  0  0  0
  185.9910  177.7600  137.9530 C   0  0  0  0  0  0  0  0  0  0  0  0
  189.6450  177.5680  138.7980 C   0  0  0  0  0  2  0  0  0  0  0  0
  194.2270  176.9190  136.0770 C   0  0  0  0  0  1  0  0  0  0  0  0
  192.6710  176.8260  137.9870 N   0  0  0  0  0  0  0  0  0  0  0  0
  189.2250  176.4700  140.8230 O   0  0  0  0  0  0  0  0  0  0  0  0
  189.6260  176.9140  142.0980 C   0  0  0  0  0  3  0  0  0  0  0  0
  188.8340  177.6010  142.9150 C   0  0  0  0  0  3  0  0  0  0  0  0
  189.5040  176.6930  146.2760 C   0  0  0  0  0  2  0  0  0  0  0  0
  190.7640  177.6380  144.4600 C   0  0  0  0  0  2  0  0  0  0  0  0
  189.3110  178.0390  144.2580 C   0  0  2  0  0  3  0  0  0  0  0  0
  190.7570  176.5000  145.4560 C   0  0  1  0  0  3  0  0  0  0  0  0
  191.9810  176.5730  146.3440 C   0  0  0  0  0  1  0  0  0  0  0  0
  188.5030  177.3270  145.3330 C   0  0  2  0  0  3  0  0  0  0  0  0
  187.6280  178.3060  146.1030 C   0  0  0  0  0  2  0  0  0  0  0  0
  185.3770  179.0960  146.2750 O   0  0  0  0  0  1  0  0  0  0  0  0
  186.1520  177.9960  145.9090 C   0  0  0  0  0  2  0  0  0  0  0  0
  190.9250  171.9680  135.7440 O   0  0  0  0  0  0  0  0  0  0  0  0
  191.8440  171.1630  135.0670 C   0  0  0  0  0  0  0  0  0  0  0  0
  191.4690  170.1010  134.4970 O   0  0  0  0  0  0  0  0  0  0  0  0
  193.2160  171.5520  135.0320 N   0  0  0  0  0  2  0  0  0  0  0  0
  195.5860  171.3820  134.5630 C   0  0  0  0  0  1  0  0  0  0  0  0
  194.2230  170.7610  134.3460 C   0  0  0  0  0  2  0  0  0  0  0  0
  1 18  1  0  0  0  0
  1 26  1  0  0  0  0
  3 12  1  0  0  0  0
  4 13  1  0  0  0  0
  4  3  2  0  0  0  0
  6 18  1  0  0  0  0
  8  7  1  0  0  0  0
  8 23  1  0  0  0  0
  9  2  1  0  0  0  0
  9 14  1  0  0  0  0
 10 13  2  0  0  0  0
 10 21  1  0  0  0  0
 11 17  2  0  0  0  0
 11 20  1  0  0  0  0
 12 15  1  0  0  0  0
 13 22  1  0  0  0  0
 14 24  1  6  0  0  0
 14 25  1  0  0  0  0
 16 11  2  0  0  0  0
 19 38  1  1  0  0  0
 19 11  1  0  0  0  0
 19  2  1  0  0  0  0
 20 21  1  0  0  0  0
 21  8  2  0  0  0  0
 22 12  1  0  0  0  0
 22  7  2  0  0  0  0
 23  1  1  0  0  0  0
 25  5  1  0  0  0  0
 25  6  1  0  0  0  0
 26 27  1  0  0  0  0
 27 28  2  0  0  0  0
 30 32  1  0  0  0  0
 31 28  1  6  0  0  0
 31 30  1  0  0  0  0
 31 34  1  0  0  0  0
 32 29  1  0  0  0  0
 32 33  1  1  0  0  0
 34 35  1  1  0  0  0
 34 29  1  0  0  0  0
 37 35  1  0  0  0  0
 37 36  1  0  0  0  0
 39 38  1  0  0  0  0
 40 39  2  0  0  0  0
 41 39  1  0  0  0  0
 43 42  1  0  0  0  0
 43 41  1  0  0  0  0
M  END
>  <MODEL>
8

>  <REMARK>
 VINA RESULT:      -6.1      3.410      4.381
  Name = 
  8 active torsions:
  status: ('A' for Active; 'I' for Inactive)
    1  A    between atoms: N_1  and  O_5
    2  A    between atoms: O_5  and  C_38
    3  A    between atoms: C_18  and  O_30
    4  A    between atoms: C_19  and  C_40
    5  A    between atoms: C_29  and  C_33
    6  A    between atoms: C_29  and  C_43
    7  A    between atoms: O_30  and  C_31
    8  A    between atoms: C_32  and  N_42
                            x       y       z     vdW  Elec       q    Type
                         _______ _______ _______ _____ _____    ______ ____

>  <TORSDO>
F 8

$$$$
=
 OpenBabel10232410313D

 43 46  0  0  1  0  0  0  0  0999 V2000
  189.0050  176.8440  137.1670 N   0  0  0  0  0  0  0  0  0  0  0  0
  192.5650  175.1660  135.2100 C   0  0  0  0  0  2  0  0  0  0  0  0
  190.9920  178.0140  143.3900 N   0  0  0  0  0  0  0  0  0  0  0  0
  192.0130  177.7920  142.5620 N   0  0  0  0  0  0  0  0  0  0  0  0
  188.4010  173.4880  135.2210 F   0  0  0  0  0  0  0  0  0  0  0  0
  189.3900  175.5000  135.1540 C   0  0  0  0  0  2  0  0  0  0  0  0
  189.2710  176.7670  140.5910 C   0  0  0  0  0  3  0  0  0  0  0  0
  189.8690  176.3550  139.3830 C   0  0  0  0  0  0  0  0  0  0  0  0
  191.9610  173.8640  135.7030 C   0  0  0  0  0  2  0  0  0  0  0  0
  192.0980  176.9090  140.2590 C   0  0  0  0  0  3  0  0  0  0  0  0
  193.5290  176.2060  137.5520 S   0  0  0  0  0  0  0  0  0  0  0  0
  189.8390  177.6810  142.8180 N   0  0  0  0  0  0  0  0  0  0  0  0
  191.4670  177.3000  141.4340 C   0  0  0  0  0  0  0  0  0  0  0  0
  190.6790  173.5320  134.9520 C   0  0  1  0  0  3  0  0  0  0  0  0
  188.5350  177.8020  143.4460 C   0  0  0  0  0  1  0  0  0  0  0  0
  194.3910  175.5400  138.5870 O   0  0  0  0  0  0  0  0  0  0  0  0
  193.8530  177.6720  137.4920 O   0  0  0  0  0  0  0  0  0  0  0  0
  188.3680  176.2550  135.9940 C   0  0  0  0  0  2  0  0  0  0  0  0
  193.8570  175.4490  135.9650 C   0  0  2  0  0  3  0  0  0  0  0  0
  191.8590  176.0070  137.9710 N   0  0  0  0  0  2  0  0  0  0  0  0
  191.2820  176.4240  139.2120 C   0  0  0  0  0  0  0  0  0  0  0  0
  190.1190  177.2300  141.5900 C   0  0  0  0  0  0  0  0  0  0  0  0
  188.9830  175.8870  138.2720 C   0  0  0  0  0  2  0  0  0  0  0  0
  190.5640  172.0140  134.9070 C   0  0  0  0  0  1  0  0  0  0  0  0
  189.5230  174.1290  135.6300 N   0  0  0  0  0  0  0  0  0  0  0  0
  188.3260  178.0060  137.5230 O   0  0  0  0  0  0  0  0  0  0  0  0
  187.1420  178.0520  138.2830 C   0  0  0  0  0  3  0  0  0  0  0  0
  185.9380  177.8040  137.7760 C   0  0  0  0  0  3  0  0  0  0  0  0
  183.2010  179.7400  138.9270 C   0  0  0  0  0  2  0  0  0  0  0  0
  183.4710  177.6410  137.7880 C   0  0  0  0  0  2  0  0  0  0  0  0
  184.7180  177.8610  138.6310 C   0  0  2  0  0  3  0  0  0  0  0  0
  182.7810  178.9830  137.6910 C   0  0  1  0  0  3  0  0  0  0  0  0
  181.2790  178.8000  137.6740 C   0  0  0  0  0  1  0  0  0  0  0  0
  184.5990  179.2510  139.2410 C   0  0  2  0  0  3  0  0  0  0  0  0
  184.7960  179.2080  140.7500 C   0  0  0  0  0  2  0  0  0  0  0  0
  183.3000  178.3740  142.4200 O   0  0  0  0  0  1  0  0  0  0  0  0
  184.1190  177.9890  141.3590 C   0  0  0  0  0  2  0  0  0  0  0  0
  194.6990  176.2980  135.1930 O   0  0  0  0  0  0  0  0  0  0  0  0
  196.0900  176.2800  135.3090 C   0  0  0  0  0  0  0  0  0  0  0  0
  196.7520  177.3550  135.2690 O   0  0  0  0  0  0  0  0  0  0  0  0
  196.7600  175.0300  135.4670 N   0  0  0  0  0  2  0  0  0  0  0  0
  198.6350  173.4970  135.4400 C   0  0  0  0  0  1  0  0  0  0  0  0
  198.2040  174.9400  135.5940 C   0  0  0  0  0  2  0  0  0  0  0  0
  1 26  1  0  0  0  0
  1 23  1  0  0  0  0
  2  9  1  0  0  0  0
  2 19  1  0  0  0  0
  4  3  2  0  0  0  0
  5 25  1  0  0  0  0
  6 25  1  0  0  0  0
  6 18  1  0  0  0  0
  7 22  1  0  0  0  0
  8  7  2  0  0  0  0
 10 13  1  0  0  0  0
 11 20  1  0  0  0  0
 11 16  2  0  0  0  0
 12  3  1  0  0  0  0
 12 15  1  0  0  0  0
 13 22  2  0  0  0  0
 13  4  1  0  0  0  0
 14 24  1  1  0  0  0
 14 25  1  0  0  0  0
 14  9  1  0  0  0  0
 17 11  2  0  0  0  0
 18  1  1  0  0  0  0
 19 38  1  6  0  0  0
 19 11  1  0  0  0  0
 20 21  1  0  0  0  0
 21  8  1  0  0  0  0
 21 10  2  0  0  0  0
 22 12  1  0  0  0  0
 23  8  1  0  0  0  0
 26 27  1  0  0  0  0
 28 27  2  0  0  0  0
 29 34  1  0  0  0  0
 30 31  1  0  0  0  0
 31 28  1  6  0  0  0
 31 34  1  0  0  0  0
 32 33  1  1  0  0  0
 32 30  1  0  0  0  0
 32 29  1  0  0  0  0
 34 35  1  1  0  0  0
 35 37  1  0  0  0  0
 37 36  1  0  0  0  0
 38 39  1  0  0  0  0
 39 41  1  0  0  0  0
 40 39  2  0  0  0  0
 41 43  1  0  0  0  0
 42 43  1  0  0  0  0
M  END
>  <MODEL>
9

>  <REMARK>
 VINA RESULT:      -5.7      4.988      8.332
  Name = 
  8 active torsions:
  status: ('A' for Active; 'I' for Inactive)
    1  A    between atoms: N_1  and  O_5
    2  A    between atoms: O_5  and  C_38
    3  A    between atoms: C_18  and  O_30
    4  A    between atoms: C_19  and  C_40
    5  A    between atoms: C_29  and  C_33
    6  A    between atoms: C_29  and  C_43
    7  A    between atoms: O_30  and  C_31
    8  A    between atoms: C_32  and  N_42
                            x       y       z     vdW  Elec       q    Type
                         _______ _______ _______ _____ _____    ______ ____

>  <TORSDO>
F 8

$$$$
