=
 OpenBabel10222422063D

 31 34  0  0  1  0  0  0  0  0999 V2000
  189.0950  177.0270  140.7060 C   0  0  1  0  0  3  0  0  0  0  0  0
  188.9910  177.3720  143.4320 N   0  0  0  0  0  0  0  0  0  0  0  0
  187.1890  178.4550  140.5470 C   0  0  0  0  0  2  0  0  0  0  0  0
  188.6040  177.3380  142.2120 C   0  0  0  0  0  0  0  0  0  0  0  0
  188.5180  178.2200  139.9760 C   0  0  2  0  0  3  0  0  0  0  0  0
  187.4740  178.0750  142.0180 C   0  0  2  0  0  3  0  0  0  0  0  0
  190.1890  177.4200  145.4470 C   0  0  0  0  0  3  0  0  0  0  0  0
  192.5900  175.0350  146.8950 O   0  0  0  0  0  1  0  0  0  0  0  0
  192.5510  174.0910  144.5860 O   0  0  0  0  0  1  0  0  0  0  0  0
  190.1620  177.0690  144.0650 C   0  0  0  0  0  0  0  0  0  0  0  0
  191.9030  175.7740  145.9170 C   0  0  0  0  0  0  0  0  0  0  0  0
  191.1950  177.1760  147.7690 C   0  0  0  0  0  1  0  0  0  0  0  0
  191.8920  175.3600  144.6590 C   0  0  0  0  0  0  0  0  0  0  0  0
  191.0700  176.0230  143.6250 C   0  0  0  0  0  3  0  0  0  0  0  0
  191.0850  176.8390  146.3570 C   0  0  0  0  0  0  0  0  0  0  0  0
  186.5370  177.9960  143.1220 C   0  0  0  0  0  0  0  0  0  0  0  0
  186.6390  178.1050  144.5910 C   0  0  0  0  0  3  0  0  0  0  0  0
  184.5040  178.2910  141.7250 C   0  0  0  0  0  3  0  0  0  0  0  0
  184.6520  178.4550  143.9840 N   0  0  0  0  0  0  0  0  0  0  0  0
  183.2160  178.5680  142.2670 C   0  0  0  0  0  3  0  0  0  0  0  0
  185.3780  178.3790  145.0920 N   0  0  0  0  0  2  0  0  0  0  0  0
  185.2720  178.2330  142.9180 C   0  0  0  0  0  0  0  0  0  0  0  0
  182.3220  179.0330  144.5310 N   0  0  0  0  0  1  0  0  0  0  0  0
  183.3800  178.7290  143.5910 C   0  0  0  0  0  0  0  0  0  0  0  0
  188.6760  178.3220  138.5010 C   0  0  0  0  0  0  0  0  0  0  0  0
  187.9830  177.2230  137.7160 C   0  0  0  0  0  1  0  0  0  0  0  0
  189.1450  179.2810  137.9850 O   0  0  0  0  0  0  0  0  0  0  0  0
  190.7630  175.9490  139.1990 O   0  0  0  0  0  1  0  0  0  0  0  0
  190.5260  176.6090  140.4250 C   0  0  1  0  0  3  0  0  0  0  0  0
  192.7160  177.4630  140.1810 O   0  0  0  0  0  1  0  0  0  0  0  0
  191.4160  177.8060  140.5520 C   0  0  0  0  0  2  0  0  0  0  0  0
  1 29  1  1  0  0  0
  1  4  1  0  0  0  0
  2 10  1  0  0  0  0
  3  6  1  0  0  0  0
  4  2  2  0  0  0  0
  5 25  1  6  0  0  0
  5  3  1  0  0  0  0
  5  1  1  0  0  0  0
  6  4  1  0  0  0  0
  6 16  1  6  0  0  0
  7 15  1  0  0  0  0
  9 13  1  0  0  0  0
 10  7  2  0  0  0  0
 11 15  2  0  0  0  0
 11  8  1  0  0  0  0
 13 11  1  0  0  0  0
 14 10  1  0  0  0  0
 14 13  2  0  0  0  0
 15 12  1  0  0  0  0
 16 17  2  0  0  0  0
 17 21  1  0  0  0  0
 18 20  1  0  0  0  0
 18 22  2  0  0  0  0
 19 21  1  0  0  0  0
 20 24  2  0  0  0  0
 22 16  1  0  0  0  0
 22 19  1  0  0  0  0
 24 19  1  0  0  0  0
 24 23  1  0  0  0  0
 26 25  1  0  0  0  0
 27 25  2  0  0  0  0
 29 28  1  6  0  0  0
 29 31  1  0  0  0  0
 30 31  1  0  0  0  0
M  END
>  <MODEL>
1

>  <REMARK>
 VINA RESULT:      -9.0      0.000      0.000
  Name = 
  5 active torsions:
  status: ('A' for Active; 'I' for Inactive)
    1  A    between atoms: C_3  and  C_31
    2  A    between atoms: C_6  and  C_28
    3  A    between atoms: C_9  and  C_27
    4  A    between atoms: C_11  and  N_21
    5  A    between atoms: C_26  and  C_27
                            x       y       z     vdW  Elec       q    Type
                         _______ _______ _______ _____ _____    ______ ____

>  <TORSDO>
F 5

$$$$
=
 OpenBabel10222422063D

 31 34  0  0  1  0  0  0  0  0999 V2000
  189.6300  178.3210  143.7570 C   0  0  1  0  0  3  0  0  0  0  0  0
  188.2030  178.1290  141.4140 N   0  0  0  0  0  0  0  0  0  0  0  0
  187.7200  177.4350  144.8820 C   0  0  0  0  0  2  0  0  0  0  0  0
  188.4420  178.2130  142.6690 C   0  0  0  0  0  0  0  0  0  0  0  0
  189.1740  177.2920  144.7670 C   0  0  2  0  0  3  0  0  0  0  0  0
  187.3830  177.7890  143.4160 C   0  0  2  0  0  3  0  0  0  0  0  0
  189.6630  176.9120  140.0400 C   0  0  0  0  0  3  0  0  0  0  0  0
  190.1340  176.9300  136.3890 O   0  0  0  0  0  1  0  0  0  0  0  0
  188.7670  179.0120  136.5490 O   0  0  0  0  0  1  0  0  0  0  0  0
  188.9870  178.1410  140.2960 C   0  0  0  0  0  0  0  0  0  0  0  0
  189.8640  177.4180  137.6800 C   0  0  0  0  0  0  0  0  0  0  0  0
  190.8910  175.3560  138.4490 C   0  0  0  0  0  1  0  0  0  0  0  0
  189.1930  178.5490  137.8350 C   0  0  0  0  0  0  0  0  0  0  0  0
  188.7650  179.0280  139.1660 C   0  0  0  0  0  3  0  0  0  0  0  0
  190.1590  176.5710  138.7720 C   0  0  0  0  0  0  0  0  0  0  0  0
  186.0970  178.1560  142.8530 C   0  0  0  0  0  0  0  0  0  0  0  0
  185.4040  177.9040  141.5740 C   0  0  0  0  0  3  0  0  0  0  0  0
  185.0740  178.8120  145.0200 C   0  0  0  0  0  3  0  0  0  0  0  0
  184.0030  178.4330  143.0550 N   0  0  0  0  0  0  0  0  0  0  0  0
  183.6770  179.0380  145.1890 C   0  0  0  0  0  3  0  0  0  0  0  0
  184.0520  178.1260  141.7650 N   0  0  0  0  0  2  0  0  0  0  0  0
  185.1080  178.4660  143.6430 C   0  0  0  0  0  0  0  0  0  0  0  0
  181.6700  178.8040  143.7540 N   0  0  0  0  0  1  0  0  0  0  0  0
  183.0910  178.7260  144.0200 C   0  0  0  0  0  0  0  0  0  0  0  0
  189.9600  177.0910  146.0130 C   0  0  0  0  0  0  0  0  0  0  0  0
  189.3100  177.6510  147.2640 C   0  0  0  0  0  1  0  0  0  0  0  0
  190.9170  176.3920  146.0450 O   0  0  0  0  0  0  0  0  0  0  0  0
  192.0090  178.8920  144.2340 O   0  0  0  0  0  1  0  0  0  0  0  0
  191.0830  178.3390  143.3230 C   0  0  1  0  0  3  0  0  0  0  0  0
  192.3430  177.0010  141.8370 O   0  0  0  0  0  1  0  0  0  0  0  0
  191.4940  176.9510  142.9420 C   0  0  0  0  0  2  0  0  0  0  0  0
  1 29  1  6  0  0  0
  1  5  1  0  0  0  0
  2  4  2  0  0  0  0
  4  6  1  0  0  0  0
  4  1  1  0  0  0  0
  5  3  1  0  0  0  0
  5 25  1  1  0  0  0
  6 16  1  1  0  0  0
  6  3  1  0  0  0  0
  7 10  1  0  0  0  0
  8 11  1  0  0  0  0
  9 13  1  0  0  0  0
 10  2  1  0  0  0  0
 11 13  2  0  0  0  0
 11 15  1  0  0  0  0
 12 15  1  0  0  0  0
 13 14  1  0  0  0  0
 14 10  2  0  0  0  0
 15  7  2  0  0  0  0
 16 22  1  0  0  0  0
 17 21  1  0  0  0  0
 17 16  2  0  0  0  0
 18 20  1  0  0  0  0
 19 22  1  0  0  0  0
 19 24  1  0  0  0  0
 21 19  1  0  0  0  0
 22 18  2  0  0  0  0
 23 24  1  0  0  0  0
 24 20  2  0  0  0  0
 25 27  2  0  0  0  0
 25 26  1  0  0  0  0
 29 28  1  1  0  0  0
 30 31  1  0  0  0  0
 31 29  1  0  0  0  0
M  END
>  <MODEL>
2

>  <REMARK>
 VINA RESULT:      -8.9      1.704      5.648
  Name = 
  5 active torsions:
  status: ('A' for Active; 'I' for Inactive)
    1  A    between atoms: C_3  and  C_31
    2  A    between atoms: C_6  and  C_28
    3  A    between atoms: C_9  and  C_27
    4  A    between atoms: C_11  and  N_21
    5  A    between atoms: C_26  and  C_27
                            x       y       z     vdW  Elec       q    Type
                         _______ _______ _______ _____ _____    ______ ____

>  <TORSDO>
F 5

$$$$
=
 OpenBabel10222422063D

 31 34  0  0  1  0  0  0  0  0999 V2000
  189.9550  177.7910  144.4200 C   0  0  1  0  0  3  0  0  0  0  0  0
  189.4480  177.4330  141.7420 N   0  0  0  0  0  0  0  0  0  0  0  0
  187.5940  177.7780  144.7720 C   0  0  0  0  0  2  0  0  0  0  0  0
  189.2550  177.7540  142.9660 C   0  0  0  0  0  0  0  0  0  0  0  0
  188.8490  177.2110  145.2730 C   0  0  2  0  0  3  0  0  0  0  0  0
  187.9280  177.8400  143.2640 C   0  0  2  0  0  3  0  0  0  0  0  0
  190.1840  176.3820  139.7790 C   0  0  0  0  0  3  0  0  0  0  0  0
  193.2530  176.8300  137.7960 O   0  0  0  0  0  1  0  0  0  0  0  0
  193.9970  178.0760  139.8260 O   0  0  0  0  0  1  0  0  0  0  0  0
  190.5180  176.9510  141.0440 C   0  0  0  0  0  0  0  0  0  0  0  0
  192.4190  176.7630  138.9250 C   0  0  0  0  0  0  0  0  0  0  0  0
  190.8650  175.6150  137.4530 C   0  0  0  0  0  1  0  0  0  0  0  0
  192.7820  177.3530  140.0540 C   0  0  0  0  0  0  0  0  0  0  0  0
  191.8790  177.4300  141.2210 C   0  0  0  0  0  3  0  0  0  0  0  0
  191.1250  176.2220  138.7500 C   0  0  0  0  0  0  0  0  0  0  0  0
  187.1300  178.4000  142.1900 C   0  0  0  0  0  0  0  0  0  0  0  0
  187.3130  178.5840  140.7370 C   0  0  0  0  0  3  0  0  0  0  0  0
  184.9880  178.3680  143.4490 C   0  0  0  0  0  3  0  0  0  0  0  0
  185.2630  178.6570  141.2150 N   0  0  0  0  0  0  0  0  0  0  0  0
  183.7180  178.5680  142.8370 C   0  0  0  0  0  3  0  0  0  0  0  0
  186.0670  178.7720  140.1650 N   0  0  0  0  0  2  0  0  0  0  0  0
  185.8350  178.4730  142.3140 C   0  0  0  0  0  0  0  0  0  0  0  0
  182.9110  178.8540  140.5110 N   0  0  0  0  0  1  0  0  0  0  0  0
  183.9370  178.6560  141.5140 C   0  0  0  0  0  0  0  0  0  0  0  0
  189.0360  177.1120  146.7450 C   0  0  0  0  0  0  0  0  0  0  0  0
  188.3830  178.2280  147.5390 C   0  0  0  0  0  1  0  0  0  0  0  0
  189.4940  176.1450  147.2560 O   0  0  0  0  0  0  0  0  0  0  0  0
  191.9790  177.5710  145.8600 O   0  0  0  0  0  1  0  0  0  0  0  0
  191.3760  177.2950  144.6130 C   0  0  1  0  0  3  0  0  0  0  0  0
  192.1230  175.1740  145.3410 O   0  0  0  0  0  1  0  0  0  0  0  0
  191.4210  175.8260  144.3270 C   0  0  0  0  0  2  0  0  0  0  0  0
  1 29  1  6  0  0  0
  1  5  1  0  0  0  0
  2  4  2  0  0  0  0
  3  5  1  0  0  0  0
  4  6  1  0  0  0  0
  4  1  1  0  0  0  0
  5 25  1  1  0  0  0
  6 16  1  1  0  0  0
  6  3  1  0  0  0  0
  7 10  1  0  0  0  0
  8 11  1  0  0  0  0
  9 13  1  0  0  0  0
 10 14  2  0  0  0  0
 10  2  1  0  0  0  0
 11 13  2  0  0  0  0
 12 15  1  0  0  0  0
 13 14  1  0  0  0  0
 15 11  1  0  0  0  0
 15  7  2  0  0  0  0
 16 22  1  0  0  0  0
 17 16  2  0  0  0  0
 19 24  1  0  0  0  0
 19 22  1  0  0  0  0
 20 18  1  0  0  0  0
 21 17  1  0  0  0  0
 21 19  1  0  0  0  0
 22 18  2  0  0  0  0
 23 24  1  0  0  0  0
 24 20  2  0  0  0  0
 25 27  2  0  0  0  0
 25 26  1  0  0  0  0
 29 28  1  1  0  0  0
 31 29  1  0  0  0  0
 31 30  1  0  0  0  0
M  END
>  <MODEL>
3

>  <REMARK>
 VINA RESULT:      -8.9      2.006      5.525
  Name = 
  5 active torsions:
  status: ('A' for Active; 'I' for Inactive)
    1  A    between atoms: C_3  and  C_31
    2  A    between atoms: C_6  and  C_28
    3  A    between atoms: C_9  and  C_27
    4  A    between atoms: C_11  and  N_21
    5  A    between atoms: C_26  and  C_27
                            x       y       z     vdW  Elec       q    Type
                         _______ _______ _______ _____ _____    ______ ____

>  <TORSDO>
F 5

$$$$
=
 OpenBabel10222422063D

 31 34  0  0  1  0  0  0  0  0999 V2000
  188.4580  178.2410  140.7590 C   0  0  1  0  0  3  0  0  0  0  0  0
  186.0280  178.0850  142.0370 N   0  0  0  0  0  0  0  0  0  0  0  0
  189.4090  177.1090  142.6320 C   0  0  0  0  0  2  0  0  0  0  0  0
  187.2970  178.1020  141.8730 C   0  0  0  0  0  0  0  0  0  0  0  0
  189.3700  177.1060  141.1680 C   0  0  2  0  0  3  0  0  0  0  0  0
  187.9520  177.5330  142.9240 C   0  0  2  0  0  3  0  0  0  0  0  0
  183.6940  178.0370  141.8210 C   0  0  0  0  0  3  0  0  0  0  0  0
  181.4020  180.1130  139.8240 O   0  0  0  0  0  1  0  0  0  0  0  0
  183.5230  180.8150  138.7130 O   0  0  0  0  0  1  0  0  0  0  0  0
  184.9610  178.2470  141.2010 C   0  0  0  0  0  0  0  0  0  0  0  0
  182.5670  179.4080  140.1710 C   0  0  0  0  0  0  0  0  0  0  0  0
  181.1700  178.3370  141.8450 C   0  0  0  0  0  1  0  0  0  0  0  0
  183.7160  179.6900  139.5780 C   0  0  0  0  0  0  0  0  0  0  0  0
  184.9900  179.0760  140.0070 C   0  0  0  0  0  3  0  0  0  0  0  0
  182.4980  178.5460  141.2890 C   0  0  0  0  0  0  0  0  0  0  0  0
  187.3410  177.8200  144.2080 C   0  0  0  0  0  0  0  0  0  0  0  0
  185.9690  177.7610  144.7510 C   0  0  0  0  0  3  0  0  0  0  0  0
  189.4710  177.8170  145.4870 C   0  0  0  0  0  3  0  0  0  0  0  0
  187.3650  177.7310  146.3280 N   0  0  0  0  0  0  0  0  0  0  0  0
  189.5290  177.7900  146.9100 C   0  0  0  0  0  3  0  0  0  0  0  0
  186.0520  177.7300  146.1320 N   0  0  0  0  0  2  0  0  0  0  0  0
  188.0640  177.7960  145.2920 C   0  0  0  0  0  0  0  0  0  0  0  0
  187.8650  177.5860  148.7360 N   0  0  0  0  0  1  0  0  0  0  0  0
  188.2640  177.6620  147.3460 C   0  0  0  0  0  0  0  0  0  0  0  0
  190.6440  176.8900  140.4320 C   0  0  0  0  0  0  0  0  0  0  0  0
  191.8450  177.5980  141.0310 C   0  0  0  0  0  1  0  0  0  0  0  0
  190.7400  176.0860  139.5660 O   0  0  0  0  0  0  0  0  0  0  0  0
  189.0520  179.1150  138.5010 O   0  0  0  0  0  1  0  0  0  0  0  0
  188.1110  178.4210  139.2930 C   0  0  1  0  0  3  0  0  0  0  0  0
  188.3180  177.0270  137.3950 O   0  0  0  0  0  1  0  0  0  0  0  0
  187.8170  177.0800  138.6950 C   0  0  0  0  0  2  0  0  0  0  0  0
  1 29  1  6  0  0  0
  1  5  1  0  0  0  0
  1  4  1  0  0  0  0
  3  6  1  0  0  0  0
  4  2  2  0  0  0  0
  4  6  1  0  0  0  0
  5 25  1  6  0  0  0
  5  3  1  0  0  0  0
  6 16  1  1  0  0  0
  8 11  1  0  0  0  0
  9 13  1  0  0  0  0
 10  7  2  0  0  0  0
 10  2  1  0  0  0  0
 11 15  2  0  0  0  0
 13 14  2  0  0  0  0
 13 11  1  0  0  0  0
 14 10  1  0  0  0  0
 15  7  1  0  0  0  0
 15 12  1  0  0  0  0
 16 17  2  0  0  0  0
 16 22  1  0  0  0  0
 17 21  1  0  0  0  0
 18 20  1  0  0  0  0
 19 24  1  0  0  0  0
 20 24  2  0  0  0  0
 21 19  1  0  0  0  0
 22 18  2  0  0  0  0
 22 19  1  0  0  0  0
 24 23  1  0  0  0  0
 25 26  1  0  0  0  0
 27 25  2  0  0  0  0
 29 28  1  6  0  0  0
 30 31  1  0  0  0  0
 31 29  1  0  0  0  0
M  END
>  <MODEL>
4

>  <REMARK>
 VINA RESULT:      -8.6      2.473      6.649
  Name = 
  5 active torsions:
  status: ('A' for Active; 'I' for Inactive)
    1  A    between atoms: C_3  and  C_31
    2  A    between atoms: C_6  and  C_28
    3  A    between atoms: C_9  and  C_27
    4  A    between atoms: C_11  and  N_21
    5  A    between atoms: C_26  and  C_27
                            x       y       z     vdW  Elec       q    Type
                         _______ _______ _______ _____ _____    ______ ____

>  <TORSDO>
F 5

$$$$
=
 OpenBabel10222422063D

 31 34  0  0  1  0  0  0  0  0999 V2000
  188.1080  177.2040  141.9730 C   0  0  1  0  0  3  0  0  0  0  0  0
  187.1000  177.6190  144.4970 N   0  0  0  0  0  0  0  0  0  0  0  0
  186.5050  178.7830  141.1750 C   0  0  0  0  0  2  0  0  0  0  0  0
  187.1560  177.5890  143.2180 C   0  0  0  0  0  0  0  0  0  0  0  0
  187.9240  178.4230  141.0970 C   0  0  2  0  0  3  0  0  0  0  0  0
  186.2310  178.4140  142.6510 C   0  0  2  0  0  3  0  0  0  0  0  0
  189.2560  176.8800  145.0460 C   0  0  0  0  0  3  0  0  0  0  0  0
  191.3860  177.5780  147.9660 O   0  0  0  0  0  1  0  0  0  0  0  0
  189.2520  178.4700  148.9030 O   0  0  0  0  0  1  0  0  0  0  0  0
  187.9490  177.2340  145.4930 C   0  0  0  0  0  0  0  0  0  0  0  0
  190.2170  177.3480  147.2200 C   0  0  0  0  0  0  0  0  0  0  0  0
  191.7210  176.4800  145.5220 C   0  0  0  0  0  1  0  0  0  0  0  0
  189.0430  177.7440  147.6870 C   0  0  0  0  0  0  0  0  0  0  0  0
  187.8090  177.6510  146.8790 C   0  0  0  0  0  3  0  0  0  0  0  0
  190.3700  176.8670  145.9000 C   0  0  0  0  0  0  0  0  0  0  0  0
  184.9670  178.4400  143.3620 C   0  0  0  0  0  0  0  0  0  0  0  0
  184.5400  178.8170  144.7240 C   0  0  0  0  0  3  0  0  0  0  0  0
  183.5500  178.2790  141.3280 C   0  0  0  0  0  3  0  0  0  0  0  0
  182.8860  178.8540  143.4210 N   0  0  0  0  0  0  0  0  0  0  0  0
  182.1450  178.5180  141.3320 C   0  0  0  0  0  3  0  0  0  0  0  0
  183.1760  179.0480  144.7010 N   0  0  0  0  0  2  0  0  0  0  0  0
  183.8480  178.5090  142.6970 C   0  0  0  0  0  0  0  0  0  0  0  0
  180.4960  179.2860  143.0140 N   0  0  0  0  0  1  0  0  0  0  0  0
  181.8270  178.9270  142.5720 C   0  0  0  0  0  0  0  0  0  0  0  0
  188.5890  178.4780  139.7690 C   0  0  0  0  0  0  0  0  0  0  0  0
  188.2210  177.3410  138.8330 C   0  0  0  0  0  1  0  0  0  0  0  0
  189.2050  179.4260  139.4140 O   0  0  0  0  0  0  0  0  0  0  0  0
  190.0060  175.7710  141.2250 O   0  0  0  0  0  1  0  0  0  0  0  0
  189.5060  176.6600  142.2010 C   0  0  1  0  0  3  0  0  0  0  0  0
  191.6090  177.5870  141.6500 O   0  0  0  0  0  1  0  0  0  0  0  0
  190.4480  177.8080  142.3900 C   0  0  0  0  0  2  0  0  0  0  0  0
  1 29  1  1  0  0  0
  1  4  1  0  0  0  0
  2 10  1  0  0  0  0
  3  6  1  0  0  0  0
  4  2  2  0  0  0  0
  5 25  1  6  0  0  0
  5  3  1  0  0  0  0
  5  1  1  0  0  0  0
  6  4  1  0  0  0  0
  6 16  1  6  0  0  0
  7 10  2  0  0  0  0
  7 15  1  0  0  0  0
 10 14  1  0  0  0  0
 11 13  1  0  0  0  0
 11  8  1  0  0  0  0
 12 15  1  0  0  0  0
 13  9  1  0  0  0  0
 14 13  2  0  0  0  0
 15 11  2  0  0  0  0
 16 17  2  0  0  0  0
 18 20  1  0  0  0  0
 18 22  2  0  0  0  0
 19 21  1  0  0  0  0
 20 24  2  0  0  0  0
 21 17  1  0  0  0  0
 22 16  1  0  0  0  0
 22 19  1  0  0  0  0
 24 23  1  0  0  0  0
 24 19  1  0  0  0  0
 26 25  1  0  0  0  0
 27 25  2  0  0  0  0
 29 28  1  6  0  0  0
 29 31  1  0  0  0  0
 30 31  1  0  0  0  0
M  END
>  <MODEL>
5

>  <REMARK>
 VINA RESULT:      -8.5      1.752      2.504
  Name = 
  5 active torsions:
  status: ('A' for Active; 'I' for Inactive)
    1  A    between atoms: C_3  and  C_31
    2  A    between atoms: C_6  and  C_28
    3  A    between atoms: C_9  and  C_27
    4  A    between atoms: C_11  and  N_21
    5  A    between atoms: C_26  and  C_27
                            x       y       z     vdW  Elec       q    Type
                         _______ _______ _______ _____ _____    ______ ____

>  <TORSDO>
F 5

$$$$
=
 OpenBabel10222422063D

 31 34  0  0  1  0  0  0  0  0999 V2000
  186.0930  177.7140  142.9780 C   0  0  1  0  0  3  0  0  0  0  0  0
  188.7560  177.5930  142.3050 N   0  0  0  0  0  0  0  0  0  0  0  0
  186.7760  178.0760  145.2360 C   0  0  0  0  0  2  0  0  0  0  0  0
  187.6980  177.5460  143.0240 C   0  0  0  0  0  0  0  0  0  0  0  0
  185.8710  178.5780  144.1990 C   0  0  2  0  0  3  0  0  0  0  0  0
  187.9800  177.6790  144.3500 C   0  0  2  0  0  3  0  0  0  0  0  0
  189.9500  176.9070  140.4080 C   0  0  0  0  0  3  0  0  0  0  0  0
  188.9790  176.7470  136.8600 O   0  0  0  0  0  1  0  0  0  0  0  0
  187.0690  178.1440  137.6550 O   0  0  0  0  0  1  0  0  0  0  0  0
  188.9920  177.7980  140.9760 C   0  0  0  0  0  0  0  0  0  0  0  0
  189.0400  177.2170  138.1840 C   0  0  0  0  0  0  0  0  0  0  0  0
  191.0030  175.7990  138.3760 C   0  0  0  0  0  1  0  0  0  0  0  0
  188.0890  178.0100  138.6510 C   0  0  0  0  0  0  0  0  0  0  0  0
  188.0360  178.4140  140.0720 C   0  0  0  0  0  3  0  0  0  0  0  0
  190.0290  176.6620  139.0280 C   0  0  0  0  0  0  0  0  0  0  0  0
  189.2070  177.0160  144.7490 C   0  0  0  0  0  0  0  0  0  0  0  0
  190.4350  176.5810  144.0540 C   0  0  0  0  0  3  0  0  0  0  0  0
  188.9170  177.4290  147.1820 C   0  0  0  0  0  3  0  0  0  0  0  0
  190.8060  176.7550  146.1200 N   0  0  0  0  0  0  0  0  0  0  0  0
  189.9550  177.2350  148.1380 C   0  0  0  0  0  3  0  0  0  0  0  0
  191.4280  176.4040  145.0010 N   0  0  0  0  0  2  0  0  0  0  0  0
  189.6010  177.0700  145.9900 C   0  0  0  0  0  0  0  0  0  0  0  0
  192.3580  176.6360  148.0290 N   0  0  0  0  0  1  0  0  0  0  0  0
  191.0610  176.9120  147.4450 C   0  0  0  0  0  0  0  0  0  0  0  0
  184.4840  178.9430  144.5950 C   0  0  0  0  0  0  0  0  0  0  0  0
  184.0580  178.4140  145.9520 C   0  0  0  0  0  1  0  0  0  0  0  0
  183.8440  179.7320  143.9850 O   0  0  0  0  0  0  0  0  0  0  0  0
  184.0340  177.6650  141.5720 O   0  0  0  0  0  1  0  0  0  0  0  0
  185.3840  178.0660  141.6830 C   0  0  1  0  0  3  0  0  0  0  0  0
  184.8840  179.8730  140.2450 O   0  0  0  0  0  1  0  0  0  0  0  0
  185.5110  179.5380  141.4450 C   0  0  0  0  0  2  0  0  0  0  0  0
  1 29  1  6  0  0  0
  1  4  1  0  0  0  0
  1  5  1  0  0  0  0
  2  4  2  0  0  0  0
  4  6  1  0  0  0  0
  5 25  1  1  0  0  0
  5  3  1  0  0  0  0
  6 16  1  1  0  0  0
  6  3  1  0  0  0  0
  7 10  1  0  0  0  0
  8 11  1  0  0  0  0
  9 13  1  0  0  0  0
 10  2  1  0  0  0  0
 11 13  2  0  0  0  0
 11 15  1  0  0  0  0
 12 15  1  0  0  0  0
 13 14  1  0  0  0  0
 14 10  2  0  0  0  0
 15  7  2  0  0  0  0
 16 22  1  0  0  0  0
 17 16  2  0  0  0  0
 17 21  1  0  0  0  0
 18 20  1  0  0  0  0
 19 24  1  0  0  0  0
 21 19  1  0  0  0  0
 22 19  1  0  0  0  0
 22 18  2  0  0  0  0
 24 23  1  0  0  0  0
 24 20  2  0  0  0  0
 25 26  1  0  0  0  0
 27 25  2  0  0  0  0
 29 28  1  1  0  0  0
 30 31  1  0  0  0  0
 31 29  1  0  0  0  0
M  END
>  <MODEL>
6

>  <REMARK>
 VINA RESULT:      -8.4      3.354      6.918
  Name = 
  5 active torsions:
  status: ('A' for Active; 'I' for Inactive)
    1  A    between atoms: C_3  and  C_31
    2  A    between atoms: C_6  and  C_28
    3  A    between atoms: C_9  and  C_27
    4  A    between atoms: C_11  and  N_21
    5  A    between atoms: C_26  and  C_27
                            x       y       z     vdW  Elec       q    Type
                         _______ _______ _______ _____ _____    ______ ____

>  <TORSDO>
F 5

$$$$
=
 OpenBabel10222422063D

 31 34  0  0  1  0  0  0  0  0999 V2000
  189.2830  177.9460  139.8260 C   0  0  1  0  0  3  0  0  0  0  0  0
  188.7120  177.7080  142.5050 N   0  0  0  0  0  0  0  0  0  0  0  0
  191.4930  177.1950  140.3260 C   0  0  0  0  0  2  0  0  0  0  0  0
  189.3990  177.8390  141.4320 C   0  0  0  0  0  0  0  0  0  0  0  0
  190.3720  176.9840  139.4060 C   0  0  2  0  0  3  0  0  0  0  0  0
  190.7040  177.4960  141.6210 C   0  0  2  0  0  3  0  0  0  0  0  0
  187.0540  177.6840  144.1620 C   0  0  0  0  0  3  0  0  0  0  0  0
  183.6570  179.1020  144.2110 O   0  0  0  0  0  1  0  0  0  0  0  0
  184.0660  179.3290  141.7590 O   0  0  0  0  0  1  0  0  0  0  0  0
  187.3760  177.6360  142.7730 C   0  0  0  0  0  0  0  0  0  0  0  0
  184.8190  178.4990  143.7000 C   0  0  0  0  0  0  0  0  0  0  0  0
  185.3710  178.0750  146.0270 C   0  0  0  0  0  1  0  0  0  0  0  0
  185.0680  178.5330  142.4000 C   0  0  0  0  0  0  0  0  0  0  0  0
  186.3420  178.0390  141.8350 C   0  0  0  0  0  3  0  0  0  0  0  0
  185.7800  178.0430  144.6310 C   0  0  0  0  0  0  0  0  0  0  0  0
  191.2230  177.8910  142.9170 C   0  0  0  0  0  0  0  0  0  0  0  0
  191.2050  179.1310  143.7180 C   0  0  0  0  0  3  0  0  0  0  0  0
  191.6070  175.5740  143.7300 C   0  0  0  0  0  3  0  0  0  0  0  0
  191.5870  177.4780  144.9660 N   0  0  0  0  0  0  0  0  0  0  0  0
  191.8860  175.2600  145.0920 C   0  0  0  0  0  3  0  0  0  0  0  0
  191.4730  178.7980  145.0340 N   0  0  0  0  0  2  0  0  0  0  0  0
  191.4690  176.9850  143.8210 C   0  0  0  0  0  0  0  0  0  0  0  0
  191.9840  176.5420  147.2100 N   0  0  0  0  0  1  0  0  0  0  0  0
  191.7850  176.4080  145.7820 C   0  0  0  0  0  0  0  0  0  0  0  0
  190.6740  176.8070  137.9610 C   0  0  0  0  0  0  0  0  0  0  0  0
  191.0330  175.3870  137.5620 C   0  0  0  0  0  1  0  0  0  0  0  0
  190.4690  177.6630  137.1670 O   0  0  0  0  0  0  0  0  0  0  0  0
  187.6570  178.8910  138.1890 O   0  0  0  0  0  1  0  0  0  0  0  0
  187.9320  177.8820  139.1370 C   0  0  1  0  0  3  0  0  0  0  0  0
  187.0340  176.6410  137.3380 O   0  0  0  0  0  1  0  0  0  0  0  0
  187.7660  176.5290  138.5190 C   0  0  0  0  0  2  0  0  0  0  0  0
  1 29  1  6  0  0  0
  1  4  1  0  0  0  0
  2 10  1  0  0  0  0
  3  6  1  0  0  0  0
  4  6  1  0  0  0  0
  4  2  2  0  0  0  0
  5 25  1  6  0  0  0
  5  1  1  0  0  0  0
  5  3  1  0  0  0  0
  6 16  1  6  0  0  0
  7 15  1  0  0  0  0
  9 13  1  0  0  0  0
 10  7  2  0  0  0  0
 11  8  1  0  0  0  0
 11 15  2  0  0  0  0
 13 11  1  0  0  0  0
 14 13  2  0  0  0  0
 14 10  1  0  0  0  0
 15 12  1  0  0  0  0
 16 17  2  0  0  0  0
 16 22  1  0  0  0  0
 17 21  1  0  0  0  0
 18 22  2  0  0  0  0
 18 20  1  0  0  0  0
 19 21  1  0  0  0  0
 19 24  1  0  0  0  0
 20 24  2  0  0  0  0
 22 19  1  0  0  0  0
 24 23  1  0  0  0  0
 26 25  1  0  0  0  0
 27 25  2  0  0  0  0
 29 28  1  6  0  0  0
 30 31  1  0  0  0  0
 31 29  1  0  0  0  0
M  END
>  <MODEL>
7

>  <REMARK>
 VINA RESULT:      -8.2      3.194      6.030
  Name = 
  5 active torsions:
  status: ('A' for Active; 'I' for Inactive)
    1  A    between atoms: C_3  and  C_31
    2  A    between atoms: C_6  and  C_28
    3  A    between atoms: C_9  and  C_27
    4  A    between atoms: C_11  and  N_21
    5  A    between atoms: C_26  and  C_27
                            x       y       z     vdW  Elec       q    Type
                         _______ _______ _______ _____ _____    ______ ____

>  <TORSDO>
F 5

$$$$
=
 OpenBabel10222422063D

 31 34  0  0  1  0  0  0  0  0999 V2000
  188.8510  176.6880  137.9050 C   0  0  1  0  0  3  0  0  0  0  0  0
  191.3470  176.3010  138.9910 N   0  0  0  0  0  0  0  0  0  0  0  0
  188.4610  178.3070  139.6140 C   0  0  0  0  0  2  0  0  0  0  0  0
  190.1140  176.6370  138.9080 C   0  0  0  0  0  0  0  0  0  0  0  0
  188.3440  178.0880  138.1700 C   0  0  2  0  0  3  0  0  0  0  0  0
  189.7620  177.5190  139.8860 C   0  0  2  0  0  3  0  0  0  0  0  0
  191.7550  174.5070  137.5380 C   0  0  0  0  0  3  0  0  0  0  0  0
  193.5820  174.3420  134.3460 O   0  0  0  0  0  1  0  0  0  0  0  0
  194.3940  176.5890  135.0670 O   0  0  0  0  0  1  0  0  0  0  0  0
  192.2300  175.7130  138.1330 C   0  0  0  0  0  0  0  0  0  0  0  0
  193.2560  174.7490  135.6510 C   0  0  0  0  0  0  0  0  0  0  0  0
  191.8880  172.7430  135.7120 C   0  0  0  0  0  1  0  0  0  0  0  0
  193.7030  175.9050  136.1180 C   0  0  0  0  0  0  0  0  0  0  0  0
  193.2740  176.4390  137.4270 C   0  0  0  0  0  3  0  0  0  0  0  0
  192.2950  173.9850  136.3520 C   0  0  0  0  0  0  0  0  0  0  0  0
  190.4000  177.2510  141.1610 C   0  0  0  0  0  0  0  0  0  0  0  0
  191.7420  177.4870  141.7300 C   0  0  0  0  0  3  0  0  0  0  0  0
  188.2840  176.8520  142.4010 C   0  0  0  0  0  3  0  0  0  0  0  0
  190.3450  177.2080  143.2820 N   0  0  0  0  0  0  0  0  0  0  0  0
  188.2110  176.7850  143.8230 C   0  0  0  0  0  3  0  0  0  0  0  0
  191.6440  177.4210  143.1090 N   0  0  0  0  0  2  0  0  0  0  0  0
  189.6720  177.1000  142.2320 C   0  0  0  0  0  0  0  0  0  0  0  0
  189.8100  177.1290  145.6850 N   0  0  0  0  0  1  0  0  0  0  0  0
  189.4380  177.0770  144.2860 C   0  0  0  0  0  0  0  0  0  0  0  0
  187.1120  178.5630  137.4850 C   0  0  0  0  0  0  0  0  0  0  0  0
  185.8200  178.0280  138.0740 C   0  0  0  0  0  1  0  0  0  0  0  0
  187.1380  179.4270  136.6740 O   0  0  0  0  0  0  0  0  0  0  0  0
  187.7750  175.8520  135.8160 O   0  0  0  0  0  1  0  0  0  0  0  0
  188.9750  176.2050  136.4720 C   0  0  1  0  0  3  0  0  0  0  0  0
  190.5690  176.5960  134.7710 O   0  0  0  0  0  1  0  0  0  0  0  0
  189.7200  177.2310  135.6760 C   0  0  0  0  0  2  0  0  0  0  0  0
  1 29  1  6  0  0  0
  1  5  1  0  0  0  0
  1  4  1  0  0  0  0
  3  6  1  0  0  0  0
  4  2  2  0  0  0  0
  4  6  1  0  0  0  0
  5 25  1  1  0  0  0
  5  3  1  0  0  0  0
  6 16  1  1  0  0  0
  7 10  1  0  0  0  0
  8 11  1  0  0  0  0
  9 13  1  0  0  0  0
 10  2  1  0  0  0  0
 11 13  2  0  0  0  0
 11 15  1  0  0  0  0
 12 15  1  0  0  0  0
 13 14  1  0  0  0  0
 14 10  2  0  0  0  0
 15  7  2  0  0  0  0
 16 17  2  0  0  0  0
 16 22  1  0  0  0  0
 17 21  1  0  0  0  0
 18 20  1  0  0  0  0
 19 24  1  0  0  0  0
 20 24  2  0  0  0  0
 21 19  1  0  0  0  0
 22 18  2  0  0  0  0
 22 19  1  0  0  0  0
 24 23  1  0  0  0  0
 25 26  1  0  0  0  0
 27 25  2  0  0  0  0
 29 28  1  6  0  0  0
 30 31  1  0  0  0  0
 31 29  1  0  0  0  0
M  END
>  <MODEL>
8

>  <REMARK>
 VINA RESULT:      -8.1      4.266      6.620
  Name = 
  5 active torsions:
  status: ('A' for Active; 'I' for Inactive)
    1  A    between atoms: C_3  and  C_31
    2  A    between atoms: C_6  and  C_28
    3  A    between atoms: C_9  and  C_27
    4  A    between atoms: C_11  and  N_21
    5  A    between atoms: C_26  and  C_27
                            x       y       z     vdW  Elec       q    Type
                         _______ _______ _______ _____ _____    ______ ____

>  <TORSDO>
F 5

$$$$
=
 OpenBabel10222422063D

 31 34  0  0  1  0  0  0  0  0999 V2000
  188.5180  178.2830  140.5780 C   0  0  1  0  0  3  0  0  0  0  0  0
  186.1350  178.3680  141.9450 N   0  0  0  0  0  0  0  0  0  0  0  0
  189.3620  176.8910  142.3230 C   0  0  0  0  0  2  0  0  0  0  0  0
  187.3870  178.2220  141.7280 C   0  0  0  0  0  0  0  0  0  0  0  0
  189.2740  177.0050  140.8650 C   0  0  2  0  0  3  0  0  0  0  0  0
  187.9890  177.4890  142.7070 C   0  0  2  0  0  3  0  0  0  0  0  0
  185.1500  178.2900  139.8180 C   0  0  0  0  0  3  0  0  0  0  0  0
  181.6230  178.0560  138.7890 O   0  0  0  0  0  1  0  0  0  0  0  0
  181.2220  178.6230  141.1860 O   0  0  0  0  0  1  0  0  0  0  0  0
  185.0740  178.7400  141.1700 C   0  0  0  0  0  0  0  0  0  0  0  0
  182.7450  178.4190  139.5540 C   0  0  0  0  0  0  0  0  0  0  0  0
  184.0300  177.7790  137.5940 C   0  0  0  0  0  1  0  0  0  0  0  0
  182.5960  178.7870  140.8170 C   0  0  0  0  0  0  0  0  0  0  0  0
  183.7540  179.0410  141.6990 C   0  0  0  0  0  3  0  0  0  0  0  0
  184.0210  178.1900  138.9900 C   0  0  0  0  0  0  0  0  0  0  0  0
  187.4670  177.7590  144.0330 C   0  0  0  0  0  0  0  0  0  0  0  0
  186.1280  177.7420  144.6550 C   0  0  0  0  0  3  0  0  0  0  0  0
  189.6650  177.6170  145.1830 C   0  0  0  0  0  3  0  0  0  0  0  0
  187.6090  177.5960  146.1450 N   0  0  0  0  0  0  0  0  0  0  0  0
  189.8040  177.5390  146.5990 C   0  0  0  0  0  3  0  0  0  0  0  0
  186.2890  177.6610  146.0270 N   0  0  0  0  0  2  0  0  0  0  0  0
  188.2500  177.6660  145.0710 C   0  0  0  0  0  0  0  0  0  0  0  0
  188.2410  177.3480  148.5130 N   0  0  0  0  0  1  0  0  0  0  0  0
  188.5610  177.4530  147.1040 C   0  0  0  0  0  0  0  0  0  0  0  0
  190.4800  176.6710  140.0610 C   0  0  0  0  0  0  0  0  0  0  0  0
  191.7460  177.3830  140.5010 C   0  0  0  0  0  1  0  0  0  0  0  0
  190.4830  175.7880  139.2710 O   0  0  0  0  0  0  0  0  0  0  0  0
  189.0760  179.4100  138.4250 O   0  0  0  0  0  1  0  0  0  0  0  0
  188.1530  178.6210  139.1440 C   0  0  1  0  0  3  0  0  0  0  0  0
  187.5010  177.6470  137.0920 O   0  0  0  0  0  1  0  0  0  0  0  0
  187.8660  177.3510  138.4040 C   0  0  0  0  0  2  0  0  0  0  0  0
  1 29  1  6  0  0  0
  1  5  1  0  0  0  0
  1  4  1  0  0  0  0
  3  6  1  0  0  0  0
  4  2  2  0  0  0  0
  4  6  1  0  0  0  0
  5 25  1  6  0  0  0
  5  3  1  0  0  0  0
  6 16  1  1  0  0  0
  7 10  1  0  0  0  0
  8 11  1  0  0  0  0
 10 14  2  0  0  0  0
 10  2  1  0  0  0  0
 11 13  2  0  0  0  0
 12 15  1  0  0  0  0
 13  9  1  0  0  0  0
 13 14  1  0  0  0  0
 15 11  1  0  0  0  0
 15  7  2  0  0  0  0
 16 17  2  0  0  0  0
 16 22  1  0  0  0  0
 17 21  1  0  0  0  0
 18 20  1  0  0  0  0
 19 24  1  0  0  0  0
 20 24  2  0  0  0  0
 21 19  1  0  0  0  0
 22 18  2  0  0  0  0
 22 19  1  0  0  0  0
 24 23  1  0  0  0  0
 25 26  1  0  0  0  0
 27 25  2  0  0  0  0
 29 28  1  6  0  0  0
 30 31  1  0  0  0  0
 31 29  1  0  0  0  0
M  END
>  <MODEL>
9

>  <REMARK>
 VINA RESULT:      -8.1      2.723      6.740
  Name = 
  5 active torsions:
  status: ('A' for Active; 'I' for Inactive)
    1  A    between atoms: C_3  and  C_31
    2  A    between atoms: C_6  and  C_28
    3  A    between atoms: C_9  and  C_27
    4  A    between atoms: C_11  and  N_21
    5  A    between atoms: C_26  and  C_27
                            x       y       z     vdW  Elec       q    Type
                         _______ _______ _______ _____ _____    ______ ____

>  <TORSDO>
F 5

$$$$
