=
 OpenBabel10232408133D

 32 35  0  0  0  0  0  0  0  0999 V2000
  187.6510  177.1050  148.1480 O   0  0  0  0  0  0  0  0  0  0  0  0
  191.5610  176.3480  147.1510 C   0  0  0  0  0  0  0  0  0  0  0  0
  192.4360  175.9500  148.1510 O   0  0  0  0  0  1  0  0  0  0  0  0
  185.8380  178.6520  146.7590 C   0  0  0  0  0  3  0  0  0  0  0  0
  184.7460  179.1770  146.0750 C   0  0  0  0  0  3  0  0  0  0  0  0
  184.5860  178.9380  144.7060 C   0  0  0  0  0  0  0  0  0  0  0  0
  190.2300  176.6310  147.4590 C   0  0  0  0  0  3  0  0  0  0  0  0
  189.3130  177.0400  146.4710 C   0  0  0  0  0  0  0  0  0  0  0  0
  192.0090  176.4700  145.8390 C   0  0  0  0  0  3  0  0  0  0  0  0
  186.6430  177.6210  144.7240 C   0  0  0  0  0  0  0  0  0  0  0  0
  185.5390  178.1610  144.0260 C   0  0  0  0  0  0  0  0  0  0  0  0
  191.1250  176.8730  144.8390 C   0  0  0  0  0  3  0  0  0  0  0  0
  186.8070  177.8810  146.1020 C   0  0  0  0  0  0  0  0  0  0  0  0
  188.9440  177.5770  143.9820 C   0  0  0  0  0  2  0  0  0  0  0  0
  187.9140  177.3250  146.9330 C   0  0  0  0  0  0  0  0  0  0  0  0
  189.7860  177.1550  145.1340 C   0  0  0  0  0  0  0  0  0  0  0  0
  187.6460  176.8100  143.9830 C   0  0  0  0  0  2  0  0  0  0  0  0
  185.3470  177.8870  142.5640 C   0  0  0  0  0  2  0  0  0  0  0  0
  186.2890  178.7160  141.7590 C   0  0  0  0  0  3  0  0  0  0  0  0
  187.1440  178.1340  140.9260 C   0  0  0  0  0  3  0  0  0  0  0  0
  188.0860  178.9680  140.1230 C   0  0  0  0  0  2  0  0  0  0  0  0
  190.0270  177.3970  140.2690 C   0  0  0  0  0  3  0  0  0  0  0  0
  191.0050  176.6010  139.6650 C   0  0  0  0  0  3  0  0  0  0  0  0
  191.0730  176.5130  138.2710 C   0  0  0  0  0  3  0  0  0  0  0  0
  190.1640  177.2230  137.4810 C   0  0  0  0  0  3  0  0  0  0  0  0
  189.1140  178.1040  139.4790 C   0  0  0  0  0  0  0  0  0  0  0  0
  189.1870  178.0200  138.0840 C   0  0  0  0  0  3  0  0  0  0  0  0
  183.4920  179.4650  144.0040 O   0  0  0  0  0  0  0  0  0  0  0  0
  182.1810  178.9090  144.0610 C   0  0  0  0  0  2  0  0  0  0  0  0
  181.4210  179.2130  142.7820 C   0  0  0  0  0  2  0  0  0  0  0  0
  181.1610  178.4330  140.7340 C   0  0  0  0  0  1  0  0  0  0  0  0
  182.1360  178.7400  141.6810 O   0  0  0  0  0  0  0  0  0  0  0  0
  2  7  1  0  0  0  0
  2  3  1  0  0  0  0
  5  4  2  0  0  0  0
  6  5  1  0  0  0  0
  8 15  1  0  0  0  0
  8  7  2  0  0  0  0
  9  2  2  0  0  0  0
 10 13  2  0  0  0  0
 11  6  2  0  0  0  0
 11 10  1  0  0  0  0
 12 16  2  0  0  0  0
 12  9  1  0  0  0  0
 13  4  1  0  0  0  0
 13 15  1  0  0  0  0
 14 17  1  0  0  0  0
 14 16  1  0  0  0  0
 15  1  2  0  0  0  0
 16  8  1  0  0  0  0
 17 10  1  0  0  0  0
 18 11  1  0  0  0  0
 19 18  1  0  0  0  0
 20 19  2  0  0  0  0
 21 20  1  0  0  0  0
 23 22  1  0  0  0  0
 24 23  2  0  0  0  0
 25 27  2  0  0  0  0
 25 24  1  0  0  0  0
 26 21  1  0  0  0  0
 26 22  2  0  0  0  0
 27 26  1  0  0  0  0
 28 29  1  0  0  0  0
 28  6  1  0  0  0  0
 30 29  1  0  0  0  0
 31 32  1  0  0  0  0
 32 30  1  0  0  0  0
M  END
>  <MODEL>
1

>  <REMARK>
 VINA RESULT:      -9.3      0.000      0.000
  Name = 
  8 active torsions:
  status: ('A' for Active; 'I' for Inactive)
    1  A    between atoms: C_4  and  C_14
    2  A    between atoms: C_4  and  C_31
    3  A    between atoms: C_12  and  O_28
    4  A    between atoms: C_15  and  C_20
    5  A    between atoms: C_18  and  O_19
    6  A    between atoms: C_18  and  C_25
    7  A    between atoms: C_20  and  C_22
    8  A    between atoms: C_25  and  O_28
                            x       y       z     vdW  Elec       q    Type
                         _______ _______ _______ _____ _____    ______ ____

>  <TORSDO>
F 8

$$$$
=
 OpenBabel10232408133D

 32 35  0  0  0  0  0  0  0  0999 V2000
  185.5010  178.7730  147.0390 O   0  0  0  0  0  0  0  0  0  0  0  0
  183.1070  178.7380  143.7040 C   0  0  0  0  0  0  0  0  0  0  0  0
  181.7630  179.0540  143.8490 O   0  0  0  0  0  1  0  0  0  0  0  0
  187.9060  177.4680  147.3870 C   0  0  0  0  0  3  0  0  0  0  0  0
  189.2220  177.0940  147.6410 C   0  0  0  0  0  3  0  0  0  0  0  0
  190.2050  177.2470  146.6570 C   0  0  0  0  0  0  0  0  0  0  0  0
  183.9440  178.7240  144.8190 C   0  0  0  0  0  3  0  0  0  0  0  0
  185.3120  178.4060  144.7130 C   0  0  0  0  0  0  0  0  0  0  0  0
  183.6210  178.4340  142.4470 C   0  0  0  0  0  3  0  0  0  0  0  0
  188.5170  178.1720  145.1540 C   0  0  0  0  0  0  0  0  0  0  0  0
  189.8520  177.7830  145.4080 C   0  0  0  0  0  0  0  0  0  0  0  0
  184.9710  178.1160  142.3100 C   0  0  0  0  0  3  0  0  0  0  0  0
  187.5260  177.9990  146.1460 C   0  0  0  0  0  0  0  0  0  0  0  0
  187.2410  177.7460  143.1450 C   0  0  0  0  0  2  0  0  0  0  0  0
  186.1020  178.4140  145.9880 C   0  0  0  0  0  0  0  0  0  0  0  0
  185.8230  178.1020  143.4200 C   0  0  0  0  0  0  0  0  0  0  0  0
  188.1620  178.7300  143.8210 C   0  0  0  0  0  2  0  0  0  0  0  0
  190.9160  177.9700  144.3680 C   0  0  0  0  0  2  0  0  0  0  0  0
  190.7180  176.9990  143.2530 C   0  0  0  0  0  3  0  0  0  0  0  0
  190.9880  177.3560  142.0020 C   0  0  0  0  0  3  0  0  0  0  0  0
  190.7870  176.3820  140.8900 C   0  0  0  0  0  2  0  0  0  0  0  0
  190.5450  176.9200  138.4600 C   0  0  0  0  0  3  0  0  0  0  0  0
  189.8710  177.5440  137.4060 C   0  0  0  0  0  3  0  0  0  0  0  0
  188.7100  178.2820  137.6570 C   0  0  0  0  0  3  0  0  0  0  0  0
  188.2230  178.3960  138.9630 C   0  0  0  0  0  3  0  0  0  0  0  0
  190.0560  177.0300  139.7660 C   0  0  0  0  0  0  0  0  0  0  0  0
  188.8980  177.7730  140.0170 C   0  0  0  0  0  3  0  0  0  0  0  0
  191.5330  176.8680  146.8990 O   0  0  0  0  0  0  0  0  0  0  0  0
  191.9050  175.5900  147.4080 C   0  0  0  0  0  2  0  0  0  0  0  0
  192.9640  175.7370  148.4870 C   0  0  0  0  0  2  0  0  0  0  0  0
  193.8450  177.0100  150.0600 C   0  0  0  0  0  1  0  0  0  0  0  0
  192.9520  177.0380  148.9900 O   0  0  0  0  0  0  0  0  0  0  0  0
  2  3  1  0  0  0  0
  2  7  1  0  0  0  0
  4  5  1  0  0  0  0
  6 28  1  0  0  0  0
  6  5  2  0  0  0  0
  8  7  2  0  0  0  0
  8 15  1  0  0  0  0
  9  2  2  0  0  0  0
 10 11  2  0  0  0  0
 10 13  1  0  0  0  0
 11  6  1  0  0  0  0
 12  9  1  0  0  0  0
 12 16  2  0  0  0  0
 13  4  2  0  0  0  0
 14 16  1  0  0  0  0
 14 17  1  0  0  0  0
 15 13  1  0  0  0  0
 15  1  2  0  0  0  0
 16  8  1  0  0  0  0
 17 10  1  0  0  0  0
 18 11  1  0  0  0  0
 19 18  1  0  0  0  0
 20 19  2  0  0  0  0
 21 20  1  0  0  0  0
 22 26  1  0  0  0  0
 23 24  1  0  0  0  0
 23 22  2  0  0  0  0
 24 25  2  0  0  0  0
 25 27  1  0  0  0  0
 26 27  2  0  0  0  0
 26 21  1  0  0  0  0
 28 29  1  0  0  0  0
 29 30  1  0  0  0  0
 30 32  1  0  0  0  0
 32 31  1  0  0  0  0
M  END
>  <MODEL>
2

>  <REMARK>
 VINA RESULT:      -9.1      1.423      6.831
  Name = 
  8 active torsions:
  status: ('A' for Active; 'I' for Inactive)
    1  A    between atoms: C_4  and  C_14
    2  A    between atoms: C_4  and  C_31
    3  A    between atoms: C_12  and  O_28
    4  A    between atoms: C_15  and  C_20
    5  A    between atoms: C_18  and  O_19
    6  A    between atoms: C_18  and  C_25
    7  A    between atoms: C_20  and  C_22
    8  A    between atoms: C_25  and  O_28
                            x       y       z     vdW  Elec       q    Type
                         _______ _______ _______ _____ _____    ______ ____

>  <TORSDO>
F 8

$$$$
=
 OpenBabel10232408133D

 32 35  0  0  0  0  0  0  0  0999 V2000
  191.8150  177.2800  140.7150 O   0  0  0  0  0  0  0  0  0  0  0  0
  189.0610  177.9660  137.7490 C   0  0  0  0  0  0  0  0  0  0  0  0
  189.4900  177.9520  136.4290 O   0  0  0  0  0  1  0  0  0  0  0  0
  191.6320  178.0050  143.3700 C   0  0  0  0  0  3  0  0  0  0  0  0
  191.5980  178.0690  144.7600 C   0  0  0  0  0  3  0  0  0  0  0  0
  190.4310  177.7370  145.4560 C   0  0  0  0  0  0  0  0  0  0  0  0
  189.9740  177.7550  138.7820 C   0  0  0  0  0  3  0  0  0  0  0  0
  189.5770  177.7640  140.1330 C   0  0  0  0  0  0  0  0  0  0  0  0
  187.7200  178.1950  138.0450 C   0  0  0  0  0  3  0  0  0  0  0  0
  189.3290  177.2640  143.3280 C   0  0  0  0  0  0  0  0  0  0  0  0
  189.2910  177.3380  144.7400 C   0  0  0  0  0  0  0  0  0  0  0  0
  187.2970  178.2090  139.3730 C   0  0  0  0  0  3  0  0  0  0  0  0
  190.5050  177.6170  142.6310 C   0  0  0  0  0  0  0  0  0  0  0  0
  187.6290  178.0360  141.7910 C   0  0  0  0  0  2  0  0  0  0  0  0
  190.6570  177.5350  141.1500 C   0  0  0  0  0  0  0  0  0  0  0  0
  188.2020  177.9940  140.4190 C   0  0  0  0  0  0  0  0  0  0  0  0
  188.1070  176.8490  142.5880 C   0  0  0  0  0  2  0  0  0  0  0  0
  188.0510  176.9580  145.4940 C   0  0  0  0  0  2  0  0  0  0  0  0
  187.0720  178.0830  145.4690 C   0  0  0  0  0  3  0  0  0  0  0  0
  185.7880  177.8420  145.2280 C   0  0  0  0  0  3  0  0  0  0  0  0
  184.8120  178.9710  145.2020 C   0  0  0  0  0  2  0  0  0  0  0  0
  184.4480  178.4950  142.7740 C   0  0  0  0  0  3  0  0  0  0  0  0
  183.6110  178.3970  141.6580 C   0  0  0  0  0  3  0  0  0  0  0  0
  182.2420  178.6540  141.7850 C   0  0  0  0  0  3  0  0  0  0  0  0
  181.7100  179.0100  143.0280 C   0  0  0  0  0  3  0  0  0  0  0  0
  183.9160  178.8470  144.0190 C   0  0  0  0  0  0  0  0  0  0  0  0
  182.5470  179.1090  144.1440 C   0  0  0  0  0  3  0  0  0  0  0  0
  190.3830  177.8020  146.8560 O   0  0  0  0  0  0  0  0  0  0  0  0
  191.1410  176.9480  147.7080 C   0  0  0  0  0  2  0  0  0  0  0  0
  191.5840  175.7050  146.9540 C   0  0  0  0  0  2  0  0  0  0  0  0
  193.0260  175.7670  148.6220 C   0  0  0  0  0  1  0  0  0  0  0  0
  192.9030  175.3950  147.2850 O   0  0  0  0  0  0  0  0  0  0  0  0
  1 15  2  0  0  0  0
  2  9  2  0  0  0  0
  2  7  1  0  0  0  0
  3  2  1  0  0  0  0
  4  5  1  0  0  0  0
  5  6  2  0  0  0  0
  6 28  1  0  0  0  0
  7  8  2  0  0  0  0
  8 16  1  0  0  0  0
  8 15  1  0  0  0  0
  9 12  1  0  0  0  0
 10 11  2  0  0  0  0
 11  6  1  0  0  0  0
 11 18  1  0  0  0  0
 12 16  2  0  0  0  0
 13 10  1  0  0  0  0
 13  4  2  0  0  0  0
 14 17  1  0  0  0  0
 15 13  1  0  0  0  0
 16 14  1  0  0  0  0
 17 10  1  0  0  0  0
 19 18  1  0  0  0  0
 20 19  2  0  0  0  0
 21 20  1  0  0  0  0
 22 26  1  0  0  0  0
 23 24  1  0  0  0  0
 23 22  2  0  0  0  0
 24 25  2  0  0  0  0
 25 27  1  0  0  0  0
 26 27  2  0  0  0  0
 26 21  1  0  0  0  0
 28 29  1  0  0  0  0
 30 32  1  0  0  0  0
 30 29  1  0  0  0  0
 32 31  1  0  0  0  0
M  END
>  <MODEL>
3

>  <REMARK>
 VINA RESULT:      -9.0      2.447      7.906
  Name = 
  8 active torsions:
  status: ('A' for Active; 'I' for Inactive)
    1  A    between atoms: C_4  and  C_14
    2  A    between atoms: C_4  and  C_31
    3  A    between atoms: C_12  and  O_28
    4  A    between atoms: C_15  and  C_20
    5  A    between atoms: C_18  and  O_19
    6  A    between atoms: C_18  and  C_25
    7  A    between atoms: C_20  and  C_22
    8  A    between atoms: C_25  and  O_28
                            x       y       z     vdW  Elec       q    Type
                         _______ _______ _______ _____ _____    ______ ____

>  <TORSDO>
F 8

$$$$
=
 OpenBabel10232408133D

 32 35  0  0  0  0  0  0  0  0999 V2000
  185.7850  178.5290  140.4340 O   0  0  0  0  0  0  0  0  0  0  0  0
  183.5460  179.0880  143.8290 C   0  0  0  0  0  0  0  0  0  0  0  0
  182.2470  179.5570  143.6970 O   0  0  0  0  0  1  0  0  0  0  0  0
  188.5350  178.4320  140.2390 C   0  0  0  0  0  3  0  0  0  0  0  0
  189.8680  178.1120  139.9970 C   0  0  0  0  0  3  0  0  0  0  0  0
  190.5620  177.2630  140.8660 C   0  0  0  0  0  0  0  0  0  0  0  0
  184.3400  178.9040  142.6970 C   0  0  0  0  0  3  0  0  0  0  0  0
  185.6640  178.4320  142.7910 C   0  0  0  0  0  0  0  0  0  0  0  0
  184.0610  178.8030  145.0910 C   0  0  0  0  0  3  0  0  0  0  0  0
  188.5450  177.0530  142.2270 C   0  0  0  0  0  0  0  0  0  0  0  0
  189.9010  176.7350  141.9870 C   0  0  0  0  0  0  0  0  0  0  0  0
  185.3670  178.3340  145.2150 C   0  0  0  0  0  3  0  0  0  0  0  0
  187.8560  177.9250  141.3550 C   0  0  0  0  0  0  0  0  0  0  0  0
  187.5490  177.6380  144.3510 C   0  0  0  0  0  2  0  0  0  0  0  0
  186.4170  178.2880  141.5010 C   0  0  0  0  0  0  0  0  0  0  0  0
  186.1730  178.1400  144.0870 C   0  0  0  0  0  0  0  0  0  0  0  0
  187.8670  176.4910  143.4260 C   0  0  0  0  0  2  0  0  0  0  0  0
  190.6440  175.8050  142.9000 C   0  0  0  0  0  2  0  0  0  0  0  0
  191.1060  176.5380  144.1130 C   0  0  0  0  0  3  0  0  0  0  0  0
  191.0810  175.9430  145.3010 C   0  0  0  0  0  3  0  0  0  0  0  0
  191.5440  176.6820  146.5120 C   0  0  0  0  0  2  0  0  0  0  0  0
  189.1190  176.5430  147.1100 C   0  0  0  0  0  3  0  0  0  0  0  0
  188.0150  176.9710  147.8530 C   0  0  0  0  0  3  0  0  0  0  0  0
  188.1640  177.9850  148.8050 C   0  0  0  0  0  3  0  0  0  0  0  0
  189.4160  178.5710  149.0120 C   0  0  0  0  0  3  0  0  0  0  0  0
  190.3730  177.1250  147.3200 C   0  0  0  0  0  0  0  0  0  0  0  0
  190.5190  178.1440  148.2680 C   0  0  0  0  0  3  0  0  0  0  0  0
  191.9060  176.9370  140.6350 O   0  0  0  0  0  0  0  0  0  0  0  0
  192.6770  177.4910  139.5720 C   0  0  0  0  0  2  0  0  0  0  0  0
  192.8380  176.4770  138.4510 C   0  0  0  0  0  2  0  0  0  0  0  0
  193.7140  176.0170  136.4800 C   0  0  0  0  0  1  0  0  0  0  0  0
  193.7600  176.9470  137.5160 O   0  0  0  0  0  0  0  0  0  0  0  0
  1 15  2  0  0  0  0
  2  9  1  0  0  0  0
  3  2  1  0  0  0  0
  4 13  1  0  0  0  0
  5  4  2  0  0  0  0
  5  6  1  0  0  0  0
  6 11  2  0  0  0  0
  7  8  1  0  0  0  0
  7  2  2  0  0  0  0
  8 16  2  0  0  0  0
  9 12  2  0  0  0  0
 10 17  1  0  0  0  0
 11 10  1  0  0  0  0
 11 18  1  0  0  0  0
 13 15  1  0  0  0  0
 13 10  2  0  0  0  0
 15  8  1  0  0  0  0
 16 14  1  0  0  0  0
 16 12  1  0  0  0  0
 17 14  1  0  0  0  0
 18 19  1  0  0  0  0
 19 20  2  0  0  0  0
 20 21  1  0  0  0  0
 21 26  1  0  0  0  0
 22 26  2  0  0  0  0
 22 23  1  0  0  0  0
 23 24  2  0  0  0  0
 24 25  1  0  0  0  0
 26 27  1  0  0  0  0
 27 25  2  0  0  0  0
 28  6  1  0  0  0  0
 29 28  1  0  0  0  0
 30 29  1  0  0  0  0
 31 32  1  0  0  0  0
 32 30  1  0  0  0  0
M  END
>  <MODEL>
4

>  <REMARK>
 VINA RESULT:      -8.8      2.784      8.266
  Name = 
  8 active torsions:
  status: ('A' for Active; 'I' for Inactive)
    1  A    between atoms: C_4  and  C_14
    2  A    between atoms: C_4  and  C_31
    3  A    between atoms: C_12  and  O_28
    4  A    between atoms: C_15  and  C_20
    5  A    between atoms: C_18  and  O_19
    6  A    between atoms: C_18  and  C_25
    7  A    between atoms: C_20  and  C_22
    8  A    between atoms: C_25  and  O_28
                            x       y       z     vdW  Elec       q    Type
                         _______ _______ _______ _____ _____    ______ ____

>  <TORSDO>
F 8

$$$$
=
 OpenBabel10232408133D

 32 35  0  0  0  0  0  0  0  0999 V2000
  187.0740  178.2160  137.4140 O   0  0  0  0  0  0  0  0  0  0  0  0
  190.8450  176.9870  138.4740 C   0  0  0  0  0  0  0  0  0  0  0  0
  191.7710  176.7450  137.4690 O   0  0  0  0  0  1  0  0  0  0  0  0
  184.7650  178.0160  138.9100 C   0  0  0  0  0  3  0  0  0  0  0  0
  183.5790  178.2200  139.6090 C   0  0  0  0  0  3  0  0  0  0  0  0
  183.6040  178.6850  140.9280 C   0  0  0  0  0  0  0  0  0  0  0  0
  189.5500  177.3890  138.1480 C   0  0  0  0  0  3  0  0  0  0  0  0
  188.5820  177.6410  139.1400 C   0  0  0  0  0  0  0  0  0  0  0  0
  191.2050  176.8270  139.8090 C   0  0  0  0  0  3  0  0  0  0  0  0
  186.0440  178.7460  140.8300 C   0  0  0  0  0  0  0  0  0  0  0  0
  184.8400  178.9450  141.5430 C   0  0  0  0  0  0  0  0  0  0  0  0
  190.2700  177.0690  140.8130 C   0  0  0  0  0  3  0  0  0  0  0  0
  186.0120  178.2590  139.5050 C   0  0  0  0  0  0  0  0  0  0  0  0
  188.0620  177.7020  141.6580 C   0  0  0  0  0  2  0  0  0  0  0  0
  187.2230  178.0550  138.6580 C   0  0  0  0  0  0  0  0  0  0  0  0
  188.9680  177.4770  140.4990 C   0  0  0  0  0  0  0  0  0  0  0  0
  187.3430  179.0180  141.5040 C   0  0  0  0  0  2  0  0  0  0  0  0
  184.8590  179.4690  142.9490 C   0  0  0  0  0  2  0  0  0  0  0  0
  185.1910  178.3700  143.9010 C   0  0  0  0  0  3  0  0  0  0  0  0
  185.6820  178.6540  145.1010 C   0  0  0  0  0  3  0  0  0  0  0  0
  186.0140  177.5510  146.0500 C   0  0  0  0  0  2  0  0  0  0  0  0
  188.3270  177.2640  145.1440 C   0  0  0  0  0  3  0  0  0  0  0  0
  189.7100  177.1680  145.3270 C   0  0  0  0  0  3  0  0  0  0  0  0
  190.2550  177.2710  146.6110 C   0  0  0  0  0  3  0  0  0  0  0  0
  189.4160  177.4700  147.7120 C   0  0  0  0  0  3  0  0  0  0  0  0
  187.4880  177.4690  146.2440 C   0  0  0  0  0  0  0  0  0  0  0  0
  188.0340  177.5660  147.5290 C   0  0  0  0  0  3  0  0  0  0  0  0
  182.4160  178.8900  141.6440 O   0  0  0  0  0  0  0  0  0  0  0  0
  181.1210  178.6710  141.0930 C   0  0  0  0  0  2  0  0  0  0  0  0
  180.1820  179.8010  141.4800 C   0  0  0  0  0  2  0  0  0  0  0  0
  180.2020  180.0320  139.2860 C   0  0  0  0  0  1  0  0  0  0  0  0
  180.1580  180.7640  140.4700 O   0  0  0  0  0  0  0  0  0  0  0  0
  1 15  2  0  0  0  0
  2  9  1  0  0  0  0
  3  2  1  0  0  0  0
  4 13  2  0  0  0  0
  4  5  1  0  0  0  0
  5  6  2  0  0  0  0
  6 11  1  0  0  0  0
  6 28  1  0  0  0  0
  7  2  2  0  0  0  0
  7  8  1  0  0  0  0
  8 16  2  0  0  0  0
  9 12  2  0  0  0  0
 10 17  1  0  0  0  0
 10 11  2  0  0  0  0
 11 18  1  0  0  0  0
 13 10  1  0  0  0  0
 15  8  1  0  0  0  0
 15 13  1  0  0  0  0
 16 12  1  0  0  0  0
 16 14  1  0  0  0  0
 17 14  1  0  0  0  0
 18 19  1  0  0  0  0
 19 20  2  0  0  0  0
 20 21  1  0  0  0  0
 21 26  1  0  0  0  0
 22 23  2  0  0  0  0
 22 26  1  0  0  0  0
 23 24  1  0  0  0  0
 24 25  2  0  0  0  0
 26 27  2  0  0  0  0
 27 25  1  0  0  0  0
 29 30  1  0  0  0  0
 29 28  1  0  0  0  0
 31 32  1  0  0  0  0
 32 30  1  0  0  0  0
M  END
>  <MODEL>
5

>  <REMARK>
 VINA RESULT:      -8.4      2.744      6.341
  Name = 
  8 active torsions:
  status: ('A' for Active; 'I' for Inactive)
    1  A    between atoms: C_4  and  C_14
    2  A    between atoms: C_4  and  C_31
    3  A    between atoms: C_12  and  O_28
    4  A    between atoms: C_15  and  C_20
    5  A    between atoms: C_18  and  O_19
    6  A    between atoms: C_18  and  C_25
    7  A    between atoms: C_20  and  C_22
    8  A    between atoms: C_25  and  O_28
                            x       y       z     vdW  Elec       q    Type
                         _______ _______ _______ _____ _____    ______ ____

>  <TORSDO>
F 8

$$$$
=
 OpenBabel10232408133D

 32 35  0  0  0  0  0  0  0  0999 V2000
  188.8700  177.5250  145.1510 O   0  0  0  0  0  0  0  0  0  0  0  0
  184.9770  178.4220  146.0940 C   0  0  0  0  0  0  0  0  0  0  0  0
  184.6210  178.5060  147.4330 O   0  0  0  0  0  1  0  0  0  0  0  0
  189.8200  176.4710  142.7860 C   0  0  0  0  0  3  0  0  0  0  0  0
  190.4900  176.1850  141.6000 C   0  0  0  0  0  3  0  0  0  0  0  0
  190.1040  176.7960  140.4030 C   0  0  0  0  0  0  0  0  0  0  0  0
  186.2870  178.1020  145.7390 C   0  0  0  0  0  3  0  0  0  0  0  0
  186.6850  178.0060  144.3920 C   0  0  0  0  0  0  0  0  0  0  0  0
  184.0280  178.6550  145.1030 C   0  0  0  0  0  3  0  0  0  0  0  0
  188.3580  178.0010  141.6130 C   0  0  0  0  0  0  0  0  0  0  0  0
  189.0330  177.7040  140.4070 C   0  0  0  0  0  0  0  0  0  0  0  0
  184.3920  178.5680  143.7610 C   0  0  0  0  0  3  0  0  0  0  0  0
  188.7420  177.3670  142.8150 C   0  0  0  0  0  0  0  0  0  0  0  0
  185.9680  178.1860  141.9280 C   0  0  0  0  0  2  0  0  0  0  0  0
  188.1200  177.6420  144.1420 C   0  0  0  0  0  0  0  0  0  0  0  0
  185.7040  178.2520  143.3910 C   0  0  0  0  0  0  0  0  0  0  0  0
  187.2190  178.9580  141.5940 C   0  0  0  0  0  2  0  0  0  0  0  0
  188.6420  178.3760  139.1240 C   0  0  0  0  0  2  0  0  0  0  0  0
  187.4680  177.6830  138.5190 C   0  0  0  0  0  3  0  0  0  0  0  0
  186.4210  178.3860  138.1030 C   0  0  0  0  0  3  0  0  0  0  0  0
  185.2480  177.6870  137.4990 C   0  0  0  0  0  2  0  0  0  0  0  0
  183.7760  178.8430  139.1590 C   0  0  0  0  0  3  0  0  0  0  0  0
  182.7180  178.8310  140.0730 C   0  0  0  0  0  3  0  0  0  0  0  0
  181.9930  177.6550  140.2890 C   0  0  0  0  0  3  0  0  0  0  0  0
  182.3270  176.4900  139.5920 C   0  0  0  0  0  3  0  0  0  0  0  0
  184.1080  177.6780  138.4570 C   0  0  0  0  0  0  0  0  0  0  0  0
  183.3850  176.5010  138.6790 C   0  0  0  0  0  3  0  0  0  0  0  0
  190.7690  176.5130  139.2010 O   0  0  0  0  0  0  0  0  0  0  0  0
  192.1120  176.9080  138.9340 C   0  0  0  0  0  2  0  0  0  0  0  0
  192.6350  176.2030  137.6940 C   0  0  0  0  0  2  0  0  0  0  0  0
  194.2250  176.0490  136.1720 C   0  0  0  0  0  1  0  0  0  0  0  0
  193.8570  176.7590  137.3130 O   0  0  0  0  0  0  0  0  0  0  0  0
  2  3  1  0  0  0  0
  4 13  1  0  0  0  0
  5  4  2  0  0  0  0
  6 11  2  0  0  0  0
  6  5  1  0  0  0  0
  7  2  1  0  0  0  0
  8  7  2  0  0  0  0
  9  2  2  0  0  0  0
 10 13  2  0  0  0  0
 11 10  1  0  0  0  0
 12  9  1  0  0  0  0
 13 15  1  0  0  0  0
 14 16  1  0  0  0  0
 15  8  1  0  0  0  0
 15  1  2  0  0  0  0
 16 12  2  0  0  0  0
 16  8  1  0  0  0  0
 17 10  1  0  0  0  0
 17 14  1  0  0  0  0
 18 11  1  0  0  0  0
 19 18  1  0  0  0  0
 20 19  2  0  0  0  0
 21 20  1  0  0  0  0
 21 26  1  0  0  0  0
 22 23  1  0  0  0  0
 23 24  2  0  0  0  0
 25 24  1  0  0  0  0
 26 27  1  0  0  0  0
 26 22  2  0  0  0  0
 27 25  2  0  0  0  0
 28  6  1  0  0  0  0
 29 28  1  0  0  0  0
 30 29  1  0  0  0  0
 31 32  1  0  0  0  0
 32 30  1  0  0  0  0
M  END
>  <MODEL>
6

>  <REMARK>
 VINA RESULT:      -8.4      3.241      7.208
  Name = 
  8 active torsions:
  status: ('A' for Active; 'I' for Inactive)
    1  A    between atoms: C_4  and  C_14
    2  A    between atoms: C_4  and  C_31
    3  A    between atoms: C_12  and  O_28
    4  A    between atoms: C_15  and  C_20
    5  A    between atoms: C_18  and  O_19
    6  A    between atoms: C_18  and  C_25
    7  A    between atoms: C_20  and  C_22
    8  A    between atoms: C_25  and  O_28
                            x       y       z     vdW  Elec       q    Type
                         _______ _______ _______ _____ _____    ______ ____

>  <TORSDO>
F 8

$$$$
=
 OpenBabel10232408133D

 32 35  0  0  0  0  0  0  0  0999 V2000
  184.5360  178.6030  145.4140 O   0  0  0  0  0  0  0  0  0  0  0  0
  181.1990  179.0590  143.0680 C   0  0  0  0  0  0  0  0  0  0  0  0
  179.9820  179.3090  143.6870 O   0  0  0  0  0  1  0  0  0  0  0  0
  186.8880  177.3240  144.7490 C   0  0  0  0  0  3  0  0  0  0  0  0
  188.2050  176.9480  144.5010 C   0  0  0  0  0  3  0  0  0  0  0  0
  188.8240  177.2900  143.2950 C   0  0  0  0  0  0  0  0  0  0  0  0
  182.3490  178.8810  143.8370 C   0  0  0  0  0  3  0  0  0  0  0  0
  183.6010  178.6240  143.2450 C   0  0  0  0  0  0  0  0  0  0  0  0
  181.2740  178.9820  141.6800 C   0  0  0  0  0  3  0  0  0  0  0  0
  186.7700  178.4070  142.5890 C   0  0  0  0  0  0  0  0  0  0  0  0
  188.1040  178.0180  142.3330 C   0  0  0  0  0  0  0  0  0  0  0  0
  182.4990  178.7290  141.0660 C   0  0  0  0  0  3  0  0  0  0  0  0
  186.1460  178.0430  143.8030 C   0  0  0  0  0  0  0  0  0  0  0  0
  184.9060  178.2870  141.0540 C   0  0  0  0  0  2  0  0  0  0  0  0
  184.7590  178.4400  144.1820 C   0  0  0  0  0  0  0  0  0  0  0  0
  183.6610  178.5530  141.8250 C   0  0  0  0  0  0  0  0  0  0  0  0
  186.0220  179.1690  141.5530 C   0  0  0  0  0  2  0  0  0  0  0  0
  188.7830  178.4040  141.0520 C   0  0  0  0  0  2  0  0  0  0  0  0
  188.6240  177.3190  140.0410 C   0  0  0  0  0  3  0  0  0  0  0  0
  188.5220  177.6210  138.7510 C   0  0  0  0  0  3  0  0  0  0  0  0
  188.3620  176.5320  137.7430 C   0  0  0  0  0  2  0  0  0  0  0  0
  189.7780  174.5320  137.2440 C   0  0  0  0  0  3  0  0  0  0  0  0
  191.0200  173.9470  136.9790 C   0  0  0  0  0  3  0  0  0  0  0  0
  192.1690  174.7430  136.9150 C   0  0  0  0  0  3  0  0  0  0  0  0
  192.0750  176.1230  137.1170 C   0  0  0  0  0  3  0  0  0  0  0  0
  189.6830  175.9140  137.4410 C   0  0  0  0  0  0  0  0  0  0  0  0
  190.8330  176.7080  137.3830 C   0  0  0  0  0  3  0  0  0  0  0  0
  190.1490  176.9130  143.0310 O   0  0  0  0  0  0  0  0  0  0  0  0
  191.2660  177.4100  143.7610 C   0  0  0  0  0  2  0  0  0  0  0  0
  191.6250  176.4610  144.8920 C   0  0  0  0  0  2  0  0  0  0  0  0
  191.9510  176.1830  147.0570 C   0  0  0  0  0  1  0  0  0  0  0  0
  191.5860  177.1390  146.1110 O   0  0  0  0  0  0  0  0  0  0  0  0
  2  3  1  0  0  0  0
  2  7  1  0  0  0  0
  5  4  1  0  0  0  0
  6  5  2  0  0  0  0
  8  7  2  0  0  0  0
  8 15  1  0  0  0  0
  9  2  2  0  0  0  0
 10 13  1  0  0  0  0
 11 10  2  0  0  0  0
 11  6  1  0  0  0  0
 12  9  1  0  0  0  0
 12 16  2  0  0  0  0
 13 15  1  0  0  0  0
 13  4  2  0  0  0  0
 14 17  1  0  0  0  0
 14 16  1  0  0  0  0
 15  1  2  0  0  0  0
 16  8  1  0  0  0  0
 17 10  1  0  0  0  0
 18 11  1  0  0  0  0
 19 18  1  0  0  0  0
 20 19  2  0  0  0  0
 21 20  1  0  0  0  0
 22 26  1  0  0  0  0
 23 22  2  0  0  0  0
 24 23  1  0  0  0  0
 24 25  2  0  0  0  0
 25 27  1  0  0  0  0
 26 21  1  0  0  0  0
 27 26  2  0  0  0  0
 28  6  1  0  0  0  0
 28 29  1  0  0  0  0
 29 30  1  0  0  0  0
 30 32  1  0  0  0  0
 32 31  1  0  0  0  0
M  END
>  <MODEL>
7

>  <REMARK>
 VINA RESULT:      -8.3      1.819      6.842
  Name = 
  8 active torsions:
  status: ('A' for Active; 'I' for Inactive)
    1  A    between atoms: C_4  and  C_14
    2  A    between atoms: C_4  and  C_31
    3  A    between atoms: C_12  and  O_28
    4  A    between atoms: C_15  and  C_20
    5  A    between atoms: C_18  and  O_19
    6  A    between atoms: C_18  and  C_25
    7  A    between atoms: C_20  and  C_22
    8  A    between atoms: C_25  and  O_28
                            x       y       z     vdW  Elec       q    Type
                         _______ _______ _______ _____ _____    ______ ____

>  <TORSDO>
F 8

$$$$
=
 OpenBabel10232408133D

 32 35  0  0  0  0  0  0  0  0999 V2000
  183.9840  178.8360  145.0870 O   0  0  0  0  0  0  0  0  0  0  0  0
  181.3210  179.0410  141.9700 C   0  0  0  0  0  0  0  0  0  0  0  0
  179.9920  179.3290  142.2500 O   0  0  0  0  0  1  0  0  0  0  0  0
  186.4160  177.5340  145.1290 C   0  0  0  0  0  3  0  0  0  0  0  0
  187.7500  177.1540  145.2430 C   0  0  0  0  0  3  0  0  0  0  0  0
  188.6460  177.3960  144.1970 C   0  0  0  0  0  0  0  0  0  0  0  0
  182.2480  178.9470  143.0080 C   0  0  0  0  0  3  0  0  0  0  0  0
  183.6040  178.6540  142.7630 C   0  0  0  0  0  0  0  0  0  0  0  0
  181.7300  178.8430  140.6550 C   0  0  0  0  0  3  0  0  0  0  0  0
  186.8350  178.4200  142.9180 C   0  0  0  0  0  0  0  0  0  0  0  0
  188.1880  178.0260  143.0280 C   0  0  0  0  0  0  0  0  0  0  0  0
  183.0650  178.5520  140.3810 C   0  0  0  0  0  3  0  0  0  0  0  0
  185.9320  178.1570  143.9710 C   0  0  0  0  0  0  0  0  0  0  0  0
  185.3980  178.1410  140.9930 C   0  0  0  0  0  2  0  0  0  0  0  0
  184.4980  178.5680  143.9650 C   0  0  0  0  0  0  0  0  0  0  0  0
  184.0060  178.4590  141.4120 C   0  0  0  0  0  0  0  0  0  0  0  0
  186.3680  179.0780  141.6670 C   0  0  0  0  0  2  0  0  0  0  0  0
  189.1610  178.3060  141.9210 C   0  0  0  0  0  2  0  0  0  0  0  0
  189.0190  177.2850  140.8440 C   0  0  0  0  0  3  0  0  0  0  0  0
  189.2590  177.6120  139.5790 C   0  0  0  0  0  3  0  0  0  0  0  0
  189.1150  176.5870  138.5050 C   0  0  0  0  0  2  0  0  0  0  0  0
  187.1710  178.0000  137.8100 C   0  0  0  0  0  3  0  0  0  0  0  0
  185.9360  178.1550  137.1740 C   0  0  0  0  0  3  0  0  0  0  0  0
  185.3340  177.0630  136.5390 C   0  0  0  0  0  3  0  0  0  0  0  0
  185.9680  175.8170  136.5420 C   0  0  0  0  0  3  0  0  0  0  0  0
  187.8090  176.7550  137.8090 C   0  0  0  0  0  0  0  0  0  0  0  0
  187.2030  175.6620  137.1790 C   0  0  0  0  0  3  0  0  0  0  0  0
  189.9920  177.0140  144.2970 O   0  0  0  0  0  0  0  0  0  0  0  0
  190.9200  177.6340  145.1820 C   0  0  0  0  0  2  0  0  0  0  0  0
  191.0110  176.8570  146.4850 C   0  0  0  0  0  2  0  0  0  0  0  0
  192.4100  175.6500  147.6900 C   0  0  0  0  0  1  0  0  0  0  0  0
  191.9880  175.8670  146.3790 O   0  0  0  0  0  0  0  0  0  0  0  0
  2  3  1  0  0  0  0
  2  7  1  0  0  0  0
  4  5  1  0  0  0  0
  6 28  1  0  0  0  0
  6  5  2  0  0  0  0
  8  7  2  0  0  0  0
  8 15  1  0  0  0  0
  9  2  2  0  0  0  0
 10 11  2  0  0  0  0
 10 13  1  0  0  0  0
 11  6  1  0  0  0  0
 12  9  1  0  0  0  0
 12 16  2  0  0  0  0
 13  4  2  0  0  0  0
 14 16  1  0  0  0  0
 14 17  1  0  0  0  0
 15 13  1  0  0  0  0
 15  1  2  0  0  0  0
 16  8  1  0  0  0  0
 17 10  1  0  0  0  0
 18 11  1  0  0  0  0
 19 18  1  0  0  0  0
 20 19  2  0  0  0  0
 21 20  1  0  0  0  0
 23 22  2  0  0  0  0
 24 25  2  0  0  0  0
 24 23  1  0  0  0  0
 25 27  1  0  0  0  0
 26 22  1  0  0  0  0
 26 21  1  0  0  0  0
 27 26  2  0  0  0  0
 28 29  1  0  0  0  0
 29 30  1  0  0  0  0
 32 30  1  0  0  0  0
 32 31  1  0  0  0  0
M  END
>  <MODEL>
8

>  <REMARK>
 VINA RESULT:      -8.1      2.004      7.074
  Name = 
  8 active torsions:
  status: ('A' for Active; 'I' for Inactive)
    1  A    between atoms: C_4  and  C_14
    2  A    between atoms: C_4  and  C_31
    3  A    between atoms: C_12  and  O_28
    4  A    between atoms: C_15  and  C_20
    5  A    between atoms: C_18  and  O_19
    6  A    between atoms: C_18  and  C_25
    7  A    between atoms: C_20  and  C_22
    8  A    between atoms: C_25  and  O_28
                            x       y       z     vdW  Elec       q    Type
                         _______ _______ _______ _____ _____    ______ ____

>  <TORSDO>
F 8

$$$$
=
 OpenBabel10232408133D

 32 35  0  0  0  0  0  0  0  0999 V2000
  187.1860  177.0230  147.1560 O   0  0  0  0  0  0  0  0  0  0  0  0
  191.1720  176.9730  146.1750 C   0  0  0  0  0  0  0  0  0  0  0  0
  192.0820  176.5170  147.1190 O   0  0  0  0  0  1  0  0  0  0  0  0
  185.1970  178.5460  146.0020 C   0  0  0  0  0  3  0  0  0  0  0  0
  184.0510  179.0400  145.3850 C   0  0  0  0  0  3  0  0  0  0  0  0
  183.9400  179.0340  143.9910 C   0  0  0  0  0  0  0  0  0  0  0  0
  189.8120  177.0200  146.4830 C   0  0  0  0  0  3  0  0  0  0  0  0
  188.8600  177.4790  145.5520 C   0  0  0  0  0  0  0  0  0  0  0  0
  191.6140  177.3870  144.9220 C   0  0  0  0  0  3  0  0  0  0  0  0
  186.1540  178.0140  143.8450 C   0  0  0  0  0  0  0  0  0  0  0  0
  184.9950  178.5240  143.2170 C   0  0  0  0  0  0  0  0  0  0  0  0
  190.6950  177.8460  143.9810 C   0  0  0  0  0  3  0  0  0  0  0  0
  186.2680  178.0400  145.2530 C   0  0  0  0  0  0  0  0  0  0  0  0
  188.4480  178.4040  143.1880 C   0  0  0  0  0  2  0  0  0  0  0  0
  187.4300  177.4910  146.0090 C   0  0  0  0  0  0  0  0  0  0  0  0
  189.3280  177.8940  144.2740 C   0  0  0  0  0  0  0  0  0  0  0  0
  187.2650  177.4880  143.0070 C   0  0  0  0  0  2  0  0  0  0  0  0
  184.8570  178.4960  141.7230 C   0  0  0  0  0  2  0  0  0  0  0  0
  183.6830  177.6630  141.3330 C   0  0  0  0  0  3  0  0  0  0  0  0
  183.4280  177.4310  140.0500 C   0  0  0  0  0  3  0  0  0  0  0  0
  182.2510  176.5990  139.6640 C   0  0  0  0  0  2  0  0  0  0  0  0
  180.6270  176.4080  137.7710 C   0  0  0  0  0  3  0  0  0  0  0  0
  180.0520  176.9050  136.5980 C   0  0  0  0  0  3  0  0  0  0  0  0
  180.4760  178.1310  136.0750 C   0  0  0  0  0  3  0  0  0  0  0  0
  181.4760  178.8600  136.7260 C   0  0  0  0  0  3  0  0  0  0  0  0
  181.6250  177.1390  138.4260 C   0  0  0  0  0  0  0  0  0  0  0  0
  182.0530  178.3630  137.8980 C   0  0  0  0  0  3  0  0  0  0  0  0
  182.7930  179.5330  143.3560 O   0  0  0  0  0  0  0  0  0  0  0  0
  181.4670  179.1650  143.7290 C   0  0  0  0  0  2  0  0  0  0  0  0
  180.5830  179.0510  142.4980 C   0  0  0  0  0  2  0  0  0  0  0  0
  180.1960  180.0940  140.5930 C   0  0  0  0  0  1  0  0  0  0  0  0
  180.3560  180.3180  141.9590 O   0  0  0  0  0  0  0  0  0  0  0  0
  2  7  1  0  0  0  0
  2  3  1  0  0  0  0
  5  4  1  0  0  0  0
  6  5  2  0  0  0  0
  8 15  1  0  0  0  0
  8  7  2  0  0  0  0
  9  2  2  0  0  0  0
 10 13  1  0  0  0  0
 11 10  2  0  0  0  0
 11  6  1  0  0  0  0
 12 16  2  0  0  0  0
 12  9  1  0  0  0  0
 13  4  2  0  0  0  0
 13 15  1  0  0  0  0
 14 16  1  0  0  0  0
 15  1  2  0  0  0  0
 16  8  1  0  0  0  0
 17 14  1  0  0  0  0
 17 10  1  0  0  0  0
 18 11  1  0  0  0  0
 19 18  1  0  0  0  0
 20 19  2  0  0  0  0
 21 20  1  0  0  0  0
 22 26  1  0  0  0  0
 23 22  2  0  0  0  0
 24 23  1  0  0  0  0
 24 25  2  0  0  0  0
 25 27  1  0  0  0  0
 26 21  1  0  0  0  0
 27 26  2  0  0  0  0
 28 29  1  0  0  0  0
 28  6  1  0  0  0  0
 30 29  1  0  0  0  0
 31 32  1  0  0  0  0
 32 30  1  0  0  0  0
M  END
>  <MODEL>
9

>  <REMARK>
 VINA RESULT:      -8.0      2.422      4.442
  Name = 
  8 active torsions:
  status: ('A' for Active; 'I' for Inactive)
    1  A    between atoms: C_4  and  C_14
    2  A    between atoms: C_4  and  C_31
    3  A    between atoms: C_12  and  O_28
    4  A    between atoms: C_15  and  C_20
    5  A    between atoms: C_18  and  O_19
    6  A    between atoms: C_18  and  C_25
    7  A    between atoms: C_20  and  C_22
    8  A    between atoms: C_25  and  O_28
                            x       y       z     vdW  Elec       q    Type
                         _______ _______ _______ _____ _____    ______ ____

>  <TORSDO>
F 8

$$$$
