=
 OpenBabel10232410203D

 29 33  0  0  1  0  0  0  0  0999 V2000
  185.2530  179.5430  141.9980 O   0  0  0  0  0  1  0  0  0  0  0  0
  187.7630  178.1380  138.9850 N   0  0  0  0  0  0  0  0  0  0  0  0
  188.6980  178.1200  137.8680 C   0  0  1  0  0  3  0  0  0  0  0  0
  188.9230  174.6080  136.2750 C   0  0  0  0  0  1  0  0  0  0  0  0
  189.2270  176.6990  137.6350 C   0  0  1  0  0  3  0  0  0  0  0  0
  188.6360  176.0950  136.3480 C   0  0  2  0  0  3  0  0  0  0  0  0
  185.7670  177.8650  137.4000 C   0  0  1  0  0  3  0  0  0  0  0  0
  185.4990  178.5710  139.8420 C   0  0  0  0  0  0  0  0  0  0  0  0
  187.4750  178.7590  141.2770 C   0  0  0  0  0  3  0  0  0  0  0  0
  183.4490  176.9070  138.1130 C   0  0  0  0  0  0  0  0  0  0  0  0
  183.2880  177.5610  139.4510 C   0  0  0  0  0  2  0  0  0  0  0  0
  186.8610  177.6770  136.3120 C   0  0  1  0  0  0  0  0  0  0  0  0
  184.5470  176.9540  137.2320 C   0  0  0  0  0  0  0  0  0  0  0  0
  186.0370  178.9430  141.0170 C   0  0  0  0  0  0  0  0  0  0  0  0
  186.3320  177.7810  138.8480 C   0  0  2  0  0  3  0  0  0  0  0  0
  186.3190  178.0780  134.9490 C   0  0  0  0  0  1  0  0  0  0  0  0
  184.0580  178.8600  139.5630 C   0  0  0  0  0  2  0  0  0  0  0  0
  188.0040  178.6510  136.6290 C   0  0  0  0  0  2  0  0  0  0  0  0
  182.3210  175.8070  137.5290 S   0  0  0  0  0  0  0  0  0  0  0  0
  183.1740  175.4050  136.1490 C   0  0  0  0  0  0  0  0  0  0  0  0
  188.2920  178.3900  140.2910 C   0  0  0  0  0  3  0  0  0  0  0  0
  184.3650  176.1080  136.1180 C   0  0  0  0  0  3  0  0  0  0  0  0
  187.2400  176.2980  136.2850 O   0  0  0  0  0  0  0  0  0  0  0  0
  191.0320  176.2450  139.8030 O   0  0  0  0  0  1  0  0  0  0  0  0
  190.6800  176.7460  137.5470 N   0  0  0  0  0  2  0  0  0  0  0  0
  192.9040  176.5010  138.5080 O   0  0  0  0  0  0  0  0  0  0  0  0
  191.5250  176.4830  138.6680 C   0  0  0  0  0  0  0  0  0  0  0  0
  182.7400  174.4690  135.1520 C   0  0  0  0  0  0  0  0  0  0  0  0
  182.3910  173.7140  134.3480 N   0  0  0  0  0  0  0  0  0  0  0  0
  2 21  1  0  0  0  0
  3 18  1  6  0  0  0
  3  2  1  0  0  0  0
  5 25  1  6  0  0  0
  5  3  1  0  0  0  0
  6  4  1  1  0  0  0
  6  5  1  0  0  0  0
  7 13  1  1  0  0  0
  7 15  1  0  0  0  0
  8 14  2  0  0  0  0
 10 11  1  0  0  0  0
 11 17  1  0  0  0  0
 12 16  1  6  0  0  0
 12 18  1  0  0  0  0
 12  7  1  0  0  0  0
 13 10  2  0  0  0  0
 14  9  1  0  0  0  0
 14  1  1  0  0  0  0
 15  2  1  0  0  0  0
 15  8  1  1  0  0  0
 17  8  1  0  0  0  0
 19 10  1  0  0  0  0
 20 19  1  0  0  0  0
 21  9  2  0  0  0  0
 22 20  2  0  0  0  0
 22 13  1  0  0  0  0
 23 12  1  0  0  0  0
 23  6  1  0  0  0  0
 25 27  1  0  0  0  0
 26 27  2  0  0  0  0
 27 24  1  0  0  0  0
 28 20  1  0  0  0  0
 29 28  3  0  0  0  0
M  END
>  <MODEL>
1

>  <REMARK>
 VINA RESULT:      -6.0      0.000      0.000
  Name = 
  2 active torsions:
  status: ('A' for Active; 'I' for Inactive)
    1  A    between atoms: C_6  and  N_16
    2  A    between atoms: C_23  and  C_26
                            x       y       z     vdW  Elec       q    Type
                         _______ _______ _______ _____ _____    ______ ____

>  <TORSDO>
F 2

$$$$
=
 OpenBabel10232410203D

 29 33  0  0  1  0  0  0  0  0999 V2000
  189.6150  178.0990  143.0080 O   0  0  0  0  0  1  0  0  0  0  0  0
  189.5870  177.1130  138.9610 N   0  0  0  0  0  0  0  0  0  0  0  0
  189.8760  177.1450  137.5330 C   0  0  1  0  0  3  0  0  0  0  0  0
  187.4260  174.9130  135.5490 C   0  0  0  0  0  1  0  0  0  0  0  0
  189.3470  175.8770  136.8520 C   0  0  1  0  0  3  0  0  0  0  0  0
  188.1170  176.1920  135.9810 C   0  0  2  0  0  3  0  0  0  0  0  0
  187.4210  178.4380  138.6150 C   0  0  1  0  0  3  0  0  0  0  0  0
  188.4810  178.1090  140.9180 C   0  0  0  0  0  0  0  0  0  0  0  0
  190.5310  176.7860  141.1350 C   0  0  0  0  0  3  0  0  0  0  0  0
  185.4060  178.4130  140.2720 C   0  0  0  0  0  0  0  0  0  0  0  0
  186.1340  178.4510  141.5800 C   0  0  0  0  0  2  0  0  0  0  0  0
  187.7360  178.2530  137.1050 C   0  0  1  0  0  0  0  0  0  0  0  0
  185.9340  178.3270  138.9680 C   0  0  0  0  0  0  0  0  0  0  0  0
  189.4980  177.6790  141.6860 C   0  0  0  0  0  0  0  0  0  0  0  0
  188.2830  177.5220  139.5320 C   0  0  2  0  0  3  0  0  0  0  0  0
  187.1070  179.3760  136.2970 C   0  0  0  0  0  1  0  0  0  0  0  0
  187.5000  179.0950  141.4710 C   0  0  0  0  0  2  0  0  0  0  0  0
  189.2540  178.3870  136.9270 C   0  0  0  0  0  2  0  0  0  0  0  0
  183.7330  178.2820  140.1980 S   0  0  0  0  0  0  0  0  0  0  0  0
  183.6460  178.1540  138.5340 C   0  0  0  0  0  0  0  0  0  0  0  0
  190.5720  176.5380  139.8260 C   0  0  0  0  0  3  0  0  0  0  0  0
  184.9200  178.1960  137.9970 C   0  0  0  0  0  3  0  0  0  0  0  0
  187.1920  177.0000  136.6810 O   0  0  0  0  0  0  0  0  0  0  0  0
  191.2310  173.9130  137.7210 O   0  0  0  0  0  1  0  0  0  0  0  0
  190.4070  175.3050  136.0330 N   0  0  0  0  0  2  0  0  0  0  0  0
  192.2630  173.7690  135.6820 O   0  0  0  0  0  0  0  0  0  0  0  0
  191.3010  174.3050  136.5250 C   0  0  0  0  0  0  0  0  0  0  0  0
  182.4340  178.0160  137.7780 C   0  0  0  0  0  0  0  0  0  0  0  0
  181.4580  177.9040  137.1670 N   0  0  0  0  0  0  0  0  0  0  0  0
  2 15  1  0  0  0  0
  2 21  1  0  0  0  0
  3 18  1  6  0  0  0
  3  2  1  0  0  0  0
  5 25  1  6  0  0  0
  5  3  1  0  0  0  0
  6  4  1  1  0  0  0
  6 23  1  0  0  0  0
  6  5  1  0  0  0  0
  7 13  1  6  0  0  0
  7 15  1  0  0  0  0
  8 17  1  0  0  0  0
  8 14  2  0  0  0  0
  9 14  1  0  0  0  0
 10 11  1  0  0  0  0
 12 16  1  6  0  0  0
 12  7  1  0  0  0  0
 13 10  2  0  0  0  0
 14  1  1  0  0  0  0
 15  8  1  1  0  0  0
 17 11  1  0  0  0  0
 18 12  1  0  0  0  0
 19 10  1  0  0  0  0
 20 19  1  0  0  0  0
 21  9  2  0  0  0  0
 22 20  2  0  0  0  0
 22 13  1  0  0  0  0
 23 12  1  0  0  0  0
 25 27  1  0  0  0  0
 26 27  2  0  0  0  0
 27 24  1  0  0  0  0
 28 20  1  0  0  0  0
 29 28  3  0  0  0  0
M  END
>  <MODEL>
2

>  <REMARK>
 VINA RESULT:      -5.6      2.297      3.028
  Name = 
  2 active torsions:
  status: ('A' for Active; 'I' for Inactive)
    1  A    between atoms: C_6  and  N_16
    2  A    between atoms: C_23  and  C_26
                            x       y       z     vdW  Elec       q    Type
                         _______ _______ _______ _____ _____    ______ ____

>  <TORSDO>
F 2

$$$$
=
 OpenBabel10232410203D

 29 33  0  0  1  0  0  0  0  0999 V2000
  192.9490  174.6450  137.6850 O   0  0  0  0  0  1  0  0  0  0  0  0
  188.9950  174.6880  136.3740 N   0  0  0  0  0  0  0  0  0  0  0  0
  187.8280  174.8850  135.5250 C   0  0  1  0  0  3  0  0  0  0  0  0
  184.5500  174.5750  137.5450 C   0  0  0  0  0  1  0  0  0  0  0  0
  186.5990  174.2030  136.1380 C   0  0  1  0  0  3  0  0  0  0  0  0
  185.6070  175.2450  136.6880 C   0  0  2  0  0  3  0  0  0  0  0  0
  188.5890  176.9240  137.5590 C   0  0  1  0  0  3  0  0  0  0  0  0
  190.7920  175.6430  137.7540 C   0  0  0  0  0  0  0  0  0  0  0  0
  191.0540  173.4920  136.6110 C   0  0  0  0  0  3  0  0  0  0  0  0
  189.4810  177.5050  139.9390 C   0  0  0  0  0  0  0  0  0  0  0  0
  190.8530  176.9090  139.8650 C   0  0  0  0  0  2  0  0  0  0  0  0
  187.2740  176.9410  136.7320 C   0  0  1  0  0  0  0  0  0  0  0  0
  188.4450  177.4610  138.9860 C   0  0  0  0  0  0  0  0  0  0  0  0
  191.5910  174.6270  137.3820 C   0  0  0  0  0  0  0  0  0  0  0  0
  189.2910  175.5350  137.5520 C   0  0  2  0  0  3  0  0  0  0  0  0
  186.8090  178.3720  136.5150 C   0  0  0  0  0  1  0  0  0  0  0  0
  191.3800  176.8310  138.4480 C   0  0  0  0  0  2  0  0  0  0  0  0
  187.5890  176.3710  135.3430 C   0  0  0  0  0  2  0  0  0  0  0  0
  188.9000  178.2060  141.3520 S   0  0  0  0  0  0  0  0  0  0  0  0
  187.3590  178.4960  140.7760 C   0  0  0  0  0  0  0  0  0  0  0  0
  189.8160  173.5430  136.1200 C   0  0  0  0  0  3  0  0  0  0  0  0
  187.2550  178.0410  139.4740 C   0  0  0  0  0  3  0  0  0  0  0  0
  186.2730  176.2230  137.4600 O   0  0  0  0  0  0  0  0  0  0  0  0
  185.8630  171.4590  136.4370 O   0  0  0  0  0  1  0  0  0  0  0  0
  185.9550  173.3860  135.1180 N   0  0  0  0  0  2  0  0  0  0  0  0
  184.9400  171.3120  134.3460 O   0  0  0  0  0  0  0  0  0  0  0  0
  185.5900  172.0240  135.3440 C   0  0  0  0  0  0  0  0  0  0  0  0
  186.3010  179.1180  141.5210 C   0  0  0  0  0  0  0  0  0  0  0  0
  185.4480  179.6190  142.1210 N   0  0  0  0  0  0  0  0  0  0  0  0
  2 15  1  0  0  0  0
  3 18  1  1  0  0  0
  3  5  1  0  0  0  0
  3  2  1  0  0  0  0
  5 25  1  6  0  0  0
  5  6  1  0  0  0  0
  6 23  1  0  0  0  0
  6  4  1  1  0  0  0
  7 13  1  1  0  0  0
  8 17  1  0  0  0  0
  9 14  1  0  0  0  0
 10 19  1  0  0  0  0
 11 10  1  0  0  0  0
 12 16  1  6  0  0  0
 12 23  1  0  0  0  0
 12  7  1  0  0  0  0
 13 22  1  0  0  0  0
 13 10  2  0  0  0  0
 14  1  1  0  0  0  0
 14  8  2  0  0  0  0
 15  7  1  0  0  0  0
 15  8  1  6  0  0  0
 17 11  1  0  0  0  0
 18 12  1  0  0  0  0
 20 19  1  0  0  0  0
 20 28  1  0  0  0  0
 21  2  1  0  0  0  0
 21  9  2  0  0  0  0
 22 20  2  0  0  0  0
 25 27  1  0  0  0  0
 26 27  2  0  0  0  0
 27 24  1  0  0  0  0
 28 29  3  0  0  0  0
M  END
>  <MODEL>
3

>  <REMARK>
 VINA RESULT:      -5.6      2.791      6.422
  Name = 
  2 active torsions:
  status: ('A' for Active; 'I' for Inactive)
    1  A    between atoms: C_6  and  N_16
    2  A    between atoms: C_23  and  C_26
                            x       y       z     vdW  Elec       q    Type
                         _______ _______ _______ _____ _____    ______ ____

>  <TORSDO>
F 2

$$$$
=
 OpenBabel10232410203D

 29 33  0  0  1  0  0  0  0  0999 V2000
  185.2300  179.3300  140.1670 O   0  0  0  0  0  1  0  0  0  0  0  0
  188.4060  178.0500  142.5380 N   0  0  0  0  0  0  0  0  0  0  0  0
  189.5790  178.0780  143.4020 C   0  0  1  0  0  3  0  0  0  0  0  0
  191.2160  174.5900  143.6680 C   0  0  0  0  0  1  0  0  0  0  0  0
  189.8570  176.6820  143.9720 C   0  0  1  0  0  3  0  0  0  0  0  0
  191.1120  176.0640  143.3270 C   0  0  2  0  0  3  0  0  0  0  0  0
  189.8670  177.7080  140.4610 C   0  0  1  0  0  3  0  0  0  0  0  0
  187.4060  178.3850  140.3170 C   0  0  0  0  0  0  0  0  0  0  0  0
  186.0940  178.6420  142.3690 C   0  0  0  0  0  3  0  0  0  0  0  0
  189.0210  176.6520  138.2310 C   0  0  0  0  0  0  0  0  0  0  0  0
  187.6690  177.2890  138.1280 C   0  0  0  0  0  2  0  0  0  0  0  0
  191.0220  177.5730  141.4910 C   0  0  1  0  0  0  0  0  0  0  0  0
  189.9680  176.7500  139.2700 C   0  0  0  0  0  0  0  0  0  0  0  0
  186.2630  178.7690  140.9120 C   0  0  0  0  0  0  0  0  0  0  0  0
  188.4570  177.6370  141.1170 C   0  0  2  0  0  3  0  0  0  0  0  0
  192.3440  177.9610  140.8500 C   0  0  0  0  0  1  0  0  0  0  0  0
  187.5930  178.6170  138.8510 C   0  0  0  0  0  2  0  0  0  0  0  0
  190.7670  178.5890  142.6120 C   0  0  0  0  0  2  0  0  0  0  0  0
  189.5440  175.5110  137.1140 S   0  0  0  0  0  0  0  0  0  0  0  0
  190.9780  175.1550  137.8950 C   0  0  0  0  0  0  0  0  0  0  0  0
  187.1320  178.3140  143.1370 C   0  0  0  0  0  3  0  0  0  0  0  0
  191.0760  175.9050  139.0530 C   0  0  0  0  0  3  0  0  0  0  0  0
  191.0860  176.2100  141.9220 O   0  0  0  0  0  0  0  0  0  0  0  0
  187.7650  177.1100  145.8700 O   0  0  0  0  0  0  0  0  0  0  0  0
  190.0350  176.7880  145.4140 N   0  0  0  0  0  2  0  0  0  0  0  0
  189.1690  177.0280  147.6770 O   0  0  0  0  0  1  0  0  0  0  0  0
  188.9380  176.9770  146.3090 C   0  0  0  0  0  0  0  0  0  0  0  0
  191.9560  174.2090  137.4380 C   0  0  0  0  0  0  0  0  0  0  0  0
  192.7450  173.4470  137.0690 N   0  0  0  0  0  0  0  0  0  0  0  0
  1 14  1  0  0  0  0
  2 21  1  0  0  0  0
  2  3  1  0  0  0  0
  3 18  1  6  0  0  0
  3  5  1  0  0  0  0
  5 25  1  1  0  0  0
  6  4  1  6  0  0  0
  6  5  1  0  0  0  0
  7 13  1  6  0  0  0
  7 15  1  0  0  0  0
  7 12  1  0  0  0  0
  8 14  2  0  0  0  0
  9 21  2  0  0  0  0
 10 13  2  0  0  0  0
 11 10  1  0  0  0  0
 11 17  1  0  0  0  0
 12 16  1  6  0  0  0
 12 23  1  0  0  0  0
 12 18  1  0  0  0  0
 14  9  1  0  0  0  0
 15  8  1  6  0  0  0
 15  2  1  0  0  0  0
 17  8  1  0  0  0  0
 19 20  1  0  0  0  0
 19 10  1  0  0  0  0
 20 22  2  0  0  0  0
 22 13  1  0  0  0  0
 23  6  1  0  0  0  0
 24 27  2  0  0  0  0
 25 27  1  0  0  0  0
 27 26  1  0  0  0  0
 28 20  1  0  0  0  0
 29 28  3  0  0  0  0
M  END
>  <MODEL>
4

>  <REMARK>
 VINA RESULT:      -5.6      3.828      6.456
  Name = 
  2 active torsions:
  status: ('A' for Active; 'I' for Inactive)
    1  A    between atoms: C_6  and  N_16
    2  A    between atoms: C_23  and  C_26
                            x       y       z     vdW  Elec       q    Type
                         _______ _______ _______ _____ _____    ______ ____

>  <TORSDO>
F 2

$$$$
=
 OpenBabel10232410203D

 29 33  0  0  1  0  0  0  0  0999 V2000
  188.3530  176.4360  135.5420 O   0  0  0  0  0  1  0  0  0  0  0  0
  184.3140  176.3110  136.5490 N   0  0  0  0  0  0  0  0  0  0  0  0
  182.8760  176.5440  136.5070 C   0  0  1  0  0  3  0  0  0  0  0  0
  181.1840  175.4970  139.8190 C   0  0  0  0  0  1  0  0  0  0  0  0
  182.1570  175.6270  137.5050 C   0  0  1  0  0  3  0  0  0  0  0  0
  181.6280  176.4300  138.7080 C   0  0  2  0  0  3  0  0  0  0  0  0
  184.6370  178.2160  138.2330 C   0  0  1  0  0  3  0  0  0  0  0  0
  186.5840  177.1650  136.9530 C   0  0  0  0  0  0  0  0  0  0  0  0
  186.1620  175.3190  135.3990 C   0  0  0  0  0  3  0  0  0  0  0  0
  186.6730  178.4130  139.8500 C   0  0  0  0  0  0  0  0  0  0  0  0
  187.7830  177.9940  138.9370 C   0  0  0  0  0  2  0  0  0  0  0  0
  183.0840  178.2530  138.2470 C   0  0  1  0  0  0  0  0  0  0  0  0
  185.2870  178.4450  139.6000 C   0  0  0  0  0  0  0  0  0  0  0  0
  187.0440  176.3320  136.0020 C   0  0  0  0  0  0  0  0  0  0  0  0
  185.2060  176.9380  137.5500 C   0  0  2  0  0  3  0  0  0  0  0  0
  182.5960  179.6410  138.6300 C   0  0  0  0  0  1  0  0  0  0  0  0
  187.4690  178.2500  137.4780 C   0  0  0  0  0  2  0  0  0  0  0  0
  182.5990  178.0020  136.8130 C   0  0  0  0  0  2  0  0  0  0  0  0
  186.9490  178.7580  141.4710 S   0  0  0  0  0  0  0  0  0  0  0  0
  185.3420  178.9890  141.8710 C   0  0  0  0  0  0  0  0  0  0  0  0
  184.8540  175.3320  135.6550 C   0  0  0  0  0  3  0  0  0  0  0  0
  184.5520  178.7880  140.7540 C   0  0  0  0  0  3  0  0  0  0  0  0
  182.6180  177.3040  139.2110 O   0  0  0  0  0  0  0  0  0  0  0  0
  182.1430  172.9000  136.6550 O   0  0  0  0  0  1  0  0  0  0  0  0
  181.0550  174.9620  136.8230 N   0  0  0  0  0  2  0  0  0  0  0  0
  180.0060  172.9970  135.8390 O   0  0  0  0  0  0  0  0  0  0  0  0
  181.1060  173.5840  136.4480 C   0  0  0  0  0  0  0  0  0  0  0  0
  184.8570  179.3370  143.1760 C   0  0  0  0  0  0  0  0  0  0  0  0
  184.4660  179.6170  144.2280 N   0  0  0  0  0  0  0  0  0  0  0  0
  1 14  1  0  0  0  0
  2 15  1  0  0  0  0
  3  2  1  0  0  0  0
  3 18  1  1  0  0  0
  3  5  1  0  0  0  0
  5 25  1  6  0  0  0
  5  6  1  0  0  0  0
  6 23  1  0  0  0  0
  6  4  1  1  0  0  0
  7 12  1  0  0  0  0
  7 13  1  1  0  0  0
  8 17  1  0  0  0  0
  9 21  2  0  0  0  0
  9 14  1  0  0  0  0
 10 19  1  0  0  0  0
 11 10  1  0  0  0  0
 12 16  1  1  0  0  0
 12 23  1  0  0  0  0
 13 10  2  0  0  0  0
 13 22  1  0  0  0  0
 14  8  2  0  0  0  0
 15  8  1  6  0  0  0
 15  7  1  0  0  0  0
 17 11  1  0  0  0  0
 18 12  1  0  0  0  0
 19 20  1  0  0  0  0
 20 28  1  0  0  0  0
 21  2  1  0  0  0  0
 22 20  2  0  0  0  0
 26 27  2  0  0  0  0
 27 24  1  0  0  0  0
 27 25  1  0  0  0  0
 28 29  3  0  0  0  0
M  END
>  <MODEL>
5

>  <REMARK>
 VINA RESULT:      -5.3      3.160      7.116
  Name = 
  2 active torsions:
  status: ('A' for Active; 'I' for Inactive)
    1  A    between atoms: C_6  and  N_16
    2  A    between atoms: C_23  and  C_26
                            x       y       z     vdW  Elec       q    Type
                         _______ _______ _______ _____ _____    ______ ____

>  <TORSDO>
F 2

$$$$
=
 OpenBabel10232410203D

 29 33  0  0  1  0  0  0  0  0999 V2000
  186.1950  178.8630  142.9720 O   0  0  0  0  0  1  0  0  0  0  0  0
  188.3710  178.0780  139.5090 N   0  0  0  0  0  0  0  0  0  0  0  0
  189.2370  178.2700  138.3520 C   0  0  1  0  0  3  0  0  0  0  0  0
  189.0040  175.2870  135.9080 C   0  0  0  0  0  1  0  0  0  0  0  0
  189.6000  176.9190  137.7250 C   0  0  1  0  0  3  0  0  0  0  0  0
  188.8780  176.7240  136.3790 C   0  0  2  0  0  3  0  0  0  0  0  0
  186.2740  178.4010  138.0730 C   0  0  1  0  0  3  0  0  0  0  0  0
  186.2170  178.4680  140.6280 C   0  0  0  0  0  0  0  0  0  0  0  0
  188.2790  178.1040  141.8990 C   0  0  0  0  0  3  0  0  0  0  0  0
  183.9110  177.4960  138.7050 C   0  0  0  0  0  0  0  0  0  0  0  0
  183.8940  177.7910  140.1730 C   0  0  0  0  0  2  0  0  0  0  0  0
  187.2790  178.4090  136.8890 C   0  0  1  0  0  0  0  0  0  0  0  0
  184.9570  177.6750  137.7790 C   0  0  0  0  0  0  0  0  0  0  0  0
  186.8560  178.4730  141.8110 C   0  0  0  0  0  0  0  0  0  0  0  0
  186.9060  177.8950  139.4020 C   0  0  2  0  0  3  0  0  0  0  0  0
  186.7080  179.1960  135.7200 C   0  0  0  0  0  1  0  0  0  0  0  0
  184.8010  178.9440  140.5480 C   0  0  0  0  0  2  0  0  0  0  0  0
  188.5340  179.1630  137.3480 C   0  0  0  0  0  2  0  0  0  0  0  0
  182.6430  176.6880  137.9550 S   0  0  0  0  0  0  0  0  0  0  0  0
  183.3720  176.5860  136.4540 C   0  0  0  0  0  0  0  0  0  0  0  0
  188.9960  177.9350  140.7890 C   0  0  0  0  0  3  0  0  0  0  0  0
  184.6260  177.1670  136.5050 C   0  0  0  0  0  3  0  0  0  0  0  0
  187.5090  177.0560  136.4820 O   0  0  0  0  0  0  0  0  0  0  0  0
  191.2530  174.6570  138.2850 O   0  0  0  0  0  1  0  0  0  0  0  0
  191.0430  176.8600  137.5350 N   0  0  0  0  0  2  0  0  0  0  0  0
  193.1720  175.6800  137.5680 O   0  0  0  0  0  0  0  0  0  0  0  0
  191.8060  175.6850  137.8110 C   0  0  0  0  0  0  0  0  0  0  0  0
  182.7870  175.9830  135.2900 C   0  0  0  0  0  0  0  0  0  0  0  0
  182.3160  175.4970  134.3520 N   0  0  0  0  0  0  0  0  0  0  0  0
  2 21  1  0  0  0  0
  3 18  1  6  0  0  0
  3  2  1  0  0  0  0
  5 25  1  6  0  0  0
  5  3  1  0  0  0  0
  6  4  1  1  0  0  0
  6 23  1  0  0  0  0
  6  5  1  0  0  0  0
  7 13  1  6  0  0  0
  7 15  1  0  0  0  0
  8 14  2  0  0  0  0
 10 11  1  0  0  0  0
 11 17  1  0  0  0  0
 12 16  1  6  0  0  0
 12 18  1  0  0  0  0
 12  7  1  0  0  0  0
 13 10  2  0  0  0  0
 14  9  1  0  0  0  0
 14  1  1  0  0  0  0
 15  2  1  0  0  0  0
 15  8  1  1  0  0  0
 17  8  1  0  0  0  0
 19 10  1  0  0  0  0
 20 22  2  0  0  0  0
 20 19  1  0  0  0  0
 21  9  2  0  0  0  0
 22 13  1  0  0  0  0
 23 12  1  0  0  0  0
 25 27  1  0  0  0  0
 26 27  2  0  0  0  0
 27 24  1  0  0  0  0
 28 20  1  0  0  0  0
 29 28  3  0  0  0  0
M  END
>  <MODEL>
6

>  <REMARK>
 VINA RESULT:      -5.0      1.099      1.147
  Name = 
  2 active torsions:
  status: ('A' for Active; 'I' for Inactive)
    1  A    between atoms: C_6  and  N_16
    2  A    between atoms: C_23  and  C_26
                            x       y       z     vdW  Elec       q    Type
                         _______ _______ _______ _____ _____    ______ ____

>  <TORSDO>
F 2

$$$$
=
 OpenBabel10232410203D

 29 33  0  0  1  0  0  0  0  0999 V2000
  186.1190  173.0680  134.5910 O   0  0  0  0  0  1  0  0  0  0  0  0
  185.8680  176.4100  137.0650 N   0  0  0  0  0  0  0  0  0  0  0  0
  185.6360  177.7760  137.5160 C   0  0  1  0  0  3  0  0  0  0  0  0
  187.1650  178.3840  141.0110 C   0  0  0  0  0  1  0  0  0  0  0  0
  185.6900  177.8500  139.0470 C   0  0  1  0  0  3  0  0  0  0  0  0
  186.9680  178.5680  139.5190 C   0  0  2  0  0  3  0  0  0  0  0  0
  188.3710  176.8700  136.7590 C   0  0  1  0  0  3  0  0  0  0  0  0
  187.2200  174.8070  135.7810 C   0  0  0  0  0  0  0  0  0  0  0  0
  184.8290  174.4470  136.1750 C   0  0  0  0  0  3  0  0  0  0  0  0
  190.2120  175.0230  136.7620 C   0  0  0  0  0  0  0  0  0  0  0  0
  189.5220  173.9530  135.9730 C   0  0  0  0  0  2  0  0  0  0  0  0
  188.0380  178.2360  137.4200 C   0  0  1  0  0  0  0  0  0  0  0  0
  189.7120  176.2700  137.1890 C   0  0  0  0  0  0  0  0  0  0  0  0
  186.1030  174.1060  135.5180 C   0  0  0  0  0  0  0  0  0  0  0  0
  187.2210  175.8300  136.9030 C   0  0  2  0  0  3  0  0  0  0  0  0
  189.0410  179.2900  136.9810 C   0  0  0  0  0  1  0  0  0  0  0  0
  188.4770  174.5070  135.0280 C   0  0  0  0  0  2  0  0  0  0  0  0
  186.6710  178.6890  136.8910 C   0  0  0  0  0  2  0  0  0  0  0  0
  191.7290  174.7770  137.4400 S   0  0  0  0  0  0  0  0  0  0  0  0
  191.7960  176.2410  138.2430 C   0  0  0  0  0  0  0  0  0  0  0  0
  184.7260  175.5620  136.8980 C   0  0  0  0  0  3  0  0  0  0  0  0
  190.6310  176.9510  138.0140 C   0  0  0  0  0  3  0  0  0  0  0  0
  188.1070  178.0780  138.8410 O   0  0  0  0  0  0  0  0  0  0  0  0
  183.2110  176.6320  139.7750 O   0  0  0  0  0  0  0  0  0  0  0  0
  184.5110  178.5580  139.5260 N   0  0  0  0  0  2  0  0  0  0  0  0
  182.2350  178.6100  140.3890 O   0  0  0  0  0  1  0  0  0  0  0  0
  183.3090  177.8820  139.8980 C   0  0  0  0  0  0  0  0  0  0  0  0
  192.8930  176.6910  139.0520 C   0  0  0  0  0  0  0  0  0  0  0  0
  193.7770  177.0540  139.7050 N   0  0  0  0  0  0  0  0  0  0  0  0
  1 14  1  0  0  0  0
  2  3  1  0  0  0  0
  3 18  1  6  0  0  0
  3  5  1  0  0  0  0
  5  6  1  0  0  0  0
  5 25  1  6  0  0  0
  6  4  1  1  0  0  0
  7 15  1  0  0  0  0
  7 13  1  1  0  0  0
  7 12  1  0  0  0  0
  9 21  2  0  0  0  0
 10 13  2  0  0  0  0
 10 19  1  0  0  0  0
 11 10  1  0  0  0  0
 12 16  1  6  0  0  0
 12 23  1  0  0  0  0
 13 22  1  0  0  0  0
 14  8  2  0  0  0  0
 14  9  1  0  0  0  0
 15  8  1  6  0  0  0
 15  2  1  0  0  0  0
 17  8  1  0  0  0  0
 17 11  1  0  0  0  0
 18 12  1  0  0  0  0
 19 20  1  0  0  0  0
 20 28  1  0  0  0  0
 21  2  1  0  0  0  0
 22 20  2  0  0  0  0
 23  6  1  0  0  0  0
 24 27  2  0  0  0  0
 25 27  1  0  0  0  0
 27 26  1  0  0  0  0
 28 29  3  0  0  0  0
M  END
>  <MODEL>
7

>  <REMARK>
 VINA RESULT:      -5.0      2.847      6.982
  Name = 
  2 active torsions:
  status: ('A' for Active; 'I' for Inactive)
    1  A    between atoms: C_6  and  N_16
    2  A    between atoms: C_23  and  C_26
                            x       y       z     vdW  Elec       q    Type
                         _______ _______ _______ _____ _____    ______ ____

>  <TORSDO>
F 2

$$$$
=
 OpenBabel10232410203D

 29 33  0  0  1  0  0  0  0  0999 V2000
  185.4930  171.7470  135.8440 O   0  0  0  0  0  1  0  0  0  0  0  0
  186.3250  175.7380  136.7000 N   0  0  0  0  0  0  0  0  0  0  0  0
  186.3720  177.1900  136.5870 C   0  0  1  0  0  3  0  0  0  0  0  0
  188.9350  178.7090  139.0460 C   0  0  0  0  0  1  0  0  0  0  0  0
  186.8930  177.8100  137.8900 C   0  0  1  0  0  3  0  0  0  0  0  0
  188.3170  178.3670  137.7040 C   0  0  2  0  0  3  0  0  0  0  0  0
  188.6500  175.5170  135.6460 C   0  0  1  0  0  3  0  0  0  0  0  0
  187.0650  173.5290  135.9110 C   0  0  0  0  0  0  0  0  0  0  0  0
  184.8810  173.8500  136.9730 C   0  0  0  0  0  3  0  0  0  0  0  0
  190.2200  173.4600  135.9740 C   0  0  0  0  0  0  0  0  0  0  0  0
  189.2240  172.3450  135.8860 C   0  0  0  0  0  2  0  0  0  0  0  0
  188.6660  177.0680  135.7430 C   0  0  1  0  0  0  0  0  0  0  0  0
  189.9950  174.8510  135.9530 C   0  0  0  0  0  0  0  0  0  0  0  0
  185.8580  173.0320  136.2340 C   0  0  0  0  0  0  0  0  0  0  0  0
  187.5030  174.8690  136.4750 C   0  0  2  0  0  3  0  0  0  0  0  0
  189.5880  177.6500  134.6830 C   0  0  0  0  0  1  0  0  0  0  0  0
  188.0010  172.7170  135.0740 C   0  0  0  0  0  2  0  0  0  0  0  0
  187.2540  177.5690  135.4140 C   0  0  0  0  0  2  0  0  0  0  0  0
  191.8400  173.1690  136.3120 S   0  0  0  0  0  0  0  0  0  0  0  0
  192.2870  174.7780  136.3980 C   0  0  0  0  0  0  0  0  0  0  0  0
  185.1090  175.1470  137.1730 C   0  0  0  0  0  3  0  0  0  0  0  0
  191.1810  175.5800  136.1800 C   0  0  0  0  0  3  0  0  0  0  0  0
  189.1450  177.4340  137.0410 O   0  0  0  0  0  0  0  0  0  0  0  0
  184.4850  177.4510  139.3840 O   0  0  0  0  0  0  0  0  0  0  0  0
  185.9870  178.8750  138.2990 N   0  0  0  0  0  2  0  0  0  0  0  0
  184.0110  179.6900  139.4640 O   0  0  0  0  0  1  0  0  0  0  0  0
  184.8100  178.6270  139.0690 C   0  0  0  0  0  0  0  0  0  0  0  0
  193.6140  175.2540  136.6630 C   0  0  0  0  0  0  0  0  0  0  0  0
  194.6840  175.6380  136.8780 N   0  0  0  0  0  0  0  0  0  0  0  0
  1 14  1  0  0  0  0
  2 21  1  0  0  0  0
  3 18  1  6  0  0  0
  3  2  1  0  0  0  0
  3  5  1  0  0  0  0
  5 25  1  6  0  0  0
  6  5  1  0  0  0  0
  6  4  1  1  0  0  0
  7 12  1  0  0  0  0
  7 13  1  1  0  0  0
  7 15  1  0  0  0  0
  8 14  2  0  0  0  0
  9 21  2  0  0  0  0
 10 19  1  0  0  0  0
 11 10  1  0  0  0  0
 12 16  1  6  0  0  0
 12 23  1  0  0  0  0
 13 10  2  0  0  0  0
 13 22  1  0  0  0  0
 14  9  1  0  0  0  0
 15  8  1  6  0  0  0
 15  2  1  0  0  0  0
 17 11  1  0  0  0  0
 17  8  1  0  0  0  0
 18 12  1  0  0  0  0
 19 20  1  0  0  0  0
 20 28  1  0  0  0  0
 22 20  2  0  0  0  0
 23  6  1  0  0  0  0
 25 27  1  0  0  0  0
 27 24  2  0  0  0  0
 27 26  1  0  0  0  0
 28 29  3  0  0  0  0
M  END
>  <MODEL>
8

>  <REMARK>
 VINA RESULT:      -5.0      3.020      6.860
  Name = 
  2 active torsions:
  status: ('A' for Active; 'I' for Inactive)
    1  A    between atoms: C_6  and  N_16
    2  A    between atoms: C_23  and  C_26
                            x       y       z     vdW  Elec       q    Type
                         _______ _______ _______ _____ _____    ______ ____

>  <TORSDO>
F 2

$$$$
=
 OpenBabel10232410203D

 29 33  0  0  1  0  0  0  0  0999 V2000
  184.2630  179.0080  143.9750 O   0  0  0  0  0  1  0  0  0  0  0  0
  187.7580  177.9200  141.9890 N   0  0  0  0  0  0  0  0  0  0  0  0
  188.6850  177.1970  141.1280 C   0  0  1  0  0  3  0  0  0  0  0  0
  192.3420  178.2420  141.8060 C   0  0  0  0  0  1  0  0  0  0  0  0
  189.9880  177.9890  140.9620 C   0  0  1  0  0  3  0  0  0  0  0  0
  191.1430  177.3170  141.7280 C   0  0  2  0  0  3  0  0  0  0  0  0
  188.5730  176.6340  144.0510 C   0  0  1  0  0  3  0  0  0  0  0  0
  186.4200  178.0130  144.0500 C   0  0  0  0  0  0  0  0  0  0  0  0
  185.7610  179.2370  142.0330 C   0  0  0  0  0  3  0  0  0  0  0  0
  188.3390  177.4930  146.5020 C   0  0  0  0  0  0  0  0  0  0  0  0
  186.9610  178.0770  146.4510 C   0  0  0  0  0  2  0  0  0  0  0  0
  189.6380  176.0610  143.0750 C   0  0  1  0  0  0  0  0  0  0  0  0
  189.0990  176.9300  145.4580 C   0  0  0  0  0  0  0  0  0  0  0  0
  185.4980  178.7410  143.3950 C   0  0  0  0  0  0  0  0  0  0  0  0
  187.8140  177.8620  143.4680 C   0  0  2  0  0  3  0  0  0  0  0  0
  190.1130  174.7000  143.5570 C   0  0  0  0  0  1  0  0  0  0  0  0
  186.0920  177.4350  145.3910 C   0  0  0  0  0  2  0  0  0  0  0  0
  188.9530  175.8290  141.7220 C   0  0  0  0  0  2  0  0  0  0  0  0
  189.2920  177.6040  147.8800 S   0  0  0  0  0  0  0  0  0  0  0  0
  190.6550  176.9150  147.2000 C   0  0  0  0  0  0  0  0  0  0  0  0
  186.8370  178.8220  141.3660 C   0  0  0  0  0  3  0  0  0  0  0  0
  190.4030  176.5950  145.8780 C   0  0  0  0  0  3  0  0  0  0  0  0
  190.7470  176.9640  143.0380 O   0  0  0  0  0  0  0  0  0  0  0  0
  190.8040  175.8020  139.3150 O   0  0  0  0  0  1  0  0  0  0  0  0
  190.3100  178.0750  139.5440 N   0  0  0  0  0  2  0  0  0  0  0  0
  190.9390  177.0740  137.4150 O   0  0  0  0  0  0  0  0  0  0  0  0
  190.6870  176.9330  138.7730 C   0  0  0  0  0  0  0  0  0  0  0  0
  191.8980  176.6950  147.8820 C   0  0  0  0  0  0  0  0  0  0  0  0
  192.9000  176.5160  148.4320 N   0  0  0  0  0  0  0  0  0  0  0  0
  2 15  1  0  0  0  0
  3 18  1  1  0  0  0
  3  2  1  0  0  0  0
  5 25  1  6  0  0  0
  5  3  1  0  0  0  0
  5  6  1  0  0  0  0
  6  4  1  1  0  0  0
  6 23  1  0  0  0  0
  7 13  1  1  0  0  0
  8 17  1  0  0  0  0
  9 14  1  0  0  0  0
 10 19  1  0  0  0  0
 11 10  1  0  0  0  0
 12 16  1  1  0  0  0
 12  7  1  0  0  0  0
 13 22  1  0  0  0  0
 13 10  2  0  0  0  0
 14  1  1  0  0  0  0
 14  8  2  0  0  0  0
 15  8  1  1  0  0  0
 15  7  1  0  0  0  0
 17 11  1  0  0  0  0
 18 12  1  0  0  0  0
 20 19  1  0  0  0  0
 20 28  1  0  0  0  0
 21  2  1  0  0  0  0
 21  9  2  0  0  0  0
 22 20  2  0  0  0  0
 23 12  1  0  0  0  0
 26 27  2  0  0  0  0
 27 24  1  0  0  0  0
 27 25  1  0  0  0  0
 28 29  3  0  0  0  0
M  END
>  <MODEL>
9

>  <REMARK>
 VINA RESULT:      -4.9      4.868      7.937
  Name = 
  2 active torsions:
  status: ('A' for Active; 'I' for Inactive)
    1  A    between atoms: C_6  and  N_16
    2  A    between atoms: C_23  and  C_26
                            x       y       z     vdW  Elec       q    Type
                         _______ _______ _______ _____ _____    ______ ____

>  <TORSDO>
F 2

$$$$
