=
 OpenBabel10232409433D

 35 38  0  0  1  0  0  0  0  0999 V2000
  190.1850  176.7600  147.4570 C   0  0  0  0  0  3  0  0  0  0  0  0
  189.8400  177.5150  145.1550 C   0  0  2  0  0  3  0  0  0  0  0  0
  191.1330  176.9390  144.7740 C   0  0  0  0  0  3  0  0  0  0  0  0
  188.0310  177.7490  146.5970 C   0  0  0  0  0  2  0  0  0  0  0  0
  187.6050  177.6390  145.3420 C   0  0  0  0  0  0  0  0  0  0  0  0
  191.2550  176.1290  147.0520 N   0  0  0  0  0  0  0  0  0  0  0  0
  191.8120  176.2890  145.7280 C   0  0  0  0  0  3  0  0  0  0  0  0
  189.5280  177.7980  146.5860 C   0  0  1  0  0  3  0  0  0  0  0  0
  188.7340  177.4850  144.4270 C   0  0  0  0  0  0  0  0  0  0  0  0
  189.6490  177.2920  140.7000 C   0  0  2  0  0  3  0  0  0  0  0  0
  190.3340  176.8470  142.2960 S   0  0  0  0  0  0  0  0  0  0  0  0
  188.4810  177.9160  140.7520 C   0  0  0  0  0  2  0  0  0  0  0  0
  187.9630  178.1190  142.1280 C   0  0  0  0  0  2  0  0  0  0  0  0
  188.6680  177.0760  142.9880 C   0  0  2  0  0  3  0  0  0  0  0  0
  189.4840  176.4870  138.3500 C   0  0  0  0  0  3  0  0  0  0  0  0
  190.2820  176.8880  139.4290 C   0  0  0  0  0  0  0  0  0  0  0  0
  192.2620  176.5480  138.0540 C   0  0  0  0  0  0  0  0  0  0  0  0
  191.6750  176.9140  139.2710 C   0  0  0  0  0  3  0  0  0  0  0  0
  193.6450  176.5750  137.9260 O   0  0  0  0  0  1  0  0  0  0  0  0
  190.0670  176.1270  137.1310 C   0  0  0  0  0  3  0  0  0  0  0  0
  191.4590  176.1590  136.9740 C   0  0  0  0  0  0  0  0  0  0  0  0
  192.0660  175.7880  135.7320 N   0  0  0  0  0  2  0  0  0  0  0  0
  192.0870  174.4180  135.2400 C   0  0  0  0  0  2  0  0  0  0  0  0
  192.5090  173.4840  136.3560 C   0  0  0  0  0  1  0  0  0  0  0  0
  186.2340  177.5260  144.9540 N   0  0  0  0  0  2  0  0  0  0  0  0
  185.2450  178.5360  145.2850 C   0  0  0  0  0  2  0  0  0  0  0  0
  184.7170  179.1640  144.0110 C   0  0  0  0  0  2  0  0  0  0  0  0
  183.2380  178.8710  143.8850 C   0  0  0  0  0  2  0  0  0  0  0  0
  183.8400  178.3070  141.5030 N   0  0  0  0  0  2  0  0  0  0  0  0
  182.8650  178.7460  142.4510 C   0  0  0  0  0  0  0  0  0  0  0  0
  181.7010  179.0530  142.0810 O   0  0  0  0  0  0  0  0  0  0  0  0
  183.5240  178.0790  140.0990 C   0  0  0  0  0  2  0  0  0  0  0  0
  184.4300  178.8860  139.2270 C   0  0  0  0  0  0  0  0  0  0  0  0
  184.2530  180.1510  139.1220 N   0  0  0  0  0  2  0  0  0  0  0  0
  185.6230  178.2540  138.6080 C   0  0  0  0  0  1  0  0  0  0  0  0
  2  3  1  1  0  0  0
  2  8  1  0  0  0  0
  3  7  2  0  0  0  0
  5  4  1  0  0  0  0
  6  1  2  0  0  0  0
  7  6  1  0  0  0  0
  8  4  1  6  0  0  0
  8  1  1  0  0  0  0
  9  2  1  0  0  0  0
  9  5  2  0  0  0  0
 10 16  1  6  0  0  0
 10 12  1  0  0  0  0
 10 11  1  0  0  0  0
 11 14  1  0  0  0  0
 12 13  1  0  0  0  0
 13 14  1  0  0  0  0
 14  9  1  1  0  0  0
 15 16  1  0  0  0  0
 17 18  1  0  0  0  0
 18 16  2  0  0  0  0
 19 17  1  0  0  0  0
 20 15  2  0  0  0  0
 21 20  1  0  0  0  0
 21 17  2  0  0  0  0
 22 21  1  0  0  0  0
 23 22  1  0  0  0  0
 23 24  1  0  0  0  0
 25 26  1  0  0  0  0
 25  5  1  0  0  0  0
 27 26  1  0  0  0  0
 28 27  1  0  0  0  0
 29 30  1  0  0  0  0
 30 28  1  0  0  0  0
 31 30  2  0  0  0  0
 32 29  1  0  0  0  0
 33 32  1  0  0  0  0
 34 33  2  0  0  0  0
 35 33  1  0  0  0  0
M  END
>  <MODEL>
1

>  <REMARK>
 VINA RESULT:      -8.6      0.000      0.000
  Name = 
  11 active torsions:
  status: ('A' for Active; 'I' for Inactive)
    1  A    between atoms: C_3  and  C_8
    2  A    between atoms: C_4  and  N_9
    3  A    between atoms: N_6  and  C_26
    4  A    between atoms: C_7  and  C_30
    5  A    between atoms: N_9  and  C_25
    6  A    between atoms: C_12  and  C_17
    7  A    between atoms: C_12  and  N_19
    8  A    between atoms: C_14  and  C_26
    9  A    between atoms: C_17  and  C_30
   10  A    between atoms: N_19  and  C_27
   11  A    between atoms: C_32  and  C_35
                            x       y       z     vdW  Elec       q    Type
                         _______ _______ _______ _____ _____    ______ ____

>  <TORSDO>
F 11

$$$$
=
 OpenBabel10232409433D

 35 38  0  0  1  0  0  0  0  0999 V2000
  190.2150  176.8630  147.5520 C   0  0  0  0  0  3  0  0  0  0  0  0
  189.6470  177.6660  145.3100 C   0  0  2  0  0  3  0  0  0  0  0  0
  190.9080  177.1190  144.7980 C   0  0  0  0  0  3  0  0  0  0  0  0
  187.9760  177.8360  146.9180 C   0  0  0  0  0  2  0  0  0  0  0  0
  187.4380  177.7480  145.7040 C   0  0  0  0  0  0  0  0  0  0  0  0
  191.2520  176.2590  147.0350 N   0  0  0  0  0  0  0  0  0  0  0  0
  191.6810  176.4590  145.6690 C   0  0  0  0  0  3  0  0  0  0  0  0
  189.4660  177.9100  146.7710 C   0  0  1  0  0  3  0  0  0  0  0  0
  188.4800  177.6340  144.6870 C   0  0  0  0  0  0  0  0  0  0  0  0
  189.0150  177.5810  140.8820 C   0  0  2  0  0  3  0  0  0  0  0  0
  189.8830  177.1350  142.3870 S   0  0  0  0  0  0  0  0  0  0  0  0
  187.8280  178.1390  141.0710 C   0  0  0  0  0  2  0  0  0  0  0  0
  187.4450  178.2810  142.4980 C   0  0  0  0  0  2  0  0  0  0  0  0
  188.2870  177.2570  143.2500 C   0  0  2  0  0  3  0  0  0  0  0  0
  189.1890  178.0360  138.4400 C   0  0  0  0  0  3  0  0  0  0  0  0
  189.5340  177.2430  139.5410 C   0  0  0  0  0  0  0  0  0  0  0  0
  190.8880  175.8480  138.0770 C   0  0  0  0  0  0  0  0  0  0  0  0
  190.3870  176.1460  139.3490 C   0  0  0  0  0  3  0  0  0  0  0  0
  191.7250  174.7510  137.9110 O   0  0  0  0  0  1  0  0  0  0  0  0
  189.6930  177.7440  137.1690 C   0  0  0  0  0  3  0  0  0  0  0  0
  190.5490  176.6510  136.9800 C   0  0  0  0  0  0  0  0  0  0  0  0
  191.0680  176.3410  135.6820 N   0  0  0  0  0  2  0  0  0  0  0  0
  190.2190  175.9710  134.5590 C   0  0  0  0  0  2  0  0  0  0  0  0
  189.7020  174.5600  134.7570 C   0  0  0  0  0  1  0  0  0  0  0  0
  186.0380  177.6220  145.4420 N   0  0  0  0  0  2  0  0  0  0  0  0
  185.0880  178.6690  145.7680 C   0  0  0  0  0  2  0  0  0  0  0  0
  184.5880  179.3130  144.4900 C   0  0  0  0  0  2  0  0  0  0  0  0
  183.1040  179.0530  144.3450 C   0  0  0  0  0  2  0  0  0  0  0  0
  183.8220  178.4160  142.0150 N   0  0  0  0  0  2  0  0  0  0  0  0
  182.7760  178.7600  142.9260 C   0  0  0  0  0  0  0  0  0  0  0  0
  181.5820  178.8420  142.5320 O   0  0  0  0  0  0  0  0  0  0  0  0
  183.5650  178.0320  140.6330 C   0  0  0  0  0  2  0  0  0  0  0  0
  183.6700  179.2250  139.7380 C   0  0  0  0  0  0  0  0  0  0  0  0
  184.8240  179.6800  139.4150 N   0  0  0  0  0  2  0  0  0  0  0  0
  182.4510  179.7850  139.1010 C   0  0  0  0  0  1  0  0  0  0  0  0
  2  3  1  1  0  0  0
  2  8  1  0  0  0  0
  3  7  2  0  0  0  0
  5  4  1  0  0  0  0
  6  1  2  0  0  0  0
  7  6  1  0  0  0  0
  8  4  1  6  0  0  0
  8  1  1  0  0  0  0
  9  2  1  0  0  0  0
  9  5  2  0  0  0  0
 10 16  1  6  0  0  0
 10 12  1  0  0  0  0
 10 11  1  0  0  0  0
 11 14  1  0  0  0  0
 12 13  1  0  0  0  0
 13 14  1  0  0  0  0
 14  9  1  1  0  0  0
 15 16  1  0  0  0  0
 17 18  1  0  0  0  0
 18 16  2  0  0  0  0
 19 17  1  0  0  0  0
 20 15  2  0  0  0  0
 21 20  1  0  0  0  0
 21 17  2  0  0  0  0
 22 21  1  0  0  0  0
 23 24  1  0  0  0  0
 23 22  1  0  0  0  0
 25  5  1  0  0  0  0
 25 26  1  0  0  0  0
 27 26  1  0  0  0  0
 28 27  1  0  0  0  0
 29 30  1  0  0  0  0
 30 28  1  0  0  0  0
 31 30  2  0  0  0  0
 32 29  1  0  0  0  0
 33 32  1  0  0  0  0
 34 33  2  0  0  0  0
 35 33  1  0  0  0  0
M  END
>  <MODEL>
2

>  <REMARK>
 VINA RESULT:      -8.5      1.154      1.278
  Name = 
  11 active torsions:
  status: ('A' for Active; 'I' for Inactive)
    1  A    between atoms: C_3  and  C_8
    2  A    between atoms: C_4  and  N_9
    3  A    between atoms: N_6  and  C_26
    4  A    between atoms: C_7  and  C_30
    5  A    between atoms: N_9  and  C_25
    6  A    between atoms: C_12  and  C_17
    7  A    between atoms: C_12  and  N_19
    8  A    between atoms: C_14  and  C_26
    9  A    between atoms: C_17  and  C_30
   10  A    between atoms: N_19  and  C_27
   11  A    between atoms: C_32  and  C_35
                            x       y       z     vdW  Elec       q    Type
                         _______ _______ _______ _____ _____    ______ ____

>  <TORSDO>
F 11

$$$$
=
 OpenBabel10232409433D

 35 38  0  0  1  0  0  0  0  0999 V2000
  190.4200  177.9960  148.0680 C   0  0  0  0  0  3  0  0  0  0  0  0
  188.6000  176.9520  146.8080 C   0  0  2  0  0  3  0  0  0  0  0  0
  187.6670  177.2760  147.8930 C   0  0  0  0  0  3  0  0  0  0  0  0
  190.6200  177.2000  145.6840 C   0  0  0  0  0  2  0  0  0  0  0  0
  189.6120  177.1750  144.8160 C   0  0  0  0  0  0  0  0  0  0  0  0
  189.5370  178.4010  148.9420 N   0  0  0  0  0  0  0  0  0  0  0  0
  188.1590  177.9620  148.9310 C   0  0  0  0  0  3  0  0  0  0  0  0
  190.0710  176.9390  147.0540 C   0  0  1  0  0  3  0  0  0  0  0  0
  188.3370  177.0260  145.5130 C   0  0  0  0  0  0  0  0  0  0  0  0
  185.5530  178.4240  143.2620 C   0  0  2  0  0  3  0  0  0  0  0  0
  187.0620  177.4620  143.1280 S   0  0  0  0  0  0  0  0  0  0  0  0
  185.2710  178.8420  144.4870 C   0  0  0  0  0  2  0  0  0  0  0  0
  186.2590  178.4270  145.5140 C   0  0  0  0  0  2  0  0  0  0  0  0
  186.9710  177.2140  144.9270 C   0  0  2  0  0  3  0  0  0  0  0  0
  183.2640  178.4430  142.2850 C   0  0  0  0  0  3  0  0  0  0  0  0
  184.6420  178.6270  142.1180 C   0  0  0  0  0  0  0  0  0  0  0  0
  184.2520  179.2310  139.7930 C   0  0  0  0  0  0  0  0  0  0  0  0
  185.1290  179.0210  140.8640 C   0  0  0  0  0  3  0  0  0  0  0  0
  184.7610  179.6140  138.5580 O   0  0  0  0  0  1  0  0  0  0  0  0
  182.3850  178.6570  141.2190 C   0  0  0  0  0  3  0  0  0  0  0  0
  182.8730  179.0560  139.9680 C   0  0  0  0  0  0  0  0  0  0  0  0
  181.9830  179.2740  138.8680 N   0  0  0  0  0  2  0  0  0  0  0  0
  180.9920  180.3420  138.8520 C   0  0  0  0  0  2  0  0  0  0  0  0
  181.2760  181.2790  137.6960 C   0  0  0  0  0  1  0  0  0  0  0  0
  189.7390  177.4190  143.4130 N   0  0  0  0  0  2  0  0  0  0  0  0
  190.7040  176.7170  142.5860 C   0  0  0  0  0  2  0  0  0  0  0  0
  191.6720  177.7150  141.9820 C   0  0  0  0  0  2  0  0  0  0  0  0
  191.8990  177.3740  140.5260 C   0  0  0  0  0  2  0  0  0  0  0  0
  189.5340  177.9960  139.9190 N   0  0  0  0  0  2  0  0  0  0  0  0
  190.6040  177.0520  139.8700 C   0  0  0  0  0  0  0  0  0  0  0  0
  190.4540  175.9390  139.3000 O   0  0  0  0  0  0  0  0  0  0  0  0
  188.2680  177.7860  139.2280 C   0  0  0  0  0  2  0  0  0  0  0  0
  188.3400  178.3370  137.8400 C   0  0  0  0  0  0  0  0  0  0  0  0
  188.9650  179.4340  137.6220 N   0  0  0  0  0  2  0  0  0  0  0  0
  187.8250  177.5400  136.6970 C   0  0  0  0  0  1  0  0  0  0  0  0
  1  6  2  0  0  0  0
  2  8  1  0  0  0  0
  2  3  1  1  0  0  0
  3  7  2  0  0  0  0
  5  9  2  0  0  0  0
  5  4  1  0  0  0  0
  7  6  1  0  0  0  0
  8  4  1  6  0  0  0
  8  1  1  0  0  0  0
  9  2  1  0  0  0  0
 10 16  1  1  0  0  0
 10 12  1  0  0  0  0
 11 10  1  0  0  0  0
 11 14  1  0  0  0  0
 12 13  1  0  0  0  0
 14  9  1  1  0  0  0
 14 13  1  0  0  0  0
 16 15  1  0  0  0  0
 17 21  2  0  0  0  0
 17 18  1  0  0  0  0
 18 16  2  0  0  0  0
 19 17  1  0  0  0  0
 20 15  2  0  0  0  0
 21 20  1  0  0  0  0
 22 21  1  0  0  0  0
 23 22  1  0  0  0  0
 24 23  1  0  0  0  0
 25  5  1  0  0  0  0
 26 25  1  0  0  0  0
 27 26  1  0  0  0  0
 28 27  1  0  0  0  0
 30 29  1  0  0  0  0
 30 28  1  0  0  0  0
 31 30  2  0  0  0  0
 32 29  1  0  0  0  0
 33 32  1  0  0  0  0
 34 33  2  0  0  0  0
 35 33  1  0  0  0  0
M  END
>  <MODEL>
3

>  <REMARK>
 VINA RESULT:      -8.1      2.609      6.773
  Name = 
  11 active torsions:
  status: ('A' for Active; 'I' for Inactive)
    1  A    between atoms: C_3  and  C_8
    2  A    between atoms: C_4  and  N_9
    3  A    between atoms: N_6  and  C_26
    4  A    between atoms: C_7  and  C_30
    5  A    between atoms: N_9  and  C_25
    6  A    between atoms: C_12  and  C_17
    7  A    between atoms: C_12  and  N_19
    8  A    between atoms: C_14  and  C_26
    9  A    between atoms: C_17  and  C_30
   10  A    between atoms: N_19  and  C_27
   11  A    between atoms: C_32  and  C_35
                            x       y       z     vdW  Elec       q    Type
                         _______ _______ _______ _____ _____    ______ ____

>  <TORSDO>
F 11

$$$$
=
 OpenBabel10232409433D

 35 38  0  0  1  0  0  0  0  0999 V2000
  181.9820  177.4970  138.7710 C   0  0  0  0  0  3  0  0  0  0  0  0
  183.3100  178.9400  140.2360 C   0  0  2  0  0  3  0  0  0  0  0  0
  182.3080  178.7810  141.2960 C   0  0  0  0  0  3  0  0  0  0  0  0
  184.3060  178.3140  138.2310 C   0  0  0  0  0  2  0  0  0  0  0  0
  185.2370  178.5780  139.1430 C   0  0  0  0  0  0  0  0  0  0  0  0
  181.1910  177.2560  139.7830 N   0  0  0  0  0  0  0  0  0  0  0  0
  181.2730  177.9730  141.0360 C   0  0  0  0  0  3  0  0  0  0  0  0
  182.9650  178.6360  138.8170 C   0  0  1  0  0  3  0  0  0  0  0  0
  184.6220  178.9670  140.4090 C   0  0  0  0  0  0  0  0  0  0  0  0
  186.6530  177.9550  143.5100 C   0  0  2  0  0  3  0  0  0  0  0  0
  186.8790  178.1720  141.7440 S   0  0  0  0  0  0  0  0  0  0  0  0
  185.4170  178.1590  143.9410 C   0  0  0  0  0  2  0  0  0  0  0  0
  184.4570  178.5330  142.8720 C   0  0  0  0  0  2  0  0  0  0  0  0
  185.3080  179.0870  141.7360 C   0  0  2  0  0  3  0  0  0  0  0  0
  189.0890  177.6420  143.9200 C   0  0  0  0  0  3  0  0  0  0  0  0
  187.7830  177.6890  144.4240 C   0  0  0  0  0  0  0  0  0  0  0  0
  188.6580  177.2680  146.6550 C   0  0  0  0  0  0  0  0  0  0  0  0
  187.5770  177.4990  145.7970 C   0  0  0  0  0  3  0  0  0  0  0  0
  188.4260  177.0760  148.0120 O   0  0  0  0  0  1  0  0  0  0  0  0
  190.1720  177.4180  144.7750 C   0  0  0  0  0  3  0  0  0  0  0  0
  189.9640  177.2340  146.1480 C   0  0  0  0  0  0  0  0  0  0  0  0
  191.0650  176.9990  147.0330 N   0  0  0  0  0  2  0  0  0  0  0  0
  191.9260  175.8290  146.9310 C   0  0  0  0  0  2  0  0  0  0  0  0
  192.7350  175.6820  148.2040 C   0  0  0  0  0  1  0  0  0  0  0  0
  186.6390  178.3600  138.9620 N   0  0  0  0  0  2  0  0  0  0  0  0
  187.2480  178.2620  137.6480 C   0  0  0  0  0  2  0  0  0  0  0  0
  188.7180  178.6150  137.7450 C   0  0  0  0  0  2  0  0  0  0  0  0
  189.1920  178.4050  139.1670 C   0  0  0  0  0  2  0  0  0  0  0  0
  190.7230  176.7740  138.0070 N   0  0  0  0  0  2  0  0  0  0  0  0
  190.1600  177.2790  139.2190 C   0  0  0  0  0  0  0  0  0  0  0  0
  190.4560  176.7620  140.3300 O   0  0  0  0  0  0  0  0  0  0  0  0
  191.7410  175.7310  137.9880 C   0  0  0  0  0  2  0  0  0  0  0  0
  193.0980  176.3370  137.8330 C   0  0  0  0  0  0  0  0  0  0  0  0
  193.6620  176.9030  138.8360 N   0  0  0  0  0  2  0  0  0  0  0  0
  193.8560  176.1510  136.5690 C   0  0  0  0  0  1  0  0  0  0  0  0
  1  8  1  0  0  0  0
  1  6  2  0  0  0  0
  2  9  1  0  0  0  0
  2  3  1  1  0  0  0
  4  5  1  0  0  0  0
  5  9  2  0  0  0  0
  6  7  1  0  0  0  0
  7  3  2  0  0  0  0
  8  4  1  6  0  0  0
  8  2  1  0  0  0  0
 10 12  1  0  0  0  0
 10 16  1  1  0  0  0
 11 10  1  0  0  0  0
 13 12  1  0  0  0  0
 14  9  1  6  0  0  0
 14 11  1  0  0  0  0
 14 13  1  0  0  0  0
 15 16  2  0  0  0  0
 15 20  1  0  0  0  0
 16 18  1  0  0  0  0
 17 19  1  0  0  0  0
 18 17  2  0  0  0  0
 20 21  2  0  0  0  0
 21 17  1  0  0  0  0
 21 22  1  0  0  0  0
 23 22  1  0  0  0  0
 23 24  1  0  0  0  0
 25  5  1  0  0  0  0
 26 27  1  0  0  0  0
 26 25  1  0  0  0  0
 27 28  1  0  0  0  0
 28 30  1  0  0  0  0
 29 30  1  0  0  0  0
 30 31  2  0  0  0  0
 32 29  1  0  0  0  0
 33 32  1  0  0  0  0
 33 34  2  0  0  0  0
 35 33  1  0  0  0  0
M  END
>  <MODEL>
4

>  <REMARK>
 VINA RESULT:      -7.9      2.536      8.637
  Name = 
  11 active torsions:
  status: ('A' for Active; 'I' for Inactive)
    1  A    between atoms: C_3  and  C_8
    2  A    between atoms: C_4  and  N_9
    3  A    between atoms: N_6  and  C_26
    4  A    between atoms: C_7  and  C_30
    5  A    between atoms: N_9  and  C_25
    6  A    between atoms: C_12  and  C_17
    7  A    between atoms: C_12  and  N_19
    8  A    between atoms: C_14  and  C_26
    9  A    between atoms: C_17  and  C_30
   10  A    between atoms: N_19  and  C_27
   11  A    between atoms: C_32  and  C_35
                            x       y       z     vdW  Elec       q    Type
                         _______ _______ _______ _____ _____    ______ ____

>  <TORSDO>
F 11

$$$$
=
 OpenBabel10232409433D

 35 38  0  0  1  0  0  0  0  0999 V2000
  190.2970  178.0570  147.8370 C   0  0  0  0  0  3  0  0  0  0  0  0
  188.3400  177.1140  146.7100 C   0  0  2  0  0  3  0  0  0  0  0  0
  187.5390  177.3410  147.9180 C   0  0  0  0  0  3  0  0  0  0  0  0
  190.2200  177.4660  145.3870 C   0  0  0  0  0  2  0  0  0  0  0  0
  189.1190  177.5090  144.6410 C   0  0  0  0  0  0  0  0  0  0  0  0
  189.5210  178.3820  148.8370 N   0  0  0  0  0  0  0  0  0  0  0  0
  188.1500  177.9390  148.9470 C   0  0  0  0  0  3  0  0  0  0  0  0
  189.8300  177.0880  146.7840 C   0  0  1  0  0  3  0  0  0  0  0  0
  187.9310  177.2950  145.4640 C   0  0  0  0  0  0  0  0  0  0  0  0
  184.9400  178.6300  143.4540 C   0  0  2  0  0  3  0  0  0  0  0  0
  186.3410  177.5300  143.2450 S   0  0  0  0  0  0  0  0  0  0  0  0
  184.8750  179.2270  144.6360 C   0  0  0  0  0  2  0  0  0  0  0  0
  185.9780  178.8630  145.5610 C   0  0  0  0  0  2  0  0  0  0  0  0
  186.5080  177.5260  145.0560 C   0  0  2  0  0  3  0  0  0  0  0  0
  184.2250  178.8080  141.0760 C   0  0  0  0  0  3  0  0  0  0  0  0
  183.8810  178.7630  142.4330 C   0  0  0  0  0  0  0  0  0  0  0  0
  181.5330  178.9310  141.8160 C   0  0  0  0  0  0  0  0  0  0  0  0
  182.5280  178.8260  142.7950 C   0  0  0  0  0  3  0  0  0  0  0  0
  180.2000  179.0000  142.2010 O   0  0  0  0  0  1  0  0  0  0  0  0
  183.2330  178.9070  140.0960 C   0  0  0  0  0  3  0  0  0  0  0  0
  181.8810  178.9650  140.4590 C   0  0  0  0  0  0  0  0  0  0  0  0
  180.8570  179.0700  139.4640 N   0  0  0  0  0  2  0  0  0  0  0  0
  180.9750  179.9320  138.2960 C   0  0  0  0  0  2  0  0  0  0  0  0
  180.7980  181.3780  138.7140 C   0  0  0  0  0  1  0  0  0  0  0  0
  189.0860  177.8710  143.2590 N   0  0  0  0  0  2  0  0  0  0  0  0
  190.2400  177.7280  142.3890 C   0  0  0  0  0  2  0  0  0  0  0  0
  189.7780  177.3680  140.9920 C   0  0  0  0  0  2  0  0  0  0  0  0
  188.6920  178.3290  140.5590 C   0  0  0  0  0  2  0  0  0  0  0  0
  187.2040  178.3530  138.5250 N   0  0  0  0  0  2  0  0  0  0  0  0
  188.5160  178.2660  139.0840 C   0  0  0  0  0  0  0  0  0  0  0  0
  189.5230  178.1110  138.3430 O   0  0  0  0  0  0  0  0  0  0  0  0
  186.9640  178.3850  137.0880 C   0  0  0  0  0  2  0  0  0  0  0  0
  186.1950  177.1760  136.6660 C   0  0  0  0  0  0  0  0  0  0  0  0
  186.7560  176.2880  135.9320 N   0  0  0  0  0  2  0  0  0  0  0  0
  184.8390  176.9270  137.2190 C   0  0  0  0  0  1  0  0  0  0  0  0
  1  6  2  0  0  0  0
  2  8  1  0  0  0  0
  2  3  1  1  0  0  0
  3  7  2  0  0  0  0
  5  4  1  0  0  0  0
  5  9  2  0  0  0  0
  6  7  1  0  0  0  0
  8  4  1  6  0  0  0
  8  1  1  0  0  0  0
  9  2  1  0  0  0  0
 10 16  1  1  0  0  0
 10 12  1  0  0  0  0
 11 10  1  0  0  0  0
 11 14  1  0  0  0  0
 12 13  1  0  0  0  0
 14  9  1  6  0  0  0
 14 13  1  0  0  0  0
 15 16  1  0  0  0  0
 16 18  2  0  0  0  0
 17 19  1  0  0  0  0
 17 18  1  0  0  0  0
 20 21  1  0  0  0  0
 20 15  2  0  0  0  0
 21 17  2  0  0  0  0
 22 21  1  0  0  0  0
 23 24  1  0  0  0  0
 23 22  1  0  0  0  0
 25  5  1  0  0  0  0
 26 25  1  0  0  0  0
 27 26  1  0  0  0  0
 28 27  1  0  0  0  0
 29 30  1  0  0  0  0
 30 28  1  0  0  0  0
 31 30  2  0  0  0  0
 32 29  1  0  0  0  0
 33 32  1  0  0  0  0
 33 35  1  0  0  0  0
 34 33  2  0  0  0  0
M  END
>  <MODEL>
5

>  <REMARK>
 VINA RESULT:      -7.7      2.854      7.058
  Name = 
  11 active torsions:
  status: ('A' for Active; 'I' for Inactive)
    1  A    between atoms: C_3  and  C_8
    2  A    between atoms: C_4  and  N_9
    3  A    between atoms: N_6  and  C_26
    4  A    between atoms: C_7  and  C_30
    5  A    between atoms: N_9  and  C_25
    6  A    between atoms: C_12  and  C_17
    7  A    between atoms: C_12  and  N_19
    8  A    between atoms: C_14  and  C_26
    9  A    between atoms: C_17  and  C_30
   10  A    between atoms: N_19  and  C_27
   11  A    between atoms: C_32  and  C_35
                            x       y       z     vdW  Elec       q    Type
                         _______ _______ _______ _____ _____    ______ ____

>  <TORSDO>
F 11

$$$$
=
 OpenBabel10232409433D

 35 38  0  0  1  0  0  0  0  0999 V2000
  187.7050  177.3870  147.8170 C   0  0  0  0  0  3  0  0  0  0  0  0
  188.2200  178.0090  145.5060 C   0  0  2  0  0  3  0  0  0  0  0  0
  189.5480  177.4000  145.6410 C   0  0  0  0  0  3  0  0  0  0  0  0
  186.0250  178.3410  146.1960 C   0  0  0  0  0  2  0  0  0  0  0  0
  186.0700  178.1610  144.8790 C   0  0  0  0  0  0  0  0  0  0  0  0
  188.8310  176.7250  147.8530 N   0  0  0  0  0  0  0  0  0  0  0  0
  189.8250  176.8030  146.8060 C   0  0  0  0  0  3  0  0  0  0  0  0
  187.4290  178.3780  146.7160 C   0  0  1  0  0  3  0  0  0  0  0  0
  187.4450  177.9450  144.4350 C   0  0  0  0  0  0  0  0  0  0  0  0
  189.5220  177.6530  141.2160 C   0  0  2  0  0  3  0  0  0  0  0  0
  189.6960  177.3780  142.9790 S   0  0  0  0  0  0  0  0  0  0  0  0
  188.3480  178.1410  140.8440 C   0  0  0  0  0  2  0  0  0  0  0  0
  187.3990  178.3590  141.9640 C   0  0  0  0  0  2  0  0  0  0  0  0
  187.8820  177.4520  143.0900 C   0  0  2  0  0  3  0  0  0  0  0  0
  190.1980  176.8350  138.9640 C   0  0  0  0  0  3  0  0  0  0  0  0
  190.5650  177.2550  140.2480 C   0  0  0  0  0  0  0  0  0  0  0  0
  192.9040  176.9440  139.6520 C   0  0  0  0  0  0  0  0  0  0  0  0
  191.9250  177.3050  140.5850 C   0  0  0  0  0  3  0  0  0  0  0  0
  194.2440  176.9960  140.0130 O   0  0  0  0  0  1  0  0  0  0  0  0
  191.1740  176.4800  138.0270 C   0  0  0  0  0  3  0  0  0  0  0  0
  192.5320  176.5360  138.3640 C   0  0  0  0  0  0  0  0  0  0  0  0
  193.5400  176.1710  137.4150 N   0  0  0  0  0  2  0  0  0  0  0  0
  193.6530  174.8300  136.8590 C   0  0  0  0  0  2  0  0  0  0  0  0
  193.2270  174.8460  135.4040 C   0  0  0  0  0  1  0  0  0  0  0  0
  184.9220  178.0360  144.0350 N   0  0  0  0  0  2  0  0  0  0  0  0
  184.3110  179.1780  143.3790 C   0  0  0  0  0  2  0  0  0  0  0  0
  183.3070  178.6930  142.3520 C   0  0  0  0  0  2  0  0  0  0  0  0
  184.0440  178.2080  141.1220 C   0  0  0  0  0  2  0  0  0  0  0  0
  182.5020  179.5350  139.6330 N   0  0  0  0  0  2  0  0  0  0  0  0
  183.8310  179.1550  139.9960 C   0  0  0  0  0  0  0  0  0  0  0  0
  184.8230  179.5940  139.3560 O   0  0  0  0  0  0  0  0  0  0  0  0
  182.2220  180.5230  138.5990 C   0  0  0  0  0  2  0  0  0  0  0  0
  181.4580  179.8950  137.4790 C   0  0  0  0  0  0  0  0  0  0  0  0
  181.3810  178.6180  137.3970 N   0  0  0  0  0  2  0  0  0  0  0  0
  180.6640  180.7440  136.5530 C   0  0  0  0  0  1  0  0  0  0  0  0
  1  6  2  0  0  0  0
  2  3  1  1  0  0  0
  2  8  1  0  0  0  0
  3  7  2  0  0  0  0
  5  4  1  0  0  0  0
  7  6  1  0  0  0  0
  8  4  1  6  0  0  0
  8  1  1  0  0  0  0
  9  5  2  0  0  0  0
  9  2  1  0  0  0  0
 10 16  1  6  0  0  0
 10 11  1  0  0  0  0
 11 14  1  0  0  0  0
 12 10  1  0  0  0  0
 12 13  1  0  0  0  0
 13 14  1  0  0  0  0
 14  9  1  1  0  0  0
 15 16  1  0  0  0  0
 16 18  2  0  0  0  0
 17 19  1  0  0  0  0
 17 18  1  0  0  0  0
 20 21  1  0  0  0  0
 20 15  2  0  0  0  0
 21 17  2  0  0  0  0
 22 21  1  0  0  0  0
 23 22  1  0  0  0  0
 24 23  1  0  0  0  0
 25  5  1  0  0  0  0
 26 25  1  0  0  0  0
 27 26  1  0  0  0  0
 28 27  1  0  0  0  0
 29 30  1  0  0  0  0
 30 28  1  0  0  0  0
 31 30  2  0  0  0  0
 32 29  1  0  0  0  0
 33 32  1  0  0  0  0
 34 33  2  0  0  0  0
 35 33  1  0  0  0  0
M  END
>  <MODEL>
6

>  <REMARK>
 VINA RESULT:      -7.7      1.885      2.374
  Name = 
  11 active torsions:
  status: ('A' for Active; 'I' for Inactive)
    1  A    between atoms: C_3  and  C_8
    2  A    between atoms: C_4  and  N_9
    3  A    between atoms: N_6  and  C_26
    4  A    between atoms: C_7  and  C_30
    5  A    between atoms: N_9  and  C_25
    6  A    between atoms: C_12  and  C_17
    7  A    between atoms: C_12  and  N_19
    8  A    between atoms: C_14  and  C_26
    9  A    between atoms: C_17  and  C_30
   10  A    between atoms: N_19  and  C_27
   11  A    between atoms: C_32  and  C_35
                            x       y       z     vdW  Elec       q    Type
                         _______ _______ _______ _____ _____    ______ ____

>  <TORSDO>
F 11

$$$$
=
 OpenBabel10232409433D

 35 38  0  0  1  0  0  0  0  0999 V2000
  183.6360  175.7060  137.2460 C   0  0  0  0  0  3  0  0  0  0  0  0
  183.7100  177.6550  138.7250 C   0  0  2  0  0  3  0  0  0  0  0  0
  182.6840  177.0450  139.5760 C   0  0  0  0  0  3  0  0  0  0  0  0
  185.3360  177.5600  137.0650 C   0  0  0  0  0  2  0  0  0  0  0  0
  185.7750  178.2760  138.0960 C   0  0  0  0  0  0  0  0  0  0  0  0
  182.8380  175.1290  138.1050 N   0  0  0  0  0  0  0  0  0  0  0  0
  182.2610  175.8220  139.2340 C   0  0  0  0  0  3  0  0  0  0  0  0
  183.9080  177.1850  137.3220 C   0  0  1  0  0  3  0  0  0  0  0  0
  184.7620  178.3380  139.1480 C   0  0  0  0  0  0  0  0  0  0  0  0
  185.3100  178.2020  142.9490 C   0  0  2  0  0  3  0  0  0  0  0  0
  186.1690  177.7810  141.4320 S   0  0  0  0  0  0  0  0  0  0  0  0
  184.0870  178.6830  142.7780 C   0  0  0  0  0  2  0  0  0  0  0  0
  183.6680  178.7850  141.3580 C   0  0  0  0  0  2  0  0  0  0  0  0
  184.9620  178.8180  140.5530 C   0  0  2  0  0  3  0  0  0  0  0  0
  187.0960  177.3260  144.4460 C   0  0  0  0  0  3  0  0  0  0  0  0
  185.9620  178.1290  144.2720 C   0  0  0  0  0  0  0  0  0  0  0  0
  186.1170  178.8050  146.6050 C   0  0  0  0  0  0  0  0  0  0  0  0
  185.4780  178.8670  145.3620 C   0  0  0  0  0  3  0  0  0  0  0  0
  185.6130  179.5400  147.6710 O   0  0  0  0  0  1  0  0  0  0  0  0
  187.7410  177.2670  145.6850 C   0  0  0  0  0  3  0  0  0  0  0  0
  187.2580  178.0090  146.7710 C   0  0  0  0  0  0  0  0  0  0  0  0
  187.9080  177.9520  148.0460 N   0  0  0  0  0  2  0  0  0  0  0  0
  189.3220  178.2490  148.2260 C   0  0  0  0  0  2  0  0  0  0  0  0
  190.1550  177.1390  147.6160 C   0  0  0  0  0  1  0  0  0  0  0  0
  187.1050  178.7820  138.2290 N   0  0  0  0  0  2  0  0  0  0  0  0
  188.1620  178.4480  137.2920 C   0  0  0  0  0  2  0  0  0  0  0  0
  189.4720  178.3020  138.0390 C   0  0  0  0  0  2  0  0  0  0  0  0
  189.3150  177.2660  139.1300 C   0  0  0  0  0  2  0  0  0  0  0  0
  190.5500  177.6300  141.2970 N   0  0  0  0  0  2  0  0  0  0  0  0
  190.5590  177.1860  139.9390 C   0  0  0  0  0  0  0  0  0  0  0  0
  191.6180  176.7510  139.4120 O   0  0  0  0  0  0  0  0  0  0  0  0
  191.7070  177.5020  142.1740 C   0  0  0  0  0  2  0  0  0  0  0  0
  191.2680  177.4340  143.6010 C   0  0  0  0  0  0  0  0  0  0  0  0
  190.7560  178.4670  144.1600 N   0  0  0  0  0  2  0  0  0  0  0  0
  191.2830  176.1350  144.3220 C   0  0  0  0  0  1  0  0  0  0  0  0
  1  8  1  0  0  0  0
  1  6  2  0  0  0  0
  2  9  1  0  0  0  0
  2  3  1  1  0  0  0
  4  5  1  0  0  0  0
  5 25  1  0  0  0  0
  5  9  2  0  0  0  0
  6  7  1  0  0  0  0
  7  3  2  0  0  0  0
  8  4  1  1  0  0  0
  8  2  1  0  0  0  0
 10 16  1  6  0  0  0
 11 10  1  0  0  0  0
 12 10  1  0  0  0  0
 13 12  1  0  0  0  0
 14  9  1  6  0  0  0
 14 13  1  0  0  0  0
 14 11  1  0  0  0  0
 15 20  1  0  0  0  0
 16 15  2  0  0  0  0
 16 18  1  0  0  0  0
 17 21  1  0  0  0  0
 17 19  1  0  0  0  0
 18 17  2  0  0  0  0
 20 21  2  0  0  0  0
 21 22  1  0  0  0  0
 22 23  1  0  0  0  0
 24 23  1  0  0  0  0
 26 27  1  0  0  0  0
 26 25  1  0  0  0  0
 27 28  1  0  0  0  0
 28 30  1  0  0  0  0
 29 32  1  0  0  0  0
 30 29  1  0  0  0  0
 31 30  2  0  0  0  0
 32 33  1  0  0  0  0
 33 34  2  0  0  0  0
 33 35  1  0  0  0  0
M  END
>  <MODEL>
7

>  <REMARK>
 VINA RESULT:      -7.6      2.890      9.165
  Name = 
  11 active torsions:
  status: ('A' for Active; 'I' for Inactive)
    1  A    between atoms: C_3  and  C_8
    2  A    between atoms: C_4  and  N_9
    3  A    between atoms: N_6  and  C_26
    4  A    between atoms: C_7  and  C_30
    5  A    between atoms: N_9  and  C_25
    6  A    between atoms: C_12  and  C_17
    7  A    between atoms: C_12  and  N_19
    8  A    between atoms: C_14  and  C_26
    9  A    between atoms: C_17  and  C_30
   10  A    between atoms: N_19  and  C_27
   11  A    between atoms: C_32  and  C_35
                            x       y       z     vdW  Elec       q    Type
                         _______ _______ _______ _____ _____    ______ ____

>  <TORSDO>
F 11

$$$$
=
 OpenBabel10232409433D

 35 38  0  0  1  0  0  0  0  0999 V2000
  189.7860  176.0280  147.5180 C   0  0  0  0  0  3  0  0  0  0  0  0
  190.2060  177.7000  145.7800 C   0  0  2  0  0  3  0  0  0  0  0  0
  191.6070  177.2730  145.7120 C   0  0  0  0  0  3  0  0  0  0  0  0
  187.9850  177.3950  146.4010 C   0  0  0  0  0  2  0  0  0  0  0  0
  188.0550  177.8460  145.1510 C   0  0  0  0  0  0  0  0  0  0  0  0
  190.9960  175.5730  147.3230 N   0  0  0  0  0  0  0  0  0  0  0  0
  191.9680  176.2490  146.4940 C   0  0  0  0  0  3  0  0  0  0  0  0
  189.3700  177.3680  146.9720 C   0  0  1  0  0  3  0  0  0  0  0  0
  189.4470  178.0360  144.7490 C   0  0  0  0  0  0  0  0  0  0  0  0
  190.0060  177.4940  140.9860 C   0  0  2  0  0  3  0  0  0  0  0  0
  188.6750  177.8770  142.1250 S   0  0  0  0  0  0  0  0  0  0  0  0
  191.1840  177.2890  141.5590 C   0  0  0  0  0  2  0  0  0  0  0  0
  191.1710  177.4220  143.0370 C   0  0  0  0  0  2  0  0  0  0  0  0
  189.9500  178.2760  143.3590 C   0  0  2  0  0  3  0  0  0  0  0  0
  190.4170  176.5360  138.7250 C   0  0  0  0  0  3  0  0  0  0  0  0
  189.8250  177.5250  139.5210 C   0  0  0  0  0  0  0  0  0  0  0  0
  188.8720  178.5270  137.5180 C   0  0  0  0  0  0  0  0  0  0  0  0
  189.0530  178.5210  138.9060 C   0  0  0  0  0  3  0  0  0  0  0  0
  188.1080  179.5290  136.9320 O   0  0  0  0  0  1  0  0  0  0  0  0
  190.2330  176.5360  137.3390 C   0  0  0  0  0  3  0  0  0  0  0  0
  189.4560  177.5290  136.7270 C   0  0  0  0  0  0  0  0  0  0  0  0
  189.2650  177.5410  135.3080 N   0  0  0  0  0  2  0  0  0  0  0  0
  188.0730  177.0050  134.6670 C   0  0  0  0  0  2  0  0  0  0  0  0
  188.2070  175.5020  134.5210 C   0  0  0  0  0  1  0  0  0  0  0  0
  186.9370  177.9760  144.2690 N   0  0  0  0  0  2  0  0  0  0  0  0
  185.5890  178.2120  144.7520 C   0  0  0  0  0  2  0  0  0  0  0  0
  184.8490  179.1000  143.7710 C   0  0  0  0  0  2  0  0  0  0  0  0
  185.5440  179.0510  142.4280 C   0  0  0  0  0  2  0  0  0  0  0  0
  184.8570  179.5380  140.0520 N   0  0  0  0  0  2  0  0  0  0  0  0
  184.5360  178.9990  141.3360 C   0  0  0  0  0  0  0  0  0  0  0  0
  183.4000  178.5030  141.5600 O   0  0  0  0  0  0  0  0  0  0  0  0
  183.9520  179.4450  138.9140 C   0  0  0  0  0  2  0  0  0  0  0  0
  184.1700  178.1600  138.1840 C   0  0  0  0  0  0  0  0  0  0  0  0
  185.3630  177.7570  137.9440 N   0  0  0  0  0  2  0  0  0  0  0  0
  183.0170  177.2760  137.8740 C   0  0  0  0  0  1  0  0  0  0  0  0
  2  3  1  6  0  0  0
  2  8  1  0  0  0  0
  3  7  2  0  0  0  0
  5  4  1  0  0  0  0
  6  1  2  0  0  0  0
  7  6  1  0  0  0  0
  8  4  1  6  0  0  0
  8  1  1  0  0  0  0
  9  5  2  0  0  0  0
  9  2  1  0  0  0  0
 10 16  1  6  0  0  0
 10 12  1  0  0  0  0
 10 11  1  0  0  0  0
 11 14  1  0  0  0  0
 12 13  1  0  0  0  0
 13 14  1  0  0  0  0
 14  9  1  1  0  0  0
 15 16  1  0  0  0  0
 17 18  1  0  0  0  0
 18 16  2  0  0  0  0
 19 17  1  0  0  0  0
 20 15  2  0  0  0  0
 21 20  1  0  0  0  0
 21 17  2  0  0  0  0
 22 21  1  0  0  0  0
 23 22  1  0  0  0  0
 24 23  1  0  0  0  0
 25 26  1  0  0  0  0
 25  5  1  0  0  0  0
 27 26  1  0  0  0  0
 28 27  1  0  0  0  0
 29 30  1  0  0  0  0
 30 31  2  0  0  0  0
 30 28  1  0  0  0  0
 32 29  1  0  0  0  0
 33 32  1  0  0  0  0
 34 33  2  0  0  0  0
 35 33  1  0  0  0  0
M  END
>  <MODEL>
8

>  <REMARK>
 VINA RESULT:      -7.6      1.961      2.446
  Name = 
  11 active torsions:
  status: ('A' for Active; 'I' for Inactive)
    1  A    between atoms: C_3  and  C_8
    2  A    between atoms: C_4  and  N_9
    3  A    between atoms: N_6  and  C_26
    4  A    between atoms: C_7  and  C_30
    5  A    between atoms: N_9  and  C_25
    6  A    between atoms: C_12  and  C_17
    7  A    between atoms: C_12  and  N_19
    8  A    between atoms: C_14  and  C_26
    9  A    between atoms: C_17  and  C_30
   10  A    between atoms: N_19  and  C_27
   11  A    between atoms: C_32  and  C_35
                            x       y       z     vdW  Elec       q    Type
                         _______ _______ _______ _____ _____    ______ ____

>  <TORSDO>
F 11

$$$$
=
 OpenBabel10232409433D

 35 38  0  0  1  0  0  0  0  0999 V2000
  190.4600  178.0270  148.0380 C   0  0  0  0  0  3  0  0  0  0  0  0
  188.6120  176.9750  146.8250 C   0  0  2  0  0  3  0  0  0  0  0  0
  187.6950  177.3400  147.9100 C   0  0  0  0  0  3  0  0  0  0  0  0
  190.6230  177.1640  145.6740 C   0  0  0  0  0  2  0  0  0  0  0  0
  189.6060  177.1300  144.8170 C   0  0  0  0  0  0  0  0  0  0  0  0
  189.5910  178.4660  148.9090 N   0  0  0  0  0  0  0  0  0  0  0  0
  188.2080  178.0470  148.9250 C   0  0  0  0  0  3  0  0  0  0  0  0
  190.0860  176.9480  147.0560 C   0  0  1  0  0  3  0  0  0  0  0  0
  188.3360  177.0170  145.5310 C   0  0  0  0  0  0  0  0  0  0  0  0
  185.5360  178.4390  143.3160 C   0  0  2  0  0  3  0  0  0  0  0  0
  187.0480  177.4870  143.1590 S   0  0  0  0  0  0  0  0  0  0  0  0
  185.2570  178.8360  144.5490 C   0  0  0  0  0  2  0  0  0  0  0  0
  186.2520  178.4080  145.5650 C   0  0  0  0  0  2  0  0  0  0  0  0
  186.9670  177.2090  144.9540 C   0  0  2  0  0  3  0  0  0  0  0  0
  183.2360  178.5410  142.3690 C   0  0  0  0  0  3  0  0  0  0  0  0
  184.6180  178.6560  142.1800 C   0  0  0  0  0  0  0  0  0  0  0  0
  184.2230  179.2210  139.8460 C   0  0  0  0  0  0  0  0  0  0  0  0
  185.1050  178.9970  140.9090 C   0  0  0  0  0  3  0  0  0  0  0  0
  184.7310  179.5500  138.5950 O   0  0  0  0  0  1  0  0  0  0  0  0
  182.3520  178.7700  141.3100 C   0  0  0  0  0  3  0  0  0  0  0  0
  182.8400  179.1160  140.0430 C   0  0  0  0  0  0  0  0  0  0  0  0
  181.9450  179.3480  138.9500 N   0  0  0  0  0  2  0  0  0  0  0  0
  181.0010  180.4570  138.9230 C   0  0  0  0  0  2  0  0  0  0  0  0
  181.6770  181.6840  138.3450 C   0  0  0  0  0  1  0  0  0  0  0  0
  189.7210  177.3350  143.4070 N   0  0  0  0  0  2  0  0  0  0  0  0
  190.6550  176.5860  142.5860 C   0  0  0  0  0  2  0  0  0  0  0  0
  190.8430  177.2950  141.2600 C   0  0  0  0  0  2  0  0  0  0  0  0
  189.5300  177.3060  140.5070 C   0  0  0  0  0  2  0  0  0  0  0  0
  190.7970  175.8930  138.8490 N   0  0  0  0  0  2  0  0  0  0  0  0
  189.7350  176.8080  139.1210 C   0  0  0  0  0  0  0  0  0  0  0  0
  188.9850  177.2180  138.1950 O   0  0  0  0  0  0  0  0  0  0  0  0
  191.0030  175.2970  137.5350 C   0  0  0  0  0  2  0  0  0  0  0  0
  192.4570  175.0370  137.3080 C   0  0  0  0  0  0  0  0  0  0  0  0
  192.8740  173.8340  137.1620 N   0  0  0  0  0  2  0  0  0  0  0  0
  193.3920  176.1730  137.0970 C   0  0  0  0  0  1  0  0  0  0  0  0
  1  6  2  0  0  0  0
  2  8  1  0  0  0  0
  2  3  1  1  0  0  0
  3  7  2  0  0  0  0
  5  9  2  0  0  0  0
  5  4  1  0  0  0  0
  6  7  1  0  0  0  0
  8  4  1  6  0  0  0
  8  1  1  0  0  0  0
  9  2  1  0  0  0  0
 10 16  1  1  0  0  0
 10 12  1  0  0  0  0
 11 10  1  0  0  0  0
 11 14  1  0  0  0  0
 12 13  1  0  0  0  0
 14  9  1  1  0  0  0
 14 13  1  0  0  0  0
 16 15  1  0  0  0  0
 17 21  2  0  0  0  0
 17 18  1  0  0  0  0
 18 16  2  0  0  0  0
 19 17  1  0  0  0  0
 20 15  2  0  0  0  0
 21 20  1  0  0  0  0
 22 21  1  0  0  0  0
 23 22  1  0  0  0  0
 24 23  1  0  0  0  0
 25  5  1  0  0  0  0
 26 25  1  0  0  0  0
 27 26  1  0  0  0  0
 28 27  1  0  0  0  0
 29 30  1  0  0  0  0
 30 28  1  0  0  0  0
 31 30  2  0  0  0  0
 32 29  1  0  0  0  0
 33 32  1  0  0  0  0
 34 33  2  0  0  0  0
 35 33  1  0  0  0  0
M  END
>  <MODEL>
9

>  <REMARK>
 VINA RESULT:      -7.6      2.239      7.242
  Name = 
  11 active torsions:
  status: ('A' for Active; 'I' for Inactive)
    1  A    between atoms: C_3  and  C_8
    2  A    between atoms: C_4  and  N_9
    3  A    between atoms: N_6  and  C_26
    4  A    between atoms: C_7  and  C_30
    5  A    between atoms: N_9  and  C_25
    6  A    between atoms: C_12  and  C_17
    7  A    between atoms: C_12  and  N_19
    8  A    between atoms: C_14  and  C_26
    9  A    between atoms: C_17  and  C_30
   10  A    between atoms: N_19  and  C_27
   11  A    between atoms: C_32  and  C_35
                            x       y       z     vdW  Elec       q    Type
                         _______ _______ _______ _____ _____    ______ ____

>  <TORSDO>
F 11

$$$$
