=
 OpenBabel10222421553D

 40 46  0  0  1  0  0  0  0  0999 V2000
  189.3740  177.1940  145.1260 C   0  0  0  0  0  0  0  0  0  0  0  0
  190.5900  176.7520  144.6460 C   0  0  0  0  0  0  0  0  0  0  0  0
  189.1190  177.1870  146.5000 C   0  0  0  0  0  3  0  0  0  0  0  0
  190.1260  176.7580  147.3790 C   0  0  0  0  0  3  0  0  0  0  0  0
  191.5940  176.2830  145.4970 C   0  0  0  0  0  3  0  0  0  0  0  0
  191.3570  176.3010  146.8780 C   0  0  0  0  0  0  0  0  0  0  0  0
  188.1580  177.6060  142.5150 C   0  0  2  0  0  3  0  0  0  0  0  0
  187.8130  176.0870  144.0130 O   0  0  0  0  0  1  0  0  0  0  0  0
  192.6010  175.7530  147.9790 Cl  0  0  0  0  0  0  0  0  0  0  0  0
  188.3220  177.3900  144.0550 C   0  0  2  0  0  0  0  0  0  0  0  0
  189.4560  177.9080  143.0400 C   0  0  1  0  0  0  0  0  0  0  0  0
  190.5850  176.8720  143.1810 C   0  0  1  0  0  3  0  0  0  0  0  0
  191.2020  179.5540  143.8340 C   0  0  0  0  0  1  0  0  0  0  0  0
  189.8020  179.4000  143.2640 C   0  0  0  0  0  2  0  0  0  0  0  0
  187.2230  178.7920  142.2820 C   0  0  0  0  0  2  0  0  0  0  0  0
  181.5570  178.7680  142.2260 C   0  0  0  0  0  2  0  0  0  0  0  0
  185.0710  178.8390  140.9740 C   0  0  0  0  0  2  0  0  0  0  0  0
  183.6570  178.4390  140.9440 N   0  0  0  0  0  2  0  0  0  0  0  0
  185.7740  178.3280  142.2470 C   0  0  2  0  0  3  0  0  0  0  0  0
  181.2970  178.7490  143.7260 C   0  0  0  0  0  2  0  0  0  0  0  0
  183.5880  178.2840  143.3100 N   0  0  1  0  0  0  0  0  0  0  0  0
  185.0950  180.2100  143.8440 C   0  0  0  0  0  1  0  0  0  0  0  0
  184.9770  178.7140  143.5150 C   0  0  2  0  0  3  0  0  0  0  0  0
  182.6720  178.6350  144.3820 C   0  0  0  0  0  2  0  0  0  0  0  0
  183.0460  178.9730  142.1530 C   0  0  2  0  0  3  0  0  0  0  0  0
  191.9350  177.2210  142.5290 C   0  0  0  0  0  2  0  0  0  0  0  0
  192.0970  176.6780  141.1810 N   0  0  0  0  0  0  0  0  0  0  0  0
  192.8550  177.6360  140.3870 C   0  0  0  0  0  2  0  0  0  0  0  0
  194.0330  177.0430  139.9320 O   0  0  0  0  0  1  0  0  0  0  0  0
  190.8290  176.4940  140.5920 N   0  0  0  0  0  2  0  0  0  0  0  0
  187.8090  178.2250  137.5340 C   0  0  0  0  0  0  0  0  0  0  0  0
  190.5120  176.5520  139.1890 C   0  0  0  0  0  0  0  0  0  0  0  0
  190.9620  175.6270  138.2450 C   0  0  0  0  0  3  0  0  0  0  0  0
  188.5000  178.2590  138.8850 C   0  0  0  0  0  2  0  0  0  0  0  0
  189.5960  177.0540  137.2620 N   0  0  0  0  0  0  0  0  0  0  0  0
  188.4410  177.5180  136.6450 N   0  0  0  0  0  0  0  0  0  0  0  0
  189.6680  177.4130  138.5230 C   0  0  0  0  0  0  0  0  0  0  0  0
  190.3210  175.9460  137.0430 C   0  0  0  0  0  3  0  0  0  0  0  0
  185.4470  178.3860  137.7170 F   0  0  0  0  0  0  0  0  0  0  0  0
  186.6110  178.8690  137.2490 O   0  0  0  0  0  0  0  0  0  0  0  0
  1  3  1  0  0  0  0
  2  1  2  0  0  0  0
  2  5  1  0  0  0  0
  3  4  2  0  0  0  0
  5  6  2  0  0  0  0
  6  4  1  0  0  0  0
  6  9  1  0  0  0  0
  7 15  1  1  0  0  0
  7 11  1  0  0  0  0
  7 10  1  0  0  0  0
 10  8  1  6  0  0  0
 10  1  1  0  0  0  0
 11 12  1  0  0  0  0
 11 14  1  1  0  0  0
 11 10  1  0  0  0  0
 12 26  1  1  0  0  0
 12  2  1  0  0  0  0
 14 13  1  0  0  0  0
 16 20  1  0  0  0  0
 17 19  1  0  0  0  0
 18 17  1  0  0  0  0
 18 25  1  0  0  0  0
 19 15  1  1  0  0  0
 19 23  1  0  0  0  0
 20 24  1  0  0  0  0
 21 23  1  0  0  0  0
 21 24  1  1  0  0  0
 23 22  1  6  0  0  0
 25 16  1  6  0  0  0
 25 21  1  0  0  0  0
 27 26  1  0  0  0  0
 28 27  1  0  0  0  0
 29 28  1  0  0  0  0
 30 27  1  0  0  0  0
 31 34  1  0  0  0  0
 32 30  1  0  0  0  0
 33 32  1  0  0  0  0
 35 37  1  0  0  0  0
 36 35  1  0  0  0  0
 36 31  2  0  0  0  0
 37 34  1  0  0  0  0
 37 32  2  0  0  0  0
 38 35  1  0  0  0  0
 38 33  2  0  0  0  0
 40 31  1  0  0  0  0
 40 39  1  0  0  0  0
M  END
>  <MODEL>
1

>  <REMARK>
 VINA RESULT:      -8.4      0.000      0.000
  Name = 
  9 active torsions:
  status: ('A' for Active; 'I' for Inactive)
    1  A    between atoms: C_4  and  O_33
    2  A    between atoms: C_9  and  N_21
    3  A    between atoms: C_11  and  C_32
    4  A    between atoms: C_12  and  N_19
    5  A    between atoms: C_15  and  C_37
    6  A    between atoms: N_19  and  N_21
    7  A    between atoms: N_19  and  C_35
    8  A    between atoms: C_23  and  C_32
    9  A    between atoms: C_35  and  C_38
                            x       y       z     vdW  Elec       q    Type
                         _______ _______ _______ _____ _____    ______ ____

>  <TORSDO>
F 9

$$$$
=
 OpenBabel10222421553D

 40 46  0  0  1  0  0  0  0  0999 V2000
  191.3160  177.0090  139.6820 C   0  0  0  0  0  0  0  0  0  0  0  0
  190.9100  176.4050  138.5090 C   0  0  0  0  0  0  0  0  0  0  0  0
  192.6670  177.3060  139.8850 C   0  0  0  0  0  3  0  0  0  0  0  0
  193.5910  177.0100  138.8700 C   0  0  0  0  0  3  0  0  0  0  0  0
  191.8140  176.0650  137.5010 C   0  0  0  0  0  3  0  0  0  0  0  0
  193.1660  176.3860  137.6840 C   0  0  0  0  0  0  0  0  0  0  0  0
  188.7090  176.9390  140.9700 C   0  0  2  0  0  3  0  0  0  0  0  0
  190.5010  175.7900  141.3400 O   0  0  0  0  0  1  0  0  0  0  0  0
  194.3270  176.0070  136.4310 Cl  0  0  0  0  0  0  0  0  0  0  0  0
  190.2550  177.0400  140.7600 C   0  0  2  0  0  0  0  0  0  0  0  0
  189.1250  177.2660  139.6390 C   0  0  1  0  0  0  0  0  0  0  0  0
  189.4530  176.2170  138.5620 C   0  0  1  0  0  3  0  0  0  0  0  0
  189.0670  178.8770  137.6930 C   0  0  0  0  0  1  0  0  0  0  0  0
  189.0210  178.7480  139.2060 C   0  0  0  0  0  2  0  0  0  0  0  0
  188.2540  178.1030  141.8480 C   0  0  0  0  0  2  0  0  0  0  0  0
  187.5010  177.7980  147.4560 C   0  0  0  0  0  2  0  0  0  0  0  0
  186.7950  178.5070  143.8620 C   0  0  0  0  0  2  0  0  0  0  0  0
  186.4530  178.0710  145.2220 N   0  0  0  0  0  2  0  0  0  0  0  0
  187.8800  177.6070  143.2370 C   0  0  2  0  0  3  0  0  0  0  0  0
  188.8530  177.2220  147.8540 C   0  0  0  0  0  2  0  0  0  0  0  0
  188.5820  177.0630  145.5010 N   0  0  1  0  0  0  0  0  0  0  0  0
  189.9450  178.7400  144.2390 C   0  0  0  0  0  1  0  0  0  0  0  0
  189.0950  177.4620  144.1840 C   0  0  2  0  0  3  0  0  0  0  0  0
  189.5880  176.9500  146.5430 C   0  0  0  0  0  2  0  0  0  0  0  0
  187.6890  178.0950  145.9930 C   0  0  2  0  0  3  0  0  0  0  0  0
  188.7080  176.3400  137.2200 C   0  0  0  0  0  2  0  0  0  0  0  0
  187.9060  175.1650  136.8810 N   0  0  0  0  0  0  0  0  0  0  0  0
  188.6590  174.3550  135.9310 C   0  0  0  0  0  2  0  0  0  0  0  0
  189.2040  173.2500  136.5850 O   0  0  0  0  0  1  0  0  0  0  0  0
  186.7000  175.5770  136.2780 N   0  0  0  0  0  2  0  0  0  0  0  0
  184.5960  178.6070  139.0820 C   0  0  0  0  0  0  0  0  0  0  0  0
  185.4550  175.8630  136.9430 C   0  0  0  0  0  0  0  0  0  0  0  0
  184.4730  174.9080  137.2120 C   0  0  0  0  0  3  0  0  0  0  0  0
  185.6740  178.2570  138.0730 C   0  0  0  0  0  2  0  0  0  0  0  0
  183.8670  176.8360  138.0990 N   0  0  0  0  0  0  0  0  0  0  0  0
  183.6000  177.7730  139.0880 N   0  0  0  0  0  0  0  0  0  0  0  0
  185.0270  177.0390  137.5170 C   0  0  0  0  0  0  0  0  0  0  0  0
  183.5030  175.5490  137.9900 C   0  0  0  0  0  3  0  0  0  0  0  0
  185.2630  179.6080  141.1310 F   0  0  0  0  0  0  0  0  0  0  0  0
  184.6490  179.7010  139.9370 O   0  0  0  0  0  0  0  0  0  0  0  0
  1  3  1  0  0  0  0
  1 10  1  0  0  0  0
  2 12  1  0  0  0  0
  2  1  2  0  0  0  0
  4  3  2  0  0  0  0
  5  6  2  0  0  0  0
  5  2  1  0  0  0  0
  6  4  1  0  0  0  0
  7 15  1  1  0  0  0
  9  6  1  0  0  0  0
 10  7  1  0  0  0  0
 10  8  1  6  0  0  0
 11 14  1  6  0  0  0
 11 10  1  0  0  0  0
 11  7  1  0  0  0  0
 12 26  1  6  0  0  0
 12 11  1  0  0  0  0
 13 14  1  0  0  0  0
 16 20  1  0  0  0  0
 17 18  1  0  0  0  0
 18 25  1  0  0  0  0
 19 15  1  6  0  0  0
 19 17  1  0  0  0  0
 19 23  1  0  0  0  0
 21 25  1  0  0  0  0
 21 24  1  1  0  0  0
 23 22  1  1  0  0  0
 23 21  1  0  0  0  0
 24 20  1  0  0  0  0
 25 16  1  1  0  0  0
 27 26  1  0  0  0  0
 28 29  1  0  0  0  0
 28 27  1  0  0  0  0
 30 27  1  0  0  0  0
 30 32  1  0  0  0  0
 31 36  2  0  0  0  0
 31 40  1  0  0  0  0
 32 33  1  0  0  0  0
 32 37  2  0  0  0  0
 33 38  2  0  0  0  0
 34 31  1  0  0  0  0
 35 36  1  0  0  0  0
 37 34  1  0  0  0  0
 37 35  1  0  0  0  0
 38 35  1  0  0  0  0
 40 39  1  0  0  0  0
M  END
>  <MODEL>
2

>  <REMARK>
 VINA RESULT:      -8.1      3.208      6.016
  Name = 
  9 active torsions:
  status: ('A' for Active; 'I' for Inactive)
    1  A    between atoms: C_4  and  O_33
    2  A    between atoms: C_9  and  N_21
    3  A    between atoms: C_11  and  C_32
    4  A    between atoms: C_12  and  N_19
    5  A    between atoms: C_15  and  C_37
    6  A    between atoms: N_19  and  N_21
    7  A    between atoms: N_19  and  C_35
    8  A    between atoms: C_23  and  C_32
    9  A    between atoms: C_35  and  C_38
                            x       y       z     vdW  Elec       q    Type
                         _______ _______ _______ _____ _____    ______ ____

>  <TORSDO>
F 9

$$$$
=
 OpenBabel10222421553D

 40 46  0  0  1  0  0  0  0  0999 V2000
  188.4030  173.6550  136.2890 C   0  0  0  0  0  0  0  0  0  0  0  0
  187.4680  174.4800  136.8810 C   0  0  0  0  0  0  0  0  0  0  0  0
  188.0390  172.3700  135.8740 C   0  0  0  0  0  3  0  0  0  0  0  0
  186.7090  171.9510  136.0400 C   0  0  0  0  0  3  0  0  0  0  0  0
  186.1500  174.0720  137.0930 C   0  0  0  0  0  3  0  0  0  0  0  0
  185.7690  172.7970  136.6530 C   0  0  0  0  0  0  0  0  0  0  0  0
  190.6620  175.4500  136.6570 C   0  0  2  0  0  3  0  0  0  0  0  0
  190.1500  173.5970  137.6450 O   0  0  0  0  0  1  0  0  0  0  0  0
  184.1180  172.2610  136.8700 Cl  0  0  0  0  0  0  0  0  0  0  0  0
  189.8270  174.1530  136.4020 C   0  0  2  0  0  0  0  0  0  0  0  0
  189.3090  175.6660  136.2390 C   0  0  1  0  0  0  0  0  0  0  0  0
  188.1170  175.7580  137.2090 C   0  0  1  0  0  3  0  0  0  0  0  0
  189.3460  177.5230  134.5260 C   0  0  0  0  0  1  0  0  0  0  0  0
  189.0750  176.0470  134.7570 C   0  0  0  0  0  2  0  0  0  0  0  0
  191.7360  175.5640  135.5770 C   0  0  0  0  0  2  0  0  0  0  0  0
  197.1800  174.9350  137.0160 C   0  0  0  0  0  2  0  0  0  0  0  0
  194.1650  176.0550  135.1250 C   0  0  0  0  0  2  0  0  0  0  0  0
  195.5020  176.2180  135.7120 N   0  0  0  0  0  2  0  0  0  0  0  0
  193.1040  175.7770  136.2090 C   0  0  2  0  0  3  0  0  0  0  0  0
  197.0110  174.0160  138.2190 C   0  0  0  0  0  2  0  0  0  0  0  0
  194.9010  174.9100  137.5980 N   0  0  1  0  0  0  0  0  0  0  0  0
  193.4340  173.2490  136.4340 C   0  0  0  0  0  1  0  0  0  0  0  0
  193.5410  174.6140  137.1300 C   0  0  2  0  0  3  0  0  0  0  0  0
  195.5040  173.8780  138.4250 C   0  0  0  0  0  2  0  0  0  0  0  0
  195.7870  174.9950  136.4510 C   0  0  2  0  0  3  0  0  0  0  0  0
  187.2290  177.0120  137.1030 C   0  0  0  0  0  2  0  0  0  0  0  0
  186.8210  177.5570  138.3960 N   0  0  0  0  0  0  0  0  0  0  0  0
  185.7030  178.4660  138.1790 C   0  0  0  0  0  2  0  0  0  0  0  0
  185.3290  179.0480  139.3900 O   0  0  0  0  0  1  0  0  0  0  0  0
  187.8930  178.2750  138.9640 N   0  0  0  0  0  2  0  0  0  0  0  0
  188.7400  177.7110  143.4850 C   0  0  0  0  0  0  0  0  0  0  0  0
  188.8640  177.7780  139.9040 C   0  0  0  0  0  0  0  0  0  0  0  0
  190.2180  177.6030  139.6120 C   0  0  0  0  0  3  0  0  0  0  0  0
  187.7770  177.8890  142.3250 C   0  0  0  0  0  2  0  0  0  0  0  0
  189.8750  177.1480  141.7440 N   0  0  0  0  0  0  0  0  0  0  0  0
  189.9220  177.3130  143.1220 N   0  0  0  0  0  0  0  0  0  0  0  0
  188.7090  177.4820  141.2400 C   0  0  0  0  0  0  0  0  0  0  0  0
  190.8380  177.2500  140.8160 C   0  0  0  0  0  3  0  0  0  0  0  0
  188.2710  176.9340  145.6800 F   0  0  0  0  0  0  0  0  0  0  0  0
  188.4180  177.9540  144.8140 O   0  0  0  0  0  0  0  0  0  0  0  0
  1 10  1  0  0  0  0
  1  2  1  0  0  0  0
  2  5  2  0  0  0  0
  2 12  1  0  0  0  0
  3  4  1  0  0  0  0
  3  1  2  0  0  0  0
  4  6  2  0  0  0  0
  6  9  1  0  0  0  0
  6  5  1  0  0  0  0
  7 15  1  6  0  0  0
 10  7  1  0  0  0  0
 10  8  1  1  0  0  0
 11 14  1  6  0  0  0
 11 10  1  0  0  0  0
 11  7  1  0  0  0  0
 11 12  1  0  0  0  0
 12 26  1  6  0  0  0
 13 14  1  0  0  0  0
 16 20  1  0  0  0  0
 17 18  1  0  0  0  0
 17 19  1  0  0  0  0
 18 25  1  0  0  0  0
 19 15  1  6  0  0  0
 19 23  1  0  0  0  0
 20 24  1  0  0  0  0
 21 24  1  1  0  0  0
 23 22  1  6  0  0  0
 23 21  1  0  0  0  0
 25 16  1  1  0  0  0
 25 21  1  0  0  0  0
 26 27  1  0  0  0  0
 27 30  1  0  0  0  0
 28 27  1  0  0  0  0
 28 29  1  0  0  0  0
 30 32  1  0  0  0  0
 31 40  1  0  0  0  0
 32 37  2  0  0  0  0
 33 32  1  0  0  0  0
 33 38  2  0  0  0  0
 34 31  1  0  0  0  0
 35 36  1  0  0  0  0
 36 31  2  0  0  0  0
 37 35  1  0  0  0  0
 37 34  1  0  0  0  0
 38 35  1  0  0  0  0
 40 39  1  0  0  0  0
M  END
>  <MODEL>
3

>  <REMARK>
 VINA RESULT:      -8.1      4.330      9.820
  Name = 
  9 active torsions:
  status: ('A' for Active; 'I' for Inactive)
    1  A    between atoms: C_4  and  O_33
    2  A    between atoms: C_9  and  N_21
    3  A    between atoms: C_11  and  C_32
    4  A    between atoms: C_12  and  N_19
    5  A    between atoms: C_15  and  C_37
    6  A    between atoms: N_19  and  N_21
    7  A    between atoms: N_19  and  C_35
    8  A    between atoms: C_23  and  C_32
    9  A    between atoms: C_35  and  C_38
                            x       y       z     vdW  Elec       q    Type
                         _______ _______ _______ _____ _____    ______ ____

>  <TORSDO>
F 9

$$$$
=
 OpenBabel10222421553D

 40 46  0  0  1  0  0  0  0  0999 V2000
  186.6180  175.7730  135.7310 C   0  0  0  0  0  0  0  0  0  0  0  0
  185.8220  176.4170  136.6570 C   0  0  0  0  0  0  0  0  0  0  0  0
  186.0510  175.2430  134.5680 C   0  0  0  0  0  3  0  0  0  0  0  0
  184.6740  175.4040  134.3460 C   0  0  0  0  0  3  0  0  0  0  0  0
  184.4440  176.5550  136.4780 C   0  0  0  0  0  3  0  0  0  0  0  0
  183.8730  176.0530  135.3010 C   0  0  0  0  0  0  0  0  0  0  0  0
  189.0650  175.9040  137.3000 C   0  0  2  0  0  3  0  0  0  0  0  0
  187.7670  174.2390  136.8370 O   0  0  0  0  0  1  0  0  0  0  0  0
  182.1550  176.2360  135.0240 Cl  0  0  0  0  0  0  0  0  0  0  0  0
  188.0170  175.4710  136.2220 C   0  0  2  0  0  0  0  0  0  0  0  0
  188.0280  176.8570  137.0370 C   0  0  1  0  0  0  0  0  0  0  0  0
  186.6730  176.8720  137.7660 C   0  0  1  0  0  3  0  0  0  0  0  0
  188.9370  179.2140  136.9550 C   0  0  0  0  0  1  0  0  0  0  0  0
  188.3840  178.0620  136.1330 C   0  0  0  0  0  2  0  0  0  0  0  0
  190.4060  176.1470  136.6110 C   0  0  0  0  0  2  0  0  0  0  0  0
  195.5410  174.4440  138.2950 C   0  0  0  0  0  2  0  0  0  0  0  0
  192.5660  176.6420  137.8100 C   0  0  0  0  0  2  0  0  0  0  0  0
  193.6930  176.0790  138.5660 N   0  0  0  0  0  2  0  0  0  0  0  0
  191.5410  175.5540  137.4330 C   0  0  2  0  0  3  0  0  0  0  0  0
  195.5520  173.0510  137.6790 C   0  0  0  0  0  2  0  0  0  0  0  0
  193.3510  173.9390  137.6010 N   0  0  1  0  0  0  0  0  0  0  0  0
  192.6710  174.6790  135.3090 C   0  0  0  0  0  1  0  0  0  0  0  0
  192.2330  174.3530  136.7450 C   0  0  2  0  0  3  0  0  0  0  0  0
  194.1650  172.8590  137.0690 C   0  0  0  0  0  2  0  0  0  0  0  0
  194.2840  175.0440  137.7280 C   0  0  2  0  0  3  0  0  0  0  0  0
  186.2570  178.1950  138.4350 C   0  0  0  0  0  2  0  0  0  0  0  0
  186.1980  178.1250  139.8940 N   0  0  0  0  0  0  0  0  0  0  0  0
  185.0830  178.9450  140.3480 C   0  0  0  0  0  2  0  0  0  0  0  0
  184.7910  179.9150  139.3890 O   0  0  0  0  0  1  0  0  0  0  0  0
  187.3950  178.6350  140.4390 N   0  0  0  0  0  2  0  0  0  0  0  0
  189.1130  177.0130  144.4240 C   0  0  0  0  0  0  0  0  0  0  0  0
  188.4790  177.8760  141.0040 C   0  0  0  0  0  0  0  0  0  0  0  0
  189.7100  177.6810  140.3760 C   0  0  0  0  0  3  0  0  0  0  0  0
  187.9520  177.5110  143.5820 C   0  0  0  0  0  2  0  0  0  0  0  0
  189.7780  176.7820  142.3900 N   0  0  0  0  0  0  0  0  0  0  0  0
  190.1360  176.6290  143.7230 N   0  0  0  0  0  0  0  0  0  0  0  0
  188.5780  177.2980  142.2500 C   0  0  0  0  0  0  0  0  0  0  0  0
  190.5270  177.0250  141.3030 C   0  0  0  0  0  3  0  0  0  0  0  0
  188.2870  177.7630  146.5210 F   0  0  0  0  0  0  0  0  0  0  0  0
  189.1110  176.9710  145.8130 O   0  0  0  0  0  0  0  0  0  0  0  0
  1 10  1  0  0  0  0
  1  2  1  0  0  0  0
  2 12  1  0  0  0  0
  3  1  2  0  0  0  0
  4  3  1  0  0  0  0
  4  6  2  0  0  0  0
  5  2  2  0  0  0  0
  6  5  1  0  0  0  0
  7 15  1  6  0  0  0
  9  6  1  0  0  0  0
 10  8  1  1  0  0  0
 10 11  1  0  0  0  0
 10  7  1  0  0  0  0
 11 14  1  6  0  0  0
 11  7  1  0  0  0  0
 11 12  1  0  0  0  0
 12 26  1  6  0  0  0
 14 13  1  0  0  0  0
 17 18  1  0  0  0  0
 19 15  1  6  0  0  0
 19 17  1  0  0  0  0
 20 16  1  0  0  0  0
 21 24  1  6  0  0  0
 21 25  1  0  0  0  0
 23 22  1  6  0  0  0
 23 19  1  0  0  0  0
 23 21  1  0  0  0  0
 24 20  1  0  0  0  0
 25 16  1  1  0  0  0
 25 18  1  0  0  0  0
 26 27  1  0  0  0  0
 27 28  1  0  0  0  0
 27 30  1  0  0  0  0
 29 28  1  0  0  0  0
 30 32  1  0  0  0  0
 31 40  1  0  0  0  0
 32 37  2  0  0  0  0
 33 32  1  0  0  0  0
 33 38  2  0  0  0  0
 34 31  1  0  0  0  0
 35 36  1  0  0  0  0
 36 31  2  0  0  0  0
 37 35  1  0  0  0  0
 37 34  1  0  0  0  0
 38 35  1  0  0  0  0
 40 39  1  0  0  0  0
M  END
>  <MODEL>
4

>  <REMARK>
 VINA RESULT:      -8.1      4.215      9.650
  Name = 
  9 active torsions:
  status: ('A' for Active; 'I' for Inactive)
    1  A    between atoms: C_4  and  O_33
    2  A    between atoms: C_9  and  N_21
    3  A    between atoms: C_11  and  C_32
    4  A    between atoms: C_12  and  N_19
    5  A    between atoms: C_15  and  C_37
    6  A    between atoms: N_19  and  N_21
    7  A    between atoms: N_19  and  C_35
    8  A    between atoms: C_23  and  C_32
    9  A    between atoms: C_35  and  C_38
                            x       y       z     vdW  Elec       q    Type
                         _______ _______ _______ _____ _____    ______ ____

>  <TORSDO>
F 9

$$$$
=
 OpenBabel10222421553D

 40 46  0  0  1  0  0  0  0  0999 V2000
  184.3130  176.1840  135.7870 C   0  0  0  0  0  0  0  0  0  0  0  0
  184.0510  177.0240  136.8500 C   0  0  0  0  0  0  0  0  0  0  0  0
  183.3320  175.9520  134.8190 C   0  0  0  0  0  3  0  0  0  0  0  0
  182.0960  176.6100  134.9290 C   0  0  0  0  0  3  0  0  0  0  0  0
  182.8160  177.6590  137.0040 C   0  0  0  0  0  3  0  0  0  0  0  0
  181.8370  177.4560  136.0220 C   0  0  0  0  0  0  0  0  0  0  0  0
  186.9410  175.3460  136.7130 C   0  0  2  0  0  3  0  0  0  0  0  0
  185.0590  174.2860  136.6470 O   0  0  0  0  0  1  0  0  0  0  0  0
  180.2890  178.2590  136.1590 Cl  0  0  0  0  0  0  0  0  0  0  0  0
  185.5820  175.3740  135.9390 C   0  0  2  0  0  0  0  0  0  0  0  0
  186.2880  176.6200  136.6680 C   0  0  1  0  0  0  0  0  0  0  0  0
  185.2480  177.0870  137.7010 C   0  0  1  0  0  3  0  0  0  0  0  0
  187.6010  178.7580  136.3640 C   0  0  0  0  0  1  0  0  0  0  0  0
  186.8280  177.6600  135.6550 C   0  0  0  0  0  2  0  0  0  0  0  0
  188.0720  175.1230  135.7110 C   0  0  0  0  0  2  0  0  0  0  0  0
  193.1140  176.0500  138.1260 C   0  0  0  0  0  2  0  0  0  0  0  0
  189.4160  175.7120  137.7590 C   0  0  0  0  0  2  0  0  0  0  0  0
  190.7020  175.5620  138.4540 N   0  0  0  0  0  2  0  0  0  0  0  0
  189.3930  174.9160  136.4390 C   0  0  2  0  0  3  0  0  0  0  0  0
  194.0080  175.8620  136.9080 C   0  0  0  0  0  2  0  0  0  0  0  0
  191.8180  175.0860  136.4160 N   0  0  1  0  0  0  0  0  0  0  0  0
  190.5360  176.6390  134.9300 C   0  0  0  0  0  1  0  0  0  0  0  0
  190.6290  175.2460  135.5690 C   0  0  2  0  0  3  0  0  0  0  0  0
  193.0770  175.4290  135.7770 C   0  0  0  0  0  2  0  0  0  0  0  0
  191.7330  176.0130  137.5300 C   0  0  2  0  0  3  0  0  0  0  0  0
  185.5120  178.4360  138.3950 C   0  0  0  0  0  2  0  0  0  0  0  0
  185.1480  178.4520  139.8110 N   0  0  0  0  0  0  0  0  0  0  0  0
  184.0440  179.3850  139.9910 C   0  0  0  0  0  2  0  0  0  0  0  0
  184.0830  180.3580  138.9920 O   0  0  0  0  0  1  0  0  0  0  0  0
  186.2490  178.8910  140.5750 N   0  0  0  0  0  2  0  0  0  0  0  0
  185.2540  178.4490  145.0780 C   0  0  0  0  0  0  0  0  0  0  0  0
  186.7230  178.3270  141.8120 C   0  0  0  0  0  0  0  0  0  0  0  0
  188.0520  177.9770  142.0540 C   0  0  0  0  0  3  0  0  0  0  0  0
  184.8300  178.6850  143.6400 C   0  0  0  0  0  2  0  0  0  0  0  0
  186.8770  177.6700  143.8970 N   0  0  0  0  0  0  0  0  0  0  0  0
  186.4240  177.8940  145.1900 N   0  0  0  0  0  0  0  0  0  0  0  0
  186.0400  178.1170  142.9890 C   0  0  0  0  0  0  0  0  0  0  0  0
  188.1230  177.6100  143.4030 C   0  0  0  0  0  3  0  0  0  0  0  0
  184.8360  178.3660  147.4150 F   0  0  0  0  0  0  0  0  0  0  0  0
  184.4900  178.7910  146.1870 O   0  0  0  0  0  0  0  0  0  0  0  0
  1 10  1  0  0  0  0
  1  2  1  0  0  0  0
  2  5  2  0  0  0  0
  2 12  1  0  0  0  0
  3  4  1  0  0  0  0
  3  1  2  0  0  0  0
  4  6  2  0  0  0  0
  6  9  1  0  0  0  0
  6  5  1  0  0  0  0
  7 15  1  6  0  0  0
 10  8  1  1  0  0  0
 10 11  1  0  0  0  0
 10  7  1  0  0  0  0
 11 14  1  6  0  0  0
 11  7  1  0  0  0  0
 11 12  1  0  0  0  0
 12 26  1  6  0  0  0
 14 13  1  0  0  0  0
 17 18  1  0  0  0  0
 19 15  1  6  0  0  0
 19 17  1  0  0  0  0
 20 16  1  0  0  0  0
 21 24  1  6  0  0  0
 21 25  1  0  0  0  0
 23 22  1  1  0  0  0
 23 21  1  0  0  0  0
 23 19  1  0  0  0  0
 24 20  1  0  0  0  0
 25 16  1  1  0  0  0
 25 18  1  0  0  0  0
 26 27  1  0  0  0  0
 27 28  1  0  0  0  0
 27 30  1  0  0  0  0
 29 28  1  0  0  0  0
 30 32  1  0  0  0  0
 31 36  2  0  0  0  0
 31 40  1  0  0  0  0
 32 33  1  0  0  0  0
 32 37  2  0  0  0  0
 33 38  2  0  0  0  0
 34 31  1  0  0  0  0
 35 36  1  0  0  0  0
 37 34  1  0  0  0  0
 37 35  1  0  0  0  0
 38 35  1  0  0  0  0
 40 39  1  0  0  0  0
M  END
>  <MODEL>
5

>  <REMARK>
 VINA RESULT:      -7.9      4.396      9.771
  Name = 
  9 active torsions:
  status: ('A' for Active; 'I' for Inactive)
    1  A    between atoms: C_4  and  O_33
    2  A    between atoms: C_9  and  N_21
    3  A    between atoms: C_11  and  C_32
    4  A    between atoms: C_12  and  N_19
    5  A    between atoms: C_15  and  C_37
    6  A    between atoms: N_19  and  N_21
    7  A    between atoms: N_19  and  C_35
    8  A    between atoms: C_23  and  C_32
    9  A    between atoms: C_35  and  C_38
                            x       y       z     vdW  Elec       q    Type
                         _______ _______ _______ _____ _____    ______ ____

>  <TORSDO>
F 9

$$$$
=
 OpenBabel10222421553D

 40 46  0  0  1  0  0  0  0  0999 V2000
  184.5840  176.5650  135.8720 C   0  0  0  0  0  0  0  0  0  0  0  0
  184.4060  177.3320  137.0050 C   0  0  0  0  0  0  0  0  0  0  0  0
  183.5520  176.4500  134.9360 C   0  0  0  0  0  3  0  0  0  0  0  0
  182.3530  177.1490  135.1520 C   0  0  0  0  0  3  0  0  0  0  0  0
  183.2100  178.0050  137.2630 C   0  0  0  0  0  3  0  0  0  0  0  0
  182.1810  177.9190  136.3150 C   0  0  0  0  0  0  0  0  0  0  0  0
  187.2080  175.5490  136.6090 C   0  0  2  0  0  3  0  0  0  0  0  0
  185.2780  174.5770  136.5520 O   0  0  0  0  0  1  0  0  0  0  0  0
  180.6780  178.7740  136.5840 Cl  0  0  0  0  0  0  0  0  0  0  0  0
  185.8200  175.6930  135.9030 C   0  0  2  0  0  0  0  0  0  0  0  0
  186.6130  176.8490  136.6900 C   0  0  1  0  0  0  0  0  0  0  0  0
  185.6400  177.2790  137.8020 C   0  0  1  0  0  3  0  0  0  0  0  0
  188.3360  178.6670  136.3520 C   0  0  0  0  0  1  0  0  0  0  0  0
  187.1550  177.9390  135.7330 C   0  0  0  0  0  2  0  0  0  0  0  0
  188.2840  175.3550  135.5420 C   0  0  0  0  0  2  0  0  0  0  0  0
  193.4860  174.5080  137.6210 C   0  0  0  0  0  2  0  0  0  0  0  0
  189.8440  175.3110  137.5190 C   0  0  0  0  0  2  0  0  0  0  0  0
  191.0590  174.7190  138.0960 N   0  0  0  0  0  2  0  0  0  0  0  0
  189.5160  174.6960  136.1440 C   0  0  2  0  0  3  0  0  0  0  0  0
  194.2200  174.1910  136.3240 C   0  0  0  0  0  2  0  0  0  0  0  0
  191.8770  174.1480  135.9440 N   0  0  1  0  0  0  0  0  0  0  0  0
  191.0460  176.1520  134.6970 C   0  0  0  0  0  1  0  0  0  0  0  0
  190.7490  174.7350  135.2100 C   0  0  2  0  0  3  0  0  0  0  0  0
  193.1470  174.1680  135.2380 C   0  0  0  0  0  2  0  0  0  0  0  0
  192.1300  174.9390  137.1340 C   0  0  2  0  0  3  0  0  0  0  0  0
  185.9950  178.5580  138.5820 C   0  0  0  0  0  2  0  0  0  0  0  0
  186.1920  178.3410  140.0140 N   0  0  0  0  0  0  0  0  0  0  0  0
  185.2250  179.1570  140.7380 C   0  0  0  0  0  2  0  0  0  0  0  0
  184.4770  179.9130  139.8360 O   0  0  0  0  0  1  0  0  0  0  0  0
  187.4940  178.7420  140.3770 N   0  0  0  0  0  2  0  0  0  0  0  0
  189.1900  176.9750  144.3100 C   0  0  0  0  0  0  0  0  0  0  0  0
  188.5370  177.9070  140.9110 C   0  0  0  0  0  0  0  0  0  0  0  0
  189.7380  177.6340  140.2530 C   0  0  0  0  0  3  0  0  0  0  0  0
  188.0470  177.5570  143.4980 C   0  0  0  0  0  2  0  0  0  0  0  0
  189.7910  176.7160  142.2590 N   0  0  0  0  0  0  0  0  0  0  0  0
  190.1690  176.5280  143.5820 N   0  0  0  0  0  0  0  0  0  0  0  0
  188.6260  177.3130  142.1510 C   0  0  0  0  0  0  0  0  0  0  0  0
  190.5300  176.9170  141.1570 C   0  0  0  0  0  3  0  0  0  0  0  0
  188.0950  177.1170  146.4130 F   0  0  0  0  0  0  0  0  0  0  0  0
  189.2180  176.9210  145.6980 O   0  0  0  0  0  0  0  0  0  0  0  0
  1 10  1  0  0  0  0
  1  2  1  0  0  0  0
  2  5  2  0  0  0  0
  2 12  1  0  0  0  0
  3  4  1  0  0  0  0
  3  1  2  0  0  0  0
  4  6  2  0  0  0  0
  6  9  1  0  0  0  0
  6  5  1  0  0  0  0
  7 15  1  6  0  0  0
  7 11  1  0  0  0  0
 10  8  1  1  0  0  0
 10  7  1  0  0  0  0
 10 11  1  0  0  0  0
 11 14  1  6  0  0  0
 11 12  1  0  0  0  0
 12 26  1  6  0  0  0
 14 13  1  0  0  0  0
 17 18  1  0  0  0  0
 19 15  1  6  0  0  0
 19 17  1  0  0  0  0
 20 16  1  0  0  0  0
 21 24  1  6  0  0  0
 21 25  1  0  0  0  0
 23 22  1  1  0  0  0
 23 21  1  0  0  0  0
 23 19  1  0  0  0  0
 24 20  1  0  0  0  0
 25 16  1  1  0  0  0
 25 18  1  0  0  0  0
 26 27  1  0  0  0  0
 27 30  1  0  0  0  0
 27 28  1  0  0  0  0
 29 28  1  0  0  0  0
 30 32  1  0  0  0  0
 31 40  1  0  0  0  0
 32 37  2  0  0  0  0
 33 32  1  0  0  0  0
 33 38  2  0  0  0  0
 34 31  1  0  0  0  0
 35 36  1  0  0  0  0
 36 31  2  0  0  0  0
 37 35  1  0  0  0  0
 37 34  1  0  0  0  0
 38 35  1  0  0  0  0
 40 39  1  0  0  0  0
M  END
>  <MODEL>
6

>  <REMARK>
 VINA RESULT:      -7.9      4.247      9.554
  Name = 
  9 active torsions:
  status: ('A' for Active; 'I' for Inactive)
    1  A    between atoms: C_4  and  O_33
    2  A    between atoms: C_9  and  N_21
    3  A    between atoms: C_11  and  C_32
    4  A    between atoms: C_12  and  N_19
    5  A    between atoms: C_15  and  C_37
    6  A    between atoms: N_19  and  N_21
    7  A    between atoms: N_19  and  C_35
    8  A    between atoms: C_23  and  C_32
    9  A    between atoms: C_35  and  C_38
                            x       y       z     vdW  Elec       q    Type
                         _______ _______ _______ _____ _____    ______ ____

>  <TORSDO>
F 9

$$$$
=
 OpenBabel10222421553D

 40 46  0  0  1  0  0  0  0  0999 V2000
  189.6920  177.6660  144.9260 C   0  0  0  0  0  0  0  0  0  0  0  0
  188.3630  177.8680  145.2380 C   0  0  0  0  0  0  0  0  0  0  0  0
  190.6080  177.3510  145.9350 C   0  0  0  0  0  3  0  0  0  0  0  0
  190.1480  177.2130  147.2540 C   0  0  0  0  0  3  0  0  0  0  0  0
  187.8880  177.7760  146.5480 C   0  0  0  0  0  3  0  0  0  0  0  0
  188.7940  177.4310  147.5600 C   0  0  0  0  0  0  0  0  0  0  0  0
  189.4500  178.3720  142.1140 C   0  0  2  0  0  3  0  0  0  0  0  0
  190.3500  179.4340  143.7670 O   0  0  0  0  0  1  0  0  0  0  0  0
  188.2320  177.2720  149.2100 Cl  0  0  0  0  0  0  0  0  0  0  0  0
  190.0680  178.0840  143.5210 C   0  0  2  0  0  0  0  0  0  0  0  0
  188.6360  177.5830  142.9910 C   0  0  1  0  0  0  0  0  0  0  0  0
  187.6360  178.1780  143.9980 C   0  0  1  0  0  3  0  0  0  0  0  0
  189.9790  175.4420  142.9710 C   0  0  0  0  0  1  0  0  0  0  0  0
  188.6060  176.0540  142.7490 C   0  0  0  0  0  2  0  0  0  0  0  0
  190.2520  177.6120  141.0600 C   0  0  0  0  0  2  0  0  0  0  0  0
  188.0550  177.5950  135.8370 C   0  0  0  0  0  2  0  0  0  0  0  0
  188.2940  178.0410  139.5340 C   0  0  0  0  0  2  0  0  0  0  0  0
  187.8690  178.4060  138.1750 N   0  0  0  0  0  2  0  0  0  0  0  0
  189.8310  178.0390  139.6610 C   0  0  2  0  0  3  0  0  0  0  0  0
  189.2490  177.0420  135.0700 C   0  0  0  0  0  2  0  0  0  0  0  0
  189.9250  177.6540  137.2620 N   0  0  1  0  0  0  0  0  0  0  0  0
  190.2900  175.6860  138.7650 C   0  0  0  0  0  1  0  0  0  0  0  0
  190.4810  177.1930  138.5410 C   0  0  2  0  0  3  0  0  0  0  0  0
  190.3740  176.9140  136.0950 C   0  0  0  0  0  2  0  0  0  0  0  0
  188.4880  177.4480  137.2700 C   0  0  2  0  0  3  0  0  0  0  0  0
  186.1850  177.6670  143.9220 C   0  0  0  0  0  2  0  0  0  0  0  0
  185.1820  178.7270  144.0050 N   0  0  0  0  0  0  0  0  0  0  0  0
  184.7100  178.8060  145.3810 C   0  0  0  0  0  2  0  0  0  0  0  0
  183.3610  179.1630  145.3960 O   0  0  0  0  0  1  0  0  0  0  0  0
  184.0940  178.4130  143.1640 N   0  0  0  0  0  2  0  0  0  0  0  0
  181.2310  178.0950  139.5350 C   0  0  0  0  0  0  0  0  0  0  0  0
  183.9530  178.7500  141.7720 C   0  0  0  0  0  0  0  0  0  0  0  0
  185.0240  179.0350  140.9220 C   0  0  0  0  0  3  0  0  0  0  0  0
  181.4830  178.1140  141.0320 C   0  0  0  0  0  2  0  0  0  0  0  0
  183.1530  179.0400  139.7520 N   0  0  0  0  0  0  0  0  0  0  0  0
  182.2020  178.6040  138.8380 N   0  0  0  0  0  0  0  0  0  0  0  0
  182.8180  178.7670  140.9920 C   0  0  0  0  0  0  0  0  0  0  0  0
  184.4850  179.1640  139.6380 C   0  0  0  0  0  3  0  0  0  0  0  0
  180.1620  176.9100  137.7750 F   0  0  0  0  0  0  0  0  0  0  0  0
  180.0860  177.5790  138.9400 O   0  0  0  0  0  0  0  0  0  0  0  0
  1  2  2  0  0  0  0
  1  3  1  0  0  0  0
  2  5  1  0  0  0  0
  3  4  2  0  0  0  0
  4  6  1  0  0  0  0
  5  6  2  0  0  0  0
  6  9  1  0  0  0  0
  7 15  1  6  0  0  0
  7 11  1  0  0  0  0
  7 10  1  0  0  0  0
 10  8  1  1  0  0  0
 10  1  1  0  0  0  0
 11 14  1  6  0  0  0
 11 10  1  0  0  0  0
 11 12  1  0  0  0  0
 12 26  1  1  0  0  0
 12  2  1  0  0  0  0
 14 13  1  0  0  0  0
 17 19  1  0  0  0  0
 18 17  1  0  0  0  0
 19 15  1  1  0  0  0
 20 16  1  0  0  0  0
 20 24  1  0  0  0  0
 21 24  1  6  0  0  0
 21 25  1  0  0  0  0
 21 23  1  0  0  0  0
 23 22  1  1  0  0  0
 23 19  1  0  0  0  0
 25 16  1  6  0  0  0
 25 18  1  0  0  0  0
 26 27  1  0  0  0  0
 27 28  1  0  0  0  0
 28 29  1  0  0  0  0
 30 27  1  0  0  0  0
 31 34  1  0  0  0  0
 32 30  1  0  0  0  0
 33 32  1  0  0  0  0
 35 37  1  0  0  0  0
 36 31  2  0  0  0  0
 36 35  1  0  0  0  0
 37 34  1  0  0  0  0
 37 32  2  0  0  0  0
 38 35  1  0  0  0  0
 38 33  2  0  0  0  0
 39 40  1  0  0  0  0
 40 31  1  0  0  0  0
M  END
>  <MODEL>
7

>  <REMARK>
 VINA RESULT:      -7.8      2.533      6.521
  Name = 
  9 active torsions:
  status: ('A' for Active; 'I' for Inactive)
    1  A    between atoms: C_4  and  O_33
    2  A    between atoms: C_9  and  N_21
    3  A    between atoms: C_11  and  C_32
    4  A    between atoms: C_12  and  N_19
    5  A    between atoms: C_15  and  C_37
    6  A    between atoms: N_19  and  N_21
    7  A    between atoms: N_19  and  C_35
    8  A    between atoms: C_23  and  C_32
    9  A    between atoms: C_35  and  C_38
                            x       y       z     vdW  Elec       q    Type
                         _______ _______ _______ _____ _____    ______ ____

>  <TORSDO>
F 9

$$$$
=
 OpenBabel10222421553D

 40 46  0  0  1  0  0  0  0  0999 V2000
  190.1500  176.7220  140.6410 C   0  0  0  0  0  0  0  0  0  0  0  0
  189.2010  177.6520  140.2670 C   0  0  0  0  0  0  0  0  0  0  0  0
  190.1150  176.1640  141.9220 C   0  0  0  0  0  3  0  0  0  0  0  0
  189.0880  176.5380  142.8020 C   0  0  0  0  0  3  0  0  0  0  0  0
  188.1920  178.0700  141.1370 C   0  0  0  0  0  3  0  0  0  0  0  0
  188.1320  177.4930  142.4130 C   0  0  0  0  0  0  0  0  0  0  0  0
  191.7300  176.9130  138.2060 C   0  0  2  0  0  3  0  0  0  0  0  0
  192.1250  177.6220  140.2090 O   0  0  0  0  0  1  0  0  0  0  0  0
  186.8640  177.9650  143.5210 Cl  0  0  0  0  0  0  0  0  0  0  0  0
  191.3150  176.6090  139.6830 C   0  0  2  0  0  0  0  0  0  0  0  0
  190.3190  176.8540  138.4460 C   0  0  1  0  0  0  0  0  0  0  0  0
  189.4720  178.0630  138.8820 C   0  0  1  0  0  3  0  0  0  0  0  0
  189.5340  175.4270  136.5130 C   0  0  0  0  0  1  0  0  0  0  0  0
  189.5800  175.5600  138.0250 C   0  0  0  0  0  2  0  0  0  0  0  0
  192.3730  175.6630  137.6080 C   0  0  0  0  0  2  0  0  0  0  0  0
  197.7810  174.9920  136.0540 C   0  0  0  0  0  2  0  0  0  0  0  0
  194.2390  176.1640  135.9920 C   0  0  0  0  0  2  0  0  0  0  0  0
  195.6910  176.3110  135.8180 N   0  0  0  0  0  2  0  0  0  0  0  0
  193.8750  175.8590  137.4580 C   0  0  2  0  0  3  0  0  0  0  0  0
  198.2360  174.0420  137.1530 C   0  0  0  0  0  2  0  0  0  0  0  0
  196.1170  174.9530  137.7160 N   0  0  1  0  0  0  0  0  0  0  0  0
  194.2380  173.3250  137.4260 C   0  0  0  0  0  1  0  0  0  0  0  0
  194.7040  174.6710  138.0010 C   0  0  2  0  0  3  0  0  0  0  0  0
  197.0420  173.8990  138.0960 C   0  0  0  0  0  2  0  0  0  0  0  0
  196.2950  175.0690  136.2800 C   0  0  2  0  0  3  0  0  0  0  0  0
  188.2380  178.3950  138.0230 C   0  0  0  0  0  2  0  0  0  0  0  0
  186.9880  177.8540  138.5520 N   0  0  0  0  0  0  0  0  0  0  0  0
  186.5770  176.7390  137.7090 C   0  0  0  0  0  2  0  0  0  0  0  0
  186.4640  177.1670  136.3860 O   0  0  0  0  0  1  0  0  0  0  0  0
  185.9900  178.8500  138.5150 N   0  0  0  0  0  2  0  0  0  0  0  0
  183.4450  178.7830  142.3860 C   0  0  0  0  0  0  0  0  0  0  0  0
  184.6420  178.7410  139.0090 C   0  0  0  0  0  0  0  0  0  0  0  0
  183.5860  178.1860  138.2850 C   0  0  0  0  0  3  0  0  0  0  0  0
  184.7050  179.1630  141.6300 C   0  0  0  0  0  2  0  0  0  0  0  0
  182.8790  178.7050  140.3110 N   0  0  0  0  0  0  0  0  0  0  0  0
  182.4380  178.5090  141.6130 N   0  0  0  0  0  0  0  0  0  0  0  0
  184.1470  179.0450  140.2580 C   0  0  0  0  0  0  0  0  0  0  0  0
  182.4940  178.1330  139.1590 C   0  0  0  0  0  3  0  0  0  0  0  0
  184.1570  179.4640  144.5480 F   0  0  0  0  0  0  0  0  0  0  0  0
  183.3530  178.7160  143.7710 O   0  0  0  0  0  0  0  0  0  0  0  0
  1  3  1  0  0  0  0
  2  1  2  0  0  0  0
  2  5  1  0  0  0  0
  3  4  2  0  0  0  0
  5  6  2  0  0  0  0
  6  4  1  0  0  0  0
  6  9  1  0  0  0  0
  7 15  1  6  0  0  0
  7 11  1  0  0  0  0
  7 10  1  0  0  0  0
 10  8  1  1  0  0  0
 10  1  1  0  0  0  0
 11 14  1  6  0  0  0
 11 12  1  0  0  0  0
 11 10  1  0  0  0  0
 12 26  1  6  0  0  0
 12  2  1  0  0  0  0
 13 14  1  0  0  0  0
 16 20  1  0  0  0  0
 17 19  1  0  0  0  0
 18 17  1  0  0  0  0
 18 25  1  0  0  0  0
 19 15  1  6  0  0  0
 19 23  1  0  0  0  0
 20 24  1  0  0  0  0
 21 23  1  0  0  0  0
 21 24  1  6  0  0  0
 23 22  1  6  0  0  0
 25 16  1  1  0  0  0
 25 21  1  0  0  0  0
 26 27  1  0  0  0  0
 28 27  1  0  0  0  0
 29 28  1  0  0  0  0
 30 27  1  0  0  0  0
 30 32  1  0  0  0  0
 31 40  1  0  0  0  0
 32 37  2  0  0  0  0
 33 32  1  0  0  0  0
 33 38  2  0  0  0  0
 34 31  1  0  0  0  0
 35 36  1  0  0  0  0
 36 31  2  0  0  0  0
 37 35  1  0  0  0  0
 37 34  1  0  0  0  0
 38 35  1  0  0  0  0
 40 39  1  0  0  0  0
M  END
>  <MODEL>
8

>  <REMARK>
 VINA RESULT:      -7.5      3.582      9.083
  Name = 
  9 active torsions:
  status: ('A' for Active; 'I' for Inactive)
    1  A    between atoms: C_4  and  O_33
    2  A    between atoms: C_9  and  N_21
    3  A    between atoms: C_11  and  C_32
    4  A    between atoms: C_12  and  N_19
    5  A    between atoms: C_15  and  C_37
    6  A    between atoms: N_19  and  N_21
    7  A    between atoms: N_19  and  C_35
    8  A    between atoms: C_23  and  C_32
    9  A    between atoms: C_35  and  C_38
                            x       y       z     vdW  Elec       q    Type
                         _______ _______ _______ _____ _____    ______ ____

>  <TORSDO>
F 9

$$$$
=
 OpenBabel10222421553D

 40 46  0  0  1  0  0  0  0  0999 V2000
  189.2800  177.2200  144.8520 C   0  0  0  0  0  0  0  0  0  0  0  0
  190.4890  176.7570  144.3740 C   0  0  0  0  0  0  0  0  0  0  0  0
  189.0330  177.2400  146.2280 C   0  0  0  0  0  3  0  0  0  0  0  0
  190.0410  176.8150  147.1090 C   0  0  0  0  0  3  0  0  0  0  0  0
  191.4930  176.2910  145.2270 C   0  0  0  0  0  3  0  0  0  0  0  0
  191.2640  176.3360  146.6090 C   0  0  0  0  0  0  0  0  0  0  0  0
  188.0540  177.6010  142.2420 C   0  0  2  0  0  3  0  0  0  0  0  0
  187.7010  176.1120  143.7680 O   0  0  0  0  0  1  0  0  0  0  0  0
  192.5090  175.7930  147.7130 Cl  0  0  0  0  0  0  0  0  0  0  0  0
  188.2250  177.4100  143.7850 C   0  0  2  0  0  0  0  0  0  0  0  0
  189.3580  177.8970  142.7540 C   0  0  1  0  0  0  0  0  0  0  0  0
  190.4770  176.8510  142.9070 C   0  0  1  0  0  3  0  0  0  0  0  0
  191.0240  179.5350  143.7200 C   0  0  0  0  0  1  0  0  0  0  0  0
  189.7230  179.3890  142.9510 C   0  0  0  0  0  2  0  0  0  0  0  0
  187.1310  178.7930  141.9940 C   0  0  0  0  0  2  0  0  0  0  0  0
  181.4820  178.9080  142.4120 C   0  0  0  0  0  2  0  0  0  0  0  0
  184.8790  178.8850  140.8690 C   0  0  0  0  0  2  0  0  0  0  0  0
  183.4590  178.5210  140.9610 N   0  0  0  0  0  2  0  0  0  0  0  0
  185.6740  178.3640  142.0830 C   0  0  2  0  0  3  0  0  0  0  0  0
  181.3480  178.9040  143.9280 C   0  0  0  0  0  2  0  0  0  0  0  0
  183.5840  178.3800  143.3250 N   0  0  1  0  0  0  0  0  0  0  0  0
  185.1760  180.2710  143.7170 C   0  0  0  0  0  1  0  0  0  0  0  0
  184.9950  178.7770  143.4110 C   0  0  2  0  0  3  0  0  0  0  0  0
  182.7700  178.7590  144.4680 C   0  0  0  0  0  2  0  0  0  0  0  0
  182.9640  179.0760  142.2130 C   0  0  2  0  0  3  0  0  0  0  0  0
  191.8280  177.1740  142.2410 C   0  0  0  0  0  2  0  0  0  0  0  0
  191.8160  177.0310  140.7860 N   0  0  0  0  0  0  0  0  0  0  0  0
  193.0170  177.6630  140.2540 C   0  0  0  0  0  2  0  0  0  0  0  0
  193.5330  176.8910  139.2130 O   0  0  0  0  0  1  0  0  0  0  0  0
  190.6820  177.6820  140.2580 N   0  0  0  0  0  2  0  0  0  0  0  0
  190.6580  174.7870  136.6410 C   0  0  0  0  0  0  0  0  0  0  0  0
  190.0470  177.4210  138.9930 C   0  0  0  0  0  0  0  0  0  0  0  0
  189.3560  178.3800  138.2500 C   0  0  0  0  0  3  0  0  0  0  0  0
  190.9580  175.0920  138.0970 C   0  0  0  0  0  2  0  0  0  0  0  0
  189.4340  176.4960  137.1020 N   0  0  0  0  0  0  0  0  0  0  0  0
  189.8110  175.6100  136.1020 N   0  0  0  0  0  0  0  0  0  0  0  0
  190.0640  176.2720  138.2320 C   0  0  0  0  0  0  0  0  0  0  0  0
  189.0240  177.7720  137.0340 C   0  0  0  0  0  3  0  0  0  0  0  0
  192.3840  173.1840  136.3310 F   0  0  0  0  0  0  0  0  0  0  0  0
  191.2280  173.7400  135.9260 O   0  0  0  0  0  0  0  0  0  0  0  0
  1  3  1  0  0  0  0
  2  1  2  0  0  0  0
  2  5  1  0  0  0  0
  3  4  2  0  0  0  0
  5  6  2  0  0  0  0
  6  4  1  0  0  0  0
  6  9  1  0  0  0  0
  7 15  1  1  0  0  0
  7 11  1  0  0  0  0
  7 10  1  0  0  0  0
 10  8  1  6  0  0  0
 10  1  1  0  0  0  0
 11 12  1  0  0  0  0
 11 14  1  1  0  0  0
 11 10  1  0  0  0  0
 12 26  1  1  0  0  0
 12  2  1  0  0  0  0
 14 13  1  0  0  0  0
 16 20  1  0  0  0  0
 17 18  1  0  0  0  0
 17 19  1  0  0  0  0
 18 25  1  0  0  0  0
 19 15  1  1  0  0  0
 19 23  1  0  0  0  0
 20 24  1  0  0  0  0
 21 23  1  0  0  0  0
 21 24  1  1  0  0  0
 23 22  1  6  0  0  0
 25 16  1  6  0  0  0
 25 21  1  0  0  0  0
 27 26  1  0  0  0  0
 28 27  1  0  0  0  0
 29 28  1  0  0  0  0
 30 27  1  0  0  0  0
 31 34  1  0  0  0  0
 32 30  1  0  0  0  0
 33 32  1  0  0  0  0
 34 37  1  0  0  0  0
 35 37  1  0  0  0  0
 36 31  2  0  0  0  0
 36 35  1  0  0  0  0
 37 32  2  0  0  0  0
 38 35  1  0  0  0  0
 38 33  2  0  0  0  0
 40 39  1  0  0  0  0
 40 31  1  0  0  0  0
M  END
>  <MODEL>
9

>  <REMARK>
 VINA RESULT:      -7.5      1.868      2.192
  Name = 
  9 active torsions:
  status: ('A' for Active; 'I' for Inactive)
    1  A    between atoms: C_4  and  O_33
    2  A    between atoms: C_9  and  N_21
    3  A    between atoms: C_11  and  C_32
    4  A    between atoms: C_12  and  N_19
    5  A    between atoms: C_15  and  C_37
    6  A    between atoms: N_19  and  N_21
    7  A    between atoms: N_19  and  C_35
    8  A    between atoms: C_23  and  C_32
    9  A    between atoms: C_35  and  C_38
                            x       y       z     vdW  Elec       q    Type
                         _______ _______ _______ _____ _____    ______ ____

>  <TORSDO>
F 9

$$$$
