=
 OpenBabel10232411163D

 33 38  0  0  1  0  0  0  0  0999 V2000
  189.9070  176.4750  135.7570 C   0  0  0  0  0  0  0  0  0  0  0  0
  186.8010  178.3580  139.1250 C   0  0  0  0  0  2  0  0  0  0  0  0
  188.8930  177.1280  139.4840 N   0  0  0  0  0  0  0  0  0  0  0  0
  189.3600  174.8680  137.4910 C   0  0  0  0  0  3  0  0  0  0  0  0
  187.3850  177.9800  136.3650 C   0  0  2  0  0  3  0  0  0  0  0  0
  190.4070  174.0490  137.0660 C   0  0  0  0  0  3  0  0  0  0  0  0
  187.9150  177.4230  138.6920 C   0  0  0  0  0  0  0  0  0  0  0  0
  184.7680  179.4230  138.4880 O   0  0  0  0  0  1  0  0  0  0  0  0
  191.1960  174.4320  135.9810 C   0  0  0  0  0  3  0  0  0  0  0  0
  189.0990  176.0920  136.8570 C   0  0  0  0  0  0  0  0  0  0  0  0
  190.9410  175.6380  135.3260 C   0  0  0  0  0  3  0  0  0  0  0  0
  189.6430  178.0080  134.8680 S   0  0  0  0  0  0  0  0  0  0  0  0
  184.7900  177.0640  138.4340 C   0  0  0  0  0  1  0  0  0  0  0  0
  187.8590  176.8560  137.2930 C   0  0  2  0  0  3  0  0  0  0  0  0
  185.9480  178.4010  136.6870 C   0  0  0  0  0  2  0  0  0  0  0  0
  187.5840  177.5770  134.6100 S   0  0  0  0  0  0  0  0  0  0  0  0
  185.5830  178.3340  138.1840 C   0  0  2  0  0  0  0  0  0  0  0  0
  187.9370  177.3170  142.9970 C   0  0  0  0  0  3  0  0  0  0  0  0
  187.8710  177.2020  141.6670 C   0  0  0  0  0  3  0  0  0  0  0  0
  191.2640  176.2010  140.8560 C   0  0  0  0  0  1  0  0  0  0  0  0
  189.0250  177.6600  140.8210 C   0  0  1  0  0  3  0  0  0  0  0  0
  190.3680  177.2610  141.4740 C   0  0  2  0  0  0  0  0  0  0  0  0
  191.1100  178.4030  142.1280 C   0  0  0  0  0  2  0  0  0  0  0  0
  190.4560  177.3370  143.0010 C   0  0  1  0  0  3  0  0  0  0  0  0
  189.1730  177.8990  143.6350 C   0  0  2  0  0  3  0  0  0  0  0  0
  189.1950  177.3010  147.8880 C   0  0  0  0  0  3  0  0  0  0  0  0
  189.1640  177.6950  145.1160 C   0  0  0  0  0  0  0  0  0  0  0  0
  190.3830  177.1900  147.1600 C   0  0  0  0  0  0  0  0  0  0  0  0
  190.3610  177.3890  145.7690 C   0  0  0  0  0  3  0  0  0  0  0  0
  187.9950  177.6070  147.2410 C   0  0  0  0  0  3  0  0  0  0  0  0
  187.9770  177.8040  145.8580 C   0  0  0  0  0  3  0  0  0  0  0  0
  191.5660  176.8820  147.8370 O   0  0  0  0  0  0  0  0  0  0  0  0
  192.3940  175.7850  147.4770 C   0  0  0  0  0  1  0  0  0  0  0  0
  1 10  1  0  0  0  0
  5 15  1  6  0  0  0
  5 14  1  0  0  0  0
  6  4  1  0  0  0  0
  7  2  1  0  0  0  0
  7  3  2  0  0  0  0
  9  6  2  0  0  0  0
 10  4  2  0  0  0  0
 11  1  2  0  0  0  0
 11  9  1  0  0  0  0
 12  1  1  0  0  0  0
 14 10  1  6  0  0  0
 14  7  1  0  0  0  0
 15 17  1  0  0  0  0
 16 12  1  0  0  0  0
 16  5  1  0  0  0  0
 17 13  1  1  0  0  0
 17  8  1  0  0  0  0
 17  2  1  0  0  0  0
 18 25  1  0  0  0  0
 19 18  2  0  0  0  0
 21  3  1  6  0  0  0
 21 22  1  0  0  0  0
 21 19  1  0  0  0  0
 22 20  1  6  0  0  0
 22 23  1  0  0  0  0
 22 24  1  0  0  0  0
 24 23  1  6  0  0  0
 24 25  1  0  0  0  0
 25 27  1  1  0  0  0
 27 29  2  0  0  0  0
 27 31  1  0  0  0  0
 28 32  1  0  0  0  0
 28 26  2  0  0  0  0
 29 28  1  0  0  0  0
 30 26  1  0  0  0  0
 31 30  2  0  0  0  0
 33 32  1  0  0  0  0
M  END
>  <MODEL>
1

>  <REMARK>
 VINA RESULT:      -6.8      0.000      0.000
  Name = 
  3 active torsions:
  status: ('A' for Active; 'I' for Inactive)
    1  A    between atoms: N_6  and  C_12
    2  A    between atoms: C_8  and  C_23
    3  A    between atoms: C_10  and  O_22
                            x       y       z     vdW  Elec       q    Type
                         _______ _______ _______ _____ _____    ______ ____

>  <TORSDO>
F 3

$$$$
=
 OpenBabel10232411163D

 33 38  0  0  1  0  0  0  0  0999 V2000
  183.6500  178.0280  137.7930 C   0  0  0  0  0  0  0  0  0  0  0  0
  187.8680  177.3670  140.3050 C   0  0  0  0  0  2  0  0  0  0  0  0
  185.6680  178.0460  141.1510 N   0  0  0  0  0  0  0  0  0  0  0  0
  184.1320  179.8910  139.2700 C   0  0  0  0  0  3  0  0  0  0  0  0
  186.5580  177.2960  137.7790 C   0  0  2  0  0  3  0  0  0  0  0  0
  182.8290  180.3640  139.1030 C   0  0  0  0  0  3  0  0  0  0  0  0
  186.4690  177.9340  140.1440 C   0  0  0  0  0  0  0  0  0  0  0  0
  189.9010  176.8040  139.2010 O   0  0  0  0  0  1  0  0  0  0  0  0
  181.9400  179.6810  138.2740 C   0  0  0  0  0  3  0  0  0  0  0  0
  184.5600  178.7180  138.6330 C   0  0  0  0  0  0  0  0  0  0  0  0
  182.3530  178.5200  137.6170 C   0  0  0  0  0  3  0  0  0  0  0  0
  184.1050  176.5310  136.9200 S   0  0  0  0  0  0  0  0  0  0  0  0
  189.2170  179.0590  139.0730 C   0  0  0  0  0  1  0  0  0  0  0  0
  186.0300  178.3490  138.7590 C   0  0  2  0  0  3  0  0  0  0  0  0
  188.0890  177.2950  137.7320 C   0  0  0  0  0  2  0  0  0  0  0  0
  185.8420  177.4500  136.1230 S   0  0  0  0  0  0  0  0  0  0  0  0
  188.7700  177.6080  139.0810 C   0  0  2  0  0  0  0  0  0  0  0  0
  188.0610  177.4530  143.8360 C   0  0  0  0  0  3  0  0  0  0  0  0
  187.5040  177.5200  142.6230 C   0  0  0  0  0  3  0  0  0  0  0  0
  184.8760  179.9630  143.1660 C   0  0  0  0  0  1  0  0  0  0  0  0
  186.0120  177.6400  142.4940 C   0  0  1  0  0  3  0  0  0  0  0  0
  185.4520  178.6130  143.5560 C   0  0  2  0  0  0  0  0  0  0  0  0
  184.7450  177.9410  144.7110 C   0  0  0  0  0  2  0  0  0  0  0  0
  186.1050  178.5920  144.9420 C   0  0  1  0  0  3  0  0  0  0  0  0
  187.1870  177.5060  145.0630 C   0  0  2  0  0  3  0  0  0  0  0  0
  189.5720  178.0090  148.5990 C   0  0  0  0  0  3  0  0  0  0  0  0
  188.0040  177.6880  146.3010 C   0  0  0  0  0  0  0  0  0  0  0  0
  190.1410  177.4680  147.4430 C   0  0  0  0  0  0  0  0  0  0  0  0
  189.3490  177.3100  146.2940 C   0  0  0  0  0  3  0  0  0  0  0  0
  188.2280  178.3890  148.6140 C   0  0  0  0  0  3  0  0  0  0  0  0
  187.4430  178.2300  147.4690 C   0  0  0  0  0  3  0  0  0  0  0  0
  191.4880  177.0970  147.4610 O   0  0  0  0  0  0  0  0  0  0  0  0
  191.9110  175.7400  147.4420 C   0  0  0  0  0  1  0  0  0  0  0  0
  1 10  1  0  0  0  0
  5 15  1  6  0  0  0
  5 14  1  0  0  0  0
  6  4  1  0  0  0  0
  7  2  1  0  0  0  0
  7  3  2  0  0  0  0
  9  6  2  0  0  0  0
 10  4  2  0  0  0  0
 11  1  2  0  0  0  0
 11  9  1  0  0  0  0
 12  1  1  0  0  0  0
 14 10  1  1  0  0  0
 14  7  1  0  0  0  0
 15 17  1  0  0  0  0
 16 12  1  0  0  0  0
 16  5  1  0  0  0  0
 17 13  1  6  0  0  0
 17  8  1  0  0  0  0
 17  2  1  0  0  0  0
 18 25  1  0  0  0  0
 19 18  2  0  0  0  0
 21  3  1  6  0  0  0
 21 19  1  0  0  0  0
 21 22  1  0  0  0  0
 22 20  1  6  0  0  0
 22 23  1  0  0  0  0
 22 24  1  0  0  0  0
 24 23  1  1  0  0  0
 24 25  1  0  0  0  0
 25 27  1  1  0  0  0
 26 30  1  0  0  0  0
 27 31  1  0  0  0  0
 28 32  1  0  0  0  0
 28 26  2  0  0  0  0
 29 27  2  0  0  0  0
 29 28  1  0  0  0  0
 31 30  2  0  0  0  0
 33 32  1  0  0  0  0
M  END
>  <MODEL>
2

>  <REMARK>
 VINA RESULT:      -6.7      2.473      4.875
  Name = 
  3 active torsions:
  status: ('A' for Active; 'I' for Inactive)
    1  A    between atoms: N_6  and  C_12
    2  A    between atoms: C_8  and  C_23
    3  A    between atoms: C_10  and  O_22
                            x       y       z     vdW  Elec       q    Type
                         _______ _______ _______ _____ _____    ______ ____

>  <TORSDO>
F 3

$$$$
=
 OpenBabel10232411163D

 33 38  0  0  1  0  0  0  0  0999 V2000
  189.2100  176.2790  135.6100 C   0  0  0  0  0  0  0  0  0  0  0  0
  186.8920  178.4200  139.4280 C   0  0  0  0  0  2  0  0  0  0  0  0
  188.8370  176.9270  139.4560 N   0  0  0  0  0  0  0  0  0  0  0  0
  188.7170  174.6950  137.3810 C   0  0  0  0  0  3  0  0  0  0  0  0
  187.0170  178.0660  136.6070 C   0  0  2  0  0  3  0  0  0  0  0  0
  189.5780  173.7660  136.7940 C   0  0  0  0  0  3  0  0  0  0  0  0
  187.8020  177.3680  138.8220 C   0  0  0  0  0  0  0  0  0  0  0  0
  184.9420  179.7510  139.1150 O   0  0  0  0  0  1  0  0  0  0  0  0
  190.2450  174.0850  135.6110 C   0  0  0  0  0  3  0  0  0  0  0  0
  188.5270  175.9630  136.8110 C   0  0  0  0  0  0  0  0  0  0  0  0
  190.0550  175.3350  135.0190 C   0  0  0  0  0  3  0  0  0  0  0  0
  189.0200  177.8630  134.7940 S   0  0  0  0  0  0  0  0  0  0  0  0
  184.6520  177.4110  139.0220 C   0  0  0  0  0  1  0  0  0  0  0  0
  187.4710  176.8610  137.4380 C   0  0  2  0  0  3  0  0  0  0  0  0
  185.7080  178.6510  137.1440 C   0  0  0  0  0  2  0  0  0  0  0  0
  186.9070  177.7020  134.8360 S   0  0  0  0  0  0  0  0  0  0  0  0
  185.5570  178.5800  138.6770 C   0  0  2  0  0  0  0  0  0  0  0  0
  188.7840  176.7520  143.0970 C   0  0  0  0  0  3  0  0  0  0  0  0
  188.4010  176.7070  141.8170 C   0  0  0  0  0  3  0  0  0  0  0  0
  191.5830  176.3060  140.1200 C   0  0  0  0  0  1  0  0  0  0  0  0
  189.2280  177.3920  140.7670 C   0  0  1  0  0  3  0  0  0  0  0  0
  190.7340  177.1720  141.0350 C   0  0  2  0  0  0  0  0  0  0  0  0
  191.4520  178.3760  141.5990 C   0  0  0  0  0  2  0  0  0  0  0  0
  191.1940  177.1700  142.4960 C   0  0  1  0  0  3  0  0  0  0  0  0
  190.0480  177.4830  143.4720 C   0  0  2  0  0  3  0  0  0  0  0  0
  191.1430  176.6750  147.5460 C   0  0  0  0  0  3  0  0  0  0  0  0
  190.4420  177.1920  144.8840 C   0  0  0  0  0  0  0  0  0  0  0  0
  189.9890  177.4140  147.2650 C   0  0  0  0  0  0  0  0  0  0  0  0
  189.6430  177.6700  145.9280 C   0  0  0  0  0  3  0  0  0  0  0  0
  191.9450  176.1950  146.5080 C   0  0  0  0  0  3  0  0  0  0  0  0
  191.5980  176.4520  145.1790 C   0  0  0  0  0  3  0  0  0  0  0  0
  189.2080  177.8800  148.3260 O   0  0  0  0  0  0  0  0  0  0  0  0
  187.7870  177.8590  148.3000 C   0  0  0  0  0  1  0  0  0  0  0  0
  1 10  1  0  0  0  0
  5 15  1  1  0  0  0
  5 14  1  0  0  0  0
  6  4  1  0  0  0  0
  7  2  1  0  0  0  0
  7  3  2  0  0  0  0
  9  6  2  0  0  0  0
 10  4  2  0  0  0  0
 11  1  2  0  0  0  0
 11  9  1  0  0  0  0
 12 16  1  0  0  0  0
 12  1  1  0  0  0  0
 14 10  1  6  0  0  0
 14  7  1  0  0  0  0
 15 17  1  0  0  0  0
 16  5  1  0  0  0  0
 17 13  1  1  0  0  0
 17  8  1  0  0  0  0
 17  2  1  0  0  0  0
 18 25  1  0  0  0  0
 19 18  2  0  0  0  0
 21  3  1  6  0  0  0
 21 22  1  0  0  0  0
 21 19  1  0  0  0  0
 22 20  1  6  0  0  0
 22 23  1  0  0  0  0
 22 24  1  0  0  0  0
 24 23  1  6  0  0  0
 24 25  1  0  0  0  0
 25 27  1  1  0  0  0
 27 31  2  0  0  0  0
 27 29  1  0  0  0  0
 28 26  1  0  0  0  0
 28 32  1  0  0  0  0
 29 28  2  0  0  0  0
 30 26  2  0  0  0  0
 31 30  1  0  0  0  0
 33 32  1  0  0  0  0
M  END
>  <MODEL>
3

>  <REMARK>
 VINA RESULT:      -6.6      0.902      1.614
  Name = 
  3 active torsions:
  status: ('A' for Active; 'I' for Inactive)
    1  A    between atoms: N_6  and  C_12
    2  A    between atoms: C_8  and  C_23
    3  A    between atoms: C_10  and  O_22
                            x       y       z     vdW  Elec       q    Type
                         _______ _______ _______ _____ _____    ______ ____

>  <TORSDO>
F 3

$$$$
=
 OpenBabel10232411163D

 33 38  0  0  1  0  0  0  0  0999 V2000
  181.5580  176.3330  137.0940 C   0  0  0  0  0  0  0  0  0  0  0  0
  182.2610  180.6670  139.3870 C   0  0  0  0  0  2  0  0  0  0  0  0
  182.4410  178.4000  140.3030 N   0  0  0  0  0  0  0  0  0  0  0  0
  180.3690  176.4500  139.2060 C   0  0  0  0  0  3  0  0  0  0  0  0
  181.6050  179.3290  136.9630 C   0  0  2  0  0  3  0  0  0  0  0  0
  180.1500  175.0720  139.1620 C   0  0  0  0  0  3  0  0  0  0  0  0
  181.9800  179.1760  139.3790 C   0  0  0  0  0  0  0  0  0  0  0  0
  181.9100  182.7400  138.2680 O   0  0  0  0  0  1  0  0  0  0  0  0
  180.6210  174.3250  138.0830 C   0  0  0  0  0  3  0  0  0  0  0  0
  181.0800  177.1000  138.1870 C   0  0  0  0  0  0  0  0  0  0  0  0
  181.3170  174.9570  137.0500 C   0  0  0  0  0  3  0  0  0  0  0  0
  182.4610  177.0710  135.7340 S   0  0  0  0  0  0  0  0  0  0  0  0
  179.9820  181.5880  138.9910 C   0  0  0  0  0  1  0  0  0  0  0  0
  181.1560  178.6180  138.2430 C   0  0  2  0  0  3  0  0  0  0  0  0
  181.2690  180.8220  137.0070 C   0  0  0  0  0  2  0  0  0  0  0  0
  180.9650  178.5470  135.4590 S   0  0  0  0  0  0  0  0  0  0  0  0
  181.3770  181.4610  138.4070 C   0  0  2  0  0  0  0  0  0  0  0  0
  183.4490  178.4130  143.8070 C   0  0  0  0  0  3  0  0  0  0  0  0
  182.7000  178.3660  142.7000 C   0  0  0  0  0  3  0  0  0  0  0  0
  185.1520  177.3970  140.2070 C   0  0  0  0  0  1  0  0  0  0  0  0
  183.2620  178.8630  141.3990 C   0  0  1  0  0  3  0  0  0  0  0  0
  184.7370  178.4270  141.2430 C   0  0  2  0  0  0  0  0  0  0  0  0
  185.7430  179.5330  141.4650 C   0  0  0  0  0  2  0  0  0  0  0  0
  185.6050  178.4260  142.5050 C   0  0  1  0  0  3  0  0  0  0  0  0
  184.8520  178.9590  143.7350 C   0  0  2  0  0  3  0  0  0  0  0  0
  187.0500  178.1350  147.3320 C   0  0  0  0  0  3  0  0  0  0  0  0
  185.6050  178.6810  144.9960 C   0  0  0  0  0  0  0  0  0  0  0  0
  187.5830  177.7770  146.0890 C   0  0  0  0  0  0  0  0  0  0  0  0
  186.8520  178.0540  144.9220 C   0  0  0  0  0  3  0  0  0  0  0  0
  185.8050  178.7620  147.4140 C   0  0  0  0  0  3  0  0  0  0  0  0
  185.0820  179.0350  146.2490 C   0  0  0  0  0  3  0  0  0  0  0  0
  188.8310  177.1510  146.0420 O   0  0  0  0  0  0  0  0  0  0  0  0
  189.8420  177.3810  147.0150 C   0  0  0  0  0  1  0  0  0  0  0  0
  1 10  1  0  0  0  0
  5 15  1  1  0  0  0
  5 14  1  0  0  0  0
  6  4  1  0  0  0  0
  7  2  1  0  0  0  0
  7  3  2  0  0  0  0
  8 17  1  0  0  0  0
  9  6  2  0  0  0  0
 10  4  2  0  0  0  0
 11  1  2  0  0  0  0
 11  9  1  0  0  0  0
 12  1  1  0  0  0  0
 14 10  1  6  0  0  0
 14  7  1  0  0  0  0
 15 17  1  0  0  0  0
 16 12  1  0  0  0  0
 16  5  1  0  0  0  0
 17 13  1  1  0  0  0
 17  2  1  0  0  0  0
 19 18  2  0  0  0  0
 21  3  1  6  0  0  0
 21 19  1  0  0  0  0
 22 20  1  6  0  0  0
 22 21  1  0  0  0  0
 22 23  1  0  0  0  0
 22 24  1  0  0  0  0
 24 23  1  6  0  0  0
 24 25  1  0  0  0  0
 25 18  1  0  0  0  0
 25 27  1  1  0  0  0
 26 30  1  0  0  0  0
 27 31  1  0  0  0  0
 28 26  2  0  0  0  0
 29 27  2  0  0  0  0
 29 28  1  0  0  0  0
 31 30  2  0  0  0  0
 32 28  1  0  0  0  0
 32 33  1  0  0  0  0
M  END
>  <MODEL>
4

>  <REMARK>
 VINA RESULT:      -6.6      4.481      6.204
  Name = 
  3 active torsions:
  status: ('A' for Active; 'I' for Inactive)
    1  A    between atoms: N_6  and  C_12
    2  A    between atoms: C_8  and  C_23
    3  A    between atoms: C_10  and  O_22
                            x       y       z     vdW  Elec       q    Type
                         _______ _______ _______ _____ _____    ______ ____

>  <TORSDO>
F 3

$$$$
=
 OpenBabel10232411163D

 33 38  0  0  1  0  0  0  0  0999 V2000
  189.0380  176.5680  136.2570 C   0  0  0  0  0  0  0  0  0  0  0  0
  191.8970  176.5440  140.3030 C   0  0  0  0  0  2  0  0  0  0  0  0
  189.4950  177.0040  140.1240 N   0  0  0  0  0  0  0  0  0  0  0  0
  188.7120  178.5520  137.6160 C   0  0  0  0  0  3  0  0  0  0  0  0
  191.7480  176.1830  137.4840 C   0  0  2  0  0  3  0  0  0  0  0  0
  187.5570  178.8590  136.8940 C   0  0  0  0  0  3  0  0  0  0  0  0
  190.6450  176.9320  139.5390 C   0  0  0  0  0  0  0  0  0  0  0  0
  194.2440  176.1640  140.1680 O   0  0  0  0  0  1  0  0  0  0  0  0
  187.1480  178.0330  135.8480 C   0  0  0  0  0  3  0  0  0  0  0  0
  189.4630  177.4050  137.3210 C   0  0  0  0  0  0  0  0  0  0  0  0
  187.8910  176.8950  135.5280 C   0  0  0  0  0  3  0  0  0  0  0  0
  189.9370  175.0900  135.7900 S   0  0  0  0  0  0  0  0  0  0  0  0
  193.4830  178.3120  139.5590 C   0  0  0  0  0  1  0  0  0  0  0  0
  190.7770  177.2180  138.0620 C   0  0  2  0  0  3  0  0  0  0  0  0
  193.1580  176.3590  138.0550 C   0  0  0  0  0  2  0  0  0  0  0  0
  191.7630  176.1620  135.6720 S   0  0  0  0  0  0  0  0  0  0  0  0
  193.1970  176.8220  139.5270 C   0  0  2  0  0  0  0  0  0  0  0  0
  190.5730  176.9640  143.6060 C   0  0  0  0  0  3  0  0  0  0  0  0
  190.5840  176.8840  142.2720 C   0  0  0  0  0  3  0  0  0  0  0  0
  187.6260  178.8000  141.4070 C   0  0  0  0  0  1  0  0  0  0  0  0
  189.2920  176.7140  141.5250 C   0  0  1  0  0  3  0  0  0  0  0  0
  188.1860  177.5970  142.1460 C   0  0  2  0  0  0  0  0  0  0  0  0
  187.1700  176.8410  142.9700 C   0  0  0  0  0  2  0  0  0  0  0  0
  188.1790  177.7450  143.6700 C   0  0  1  0  0  3  0  0  0  0  0  0
  189.2620  176.8880  144.3470 C   0  0  2  0  0  3  0  0  0  0  0  0
  189.7920  177.9410  148.4770 C   0  0  0  0  0  3  0  0  0  0  0  0
  189.4310  177.2630  145.7840 C   0  0  0  0  0  0  0  0  0  0  0  0
  190.8160  177.2880  147.7850 C   0  0  0  0  0  0  0  0  0  0  0  0
  190.6290  176.9500  146.4340 C   0  0  0  0  0  3  0  0  0  0  0  0
  188.5930  178.2570  147.8340 C   0  0  0  0  0  3  0  0  0  0  0  0
  188.4100  177.9190  146.4900 C   0  0  0  0  0  3  0  0  0  0  0  0
  192.0030  176.9870  148.4580 O   0  0  0  0  0  0  0  0  0  0  0  0
  192.7320  175.7880  148.2300 C   0  0  0  0  0  1  0  0  0  0  0  0
  1 10  1  0  0  0  0
  5 15  1  6  0  0  0
  5 14  1  0  0  0  0
  6  4  1  0  0  0  0
  7  3  2  0  0  0  0
  7  2  1  0  0  0  0
  9  6  2  0  0  0  0
 10  4  2  0  0  0  0
 11  9  1  0  0  0  0
 11  1  2  0  0  0  0
 12  1  1  0  0  0  0
 14 10  1  6  0  0  0
 14  7  1  0  0  0  0
 15 17  1  0  0  0  0
 16 12  1  0  0  0  0
 16  5  1  0  0  0  0
 17 13  1  1  0  0  0
 17  8  1  0  0  0  0
 17  2  1  0  0  0  0
 18 25  1  0  0  0  0
 19 18  2  0  0  0  0
 21  3  1  6  0  0  0
 21 22  1  0  0  0  0
 21 19  1  0  0  0  0
 22 20  1  6  0  0  0
 22 23  1  0  0  0  0
 22 24  1  0  0  0  0
 24 23  1  1  0  0  0
 24 25  1  0  0  0  0
 25 27  1  1  0  0  0
 27 29  2  0  0  0  0
 27 31  1  0  0  0  0
 28 32  1  0  0  0  0
 28 26  2  0  0  0  0
 29 28  1  0  0  0  0
 30 26  1  0  0  0  0
 31 30  2  0  0  0  0
 33 32  1  0  0  0  0
M  END
>  <MODEL>
5

>  <REMARK>
 VINA RESULT:      -6.4      2.441      4.147
  Name = 
  3 active torsions:
  status: ('A' for Active; 'I' for Inactive)
    1  A    between atoms: N_6  and  C_12
    2  A    between atoms: C_8  and  C_23
    3  A    between atoms: C_10  and  O_22
                            x       y       z     vdW  Elec       q    Type
                         _______ _______ _______ _____ _____    ______ ____

>  <TORSDO>
F 3

$$$$
=
 OpenBabel10232411163D

 33 38  0  0  1  0  0  0  0  0999 V2000
  188.1280  177.3710  135.8220 C   0  0  0  0  0  0  0  0  0  0  0  0
  191.5810  175.6670  138.9380 C   0  0  0  0  0  2  0  0  0  0  0  0
  189.5780  176.9900  139.4410 N   0  0  0  0  0  0  0  0  0  0  0  0
  188.9200  179.0950  137.3340 C   0  0  0  0  0  3  0  0  0  0  0  0
  190.6710  175.8390  136.2470 C   0  0  2  0  0  3  0  0  0  0  0  0
  187.8470  179.9110  136.9710 C   0  0  0  0  0  3  0  0  0  0  0  0
  190.4440  176.6000  138.5650 C   0  0  0  0  0  0  0  0  0  0  0  0
  193.4960  174.4880  138.1530 O   0  0  0  0  0  1  0  0  0  0  0  0
  186.9230  179.4660  136.0260 C   0  0  0  0  0  3  0  0  0  0  0  0
  189.0740  177.8160  136.7800 C   0  0  0  0  0  0  0  0  0  0  0  0
  187.0680  178.2030  135.4500 C   0  0  0  0  0  3  0  0  0  0  0  0
  188.2460  175.7620  135.0410 S   0  0  0  0  0  0  0  0  0  0  0  0
  193.5210  176.8350  137.9020 C   0  0  0  0  0  1  0  0  0  0  0  0
  190.3410  177.0490  137.1270 C   0  0  2  0  0  3  0  0  0  0  0  0
  192.1270  175.3980  136.4270 C   0  0  0  0  0  2  0  0  0  0  0  0
  190.2670  176.1030  134.5010 S   0  0  0  0  0  0  0  0  0  0  0  0
  192.6750  175.5750  137.8580 C   0  0  2  0  0  0  0  0  0  0  0  0
  191.1920  176.6600  142.6930 C   0  0  0  0  0  3  0  0  0  0  0  0
  190.9930  176.6990  141.3720 C   0  0  0  0  0  3  0  0  0  0  0  0
  187.9320  178.6350  141.1580 C   0  0  0  0  0  1  0  0  0  0  0  0
  189.6000  176.5740  140.8250 C   0  0  1  0  0  3  0  0  0  0  0  0
  188.6030  177.3800  141.6890 C   0  0  2  0  0  0  0  0  0  0  0  0
  187.7320  176.5380  142.5910 C   0  0  0  0  0  2  0  0  0  0  0  0
  188.8370  177.3930  143.2020 C   0  0  1  0  0  3  0  0  0  0  0  0
  190.0150  176.4980  143.6210 C   0  0  2  0  0  3  0  0  0  0  0  0
  191.1050  177.2390  147.7090 C   0  0  0  0  0  3  0  0  0  0  0  0
  190.4090  176.7470  145.0420 C   0  0  0  0  0  0  0  0  0  0  0  0
  189.8780  177.6980  147.2170 C   0  0  0  0  0  0  0  0  0  0  0  0
  189.5350  177.4480  145.8790 C   0  0  0  0  0  3  0  0  0  0  0  0
  191.9820  176.5390  146.8780 C   0  0  0  0  0  3  0  0  0  0  0  0
  191.6370  176.2920  145.5460 C   0  0  0  0  0  3  0  0  0  0  0  0
  189.0240  178.3960  148.0750 O   0  0  0  0  0  0  0  0  0  0  0  0
  187.8570  177.8130  148.6380 C   0  0  0  0  0  1  0  0  0  0  0  0
  1 10  1  0  0  0  0
  5 15  1  6  0  0  0
  5 14  1  0  0  0  0
  6  4  1  0  0  0  0
  7  2  1  0  0  0  0
  7  3  2  0  0  0  0
  9  6  2  0  0  0  0
 10  4  2  0  0  0  0
 11  1  2  0  0  0  0
 11  9  1  0  0  0  0
 12  1  1  0  0  0  0
 14 10  1  6  0  0  0
 14  7  1  0  0  0  0
 15 17  1  0  0  0  0
 16 12  1  0  0  0  0
 16  5  1  0  0  0  0
 17 13  1  1  0  0  0
 17  8  1  0  0  0  0
 17  2  1  0  0  0  0
 18 25  1  0  0  0  0
 19 18  2  0  0  0  0
 21  3  1  6  0  0  0
 21 19  1  0  0  0  0
 21 22  1  0  0  0  0
 22 20  1  6  0  0  0
 22 23  1  0  0  0  0
 22 24  1  0  0  0  0
 24 23  1  1  0  0  0
 24 25  1  0  0  0  0
 25 27  1  1  0  0  0
 27 31  2  0  0  0  0
 27 29  1  0  0  0  0
 28 26  1  0  0  0  0
 28 32  1  0  0  0  0
 29 28  2  0  0  0  0
 30 26  2  0  0  0  0
 31 30  1  0  0  0  0
 32 33  1  0  0  0  0
M  END
>  <MODEL>
6

>  <REMARK>
 VINA RESULT:      -6.3      2.400      4.362
  Name = 
  3 active torsions:
  status: ('A' for Active; 'I' for Inactive)
    1  A    between atoms: N_6  and  C_12
    2  A    between atoms: C_8  and  C_23
    3  A    between atoms: C_10  and  O_22
                            x       y       z     vdW  Elec       q    Type
                         _______ _______ _______ _____ _____    ______ ____

>  <TORSDO>
F 3

$$$$
=
 OpenBabel10232411163D

 33 38  0  0  1  0  0  0  0  0999 V2000
  186.6190  174.2410  135.4240 C   0  0  0  0  0  0  0  0  0  0  0  0
  189.8260  177.3090  137.6250 C   0  0  0  0  0  2  0  0  0  0  0  0
  190.2400  175.0980  136.6490 N   0  0  0  0  0  0  0  0  0  0  0  0
  187.9740  173.1050  137.0850 C   0  0  0  0  0  3  0  0  0  0  0  0
  187.1410  176.8560  136.7980 C   0  0  2  0  0  3  0  0  0  0  0  0
  187.5560  171.8700  136.5850 C   0  0  0  0  0  3  0  0  0  0  0  0
  189.3900  175.9420  137.1310 C   0  0  0  0  0  0  0  0  0  0  0  0
  189.1190  179.3700  138.5870 O   0  0  0  0  0  1  0  0  0  0  0  0
  186.6630  171.8180  135.5150 C   0  0  0  0  0  3  0  0  0  0  0  0
  187.5260  174.3040  136.5120 C   0  0  0  0  0  0  0  0  0  0  0  0
  186.1920  173.0010  134.9420 C   0  0  0  0  0  3  0  0  0  0  0  0
  185.9740  175.7160  134.6350 S   0  0  0  0  0  0  0  0  0  0  0  0
  188.6730  177.4140  139.8290 C   0  0  0  0  0  1  0  0  0  0  0  0
  187.9200  175.6000  137.2020 C   0  0  2  0  0  3  0  0  0  0  0  0
  187.3400  177.9870  137.8110 C   0  0  0  0  0  2  0  0  0  0  0  0
  185.3840  176.5310  136.5000 S   0  0  0  0  0  0  0  0  0  0  0  0
  188.7450  178.0360  138.4460 C   0  0  2  0  0  0  0  0  0  0  0  0
  193.7170  174.6890  137.6680 C   0  0  0  0  0  3  0  0  0  0  0  0
  192.3870  174.8190  137.7110 C   0  0  0  0  0  3  0  0  0  0  0  0
  191.4510  173.8350  134.3460 C   0  0  0  0  0  1  0  0  0  0  0  0
  191.6540  175.3720  136.5230 C   0  0  1  0  0  3  0  0  0  0  0  0
  192.2400  174.8040  135.2110 C   0  0  2  0  0  0  0  0  0  0  0  0
  193.1000  175.7750  134.4370 C   0  0  0  0  0  2  0  0  0  0  0  0
  193.7570  174.5980  135.1510 C   0  0  1  0  0  3  0  0  0  0  0  0
  194.4660  175.0920  136.4230 C   0  0  2  0  0  3  0  0  0  0  0  0
  198.5490  173.7710  136.6010 C   0  0  0  0  0  3  0  0  0  0  0  0
  195.8850  174.6230  136.4700 C   0  0  0  0  0  0  0  0  0  0  0  0
  198.0120  174.5270  137.6480 C   0  0  0  0  0  0  0  0  0  0  0  0
  196.6750  174.9510  137.5760 C   0  0  0  0  0  3  0  0  0  0  0  0
  197.7650  173.4400  135.4930 C   0  0  0  0  0  3  0  0  0  0  0  0
  196.4350  173.8640  135.4260 C   0  0  0  0  0  3  0  0  0  0  0  0
  198.8230  174.8420  138.7410 O   0  0  0  0  0  0  0  0  0  0  0  0
  198.2970  175.2890  139.9830 C   0  0  0  0  0  1  0  0  0  0  0  0
  1 10  1  0  0  0  0
  2 17  1  0  0  0  0
  3  7  2  0  0  0  0
  5 14  1  0  0  0  0
  5 15  1  1  0  0  0
  6  4  1  0  0  0  0
  7 14  1  0  0  0  0
  7  2  1  0  0  0  0
  9  6  2  0  0  0  0
 10  4  2  0  0  0  0
 11  1  2  0  0  0  0
 11  9  1  0  0  0  0
 12  1  1  0  0  0  0
 12 16  1  0  0  0  0
 14 10  1  6  0  0  0
 15 17  1  0  0  0  0
 16  5  1  0  0  0  0
 17  8  1  0  0  0  0
 17 13  1  1  0  0  0
 18 19  2  0  0  0  0
 21  3  1  1  0  0  0
 21 19  1  0  0  0  0
 22 20  1  6  0  0  0
 22 21  1  0  0  0  0
 23 22  1  0  0  0  0
 24 23  1  6  0  0  0
 24 22  1  0  0  0  0
 24 25  1  0  0  0  0
 25 27  1  1  0  0  0
 25 18  1  0  0  0  0
 26 28  1  0  0  0  0
 27 29  1  0  0  0  0
 28 32  1  0  0  0  0
 29 28  2  0  0  0  0
 30 26  2  0  0  0  0
 31 30  1  0  0  0  0
 31 27  2  0  0  0  0
 32 33  1  0  0  0  0
M  END
>  <MODEL>
7

>  <REMARK>
 VINA RESULT:      -6.1      4.311      7.766
  Name = 
  3 active torsions:
  status: ('A' for Active; 'I' for Inactive)
    1  A    between atoms: N_6  and  C_12
    2  A    between atoms: C_8  and  C_23
    3  A    between atoms: C_10  and  O_22
                            x       y       z     vdW  Elec       q    Type
                         _______ _______ _______ _____ _____    ______ ____

>  <TORSDO>
F 3

$$$$
=
 OpenBabel10232411163D

 33 38  0  0  1  0  0  0  0  0999 V2000
  197.7290  173.7350  137.1490 C   0  0  0  0  0  0  0  0  0  0  0  0
  193.6040  171.5280  135.5230 C   0  0  0  0  0  2  0  0  0  0  0  0
  193.8360  173.6560  136.7190 N   0  0  0  0  0  0  0  0  0  0  0  0
  196.0090  173.6460  138.8580 C   0  0  0  0  0  3  0  0  0  0  0  0
  196.4390  171.4230  135.7400 C   0  0  2  0  0  3  0  0  0  0  0  0
  196.7230  174.5660  139.6280 C   0  0  0  0  0  3  0  0  0  0  0  0
  194.3480  172.5120  136.4060 C   0  0  0  0  0  0  0  0  0  0  0  0
  193.6640  169.3900  134.4760 O   0  0  0  0  0  1  0  0  0  0  0  0
  197.9430  175.0620  139.1690 C   0  0  0  0  0  3  0  0  0  0  0  0
  196.4890  173.2250  137.6090 C   0  0  0  0  0  0  0  0  0  0  0  0
  198.4460  174.6420  137.9360 C   0  0  0  0  0  3  0  0  0  0  0  0
  198.4370  173.2460  135.5770 S   0  0  0  0  0  0  0  0  0  0  0  0
  193.8570  169.4230  136.8270 C   0  0  0  0  0  1  0  0  0  0  0  0
  195.7210  172.1210  136.8990 C   0  0  2  0  0  3  0  0  0  0  0  0
  195.7540  170.1040  135.3720 C   0  0  0  0  0  2  0  0  0  0  0  0
  198.2100  171.1900  136.0430 S   0  0  0  0  0  0  0  0  0  0  0  0
  194.2190  170.1160  135.5260 C   0  0  2  0  0  0  0  0  0  0  0  0
  190.3430  174.5520  137.2530 C   0  0  0  0  0  3  0  0  0  0  0  0
  191.5240  173.9340  137.3460 C   0  0  0  0  0  3  0  0  0  0  0  0
  193.7730  176.4690  136.0490 C   0  0  0  0  0  1  0  0  0  0  0  0
  192.5430  174.1060  136.2560 C   0  0  1  0  0  3  0  0  0  0  0  0
  192.5780  175.5730  135.7730 C   0  0  2  0  0  0  0  0  0  0  0  0
  191.9170  175.8090  134.4350 C   0  0  0  0  0  2  0  0  0  0  0  0
  191.2430  176.3220  135.7040 C   0  0  1  0  0  3  0  0  0  0  0  0
  190.0480  175.4210  136.0580 C   0  0  2  0  0  3  0  0  0  0  0  0
  186.4930  177.7430  136.7070 C   0  0  0  0  0  3  0  0  0  0  0  0
  188.8050  176.2260  136.2680 C   0  0  0  0  0  0  0  0  0  0  0  0
  187.4910  177.7020  137.6870 C   0  0  0  0  0  0  0  0  0  0  0  0
  188.6480  176.9390  137.4600 C   0  0  0  0  0  3  0  0  0  0  0  0
  186.6450  177.0340  135.5140 C   0  0  0  0  0  3  0  0  0  0  0  0
  187.7970  176.2750  135.2920 C   0  0  0  0  0  3  0  0  0  0  0  0
  187.3080  178.4230  138.8690 O   0  0  0  0  0  0  0  0  0  0  0  0
  188.2150  178.3490  139.9620 C   0  0  0  0  0  1  0  0  0  0  0  0
  1 10  2  0  0  0  0
  1 11  1  0  0  0  0
  2 17  1  0  0  0  0
  2  7  1  0  0  0  0
  4  6  2  0  0  0  0
  5 15  1  1  0  0  0
  5 16  1  0  0  0  0
  5 14  1  0  0  0  0
  7  3  2  0  0  0  0
  8 17  1  0  0  0  0
  9  6  1  0  0  0  0
 10  4  1  0  0  0  0
 11  9  2  0  0  0  0
 12 16  1  0  0  0  0
 12  1  1  0  0  0  0
 14  7  1  6  0  0  0
 14 10  1  0  0  0  0
 15 17  1  0  0  0  0
 17 13  1  1  0  0  0
 18 19  2  0  0  0  0
 21  3  1  1  0  0  0
 21 19  1  0  0  0  0
 22 20  1  1  0  0  0
 22 21  1  0  0  0  0
 23 22  1  0  0  0  0
 24 23  1  6  0  0  0
 24 22  1  0  0  0  0
 24 25  1  0  0  0  0
 25 27  1  1  0  0  0
 25 18  1  0  0  0  0
 26 28  1  0  0  0  0
 27 29  1  0  0  0  0
 28 32  1  0  0  0  0
 29 28  2  0  0  0  0
 30 26  2  0  0  0  0
 31 30  1  0  0  0  0
 31 27  2  0  0  0  0
 32 33  1  0  0  0  0
M  END
>  <MODEL>
8

>  <REMARK>
 VINA RESULT:      -5.8      5.337      9.374
  Name = 
  3 active torsions:
  status: ('A' for Active; 'I' for Inactive)
    1  A    between atoms: N_6  and  C_12
    2  A    between atoms: C_8  and  C_23
    3  A    between atoms: C_10  and  O_22
                            x       y       z     vdW  Elec       q    Type
                         _______ _______ _______ _____ _____    ______ ____

>  <TORSDO>
F 3

$$$$
=
 OpenBabel10232411163D

 33 38  0  0  1  0  0  0  0  0999 V2000
  188.6450  176.8210  142.4010 C   0  0  0  0  0  0  0  0  0  0  0  0
  184.0610  178.6780  142.6780 C   0  0  0  0  0  2  0  0  0  0  0  0
  185.4170  178.2300  140.6850 N   0  0  0  0  0  0  0  0  0  0  0  0
  188.3880  178.8180  141.0470 C   0  0  0  0  0  3  0  0  0  0  0  0
  186.3190  177.6760  144.0910 C   0  0  2  0  0  3  0  0  0  0  0  0
  189.5950  178.5400  140.4030 C   0  0  0  0  0  3  0  0  0  0  0  0
  185.3750  178.4320  141.9600 C   0  0  0  0  0  0  0  0  0  0  0  0
  183.0170  179.1130  144.7740 O   0  0  0  0  0  1  0  0  0  0  0  0
  190.3340  177.4140  140.7640 C   0  0  0  0  0  3  0  0  0  0  0  0
  187.8880  177.9650  142.0420 C   0  0  0  0  0  0  0  0  0  0  0  0
  189.8620  176.5620  141.7640 C   0  0  0  0  0  3  0  0  0  0  0  0
  188.1030  175.6800  143.6720 S   0  0  0  0  0  0  0  0  0  0  0  0
  184.6310  180.6750  144.0520 C   0  0  0  0  0  1  0  0  0  0  0  0
  186.6390  178.4120  142.7860 C   0  0  2  0  0  3  0  0  0  0  0  0
  185.3010  178.4500  144.9330 C   0  0  0  0  0  2  0  0  0  0  0  0
  187.7990  177.2620  145.0500 S   0  0  0  0  0  0  0  0  0  0  0  0
  184.2390  179.2100  144.1130 C   0  0  2  0  0  0  0  0  0  0  0  0
  182.6940  179.8520  138.8830 C   0  0  0  0  0  3  0  0  0  0  0  0
  183.6030  179.5620  139.8200 C   0  0  0  0  0  3  0  0  0  0  0  0
  186.0070  177.6180  137.9200 C   0  0  0  0  0  1  0  0  0  0  0  0
  184.2440  178.2040  139.8410 C   0  0  1  0  0  3  0  0  0  0  0  0
  184.5730  177.7360  138.4050 C   0  0  2  0  0  0  0  0  0  0  0  0
  183.6400  176.6800  137.8610 C   0  0  0  0  0  2  0  0  0  0  0  0
  183.5720  178.0970  137.3030 C   0  0  1  0  0  3  0  0  0  0  0  0
  182.3270  178.8140  137.8540 C   0  0  2  0  0  3  0  0  0  0  0  0
  179.9840  180.5700  134.7120 C   0  0  0  0  0  3  0  0  0  0  0  0
  181.5120  179.4100  136.7520 C   0  0  0  0  0  0  0  0  0  0  0  0
  180.4300  181.3590  135.7760 C   0  0  0  0  0  0  0  0  0  0  0  0
  181.1960  180.7710  136.7960 C   0  0  0  0  0  3  0  0  0  0  0  0
  180.2960  179.2090  134.6610 C   0  0  0  0  0  3  0  0  0  0  0  0
  181.0580  178.6280  135.6780 C   0  0  0  0  0  3  0  0  0  0  0  0
  180.1010  182.7170  135.7980 O   0  0  0  0  0  0  0  0  0  0  0  0
  181.0580  183.7350  136.0530 C   0  0  0  0  0  1  0  0  0  0  0  0
  1 12  1  0  0  0  0
  2 17  1  0  0  0  0
  3  7  2  0  0  0  0
  4 10  2  0  0  0  0
  5 15  1  1  0  0  0
  5 16  1  0  0  0  0
  6  9  2  0  0  0  0
  6  4  1  0  0  0  0
  7  2  1  0  0  0  0
  9 11  1  0  0  0  0
 10  1  1  0  0  0  0
 10 14  1  0  0  0  0
 11  1  2  0  0  0  0
 12 16  1  0  0  0  0
 14  7  1  6  0  0  0
 14  5  1  0  0  0  0
 17 13  1  6  0  0  0
 17  8  1  0  0  0  0
 17 15  1  0  0  0  0
 18 19  2  0  0  0  0
 19 21  1  0  0  0  0
 21  3  1  1  0  0  0
 22 20  1  6  0  0  0
 22 21  1  0  0  0  0
 23 22  1  0  0  0  0
 24 25  1  0  0  0  0
 24 23  1  1  0  0  0
 24 22  1  0  0  0  0
 25 27  1  6  0  0  0
 25 18  1  0  0  0  0
 26 28  1  0  0  0  0
 27 29  1  0  0  0  0
 28 32  1  0  0  0  0
 28 29  2  0  0  0  0
 30 26  2  0  0  0  0
 30 31  1  0  0  0  0
 31 27  2  0  0  0  0
 32 33  1  0  0  0  0
M  END
>  <MODEL>
9

>  <REMARK>
 VINA RESULT:      -5.3      4.475      9.535
  Name = 
  3 active torsions:
  status: ('A' for Active; 'I' for Inactive)
    1  A    between atoms: N_6  and  C_12
    2  A    between atoms: C_8  and  C_23
    3  A    between atoms: C_10  and  O_22
                            x       y       z     vdW  Elec       q    Type
                         _______ _______ _______ _____ _____    ______ ____

>  <TORSDO>
F 3

$$$$
