=
 OpenBabel10232408003D

 44 49  0  0  1  0  0  0  0  0999 V2000
  194.1140  176.3750  137.3450 N   0  0  0  0  0  0  0  0  0  0  0  0
  189.4120  176.7690  138.5550 C   0  0  0  0  0  0  0  0  0  0  0  0
  191.4690  177.1740  140.9470 C   0  0  0  0  0  3  0  0  0  0  0  0
  192.7930  176.4430  137.5300 C   0  0  0  0  0  0  0  0  0  0  0  0
  189.2020  177.0630  139.9070 C   0  0  0  0  0  3  0  0  0  0  0  0
  191.9380  176.6710  138.5720 C   0  0  0  0  0  0  0  0  0  0  0  0
  194.1770  176.1240  136.0020 C   0  0  0  0  0  0  0  0  0  0  0  0
  190.8140  176.3620  136.6530 O   0  0  0  0  0  0  0  0  0  0  0  0
  192.9180  176.0540  135.3630 C   0  0  0  0  0  3  0  0  0  0  0  0
  190.6700  176.6040  137.9600 C   0  0  0  0  0  0  0  0  0  0  0  0
  192.0980  176.2700  136.4350 C   0  0  0  0  0  0  0  0  0  0  0  0
  192.3120  176.9170  139.8800 C   0  0  0  0  0  3  0  0  0  0  0  0
  190.0800  177.2480  140.9730 C   0  0  0  0  0  0  0  0  0  0  0  0
  182.9740  175.1380  137.3750 C   0  0  0  0  0  0  0  0  0  0  0  0
  185.3740  175.6660  136.9700 C   0  0  0  0  0  0  0  0  0  0  0  0
  187.5090  177.8680  137.2540 C   0  0  0  0  0  3  0  0  0  0  0  0
  186.6620  175.1730  136.3980 C   0  0  0  0  0  2  0  0  0  0  0  0
  182.0700  174.2790  137.5520 O   0  0  0  0  0  0  0  0  0  0  0  0
  188.1970  176.6370  137.7110 C   0  0  0  0  0  0  0  0  0  0  0  0
  184.3200  174.7140  137.1570 N   0  0  0  0  0  0  0  0  0  0  0  0
  186.1970  178.0140  137.0350 C   0  0  0  0  0  3  0  0  0  0  0  0
  185.1580  176.9770  137.2010 C   0  0  2  0  0  3  0  0  0  0  0  0
  187.8000  175.4160  137.3310 C   0  0  0  0  0  3  0  0  0  0  0  0
  182.6510  176.6030  137.2780 C   0  0  2  0  0  3  0  0  0  0  0  0
  183.8380  177.4440  137.7570 C   0  0  0  0  0  2  0  0  0  0  0  0
  180.3920  177.3750  137.4330 O   0  0  0  0  0  0  0  0  0  0  0  0
  181.4180  176.9670  138.0450 C   0  0  0  0  0  0  0  0  0  0  0  0
  181.4350  176.8600  139.4420 O   0  0  0  0  0  0  0  0  0  0  0  0
  181.9410  178.7640  140.6820 O   0  0  0  0  0  0  0  0  0  0  0  0
  181.1020  177.8930  140.3260 C   0  0  0  0  0  3  0  0  0  0  0  0
  189.4810  177.5360  142.2460 C   0  0  0  0  0  0  0  0  0  0  0  0
  188.9750  177.7820  143.3130 C   0  0  0  0  0  0  0  0  0  0  0  0
  187.0540  177.3030  144.7580 C   0  0  0  0  0  2  0  0  0  0  0  0
  189.5480  177.6740  148.2220 C   0  0  0  0  0  1  0  0  0  0  0  0
  188.6530  177.3440  147.0460 C   0  0  2  0  0  3  0  0  0  0  0  0
  189.3410  177.7600  145.7400 C   0  0  0  0  0  2  0  0  0  0  0  0
  187.3010  178.0330  147.2080 C   0  0  0  0  0  2  0  0  0  0  0  0
  188.3570  178.0820  144.6050 C   0  0  1  0  0  3  0  0  0  0  0  0
  186.3410  177.6680  146.0680 C   0  0  0  0  0  2  0  0  0  0  0  0
  195.4740  175.9880  135.2770 C   0  0  0  0  0  2  0  0  0  0  0  0
  196.6750  173.4060  135.7360 C   0  0  0  0  0  1  0  0  0  0  0  0
  198.2240  174.5690  137.4230 C   0  0  0  0  0  1  0  0  0  0  0  0
  197.1130  174.6560  136.4340 C   0  0  0  0  0  0  0  0  0  0  0  0
  196.5520  175.7980  136.2190 N   0  0  0  0  0  0  0  0  0  0  0  0
  1  4  1  0  0  0  0
  2  5  1  0  0  0  0
  3 13  1  0  0  0  0
  4  6  2  0  0  0  0
  5 13  2  0  0  0  0
  6 12  1  0  0  0  0
  7  1  2  0  0  0  0
  8 10  1  0  0  0  0
  9  7  1  0  0  0  0
  9 11  2  0  0  0  0
 10  2  2  0  0  0  0
 10  6  1  0  0  0  0
 11  8  1  0  0  0  0
 11  4  1  0  0  0  0
 12  3  2  0  0  0  0
 13 31  1  0  0  0  0
 14 18  2  0  0  0  0
 15 20  2  0  0  0  0
 15 22  1  0  0  0  0
 16 19  1  0  0  0  0
 17 15  1  0  0  0  0
 17 23  1  0  0  0  0
 19  2  1  0  0  0  0
 20 14  1  0  0  0  0
 21 16  2  0  0  0  0
 22 21  1  1  0  0  0
 22 25  1  0  0  0  0
 23 19  2  0  0  0  0
 24 14  1  0  0  0  0
 24 25  1  0  0  0  0
 24 27  1  1  0  0  0
 26 27  2  0  0  0  0
 27 28  1  0  0  0  0
 28 30  1  0  0  0  0
 30 29  2  0  0  0  0
 31 32  3  0  0  0  0
 33 39  1  0  0  0  0
 35 37  1  0  0  0  0
 35 34  1  1  0  0  0
 36 35  1  0  0  0  0
 38 32  1  6  0  0  0
 38 33  1  0  0  0  0
 38 36  1  0  0  0  0
 39 37  1  0  0  0  0
 40  7  1  0  0  0  0
 40 44  1  0  0  0  0
 41 43  1  0  0  0  0
 43 42  1  0  0  0  0
 44 43  2  0  0  0  0
M  END
>  <MODEL>
1

>  <REMARK>
 VINA RESULT:      -8.8      0.000      0.000
  Name = 
  8 active torsions:
  status: ('A' for Active; 'I' for Inactive)
    1  A    between atoms: C_3  and  C_22
    2  A    between atoms: O_4  and  C_30
    3  A    between atoms: O_4  and  C_39
    4  A    between atoms: C_10  and  C_41
    5  A    between atoms: C_11  and  C_24
    6  A    between atoms: C_11  and  N_43
    7  A    between atoms: C_30  and  C_38
    8  A    between atoms: C_34  and  C_42
                            x       y       z     vdW  Elec       q    Type
                         _______ _______ _______ _____ _____    ______ ____

>  <TORSDO>
F 8

$$$$
=
 OpenBabel10232408003D

 44 49  0  0  1  0  0  0  0  0999 V2000
  190.1300  177.7040  143.4860 N   0  0  0  0  0  0  0  0  0  0  0  0
  189.7550  176.8840  138.6990 C   0  0  0  0  0  0  0  0  0  0  0  0
  192.7250  176.9590  139.8360 C   0  0  0  0  0  3  0  0  0  0  0  0
  189.8740  177.5010  142.1910 C   0  0  0  0  0  0  0  0  0  0  0  0
  190.9880  176.7020  138.0620 C   0  0  0  0  0  3  0  0  0  0  0  0
  190.5950  177.2780  141.0510 C   0  0  0  0  0  0  0  0  0  0  0  0
  188.8630  177.8280  143.9860 C   0  0  0  0  0  0  0  0  0  0  0  0
  188.3880  177.2640  140.6320 O   0  0  0  0  0  0  0  0  0  0  0  0
  187.8400  177.6870  143.0220 C   0  0  0  0  0  3  0  0  0  0  0  0
  189.5940  177.1370  140.0680 C   0  0  0  0  0  0  0  0  0  0  0  0
  188.5990  177.4830  141.9020 C   0  0  0  0  0  0  0  0  0  0  0  0
  191.9730  177.2070  140.9720 C   0  0  0  0  0  3  0  0  0  0  0  0
  192.2990  176.7270  138.5330 C   0  0  0  0  0  0  0  0  0  0  0  0
  183.3120  175.3610  137.4100 C   0  0  0  0  0  0  0  0  0  0  0  0
  185.7210  175.8740  137.0440 C   0  0  0  0  0  0  0  0  0  0  0  0
  187.8770  178.0430  137.4150 C   0  0  0  0  0  3  0  0  0  0  0  0
  187.0090  175.3850  136.4690 C   0  0  0  0  0  2  0  0  0  0  0  0
  182.3970  174.5070  137.5520 O   0  0  0  0  0  0  0  0  0  0  0  0
  188.5470  176.7910  137.8410 C   0  0  0  0  0  0  0  0  0  0  0  0
  184.6550  174.9290  137.1920 N   0  0  0  0  0  0  0  0  0  0  0  0
  186.5690  178.2100  137.1890 C   0  0  0  0  0  3  0  0  0  0  0  0
  185.5160  177.1800  137.3130 C   0  0  2  0  0  3  0  0  0  0  0  0
  188.1410  175.5870  137.4200 C   0  0  0  0  0  3  0  0  0  0  0  0
  183.0060  176.8310  137.3560 C   0  0  2  0  0  3  0  0  0  0  0  0
  184.1970  177.6440  137.8710 C   0  0  0  0  0  2  0  0  0  0  0  0
  181.8170  177.3060  139.3770 O   0  0  0  0  0  0  0  0  0  0  0  0
  181.7690  177.1850  138.1220 C   0  0  0  0  0  0  0  0  0  0  0  0
  180.5680  177.3590  137.4210 O   0  0  0  0  0  0  0  0  0  0  0  0
  180.8090  179.6110  136.8810 O   0  0  0  0  0  0  0  0  0  0  0  0
  180.2220  178.5100  136.7020 C   0  0  0  0  0  3  0  0  0  0  0  0
  193.3270  176.4970  137.5580 C   0  0  0  0  0  0  0  0  0  0  0  0
  194.1930  176.3070  136.7400 C   0  0  0  0  0  0  0  0  0  0  0  0
  195.9870  177.3830  135.4620 C   0  0  0  0  0  2  0  0  0  0  0  0
  198.3210  173.7980  135.6900 C   0  0  0  0  0  1  0  0  0  0  0  0
  197.6390  175.1480  135.7310 C   0  0  2  0  0  3  0  0  0  0  0  0
  196.2040  174.9880  136.2490 C   0  0  0  0  0  2  0  0  0  0  0  0
  197.6630  175.7880  134.3460 C   0  0  0  0  0  2  0  0  0  0  0  0
  195.2470  176.0800  135.7490 C   0  0  1  0  0  3  0  0  0  0  0  0
  197.0400  177.1910  134.3610 C   0  0  0  0  0  2  0  0  0  0  0  0
  188.5980  178.0420  145.4390 C   0  0  0  0  0  2  0  0  0  0  0  0
  187.4760  178.1630  148.0940 C   0  0  0  0  0  1  0  0  0  0  0  0
  185.1780  178.4120  146.9720 C   0  0  0  0  0  1  0  0  0  0  0  0
  186.6540  178.2550  146.8440 C   0  0  0  0  0  0  0  0  0  0  0  0
  187.1800  178.1880  145.6690 N   0  0  0  0  0  0  0  0  0  0  0  0
  1  7  2  0  0  0  0
  2 10  2  0  0  0  0
  3 12  2  0  0  0  0
  4  1  1  0  0  0  0
  5 13  2  0  0  0  0
  5  2  1  0  0  0  0
  6  4  2  0  0  0  0
  7 40  1  0  0  0  0
  8 11  1  0  0  0  0
  9  7  1  0  0  0  0
 10  8  1  0  0  0  0
 10  6  1  0  0  0  0
 11  4  1  0  0  0  0
 11  9  2  0  0  0  0
 12  6  1  0  0  0  0
 13  3  1  0  0  0  0
 14 18  2  0  0  0  0
 15 20  2  0  0  0  0
 15 22  1  0  0  0  0
 16 19  1  0  0  0  0
 17 15  1  0  0  0  0
 17 23  1  0  0  0  0
 19  2  1  0  0  0  0
 20 14  1  0  0  0  0
 21 16  2  0  0  0  0
 22 21  1  1  0  0  0
 22 25  1  0  0  0  0
 23 19  2  0  0  0  0
 24 14  1  0  0  0  0
 24 25  1  0  0  0  0
 24 27  1  1  0  0  0
 27 26  2  0  0  0  0
 28 27  1  0  0  0  0
 30 29  2  0  0  0  0
 30 28  1  0  0  0  0
 31 13  1  0  0  0  0
 32 31  3  0  0  0  0
 33 38  1  0  0  0  0
 35 34  1  6  0  0  0
 35 36  1  0  0  0  0
 37 39  1  0  0  0  0
 37 35  1  0  0  0  0
 38 36  1  0  0  0  0
 38 32  1  1  0  0  0
 39 33  1  0  0  0  0
 40 44  1  0  0  0  0
 43 42  1  0  0  0  0
 43 41  1  0  0  0  0
 44 43  2  0  0  0  0
M  END
>  <MODEL>
2

>  <REMARK>
 VINA RESULT:      -7.7      2.230      8.344
  Name = 
  8 active torsions:
  status: ('A' for Active; 'I' for Inactive)
    1  A    between atoms: C_3  and  C_22
    2  A    between atoms: O_4  and  C_30
    3  A    between atoms: O_4  and  C_39
    4  A    between atoms: C_10  and  C_41
    5  A    between atoms: C_11  and  C_24
    6  A    between atoms: C_11  and  N_43
    7  A    between atoms: C_30  and  C_38
    8  A    between atoms: C_34  and  C_42
                            x       y       z     vdW  Elec       q    Type
                         _______ _______ _______ _____ _____    ______ ____

>  <TORSDO>
F 8

$$$$
=
 OpenBabel10232408003D

 44 49  0  0  1  0  0  0  0  0999 V2000
  186.9200  174.6750  135.2680 N   0  0  0  0  0  0  0  0  0  0  0  0
  190.3100  176.0010  138.5060 C   0  0  0  0  0  0  0  0  0  0  0  0
  191.2950  173.9740  136.2600 C   0  0  0  0  0  3  0  0  0  0  0  0
  187.7360  175.1160  136.2290 C   0  0  0  0  0  0  0  0  0  0  0  0
  191.5670  175.4300  138.2690 C   0  0  0  0  0  3  0  0  0  0  0  0
  189.0450  174.9460  136.5880 C   0  0  0  0  0  0  0  0  0  0  0  0
  185.7610  175.3250  135.5920 C   0  0  0  0  0  0  0  0  0  0  0  0
  188.0040  176.3780  137.9690 O   0  0  0  0  0  0  0  0  0  0  0  0
  185.8620  176.1670  136.7230 C   0  0  0  0  0  3  0  0  0  0  0  0
  189.1710  175.7750  137.7200 C   0  0  0  0  0  0  0  0  0  0  0  0
  187.1710  175.9560  137.0570 C   0  0  0  0  0  0  0  0  0  0  0  0
  189.9610  174.1450  135.9320 C   0  0  0  0  0  3  0  0  0  0  0  0
  192.0260  174.5450  137.2960 C   0  0  0  0  0  0  0  0  0  0  0  0
  188.8040  177.5510  144.8950 C   0  0  0  0  0  0  0  0  0  0  0  0
  189.2930  177.8170  142.4670 C   0  0  0  0  0  0  0  0  0  0  0  0
  191.4540  177.3930  140.3140 C   0  0  0  0  0  3  0  0  0  0  0  0
  188.7830  178.3220  141.1590 C   0  0  0  0  0  2  0  0  0  0  0  0
  187.9590  177.4340  145.8210 O   0  0  0  0  0  0  0  0  0  0  0  0
  190.2070  176.9110  139.6730 C   0  0  0  0  0  0  0  0  0  0  0  0
  188.3580  177.6980  143.5460 N   0  0  0  0  0  2  0  0  0  0  0  0
  191.6250  177.6810  141.6090 C   0  0  0  0  0  3  0  0  0  0  0  0
  190.6050  177.5840  142.6740 C   0  0  0  0  0  0  0  0  0  0  0  0
  188.9970  177.3250  140.0700 C   0  0  0  0  0  3  0  0  0  0  0  0
  190.2750  177.6500  145.1870 C   0  0  2  0  0  3  0  0  0  0  0  0
  191.0900  177.0970  144.0140 C   0  0  0  0  0  2  0  0  0  0  0  0
  189.9820  177.1420  147.5070 O   0  0  0  0  0  0  0  0  0  0  0  0
  190.6520  176.9480  146.4550 C   0  0  0  0  0  0  0  0  0  0  0  0
  191.7650  176.0960  146.4490 O   0  0  0  0  0  0  0  0  0  0  0  0
  193.0570  176.1820  148.3830 O   0  0  0  0  0  0  0  0  0  0  0  0
  192.3360  175.5200  147.5900 C   0  0  0  0  0  3  0  0  0  0  0  0
  193.4100  174.1720  137.3810 C   0  0  0  0  0  0  0  0  0  0  0  0
  194.5720  173.8600  137.4560 C   0  0  0  0  0  0  0  0  0  0  0  0
  196.6260  173.4950  136.1690 C   0  0  0  0  0  2  0  0  0  0  0  0
  198.9590  174.9770  139.4420 C   0  0  0  0  0  1  0  0  0  0  0  0
  198.1950  174.6220  138.1850 C   0  0  2  0  0  3  0  0  0  0  0  0
  196.7100  174.4280  138.5200 C   0  0  0  0  0  2  0  0  0  0  0  0
  198.7900  173.3700  137.5470 C   0  0  0  0  0  2  0  0  0  0  0  0
  195.9830  173.4820  137.5520 C   0  0  1  0  0  3  0  0  0  0  0  0
  198.0840  173.0150  136.2310 C   0  0  0  0  0  2  0  0  0  0  0  0
  184.5170  175.1870  134.7800 C   0  0  0  0  0  2  0  0  0  0  0  0
  183.0650  172.8610  135.6740 C   0  0  0  0  0  1  0  0  0  0  0  0
  181.5120  174.4740  136.9330 C   0  0  0  0  0  1  0  0  0  0  0  0
  182.6940  174.2620  136.0530 C   0  0  0  0  0  0  0  0  0  0  0  0
  183.3550  175.2870  135.6300 N   0  0  0  0  0  0  0  0  0  0  0  0
  1  7  2  0  0  0  0
  1  4  1  0  0  0  0
  2 19  1  0  0  0  0
  3 13  1  0  0  0  0
  4  6  2  0  0  0  0
  4 11  1  0  0  0  0
  5  2  1  0  0  0  0
  6 10  1  0  0  0  0
  7  9  1  0  0  0  0
  9 11  2  0  0  0  0
 10  8  1  0  0  0  0
 10  2  2  0  0  0  0
 11  8  1  0  0  0  0
 12  3  2  0  0  0  0
 12  6  1  0  0  0  0
 13 31  1  0  0  0  0
 13  5  2  0  0  0  0
 14 24  1  0  0  0  0
 14 18  2  0  0  0  0
 15 22  2  0  0  0  0
 15 20  1  0  0  0  0
 16 21  2  0  0  0  0
 17 15  1  0  0  0  0
 19 23  2  0  0  0  0
 19 16  1  0  0  0  0
 20 14  1  0  0  0  0
 21 22  1  0  0  0  0
 22 25  1  0  0  0  0
 23 17  1  0  0  0  0
 24 27  1  1  0  0  0
 25 24  1  0  0  0  0
 27 26  2  0  0  0  0
 28 27  1  0  0  0  0
 28 30  1  0  0  0  0
 30 29  2  0  0  0  0
 31 32  3  0  0  0  0
 33 39  1  0  0  0  0
 33 38  1  0  0  0  0
 35 36  1  0  0  0  0
 35 34  1  1  0  0  0
 37 35  1  0  0  0  0
 38 32  1  6  0  0  0
 38 36  1  0  0  0  0
 39 37  1  0  0  0  0
 40  7  1  0  0  0  0
 40 44  1  0  0  0  0
 41 43  1  0  0  0  0
 43 42  1  0  0  0  0
 44 43  2  0  0  0  0
M  END
>  <MODEL>
3

>  <REMARK>
 VINA RESULT:      -7.6      3.736      9.948
  Name = 
  8 active torsions:
  status: ('A' for Active; 'I' for Inactive)
    1  A    between atoms: C_3  and  C_22
    2  A    between atoms: O_4  and  C_30
    3  A    between atoms: O_4  and  C_39
    4  A    between atoms: C_10  and  C_41
    5  A    between atoms: C_11  and  C_24
    6  A    between atoms: C_11  and  N_43
    7  A    between atoms: C_30  and  C_38
    8  A    between atoms: C_34  and  C_42
                            x       y       z     vdW  Elec       q    Type
                         _______ _______ _______ _____ _____    ______ ____

>  <TORSDO>
F 8

$$$$
=
 OpenBabel10232408003D

 44 49  0  0  1  0  0  0  0  0999 V2000
  187.3360  173.9350  135.4610 N   0  0  0  0  0  0  0  0  0  0  0  0
  190.6540  175.9430  138.4080 C   0  0  0  0  0  0  0  0  0  0  0  0
  191.8230  174.0390  136.1430 C   0  0  0  0  0  3  0  0  0  0  0  0
  188.1260  174.5450  136.3490 C   0  0  0  0  0  0  0  0  0  0  0  0
  191.9720  175.5900  138.0930 C   0  0  0  0  0  3  0  0  0  0  0  0
  189.4650  174.6160  136.6140 C   0  0  0  0  0  0  0  0  0  0  0  0
  186.1050  174.3850  135.8540 C   0  0  0  0  0  0  0  0  0  0  0  0
  188.2860  175.8950  138.0350 O   0  0  0  0  0  0  0  0  0  0  0  0
  186.1340  175.2710  136.9550 C   0  0  0  0  0  3  0  0  0  0  0  0
  189.5220  175.4950  137.7140 C   0  0  0  0  0  0  0  0  0  0  0  0
  187.4800  175.3030  137.1960 C   0  0  0  0  0  0  0  0  0  0  0  0
  190.4600  173.9640  135.9110 C   0  0  0  0  0  3  0  0  0  0  0  0
  192.5120  174.7640  137.1090 C   0  0  0  0  0  0  0  0  0  0  0  0
  188.8240  177.5170  144.7060 C   0  0  0  0  0  0  0  0  0  0  0  0
  189.4110  177.7720  142.2990 C   0  0  0  0  0  0  0  0  0  0  0  0
  191.6770  177.3880  140.2470 C   0  0  0  0  0  3  0  0  0  0  0  0
  188.9450  178.2470  140.9630 C   0  0  0  0  0  2  0  0  0  0  0  0
  187.9430  177.3850  145.5960 O   0  0  0  0  0  0  0  0  0  0  0  0
  190.4740  176.8620  139.5590 C   0  0  0  0  0  0  0  0  0  0  0  0
  188.4340  177.6370  143.3370 N   0  0  0  0  0  2  0  0  0  0  0  0
  191.7820  177.6960  141.5450 C   0  0  0  0  0  3  0  0  0  0  0  0
  190.7200  177.5800  142.5660 C   0  0  0  0  0  0  0  0  0  0  0  0
  189.2360  177.2450  139.8970 C   0  0  0  0  0  3  0  0  0  0  0  0
  190.2770  177.6630  145.0600 C   0  0  2  0  0  3  0  0  0  0  0  0
  191.1580  177.1220  143.9310 C   0  0  0  0  0  2  0  0  0  0  0  0
  189.9210  177.2040  147.3820 O   0  0  0  0  0  0  0  0  0  0  0  0
  190.6190  176.9870  146.3520 C   0  0  0  0  0  0  0  0  0  0  0  0
  191.7290  176.1330  146.3930 O   0  0  0  0  0  0  0  0  0  0  0  0
  192.9720  176.2260  148.3600 O   0  0  0  0  0  0  0  0  0  0  0  0
  192.2570  175.5650  147.5590 C   0  0  0  0  0  3  0  0  0  0  0  0
  193.9420  174.6400  137.1000 C   0  0  0  0  0  0  0  0  0  0  0  0
  195.1440  174.5380  137.0960 C   0  0  0  0  0  0  0  0  0  0  0  0
  197.0050  172.9560  137.3010 C   0  0  0  0  0  2  0  0  0  0  0  0
  199.2930  175.2630  134.5080 C   0  0  0  0  0  1  0  0  0  0  0  0
  198.4800  174.3030  135.3500 C   0  0  2  0  0  3  0  0  0  0  0  0
  197.1730  174.9770  135.7870 C   0  0  0  0  0  2  0  0  0  0  0  0
  199.2980  173.8400  136.5520 C   0  0  0  0  0  2  0  0  0  0  0  0
  196.6030  174.4130  137.0970 C   0  0  1  0  0  3  0  0  0  0  0  0
  198.5310  172.8110  137.3950 C   0  0  0  0  0  2  0  0  0  0  0  0
  184.8520  174.0050  135.1390 C   0  0  0  0  0  2  0  0  0  0  0  0
  182.6270  173.8910  136.9710 C   0  0  0  0  0  1  0  0  0  0  0  0
  182.8950  171.3370  136.9370 C   0  0  0  0  0  1  0  0  0  0  0  0
  183.3450  172.6770  136.4670 C   0  0  0  0  0  0  0  0  0  0  0  0
  184.3450  172.7560  135.6560 N   0  0  0  0  0  0  0  0  0  0  0  0
  1  7  2  0  0  0  0
  1  4  1  0  0  0  0
  2 19  1  0  0  0  0
  3 13  1  0  0  0  0
  4  6  2  0  0  0  0
  4 11  1  0  0  0  0
  5  2  1  0  0  0  0
  6 10  1  0  0  0  0
  7  9  1  0  0  0  0
  9 11  2  0  0  0  0
 10  8  1  0  0  0  0
 10  2  2  0  0  0  0
 11  8  1  0  0  0  0
 12  3  2  0  0  0  0
 12  6  1  0  0  0  0
 13  5  2  0  0  0  0
 14 24  1  0  0  0  0
 14 18  2  0  0  0  0
 15 22  2  0  0  0  0
 15 20  1  0  0  0  0
 16 21  2  0  0  0  0
 17 15  1  0  0  0  0
 19 23  2  0  0  0  0
 19 16  1  0  0  0  0
 20 14  1  0  0  0  0
 21 22  1  0  0  0  0
 22 25  1  0  0  0  0
 23 17  1  0  0  0  0
 24 27  1  1  0  0  0
 25 24  1  0  0  0  0
 27 28  1  0  0  0  0
 27 26  2  0  0  0  0
 28 30  1  0  0  0  0
 30 29  2  0  0  0  0
 31 13  1  0  0  0  0
 32 31  3  0  0  0  0
 33 39  1  0  0  0  0
 35 34  1  1  0  0  0
 35 36  1  0  0  0  0
 35 37  1  0  0  0  0
 36 38  1  0  0  0  0
 37 39  1  0  0  0  0
 38 32  1  6  0  0  0
 38 33  1  0  0  0  0
 40 44  1  0  0  0  0
 40  7  1  0  0  0  0
 43 42  1  0  0  0  0
 43 41  1  0  0  0  0
 44 43  2  0  0  0  0
M  END
>  <MODEL>
4

>  <REMARK>
 VINA RESULT:      -7.6      3.749     10.145
  Name = 
  8 active torsions:
  status: ('A' for Active; 'I' for Inactive)
    1  A    between atoms: C_3  and  C_22
    2  A    between atoms: O_4  and  C_30
    3  A    between atoms: O_4  and  C_39
    4  A    between atoms: C_10  and  C_41
    5  A    between atoms: C_11  and  C_24
    6  A    between atoms: C_11  and  N_43
    7  A    between atoms: C_30  and  C_38
    8  A    between atoms: C_34  and  C_42
                            x       y       z     vdW  Elec       q    Type
                         _______ _______ _______ _____ _____    ______ ____

>  <TORSDO>
F 8

$$$$
=
 OpenBabel10232408003D

 44 49  0  0  1  0  0  0  0  0999 V2000
  189.4500  177.7860  143.5510 N   0  0  0  0  0  0  0  0  0  0  0  0
  187.6830  177.5610  139.0170 C   0  0  0  0  0  0  0  0  0  0  0  0
  185.7920  178.9820  141.1440 C   0  0  0  0  0  3  0  0  0  0  0  0
  189.0930  177.6400  142.2720 C   0  0  0  0  0  0  0  0  0  0  0  0
  186.4250  178.1570  138.8740 C   0  0  0  0  0  3  0  0  0  0  0  0
  188.0200  177.9660  141.4900 C   0  0  0  0  0  0  0  0  0  0  0  0
  190.6880  177.2030  143.5430 C   0  0  0  0  0  0  0  0  0  0  0  0
  189.6190  176.9430  140.2900 O   0  0  0  0  0  0  0  0  0  0  0  0
  191.0960  176.7210  142.2790 C   0  0  0  0  0  3  0  0  0  0  0  0
  188.4020  177.4920  140.2190 C   0  0  0  0  0  0  0  0  0  0  0  0
  189.9970  177.0500  141.5350 C   0  0  0  0  0  0  0  0  0  0  0  0
  186.8800  178.6200  141.9190 C   0  0  0  0  0  3  0  0  0  0  0  0
  185.5770  178.7870  139.7840 C   0  0  0  0  0  0  0  0  0  0  0  0
  192.7900  175.4920  135.1270 C   0  0  0  0  0  0  0  0  0  0  0  0
  190.5240  176.2660  135.8100 C   0  0  0  0  0  0  0  0  0  0  0  0
  188.0640  175.5330  137.5130 C   0  0  0  0  0  3  0  0  0  0  0  0
  189.4750  177.3130  135.6280 C   0  0  0  0  0  2  0  0  0  0  0  0
  193.9390  175.7640  134.6890 O   0  0  0  0  0  0  0  0  0  0  0  0
  188.2790  176.9730  137.7910 C   0  0  0  0  0  0  0  0  0  0  0  0
  191.8330  176.5380  135.2980 N   0  0  0  0  0  0  0  0  0  0  0  0
  188.9090  174.7070  136.8860 C   0  0  0  0  0  3  0  0  0  0  0  0
  190.2350  175.0570  136.3350 C   0  0  2  0  0  3  0  0  0  0  0  0
  188.9320  177.7730  136.9390 C   0  0  0  0  0  3  0  0  0  0  0  0
  192.3630  174.0730  135.3710 C   0  0  2  0  0  3  0  0  0  0  0  0
  191.3120  174.0160  136.4830 C   0  0  0  0  0  2  0  0  0  0  0  0
  194.0870  172.5170  134.7930 O   0  0  0  0  0  0  0  0  0  0  0  0
  193.5170  173.1790  135.7050 C   0  0  0  0  0  0  0  0  0  0  0  0
  193.9330  173.0840  137.0400 O   0  0  0  0  0  0  0  0  0  0  0  0
  194.5590  174.9220  138.3250 O   0  0  0  0  0  0  0  0  0  0  0  0
  194.8860  173.9160  137.6400 C   0  0  0  0  0  3  0  0  0  0  0  0
  184.3370  179.2810  139.2570 C   0  0  0  0  0  0  0  0  0  0  0  0
  183.2950  179.6930  138.8100 C   0  0  0  0  0  0  0  0  0  0  0  0
  182.0280  181.7150  138.2500 C   0  0  0  0  0  2  0  0  0  0  0  0
  180.2740  179.7050  134.8970 C   0  0  0  0  0  1  0  0  0  0  0  0
  180.9900  180.5320  135.9430 C   0  0  2  0  0  3  0  0  0  0  0  0
  181.8070  179.6120  136.8600 C   0  0  0  0  0  2  0  0  0  0  0  0
  179.9820  181.3570  136.7380 C   0  0  0  0  0  2  0  0  0  0  0  0
  182.0300  180.1890  138.2650 C   0  0  1  0  0  3  0  0  0  0  0  0
  180.6770  182.2620  137.7650 C   0  0  0  0  0  2  0  0  0  0  0  0
  191.5440  177.1360  144.7630 C   0  0  0  0  0  2  0  0  0  0  0  0
  191.7880  175.8320  147.3250 C   0  0  0  0  0  1  0  0  0  0  0  0
  190.0820  177.5360  148.2100 C   0  0  0  0  0  1  0  0  0  0  0  0
  190.8950  177.0090  147.0790 C   0  0  0  0  0  0  0  0  0  0  0  0
  190.7960  177.5670  145.9200 N   0  0  0  0  0  0  0  0  0  0  0  0
  2 10  2  0  0  0  0
  3 12  2  0  0  0  0
  4  1  1  0  0  0  0
  5  2  1  0  0  0  0
  5 13  2  0  0  0  0
  6 12  1  0  0  0  0
  6  4  2  0  0  0  0
  7  1  2  0  0  0  0
  7 40  1  0  0  0  0
  8 11  1  0  0  0  0
  9  7  1  0  0  0  0
 10  8  1  0  0  0  0
 10  6  1  0  0  0  0
 11  4  1  0  0  0  0
 11  9  2  0  0  0  0
 13  3  1  0  0  0  0
 14 20  1  0  0  0  0
 14 24  1  0  0  0  0
 15 22  1  0  0  0  0
 16 19  1  0  0  0  0
 17 15  1  0  0  0  0
 17 23  1  0  0  0  0
 18 14  2  0  0  0  0
 19  2  1  0  0  0  0
 20 15  2  0  0  0  0
 21 16  2  0  0  0  0
 22 25  1  1  0  0  0
 22 21  1  0  0  0  0
 23 19  2  0  0  0  0
 24 27  1  1  0  0  0
 24 25  1  0  0  0  0
 26 27  2  0  0  0  0
 27 28  1  0  0  0  0
 28 30  1  0  0  0  0
 30 29  2  0  0  0  0
 31 13  1  0  0  0  0
 32 31  3  0  0  0  0
 33 38  1  0  0  0  0
 35 34  1  6  0  0  0
 35 37  1  0  0  0  0
 35 36  1  0  0  0  0
 36 38  1  0  0  0  0
 37 39  1  0  0  0  0
 38 32  1  6  0  0  0
 39 33  1  0  0  0  0
 40 44  1  0  0  0  0
 43 41  1  0  0  0  0
 43 42  1  0  0  0  0
 44 43  2  0  0  0  0
M  END
>  <MODEL>
5

>  <REMARK>
 VINA RESULT:      -7.4      3.724      9.380
  Name = 
  8 active torsions:
  status: ('A' for Active; 'I' for Inactive)
    1  A    between atoms: C_3  and  C_22
    2  A    between atoms: O_4  and  C_30
    3  A    between atoms: O_4  and  C_39
    4  A    between atoms: C_10  and  C_41
    5  A    between atoms: C_11  and  C_24
    6  A    between atoms: C_11  and  N_43
    7  A    between atoms: C_30  and  C_38
    8  A    between atoms: C_34  and  C_42
                            x       y       z     vdW  Elec       q    Type
                         _______ _______ _______ _____ _____    ______ ____

>  <TORSDO>
F 8

$$$$
=
 OpenBabel10232408003D

 44 49  0  0  1  0  0  0  0  0999 V2000
  192.8000  174.1600  135.8020 N   0  0  0  0  0  0  0  0  0  0  0  0
  189.6060  176.5520  138.5960 C   0  0  0  0  0  0  0  0  0  0  0  0
  188.3980  175.2590  135.9530 C   0  0  0  0  0  3  0  0  0  0  0  0
  192.0460  174.8560  136.6570 C   0  0  0  0  0  0  0  0  0  0  0  0
  188.2980  176.5330  138.0980 C   0  0  0  0  0  3  0  0  0  0  0  0
  190.7340  175.2260  136.7620 C   0  0  0  0  0  0  0  0  0  0  0  0
  194.0200  174.2270  136.4160 C   0  0  0  0  0  0  0  0  0  0  0  0
  191.9280  175.9570  138.5180 O   0  0  0  0  0  0  0  0  0  0  0  0
  194.0180  174.9360  137.6380 C   0  0  0  0  0  3  0  0  0  0  0  0
  190.7050  175.9410  137.9770 C   0  0  0  0  0  0  0  0  0  0  0  0
  192.7020  175.3000  137.6980 C   0  0  0  0  0  0  0  0  0  0  0  0
  189.7360  174.9170  135.8580 C   0  0  0  0  0  3  0  0  0  0  0  0
  187.7410  175.9740  136.9490 C   0  0  0  0  0  0  0  0  0  0  0  0
  189.6140  177.1340  145.3160 C   0  0  0  0  0  0  0  0  0  0  0  0
  189.5830  177.7600  142.9060 C   0  0  0  0  0  0  0  0  0  0  0  0
  191.1980  177.6130  140.2870 C   0  0  0  0  0  3  0  0  0  0  0  0
  188.8350  178.4770  141.8310 C   0  0  0  0  0  2  0  0  0  0  0  0
  188.9830  176.8990  146.3800 O   0  0  0  0  0  0  0  0  0  0  0  0
  189.8150  177.2730  139.8770 C   0  0  0  0  0  0  0  0  0  0  0  0
  188.8980  177.5020  144.1360 N   0  0  0  0  0  2  0  0  0  0  0  0
  191.6620  177.6920  141.5390 C   0  0  0  0  0  3  0  0  0  0  0  0
  190.8920  177.4600  142.7790 C   0  0  0  0  0  0  0  0  0  0  0  0
  188.7470  177.6550  140.5890 C   0  0  0  0  0  3  0  0  0  0  0  0
  191.1160  177.1440  145.2840 C   0  0  2  0  0  3  0  0  0  0  0  0
  191.6230  176.7570  143.8920 C   0  0  0  0  0  2  0  0  0  0  0  0
  191.9810  175.0440  146.0360 O   0  0  0  0  0  0  0  0  0  0  0  0
  191.7140  176.2440  146.3210 C   0  0  0  0  0  0  0  0  0  0  0  0
  191.9510  176.7560  147.6030 O   0  0  0  0  0  0  0  0  0  0  0  0
  193.4840  176.8490  149.3530 O   0  0  0  0  0  0  0  0  0  0  0  0
  192.7860  176.1640  148.5580 C   0  0  0  0  0  3  0  0  0  0  0  0
  186.3310  176.1700  136.7690 C   0  0  0  0  0  0  0  0  0  0  0  0
  185.1450  176.3370  136.6210 C   0  0  0  0  0  0  0  0  0  0  0  0
  182.9510  175.2520  136.7330 C   0  0  0  0  0  2  0  0  0  0  0  0
  181.1920  178.9120  138.0990 C   0  0  0  0  0  1  0  0  0  0  0  0
  181.7720  177.5460  137.8030 C   0  0  2  0  0  3  0  0  0  0  0  0
  183.2320  177.6890  137.3520 C   0  0  0  0  0  2  0  0  0  0  0  0
  180.9290  176.8370  136.7470 C   0  0  0  0  0  2  0  0  0  0  0  0
  183.7070  176.5450  136.4440 C   0  0  1  0  0  3  0  0  0  0  0  0
  181.4470  175.4190  136.4690 C   0  0  0  0  0  2  0  0  0  0  0  0
  195.2310  173.5590  135.8570 C   0  0  0  0  0  2  0  0  0  0  0  0
  197.4240  171.9270  136.7780 C   0  0  0  0  0  1  0  0  0  0  0  0
  198.6130  174.1120  137.4180 C   0  0  0  0  0  1  0  0  0  0  0  0
  197.4240  173.4230  136.8430 C   0  0  0  0  0  0  0  0  0  0  0  0
  196.4250  174.1300  136.4340 N   0  0  0  0  0  0  0  0  0  0  0  0
  1  7  2  0  0  0  0
  1  4  1  0  0  0  0
  2 19  1  0  0  0  0
  3 13  1  0  0  0  0
  4  6  2  0  0  0  0
  4 11  1  0  0  0  0
  5  2  1  0  0  0  0
  6 10  1  0  0  0  0
  7  9  1  0  0  0  0
  9 11  2  0  0  0  0
 10  8  1  0  0  0  0
 10  2  2  0  0  0  0
 11  8  1  0  0  0  0
 12  3  2  0  0  0  0
 12  6  1  0  0  0  0
 13  5  2  0  0  0  0
 14 18  2  0  0  0  0
 15 20  1  0  0  0  0
 16 21  2  0  0  0  0
 17 15  1  0  0  0  0
 19 16  1  0  0  0  0
 19 23  2  0  0  0  0
 20 14  1  0  0  0  0
 21 22  1  0  0  0  0
 22 15  2  0  0  0  0
 22 25  1  0  0  0  0
 23 17  1  0  0  0  0
 24 14  1  0  0  0  0
 24 27  1  1  0  0  0
 25 24  1  0  0  0  0
 26 27  2  0  0  0  0
 27 28  1  0  0  0  0
 28 30  1  0  0  0  0
 30 29  2  0  0  0  0
 31 13  1  0  0  0  0
 32 31  3  0  0  0  0
 35 34  1  6  0  0  0
 36 35  1  0  0  0  0
 37 35  1  0  0  0  0
 38 32  1  1  0  0  0
 38 33  1  0  0  0  0
 38 36  1  0  0  0  0
 39 33  1  0  0  0  0
 39 37  1  0  0  0  0
 40  7  1  0  0  0  0
 40 44  1  0  0  0  0
 41 43  1  0  0  0  0
 43 42  1  0  0  0  0
 44 43  2  0  0  0  0
M  END
>  <MODEL>
6

>  <REMARK>
 VINA RESULT:      -7.4      3.827      8.145
  Name = 
  8 active torsions:
  status: ('A' for Active; 'I' for Inactive)
    1  A    between atoms: C_3  and  C_22
    2  A    between atoms: O_4  and  C_30
    3  A    between atoms: O_4  and  C_39
    4  A    between atoms: C_10  and  C_41
    5  A    between atoms: C_11  and  C_24
    6  A    between atoms: C_11  and  N_43
    7  A    between atoms: C_30  and  C_38
    8  A    between atoms: C_34  and  C_42
                            x       y       z     vdW  Elec       q    Type
                         _______ _______ _______ _____ _____    ______ ____

>  <TORSDO>
F 8

$$$$
=
 OpenBabel10232408003D

 44 49  0  0  1  0  0  0  0  0999 V2000
  194.8090  173.9940  135.5260 N   0  0  0  0  0  0  0  0  0  0  0  0
  190.4980  175.3570  137.3390 C   0  0  0  0  0  0  0  0  0  0  0  0
  190.4170  172.8550  135.3760 C   0  0  0  0  0  3  0  0  0  0  0  0
  193.7020  174.4870  136.0890 C   0  0  0  0  0  0  0  0  0  0  0  0
  189.4310  174.5560  136.9130 C   0  0  0  0  0  3  0  0  0  0  0  0
  192.3650  174.2020  136.0850 C   0  0  0  0  0  0  0  0  0  0  0  0
  195.7590  174.8300  136.0440 C   0  0  0  0  0  0  0  0  0  0  0  0
  192.8200  175.9450  137.4260 O   0  0  0  0  0  0  0  0  0  0  0  0
  195.2530  175.8110  136.9260 C   0  0  0  0  0  3  0  0  0  0  0  0
  191.8340  175.1730  136.9570 C   0  0  0  0  0  0  0  0  0  0  0  0
  193.9220  175.5040  136.8810 C   0  0  0  0  0  0  0  0  0  0  0  0
  191.7630  173.1790  135.3790 C   0  0  0  0  0  3  0  0  0  0  0  0
  189.3660  173.4570  136.0590 C   0  0  0  0  0  0  0  0  0  0  0  0
  186.4830  178.7490  141.5660 C   0  0  0  0  0  0  0  0  0  0  0  0
  188.3340  178.2550  139.9750 C   0  0  0  0  0  0  0  0  0  0  0  0
  190.8620  176.5420  139.5700 C   0  0  0  0  0  3  0  0  0  0  0  0
  188.9650  178.6180  138.6720 C   0  0  0  0  0  2  0  0  0  0  0  0
  185.3190  179.1850  141.7700 O   0  0  0  0  0  0  0  0  0  0  0  0
  190.1620  176.4670  138.2660 C   0  0  0  0  0  0  0  0  0  0  0  0
  187.0210  178.7590  140.2430 N   0  0  0  0  0  0  0  0  0  0  0  0
  190.3630  177.0180  140.7170 C   0  0  0  0  0  3  0  0  0  0  0  0
  189.0090  177.5720  140.9230 C   0  0  2  0  0  3  0  0  0  0  0  0
  189.2920  177.4040  137.8690 C   0  0  0  0  0  3  0  0  0  0  0  0
  187.3650  178.3170  142.7040 C   0  0  2  0  0  3  0  0  0  0  0  0
  188.3500  177.2420  142.2370 C   0  0  0  0  0  2  0  0  0  0  0  0
  186.7500  176.6460  144.3020 O   0  0  0  0  0  0  0  0  0  0  0  0
  186.5790  177.8230  143.8790 C   0  0  0  0  0  0  0  0  0  0  0  0
  185.6500  178.6830  144.4790 O   0  0  0  0  0  0  0  0  0  0  0  0
  184.4740  178.7870  146.4850 O   0  0  0  0  0  0  0  0  0  0  0  0
  185.5570  178.9240  145.8550 C   0  0  0  0  0  3  0  0  0  0  0  0
  188.0640  172.8890  135.8550 C   0  0  0  0  0  0  0  0  0  0  0  0
  186.9690  172.4140  135.6790 C   0  0  0  0  0  0  0  0  0  0  0  0
  185.7200  170.3130  135.4930 C   0  0  0  0  0  2  0  0  0  0  0  0
  182.3190  172.1530  137.3360 C   0  0  0  0  0  1  0  0  0  0  0  0
  183.5340  171.3890  136.8550 C   0  0  2  0  0  3  0  0  0  0  0  0
  184.6610  172.3720  136.5140 C   0  0  0  0  0  2  0  0  0  0  0  0
  183.1650  170.5240  135.6540 C   0  0  0  0  0  2  0  0  0  0  0  0
  185.6420  171.8360  135.4600 C   0  0  1  0  0  3  0  0  0  0  0  0
  184.3570  169.6810  135.1780 C   0  0  0  0  0  2  0  0  0  0  0  0
  197.2110  174.6730  135.7370 C   0  0  0  0  0  2  0  0  0  0  0  0
  198.5720  172.7040  137.3460 C   0  0  0  0  0  1  0  0  0  0  0  0
  199.4300  174.6560  138.7790 C   0  0  0  0  0  1  0  0  0  0  0  0
  198.6320  174.1760  137.6160 C   0  0  0  0  0  0  0  0  0  0  0  0
  198.0050  175.0350  136.8870 N   0  0  0  0  0  0  0  0  0  0  0  0
  1  7  2  0  0  0  0
  1  4  1  0  0  0  0
  2 19  1  0  0  0  0
  3 12  2  0  0  0  0
  3 13  1  0  0  0  0
  4 11  1  0  0  0  0
  5  2  1  0  0  0  0
  6  4  2  0  0  0  0
  6 10  1  0  0  0  0
  7  9  1  0  0  0  0
 10  2  2  0  0  0  0
 10  8  1  0  0  0  0
 11  9  2  0  0  0  0
 11  8  1  0  0  0  0
 12  6  1  0  0  0  0
 13  5  2  0  0  0  0
 14 18  2  0  0  0  0
 14 24  1  0  0  0  0
 15 20  2  0  0  0  0
 15 22  1  0  0  0  0
 16 21  2  0  0  0  0
 17 15  1  0  0  0  0
 19 16  1  0  0  0  0
 20 14  1  0  0  0  0
 22 21  1  6  0  0  0
 22 25  1  0  0  0  0
 23 19  2  0  0  0  0
 23 17  1  0  0  0  0
 24 27  1  1  0  0  0
 25 24  1  0  0  0  0
 27 26  2  0  0  0  0
 27 28  1  0  0  0  0
 28 30  1  0  0  0  0
 30 29  2  0  0  0  0
 31 13  1  0  0  0  0
 32 31  3  0  0  0  0
 35 34  1  6  0  0  0
 36 35  1  0  0  0  0
 37 35  1  0  0  0  0
 38 33  1  0  0  0  0
 38 32  1  1  0  0  0
 38 36  1  0  0  0  0
 39 33  1  0  0  0  0
 39 37  1  0  0  0  0
 40  7  1  0  0  0  0
 40 44  1  0  0  0  0
 41 43  1  0  0  0  0
 43 42  1  0  0  0  0
 44 43  2  0  0  0  0
M  END
>  <MODEL>
7

>  <REMARK>
 VINA RESULT:      -7.3      3.158      7.049
  Name = 
  8 active torsions:
  status: ('A' for Active; 'I' for Inactive)
    1  A    between atoms: C_3  and  C_22
    2  A    between atoms: O_4  and  C_30
    3  A    between atoms: O_4  and  C_39
    4  A    between atoms: C_10  and  C_41
    5  A    between atoms: C_11  and  C_24
    6  A    between atoms: C_11  and  N_43
    7  A    between atoms: C_30  and  C_38
    8  A    between atoms: C_34  and  C_42
                            x       y       z     vdW  Elec       q    Type
                         _______ _______ _______ _____ _____    ______ ____

>  <TORSDO>
F 8

$$$$
=
 OpenBabel10232408003D

 44 49  0  0  1  0  0  0  0  0999 V2000
  185.8730  176.1250  135.8240 N   0  0  0  0  0  0  0  0  0  0  0  0
  189.7330  176.5180  138.7700 C   0  0  0  0  0  0  0  0  0  0  0  0
  190.1370  174.6240  136.2460 C   0  0  0  0  0  3  0  0  0  0  0  0
  186.8400  176.3190  136.7250 C   0  0  0  0  0  0  0  0  0  0  0  0
  190.8450  175.7830  138.3410 C   0  0  0  0  0  3  0  0  0  0  0  0
  188.1280  175.9010  136.9160 C   0  0  0  0  0  0  0  0  0  0  0  0
  184.8790  176.9120  136.3370 C   0  0  0  0  0  0  0  0  0  0  0  0
  187.4850  177.3190  138.5350 O   0  0  0  0  0  0  0  0  0  0  0  0
  185.2300  177.5950  137.5230 C   0  0  0  0  0  3  0  0  0  0  0  0
  188.5030  176.5680  138.1000 C   0  0  0  0  0  0  0  0  0  0  0  0
  186.5090  177.1410  137.6870 C   0  0  0  0  0  0  0  0  0  0  0  0
  188.8270  175.0430  136.0890 C   0  0  0  0  0  3  0  0  0  0  0  0
  191.0500  174.9500  137.2430 C   0  0  0  0  0  0  0  0  0  0  0  0
  188.9900  177.6370  145.3800 C   0  0  0  0  0  0  0  0  0  0  0  0
  189.3740  178.0610  142.9560 C   0  0  0  0  0  0  0  0  0  0  0  0
  191.2580  177.4370  140.5990 C   0  0  0  0  0  3  0  0  0  0  0  0
  188.9050  178.8000  141.7480 C   0  0  0  0  0  2  0  0  0  0  0  0
  188.1990  177.5960  146.3580 O   0  0  0  0  0  0  0  0  0  0  0  0
  189.8990  177.2970  140.0230 C   0  0  0  0  0  0  0  0  0  0  0  0
  188.5050  178.0200  144.0930 N   0  0  0  0  0  2  0  0  0  0  0  0
  191.5660  177.5410  141.8970 C   0  0  0  0  0  3  0  0  0  0  0  0
  190.6170  177.5410  143.0300 C   0  0  0  0  0  0  0  0  0  0  0  0
  188.8330  177.9060  140.5560 C   0  0  0  0  0  3  0  0  0  0  0  0
  190.4640  177.3970  145.5560 C   0  0  2  0  0  3  0  0  0  0  0  0
  191.0680  176.8210  144.2730 C   0  0  0  0  0  2  0  0  0  0  0  0
  189.8550  176.2310  147.5550 O   0  0  0  0  0  0  0  0  0  0  0  0
  190.7600  176.4990  146.7160 C   0  0  0  0  0  0  0  0  0  0  0  0
  192.0550  175.9820  146.8560 O   0  0  0  0  0  0  0  0  0  0  0  0
  192.8880  176.7550  148.8880 O   0  0  0  0  0  0  0  0  0  0  0  0
  192.7180  175.8060  148.0770 C   0  0  0  0  0  3  0  0  0  0  0  0
  192.3510  174.3530  137.1350 C   0  0  0  0  0  0  0  0  0  0  0  0
  193.4430  173.8480  137.0420 C   0  0  0  0  0  0  0  0  0  0  0  0
  195.7260  173.8560  137.9340 C   0  0  0  0  0  2  0  0  0  0  0  0
  196.0120  169.6320  137.2820 C   0  0  0  0  0  1  0  0  0  0  0  0
  195.9170  171.0800  137.7120 C   0  0  2  0  0  3  0  0  0  0  0  0
  194.6550  171.7150  137.1140 C   0  0  0  0  0  2  0  0  0  0  0  0
  197.1740  171.8350  137.2910 C   0  0  0  0  0  2  0  0  0  0  0  0
  194.7670  173.2350  136.9230 C   0  0  1  0  0  3  0  0  0  0  0  0
  197.1450  173.2930  137.7700 C   0  0  0  0  0  2  0  0  0  0  0  0
  183.5580  177.0680  135.6610 C   0  0  0  0  0  2  0  0  0  0  0  0
  181.3100  176.2130  137.2530 C   0  0  0  0  0  1  0  0  0  0  0  0
  181.3510  174.0260  135.9060 C   0  0  0  0  0  1  0  0  0  0  0  0
  181.9230  175.3750  136.1730 C   0  0  0  0  0  0  0  0  0  0  0  0
  182.9360  175.7770  135.4820 N   0  0  0  0  0  0  0  0  0  0  0  0
  1  7  2  0  0  0  0
  1  4  1  0  0  0  0
  2 19  1  0  0  0  0
  3 13  1  0  0  0  0
  4  6  2  0  0  0  0
  4 11  1  0  0  0  0
  5  2  1  0  0  0  0
  6 10  1  0  0  0  0
  7  9  1  0  0  0  0
  9 11  2  0  0  0  0
 10  8  1  0  0  0  0
 10  2  2  0  0  0  0
 11  8  1  0  0  0  0
 12  3  2  0  0  0  0
 12  6  1  0  0  0  0
 13  5  2  0  0  0  0
 14 24  1  0  0  0  0
 14 18  2  0  0  0  0
 15 22  2  0  0  0  0
 15 20  1  0  0  0  0
 16 21  2  0  0  0  0
 17 15  1  0  0  0  0
 19 23  2  0  0  0  0
 19 16  1  0  0  0  0
 20 14  1  0  0  0  0
 21 22  1  0  0  0  0
 22 25  1  0  0  0  0
 23 17  1  0  0  0  0
 24 27  1  1  0  0  0
 25 24  1  0  0  0  0
 27 28  1  0  0  0  0
 27 26  2  0  0  0  0
 28 30  1  0  0  0  0
 30 29  2  0  0  0  0
 31 13  1  0  0  0  0
 32 31  3  0  0  0  0
 35 34  1  6  0  0  0
 36 35  1  0  0  0  0
 37 35  1  0  0  0  0
 37 39  1  0  0  0  0
 38 32  1  1  0  0  0
 38 36  1  0  0  0  0
 38 33  1  0  0  0  0
 39 33  1  0  0  0  0
 40  7  1  0  0  0  0
 42 43  1  0  0  0  0
 43 41  1  0  0  0  0
 44 40  1  0  0  0  0
 44 43  2  0  0  0  0
M  END
>  <MODEL>
8

>  <REMARK>
 VINA RESULT:      -7.1      3.941     10.220
  Name = 
  8 active torsions:
  status: ('A' for Active; 'I' for Inactive)
    1  A    between atoms: C_3  and  C_22
    2  A    between atoms: O_4  and  C_30
    3  A    between atoms: O_4  and  C_39
    4  A    between atoms: C_10  and  C_41
    5  A    between atoms: C_11  and  C_24
    6  A    between atoms: C_11  and  N_43
    7  A    between atoms: C_30  and  C_38
    8  A    between atoms: C_34  and  C_42
                            x       y       z     vdW  Elec       q    Type
                         _______ _______ _______ _____ _____    ______ ____

>  <TORSDO>
F 8

$$$$
=
 OpenBabel10232408003D

 44 49  0  0  1  0  0  0  0  0999 V2000
  189.5310  178.3780  142.7340 N   0  0  0  0  0  0  0  0  0  0  0  0
  189.2220  176.6560  138.1870 C   0  0  0  0  0  0  0  0  0  0  0  0
  186.5180  177.8300  139.3830 C   0  0  0  0  0  3  0  0  0  0  0  0
  189.5950  177.8610  141.5040 C   0  0  0  0  0  0  0  0  0  0  0  0
  187.9470  176.7840  137.6240 C   0  0  0  0  0  3  0  0  0  0  0  0
  188.7390  177.6610  140.4570 C   0  0  0  0  0  0  0  0  0  0  0  0
  190.8260  178.2240  143.1480 C   0  0  0  0  0  0  0  0  0  0  0  0
  190.8130  176.9610  139.9550 O   0  0  0  0  0  0  0  0  0  0  0  0
  191.6790  177.6390  142.1860 C   0  0  0  0  0  3  0  0  0  0  0  0
  189.5680  177.0720  139.4800 C   0  0  0  0  0  0  0  0  0  0  0  0
  190.7870  177.4420  141.1690 C   0  0  0  0  0  0  0  0  0  0  0  0
  187.3990  177.9990  140.4370 C   0  0  0  0  0  3  0  0  0  0  0  0
  186.7490  177.2940  138.1210 C   0  0  0  0  0  0  0  0  0  0  0  0
  195.5690  175.3880  136.2900 C   0  0  0  0  0  0  0  0  0  0  0  0
  193.0920  175.6230  136.1900 C   0  0  0  0  0  0  0  0  0  0  0  0
  190.4530  174.5700  137.3810 C   0  0  0  0  0  3  0  0  0  0  0  0
  191.9470  176.2900  135.5030 C   0  0  0  0  0  2  0  0  0  0  0  0
  196.7110  175.8780  136.0870 O   0  0  0  0  0  0  0  0  0  0  0  0
  190.2650  176.0400  137.3290 C   0  0  0  0  0  0  0  0  0  0  0  0
  194.4050  176.1450  135.9570 N   0  0  0  0  0  0  0  0  0  0  0  0
  191.6010  173.9070  137.2040 C   0  0  0  0  0  3  0  0  0  0  0  0
  192.9240  174.4990  136.9180 C   0  0  2  0  0  3  0  0  0  0  0  0
  190.9550  176.8170  136.4860 C   0  0  0  0  0  3  0  0  0  0  0  0
  195.4000  173.9750  136.7750 C   0  0  2  0  0  3  0  0  0  0  0  0
  194.1050  173.8380  137.5780 C   0  0  0  0  0  2  0  0  0  0  0  0
  197.5200  172.8960  137.0350 O   0  0  0  0  0  0  0  0  0  0  0  0
  196.5670  173.5090  137.5900 C   0  0  0  0  0  0  0  0  0  0  0  0
  196.5650  173.7530  138.9700 O   0  0  0  0  0  0  0  0  0  0  0  0
  198.2190  175.3360  139.3930 O   0  0  0  0  0  0  0  0  0  0  0  0
  197.0430  174.9210  139.5760 C   0  0  0  0  0  3  0  0  0  0  0  0
  185.6240  177.2510  137.2300 C   0  0  0  0  0  0  0  0  0  0  0  0
  184.6810  177.2170  136.4790 C   0  0  0  0  0  0  0  0  0  0  0  0
  182.9850  175.7560  135.4810 C   0  0  0  0  0  2  0  0  0  0  0  0
  180.1630  178.9800  135.5200 C   0  0  0  0  0  1  0  0  0  0  0  0
  181.0400  177.7530  135.6480 C   0  0  2  0  0  3  0  0  0  0  0  0
  182.4670  178.1740  136.0220 C   0  0  0  0  0  2  0  0  0  0  0  0
  181.0170  176.9560  134.3460 C   0  0  0  0  0  2  0  0  0  0  0  0
  183.5400  177.1750  135.5630 C   0  0  1  0  0  3  0  0  0  0  0  0
  181.8420  175.6670  134.4580 C   0  0  0  0  0  2  0  0  0  0  0  0
  191.2940  178.6880  144.4870 C   0  0  0  0  0  2  0  0  0  0  0  0
  189.7850  177.0770  146.3430 C   0  0  0  0  0  1  0  0  0  0  0  0
  191.9410  175.7370  146.7340 C   0  0  0  0  0  1  0  0  0  0  0  0
  191.2340  176.8490  146.0400 C   0  0  0  0  0  0  0  0  0  0  0  0
  191.8890  177.5910  145.2130 N   0  0  0  0  0  0  0  0  0  0  0  0
  1  7  2  0  0  0  0
  2 10  2  0  0  0  0
  3 12  2  0  0  0  0
  4  1  1  0  0  0  0
  5 13  2  0  0  0  0
  5  2  1  0  0  0  0
  6  4  2  0  0  0  0
  7 40  1  0  0  0  0
  8 11  1  0  0  0  0
  9  7  1  0  0  0  0
 10  8  1  0  0  0  0
 10  6  1  0  0  0  0
 11  4  1  0  0  0  0
 11  9  2  0  0  0  0
 12  6  1  0  0  0  0
 13  3  1  0  0  0  0
 14 24  1  0  0  0  0
 15 22  1  0  0  0  0
 17 15  1  0  0  0  0
 17 23  1  0  0  0  0
 18 14  2  0  0  0  0
 19 16  1  0  0  0  0
 19  2  1  0  0  0  0
 20 15  2  0  0  0  0
 20 14  1  0  0  0  0
 21 16  2  0  0  0  0
 22 21  1  1  0  0  0
 22 25  1  0  0  0  0
 23 19  2  0  0  0  0
 24 25  1  0  0  0  0
 24 27  1  1  0  0  0
 26 27  2  0  0  0  0
 27 28  1  0  0  0  0
 28 30  1  0  0  0  0
 29 30  2  0  0  0  0
 31 13  1  0  0  0  0
 32 31  3  0  0  0  0
 33 38  1  0  0  0  0
 35 34  1  6  0  0  0
 35 36  1  0  0  0  0
 37 39  1  0  0  0  0
 37 35  1  0  0  0  0
 38 36  1  0  0  0  0
 38 32  1  1  0  0  0
 39 33  1  0  0  0  0
 40 44  1  0  0  0  0
 43 41  1  0  0  0  0
 43 42  1  0  0  0  0
 44 43  2  0  0  0  0
M  END
>  <MODEL>
9

>  <REMARK>
 VINA RESULT:      -7.0      3.667     10.216
  Name = 
  8 active torsions:
  status: ('A' for Active; 'I' for Inactive)
    1  A    between atoms: C_3  and  C_22
    2  A    between atoms: O_4  and  C_30
    3  A    between atoms: O_4  and  C_39
    4  A    between atoms: C_10  and  C_41
    5  A    between atoms: C_11  and  C_24
    6  A    between atoms: C_11  and  N_43
    7  A    between atoms: C_30  and  C_38
    8  A    between atoms: C_34  and  C_42
                            x       y       z     vdW  Elec       q    Type
                         _______ _______ _______ _____ _____    ______ ____

>  <TORSDO>
F 8

$$$$
