=
 OpenBabel10232412313D

 29 30  0  0  1  0  0  0  0  0999 V2000
  188.3250  178.0630  141.9720 C   0  0  0  0  0  0  0  0  0  0  0  0
  190.1500  175.9120  142.6510 C   0  0  0  0  0  2  0  0  0  0  0  0
  187.3880  178.0800  144.3240 C   0  0  2  0  0  3  0  0  0  0  0  0
  187.4830  178.9350  141.6250 O   0  0  0  0  0  0  0  0  0  0  0  0
  189.3540  177.5090  145.9790 C   0  0  1  0  0  3  0  0  0  0  0  0
  189.4900  176.7550  143.6960 C   0  0  0  0  0  0  0  0  0  0  0  0
  189.3080  177.5660  140.9860 C   0  0  0  0  0  0  0  0  0  0  0  0
  188.3630  177.5820  143.3320 N   0  0  0  0  0  0  0  0  0  0  0  0
  189.9250  176.7000  144.9160 N   0  0  0  0  0  0  0  0  0  0  0  0
  190.1700  176.6020  141.3160 C   0  0  0  0  0  3  0  0  0  0  0  0
  187.5600  177.2910  145.9700 S   0  0  0  0  0  0  0  0  0  0  0  0
  189.9100  177.0730  147.3250 C   0  0  0  0  0  2  0  0  0  0  0  0
  191.4280  176.9640  147.2840 C   0  0  0  0  0  2  0  0  0  0  0  0
  191.8880  175.5470  147.5860 C   0  0  0  0  0  3  0  0  0  0  0  0
  192.8530  175.5650  148.5760 F   0  0  0  0  0  0  0  0  0  0  0  0
  192.4170  174.9840  146.4410 F   0  0  0  0  0  0  0  0  0  0  0  0
  189.3690  178.1470  139.6160 C   0  0  0  0  0  2  0  0  0  0  0  0
  189.3250  176.8160  138.3730 S   0  0  0  0  0  0  0  0  0  0  0  0
  187.6470  177.1940  137.7420 C   0  0  1  0  0  3  0  0  0  0  0  0
  187.3420  179.2590  136.8730 O   0  0  0  0  0  1  0  0  0  0  0  0
  187.2570  178.5690  138.0330 N   0  0  0  0  0  2  0  0  0  0  0  0
  187.5000  176.8560  136.2580 C   0  0  1  0  0  3  0  0  0  0  0  0
  188.7210  176.0950  135.7760 C   0  0  0  0  0  1  0  0  0  0  0  0
  186.3000  176.0720  136.0050 N   0  0  0  0  0  2  0  0  0  0  0  0
  186.3350  174.9360  136.9080 C   0  0  0  0  0  1  0  0  0  0  0  0
  185.9600  177.8500  143.8350 C   0  0  0  0  0  2  0  0  0  0  0  0
  185.0980  179.0830  144.0540 C   0  0  0  0  0  2  0  0  0  0  0  0
  182.6460  178.8160  144.2590 C   0  0  0  0  0  1  0  0  0  0  0  0
  183.9610  178.7690  145.0080 C   0  0  0  0  0  2  0  0  0  0  0  0
  1  8  1  0  0  0  0
  2  6  1  0  0  0  0
  3 26  1  6  0  0  0
  3 11  1  0  0  0  0
  4  1  2  0  0  0  0
  5 12  1  1  0  0  0
  6  9  2  0  0  0  0
  7 10  2  0  0  0  0
  7  1  1  0  0  0  0
  8  6  1  0  0  0  0
  8  3  1  0  0  0  0
  9  5  1  0  0  0  0
 10  2  1  0  0  0  0
 11  5  1  0  0  0  0
 13 12  1  0  0  0  0
 13 14  1  0  0  0  0
 14 15  1  0  0  0  0
 16 14  1  0  0  0  0
 17  7  1  0  0  0  0
 18 17  1  0  0  0  0
 19 21  1  6  0  0  0
 19 18  1  0  0  0  0
 20 21  1  0  0  0  0
 22 23  1  1  0  0  0
 22 19  1  0  0  0  0
 24 22  1  0  0  0  0
 24 25  1  0  0  0  0
 26 27  1  0  0  0  0
 27 29  1  0  0  0  0
 28 29  1  0  0  0  0
M  END
>  <MODEL>
1

>  <REMARK>
 VINA RESULT:      -7.1      0.000      0.000
  Name = 
  12 active torsions:
  status: ('A' for Active; 'I' for Inactive)
    1  A    between atoms: C_4  and  C_13
    2  A    between atoms: C_5  and  C_24
    3  A    between atoms: N_7  and  C_21
    4  A    between atoms: C_8  and  C_11
    5  A    between atoms: C_11  and  C_13
    6  A    between atoms: C_14  and  C_21
    7  A    between atoms: C_14  and  S_26
    8  A    between atoms: C_14  and  N_29
    9  A    between atoms: C_15  and  C_19
   10  A    between atoms: C_16  and  C_25
   11  A    between atoms: C_19  and  S_26
   12  A    between atoms: C_24  and  C_25
                            x       y       z     vdW  Elec       q    Type
                         _______ _______ _______ _____ _____    ______ ____

>  <TORSDO>
F 12

$$$$
=
 OpenBabel10232412313D

 29 30  0  0  1  0  0  0  0  0999 V2000
  188.1480  178.2250  141.3290 C   0  0  0  0  0  0  0  0  0  0  0  0
  190.0990  176.2030  142.0520 C   0  0  0  0  0  2  0  0  0  0  0  0
  187.1310  178.1460  143.6460 C   0  0  2  0  0  3  0  0  0  0  0  0
  187.2580  179.0400  140.9610 O   0  0  0  0  0  0  0  0  0  0  0  0
  189.0730  177.6970  145.3650 C   0  0  1  0  0  3  0  0  0  0  0  0
  189.3430  176.9830  143.0810 C   0  0  0  0  0  0  0  0  0  0  0  0
  189.1990  177.8130  140.3750 C   0  0  0  0  0  0  0  0  0  0  0  0
  188.1730  177.7320  142.6850 N   0  0  0  0  0  0  0  0  0  0  0  0
  189.7380  176.9440  144.3150 N   0  0  0  0  0  0  0  0  0  0  0  0
  190.1170  176.9090  140.7260 C   0  0  0  0  0  3  0  0  0  0  0  0
  187.3010  177.3510  145.2890 S   0  0  0  0  0  0  0  0  0  0  0  0
  189.6120  177.2860  146.7260 C   0  0  0  0  0  2  0  0  0  0  0  0
  188.4810  176.9750  147.6950 C   0  0  0  0  0  2  0  0  0  0  0  0
  188.3760  178.0370  148.7780 C   0  0  0  0  0  3  0  0  0  0  0  0
  187.4840  179.0200  148.3910 F   0  0  0  0  0  0  0  0  0  0  0  0
  189.6190  178.6030  148.9860 F   0  0  0  0  0  0  0  0  0  0  0  0
  189.2660  178.4140  139.0130 C   0  0  0  0  0  2  0  0  0  0  0  0
  189.0470  177.1200  137.7500 S   0  0  0  0  0  0  0  0  0  0  0  0
  187.2460  177.3690  137.5260 C   0  0  1  0  0  3  0  0  0  0  0  0
  185.6360  178.8280  138.1530 O   0  0  0  0  0  1  0  0  0  0  0  0
  186.8790  178.7770  137.6220 N   0  0  0  0  0  2  0  0  0  0  0  0
  186.7310  176.7260  136.2370 C   0  0  1  0  0  3  0  0  0  0  0  0
  187.3660  177.3970  135.0330 C   0  0  0  0  0  1  0  0  0  0  0  0
  187.0060  175.2970  136.2070 N   0  0  0  0  0  2  0  0  0  0  0  0
  187.2340  174.9370  134.8190 C   0  0  0  0  0  1  0  0  0  0  0  0
  185.7410  177.8200  143.1030 C   0  0  0  0  0  2  0  0  0  0  0  0
  184.7960  179.0000  143.2660 C   0  0  0  0  0  2  0  0  0  0  0  0
  182.4670  178.8430  144.0890 C   0  0  0  0  0  1  0  0  0  0  0  0
  183.9260  178.8120  144.4950 C   0  0  0  0  0  2  0  0  0  0  0  0
  1  8  1  0  0  0  0
  2  6  1  0  0  0  0
  3 26  1  6  0  0  0
  3 11  1  0  0  0  0
  4  1  2  0  0  0  0
  5 12  1  1  0  0  0
  6  9  2  0  0  0  0
  7 10  2  0  0  0  0
  7  1  1  0  0  0  0
  8  6  1  0  0  0  0
  8  3  1  0  0  0  0
  9  5  1  0  0  0  0
 10  2  1  0  0  0  0
 11  5  1  0  0  0  0
 12 13  1  0  0  0  0
 13 14  1  0  0  0  0
 14 16  1  0  0  0  0
 15 14  1  0  0  0  0
 17  7  1  0  0  0  0
 18 17  1  0  0  0  0
 19 21  1  6  0  0  0
 19 18  1  0  0  0  0
 21 20  1  0  0  0  0
 22 23  1  6  0  0  0
 22 19  1  0  0  0  0
 24 22  1  0  0  0  0
 25 24  1  0  0  0  0
 26 27  1  0  0  0  0
 27 29  1  0  0  0  0
 28 29  1  0  0  0  0
M  END
>  <MODEL>
2

>  <REMARK>
 VINA RESULT:      -7.1      1.761      2.049
  Name = 
  12 active torsions:
  status: ('A' for Active; 'I' for Inactive)
    1  A    between atoms: C_4  and  C_13
    2  A    between atoms: C_5  and  C_24
    3  A    between atoms: N_7  and  C_21
    4  A    between atoms: C_8  and  C_11
    5  A    between atoms: C_11  and  C_13
    6  A    between atoms: C_14  and  C_21
    7  A    between atoms: C_14  and  S_26
    8  A    between atoms: C_14  and  N_29
    9  A    between atoms: C_15  and  C_19
   10  A    between atoms: C_16  and  C_25
   11  A    between atoms: C_19  and  S_26
   12  A    between atoms: C_24  and  C_25
                            x       y       z     vdW  Elec       q    Type
                         _______ _______ _______ _____ _____    ______ ____

>  <TORSDO>
F 12

$$$$
=
 OpenBabel10232412313D

 29 30  0  0  1  0  0  0  0  0999 V2000
  188.2670  178.0930  141.0600 C   0  0  0  0  0  0  0  0  0  0  0  0
  190.1800  176.1280  142.0060 C   0  0  0  0  0  2  0  0  0  0  0  0
  187.1720  178.2030  143.3400 C   0  0  2  0  0  3  0  0  0  0  0  0
  187.3940  178.8780  140.5970 O   0  0  0  0  0  0  0  0  0  0  0  0
  189.0540  177.8870  145.1530 C   0  0  1  0  0  3  0  0  0  0  0  0
  189.3950  176.9920  142.9440 C   0  0  0  0  0  0  0  0  0  0  0  0
  189.3460  177.6020  140.1770 C   0  0  0  0  0  0  0  0  0  0  0  0
  188.2440  177.7100  142.4500 N   0  0  0  0  0  0  0  0  0  0  0  0
  189.7490  177.0500  144.1900 N   0  0  0  0  0  0  0  0  0  0  0  0
  190.2460  176.7260  140.6300 C   0  0  0  0  0  3  0  0  0  0  0  0
  187.2840  177.5420  145.0460 S   0  0  0  0  0  0  0  0  0  0  0  0
  189.5450  177.5840  146.5600 C   0  0  0  0  0  2  0  0  0  0  0  0
  188.4070  177.1050  147.4490 C   0  0  0  0  0  2  0  0  0  0  0  0
  188.2600  177.9850  148.6800 C   0  0  0  0  0  3  0  0  0  0  0  0
  187.4180  179.0470  148.4020 F   0  0  0  0  0  0  0  0  0  0  0  0
  189.5010  178.4690  149.0470 F   0  0  0  0  0  0  0  0  0  0  0  0
  189.4620  178.0920  138.7740 C   0  0  0  0  0  2  0  0  0  0  0  0
  190.5970  177.0220  137.8330 S   0  0  0  0  0  0  0  0  0  0  0  0
  189.3120  176.2590  136.7730 C   0  0  1  0  0  3  0  0  0  0  0  0
  190.1330  174.3420  137.6450 O   0  0  0  0  0  1  0  0  0  0  0  0
  188.9840  174.9070  137.2090 N   0  0  0  0  0  2  0  0  0  0  0  0
  188.0680  177.1420  136.6510 C   0  0  1  0  0  3  0  0  0  0  0  0
  187.9770  177.7190  135.2500 C   0  0  0  0  0  1  0  0  0  0  0  0
  186.8540  176.4000  136.9570 N   0  0  0  0  0  2  0  0  0  0  0  0
  185.9400  177.3250  137.6040 C   0  0  0  0  0  1  0  0  0  0  0  0
  185.8000  177.8400  142.7790 C   0  0  0  0  0  2  0  0  0  0  0  0
  184.8510  179.0280  142.8310 C   0  0  0  0  0  2  0  0  0  0  0  0
  183.7170  178.9950  145.0290 C   0  0  0  0  0  1  0  0  0  0  0  0
  183.5760  178.6520  143.5610 C   0  0  0  0  0  2  0  0  0  0  0  0
  1  8  1  0  0  0  0
  2  6  1  0  0  0  0
  3 26  1  6  0  0  0
  3 11  1  0  0  0  0
  4  1  2  0  0  0  0
  5 12  1  1  0  0  0
  6  9  2  0  0  0  0
  7 10  2  0  0  0  0
  7  1  1  0  0  0  0
  8  6  1  0  0  0  0
  8  3  1  0  0  0  0
  9  5  1  0  0  0  0
 10  2  1  0  0  0  0
 11  5  1  0  0  0  0
 12 13  1  0  0  0  0
 13 14  1  0  0  0  0
 14 16  1  0  0  0  0
 15 14  1  0  0  0  0
 17  7  1  0  0  0  0
 18 17  1  0  0  0  0
 19 21  1  1  0  0  0
 19 18  1  0  0  0  0
 21 20  1  0  0  0  0
 22 23  1  6  0  0  0
 22 19  1  0  0  0  0
 22 24  1  0  0  0  0
 24 25  1  0  0  0  0
 26 27  1  0  0  0  0
 27 29  1  0  0  0  0
 29 28  1  0  0  0  0
M  END
>  <MODEL>
3

>  <REMARK>
 VINA RESULT:      -7.0      2.164      2.515
  Name = 
  12 active torsions:
  status: ('A' for Active; 'I' for Inactive)
    1  A    between atoms: C_4  and  C_13
    2  A    between atoms: C_5  and  C_24
    3  A    between atoms: N_7  and  C_21
    4  A    between atoms: C_8  and  C_11
    5  A    between atoms: C_11  and  C_13
    6  A    between atoms: C_14  and  C_21
    7  A    between atoms: C_14  and  S_26
    8  A    between atoms: C_14  and  N_29
    9  A    between atoms: C_15  and  C_19
   10  A    between atoms: C_16  and  C_25
   11  A    between atoms: C_19  and  S_26
   12  A    between atoms: C_24  and  C_25
                            x       y       z     vdW  Elec       q    Type
                         _______ _______ _______ _____ _____    ______ ____

>  <TORSDO>
F 12

$$$$
=
 OpenBabel10232412313D

 29 30  0  0  1  0  0  0  0  0999 V2000
  188.3770  178.0480  141.9410 C   0  0  0  0  0  0  0  0  0  0  0  0
  190.1660  175.8770  142.6530 C   0  0  0  0  0  2  0  0  0  0  0  0
  187.4270  178.1030  144.2870 C   0  0  2  0  0  3  0  0  0  0  0  0
  187.5510  178.9290  141.5800 O   0  0  0  0  0  0  0  0  0  0  0  0
  189.3740  177.5200  145.9600 C   0  0  1  0  0  3  0  0  0  0  0  0
  189.5120  176.7410  143.6860 C   0  0  0  0  0  0  0  0  0  0  0  0
  189.3590  177.5260  140.9670 C   0  0  0  0  0  0  0  0  0  0  0  0
  188.4000  177.5810  143.3060 N   0  0  0  0  0  0  0  0  0  0  0  0
  189.9390  176.6910  144.9090 N   0  0  0  0  0  0  0  0  0  0  0  0
  190.2050  176.5520  141.3120 C   0  0  0  0  0  3  0  0  0  0  0  0
  187.5770  177.3290  145.9420 S   0  0  0  0  0  0  0  0  0  0  0  0
  189.9160  177.0900  147.3140 C   0  0  0  0  0  2  0  0  0  0  0  0
  191.4360  177.0080  147.2980 C   0  0  0  0  0  2  0  0  0  0  0  0
  191.9150  175.5950  147.5880 C   0  0  0  0  0  3  0  0  0  0  0  0
  192.9330  175.6250  148.5230 F   0  0  0  0  0  0  0  0  0  0  0  0
  192.3820  175.0220  146.4210 F   0  0  0  0  0  0  0  0  0  0  0  0
  189.4370  178.0920  139.5910 C   0  0  0  0  0  2  0  0  0  0  0  0
  188.4780  177.0580  138.4380 S   0  0  0  0  0  0  0  0  0  0  0  0
  189.9190  176.4180  137.5050 C   0  0  1  0  0  3  0  0  0  0  0  0
  191.2610  174.7900  138.3180 O   0  0  0  0  0  1  0  0  0  0  0  0
  190.0820  174.9800  137.6830 N   0  0  0  0  0  2  0  0  0  0  0  0
  189.8710  176.8140  136.0280 C   0  0  1  0  0  3  0  0  0  0  0  0
  189.6030  175.5900  135.1720 C   0  0  0  0  0  1  0  0  0  0  0  0
  188.8520  177.8230  135.7780 N   0  0  0  0  0  2  0  0  0  0  0  0
  188.1170  177.4030  134.5990 C   0  0  0  0  0  1  0  0  0  0  0  0
  185.9990  177.8890  143.7910 C   0  0  0  0  0  2  0  0  0  0  0  0
  185.1420  179.1220  144.0330 C   0  0  0  0  0  2  0  0  0  0  0  0
  182.7000  178.8220  144.3000 C   0  0  0  0  0  1  0  0  0  0  0  0
  184.0330  178.8090  145.0190 C   0  0  0  0  0  2  0  0  0  0  0  0
  1  8  1  0  0  0  0
  2  6  1  0  0  0  0
  3 26  1  6  0  0  0
  3 11  1  0  0  0  0
  4  1  2  0  0  0  0
  5 12  1  1  0  0  0
  6  9  2  0  0  0  0
  7 10  2  0  0  0  0
  7  1  1  0  0  0  0
  8  6  1  0  0  0  0
  8  3  1  0  0  0  0
  9  5  1  0  0  0  0
 10  2  1  0  0  0  0
 11  5  1  0  0  0  0
 13 12  1  0  0  0  0
 13 14  1  0  0  0  0
 14 15  1  0  0  0  0
 16 14  1  0  0  0  0
 17  7  1  0  0  0  0
 18 17  1  0  0  0  0
 19 21  1  6  0  0  0
 19 18  1  0  0  0  0
 21 20  1  0  0  0  0
 22 23  1  6  0  0  0
 22 19  1  0  0  0  0
 24 22  1  0  0  0  0
 25 24  1  0  0  0  0
 26 27  1  0  0  0  0
 27 29  1  0  0  0  0
 28 29  1  0  0  0  0
M  END
>  <MODEL>
4

>  <REMARK>
 VINA RESULT:      -7.0      1.619      1.823
  Name = 
  12 active torsions:
  status: ('A' for Active; 'I' for Inactive)
    1  A    between atoms: C_4  and  C_13
    2  A    between atoms: C_5  and  C_24
    3  A    between atoms: N_7  and  C_21
    4  A    between atoms: C_8  and  C_11
    5  A    between atoms: C_11  and  C_13
    6  A    between atoms: C_14  and  C_21
    7  A    between atoms: C_14  and  S_26
    8  A    between atoms: C_14  and  N_29
    9  A    between atoms: C_15  and  C_19
   10  A    between atoms: C_16  and  C_25
   11  A    between atoms: C_19  and  S_26
   12  A    between atoms: C_24  and  C_25
                            x       y       z     vdW  Elec       q    Type
                         _______ _______ _______ _____ _____    ______ ____

>  <TORSDO>
F 12

$$$$
=
 OpenBabel10232412313D

 29 30  0  0  1  0  0  0  0  0999 V2000
  190.0530  176.8620  142.0620 C   0  0  0  0  0  0  0  0  0  0  0  0
  187.8510  178.6190  141.3680 C   0  0  0  0  0  2  0  0  0  0  0  0
  189.4760  177.0260  144.5220 C   0  0  2  0  0  3  0  0  0  0  0  0
  191.0690  176.1690  142.3410 O   0  0  0  0  0  0  0  0  0  0  0  0
  186.8580  177.2050  144.7260 C   0  0  1  0  0  3  0  0  0  0  0  0
  187.9250  177.9190  142.6890 C   0  0  0  0  0  0  0  0  0  0  0  0
  189.7400  177.1600  140.6490 C   0  0  0  0  0  0  0  0  0  0  0  0
  189.1730  177.3260  143.1070 N   0  0  0  0  0  0  0  0  0  0  0  0
  186.8710  177.8890  143.4440 N   0  0  0  0  0  0  0  0  0  0  0  0
  188.7030  177.9390  140.3340 C   0  0  0  0  0  3  0  0  0  0  0  0
  188.2760  177.7660  145.6940 S   0  0  0  0  0  0  0  0  0  0  0  0
  185.5740  177.5250  145.4750 C   0  0  0  0  0  2  0  0  0  0  0  0
  185.3600  179.0280  145.5850 C   0  0  0  0  0  2  0  0  0  0  0  0
  184.1350  179.4690  144.8000 C   0  0  0  0  0  3  0  0  0  0  0  0
  183.3650  178.3680  144.4700 F   0  0  0  0  0  0  0  0  0  0  0  0
  184.5380  180.1090  143.6450 F   0  0  0  0  0  0  0  0  0  0  0  0
  190.5620  176.5780  139.5500 C   0  0  0  0  0  2  0  0  0  0  0  0
  190.0390  177.2700  137.9480 S   0  0  0  0  0  0  0  0  0  0  0  0
  189.9850  175.6720  137.0540 C   0  0  1  0  0  3  0  0  0  0  0  0
  190.0470  173.4430  137.4300 O   0  0  0  0  0  1  0  0  0  0  0  0
  190.6240  174.6050  137.8160 N   0  0  0  0  0  2  0  0  0  0  0  0
  188.5640  175.3010  136.6240 C   0  0  1  0  0  3  0  0  0  0  0  0
  187.5580  176.1860  137.3370 C   0  0  0  0  0  1  0  0  0  0  0  0
  188.3940  175.4230  135.1830 N   0  0  0  0  0  2  0  0  0  0  0  0
  187.0500  174.9710  134.8730 C   0  0  0  0  0  1  0  0  0  0  0  0
  190.8700  177.5290  144.8900 C   0  0  0  0  0  2  0  0  0  0  0  0
  191.6600  176.4640  145.6360 C   0  0  0  0  0  2  0  0  0  0  0  0
  192.4560  175.7310  147.8610 C   0  0  0  0  0  1  0  0  0  0  0  0
  191.4720  176.6220  147.1330 C   0  0  0  0  0  2  0  0  0  0  0  0
  1  4  2  0  0  0  0
  1  8  1  0  0  0  0
  2  6  1  0  0  0  0
  3 26  1  1  0  0  0
  3 11  1  0  0  0  0
  5 12  1  1  0  0  0
  5 11  1  0  0  0  0
  6  8  1  0  0  0  0
  6  9  2  0  0  0  0
  7  1  1  0  0  0  0
  8  3  1  0  0  0  0
  9  5  1  0  0  0  0
 10  7  2  0  0  0  0
 10  2  1  0  0  0  0
 12 13  1  0  0  0  0
 14 13  1  0  0  0  0
 15 14  1  0  0  0  0
 16 14  1  0  0  0  0
 17  7  1  0  0  0  0
 18 17  1  0  0  0  0
 19 21  1  1  0  0  0
 19 18  1  0  0  0  0
 20 21  1  0  0  0  0
 22 19  1  0  0  0  0
 22 23  1  1  0  0  0
 24 22  1  0  0  0  0
 25 24  1  0  0  0  0
 26 27  1  0  0  0  0
 27 29  1  0  0  0  0
 29 28  1  0  0  0  0
M  END
>  <MODEL>
5

>  <REMARK>
 VINA RESULT:      -6.9      3.376      5.251
  Name = 
  12 active torsions:
  status: ('A' for Active; 'I' for Inactive)
    1  A    between atoms: C_4  and  C_13
    2  A    between atoms: C_5  and  C_24
    3  A    between atoms: N_7  and  C_21
    4  A    between atoms: C_8  and  C_11
    5  A    between atoms: C_11  and  C_13
    6  A    between atoms: C_14  and  C_21
    7  A    between atoms: C_14  and  S_26
    8  A    between atoms: C_14  and  N_29
    9  A    between atoms: C_15  and  C_19
   10  A    between atoms: C_16  and  C_25
   11  A    between atoms: C_19  and  S_26
   12  A    between atoms: C_24  and  C_25
                            x       y       z     vdW  Elec       q    Type
                         _______ _______ _______ _____ _____    ______ ____

>  <TORSDO>
F 12

$$$$
=
 OpenBabel10232412313D

 29 30  0  0  1  0  0  0  0  0999 V2000
  189.9970  176.8500  141.9020 C   0  0  0  0  0  0  0  0  0  0  0  0
  187.8590  178.7140  141.2920 C   0  0  0  0  0  2  0  0  0  0  0  0
  189.5000  177.0090  144.3790 C   0  0  2  0  0  3  0  0  0  0  0  0
  190.9880  176.1080  142.1430 O   0  0  0  0  0  0  0  0  0  0  0  0
  186.8990  177.3050  144.6620 C   0  0  1  0  0  3  0  0  0  0  0  0
  187.9390  177.9950  142.6030 C   0  0  0  0  0  0  0  0  0  0  0  0
  189.6580  177.1790  140.5020 C   0  0  0  0  0  0  0  0  0  0  0  0
  189.1700  177.3400  142.9780 N   0  0  0  0  0  0  0  0  0  0  0  0
  186.9070  178.0030  143.3880 N   0  0  0  0  0  0  0  0  0  0  0  0
  188.6480  178.0090  140.2260 C   0  0  0  0  0  3  0  0  0  0  0  0
  188.3700  177.7880  145.5950 S   0  0  0  0  0  0  0  0  0  0  0  0
  185.6540  177.6730  145.4530 C   0  0  0  0  0  2  0  0  0  0  0  0
  185.2450  179.1160  145.1950 C   0  0  0  0  0  2  0  0  0  0  0  0
  183.8860  179.1910  144.5170 C   0  0  0  0  0  3  0  0  0  0  0  0
  182.8830  178.9830  145.4470 F   0  0  0  0  0  0  0  0  0  0  0  0
  183.8100  178.2210  143.5370 F   0  0  0  0  0  0  0  0  0  0  0  0
  190.4200  176.5740  139.3730 C   0  0  0  0  0  2  0  0  0  0  0  0
  189.8360  177.2600  137.7900 S   0  0  0  0  0  0  0  0  0  0  0  0
  189.1130  175.7010  137.1570 C   0  0  1  0  0  3  0  0  0  0  0  0
  187.2310  176.9500  137.2590 O   0  0  0  0  0  1  0  0  0  0  0  0
  187.6640  175.6700  137.3220 N   0  0  0  0  0  2  0  0  0  0  0  0
  189.5340  175.4150  135.7140 C   0  0  1  0  0  3  0  0  0  0  0  0
  189.9760  176.6990  135.0390 C   0  0  0  0  0  1  0  0  0  0  0  0
  190.6060  174.4320  135.6560 N   0  0  0  0  0  2  0  0  0  0  0  0
  190.5560  173.6720  136.8920 C   0  0  0  0  0  1  0  0  0  0  0  0
  190.9260  177.4430  144.7120 C   0  0  0  0  0  2  0  0  0  0  0  0
  191.6680  176.3560  145.4740 C   0  0  0  0  0  2  0  0  0  0  0  0
  192.4840  175.7000  147.7160 C   0  0  0  0  0  1  0  0  0  0  0  0
  191.4570  176.5220  146.9670 C   0  0  0  0  0  2  0  0  0  0  0  0
  1  4  2  0  0  0  0
  1  8  1  0  0  0  0
  2  6  1  0  0  0  0
  3 26  1  1  0  0  0
  3 11  1  0  0  0  0
  5 12  1  1  0  0  0
  5 11  1  0  0  0  0
  6  8  1  0  0  0  0
  6  9  2  0  0  0  0
  7  1  1  0  0  0  0
  8  3  1  0  0  0  0
  9  5  1  0  0  0  0
 10  7  2  0  0  0  0
 10  2  1  0  0  0  0
 13 12  1  0  0  0  0
 14 13  1  0  0  0  0
 14 15  1  0  0  0  0
 16 14  1  0  0  0  0
 17  7  1  0  0  0  0
 18 17  1  0  0  0  0
 19 21  1  6  0  0  0
 19 18  1  0  0  0  0
 20 21  1  0  0  0  0
 22 23  1  1  0  0  0
 22 19  1  0  0  0  0
 24 22  1  0  0  0  0
 24 25  1  0  0  0  0
 26 27  1  0  0  0  0
 27 29  1  0  0  0  0
 29 28  1  0  0  0  0
M  END
>  <MODEL>
6

>  <REMARK>
 VINA RESULT:      -6.6      3.186      5.201
  Name = 
  12 active torsions:
  status: ('A' for Active; 'I' for Inactive)
    1  A    between atoms: C_4  and  C_13
    2  A    between atoms: C_5  and  C_24
    3  A    between atoms: N_7  and  C_21
    4  A    between atoms: C_8  and  C_11
    5  A    between atoms: C_11  and  C_13
    6  A    between atoms: C_14  and  C_21
    7  A    between atoms: C_14  and  S_26
    8  A    between atoms: C_14  and  N_29
    9  A    between atoms: C_15  and  C_19
   10  A    between atoms: C_16  and  C_25
   11  A    between atoms: C_19  and  S_26
   12  A    between atoms: C_24  and  C_25
                            x       y       z     vdW  Elec       q    Type
                         _______ _______ _______ _____ _____    ______ ____

>  <TORSDO>
F 12

$$$$
=
 OpenBabel10232412313D

 29 30  0  0  1  0  0  0  0  0999 V2000
  186.7040  178.5990  141.8380 C   0  0  0  0  0  0  0  0  0  0  0  0
  188.1730  176.5410  143.2610 C   0  0  0  0  0  2  0  0  0  0  0  0
  185.1770  178.9560  143.8260 C   0  0  2  0  0  3  0  0  0  0  0  0
  186.0290  179.4250  141.1650 O   0  0  0  0  0  0  0  0  0  0  0  0
  186.6010  178.5980  146.0110 C   0  0  1  0  0  3  0  0  0  0  0  0
  187.3010  177.5310  143.9690 C   0  0  0  0  0  0  0  0  0  0  0  0
  187.8880  177.9570  141.2290 C   0  0  0  0  0  0  0  0  0  0  0  0
  186.3550  178.3130  143.2080 N   0  0  0  0  0  0  0  0  0  0  0  0
  187.3930  177.6410  145.2580 N   0  0  0  0  0  0  0  0  0  0  0  0
  188.5830  177.0370  141.9040 C   0  0  0  0  0  3  0  0  0  0  0  0
  184.8650  178.4030  145.5460 S   0  0  0  0  0  0  0  0  0  0  0  0
  186.7570  178.3480  147.5020 C   0  0  0  0  0  2  0  0  0  0  0  0
  187.7820  177.2560  147.7730 C   0  0  0  0  0  2  0  0  0  0  0  0
  189.0430  177.8280  148.4010 C   0  0  0  0  0  3  0  0  0  0  0  0
  189.0390  179.2070  148.2960 F   0  0  0  0  0  0  0  0  0  0  0  0
  190.1500  177.3230  147.7460 F   0  0  0  0  0  0  0  0  0  0  0  0
  188.3410  178.3400  139.8620 C   0  0  0  0  0  2  0  0  0  0  0  0
  189.9560  177.5760  139.5050 S   0  0  0  0  0  0  0  0  0  0  0  0
  189.4690  176.8320  137.9030 C   0  0  1  0  0  3  0  0  0  0  0  0
  189.1270  178.4020  136.3130 O   0  0  0  0  0  1  0  0  0  0  0  0
  188.4680  177.6380  137.2140 N   0  0  0  0  0  2  0  0  0  0  0  0
  190.6780  176.5330  137.0150 C   0  0  1  0  0  3  0  0  0  0  0  0
  191.9390  176.4810  137.8580 C   0  0  0  0  0  1  0  0  0  0  0  0
  190.5150  175.2790  136.2950 N   0  0  0  0  0  2  0  0  0  0  0  0
  191.1280  175.4540  134.9900 C   0  0  0  0  0  1  0  0  0  0  0  0
  183.9210  178.6780  143.0030 C   0  0  0  0  0  2  0  0  0  0  0  0
  182.6670  179.0940  143.7550 C   0  0  0  0  0  2  0  0  0  0  0  0
  181.8230  178.7120  141.4600 C   0  0  0  0  0  1  0  0  0  0  0  0
  181.4330  178.8090  142.9200 C   0  0  0  0  0  2  0  0  0  0  0  0
  1  8  1  0  0  0  0
  2  6  1  0  0  0  0
  3 26  1  6  0  0  0
  3 11  1  0  0  0  0
  4  1  2  0  0  0  0
  5 12  1  1  0  0  0
  6  9  2  0  0  0  0
  7  1  1  0  0  0  0
  7 10  2  0  0  0  0
  8  3  1  0  0  0  0
  8  6  1  0  0  0  0
  9  5  1  0  0  0  0
 10  2  1  0  0  0  0
 11  5  1  0  0  0  0
 12 13  1  0  0  0  0
 13 14  1  0  0  0  0
 15 14  1  0  0  0  0
 16 14  1  0  0  0  0
 17  7  1  0  0  0  0
 18 17  1  0  0  0  0
 19 21  1  6  0  0  0
 19 18  1  0  0  0  0
 20 21  1  0  0  0  0
 22 23  1  1  0  0  0
 22 19  1  0  0  0  0
 24 22  1  0  0  0  0
 25 24  1  0  0  0  0
 26 27  1  0  0  0  0
 28 29  1  0  0  0  0
 29 27  1  0  0  0  0
M  END
>  <MODEL>
7

>  <REMARK>
 VINA RESULT:      -6.5      2.347      2.945
  Name = 
  12 active torsions:
  status: ('A' for Active; 'I' for Inactive)
    1  A    between atoms: C_4  and  C_13
    2  A    between atoms: C_5  and  C_24
    3  A    between atoms: N_7  and  C_21
    4  A    between atoms: C_8  and  C_11
    5  A    between atoms: C_11  and  C_13
    6  A    between atoms: C_14  and  C_21
    7  A    between atoms: C_14  and  S_26
    8  A    between atoms: C_14  and  N_29
    9  A    between atoms: C_15  and  C_19
   10  A    between atoms: C_16  and  C_25
   11  A    between atoms: C_19  and  S_26
   12  A    between atoms: C_24  and  C_25
                            x       y       z     vdW  Elec       q    Type
                         _______ _______ _______ _____ _____    ______ ____

>  <TORSDO>
F 12

$$$$
=
 OpenBabel10232412313D

 29 30  0  0  1  0  0  0  0  0999 V2000
  188.0380  178.2350  140.3660 C   0  0  0  0  0  0  0  0  0  0  0  0
  190.4790  176.6680  140.2630 C   0  0  0  0  0  2  0  0  0  0  0  0
  188.0090  178.1170  142.8950 C   0  0  2  0  0  3  0  0  0  0  0  0
  186.9320  178.8400  140.3750 O   0  0  0  0  0  0  0  0  0  0  0  0
  190.5030  178.1580  143.7330 C   0  0  1  0  0  3  0  0  0  0  0  0
  190.0280  177.3580  141.5120 C   0  0  0  0  0  0  0  0  0  0  0  0
  188.7100  177.9650  139.0770 C   0  0  0  0  0  0  0  0  0  0  0  0
  188.6710  177.8450  141.6020 N   0  0  0  0  0  0  0  0  0  0  0  0
  190.8590  177.4760  142.5000 N   0  0  0  0  0  0  0  0  0  0  0  0
  189.8530  177.2760  139.0390 C   0  0  0  0  0  3  0  0  0  0  0  0
  188.9410  177.4790  144.3380 S   0  0  0  0  0  0  0  0  0  0  0  0
  191.5860  177.9460  144.7790 C   0  0  0  0  0  2  0  0  0  0  0  0
  191.6030  176.5050  145.2700 C   0  0  0  0  0  2  0  0  0  0  0  0
  191.6820  176.4410  146.7870 C   0  0  0  0  0  3  0  0  0  0  0  0
  192.1770  175.2110  147.1820 F   0  0  0  0  0  0  0  0  0  0  0  0
  190.4190  176.6170  147.3180 F   0  0  0  0  0  0  0  0  0  0  0  0
  188.1370  178.4770  137.8000 C   0  0  0  0  0  2  0  0  0  0  0  0
  188.1700  177.1670  136.5340 S   0  0  0  0  0  0  0  0  0  0  0  0
  186.7300  176.2370  137.1800 C   0  0  1  0  0  3  0  0  0  0  0  0
  185.3480  177.1960  135.6700 O   0  0  0  0  0  1  0  0  0  0  0  0
  185.4850  176.9720  136.9970 N   0  0  0  0  0  2  0  0  0  0  0  0
  186.6530  174.8220  136.6040 C   0  0  1  0  0  3  0  0  0  0  0  0
  188.0390  174.2040  136.5600 C   0  0  0  0  0  1  0  0  0  0  0  0
  185.7620  173.9760  137.3830 N   0  0  0  0  0  2  0  0  0  0  0  0
  184.7440  173.4780  136.4740 C   0  0  0  0  0  1  0  0  0  0  0  0
  186.6120  177.5000  142.9220 C   0  0  0  0  0  2  0  0  0  0  0  0
  185.7400  178.1580  143.9800 C   0  0  0  0  0  2  0  0  0  0  0  0
  183.4540  178.9240  144.5370 C   0  0  0  0  0  1  0  0  0  0  0  0
  184.3570  178.4380  143.4230 C   0  0  0  0  0  2  0  0  0  0  0  0
  1  4  2  0  0  0  0
  1  8  1  0  0  0  0
  2  6  1  0  0  0  0
  3 26  1  6  0  0  0
  3 11  1  0  0  0  0
  5 11  1  0  0  0  0
  5 12  1  1  0  0  0
  6  8  1  0  0  0  0
  6  9  2  0  0  0  0
  7  1  1  0  0  0  0
  8  3  1  0  0  0  0
  9  5  1  0  0  0  0
 10  7  2  0  0  0  0
 10  2  1  0  0  0  0
 12 13  1  0  0  0  0
 13 14  1  0  0  0  0
 14 15  1  0  0  0  0
 14 16  1  0  0  0  0
 17  7  1  0  0  0  0
 18 17  1  0  0  0  0
 19 18  1  6  0  0  0
 20 21  1  0  0  0  0
 21 19  1  0  0  0  0
 22 23  1  1  0  0  0
 22 19  1  0  0  0  0
 22 24  1  0  0  0  0
 25 24  1  0  0  0  0
 26 27  1  0  0  0  0
 29 27  1  0  0  0  0
 29 28  1  0  0  0  0
M  END
>  <MODEL>
8

>  <REMARK>
 VINA RESULT:      -6.5      1.719      2.132
  Name = 
  12 active torsions:
  status: ('A' for Active; 'I' for Inactive)
    1  A    between atoms: C_4  and  C_13
    2  A    between atoms: C_5  and  C_24
    3  A    between atoms: N_7  and  C_21
    4  A    between atoms: C_8  and  C_11
    5  A    between atoms: C_11  and  C_13
    6  A    between atoms: C_14  and  C_21
    7  A    between atoms: C_14  and  S_26
    8  A    between atoms: C_14  and  N_29
    9  A    between atoms: C_15  and  C_19
   10  A    between atoms: C_16  and  C_25
   11  A    between atoms: C_19  and  S_26
   12  A    between atoms: C_24  and  C_25
                            x       y       z     vdW  Elec       q    Type
                         _______ _______ _______ _____ _____    ______ ____

>  <TORSDO>
F 12

$$$$
=
 OpenBabel10232412313D

 29 30  0  0  1  0  0  0  0  0999 V2000
  188.3620  177.1700  142.8490 C   0  0  0  0  0  0  0  0  0  0  0  0
  186.8410  179.1210  141.3320 C   0  0  0  0  0  2  0  0  0  0  0  0
  187.0240  177.6740  144.9380 C   0  0  2  0  0  3  0  0  0  0  0  0
  189.0970  176.3820  143.5030 O   0  0  0  0  0  0  0  0  0  0  0  0
  184.5560  178.2220  144.2020 C   0  0  1  0  0  3  0  0  0  0  0  0
  186.3490  178.5640  142.6320 C   0  0  0  0  0  0  0  0  0  0  0  0
  188.5970  177.3530  141.4010 C   0  0  0  0  0  0  0  0  0  0  0  0
  187.2690  177.8570  143.4930 N   0  0  0  0  0  0  0  0  0  0  0  0
  185.1130  178.7560  142.9710 N   0  0  0  0  0  0  0  0  0  0  0  0
  187.8680  178.2250  140.7000 C   0  0  0  0  0  3  0  0  0  0  0  0
  185.6360  178.6890  145.5740 S   0  0  0  0  0  0  0  0  0  0  0  0
  183.1660  178.7890  144.4370 C   0  0  0  0  0  2  0  0  0  0  0  0
  182.4880  179.1480  143.1220 C   0  0  0  0  0  2  0  0  0  0  0  0
  180.9760  179.0380  143.2330 C   0  0  0  0  0  3  0  0  0  0  0  0
  180.4000  180.2870  143.0820 F   0  0  0  0  0  0  0  0  0  0  0  0
  180.6440  178.5290  144.4730 F   0  0  0  0  0  0  0  0  0  0  0  0
  189.6350  176.5520  140.6930 C   0  0  0  0  0  2  0  0  0  0  0  0
  190.5910  177.6230  139.5720 S   0  0  0  0  0  0  0  0  0  0  0  0
  190.1950  176.7020  138.0380 C   0  0  1  0  0  3  0  0  0  0  0  0
  189.3440  178.7570  137.6330 O   0  0  0  0  0  1  0  0  0  0  0  0
  189.5430  177.5530  137.0490 N   0  0  0  0  0  2  0  0  0  0  0  0
  191.4190  175.9860  137.4640 C   0  0  1  0  0  3  0  0  0  0  0  0
  192.6840  176.5300  138.1020 C   0  0  0  0  0  1  0  0  0  0  0  0
  191.3420  174.5480  137.6710 N   0  0  0  0  0  2  0  0  0  0  0  0
  189.9880  174.1410  137.3400 C   0  0  0  0  0  1  0  0  0  0  0  0
  188.2740  178.0210  145.7420 C   0  0  0  0  0  2  0  0  0  0  0  0
  188.5940  176.9360  146.7580 C   0  0  0  0  0  2  0  0  0  0  0  0
  188.1650  178.0570  148.9220 C   0  0  0  0  0  1  0  0  0  0  0  0
  189.2410  177.5410  147.9900 C   0  0  0  0  0  2  0  0  0  0  0  0
  1  8  1  0  0  0  0
  1  4  2  0  0  0  0
  2  6  1  0  0  0  0
  3 11  1  0  0  0  0
  3 26  1  1  0  0  0
  5 12  1  1  0  0  0
  5 11  1  0  0  0  0
  6  9  2  0  0  0  0
  6  8  1  0  0  0  0
  7  1  1  0  0  0  0
  8  3  1  0  0  0  0
  9  5  1  0  0  0  0
 10  2  1  0  0  0  0
 10  7  2  0  0  0  0
 13 14  1  0  0  0  0
 13 12  1  0  0  0  0
 14 16  1  0  0  0  0
 15 14  1  0  0  0  0
 17  7  1  0  0  0  0
 18 17  1  0  0  0  0
 19 21  1  6  0  0  0
 19 18  1  0  0  0  0
 21 20  1  0  0  0  0
 22 24  1  0  0  0  0
 22 19  1  0  0  0  0
 22 23  1  1  0  0  0
 25 24  1  0  0  0  0
 26 27  1  0  0  0  0
 27 29  1  0  0  0  0
 29 28  1  0  0  0  0
M  END
>  <MODEL>
9

>  <REMARK>
 VINA RESULT:      -6.3      4.089      5.965
  Name = 
  12 active torsions:
  status: ('A' for Active; 'I' for Inactive)
    1  A    between atoms: C_4  and  C_13
    2  A    between atoms: C_5  and  C_24
    3  A    between atoms: N_7  and  C_21
    4  A    between atoms: C_8  and  C_11
    5  A    between atoms: C_11  and  C_13
    6  A    between atoms: C_14  and  C_21
    7  A    between atoms: C_14  and  S_26
    8  A    between atoms: C_14  and  N_29
    9  A    between atoms: C_15  and  C_19
   10  A    between atoms: C_16  and  C_25
   11  A    between atoms: C_19  and  S_26
   12  A    between atoms: C_24  and  C_25
                            x       y       z     vdW  Elec       q    Type
                         _______ _______ _______ _____ _____    ______ ____

>  <TORSDO>
F 12

$$$$
