=
 OpenBabel10232409253D

 52 55  0  0  1  0  0  0  0  0999 V2000
  189.4120  177.8280  139.1320 C   0  0  2  0  0  3  0  0  0  0  0  0
  189.1280  179.6400  137.5370 N   0  0  0  0  0  1  0  0  0  0  0  0
  188.3050  177.7720  142.8360 C   0  0  0  0  0  0  0  0  0  0  0  0
  188.9790  177.6850  141.5330 C   0  0  0  0  0  3  0  0  0  0  0  0
  185.9650  178.2970  142.0160 C   0  0  0  0  0  3  0  0  0  0  0  0
  187.1980  178.6650  138.5440 N   0  0  0  0  0  2  0  0  0  0  0  0
  186.0300  178.4590  140.6930 C   0  0  0  0  0  0  0  0  0  0  0  0
  188.5220  177.9110  140.3030 C   0  0  0  0  0  0  0  0  0  0  0  0
  187.0070  178.0130  143.0020 C   0  0  0  0  0  3  0  0  0  0  0  0
  187.2410  178.3790  139.9180 N   0  0  0  0  0  0  0  0  0  0  0  0
  188.5440  178.4010  138.0200 C   0  0  2  0  0  3  0  0  0  0  0  0
  190.5260  177.4030  143.8800 C   0  0  0  0  0  3  0  0  0  0  0  0
  189.1330  177.4840  144.0370 C   0  0  0  0  0  0  0  0  0  0  0  0
  190.8190  176.9320  146.2400 C   0  0  0  0  0  0  0  0  0  0  0  0
  188.5860  177.3000  145.3320 C   0  0  0  0  0  0  0  0  0  0  0  0
  189.4320  177.0240  146.4120 C   0  0  0  0  0  3  0  0  0  0  0  0
  191.3580  177.1310  144.9650 C   0  0  0  0  0  3  0  0  0  0  0  0
  192.4560  175.4170  147.4150 C   0  0  0  0  0  1  0  0  0  0  0  0
  191.6820  176.6470  147.3500 N   0  0  0  0  0  0  0  0  0  0  0  0
  191.7980  177.5340  148.3660 O   0  0  0  0  0  1  0  0  0  0  0  0
  186.9010  178.4160  146.5590 O   0  0  0  0  0  1  0  0  0  0  0  0
  187.1220  177.4180  145.6100 C   0  0  0  0  0  2  0  0  0  0  0  0
  183.6160  178.6660  140.5490 N   0  0  0  0  0  0  0  0  0  0  0  0
  184.7740  178.7670  139.9790 C   0  0  0  0  0  3  0  0  0  0  0  0
  182.4750  178.9600  139.8440 O   0  0  0  0  0  0  0  0  0  0  0  0
  181.8910  177.9790  139.0010 C   0  0  0  0  0  2  0  0  0  0  0  0
  181.7420  176.6560  139.7400 C   0  0  1  0  0  3  0  0  0  0  0  0
  180.4700  176.5680  140.3090 O   0  0  0  0  0  1  0  0  0  0  0  0
  181.9770  175.4670  138.8170 C   0  0  0  0  0  2  0  0  0  0  0  0
  182.8240  175.8360  137.7360 O   0  0  0  0  0  0  0  0  0  0  0  0
  184.8720  177.1430  136.1300 C   0  0  0  0  0  2  0  0  0  0  0  0
  184.0260  175.1730  137.4720 C   0  0  0  0  0  0  0  0  0  0  0  0
  187.0840  176.2630  135.6070 C   0  0  0  0  0  2  0  0  0  0  0  0
  186.0990  177.3740  135.2660 C   0  0  0  0  0  2  0  0  0  0  0  0
  185.0300  175.8140  136.6790 N   0  0  0  0  0  0  0  0  0  0  0  0
  184.2340  174.0180  137.9350 O   0  0  0  0  0  0  0  0  0  0  0  0
  186.2930  175.1950  136.3390 C   0  0  0  0  0  2  0  0  0  0  0  0
  189.7470  176.3800  138.8010 C   0  0  0  0  0  2  0  0  0  0  0  0
  190.2540  176.2810  137.4370 N   0  0  0  0  0  2  0  0  0  0  0  0
  192.4560  175.5680  137.9110 C   0  0  0  0  0  3  0  0  0  0  0  0
  191.4380  175.6000  137.1120 N   0  0  0  0  0  0  0  0  0  0  0  0
  193.6990  174.8310  137.5270 C   0  0  2  0  0  3  0  0  0  0  0  0
  194.7040  174.7340  138.6430 C   0  0  0  0  0  0  0  0  0  0  0  0
  194.8850  175.7440  139.3730 O   0  0  0  0  0  0  0  0  0  0  0  0
  195.4670  173.5500  138.9060 N   0  0  0  0  0  2  0  0  0  0  0  0
  195.3100  172.2940  138.1920 C   0  0  0  0  0  2  0  0  0  0  0  0
  196.5450  172.0210  137.3540 C   0  0  0  0  0  2  0  0  0  0  0  0
  196.2220  171.0360  136.2460 C   0  0  0  0  0  2  0  0  0  0  0  0
  196.5800  169.6250  136.6740 C   0  0  0  0  0  1  0  0  0  0  0  0
  194.5590  174.5700  135.2990 O   0  0  0  0  0  0  0  0  0  0  0  0
  194.3110  175.3450  136.2610 C   0  0  0  0  0  0  0  0  0  0  0  0
  194.5880  176.7340  136.1330 N   0  0  0  0  0  1  0  0  0  0  0  0
  1 38  1  6  0  0  0
  1  8  1  0  0  0  0
  3  9  2  0  0  0  0
  3 13  1  0  0  0  0
  4  3  1  0  0  0  0
  5  9  1  0  0  0  0
  6 10  1  0  0  0  0
  7  5  2  0  0  0  0
  8  4  2  0  0  0  0
 10  8  1  0  0  0  0
 10  7  1  0  0  0  0
 11  2  1  1  0  0  0
 11  6  1  0  0  0  0
 11  1  1  0  0  0  0
 12 13  2  0  0  0  0
 12 17  1  0  0  0  0
 13 15  1  0  0  0  0
 14 16  1  0  0  0  0
 14 19  1  0  0  0  0
 15 22  1  0  0  0  0
 15 16  2  0  0  0  0
 17 14  2  0  0  0  0
 19 18  1  0  0  0  0
 19 20  1  0  0  0  0
 22 21  1  0  0  0  0
 24 23  2  0  0  0  0
 24  7  1  0  0  0  0
 25 23  1  0  0  0  0
 26 27  1  0  0  0  0
 26 25  1  0  0  0  0
 27 28  1  6  0  0  0
 29 27  1  0  0  0  0
 30 29  1  0  0  0  0
 31 35  1  0  0  0  0
 32 30  1  0  0  0  0
 32 36  2  0  0  0  0
 33 37  1  0  0  0  0
 34 33  1  0  0  0  0
 34 31  1  0  0  0  0
 35 32  1  0  0  0  0
 37 35  1  0  0  0  0
 39 38  1  0  0  0  0
 41 39  1  0  0  0  0
 41 40  2  0  0  0  0
 42 40  1  1  0  0  0
 42 43  1  0  0  0  0
 43 45  1  0  0  0  0
 43 44  2  0  0  0  0
 46 45  1  0  0  0  0
 47 46  1  0  0  0  0
 48 49  1  0  0  0  0
 48 47  1  0  0  0  0
 50 51  2  0  0  0  0
 51 42  1  0  0  0  0
 52 51  1  0  0  0  0
M  END
>  <MODEL>
1

>  <REMARK>
 VINA RESULT:      -7.6      0.000      0.000
  Name = 
  19 active torsions:
  status: ('A' for Active; 'I' for Inactive)
    1  A    between atoms: C_2  and  C_16
    2  A    between atoms: C_4  and  C_18
    3  A    between atoms: N_7  and  C_21
    4  A    between atoms: C_8  and  C_14
    5  A    between atoms: C_11  and  C_16
    6  A    between atoms: C_13  and  C_17
    7  A    between atoms: C_13  and  C_36
    8  A    between atoms: C_16  and  C_35
    9  A    between atoms: C_17  and  O_46
   10  A    between atoms: C_18  and  N_42
   11  A    between atoms: C_20  and  O_43
   12  A    between atoms: C_24  and  C_40
   13  A    between atoms: N_26  and  N_42
   14  A    between atoms: C_28  and  C_34
   15  A    between atoms: C_28  and  C_51
   16  A    between atoms: C_31  and  C_41
   17  A    between atoms: C_36  and  O_43
   18  A    between atoms: N_38  and  O_46
   19  A    between atoms: N_47  and  C_51
                            x       y       z     vdW  Elec       q    Type
                         _______ _______ _______ _____ _____    ______ ____

>  <TORSDO>
F 19

$$$$
=
 OpenBabel10232409253D

 52 55  0  0  1  0  0  0  0  0999 V2000
  189.3200  177.7910  139.2290 C   0  0  2  0  0  3  0  0  0  0  0  0
  188.9690  179.5750  137.6150 N   0  0  0  0  0  1  0  0  0  0  0  0
  188.4060  177.8170  142.9850 C   0  0  0  0  0  0  0  0  0  0  0  0
  189.0110  177.6990  141.6510 C   0  0  0  0  0  3  0  0  0  0  0  0
  186.0300  178.3470  142.2770 C   0  0  0  0  0  3  0  0  0  0  0  0
  187.0860  178.6370  138.7380 N   0  0  0  0  0  2  0  0  0  0  0  0
  186.0290  178.4820  140.9490 C   0  0  0  0  0  0  0  0  0  0  0  0
  188.4930  177.9050  140.4420 C   0  0  0  0  0  0  0  0  0  0  0  0
  187.1200  178.0730  143.2130 C   0  0  0  0  0  3  0  0  0  0  0  0
  187.1970  178.3770  140.1150 N   0  0  0  0  0  0  0  0  0  0  0  0
  188.4000  178.3510  138.1510 C   0  0  2  0  0  3  0  0  0  0  0  0
  188.6960  177.1570  145.3590 C   0  0  0  0  0  3  0  0  0  0  0  0
  189.2920  177.5440  144.1480 C   0  0  0  0  0  0  0  0  0  0  0  0
  190.8620  177.0060  146.4370 C   0  0  0  0  0  0  0  0  0  0  0  0
  190.7050  177.6450  144.0900 C   0  0  0  0  0  0  0  0  0  0  0  0
  191.4690  177.3780  145.2310 C   0  0  0  0  0  3  0  0  0  0  0  0
  189.4690  176.8910  146.4880 C   0  0  0  0  0  3  0  0  0  0  0  0
  192.3670  175.4810  147.7650 C   0  0  0  0  0  1  0  0  0  0  0  0
  191.6500  176.7360  147.6060 N   0  0  0  0  0  0  0  0  0  0  0  0
  191.7450  177.6600  148.5900 O   0  0  0  0  0  1  0  0  0  0  0  0
  192.2640  176.9440  142.4570 O   0  0  0  0  0  1  0  0  0  0  0  0
  191.4340  177.9990  142.8340 C   0  0  0  0  0  2  0  0  0  0  0  0
  183.6090  178.6710  140.9130 N   0  0  0  0  0  0  0  0  0  0  0  0
  184.7400  178.7880  140.2950 C   0  0  0  0  0  3  0  0  0  0  0  0
  182.4350  178.9640  140.2620 O   0  0  0  0  0  0  0  0  0  0  0  0
  181.3750  178.0210  140.2580 C   0  0  0  0  0  2  0  0  0  0  0  0
  180.8100  177.8540  138.8540 C   0  0  1  0  0  3  0  0  0  0  0  0
  181.5100  178.6650  137.9590 O   0  0  0  0  0  1  0  0  0  0  0  0
  180.8740  176.4040  138.3910 C   0  0  0  0  0  2  0  0  0  0  0  0
  181.8460  176.2520  137.3630 O   0  0  0  0  0  0  0  0  0  0  0  0
  182.2500  173.4050  136.9060 C   0  0  0  0  0  2  0  0  0  0  0  0
  183.0990  175.6820  137.6030 C   0  0  0  0  0  0  0  0  0  0  0  0
  184.3440  172.1810  137.1440 C   0  0  0  0  0  2  0  0  0  0  0  0
  182.8440  172.0080  136.9380 C   0  0  0  0  0  2  0  0  0  0  0  0
  183.2960  174.2820  137.3820 N   0  0  0  0  0  0  0  0  0  0  0  0
  184.0590  176.3960  138.0050 O   0  0  0  0  0  0  0  0  0  0  0  0
  184.5520  173.6050  137.6240 C   0  0  0  0  0  2  0  0  0  0  0  0
  189.6260  176.3340  138.9090 C   0  0  0  0  0  2  0  0  0  0  0  0
  190.1220  176.2130  137.5430 N   0  0  0  0  0  2  0  0  0  0  0  0
  192.3960  175.7230  137.9530 C   0  0  0  0  0  3  0  0  0  0  0  0
  191.3340  175.5800  137.2260 N   0  0  0  0  0  0  0  0  0  0  0  0
  193.6690  175.0320  137.5800 C   0  0  2  0  0  3  0  0  0  0  0  0
  194.6510  174.9370  138.7170 C   0  0  0  0  0  0  0  0  0  0  0  0
  194.7480  175.9140  139.5050 O   0  0  0  0  0  0  0  0  0  0  0  0
  195.4820  173.7900  138.9360 N   0  0  0  0  0  2  0  0  0  0  0  0
  195.4240  172.5680  138.1510 C   0  0  0  0  0  2  0  0  0  0  0  0
  196.7180  172.3900  137.3800 C   0  0  0  0  0  2  0  0  0  0  0  0
  197.6400  173.5720  137.6190 C   0  0  0  0  0  2  0  0  0  0  0  0
  197.9860  174.2430  136.3030 C   0  0  0  0  0  1  0  0  0  0  0  0
  194.6330  176.8050  136.2780 O   0  0  0  0  0  0  0  0  0  0  0  0
  194.2940  175.5930  136.3410 C   0  0  0  0  0  0  0  0  0  0  0  0
  194.5350  174.7380  135.2310 N   0  0  0  0  0  1  0  0  0  0  0  0
  1 38  1  6  0  0  0
  1  8  1  0  0  0  0
  3  9  2  0  0  0  0
  3 13  1  0  0  0  0
  4  3  1  0  0  0  0
  5  9  1  0  0  0  0
  6 10  1  0  0  0  0
  7  5  2  0  0  0  0
  8  4  2  0  0  0  0
 10  8  1  0  0  0  0
 10  7  1  0  0  0  0
 11  2  1  1  0  0  0
 11  6  1  0  0  0  0
 11  1  1  0  0  0  0
 12 17  1  0  0  0  0
 13 12  2  0  0  0  0
 14 17  2  0  0  0  0
 14 19  1  0  0  0  0
 15 13  1  0  0  0  0
 15 16  2  0  0  0  0
 16 14  1  0  0  0  0
 19 18  1  0  0  0  0
 19 20  1  0  0  0  0
 21 22  1  0  0  0  0
 22 15  1  0  0  0  0
 24 23  2  0  0  0  0
 24  7  1  0  0  0  0
 25 23  1  0  0  0  0
 26 25  1  0  0  0  0
 27 28  1  6  0  0  0
 27 26  1  0  0  0  0
 29 27  1  0  0  0  0
 30 32  1  0  0  0  0
 30 29  1  0  0  0  0
 31 34  1  0  0  0  0
 31 35  1  0  0  0  0
 32 36  2  0  0  0  0
 33 37  1  0  0  0  0
 34 33  1  0  0  0  0
 35 32  1  0  0  0  0
 35 37  1  0  0  0  0
 39 38  1  0  0  0  0
 41 39  1  0  0  0  0
 41 40  2  0  0  0  0
 42 40  1  1  0  0  0
 42 43  1  0  0  0  0
 43 45  1  0  0  0  0
 43 44  2  0  0  0  0
 46 45  1  0  0  0  0
 47 48  1  0  0  0  0
 47 46  1  0  0  0  0
 49 48  1  0  0  0  0
 50 51  2  0  0  0  0
 51 42  1  0  0  0  0
 52 51  1  0  0  0  0
M  END
>  <MODEL>
2

>  <REMARK>
 VINA RESULT:      -7.5      1.559      2.294
  Name = 
  19 active torsions:
  status: ('A' for Active; 'I' for Inactive)
    1  A    between atoms: C_2  and  C_16
    2  A    between atoms: C_4  and  C_18
    3  A    between atoms: N_7  and  C_21
    4  A    between atoms: C_8  and  C_14
    5  A    between atoms: C_11  and  C_16
    6  A    between atoms: C_13  and  C_17
    7  A    between atoms: C_13  and  C_36
    8  A    between atoms: C_16  and  C_35
    9  A    between atoms: C_17  and  O_46
   10  A    between atoms: C_18  and  N_42
   11  A    between atoms: C_20  and  O_43
   12  A    between atoms: C_24  and  C_40
   13  A    between atoms: N_26  and  N_42
   14  A    between atoms: C_28  and  C_34
   15  A    between atoms: C_28  and  C_51
   16  A    between atoms: C_31  and  C_41
   17  A    between atoms: C_36  and  O_43
   18  A    between atoms: N_38  and  O_46
   19  A    between atoms: N_47  and  C_51
                            x       y       z     vdW  Elec       q    Type
                         _______ _______ _______ _____ _____    ______ ____

>  <TORSDO>
F 19

$$$$
=
 OpenBabel10232409253D

 52 55  0  0  1  0  0  0  0  0999 V2000
  190.4040  176.6740  141.7890 C   0  0  2  0  0  3  0  0  0  0  0  0
  188.4310  176.0440  143.0630 N   0  0  0  0  0  1  0  0  0  0  0  0
  190.9240  176.3640  137.9710 C   0  0  0  0  0  0  0  0  0  0  0  0
  190.9950  176.3630  139.4380 C   0  0  0  0  0  3  0  0  0  0  0  0
  188.8210  177.7510  137.6950 C   0  0  0  0  0  3  0  0  0  0  0  0
  188.2310  177.6930  141.3510 N   0  0  0  0  0  2  0  0  0  0  0  0
  188.3270  177.9770  138.9150 C   0  0  0  0  0  0  0  0  0  0  0  0
  190.1570  176.8560  140.3480 C   0  0  0  0  0  0  0  0  0  0  0  0
  189.9900  176.9900  137.2590 C   0  0  0  0  0  3  0  0  0  0  0  0
  188.8980  177.4700  140.1350 N   0  0  0  0  0  0  0  0  0  0  0  0
  189.0970  177.1560  142.4080 C   0  0  2  0  0  3  0  0  0  0  0  0
  193.2580  176.3530  137.1310 C   0  0  0  0  0  3  0  0  0  0  0  0
  192.0300  175.6830  137.2470 C   0  0  0  0  0  0  0  0  0  0  0  0
  194.2100  174.5030  135.8870 C   0  0  0  0  0  0  0  0  0  0  0  0
  191.9080  174.3880  136.6810 C   0  0  0  0  0  0  0  0  0  0  0  0
  192.9950  173.8180  136.0080 C   0  0  0  0  0  3  0  0  0  0  0  0
  194.3340  175.7720  136.4610 C   0  0  0  0  0  3  0  0  0  0  0  0
  196.6220  174.5630  135.1560 C   0  0  0  0  0  1  0  0  0  0  0  0
  195.3220  173.9140  135.1940 N   0  0  0  0  0  0  0  0  0  0  0  0
  195.1770  172.7260  134.5620 O   0  0  0  0  0  1  0  0  0  0  0  0
  189.8440  173.8020  135.6880 O   0  0  0  0  0  1  0  0  0  0  0  0
  190.6600  173.5750  136.7970 C   0  0  0  0  0  2  0  0  0  0  0  0
  185.9540  178.3560  138.5690 N   0  0  0  0  0  0  0  0  0  0  0  0
  187.0920  178.7820  139.0140 C   0  0  0  0  0  3  0  0  0  0  0  0
  184.8330  179.1410  138.6790 O   0  0  0  0  0  0  0  0  0  0  0  0
  183.6730  178.6330  139.3200 C   0  0  0  0  0  2  0  0  0  0  0  0
  183.3730  177.2190  138.8420 C   0  0  1  0  0  3  0  0  0  0  0  0
  182.8650  176.4570  139.8950 O   0  0  0  0  0  1  0  0  0  0  0  0
  182.3840  177.2170  137.6830 C   0  0  0  0  0  2  0  0  0  0  0  0
  182.8490  176.3760  136.6330 O   0  0  0  0  0  0  0  0  0  0  0  0
  184.2400  173.9620  137.4810 C   0  0  0  0  0  2  0  0  0  0  0  0
  184.2090  176.2230  136.3490 C   0  0  0  0  0  0  0  0  0  0  0  0
  186.5680  173.3970  137.0310 C   0  0  0  0  0  2  0  0  0  0  0  0
  185.3440  172.9830  137.8390 C   0  0  0  0  0  2  0  0  0  0  0  0
  184.8930  175.0390  136.7700 N   0  0  0  0  0  0  0  0  0  0  0  0
  184.8340  177.1190  135.7180 O   0  0  0  0  0  0  0  0  0  0  0  0
  186.3020  174.8070  136.5380 C   0  0  0  0  0  2  0  0  0  0  0  0
  191.5370  177.5700  142.2680 C   0  0  0  0  0  2  0  0  0  0  0  0
  191.1700  178.2160  143.5230 N   0  0  0  0  0  2  0  0  0  0  0  0
  190.1010  177.9180  145.6080 C   0  0  0  0  0  3  0  0  0  0  0  0
  190.9320  177.5010  144.7070 N   0  0  0  0  0  0  0  0  0  0  0  0
  189.8760  177.1270  146.8570 C   0  0  2  0  0  3  0  0  0  0  0  0
  189.0270  177.8430  147.8720 C   0  0  0  0  0  0  0  0  0  0  0  0
  189.5780  178.2610  148.9240 O   0  0  0  0  0  0  0  0  0  0  0  0
  187.6220  178.0630  147.6980 N   0  0  0  0  0  2  0  0  0  0  0  0
  186.8720  177.7000  146.5060 C   0  0  0  0  0  2  0  0  0  0  0  0
  185.4830  178.3060  146.5670 C   0  0  0  0  0  2  0  0  0  0  0  0
  185.1550  179.0010  145.2590 C   0  0  0  0  0  2  0  0  0  0  0  0
  185.6040  178.1530  144.0840 C   0  0  0  0  0  1  0  0  0  0  0  0
  191.9750  177.3860  147.9950 O   0  0  0  0  0  0  0  0  0  0  0  0
  191.1470  176.6070  147.4530 C   0  0  0  0  0  0  0  0  0  0  0  0
  191.4080  175.2100  147.4320 N   0  0  0  0  0  1  0  0  0  0  0  0
  1 38  1  1  0  0  0
  1 11  1  0  0  0  0
  3  4  1  0  0  0  0
  4  8  2  0  0  0  0
  5  7  2  0  0  0  0
  6 11  1  0  0  0  0
  7 24  1  0  0  0  0
  7 10  1  0  0  0  0
  8  1  1  0  0  0  0
  9  5  1  0  0  0  0
  9  3  2  0  0  0  0
 10  8  1  0  0  0  0
 10  6  1  0  0  0  0
 11  2  1  6  0  0  0
 12 13  1  0  0  0  0
 13  3  1  0  0  0  0
 14 16  2  0  0  0  0
 14 17  1  0  0  0  0
 15 22  1  0  0  0  0
 15 13  2  0  0  0  0
 16 15  1  0  0  0  0
 17 12  2  0  0  0  0
 18 19  1  0  0  0  0
 19 14  1  0  0  0  0
 20 19  1  0  0  0  0
 21 22  1  0  0  0  0
 23 25  1  0  0  0  0
 23 24  2  0  0  0  0
 25 26  1  0  0  0  0
 27 26  1  0  0  0  0
 27 28  1  1  0  0  0
 29 27  1  0  0  0  0
 30 29  1  0  0  0  0
 31 34  1  0  0  0  0
 32 30  1  0  0  0  0
 32 35  1  0  0  0  0
 33 34  1  0  0  0  0
 35 31  1  0  0  0  0
 36 32  2  0  0  0  0
 37 35  1  0  0  0  0
 37 33  1  0  0  0  0
 38 39  1  0  0  0  0
 39 41  1  0  0  0  0
 41 40  2  0  0  0  0
 42 40  1  6  0  0  0
 42 51  1  0  0  0  0
 42 43  1  0  0  0  0
 43 44  2  0  0  0  0
 45 43  1  0  0  0  0
 46 47  1  0  0  0  0
 46 45  1  0  0  0  0
 48 47  1  0  0  0  0
 49 48  1  0  0  0  0
 51 50  2  0  0  0  0
 52 51  1  0  0  0  0
M  END
>  <MODEL>
3

>  <REMARK>
 VINA RESULT:      -7.5      2.358      8.522
  Name = 
  19 active torsions:
  status: ('A' for Active; 'I' for Inactive)
    1  A    between atoms: C_2  and  C_16
    2  A    between atoms: C_4  and  C_18
    3  A    between atoms: N_7  and  C_21
    4  A    between atoms: C_8  and  C_14
    5  A    between atoms: C_11  and  C_16
    6  A    between atoms: C_13  and  C_17
    7  A    between atoms: C_13  and  C_36
    8  A    between atoms: C_16  and  C_35
    9  A    between atoms: C_17  and  O_46
   10  A    between atoms: C_18  and  N_42
   11  A    between atoms: C_20  and  O_43
   12  A    between atoms: C_24  and  C_40
   13  A    between atoms: N_26  and  N_42
   14  A    between atoms: C_28  and  C_34
   15  A    between atoms: C_28  and  C_51
   16  A    between atoms: C_31  and  C_41
   17  A    between atoms: C_36  and  O_43
   18  A    between atoms: N_38  and  O_46
   19  A    between atoms: N_47  and  C_51
                            x       y       z     vdW  Elec       q    Type
                         _______ _______ _______ _____ _____    ______ ____

>  <TORSDO>
F 19

$$$$
=
 OpenBabel10232409253D

 52 55  0  0  1  0  0  0  0  0999 V2000
  188.2130  176.8670  138.0370 C   0  0  2  0  0  3  0  0  0  0  0  0
  188.4600  175.1080  136.3760 N   0  0  0  0  0  1  0  0  0  0  0  0
  190.0280  177.1480  141.4390 C   0  0  0  0  0  0  0  0  0  0  0  0
  189.0970  177.1060  140.3020 C   0  0  0  0  0  3  0  0  0  0  0  0
  192.2060  177.0090  140.1490 C   0  0  0  0  0  3  0  0  0  0  0  0
  190.3670  176.4020  136.9920 N   0  0  0  0  0  2  0  0  0  0  0  0
  191.8990  176.8240  138.8630 C   0  0  0  0  0  0  0  0  0  0  0  0
  189.3240  176.9450  139.0000 C   0  0  0  0  0  0  0  0  0  0  0  0
  191.3540  177.1280  141.3320 C   0  0  0  0  0  3  0  0  0  0  0  0
  190.5590  176.6930  138.3530 N   0  0  0  0  0  0  0  0  0  0  0  0
  188.9180  176.4320  136.7580 C   0  0  2  0  0  3  0  0  0  0  0  0
  188.2390  176.6170  143.0740 C   0  0  0  0  0  3  0  0  0  0  0  0
  189.4270  177.3080  142.7900 C   0  0  0  0  0  0  0  0  0  0  0  0
  188.1780  177.5360  145.3160 C   0  0  0  0  0  0  0  0  0  0  0  0
  190.0020  178.1140  143.8050 C   0  0  0  0  0  0  0  0  0  0  0  0
  189.3710  178.2190  145.0500 C   0  0  0  0  0  3  0  0  0  0  0  0
  187.6220  176.7280  144.3190 C   0  0  0  0  0  3  0  0  0  0  0  0
  188.1800  177.1920  147.8130 C   0  0  0  0  0  1  0  0  0  0  0  0
  187.5330  177.6490  146.5940 N   0  0  0  0  0  0  0  0  0  0  0  0
  186.2990  178.1960  146.6870 O   0  0  0  0  0  1  0  0  0  0  0  0
  191.2680  180.0360  144.3440 O   0  0  0  0  0  1  0  0  0  0  0  0
  191.2910  178.8460  143.6170 C   0  0  0  0  0  2  0  0  0  0  0  0
  193.9400  175.8220  138.0150 N   0  0  0  0  0  0  0  0  0  0  0  0
  193.0160  176.7200  137.9020 C   0  0  0  0  0  3  0  0  0  0  0  0
  194.9620  175.7660  137.0990 O   0  0  0  0  0  0  0  0  0  0  0  0
  195.3930  174.5120  136.5950 C   0  0  0  0  0  2  0  0  0  0  0  0
  196.9120  174.4180  136.6150 C   0  0  1  0  0  3  0  0  0  0  0  0
  197.4580  175.6160  137.0810 O   0  0  0  0  0  1  0  0  0  0  0  0
  197.3920  173.2630  137.4850 C   0  0  0  0  0  2  0  0  0  0  0  0
  197.5660  172.0880  136.7010 O   0  0  0  0  0  0  0  0  0  0  0  0
  195.2800  170.3490  137.1820 C   0  0  0  0  0  2  0  0  0  0  0  0
  197.7610  170.8300  137.2780 C   0  0  0  0  0  0  0  0  0  0  0  0
  195.3460  168.0830  138.0750 C   0  0  0  0  0  2  0  0  0  0  0  0
  194.4070  169.2280  137.7160 C   0  0  0  0  0  2  0  0  0  0  0  0
  196.6360  169.9780  137.5180 N   0  0  0  0  0  0  0  0  0  0  0  0
  198.9210  170.4390  137.5810 O   0  0  0  0  0  0  0  0  0  0  0  0
  196.7420  168.6710  138.1300 C   0  0  0  0  0  2  0  0  0  0  0  0
  187.5830  178.2350  137.8140 C   0  0  0  0  0  2  0  0  0  0  0  0
  186.1690  178.0900  137.4890 N   0  0  0  0  0  2  0  0  0  0  0  0
  183.9060  178.5830  137.9540 C   0  0  0  0  0  3  0  0  0  0  0  0
  185.1430  178.5400  138.3350 N   0  0  0  0  0  0  0  0  0  0  0  0
  182.8420  179.0700  138.8860 C   0  0  2  0  0  3  0  0  0  0  0  0
  182.1680  177.9630  139.6520 C   0  0  0  0  0  0  0  0  0  0  0  0
  181.5700  177.0660  139.0020 O   0  0  0  0  0  0  0  0  0  0  0  0
  182.1710  177.8900  141.0830 N   0  0  0  0  0  2  0  0  0  0  0  0
  182.8790  178.8140  141.9530 C   0  0  0  0  0  2  0  0  0  0  0  0
  184.2540  178.2620  142.2800 C   0  0  0  0  0  2  0  0  0  0  0  0
  184.7240  178.7850  143.6250 C   0  0  0  0  0  2  0  0  0  0  0  0
  183.5480  178.9370  144.5720 C   0  0  0  0  0  1  0  0  0  0  0  0
  181.4550  179.7460  137.0450 O   0  0  0  0  0  0  0  0  0  0  0  0
  181.8540  179.9740  138.2170 C   0  0  0  0  0  0  0  0  0  0  0  0
  181.3370  181.0910  138.9290 N   0  0  0  0  0  1  0  0  0  0  0  0
  1 38  1  6  0  0  0
  1  8  1  0  0  0  0
  3 13  1  0  0  0  0
  4  3  1  0  0  0  0
  5  9  1  0  0  0  0
  6 10  1  0  0  0  0
  7  5  2  0  0  0  0
  8  4  2  0  0  0  0
  9  3  2  0  0  0  0
 10  7  1  0  0  0  0
 10  8  1  0  0  0  0
 11  2  1  1  0  0  0
 11  6  1  0  0  0  0
 11  1  1  0  0  0  0
 12 17  1  0  0  0  0
 13 12  2  0  0  0  0
 13 15  1  0  0  0  0
 14 19  1  0  0  0  0
 15 16  2  0  0  0  0
 16 14  1  0  0  0  0
 17 14  2  0  0  0  0
 19 20  1  0  0  0  0
 19 18  1  0  0  0  0
 22 15  1  0  0  0  0
 22 21  1  0  0  0  0
 24 23  2  0  0  0  0
 24  7  1  0  0  0  0
 25 23  1  0  0  0  0
 26 27  1  0  0  0  0
 26 25  1  0  0  0  0
 27 28  1  1  0  0  0
 27 29  1  0  0  0  0
 30 32  1  0  0  0  0
 30 29  1  0  0  0  0
 31 35  1  0  0  0  0
 31 34  1  0  0  0  0
 32 35  1  0  0  0  0
 32 36  2  0  0  0  0
 33 37  1  0  0  0  0
 34 33  1  0  0  0  0
 35 37  1  0  0  0  0
 39 38  1  0  0  0  0
 39 41  1  0  0  0  0
 40 41  2  0  0  0  0
 42 40  1  6  0  0  0
 42 43  1  0  0  0  0
 43 45  1  0  0  0  0
 44 43  2  0  0  0  0
 45 46  1  0  0  0  0
 46 47  1  0  0  0  0
 47 48  1  0  0  0  0
 48 49  1  0  0  0  0
 50 51  2  0  0  0  0
 51 42  1  0  0  0  0
 51 52  1  0  0  0  0
M  END
>  <MODEL>
4

>  <REMARK>
 VINA RESULT:      -7.4      2.379     10.340
  Name = 
  19 active torsions:
  status: ('A' for Active; 'I' for Inactive)
    1  A    between atoms: C_2  and  C_16
    2  A    between atoms: C_4  and  C_18
    3  A    between atoms: N_7  and  C_21
    4  A    between atoms: C_8  and  C_14
    5  A    between atoms: C_11  and  C_16
    6  A    between atoms: C_13  and  C_17
    7  A    between atoms: C_13  and  C_36
    8  A    between atoms: C_16  and  C_35
    9  A    between atoms: C_17  and  O_46
   10  A    between atoms: C_18  and  N_42
   11  A    between atoms: C_20  and  O_43
   12  A    between atoms: C_24  and  C_40
   13  A    between atoms: N_26  and  N_42
   14  A    between atoms: C_28  and  C_34
   15  A    between atoms: C_28  and  C_51
   16  A    between atoms: C_31  and  C_41
   17  A    between atoms: C_36  and  O_43
   18  A    between atoms: N_38  and  O_46
   19  A    between atoms: N_47  and  C_51
                            x       y       z     vdW  Elec       q    Type
                         _______ _______ _______ _____ _____    ______ ____

>  <TORSDO>
F 19

$$$$
=
 OpenBabel10232409253D

 52 55  0  0  1  0  0  0  0  0999 V2000
  189.6940  177.1940  141.9900 C   0  0  2  0  0  3  0  0  0  0  0  0
  187.5820  176.7720  143.1160 N   0  0  0  0  0  1  0  0  0  0  0  0
  190.6480  176.2420  138.3670 C   0  0  0  0  0  0  0  0  0  0  0  0
  190.5500  176.4920  139.8110 C   0  0  0  0  0  3  0  0  0  0  0  0
  188.6050  177.5410  137.6180 C   0  0  0  0  0  3  0  0  0  0  0  0
  187.5970  178.1020  141.1370 N   0  0  0  0  0  2  0  0  0  0  0  0
  187.9760  177.9670  138.7150 C   0  0  0  0  0  0  0  0  0  0  0  0
  189.6170  177.1250  140.5210 C   0  0  0  0  0  0  0  0  0  0  0  0
  189.8090  176.7270  137.4560 C   0  0  0  0  0  3  0  0  0  0  0  0
  188.3980  177.6810  140.0620 N   0  0  0  0  0  0  0  0  0  0  0  0
  188.3300  177.7620  142.3620 C   0  0  2  0  0  3  0  0  0  0  0  0
  191.5890  174.2750  137.1820 C   0  0  0  0  0  3  0  0  0  0  0  0
  191.8240  175.4580  137.9030 C   0  0  0  0  0  0  0  0  0  0  0  0
  193.9700  173.8700  136.9710 C   0  0  0  0  0  0  0  0  0  0  0  0
  193.1640  175.8510  138.1410 C   0  0  0  0  0  0  0  0  0  0  0  0
  194.2170  175.0540  137.6770 C   0  0  0  0  0  3  0  0  0  0  0  0
  192.6470  173.4910  136.7230 C   0  0  0  0  0  3  0  0  0  0  0  0
  194.9890  171.6030  136.5500 C   0  0  0  0  0  1  0  0  0  0  0  0
  195.0530  173.0540  136.4990 N   0  0  0  0  0  0  0  0  0  0  0  0
  196.1640  173.6310  135.9840 O   0  0  0  0  0  1  0  0  0  0  0  0
  194.2180  176.8240  140.0200 O   0  0  0  0  0  1  0  0  0  0  0  0
  193.5150  177.1180  138.8520 C   0  0  0  0  0  2  0  0  0  0  0  0
  185.8210  178.8190  139.4350 N   0  0  0  0  0  0  0  0  0  0  0  0
  186.7460  178.7650  138.5320 C   0  0  0  0  0  3  0  0  0  0  0  0
  184.6920  179.5720  139.2190 O   0  0  0  0  0  0  0  0  0  0  0  0
  183.4780  179.2290  139.8690 C   0  0  0  0  0  2  0  0  0  0  0  0
  183.0810  177.7960  139.5440 C   0  0  1  0  0  3  0  0  0  0  0  0
  181.9630  177.4290  140.2940 O   0  0  0  0  0  1  0  0  0  0  0  0
  182.7840  177.6190  138.0600 C   0  0  0  0  0  2  0  0  0  0  0  0
  183.7290  176.7370  137.4650 O   0  0  0  0  0  0  0  0  0  0  0  0
  186.1210  175.1310  137.0440 C   0  0  0  0  0  2  0  0  0  0  0  0
  183.6780  175.3530  137.6560 C   0  0  0  0  0  0  0  0  0  0  0  0
  186.3370  172.7300  137.4010 C   0  0  0  0  0  2  0  0  0  0  0  0
  187.0410  173.9460  136.8120 C   0  0  0  0  0  2  0  0  0  0  0  0
  184.8530  174.5640  137.4440 N   0  0  0  0  0  0  0  0  0  0  0  0
  182.6050  174.7970  138.0210 O   0  0  0  0  0  0  0  0  0  0  0  0
  184.8860  173.1260  137.5970 C   0  0  0  0  0  2  0  0  0  0  0  0
  190.7740  178.1710  142.4360 C   0  0  0  0  0  2  0  0  0  0  0  0
  191.6510  177.5370  143.4140 N   0  0  0  0  0  2  0  0  0  0  0  0
  190.4600  177.5920  145.4530 C   0  0  0  0  0  3  0  0  0  0  0  0
  191.1740  176.9410  144.5920 N   0  0  0  0  0  0  0  0  0  0  0  0
  189.9710  176.9200  146.6970 C   0  0  2  0  0  3  0  0  0  0  0  0
  189.1900  177.8350  147.6010 C   0  0  0  0  0  0  0  0  0  0  0  0
  189.8020  178.4160  148.5360 O   0  0  0  0  0  0  0  0  0  0  0  0
  187.7850  178.0680  147.4500 N   0  0  0  0  0  2  0  0  0  0  0  0
  186.9700  177.5230  146.3770 C   0  0  0  0  0  2  0  0  0  0  0  0
  186.1560  178.6300  145.7350 C   0  0  0  0  0  2  0  0  0  0  0  0
  184.7000  178.5210  146.1520 C   0  0  0  0  0  2  0  0  0  0  0  0
  183.7930  178.9290  145.0060 C   0  0  0  0  0  1  0  0  0  0  0  0
  190.9940  174.9520  147.6180 O   0  0  0  0  0  0  0  0  0  0  0  0
  191.0570  176.1960  147.4300 C   0  0  0  0  0  0  0  0  0  0  0  0
  192.1900  176.9200  147.8950 N   0  0  0  0  0  1  0  0  0  0  0  0
  1 11  1  0  0  0  0
  1 38  1  6  0  0  0
  3  4  1  0  0  0  0
  4  8  2  0  0  0  0
  5  7  2  0  0  0  0
  6 11  1  0  0  0  0
  7 10  1  0  0  0  0
  8  1  1  0  0  0  0
  9  5  1  0  0  0  0
  9  3  2  0  0  0  0
 10  8  1  0  0  0  0
 10  6  1  0  0  0  0
 11  2  1  6  0  0  0
 12 13  1  0  0  0  0
 13 15  2  0  0  0  0
 13  3  1  0  0  0  0
 14 16  2  0  0  0  0
 15 22  1  0  0  0  0
 16 15  1  0  0  0  0
 17 14  1  0  0  0  0
 17 12  2  0  0  0  0
 19 18  1  0  0  0  0
 19 14  1  0  0  0  0
 20 19  1  0  0  0  0
 22 21  1  0  0  0  0
 24  7  1  0  0  0  0
 24 23  2  0  0  0  0
 25 23  1  0  0  0  0
 25 26  1  0  0  0  0
 27 26  1  0  0  0  0
 27 28  1  1  0  0  0
 29 27  1  0  0  0  0
 30 32  1  0  0  0  0
 30 29  1  0  0  0  0
 31 35  1  0  0  0  0
 32 36  2  0  0  0  0
 33 37  1  0  0  0  0
 34 31  1  0  0  0  0
 34 33  1  0  0  0  0
 35 37  1  0  0  0  0
 35 32  1  0  0  0  0
 38 39  1  0  0  0  0
 39 41  1  0  0  0  0
 41 40  2  0  0  0  0
 42 40  1  6  0  0  0
 42 51  1  0  0  0  0
 42 43  1  0  0  0  0
 43 44  2  0  0  0  0
 45 43  1  0  0  0  0
 46 45  1  0  0  0  0
 47 48  1  0  0  0  0
 47 46  1  0  0  0  0
 49 48  1  0  0  0  0
 51 50  2  0  0  0  0
 51 52  1  0  0  0  0
M  END
>  <MODEL>
5

>  <REMARK>
 VINA RESULT:      -7.3      1.939      8.217
  Name = 
  19 active torsions:
  status: ('A' for Active; 'I' for Inactive)
    1  A    between atoms: C_2  and  C_16
    2  A    between atoms: C_4  and  C_18
    3  A    between atoms: N_7  and  C_21
    4  A    between atoms: C_8  and  C_14
    5  A    between atoms: C_11  and  C_16
    6  A    between atoms: C_13  and  C_17
    7  A    between atoms: C_13  and  C_36
    8  A    between atoms: C_16  and  C_35
    9  A    between atoms: C_17  and  O_46
   10  A    between atoms: C_18  and  N_42
   11  A    between atoms: C_20  and  O_43
   12  A    between atoms: C_24  and  C_40
   13  A    between atoms: N_26  and  N_42
   14  A    between atoms: C_28  and  C_34
   15  A    between atoms: C_28  and  C_51
   16  A    between atoms: C_31  and  C_41
   17  A    between atoms: C_36  and  O_43
   18  A    between atoms: N_38  and  O_46
   19  A    between atoms: N_47  and  C_51
                            x       y       z     vdW  Elec       q    Type
                         _______ _______ _______ _____ _____    ______ ____

>  <TORSDO>
F 19

$$$$
=
 OpenBabel10232409253D

 52 55  0  0  1  0  0  0  0  0999 V2000
  189.6700  177.2690  141.8990 C   0  0  2  0  0  3  0  0  0  0  0  0
  187.6520  176.7470  143.1500 N   0  0  0  0  0  1  0  0  0  0  0  0
  190.5260  176.2000  138.2840 C   0  0  0  0  0  0  0  0  0  0  0  0
  190.4760  176.5190  139.7170 C   0  0  0  0  0  3  0  0  0  0  0  0
  188.3540  177.2980  137.5760 C   0  0  0  0  0  3  0  0  0  0  0  0
  187.4700  177.9680  141.1090 N   0  0  0  0  0  2  0  0  0  0  0  0
  187.7460  177.7330  138.6810 C   0  0  0  0  0  0  0  0  0  0  0  0
  189.5300  177.1160  140.4410 C   0  0  0  0  0  0  0  0  0  0  0  0
  189.6100  176.5710  137.3930 C   0  0  0  0  0  3  0  0  0  0  0  0
  188.2510  177.5520  140.0170 N   0  0  0  0  0  0  0  0  0  0  0  0
  188.2840  177.7500  142.3110 C   0  0  2  0  0  3  0  0  0  0  0  0
  191.5580  174.3030  137.0620 C   0  0  0  0  0  3  0  0  0  0  0  0
  191.7370  175.4850  137.8000 C   0  0  0  0  0  0  0  0  0  0  0  0
  193.9550  174.0230  136.8310 C   0  0  0  0  0  0  0  0  0  0  0  0
  193.0580  175.9430  138.0360 C   0  0  0  0  0  0  0  0  0  0  0  0
  194.1460  175.2080  137.5530 C   0  0  0  0  0  3  0  0  0  0  0  0
  192.6510  173.5820  136.5840 C   0  0  0  0  0  3  0  0  0  0  0  0
  195.1490  172.8400  134.9520 C   0  0  0  0  0  1  0  0  0  0  0  0
  195.0750  173.2710  136.3390 N   0  0  0  0  0  0  0  0  0  0  0  0
  196.0970  172.9540  137.1670 O   0  0  0  0  0  1  0  0  0  0  0  0
  193.9910  176.9310  139.9700 O   0  0  0  0  0  1  0  0  0  0  0  0
  193.3480  177.2140  138.7650 C   0  0  0  0  0  2  0  0  0  0  0  0
  185.3590  177.7850  138.2450 N   0  0  0  0  0  0  0  0  0  0  0  0
  186.4500  178.4240  138.5210 C   0  0  0  0  0  3  0  0  0  0  0  0
  184.1770  178.4700  138.1020 O   0  0  0  0  0  0  0  0  0  0  0  0
  183.9880  179.7030  138.7790 C   0  0  0  0  0  2  0  0  0  0  0  0
  182.5100  179.9460  139.0500 C   0  0  1  0  0  3  0  0  0  0  0  0
  182.0160  180.9110  138.1710 O   0  0  0  0  0  1  0  0  0  0  0  0
  181.6960  178.6640  138.9150 C   0  0  0  0  0  2  0  0  0  0  0  0
  181.7780  177.8950  140.1090 O   0  0  0  0  0  0  0  0  0  0  0  0
  183.8540  178.3620  142.0970 C   0  0  0  0  0  2  0  0  0  0  0  0
  181.4360  178.4210  141.3580 C   0  0  0  0  0  0  0  0  0  0  0  0
  183.5520  179.3550  144.3020 C   0  0  0  0  0  2  0  0  0  0  0  0
  184.5530  178.6200  143.4200 C   0  0  0  0  0  2  0  0  0  0  0  0
  182.4560  178.6450  142.3360 N   0  0  0  0  0  0  0  0  0  0  0  0
  180.2360  178.7040  141.6250 O   0  0  0  0  0  0  0  0  0  0  0  0
  182.1910  179.1640  143.6610 C   0  0  0  0  0  2  0  0  0  0  0  0
  190.6890  178.3470  142.2410 C   0  0  0  0  0  2  0  0  0  0  0  0
  191.6890  177.8190  143.1610 N   0  0  0  0  0  2  0  0  0  0  0  0
  191.6040  177.4370  145.4900 C   0  0  0  0  0  3  0  0  0  0  0  0
  191.3590  177.0410  144.2820 N   0  0  0  0  0  0  0  0  0  0  0  0
  191.2370  176.5790  146.6590 C   0  0  2  0  0  3  0  0  0  0  0  0
  190.7530  177.3650  147.8480 C   0  0  0  0  0  0  0  0  0  0  0  0
  191.6050  177.9620  148.5560 O   0  0  0  0  0  0  0  0  0  0  0  0
  189.3700  177.4570  148.2110 N   0  0  0  0  0  2  0  0  0  0  0  0
  188.2770  176.8810  147.4470 C   0  0  0  0  0  2  0  0  0  0  0  0
  187.9080  177.8030  146.3010 C   0  0  0  0  0  2  0  0  0  0  0  0
  186.4000  177.9400  146.2000 C   0  0  0  0  0  2  0  0  0  0  0  0
  185.8730  178.8050  147.3300 C   0  0  0  0  0  1  0  0  0  0  0  0
  192.6280  174.6630  146.2550 O   0  0  0  0  0  0  0  0  0  0  0  0
  192.3140  175.6070  147.0270 C   0  0  0  0  0  0  0  0  0  0  0  0
  193.0130  175.7710  148.2550 N   0  0  0  0  0  1  0  0  0  0  0  0
  1 38  1  6  0  0  0
  1 11  1  0  0  0  0
  3  4  1  0  0  0  0
  4  8  2  0  0  0  0
  5  7  2  0  0  0  0
  6 11  1  0  0  0  0
  7 10  1  0  0  0  0
  8  1  1  0  0  0  0
  9  5  1  0  0  0  0
  9  3  2  0  0  0  0
 10  8  1  0  0  0  0
 10  6  1  0  0  0  0
 11  2  1  1  0  0  0
 12 13  1  0  0  0  0
 13 15  2  0  0  0  0
 13  3  1  0  0  0  0
 14 16  2  0  0  0  0
 15 22  1  0  0  0  0
 16 15  1  0  0  0  0
 17 14  1  0  0  0  0
 17 12  2  0  0  0  0
 18 19  1  0  0  0  0
 19 14  1  0  0  0  0
 19 20  1  0  0  0  0
 22 21  1  0  0  0  0
 23 24  2  0  0  0  0
 24  7  1  0  0  0  0
 25 23  1  0  0  0  0
 25 26  1  0  0  0  0
 26 27  1  0  0  0  0
 27 28  1  6  0  0  0
 29 27  1  0  0  0  0
 29 30  1  0  0  0  0
 30 32  1  0  0  0  0
 31 35  1  0  0  0  0
 31 34  1  0  0  0  0
 32 36  2  0  0  0  0
 32 35  1  0  0  0  0
 34 33  1  0  0  0  0
 35 37  1  0  0  0  0
 37 33  1  0  0  0  0
 38 39  1  0  0  0  0
 39 41  1  0  0  0  0
 41 40  2  0  0  0  0
 42 40  1  6  0  0  0
 42 51  1  0  0  0  0
 42 43  1  0  0  0  0
 43 45  1  0  0  0  0
 43 44  2  0  0  0  0
 46 45  1  0  0  0  0
 47 46  1  0  0  0  0
 48 47  1  0  0  0  0
 48 49  1  0  0  0  0
 50 51  2  0  0  0  0
 51 52  1  0  0  0  0
M  END
>  <MODEL>
6

>  <REMARK>
 VINA RESULT:      -7.3      2.401      8.478
  Name = 
  19 active torsions:
  status: ('A' for Active; 'I' for Inactive)
    1  A    between atoms: C_2  and  C_16
    2  A    between atoms: C_4  and  C_18
    3  A    between atoms: N_7  and  C_21
    4  A    between atoms: C_8  and  C_14
    5  A    between atoms: C_11  and  C_16
    6  A    between atoms: C_13  and  C_17
    7  A    between atoms: C_13  and  C_36
    8  A    between atoms: C_16  and  C_35
    9  A    between atoms: C_17  and  O_46
   10  A    between atoms: C_18  and  N_42
   11  A    between atoms: C_20  and  O_43
   12  A    between atoms: C_24  and  C_40
   13  A    between atoms: N_26  and  N_42
   14  A    between atoms: C_28  and  C_34
   15  A    between atoms: C_28  and  C_51
   16  A    between atoms: C_31  and  C_41
   17  A    between atoms: C_36  and  O_43
   18  A    between atoms: N_38  and  O_46
   19  A    between atoms: N_47  and  C_51
                            x       y       z     vdW  Elec       q    Type
                         _______ _______ _______ _____ _____    ______ ____

>  <TORSDO>
F 19

$$$$
=
 OpenBabel10232409253D

 52 55  0  0  1  0  0  0  0  0999 V2000
  190.0020  177.1670  142.4130 C   0  0  2  0  0  3  0  0  0  0  0  0
  191.9180  178.4050  143.2560 N   0  0  0  0  0  1  0  0  0  0  0  0
  188.2000  177.6600  139.0290 C   0  0  0  0  0  0  0  0  0  0  0  0
  188.6120  177.4680  140.4260 C   0  0  0  0  0  3  0  0  0  0  0  0
  190.4500  177.2970  137.9180 C   0  0  0  0  0  3  0  0  0  0  0  0
  192.1280  177.1850  141.2180 N   0  0  0  0  0  2  0  0  0  0  0  0
  191.3570  177.1590  138.8870 C   0  0  0  0  0  0  0  0  0  0  0  0
  189.8170  177.2650  140.9550 C   0  0  0  0  0  0  0  0  0  0  0  0
  189.0120  177.5550  137.9790 C   0  0  0  0  0  3  0  0  0  0  0  0
  191.0710  177.2480  140.2950 N   0  0  0  0  0  0  0  0  0  0  0  0
  191.5190  177.1990  142.5530 C   0  0  2  0  0  3  0  0  0  0  0  0
  186.0250  178.6020  139.7620 C   0  0  0  0  0  3  0  0  0  0  0  0
  186.7540  177.9030  138.7850 C   0  0  0  0  0  0  0  0  0  0  0  0
  183.9940  178.4240  138.4500 C   0  0  0  0  0  0  0  0  0  0  0  0
  186.0790  177.4770  137.6140 C   0  0  0  0  0  0  0  0  0  0  0  0
  184.7130  177.7380  137.4620 C   0  0  0  0  0  3  0  0  0  0  0  0
  184.6650  178.8590  139.5970 C   0  0  0  0  0  3  0  0  0  0  0  0
  182.0580  180.0360  138.3970 C   0  0  0  0  0  1  0  0  0  0  0  0
  182.5920  178.6890  138.2910 N   0  0  0  0  0  0  0  0  0  0  0  0
  181.7350  177.6750  138.0290 O   0  0  0  0  0  1  0  0  0  0  0  0
  186.6590  177.5160  135.3220 O   0  0  0  0  0  1  0  0  0  0  0  0
  186.7780  176.7720  136.4960 C   0  0  0  0  0  2  0  0  0  0  0  0
  193.0700  176.4620  137.3150 N   0  0  0  0  0  0  0  0  0  0  0  0
  192.7590  176.9250  138.4820 C   0  0  0  0  0  3  0  0  0  0  0  0
  194.3870  176.2570  136.9850 O   0  0  0  0  0  0  0  0  0  0  0  0
  194.7250  175.7480  135.7040 C   0  0  0  0  0  2  0  0  0  0  0  0
  194.4560  174.2510  135.6330 C   0  0  1  0  0  3  0  0  0  0  0  0
  193.5880  173.9710  134.5770 O   0  0  0  0  0  1  0  0  0  0  0  0
  195.7440  173.4560  135.4640 C   0  0  0  0  0  2  0  0  0  0  0  0
  196.0940  172.8090  136.6820 O   0  0  0  0  0  0  0  0  0  0  0  0
  198.0960  174.3240  138.1580 C   0  0  0  0  0  2  0  0  0  0  0  0
  195.7730  173.3490  137.9310 C   0  0  0  0  0  0  0  0  0  0  0  0
  197.7750  175.4520  140.2950 C   0  0  0  0  0  2  0  0  0  0  0  0
  198.8330  175.0270  139.2840 C   0  0  0  0  0  2  0  0  0  0  0  0
  196.7590  174.0890  138.6580 N   0  0  0  0  0  0  0  0  0  0  0  0
  194.6190  173.1940  138.4160 O   0  0  0  0  0  0  0  0  0  0  0  0
  196.5210  174.6640  139.9640 C   0  0  0  0  0  2  0  0  0  0  0  0
  189.4840  175.8380  142.9440 C   0  0  0  0  0  2  0  0  0  0  0  0
  188.0880  175.9670  143.3440 N   0  0  0  0  0  2  0  0  0  0  0  0
  186.5670  177.2260  144.6410 C   0  0  0  0  0  3  0  0  0  0  0  0
  187.5260  177.1800  143.7730 N   0  0  0  0  0  0  0  0  0  0  0  0
  185.9960  178.5390  145.0720 C   0  0  2  0  0  3  0  0  0  0  0  0
  185.4970  178.5350  146.4920 C   0  0  0  0  0  0  0  0  0  0  0  0
  184.2540  178.5640  146.6880 O   0  0  0  0  0  0  0  0  0  0  0  0
  186.3720  178.5080  147.6270 N   0  0  0  0  0  2  0  0  0  0  0  0
  187.8190  178.4010  147.5480 C   0  0  0  0  0  2  0  0  0  0  0  0
  188.2620  177.0350  148.0350 C   0  0  0  0  0  2  0  0  0  0  0  0
  189.5550  176.6270  147.3550 C   0  0  0  0  0  2  0  0  0  0  0  0
  189.9200  177.6280  146.2740 C   0  0  0  0  0  1  0  0  0  0  0  0
  184.7300  180.3020  144.0440 O   0  0  0  0  0  0  0  0  0  0  0  0
  184.9720  179.0680  144.1170 C   0  0  0  0  0  0  0  0  0  0  0  0
  184.2860  178.1660  143.2580 N   0  0  0  0  0  1  0  0  0  0  0  0
  1 11  1  0  0  0  0
  1 38  1  6  0  0  0
  3  4  1  0  0  0  0
  4  8  2  0  0  0  0
  5  9  1  0  0  0  0
  5  7  2  0  0  0  0
  6 11  1  0  0  0  0
  7 10  1  0  0  0  0
  8  1  1  0  0  0  0
  9  3  2  0  0  0  0
 10  8  1  0  0  0  0
 10  6  1  0  0  0  0
 11  2  1  6  0  0  0
 13  3  1  0  0  0  0
 13 12  2  0  0  0  0
 14 17  2  0  0  0  0
 15 13  1  0  0  0  0
 16 15  2  0  0  0  0
 16 14  1  0  0  0  0
 17 12  1  0  0  0  0
 19 18  1  0  0  0  0
 19 14  1  0  0  0  0
 20 19  1  0  0  0  0
 21 22  1  0  0  0  0
 22 15  1  0  0  0  0
 23 24  2  0  0  0  0
 24  7  1  0  0  0  0
 25 23  1  0  0  0  0
 26 25  1  0  0  0  0
 27 28  1  6  0  0  0
 27 26  1  0  0  0  0
 29 27  1  0  0  0  0
 29 30  1  0  0  0  0
 30 32  1  0  0  0  0
 31 35  1  0  0  0  0
 31 34  1  0  0  0  0
 32 36  2  0  0  0  0
 32 35  1  0  0  0  0
 34 33  1  0  0  0  0
 35 37  1  0  0  0  0
 37 33  1  0  0  0  0
 38 39  1  0  0  0  0
 39 41  1  0  0  0  0
 41 40  2  0  0  0  0
 42 40  1  6  0  0  0
 42 43  1  0  0  0  0
 43 44  2  0  0  0  0
 43 45  1  0  0  0  0
 46 45  1  0  0  0  0
 46 47  1  0  0  0  0
 48 47  1  0  0  0  0
 49 48  1  0  0  0  0
 50 51  2  0  0  0  0
 51 42  1  0  0  0  0
 52 51  1  0  0  0  0
M  END
>  <MODEL>
7

>  <REMARK>
 VINA RESULT:      -7.3      2.605     10.711
  Name = 
  19 active torsions:
  status: ('A' for Active; 'I' for Inactive)
    1  A    between atoms: C_2  and  C_16
    2  A    between atoms: C_4  and  C_18
    3  A    between atoms: N_7  and  C_21
    4  A    between atoms: C_8  and  C_14
    5  A    between atoms: C_11  and  C_16
    6  A    between atoms: C_13  and  C_17
    7  A    between atoms: C_13  and  C_36
    8  A    between atoms: C_16  and  C_35
    9  A    between atoms: C_17  and  O_46
   10  A    between atoms: C_18  and  N_42
   11  A    between atoms: C_20  and  O_43
   12  A    between atoms: C_24  and  C_40
   13  A    between atoms: N_26  and  N_42
   14  A    between atoms: C_28  and  C_34
   15  A    between atoms: C_28  and  C_51
   16  A    between atoms: C_31  and  C_41
   17  A    between atoms: C_36  and  O_43
   18  A    between atoms: N_38  and  O_46
   19  A    between atoms: N_47  and  C_51
                            x       y       z     vdW  Elec       q    Type
                         _______ _______ _______ _____ _____    ______ ____

>  <TORSDO>
F 19

$$$$
=
 OpenBabel10232409253D

 52 55  0  0  1  0  0  0  0  0999 V2000
  188.2360  177.0160  138.3030 C   0  0  2  0  0  3  0  0  0  0  0  0
  188.5100  175.2850  136.6180 N   0  0  0  0  0  1  0  0  0  0  0  0
  190.0350  177.2670  141.7160 C   0  0  0  0  0  0  0  0  0  0  0  0
  189.1090  177.2320  140.5760 C   0  0  0  0  0  3  0  0  0  0  0  0
  192.2190  177.1730  140.4330 C   0  0  0  0  0  3  0  0  0  0  0  0
  190.3990  176.5910  137.2600 N   0  0  0  0  0  2  0  0  0  0  0  0
  191.9190  177.0040  139.1430 C   0  0  0  0  0  0  0  0  0  0  0  0
  189.3430  177.0930  139.2720 C   0  0  0  0  0  0  0  0  0  0  0  0
  191.3610  177.2640  141.6140 C   0  0  0  0  0  3  0  0  0  0  0  0
  190.5830  176.8640  138.6260 N   0  0  0  0  0  0  0  0  0  0  0  0
  188.9510  176.6090  137.0210 C   0  0  2  0  0  3  0  0  0  0  0  0
  188.1260  176.9100  143.2600 C   0  0  0  0  0  3  0  0  0  0  0  0
  189.4270  177.4000  143.0670 C   0  0  0  0  0  0  0  0  0  0  0  0
  188.1540  177.6010  145.5840 C   0  0  0  0  0  0  0  0  0  0  0  0
  190.1010  177.9860  144.1680 C   0  0  0  0  0  0  0  0  0  0  0  0
  189.4580  178.0810  145.4070 C   0  0  0  0  0  3  0  0  0  0  0  0
  187.4970  177.0080  144.5010 C   0  0  0  0  0  3  0  0  0  0  0  0
  188.1650  177.3160  148.0880 C   0  0  0  0  0  1  0  0  0  0  0  0
  187.4970  177.7030  146.8560 N   0  0  0  0  0  0  0  0  0  0  0  0
  186.2300  178.1730  146.9310 O   0  0  0  0  0  1  0  0  0  0  0  0
  191.5100  179.8840  144.1060 O   0  0  0  0  0  1  0  0  0  0  0  0
  191.5050  178.4890  144.0750 C   0  0  0  0  0  2  0  0  0  0  0  0
  193.8000  175.8830  138.0960 N   0  0  0  0  0  0  0  0  0  0  0  0
  193.0410  176.9270  138.1850 C   0  0  0  0  0  3  0  0  0  0  0  0
  194.8340  175.8590  137.1920 O   0  0  0  0  0  0  0  0  0  0  0  0
  194.8450  174.8910  136.1550 C   0  0  0  0  0  2  0  0  0  0  0  0
  196.0230  175.1200  135.2190 C   0  0  1  0  0  3  0  0  0  0  0  0
  196.6150  176.3550  135.4900 O   0  0  0  0  0  1  0  0  0  0  0  0
  197.0630  174.0140  135.3430 C   0  0  0  0  0  2  0  0  0  0  0  0
  197.2490  173.6560  136.7080 O   0  0  0  0  0  0  0  0  0  0  0  0
  196.9050  174.6980  139.4050 C   0  0  0  0  0  2  0  0  0  0  0  0
  198.3660  174.0680  137.4400 C   0  0  0  0  0  0  0  0  0  0  0  0
  198.6770  175.3870  140.9300 C   0  0  0  0  0  2  0  0  0  0  0  0
  197.1670  175.4020  140.7250 C   0  0  0  0  0  2  0  0  0  0  0  0
  198.1960  174.5840  138.7630 N   0  0  0  0  0  0  0  0  0  0  0  0
  199.5230  173.9790  136.9440 O   0  0  0  0  0  0  0  0  0  0  0  0
  199.2910  175.0530  139.5840 C   0  0  0  0  0  2  0  0  0  0  0  0
  187.5910  178.3790  138.0980 C   0  0  0  0  0  2  0  0  0  0  0  0
  186.3890  178.4950  138.9150 N   0  0  0  0  0  2  0  0  0  0  0  0
  184.0350  178.6870  138.9400 C   0  0  0  0  0  3  0  0  0  0  0  0
  185.1090  178.1680  138.4380 N   0  0  0  0  0  0  0  0  0  0  0  0
  182.6890  178.3120  138.4040 C   0  0  2  0  0  3  0  0  0  0  0  0
  181.5510  178.9780  139.1300 C   0  0  0  0  0  0  0  0  0  0  0  0
  180.5850  179.4150  138.4530 O   0  0  0  0  0  0  0  0  0  0  0  0
  181.5240  179.1420  140.5540 N   0  0  0  0  0  2  0  0  0  0  0  0
  182.5330  178.6240  141.4620 C   0  0  0  0  0  2  0  0  0  0  0  0
  182.2650  179.1260  142.8680 C   0  0  0  0  0  2  0  0  0  0  0  0
  183.5190  179.0100  143.7160 C   0  0  0  0  0  2  0  0  0  0  0  0
  184.6560  178.4270  142.8980 C   0  0  0  0  0  1  0  0  0  0  0  0
  182.9710  176.0510  139.1640 O   0  0  0  0  0  0  0  0  0  0  0  0
  182.4990  176.8320  138.2950 C   0  0  0  0  0  0  0  0  0  0  0  0
  181.7470  176.3020  137.2100 N   0  0  0  0  0  1  0  0  0  0  0  0
  1 38  1  6  0  0  0
  1  8  1  0  0  0  0
  3 13  1  0  0  0  0
  4  3  1  0  0  0  0
  5  9  1  0  0  0  0
  6 10  1  0  0  0  0
  7  5  2  0  0  0  0
  8  4  2  0  0  0  0
  9  3  2  0  0  0  0
 10  7  1  0  0  0  0
 10  8  1  0  0  0  0
 11  2  1  1  0  0  0
 11  6  1  0  0  0  0
 11  1  1  0  0  0  0
 12 17  1  0  0  0  0
 13 12  2  0  0  0  0
 13 15  1  0  0  0  0
 14 19  1  0  0  0  0
 15 16  2  0  0  0  0
 16 14  1  0  0  0  0
 17 14  2  0  0  0  0
 19 20  1  0  0  0  0
 19 18  1  0  0  0  0
 22 21  1  0  0  0  0
 22 15  1  0  0  0  0
 23 24  2  0  0  0  0
 24  7  1  0  0  0  0
 25 23  1  0  0  0  0
 26 25  1  0  0  0  0
 27 29  1  0  0  0  0
 27 28  1  1  0  0  0
 27 26  1  0  0  0  0
 29 30  1  0  0  0  0
 30 32  1  0  0  0  0
 31 34  1  0  0  0  0
 32 35  1  0  0  0  0
 34 33  1  0  0  0  0
 35 31  1  0  0  0  0
 35 37  1  0  0  0  0
 36 32  2  0  0  0  0
 37 33  1  0  0  0  0
 38 39  1  0  0  0  0
 41 39  1  0  0  0  0
 41 40  2  0  0  0  0
 42 40  1  1  0  0  0
 42 43  1  0  0  0  0
 43 45  1  0  0  0  0
 44 43  2  0  0  0  0
 45 46  1  0  0  0  0
 46 47  1  0  0  0  0
 47 48  1  0  0  0  0
 49 48  1  0  0  0  0
 51 42  1  0  0  0  0
 51 50  2  0  0  0  0
 52 51  1  0  0  0  0
M  END
>  <MODEL>
8

>  <REMARK>
 VINA RESULT:      -7.1      2.423     10.344
  Name = 
  19 active torsions:
  status: ('A' for Active; 'I' for Inactive)
    1  A    between atoms: C_2  and  C_16
    2  A    between atoms: C_4  and  C_18
    3  A    between atoms: N_7  and  C_21
    4  A    between atoms: C_8  and  C_14
    5  A    between atoms: C_11  and  C_16
    6  A    between atoms: C_13  and  C_17
    7  A    between atoms: C_13  and  C_36
    8  A    between atoms: C_16  and  C_35
    9  A    between atoms: C_17  and  O_46
   10  A    between atoms: C_18  and  N_42
   11  A    between atoms: C_20  and  O_43
   12  A    between atoms: C_24  and  C_40
   13  A    between atoms: N_26  and  N_42
   14  A    between atoms: C_28  and  C_34
   15  A    between atoms: C_28  and  C_51
   16  A    between atoms: C_31  and  C_41
   17  A    between atoms: C_36  and  O_43
   18  A    between atoms: N_38  and  O_46
   19  A    between atoms: N_47  and  C_51
                            x       y       z     vdW  Elec       q    Type
                         _______ _______ _______ _____ _____    ______ ____

>  <TORSDO>
F 19

$$$$
=
 OpenBabel10232409253D

 52 55  0  0  1  0  0  0  0  0999 V2000
  189.9790  177.1950  142.4150 C   0  0  2  0  0  3  0  0  0  0  0  0
  191.9200  178.4080  143.2350 N   0  0  0  0  0  1  0  0  0  0  0  0
  188.1560  177.6980  139.0430 C   0  0  0  0  0  0  0  0  0  0  0  0
  188.5770  177.5070  140.4380 C   0  0  0  0  0  3  0  0  0  0  0  0
  190.3900  177.2950  137.9150 C   0  0  0  0  0  3  0  0  0  0  0  0
  192.0950  177.1750  141.2010 N   0  0  0  0  0  2  0  0  0  0  0  0
  191.3040  177.1490  138.8770 C   0  0  0  0  0  0  0  0  0  0  0  0
  189.7830  177.2880  140.9580 C   0  0  0  0  0  0  0  0  0  0  0  0
  188.9570  177.5750  137.9870 C   0  0  0  0  0  3  0  0  0  0  0  0
  191.0300  177.2490  140.2870 N   0  0  0  0  0  0  0  0  0  0  0  0
  191.4970  177.2040  142.5420 C   0  0  2  0  0  3  0  0  0  0  0  0
  186.0330  178.7870  139.7210 C   0  0  0  0  0  3  0  0  0  0  0  0
  186.7110  177.9620  138.8100 C   0  0  0  0  0  0  0  0  0  0  0  0
  183.9610  178.5350  138.4880 C   0  0  0  0  0  0  0  0  0  0  0  0
  185.9910  177.4320  137.7100 C   0  0  0  0  0  0  0  0  0  0  0  0
  184.6300  177.7210  137.5650 C   0  0  0  0  0  3  0  0  0  0  0  0
  184.6770  179.0710  139.5630 C   0  0  0  0  0  3  0  0  0  0  0  0
  181.5820  177.7710  138.1570 C   0  0  0  0  0  1  0  0  0  0  0  0
  182.5640  178.8280  138.3360 N   0  0  0  0  0  0  0  0  0  0  0  0
  182.1310  180.1100  138.3650 O   0  0  0  0  0  1  0  0  0  0  0  0
  186.4670  175.2370  136.9720 O   0  0  0  0  0  1  0  0  0  0  0  0
  186.6360  176.5860  136.6600 C   0  0  0  0  0  2  0  0  0  0  0  0
  193.0050  176.5530  137.2510 N   0  0  0  0  0  0  0  0  0  0  0  0
  192.6980  176.8920  138.4620 C   0  0  0  0  0  3  0  0  0  0  0  0
  194.3150  176.3210  136.9130 O   0  0  0  0  0  0  0  0  0  0  0  0
  194.6290  175.7280  135.6620 C   0  0  0  0  0  2  0  0  0  0  0  0
  196.1040  175.9100  135.3360 C   0  0  1  0  0  3  0  0  0  0  0  0
  196.4670  177.2480  135.4950 O   0  0  0  0  0  1  0  0  0  0  0  0
  196.9860  175.0310  136.2150 C   0  0  0  0  0  2  0  0  0  0  0  0
  196.8450  173.6630  135.8520 O   0  0  0  0  0  0  0  0  0  0  0  0
  194.7670  171.6230  135.8190 C   0  0  0  0  0  2  0  0  0  0  0  0
  196.8670  172.6350  136.7990 C   0  0  0  0  0  0  0  0  0  0  0  0
  194.6230  169.6780  137.2800 C   0  0  0  0  0  2  0  0  0  0  0  0
  193.8540  170.4870  136.2420 C   0  0  0  0  0  2  0  0  0  0  0  0
  195.8430  171.6360  136.7850 N   0  0  0  0  0  0  0  0  0  0  0  0
  197.7880  172.5800  137.6600 O   0  0  0  0  0  0  0  0  0  0  0  0
  195.7750  170.5510  137.7390 C   0  0  0  0  0  2  0  0  0  0  0  0
  189.4460  175.8770  142.9570 C   0  0  0  0  0  2  0  0  0  0  0  0
  188.0480  176.0220  143.3460 N   0  0  0  0  0  2  0  0  0  0  0  0
  186.3270  177.2870  144.3560 C   0  0  0  0  0  3  0  0  0  0  0  0
  187.5190  177.2200  143.8540 N   0  0  0  0  0  0  0  0  0  0  0  0
  185.8000  178.5830  144.8860 C   0  0  2  0  0  3  0  0  0  0  0  0
  185.3720  178.5070  146.3270 C   0  0  0  0  0  0  0  0  0  0  0  0
  184.1420  178.4170  146.5810 O   0  0  0  0  0  0  0  0  0  0  0  0
  186.2990  178.5400  147.4190 N   0  0  0  0  0  2  0  0  0  0  0  0
  187.7440  178.5690  147.2720 C   0  0  0  0  0  2  0  0  0  0  0  0
  188.3810  177.5990  148.2490 C   0  0  0  0  0  2  0  0  0  0  0  0
  189.7980  177.2700  147.8170 C   0  0  0  0  0  2  0  0  0  0  0  0
  189.9140  177.3280  146.3050 C   0  0  0  0  0  1  0  0  0  0  0  0
  184.4480  180.4020  144.0910 O   0  0  0  0  0  0  0  0  0  0  0  0
  184.7400  179.1790  144.0140 C   0  0  0  0  0  0  0  0  0  0  0  0
  184.0730  178.3570  143.0640 N   0  0  0  0  0  1  0  0  0  0  0  0
  1 11  1  0  0  0  0
  1 38  1  6  0  0  0
  3  4  1  0  0  0  0
  4  8  2  0  0  0  0
  5  9  1  0  0  0  0
  5  7  2  0  0  0  0
  6 11  1  0  0  0  0
  7 10  1  0  0  0  0
  8  1  1  0  0  0  0
  9  3  2  0  0  0  0
 10  8  1  0  0  0  0
 10  6  1  0  0  0  0
 11  2  1  6  0  0  0
 13  3  1  0  0  0  0
 13 12  2  0  0  0  0
 14 17  2  0  0  0  0
 15 13  1  0  0  0  0
 16 15  2  0  0  0  0
 16 14  1  0  0  0  0
 17 12  1  0  0  0  0
 18 19  1  0  0  0  0
 19 20  1  0  0  0  0
 19 14  1  0  0  0  0
 22 21  1  0  0  0  0
 22 15  1  0  0  0  0
 23 24  2  0  0  0  0
 24  7  1  0  0  0  0
 25 23  1  0  0  0  0
 26 25  1  0  0  0  0
 27 28  1  1  0  0  0
 27 26  1  0  0  0  0
 27 29  1  0  0  0  0
 30 29  1  0  0  0  0
 30 32  1  0  0  0  0
 31 34  1  0  0  0  0
 31 35  1  0  0  0  0
 32 36  2  0  0  0  0
 33 37  1  0  0  0  0
 34 33  1  0  0  0  0
 35 32  1  0  0  0  0
 35 37  1  0  0  0  0
 38 39  1  0  0  0  0
 39 41  1  0  0  0  0
 41 40  2  0  0  0  0
 42 40  1  6  0  0  0
 42 43  1  0  0  0  0
 43 44  2  0  0  0  0
 43 45  1  0  0  0  0
 46 45  1  0  0  0  0
 46 47  1  0  0  0  0
 48 47  1  0  0  0  0
 49 48  1  0  0  0  0
 51 50  2  0  0  0  0
 51 42  1  0  0  0  0
 52 51  1  0  0  0  0
M  END
>  <MODEL>
9

>  <REMARK>
 VINA RESULT:      -7.1      2.574     10.770
  Name = 
  19 active torsions:
  status: ('A' for Active; 'I' for Inactive)
    1  A    between atoms: C_2  and  C_16
    2  A    between atoms: C_4  and  C_18
    3  A    between atoms: N_7  and  C_21
    4  A    between atoms: C_8  and  C_14
    5  A    between atoms: C_11  and  C_16
    6  A    between atoms: C_13  and  C_17
    7  A    between atoms: C_13  and  C_36
    8  A    between atoms: C_16  and  C_35
    9  A    between atoms: C_17  and  O_46
   10  A    between atoms: C_18  and  N_42
   11  A    between atoms: C_20  and  O_43
   12  A    between atoms: C_24  and  C_40
   13  A    between atoms: N_26  and  N_42
   14  A    between atoms: C_28  and  C_34
   15  A    between atoms: C_28  and  C_51
   16  A    between atoms: C_31  and  C_41
   17  A    between atoms: C_36  and  O_43
   18  A    between atoms: N_38  and  O_46
   19  A    between atoms: N_47  and  C_51
                            x       y       z     vdW  Elec       q    Type
                         _______ _______ _______ _____ _____    ______ ____

>  <TORSDO>
F 19

$$$$
