=
 OpenBabel10222421293D

 34 40  0  0  1  0  0  0  0  0999 V2000
  191.4940  177.2170  140.2920 C   0  0  0  0  0  0  0  0  0  0  0  0
  192.5100  176.5800  138.4670 C   0  0  0  0  0  0  0  0  0  0  0  0
  192.9360  177.5040  140.3700 C   0  0  0  0  0  3  0  0  0  0  0  0
  192.6210  176.3000  137.2090 N   0  0  0  0  0  0  0  0  0  0  0  0
  189.1320  177.8530  141.7140 C   0  0  1  0  0  0  0  0  0  0  0  0
  188.3800  176.4770  139.0550 S   0  0  0  0  0  0  0  0  0  0  0  0
  190.1320  178.4430  142.4570 C   0  0  1  0  0  3  0  0  0  0  0  0
  189.2590  176.5490  143.7390 C   0  0  1  0  0  3  0  0  0  0  0  0
  188.5910  176.6000  142.3830 C   0  0  0  0  0  2  0  0  0  0  0  0
  190.3900  177.5610  143.6700 C   0  0  0  0  0  2  0  0  0  0  0  0
  191.4620  175.8300  136.4260 C   0  0  0  0  0  2  0  0  0  0  0  0
  193.5370  177.1300  139.2800 N   0  0  0  0  0  0  0  0  0  0  0  0
  190.1650  176.0490  137.1060 N   0  0  0  0  0  0  0  0  0  0  0  0
  188.2550  178.8040  140.8910 C   0  0  1  0  0  3  0  0  0  0  0  0
  191.2500  176.6330  139.1300 C   0  0  0  0  0  0  0  0  0  0  0  0
  190.0300  176.3760  138.3600 C   0  0  0  0  0  0  0  0  0  0  0  0
  190.5230  177.7050  141.2100 N   0  0  0  0  0  0  0  0  0  0  0  0
  188.3910  178.6110  139.0680 S   0  0  0  0  0  0  0  0  0  0  0  0
  188.7720  177.3170  146.0910 N   0  0  0  0  0  2  0  0  0  0  0  0
  187.0400  176.8580  144.5920 O   0  0  0  0  0  0  0  0  0  0  0  0
  188.2820  176.9170  144.8110 C   0  0  0  0  0  0  0  0  0  0  0  0
  188.1560  176.8210  148.2820 O   0  0  0  0  0  0  0  0  0  0  0  0
  188.6610  178.1330  148.3410 C   0  0  0  0  0  2  0  0  0  0  0  0
  187.8770  177.6550  147.1840 C   0  0  1  0  0  3  0  0  0  0  0  0
  186.8010  178.7490  141.3310 C   0  0  0  0  0  2  0  0  0  0  0  0
  185.9330  179.1640  140.2410 N   0  0  0  0  0  2  0  0  0  0  0  0
  184.8280  178.2210  140.1890 C   0  0  0  0  0  2  0  0  0  0  0  0
  183.2530  178.8950  143.5530 C   0  0  0  0  0  0  0  0  0  0  0  0
  182.4840  178.7180  140.9180 C   0  0  0  0  0  3  0  0  0  0  0  0
  184.2160  178.6230  142.5840 C   0  0  0  0  0  3  0  0  0  0  0  0
  183.8270  178.5400  141.2490 C   0  0  0  0  0  0  0  0  0  0  0  0
  181.9560  179.0680  143.1810 N   0  0  0  0  0  0  0  0  0  0  0  0
  183.6380  178.9970  144.9850 C   0  0  0  0  0  1  0  0  0  0  0  0
  181.5830  178.9810  141.9020 N   0  0  0  0  0  0  0  0  0  0  0  0
  1  3  1  0  0  0  0
  1 17  1  0  0  0  0
  2 15  1  0  0  0  0
  2 12  1  0  0  0  0
  4  2  2  0  0  0  0
  5  9  1  1  0  0  0
  5  7  1  0  0  0  0
  6 18  1  0  0  0  0
  7 10  1  1  0  0  0
  8 21  1  1  0  0  0
  9  8  1  0  0  0  0
 10  8  1  0  0  0  0
 11 13  1  0  0  0  0
 11  4  1  0  0  0  0
 12  3  2  0  0  0  0
 13 16  2  0  0  0  0
 14 25  1  1  0  0  0
 14  5  1  0  0  0  0
 15  1  2  0  0  0  0
 16  6  1  0  0  0  0
 16 15  1  0  0  0  0
 17  5  1  0  0  0  0
 17  7  1  0  0  0  0
 18 14  1  0  0  0  0
 20 21  2  0  0  0  0
 21 19  1  0  0  0  0
 22 23  1  0  0  0  0
 24 19  1  6  0  0  0
 24 22  1  0  0  0  0
 24 23  1  0  0  0  0
 26 25  1  0  0  0  0
 27 26  1  0  0  0  0
 27 31  1  0  0  0  0
 28 33  1  0  0  0  0
 29 31  2  0  0  0  0
 29 34  1  0  0  0  0
 30 28  2  0  0  0  0
 31 30  1  0  0  0  0
 32 28  1  0  0  0  0
 34 32  2  0  0  0  0
M  END
>  <MODEL>
1

>  <REMARK>
 VINA RESULT:      -8.0      0.000      0.000
  Name = 
  6 active torsions:
  status: ('A' for Active; 'I' for Inactive)
    1  A    between atoms: N_11  and  C_32
    2  A    between atoms: C_14  and  C_26
    3  A    between atoms: C_16  and  C_34
    4  A    between atoms: N_23  and  C_26
    5  A    between atoms: N_23  and  C_28
    6  A    between atoms: C_27  and  C_28
                            x       y       z     vdW  Elec       q    Type
                         _______ _______ _______ _____ _____    ______ ____

>  <TORSDO>
F 6

$$$$
=
 OpenBabel10222421293D

 34 40  0  0  1  0  0  0  0  0999 V2000
  191.6800  177.1670  140.2440 C   0  0  0  0  0  0  0  0  0  0  0  0
  192.7400  176.5400  138.4410 C   0  0  0  0  0  0  0  0  0  0  0  0
  193.1230  177.4320  140.3680 C   0  0  0  0  0  3  0  0  0  0  0  0
  192.8830  176.2760  137.1820 N   0  0  0  0  0  0  0  0  0  0  0  0
  189.2860  177.8180  141.6060 C   0  0  1  0  0  0  0  0  0  0  0  0
  188.5930  176.4880  138.9070 S   0  0  0  0  0  0  0  0  0  0  0  0
  190.2730  178.3820  142.3850 C   0  0  1  0  0  3  0  0  0  0  0  0
  189.3360  176.4840  143.6150 C   0  0  1  0  0  3  0  0  0  0  0  0
  188.7080  176.5630  142.2410 C   0  0  0  0  0  2  0  0  0  0  0  0
  190.4830  177.4800  143.5940 C   0  0  0  0  0  2  0  0  0  0  0  0
  191.7410  175.8330  136.3600 C   0  0  0  0  0  2  0  0  0  0  0  0
  193.7500  177.0640  139.2900 N   0  0  0  0  0  0  0  0  0  0  0  0
  190.4280  176.0620  137.0050 N   0  0  0  0  0  0  0  0  0  0  0  0
  188.4470  178.7920  140.7710 C   0  0  1  0  0  3  0  0  0  0  0  0
  191.4620  176.6030  139.0680 C   0  0  0  0  0  0  0  0  0  0  0  0
  190.2610  176.3730  138.2590 C   0  0  0  0  0  0  0  0  0  0  0  0
  190.6890  177.6570  141.1410 N   0  0  0  0  0  0  0  0  0  0  0  0
  188.6340  178.6220  138.9510 S   0  0  0  0  0  0  0  0  0  0  0  0
  188.7880  177.1750  145.9780 N   0  0  0  0  0  2  0  0  0  0  0  0
  187.1000  176.8580  144.3950 O   0  0  0  0  0  0  0  0  0  0  0  0
  188.3330  176.8520  144.6630 C   0  0  0  0  0  0  0  0  0  0  0  0
  188.2060  176.7680  148.1960 O   0  0  0  0  0  0  0  0  0  0  0  0
  188.6050  178.1170  148.1730 C   0  0  0  0  0  2  0  0  0  0  0  0
  187.8650  177.5080  147.0490 C   0  0  1  0  0  3  0  0  0  0  0  0
  186.9800  178.7520  141.1690 C   0  0  0  0  0  2  0  0  0  0  0  0
  186.1400  178.8130  139.9830 N   0  0  0  0  0  2  0  0  0  0  0  0
  184.7590  178.8400  140.4360 C   0  0  0  0  0  2  0  0  0  0  0  0
  182.1270  176.4480  139.1680 C   0  0  0  0  0  0  0  0  0  0  0  0
  184.1260  178.0380  138.1490 C   0  0  0  0  0  3  0  0  0  0  0  0
  182.8930  177.2160  140.0430 C   0  0  0  0  0  3  0  0  0  0  0  0
  183.9010  178.0260  139.5260 C   0  0  0  0  0  0  0  0  0  0  0  0
  182.3810  176.4970  137.8340 N   0  0  0  0  0  0  0  0  0  0  0  0
  181.0400  175.5790  139.6900 C   0  0  0  0  0  1  0  0  0  0  0  0
  183.3520  177.2690  137.3390 N   0  0  0  0  0  0  0  0  0  0  0  0
  1  3  1  0  0  0  0
  1 17  1  0  0  0  0
  2 15  1  0  0  0  0
  2 12  1  0  0  0  0
  4  2  2  0  0  0  0
  5  9  1  1  0  0  0
  5  7  1  0  0  0  0
  6 18  1  0  0  0  0
  7 10  1  1  0  0  0
  8 21  1  1  0  0  0
  9  8  1  0  0  0  0
 10  8  1  0  0  0  0
 11 13  1  0  0  0  0
 11  4  1  0  0  0  0
 12  3  2  0  0  0  0
 13 16  2  0  0  0  0
 14 25  1  6  0  0  0
 14  5  1  0  0  0  0
 15  1  2  0  0  0  0
 16  6  1  0  0  0  0
 16 15  1  0  0  0  0
 17  5  1  0  0  0  0
 17  7  1  0  0  0  0
 18 14  1  0  0  0  0
 20 21  2  0  0  0  0
 21 19  1  0  0  0  0
 23 22  1  0  0  0  0
 24 19  1  6  0  0  0
 24 23  1  0  0  0  0
 24 22  1  0  0  0  0
 26 27  1  0  0  0  0
 26 25  1  0  0  0  0
 28 33  1  0  0  0  0
 28 30  1  0  0  0  0
 29 31  1  0  0  0  0
 31 30  2  0  0  0  0
 31 27  1  0  0  0  0
 32 28  2  0  0  0  0
 34 32  1  0  0  0  0
 34 29  2  0  0  0  0
M  END
>  <MODEL>
2

>  <REMARK>
 VINA RESULT:      -7.7      1.687      2.178
  Name = 
  6 active torsions:
  status: ('A' for Active; 'I' for Inactive)
    1  A    between atoms: N_11  and  C_32
    2  A    between atoms: C_14  and  C_26
    3  A    between atoms: C_16  and  C_34
    4  A    between atoms: N_23  and  C_26
    5  A    between atoms: N_23  and  C_28
    6  A    between atoms: C_27  and  C_28
                            x       y       z     vdW  Elec       q    Type
                         _______ _______ _______ _____ _____    ______ ____

>  <TORSDO>
F 6

$$$$
=
 OpenBabel10222421293D

 34 40  0  0  1  0  0  0  0  0999 V2000
  191.8520  176.7120  139.0900 C   0  0  0  0  0  0  0  0  0  0  0  0
  192.5360  176.0200  137.1350 C   0  0  0  0  0  0  0  0  0  0  0  0
  193.3090  176.8810  138.9560 C   0  0  0  0  0  3  0  0  0  0  0  0
  192.4380  175.7480  135.8730 N   0  0  0  0  0  0  0  0  0  0  0  0
  189.7820  177.5160  140.8440 C   0  0  1  0  0  0  0  0  0  0  0  0
  188.5410  176.2390  138.3220 S   0  0  0  0  0  0  0  0  0  0  0  0
  190.9240  178.0140  141.4320 C   0  0  1  0  0  3  0  0  0  0  0  0
  190.0980  176.1790  142.8260 C   0  0  1  0  0  3  0  0  0  0  0  0
  189.2450  176.3010  141.5820 C   0  0  0  0  0  2  0  0  0  0  0  0
  191.2850  177.0980  142.5940 C   0  0  0  0  0  2  0  0  0  0  0  0
  191.1430  175.3830  135.2680 C   0  0  0  0  0  2  0  0  0  0  0  0
  193.7110  176.4750  137.7880 N   0  0  0  0  0  0  0  0  0  0  0  0
  189.9810  175.6960  136.1310 N   0  0  0  0  0  0  0  0  0  0  0  0
  188.8740  178.5450  140.1590 C   0  0  1  0  0  3  0  0  0  0  0  0
  191.3950  176.1650  137.9750 C   0  0  0  0  0  0  0  0  0  0  0  0
  190.0580  176.0160  137.3920 C   0  0  0  0  0  0  0  0  0  0  0  0
  191.0680  177.2640  140.1410 N   0  0  0  0  0  0  0  0  0  0  0  0
  188.7270  178.3660  138.3360 S   0  0  0  0  0  0  0  0  0  0  0  0
  190.0210  177.1320  145.1600 N   0  0  0  0  0  2  0  0  0  0  0  0
  188.0630  176.4970  144.0540 O   0  0  0  0  0  0  0  0  0  0  0  0
  189.3210  176.6100  144.0300 C   0  0  0  0  0  0  0  0  0  0  0  0
  189.1100  176.4040  147.1770 O   0  0  0  0  0  0  0  0  0  0  0  0
  190.1750  177.2460  147.5480 C   0  0  0  0  0  2  0  0  0  0  0  0
  189.3300  177.5370  146.3720 C   0  0  1  0  0  3  0  0  0  0  0  0
  187.5000  178.6010  140.8080 C   0  0  0  0  0  2  0  0  0  0  0  0
  186.4740  178.7560  139.7900 N   0  0  0  0  0  2  0  0  0  0  0  0
  185.2110  178.9600  140.4810 C   0  0  0  0  0  2  0  0  0  0  0  0
  183.0250  177.4820  137.7800 C   0  0  0  0  0  0  0  0  0  0  0  0
  183.1080  177.6000  140.5270 C   0  0  0  0  0  3  0  0  0  0  0  0
  184.0730  178.1620  138.3970 C   0  0  0  0  0  3  0  0  0  0  0  0
  184.1180  178.2160  139.7890 C   0  0  0  0  0  0  0  0  0  0  0  0
  182.0660  176.8930  138.5430 N   0  0  0  0  0  0  0  0  0  0  0  0
  182.9530  177.4010  136.2980 C   0  0  0  0  0  1  0  0  0  0  0  0
  182.1060  176.9510  139.8760 N   0  0  0  0  0  0  0  0  0  0  0  0
  1 17  1  0  0  0  0
  2 12  1  0  0  0  0
  2 15  1  0  0  0  0
  3  1  1  0  0  0  0
  4  2  2  0  0  0  0
  5  7  1  0  0  0  0
  5  9  1  1  0  0  0
  6 18  1  0  0  0  0
  7 10  1  1  0  0  0
  8 21  1  1  0  0  0
  9  8  1  0  0  0  0
 10  8  1  0  0  0  0
 11  4  1  0  0  0  0
 11 13  1  0  0  0  0
 12  3  2  0  0  0  0
 13 16  2  0  0  0  0
 14 25  1  1  0  0  0
 14  5  1  0  0  0  0
 15  1  2  0  0  0  0
 16 15  1  0  0  0  0
 16  6  1  0  0  0  0
 17  5  1  0  0  0  0
 17  7  1  0  0  0  0
 18 14  1  0  0  0  0
 21 20  2  0  0  0  0
 21 19  1  0  0  0  0
 22 23  1  0  0  0  0
 24 19  1  6  0  0  0
 24 22  1  0  0  0  0
 24 23  1  0  0  0  0
 26 27  1  0  0  0  0
 26 25  1  0  0  0  0
 28 30  2  0  0  0  0
 28 32  1  0  0  0  0
 30 31  1  0  0  0  0
 31 27  1  0  0  0  0
 31 29  2  0  0  0  0
 32 34  2  0  0  0  0
 33 28  1  0  0  0  0
 34 29  1  0  0  0  0
M  END
>  <MODEL>
3

>  <REMARK>
 VINA RESULT:      -7.2      1.770      2.520
  Name = 
  6 active torsions:
  status: ('A' for Active; 'I' for Inactive)
    1  A    between atoms: N_11  and  C_32
    2  A    between atoms: C_14  and  C_26
    3  A    between atoms: C_16  and  C_34
    4  A    between atoms: N_23  and  C_26
    5  A    between atoms: N_23  and  C_28
    6  A    between atoms: C_27  and  C_28
                            x       y       z     vdW  Elec       q    Type
                         _______ _______ _______ _____ _____    ______ ____

>  <TORSDO>
F 6

$$$$
=
 OpenBabel10222421293D

 34 40  0  0  1  0  0  0  0  0999 V2000
  191.1820  175.7690  144.6230 C   0  0  0  0  0  0  0  0  0  0  0  0
  192.3970  175.4770  146.4140 C   0  0  0  0  0  0  0  0  0  0  0  0
  192.0090  174.5570  144.5010 C   0  0  0  0  0  3  0  0  0  0  0  0
  192.7020  175.5740  147.6670 N   0  0  0  0  0  0  0  0  0  0  0  0
  189.0160  176.9960  143.2760 C   0  0  1  0  0  0  0  0  0  0  0  0
  189.5070  178.4520  145.9540 S   0  0  0  0  0  0  0  0  0  0  0  0
  189.3000  175.8900  142.5050 C   0  0  1  0  0  3  0  0  0  0  0  0
  189.9720  177.8790  141.2460 C   0  0  1  0  0  3  0  0  0  0  0  0
  189.4920  178.2830  142.6220 C   0  0  0  0  0  2  0  0  0  0  0  0
  190.0730  176.3630  141.2820 C   0  0  0  0  0  2  0  0  0  0  0  0
  192.2220  176.7050  148.4850 C   0  0  0  0  0  2  0  0  0  0  0  0
  192.7260  174.3820  145.5710 N   0  0  0  0  0  0  0  0  0  0  0  0
  191.1260  177.4690  147.8460 N   0  0  0  0  0  0  0  0  0  0  0  0
  187.7440  176.9130  144.1290 C   0  0  1  0  0  3  0  0  0  0  0  0
  191.4440  176.3330  145.7910 C   0  0  0  0  0  0  0  0  0  0  0  0
  190.7710  177.3550  146.5980 C   0  0  0  0  0  0  0  0  0  0  0  0
  190.1250  176.1180  143.7370 N   0  0  0  0  0  0  0  0  0  0  0  0
  188.0200  176.9190  145.9460 S   0  0  0  0  0  0  0  0  0  0  0  0
  189.1560  177.8750  138.8600 N   0  0  0  0  0  2  0  0  0  0  0  0
  188.0400  179.0930  140.5100 O   0  0  0  0  0  0  0  0  0  0  0  0
  188.9910  178.3210  140.2060 C   0  0  0  0  0  0  0  0  0  0  0  0
  188.7430  179.4870  137.2290 O   0  0  0  0  0  0  0  0  0  0  0  0
  188.9830  178.3020  136.5080 C   0  0  0  0  0  2  0  0  0  0  0  0
  188.2590  178.2940  137.7960 C   0  0  1  0  0  3  0  0  0  0  0  0
  186.7340  177.9790  143.7340 C   0  0  0  0  0  2  0  0  0  0  0  0
  185.6150  177.9740  144.6620 N   0  0  0  0  0  2  0  0  0  0  0  0
  184.9000  179.2260  144.4790 C   0  0  0  0  0  2  0  0  0  0  0  0
  181.3220  178.5990  143.4490 C   0  0  0  0  0  0  0  0  0  0  0  0
  183.7780  178.9410  142.2590 C   0  0  0  0  0  3  0  0  0  0  0  0
  182.4370  178.8280  144.2520 C   0  0  0  0  0  3  0  0  0  0  0  0
  183.6800  179.0080  143.6480 C   0  0  0  0  0  0  0  0  0  0  0  0
  181.4670  178.5490  142.0980 N   0  0  0  0  0  0  0  0  0  0  0  0
  179.9820  178.4120  144.0640 C   0  0  0  0  0  1  0  0  0  0  0  0
  182.6590  178.7130  141.5210 N   0  0  0  0  0  0  0  0  0  0  0  0
  1 15  2  0  0  0  0
  2  4  2  0  0  0  0
  3  1  1  0  0  0  0
  3 12  2  0  0  0  0
  4 11  1  0  0  0  0
  5  9  1  6  0  0  0
  5 17  1  0  0  0  0
  5 14  1  0  0  0  0
  6 16  1  0  0  0  0
  7 10  1  6  0  0  0
  7  5  1  0  0  0  0
  7 17  1  0  0  0  0
  8 21  1  6  0  0  0
  8 10  1  0  0  0  0
  8  9  1  0  0  0  0
 12  2  1  0  0  0  0
 13 11  1  0  0  0  0
 14 25  1  1  0  0  0
 14 18  1  0  0  0  0
 15  2  1  0  0  0  0
 15 16  1  0  0  0  0
 16 13  2  0  0  0  0
 17  1  1  0  0  0  0
 18  6  1  0  0  0  0
 19 21  1  0  0  0  0
 21 20  2  0  0  0  0
 22 24  1  0  0  0  0
 23 22  1  0  0  0  0
 23 24  1  0  0  0  0
 24 19  1  1  0  0  0
 25 26  1  0  0  0  0
 27 26  1  0  0  0  0
 28 33  1  0  0  0  0
 28 30  1  0  0  0  0
 29 31  1  0  0  0  0
 31 30  2  0  0  0  0
 31 27  1  0  0  0  0
 32 28  2  0  0  0  0
 34 32  1  0  0  0  0
 34 29  2  0  0  0  0
M  END
>  <MODEL>
4

>  <REMARK>
 VINA RESULT:      -6.9      3.331      6.292
  Name = 
  6 active torsions:
  status: ('A' for Active; 'I' for Inactive)
    1  A    between atoms: N_11  and  C_32
    2  A    between atoms: C_14  and  C_26
    3  A    between atoms: C_16  and  C_34
    4  A    between atoms: N_23  and  C_26
    5  A    between atoms: N_23  and  C_28
    6  A    between atoms: C_27  and  C_28
                            x       y       z     vdW  Elec       q    Type
                         _______ _______ _______ _____ _____    ______ ____

>  <TORSDO>
F 6

$$$$
=
 OpenBabel10222421293D

 34 40  0  0  1  0  0  0  0  0999 V2000
  190.0920  176.9730  138.5690 C   0  0  0  0  0  0  0  0  0  0  0  0
  188.2490  178.0390  139.0540 C   0  0  0  0  0  0  0  0  0  0  0  0
  190.0920  177.4010  139.9780 C   0  0  0  0  0  3  0  0  0  0  0  0
  186.9990  178.3550  138.9450 N   0  0  0  0  0  0  0  0  0  0  0  0
  191.5960  175.2780  136.8740 C   0  0  1  0  0  0  0  0  0  0  0  0
  189.0310  176.1700  135.4050 S   0  0  0  0  0  0  0  0  0  0  0  0
  192.2670  175.2210  138.0760 C   0  0  1  0  0  3  0  0  0  0  0  0
  193.6620  176.4610  136.4920 C   0  0  1  0  0  3  0  0  0  0  0  0
  192.3380  176.1180  135.8460 C   0  0  0  0  0  2  0  0  0  0  0  0
  193.5020  176.1040  137.9600 C   0  0  0  0  0  2  0  0  0  0  0  0
  186.2900  178.2310  137.6570 C   0  0  0  0  0  2  0  0  0  0  0  0
  188.9910  178.0290  140.2650 N   0  0  0  0  0  0  0  0  0  0  0  0
  187.0200  177.4160  136.6590 N   0  0  0  0  0  0  0  0  0  0  0  0
  190.7760  174.0360  136.5010 C   0  0  1  0  0  3  0  0  0  0  0  0
  188.9670  177.3880  138.0100 C   0  0  0  0  0  0  0  0  0  0  0  0
  188.2650  177.0480  136.7690 C   0  0  0  0  0  0  0  0  0  0  0  0
  191.0340  176.0720  137.9980 N   0  0  0  0  0  0  0  0  0  0  0  0
  188.9590  174.2950  136.4220 S   0  0  0  0  0  0  0  0  0  0  0  0
  196.0350  175.6070  136.5140 N   0  0  0  0  0  2  0  0  0  0  0  0
  194.5750  175.0550  134.7770 O   0  0  0  0  0  0  0  0  0  0  0  0
  194.7630  175.6600  135.8690 C   0  0  0  0  0  0  0  0  0  0  0  0
  198.3550  175.4050  136.4530 O   0  0  0  0  0  0  0  0  0  0  0  0
  197.9060  174.1990  137.0230 C   0  0  0  0  0  2  0  0  0  0  0  0
  197.1550  174.8760  135.9460 C   0  0  1  0  0  3  0  0  0  0  0  0
  191.2850  173.3920  135.2220 C   0  0  0  0  0  2  0  0  0  0  0  0
  191.7170  172.0290  135.4870 N   0  0  0  0  0  2  0  0  0  0  0  0
  193.1240  171.9460  135.1320 C   0  0  0  0  0  2  0  0  0  0  0  0
  194.6300  169.6150  137.6910 C   0  0  0  0  0  0  0  0  0  0  0  0
  194.6510  172.2970  137.0870 C   0  0  0  0  0  3  0  0  0  0  0  0
  193.9010  170.0660  136.5940 C   0  0  0  0  0  3  0  0  0  0  0  0
  193.9170  171.4250  136.2840 C   0  0  0  0  0  0  0  0  0  0  0  0
  195.3350  170.5030  138.4410 N   0  0  0  0  0  0  0  0  0  0  0  0
  194.6390  168.1700  138.0430 C   0  0  0  0  0  1  0  0  0  0  0  0
  195.3440  171.8060  138.1470 N   0  0  0  0  0  0  0  0  0  0  0  0
  1  3  1  0  0  0  0
  2 12  1  0  0  0  0
  3 12  2  0  0  0  0
  4  2  2  0  0  0  0
  5  9  1  6  0  0  0
  5 17  1  0  0  0  0
  5  7  1  0  0  0  0
  6 18  1  0  0  0  0
  6 16  1  0  0  0  0
  7 10  1  6  0  0  0
  8 21  1  6  0  0  0
  8 10  1  0  0  0  0
  9  8  1  0  0  0  0
 11  4  1  0  0  0  0
 13 16  2  0  0  0  0
 13 11  1  0  0  0  0
 14 25  1  6  0  0  0
 14  5  1  0  0  0  0
 15  1  2  0  0  0  0
 15  2  1  0  0  0  0
 16 15  1  0  0  0  0
 17  7  1  0  0  0  0
 17  1  1  0  0  0  0
 18 14  1  0  0  0  0
 20 21  2  0  0  0  0
 21 19  1  0  0  0  0
 22 23  1  0  0  0  0
 24 22  1  0  0  0  0
 24 19  1  1  0  0  0
 24 23  1  0  0  0  0
 25 26  1  0  0  0  0
 27 26  1  0  0  0  0
 27 31  1  0  0  0  0
 28 33  1  0  0  0  0
 28 32  1  0  0  0  0
 29 34  1  0  0  0  0
 30 28  2  0  0  0  0
 31 30  1  0  0  0  0
 31 29  2  0  0  0  0
 34 32  2  0  0  0  0
M  END
>  <MODEL>
5

>  <REMARK>
 VINA RESULT:      -6.8      5.335     10.288
  Name = 
  6 active torsions:
  status: ('A' for Active; 'I' for Inactive)
    1  A    between atoms: N_11  and  C_32
    2  A    between atoms: C_14  and  C_26
    3  A    between atoms: C_16  and  C_34
    4  A    between atoms: N_23  and  C_26
    5  A    between atoms: N_23  and  C_28
    6  A    between atoms: C_27  and  C_28
                            x       y       z     vdW  Elec       q    Type
                         _______ _______ _______ _____ _____    ______ ____

>  <TORSDO>
F 6

$$$$
=
 OpenBabel10222421293D

 34 40  0  0  1  0  0  0  0  0999 V2000
  186.2570  178.7390  145.6750 C   0  0  0  0  0  0  0  0  0  0  0  0
  187.5780  178.1000  147.2920 C   0  0  0  0  0  0  0  0  0  0  0  0
  185.9820  179.5000  146.9050 C   0  0  0  0  0  3  0  0  0  0  0  0
  188.6530  177.6100  147.8190 N   0  0  0  0  0  0  0  0  0  0  0  0
  185.5780  178.8400  142.9290 C   0  0  1  0  0  0  0  0  0  0  0  0
  187.8150  176.7540  143.3490 S   0  0  0  0  0  0  0  0  0  0  0  0
  184.8570  179.8740  143.4850 C   0  0  1  0  0  3  0  0  0  0  0  0
  183.2780  178.1200  142.8350 C   0  0  1  0  0  3  0  0  0  0  0  0
  184.6940  177.6520  142.5830 C   0  0  0  0  0  2  0  0  0  0  0  0
  183.4130  179.4110  143.6230 C   0  0  0  0  0  2  0  0  0  0  0  0
  189.4790  176.6240  147.0960 C   0  0  0  0  0  2  0  0  0  0  0  0
  186.7750  179.1220  147.8630 N   0  0  0  0  0  0  0  0  0  0  0  0
  189.1620  176.5380  145.6520 N   0  0  0  0  0  0  0  0  0  0  0  0
  186.7990  179.2430  142.0940 C   0  0  1  0  0  3  0  0  0  0  0  0
  187.2230  177.8720  145.9310 C   0  0  0  0  0  0  0  0  0  0  0  0
  188.1100  177.0630  145.0900 C   0  0  0  0  0  0  0  0  0  0  0  0
  185.7320  179.0600  144.3920 N   0  0  0  0  0  0  0  0  0  0  0  0
  188.4210  178.7200  142.7790 S   0  0  0  0  0  0  0  0  0  0  0  0
  183.1090  177.7960  140.3390 N   0  0  0  0  0  2  0  0  0  0  0  0
  181.5330  179.0740  141.4950 O   0  0  0  0  0  0  0  0  0  0  0  0
  182.5750  178.3620  141.5360 C   0  0  0  0  0  0  0  0  0  0  0  0
  183.0720  179.1590  138.4510 O   0  0  0  0  0  0  0  0  0  0  0  0
  183.5160  177.9100  137.9810 C   0  0  0  0  0  2  0  0  0  0  0  0
  182.4950  178.0200  139.0420 C   0  0  1  0  0  3  0  0  0  0  0  0
  186.6580  178.8020  140.6460 C   0  0  0  0  0  2  0  0  0  0  0  0
  187.9710  178.6300  140.0460 N   0  0  0  0  0  2  0  0  0  0  0  0
  187.7720  178.0240  138.7400 C   0  0  0  0  0  2  0  0  0  0  0  0
  189.6240  175.0790  137.2720 C   0  0  0  0  0  0  0  0  0  0  0  0
  189.9340  176.8960  139.3140 C   0  0  0  0  0  3  0  0  0  0  0  0
  188.6500  176.0570  137.4610 C   0  0  0  0  0  3  0  0  0  0  0  0
  188.8100  176.9810  138.4910 C   0  0  0  0  0  0  0  0  0  0  0  0
  190.7050  175.0410  138.0960 N   0  0  0  0  0  0  0  0  0  0  0  0
  189.4850  174.0840  136.1770 C   0  0  0  0  0  1  0  0  0  0  0  0
  190.8550  175.9220  139.0870 N   0  0  0  0  0  0  0  0  0  0  0  0
  1 15  2  0  0  0  0
  1  3  1  0  0  0  0
  2  4  2  0  0  0  0
  2 12  1  0  0  0  0
  3 12  2  0  0  0  0
  5  9  1  6  0  0  0
  5  7  1  0  0  0  0
  5 17  1  0  0  0  0
  6 16  1  0  0  0  0
  7 10  1  1  0  0  0
  7 17  1  0  0  0  0
  8 21  1  6  0  0  0
  8 10  1  0  0  0  0
  9  8  1  0  0  0  0
 11  4  1  0  0  0  0
 13 11  1  0  0  0  0
 14 25  1  6  0  0  0
 14 18  1  0  0  0  0
 14  5  1  0  0  0  0
 15  2  1  0  0  0  0
 16 13  2  0  0  0  0
 16 15  1  0  0  0  0
 17  1  1  0  0  0  0
 18  6  1  0  0  0  0
 19 21  1  0  0  0  0
 20 21  2  0  0  0  0
 22 24  1  0  0  0  0
 23 22  1  0  0  0  0
 23 24  1  0  0  0  0
 24 19  1  1  0  0  0
 26 25  1  0  0  0  0
 27 26  1  0  0  0  0
 28 30  2  0  0  0  0
 28 32  1  0  0  0  0
 30 31  1  0  0  0  0
 31 27  1  0  0  0  0
 31 29  2  0  0  0  0
 32 34  2  0  0  0  0
 33 28  1  0  0  0  0
 34 29  1  0  0  0  0
M  END
>  <MODEL>
6

>  <REMARK>
 VINA RESULT:      -6.6      2.982      7.993
  Name = 
  6 active torsions:
  status: ('A' for Active; 'I' for Inactive)
    1  A    between atoms: N_11  and  C_32
    2  A    between atoms: C_14  and  C_26
    3  A    between atoms: C_16  and  C_34
    4  A    between atoms: N_23  and  C_26
    5  A    between atoms: N_23  and  C_28
    6  A    between atoms: C_27  and  C_28
                            x       y       z     vdW  Elec       q    Type
                         _______ _______ _______ _____ _____    ______ ____

>  <TORSDO>
F 6

$$$$
=
 OpenBabel10222421293D

 34 40  0  0  1  0  0  0  0  0999 V2000
  193.3220  173.1230  136.1680 C   0  0  0  0  0  0  0  0  0  0  0  0
  195.4680  172.7490  136.0170 C   0  0  0  0  0  0  0  0  0  0  0  0
  193.6060  171.6790  136.2190 C   0  0  0  0  0  3  0  0  0  0  0  0
  196.7290  173.0150  136.1410 N   0  0  0  0  0  0  0  0  0  0  0  0
  191.1420  174.8680  136.6270 C   0  0  1  0  0  0  0  0  0  0  0  0
  193.7210  176.5300  136.2840 S   0  0  0  0  0  0  0  0  0  0  0  0
  190.6040  173.6120  136.8090 C   0  0  1  0  0  3  0  0  0  0  0  0
  189.6770  174.5350  134.7400 C   0  0  1  0  0  3  0  0  0  0  0  0
  190.7050  175.4880  135.3100 C   0  0  0  0  0  2  0  0  0  0  0  0
  189.8070  173.2630  135.5600 C   0  0  0  0  0  2  0  0  0  0  0  0
  197.2250  174.4040  136.1050 C   0  0  0  0  0  2  0  0  0  0  0  0
  194.8850  171.4610  136.1360 N   0  0  0  0  0  0  0  0  0  0  0  0
  196.1550  175.4150  136.2670 N   0  0  0  0  0  0  0  0  0  0  0  0
  191.3780  175.6910  137.8990 C   0  0  1  0  0  3  0  0  0  0  0  0
  194.4700  173.7660  136.0240 C   0  0  0  0  0  0  0  0  0  0  0  0
  194.8780  175.1640  136.1910 C   0  0  0  0  0  0  0  0  0  0  0  0
  192.0600  173.7100  136.4630 N   0  0  0  0  0  0  0  0  0  0  0  0
  193.1380  176.0510  138.2810 S   0  0  0  0  0  0  0  0  0  0  0  0
  188.1580  176.4550  135.3460 N   0  0  0  0  0  2  0  0  0  0  0  0
  187.2860  174.4230  134.5920 O   0  0  0  0  0  0  0  0  0  0  0  0
  188.3040  175.1150  134.8740 C   0  0  0  0  0  0  0  0  0  0  0  0
  186.3770  176.7550  136.8170 O   0  0  0  0  0  0  0  0  0  0  0  0
  186.9130  178.0440  136.6360 C   0  0  0  0  0  2  0  0  0  0  0  0
  186.8530  177.0660  135.5310 C   0  0  1  0  0  3  0  0  0  0  0  0
  190.5530  176.9680  137.9010 C   0  0  0  0  0  2  0  0  0  0  0  0
  189.3870  176.8080  138.7540 N   0  0  0  0  0  2  0  0  0  0  0  0
  189.3790  177.9240  139.6860 C   0  0  0  0  0  2  0  0  0  0  0  0
  187.9920  177.2920  143.1410 C   0  0  0  0  0  0  0  0  0  0  0  0
  190.2350  176.6670  141.6760 C   0  0  0  0  0  3  0  0  0  0  0  0
  188.0920  177.7490  141.8290 C   0  0  0  0  0  3  0  0  0  0  0  0
  189.2260  177.4270  141.0850 C   0  0  0  0  0  0  0  0  0  0  0  0
  188.9990  176.5490  143.6720 N   0  0  0  0  0  0  0  0  0  0  0  0
  186.7920  177.6140  143.9560 C   0  0  0  0  0  1  0  0  0  0  0  0
  190.0880  176.2460  142.9610 N   0  0  0  0  0  0  0  0  0  0  0  0
  1  3  1  0  0  0  0
  1 17  1  0  0  0  0
  2 15  1  0  0  0  0
  2 12  1  0  0  0  0
  2  4  2  0  0  0  0
  5  9  1  6  0  0  0
  5  7  1  0  0  0  0
  5 14  1  0  0  0  0
  6 18  1  0  0  0  0
  7 10  1  6  0  0  0
  8 21  1  1  0  0  0
  8  9  1  0  0  0  0
  8 10  1  0  0  0  0
 11  4  1  0  0  0  0
 11 13  1  0  0  0  0
 12  3  2  0  0  0  0
 14 25  1  6  0  0  0
 14 18  1  0  0  0  0
 15  1  2  0  0  0  0
 15 16  1  0  0  0  0
 16 13  2  0  0  0  0
 16  6  1  0  0  0  0
 17  5  1  0  0  0  0
 17  7  1  0  0  0  0
 20 21  2  0  0  0  0
 21 19  1  0  0  0  0
 23 22  1  0  0  0  0
 24 19  1  1  0  0  0
 24 23  1  0  0  0  0
 24 22  1  0  0  0  0
 25 26  1  0  0  0  0
 26 27  1  0  0  0  0
 27 31  1  0  0  0  0
 28 32  1  0  0  0  0
 28 33  1  0  0  0  0
 29 34  1  0  0  0  0
 30 28  2  0  0  0  0
 31 29  2  0  0  0  0
 31 30  1  0  0  0  0
 34 32  2  0  0  0  0
M  END
>  <MODEL>
7

>  <REMARK>
 VINA RESULT:      -6.5      4.206      7.414
  Name = 
  6 active torsions:
  status: ('A' for Active; 'I' for Inactive)
    1  A    between atoms: N_11  and  C_32
    2  A    between atoms: C_14  and  C_26
    3  A    between atoms: C_16  and  C_34
    4  A    between atoms: N_23  and  C_26
    5  A    between atoms: N_23  and  C_28
    6  A    between atoms: C_27  and  C_28
                            x       y       z     vdW  Elec       q    Type
                         _______ _______ _______ _____ _____    ______ ____

>  <TORSDO>
F 6

$$$$
=
 OpenBabel10222421293D

 34 40  0  0  1  0  0  0  0  0999 V2000
  186.4140  175.0670  136.5090 C   0  0  0  0  0  0  0  0  0  0  0  0
  188.3550  174.4950  135.6870 C   0  0  0  0  0  0  0  0  0  0  0  0
  186.5670  173.6020  136.5020 C   0  0  0  0  0  3  0  0  0  0  0  0
  189.6060  174.6410  135.3940 N   0  0  0  0  0  0  0  0  0  0  0  0
  184.6630  177.0050  137.5990 C   0  0  1  0  0  0  0  0  0  0  0  0
  187.1340  178.4210  136.4070 S   0  0  0  0  0  0  0  0  0  0  0  0
  184.1010  175.8040  137.9750 C   0  0  1  0  0  3  0  0  0  0  0  0
  182.6460  176.8210  136.2890 C   0  0  1  0  0  3  0  0  0  0  0  0
  183.8840  177.6710  136.4760 C   0  0  0  0  0  2  0  0  0  0  0  0
  182.9170  175.5380  137.0550 C   0  0  0  0  0  2  0  0  0  0  0  0
  190.1880  175.9780  135.1670 C   0  0  0  0  0  2  0  0  0  0  0  0
  187.7260  173.2660  136.0190 N   0  0  0  0  0  0  0  0  0  0  0  0
  189.3220  177.0830  135.6390 N   0  0  0  0  0  0  0  0  0  0  0  0
  185.3680  177.7950  138.7080 C   0  0  1  0  0  3  0  0  0  0  0  0
  187.5070  175.6000  135.9890 C   0  0  0  0  0  0  0  0  0  0  0  0
  188.0720  176.9530  135.9820 C   0  0  0  0  0  0  0  0  0  0  0  0
  185.3710  175.7670  137.1780 N   0  0  0  0  0  0  0  0  0  0  0  0
  187.1830  177.9870  138.4970 S   0  0  0  0  0  0  0  0  0  0  0  0
  181.5720  178.8850  137.2620 N   0  0  0  0  0  2  0  0  0  0  0  0
  180.3440  176.9230  136.9520 O   0  0  0  0  0  0  0  0  0  0  0  0
  181.4470  177.5270  136.8420 C   0  0  0  0  0  0  0  0  0  0  0  0
  180.6980  179.8200  139.2090 O   0  0  0  0  0  0  0  0  0  0  0  0
  180.9270  180.9160  138.3570 C   0  0  0  0  0  2  0  0  0  0  0  0
  180.4560  179.6160  137.8380 C   0  0  1  0  0  3  0  0  0  0  0  0
  184.7070  179.1440  138.9420 C   0  0  0  0  0  2  0  0  0  0  0  0
  184.8550  179.5360  140.3340 N   0  0  0  0  0  2  0  0  0  0  0  0
  183.9370  178.7190  141.1110 C   0  0  0  0  0  2  0  0  0  0  0  0
  185.9800  178.0420  144.2130 C   0  0  0  0  0  0  0  0  0  0  0  0
  183.5410  179.1270  143.5510 C   0  0  0  0  0  3  0  0  0  0  0  0
  185.6100  178.1060  142.8720 C   0  0  0  0  0  3  0  0  0  0  0  0
  184.3770  178.6610  142.5360 C   0  0  0  0  0  0  0  0  0  0  0  0
  185.1340  178.5140  145.1660 N   0  0  0  0  0  0  0  0  0  0  0  0
  187.2920  177.4620  144.6020 C   0  0  0  0  0  1  0  0  0  0  0  0
  183.9500  179.0400  144.8440 N   0  0  0  0  0  0  0  0  0  0  0  0
  1 17  1  0  0  0  0
  2 15  1  0  0  0  0
  2 12  1  0  0  0  0
  3  1  1  0  0  0  0
  4  2  2  0  0  0  0
  5  9  1  6  0  0  0
  5  7  1  0  0  0  0
  5 14  1  0  0  0  0
  6 18  1  0  0  0  0
  7 10  1  6  0  0  0
  8  9  1  0  0  0  0
  8 21  1  1  0  0  0
  8 10  1  0  0  0  0
 11  4  1  0  0  0  0
 11 13  1  0  0  0  0
 12  3  2  0  0  0  0
 13 16  2  0  0  0  0
 14 25  1  6  0  0  0
 15  1  2  0  0  0  0
 16 15  1  0  0  0  0
 16  6  1  0  0  0  0
 17  5  1  0  0  0  0
 17  7  1  0  0  0  0
 18 14  1  0  0  0  0
 21 20  2  0  0  0  0
 21 19  1  0  0  0  0
 23 22  1  0  0  0  0
 24 19  1  6  0  0  0
 24 23  1  0  0  0  0
 24 22  1  0  0  0  0
 25 26  1  0  0  0  0
 26 27  1  0  0  0  0
 27 31  1  0  0  0  0
 28 33  1  0  0  0  0
 28 32  1  0  0  0  0
 29 34  1  0  0  0  0
 30 28  2  0  0  0  0
 31 30  1  0  0  0  0
 31 29  2  0  0  0  0
 34 32  2  0  0  0  0
M  END
>  <MODEL>
8

>  <REMARK>
 VINA RESULT:      -6.3      4.054      6.826
  Name = 
  6 active torsions:
  status: ('A' for Active; 'I' for Inactive)
    1  A    between atoms: N_11  and  C_32
    2  A    between atoms: C_14  and  C_26
    3  A    between atoms: C_16  and  C_34
    4  A    between atoms: N_23  and  C_26
    5  A    between atoms: N_23  and  C_28
    6  A    between atoms: C_27  and  C_28
                            x       y       z     vdW  Elec       q    Type
                         _______ _______ _______ _____ _____    ______ ____

>  <TORSDO>
F 6

$$$$
=
 OpenBabel10222421293D

 34 40  0  0  1  0  0  0  0  0999 V2000
  192.0860  175.6660  138.0310 C   0  0  0  0  0  0  0  0  0  0  0  0
  192.7010  174.2940  136.4470 C   0  0  0  0  0  0  0  0  0  0  0  0
  193.5520  175.6510  137.8930 C   0  0  0  0  0  3  0  0  0  0  0  0
  192.5780  173.6210  135.3490 N   0  0  0  0  0  0  0  0  0  0  0  0
  190.1010  177.1950  139.3450 C   0  0  1  0  0  0  0  0  0  0  0  0
  188.7450  175.2530  137.3650 S   0  0  0  0  0  0  0  0  0  0  0  0
  191.2850  177.7610  139.7660 C   0  0  1  0  0  3  0  0  0  0  0  0
  190.2920  176.5870  141.6710 C   0  0  1  0  0  3  0  0  0  0  0  0
  189.4530  176.3550  140.4340 C   0  0  0  0  0  2  0  0  0  0  0  0
  191.5590  177.2660  141.1790 C   0  0  0  0  0  2  0  0  0  0  0  0
  191.2540  173.1870  134.8620 C   0  0  0  0  0  2  0  0  0  0  0  0
  193.9140  174.8400  136.9440 N   0  0  0  0  0  0  0  0  0  0  0  0
  190.1270  173.8750  135.5330 N   0  0  0  0  0  0  0  0  0  0  0  0
  189.2920  178.0060  138.3250 C   0  0  1  0  0  3  0  0  0  0  0  0
  191.5790  174.8160  137.1530 C   0  0  0  0  0  0  0  0  0  0  0  0
  190.2340  174.5960  136.6130 C   0  0  0  0  0  0  0  0  0  0  0  0
  191.3570  176.6080  138.8090 N   0  0  0  0  0  0  0  0  0  0  0  0
  189.1270  177.2330  136.6670 S   0  0  0  0  0  0  0  0  0  0  0  0
  189.6590  177.2020  144.0340 N   0  0  0  0  0  2  0  0  0  0  0  0
  188.8460  178.4210  142.2150 O   0  0  0  0  0  0  0  0  0  0  0  0
  189.5590  177.4680  142.6350 C   0  0  0  0  0  0  0  0  0  0  0  0
  187.7790  177.3130  145.4060 O   0  0  0  0  0  0  0  0  0  0  0  0
  188.8690  177.2570  146.2950 C   0  0  0  0  0  2  0  0  0  0  0  0
  188.9460  177.9970  145.0190 C   0  0  1  0  0  3  0  0  0  0  0  0
  187.9300  178.3990  138.8750 C   0  0  0  0  0  2  0  0  0  0  0  0
  186.9580  178.4670  137.7960 N   0  0  0  0  0  2  0  0  0  0  0  0
  185.6500  178.6500  138.4060 C   0  0  0  0  0  2  0  0  0  0  0  0
  182.9040  176.0770  138.7130 C   0  0  0  0  0  0  0  0  0  0  0  0
  185.1420  176.5270  137.1780 C   0  0  0  0  0  3  0  0  0  0  0  0
  183.6660  177.2200  138.9460 C   0  0  0  0  0  3  0  0  0  0  0  0
  184.7960  177.4510  138.1640 C   0  0  0  0  0  0  0  0  0  0  0  0
  183.2780  175.2090  137.7360 N   0  0  0  0  0  0  0  0  0  0  0  0
  181.6900  175.8070  139.5260 C   0  0  0  0  0  1  0  0  0  0  0  0
  184.3650  175.4270  136.9910 N   0  0  0  0  0  0  0  0  0  0  0  0
  1 17  1  0  0  0  0
  2 12  1  0  0  0  0
  2 15  1  0  0  0  0
  3  1  1  0  0  0  0
  4  2  2  0  0  0  0
  5  7  1  0  0  0  0
  5  9  1  1  0  0  0
  7 10  1  1  0  0  0
  8 21  1  1  0  0  0
  9  8  1  0  0  0  0
 10  8  1  0  0  0  0
 11  4  1  0  0  0  0
 11 13  1  0  0  0  0
 12  3  2  0  0  0  0
 13 16  2  0  0  0  0
 14 25  1  1  0  0  0
 14  5  1  0  0  0  0
 15  1  2  0  0  0  0
 16 15  1  0  0  0  0
 16  6  1  0  0  0  0
 17  5  1  0  0  0  0
 17  7  1  0  0  0  0
 18  6  1  0  0  0  0
 18 14  1  0  0  0  0
 20 21  2  0  0  0  0
 21 19  1  0  0  0  0
 22 23  1  0  0  0  0
 24 19  1  6  0  0  0
 24 22  1  0  0  0  0
 24 23  1  0  0  0  0
 26 27  1  0  0  0  0
 26 25  1  0  0  0  0
 28 30  1  0  0  0  0
 28 33  1  0  0  0  0
 29 31  1  0  0  0  0
 31 27  1  0  0  0  0
 31 30  2  0  0  0  0
 32 28  2  0  0  0  0
 34 29  2  0  0  0  0
 34 32  1  0  0  0  0
M  END
>  <MODEL>
9

>  <REMARK>
 VINA RESULT:      -6.3      2.780      3.522
  Name = 
  6 active torsions:
  status: ('A' for Active; 'I' for Inactive)
    1  A    between atoms: N_11  and  C_32
    2  A    between atoms: C_14  and  C_26
    3  A    between atoms: C_16  and  C_34
    4  A    between atoms: N_23  and  C_26
    5  A    between atoms: N_23  and  C_28
    6  A    between atoms: C_27  and  C_28
                            x       y       z     vdW  Elec       q    Type
                         _______ _______ _______ _____ _____    ______ ____

>  <TORSDO>
F 6

$$$$
