=
 OpenBabel10232408343D

 41 44  0  0  1  0  0  0  0  0999 V2000
  187.3360  177.1240  143.9300 C   0  0  1  0  0  3  0  0  0  0  0  0
  186.0530  177.9090  143.9730 C   0  0  0  0  0  0  0  0  0  0  0  0
  183.9060  179.7460  143.9730 C   0  0  0  0  0  2  0  0  0  0  0  0
  184.3790  179.1040  145.2690 C   0  0  0  0  0  2  0  0  0  0  0  0
  185.6420  178.4040  145.0970 N   0  0  0  0  0  0  0  0  0  0  0  0
  183.8830  178.6670  142.9030 C   0  0  0  0  0  2  0  0  0  0  0  0
  185.2930  178.1170  142.6790 C   0  0  1  0  0  3  0  0  0  0  0  0
  186.0720  179.0530  141.7690 C   0  0  0  0  0  2  0  0  0  0  0  0
  184.4760  179.7560  139.5580 O   0  0  0  0  0  0  0  0  0  0  0  0
  186.2040  178.4650  140.4450 N   0  0  0  0  0  2  0  0  0  0  0  0
  185.3970  178.9200  139.3570 C   0  0  0  0  0  0  0  0  0  0  0  0
  184.5650  177.3920  137.5980 C   0  0  0  0  0  2  0  0  0  0  0  0
  185.0870  176.6030  136.4150 C   0  0  1  0  0  3  0  0  0  0  0  0
  185.6380  178.3840  137.9860 C   0  0  2  0  0  3  0  0  0  0  0  0
  186.8950  176.4360  136.5800 S   0  0  0  0  0  0  0  0  0  0  0  0
  186.9720  177.6630  137.9240 C   0  0  0  0  0  2  0  0  0  0  0  0
  184.4320  175.2320  136.3780 C   0  0  0  0  0  2  0  0  0  0  0  0
  184.8320  173.2640  137.5600 C   0  0  0  0  0  1  0  0  0  0  0  0
  184.4120  174.6430  137.7100 N   0  0  0  0  0  2  0  0  0  0  0  0
  188.4040  177.8140  143.0840 C   0  0  0  0  0  2  0  0  0  0  0  0
  189.0390  176.8560  142.0860 C   0  0  0  0  0  2  0  0  0  0  0  0
  189.3780  177.5440  140.8880 O   0  0  0  0  0  0  0  0  0  0  0  0
  194.0830  176.1750  138.0730 N   0  0  0  0  0  2  0  0  0  0  0  0
  194.2670  175.3270  136.8930 C   0  0  2  0  0  3  0  0  0  0  0  0
  193.4830  174.0560  137.0250 C   0  0  0  0  0  3  0  0  0  0  0  0
  192.1550  174.0670  136.9020 C   0  0  0  0  0  3  0  0  0  0  0  0
  195.6730  175.0030  136.7490 N   0  0  0  0  0  1  0  0  0  0  0  0
  191.7730  177.5630  140.6370 C   0  0  0  0  0  3  0  0  0  0  0  0
  192.8450  176.5820  138.6850 C   0  0  0  0  0  0  0  0  0  0  0  0
  190.4150  176.5910  138.8880 C   0  0  0  0  0  3  0  0  0  0  0  0
  192.9250  177.2320  139.9220 C   0  0  0  0  0  3  0  0  0  0  0  0
  190.5130  177.2290  140.1330 C   0  0  0  0  0  0  0  0  0  0  0  0
  191.5630  176.2760  138.1500 C   0  0  0  0  0  0  0  0  0  0  0  0
  191.3160  175.6000  136.5030 S   0  0  0  0  0  0  0  0  0  0  0  0
  187.8130  176.9400  145.2350 O   0  0  0  0  0  0  0  0  0  0  0  0
  188.7390  177.9700  145.4490 C   0  0  0  0  0  2  0  0  0  0  0  0
  189.3480  177.8690  146.8410 C   0  0  0  0  0  2  0  0  0  0  0  0
  189.9960  176.5050  147.0490 C   0  0  0  0  0  2  0  0  0  0  0  0
  191.4650  176.5390  146.6480 C   0  0  0  0  0  2  0  0  0  0  0  0
  192.2950  175.6890  147.5540 C   0  0  0  0  0  3  0  0  0  0  0  0
  193.0110  176.2310  148.4670 N   0  0  0  0  0  2  0  0  0  0  0  0
  1 20  1  6  0  0  0
  1  2  1  0  0  0  0
  1 35  1  0  0  0  0
  2  5  2  0  0  0  0
  3  4  1  0  0  0  0
  5  4  1  0  0  0  0
  6  3  1  0  0  0  0
  7  8  1  6  0  0  0
  7  6  1  0  0  0  0
  7  2  1  0  0  0  0
 10  8  1  0  0  0  0
 11  9  2  0  0  0  0
 11 10  1  0  0  0  0
 12 14  1  0  0  0  0
 13 17  1  1  0  0  0
 13 15  1  0  0  0  0
 13 12  1  0  0  0  0
 14 11  1  1  0  0  0
 15 16  1  0  0  0  0
 16 14  1  0  0  0  0
 17 19  1  0  0  0  0
 18 19  1  0  0  0  0
 21 20  1  0  0  0  0
 22 21  1  0  0  0  0
 23 29  1  0  0  0  0
 24 27  1  1  0  0  0
 24 25  1  0  0  0  0
 24 23  1  0  0  0  0
 26 25  2  0  0  0  0
 29 31  1  0  0  0  0
 30 32  2  0  0  0  0
 31 28  2  0  0  0  0
 32 28  1  0  0  0  0
 32 22  1  0  0  0  0
 33 29  2  0  0  0  0
 33 30  1  0  0  0  0
 34 26  1  0  0  0  0
 34 33  1  0  0  0  0
 35 36  1  0  0  0  0
 36 37  1  0  0  0  0
 37 38  1  0  0  0  0
 39 38  1  0  0  0  0
 39 40  1  0  0  0  0
 40 41  2  0  0  0  0
M  END
>  <MODEL>
1

>  <REMARK>
 VINA RESULT:      -7.7      0.000      0.000
  Name = 
  16 active torsions:
  status: ('A' for Active; 'I' for Inactive)
    1  A    between atoms: O_2  and  C_32
    2  A    between atoms: O_2  and  C_39
    3  A    between atoms: C_7  and  C_9
    4  A    between atoms: C_8  and  C_12
    5  A    between atoms: C_8  and  C_39
    6  A    between atoms: C_9  and  N_14
    7  A    between atoms: C_10  and  C_39
    8  A    between atoms: C_12  and  O_40
    9  A    between atoms: C_13  and  C_17
   10  A    between atoms: C_16  and  C_38
   11  A    between atoms: C_17  and  C_33
   12  A    between atoms: C_24  and  C_32
   13  A    between atoms: C_24  and  C_33
   14  A    between atoms: N_27  and  C_34
   15  A    between atoms: C_29  and  O_40
   16  A    between atoms: C_34  and  C_37
                            x       y       z     vdW  Elec       q    Type
                         _______ _______ _______ _____ _____    ______ ____

>  <TORSDO>
F 16

$$$$
=
 OpenBabel10232408343D

 41 44  0  0  1  0  0  0  0  0999 V2000
  187.6880  177.3190  144.4150 C   0  0  1  0  0  3  0  0  0  0  0  0
  186.2960  177.8850  144.4940 C   0  0  0  0  0  0  0  0  0  0  0  0
  183.8820  179.3530  144.5680 C   0  0  0  0  0  2  0  0  0  0  0  0
  184.4760  178.7690  145.8420 C   0  0  0  0  0  2  0  0  0  0  0  0
  185.8310  178.2860  145.6350 N   0  0  0  0  0  0  0  0  0  0  0  0
  184.0120  178.3050  143.4750 C   0  0  0  0  0  2  0  0  0  0  0  0
  185.4880  177.9940  143.2170 C   0  0  1  0  0  3  0  0  0  0  0  0
  186.0900  179.0610  142.3170 C   0  0  0  0  0  2  0  0  0  0  0  0
  186.6090  178.3660  139.6370 O   0  0  0  0  0  0  0  0  0  0  0  0
  185.1910  179.3440  141.2090 N   0  0  0  0  0  2  0  0  0  0  0  0
  185.4970  178.9040  139.8850 C   0  0  0  0  0  0  0  0  0  0  0  0
  183.1770  179.5820  139.3520 C   0  0  0  0  0  2  0  0  0  0  0  0
  182.1300  179.3630  138.2800 C   0  0  1  0  0  3  0  0  0  0  0  0
  184.4990  179.1030  138.7940 C   0  0  2  0  0  3  0  0  0  0  0  0
  182.5800  177.8770  137.3220 S   0  0  0  0  0  0  0  0  0  0  0  0
  184.2410  177.7980  138.0630 C   0  0  0  0  0  2  0  0  0  0  0  0
  180.7640  179.1840  138.9200 C   0  0  0  0  0  2  0  0  0  0  0  0
  180.4360  177.4500  140.4430 C   0  0  0  0  0  1  0  0  0  0  0  0
  180.4360  177.7690  139.0290 N   0  0  0  0  0  2  0  0  0  0  0  0
  187.9430  176.6080  143.0880 C   0  0  0  0  0  2  0  0  0  0  0  0
  189.2310  177.0860  142.4310 C   0  0  0  0  0  2  0  0  0  0  0  0
  189.1220  177.0030  141.0140 O   0  0  0  0  0  0  0  0  0  0  0  0
  193.7780  176.5870  137.8390 N   0  0  0  0  0  2  0  0  0  0  0  0
  193.9800  175.9490  136.5360 C   0  0  2  0  0  3  0  0  0  0  0  0
  193.3380  174.5950  136.5010 C   0  0  0  0  0  3  0  0  0  0  0  0
  192.0110  174.4810  136.4340 C   0  0  0  0  0  3  0  0  0  0  0  0
  195.4020  175.8040  136.2880 N   0  0  0  0  0  1  0  0  0  0  0  0
  191.4860  177.3180  140.6760 C   0  0  0  0  0  3  0  0  0  0  0  0
  192.5410  176.7610  138.5540 C   0  0  0  0  0  0  0  0  0  0  0  0
  190.1370  176.4760  138.8520 C   0  0  0  0  0  3  0  0  0  0  0  0
  192.6230  177.2240  139.8730 C   0  0  0  0  0  3  0  0  0  0  0  0
  190.2400  176.9290  140.1760 C   0  0  0  0  0  0  0  0  0  0  0  0
  191.2680  176.4020  138.0290 C   0  0  0  0  0  0  0  0  0  0  0  0
  190.9990  175.9570  136.3090 S   0  0  0  0  0  0  0  0  0  0  0  0
  188.6200  178.3500  144.5860 O   0  0  0  0  0  0  0  0  0  0  0  0
  189.0870  178.2250  145.9020 C   0  0  0  0  0  2  0  0  0  0  0  0
  189.7840  176.8860  146.1030 C   0  0  0  0  0  2  0  0  0  0  0  0
  191.2730  177.0010  145.7980 C   0  0  0  0  0  2  0  0  0  0  0  0
  192.0140  175.7460  146.2400 C   0  0  0  0  0  2  0  0  0  0  0  0
  192.3180  175.7810  147.7020 C   0  0  0  0  0  3  0  0  0  0  0  0
  192.3740  176.9010  148.3200 N   0  0  0  0  0  2  0  0  0  0  0  0
  1 20  1  6  0  0  0
  1  2  1  0  0  0  0
  1 35  1  0  0  0  0
  2  5  2  0  0  0  0
  3  4  1  0  0  0  0
  5  4  1  0  0  0  0
  6  3  1  0  0  0  0
  7  8  1  6  0  0  0
  7  6  1  0  0  0  0
  7  2  1  0  0  0  0
  9 11  2  0  0  0  0
 10  8  1  0  0  0  0
 11 10  1  0  0  0  0
 13 17  1  1  0  0  0
 13 12  1  0  0  0  0
 14 12  1  0  0  0  0
 14 11  1  1  0  0  0
 15 16  1  0  0  0  0
 15 13  1  0  0  0  0
 16 14  1  0  0  0  0
 17 19  1  0  0  0  0
 19 18  1  0  0  0  0
 21 20  1  0  0  0  0
 22 21  1  0  0  0  0
 23 29  1  0  0  0  0
 24 27  1  1  0  0  0
 24 23  1  0  0  0  0
 25 24  1  0  0  0  0
 26 25  2  0  0  0  0
 29 31  1  0  0  0  0
 30 32  2  0  0  0  0
 31 28  2  0  0  0  0
 32 28  1  0  0  0  0
 32 22  1  0  0  0  0
 33 29  2  0  0  0  0
 33 30  1  0  0  0  0
 34 26  1  0  0  0  0
 34 33  1  0  0  0  0
 35 36  1  0  0  0  0
 36 37  1  0  0  0  0
 38 37  1  0  0  0  0
 38 39  1  0  0  0  0
 39 40  1  0  0  0  0
 40 41  2  0  0  0  0
M  END
>  <MODEL>
2

>  <REMARK>
 VINA RESULT:      -7.6      1.783      2.197
  Name = 
  16 active torsions:
  status: ('A' for Active; 'I' for Inactive)
    1  A    between atoms: O_2  and  C_32
    2  A    between atoms: O_2  and  C_39
    3  A    between atoms: C_7  and  C_9
    4  A    between atoms: C_8  and  C_12
    5  A    between atoms: C_8  and  C_39
    6  A    between atoms: C_9  and  N_14
    7  A    between atoms: C_10  and  C_39
    8  A    between atoms: C_12  and  O_40
    9  A    between atoms: C_13  and  C_17
   10  A    between atoms: C_16  and  C_38
   11  A    between atoms: C_17  and  C_33
   12  A    between atoms: C_24  and  C_32
   13  A    between atoms: C_24  and  C_33
   14  A    between atoms: N_27  and  C_34
   15  A    between atoms: C_29  and  O_40
   16  A    between atoms: C_34  and  C_37
                            x       y       z     vdW  Elec       q    Type
                         _______ _______ _______ _____ _____    ______ ____

>  <TORSDO>
F 16

$$$$
=
 OpenBabel10232408343D

 41 44  0  0  1  0  0  0  0  0999 V2000
  183.2190  178.4770  140.4370 C   0  0  1  0  0  3  0  0  0  0  0  0
  183.0900  178.7420  141.9130 C   0  0  0  0  0  0  0  0  0  0  0  0
  182.9310  178.7920  144.7340 C   0  0  0  0  0  2  0  0  0  0  0  0
  181.6780  178.9380  143.8820 C   0  0  0  0  0  2  0  0  0  0  0  0
  181.9340  178.6260  142.4860 N   0  0  0  0  0  0  0  0  0  0  0  0
  184.0250  179.6320  144.0950 C   0  0  0  0  0  2  0  0  0  0  0  0
  184.3360  179.1110  142.6910 C   0  0  1  0  0  3  0  0  0  0  0  0
  185.2620  177.9080  142.7810 C   0  0  0  0  0  2  0  0  0  0  0  0
  186.0950  177.0940  145.3440 O   0  0  0  0  0  0  0  0  0  0  0  0
  186.5240  178.2950  143.3920 N   0  0  0  0  0  2  0  0  0  0  0  0
  186.9030  177.7890  144.6730 C   0  0  0  0  0  0  0  0  0  0  0  0
  189.2980  178.0900  144.1240 C   0  0  0  0  0  2  0  0  0  0  0  0
  190.6540  178.0050  144.7940 C   0  0  1  0  0  3  0  0  0  0  0  0
  188.2550  178.1070  145.2190 C   0  0  2  0  0  3  0  0  0  0  0  0
  190.4840  177.0330  146.3280 S   0  0  0  0  0  0  0  0  0  0  0  0
  188.6650  177.0790  146.2570 C   0  0  0  0  0  2  0  0  0  0  0  0
  191.6520  177.3440  143.8590 C   0  0  0  0  0  2  0  0  0  0  0  0
  190.7300  175.3700  143.0330 C   0  0  0  0  0  1  0  0  0  0  0  0
  191.6330  175.8980  144.0360 N   0  0  0  0  0  2  0  0  0  0  0  0
  184.2860  179.3560  139.7880 C   0  0  0  0  0  2  0  0  0  0  0  0
  185.3600  178.5240  139.1000 C   0  0  0  0  0  2  0  0  0  0  0  0
  186.6150  178.7100  139.7440 O   0  0  0  0  0  0  0  0  0  0  0  0
  191.2520  175.7380  138.4790 N   0  0  0  0  0  2  0  0  0  0  0  0
  191.5370  174.8710  137.3330 C   0  0  2  0  0  3  0  0  0  0  0  0
  190.3780  173.9630  137.0520 C   0  0  0  0  0  3  0  0  0  0  0  0
  189.2620  174.4440  136.5050 C   0  0  0  0  0  3  0  0  0  0  0  0
  192.7100  174.0670  137.6190 N   0  0  0  0  0  1  0  0  0  0  0  0
  188.8060  177.8740  140.2930 C   0  0  0  0  0  3  0  0  0  0  0  0
  190.0920  176.5620  138.6960 C   0  0  0  0  0  0  0  0  0  0  0  0
  187.8960  177.4360  138.0940 C   0  0  0  0  0  3  0  0  0  0  0  0
  189.9510  177.1510  139.9590 C   0  0  0  0  0  3  0  0  0  0  0  0
  187.7650  178.0070  139.3690 C   0  0  0  0  0  0  0  0  0  0  0  0
  189.0520  176.7290  137.7400 C   0  0  0  0  0  0  0  0  0  0  0  0
  189.1800  176.1730  136.0350 S   0  0  0  0  0  0  0  0  0  0  0  0
  183.5290  177.1260  140.2320 O   0  0  0  0  0  0  0  0  0  0  0  0
  182.4220  176.5810  139.5660 C   0  0  0  0  0  2  0  0  0  0  0  0
  182.8300  175.3640  138.7470 C   0  0  0  0  0  2  0  0  0  0  0  0
  183.8040  175.7580  137.6430 C   0  0  0  0  0  2  0  0  0  0  0  0
  184.2110  174.5420  136.8220 C   0  0  0  0  0  2  0  0  0  0  0  0
  184.5610  173.3850  137.7010 C   0  0  0  0  0  3  0  0  0  0  0  0
  185.7880  173.0640  137.8810 N   0  0  0  0  0  2  0  0  0  0  0  0
  1 20  1  1  0  0  0
  1  2  1  0  0  0  0
  2  5  2  0  0  0  0
  2  7  1  0  0  0  0
  4  3  1  0  0  0  0
  5  4  1  0  0  0  0
  6  3  1  0  0  0  0
  7  8  1  1  0  0  0
  7  6  1  0  0  0  0
  8 10  1  0  0  0  0
 10 11  1  0  0  0  0
 11  9  2  0  0  0  0
 12 13  1  0  0  0  0
 12 14  1  0  0  0  0
 13 17  1  6  0  0  0
 13 15  1  0  0  0  0
 14 11  1  6  0  0  0
 14 16  1  0  0  0  0
 16 15  1  0  0  0  0
 17 19  1  0  0  0  0
 18 19  1  0  0  0  0
 21 22  1  0  0  0  0
 21 20  1  0  0  0  0
 23 29  1  0  0  0  0
 24 27  1  1  0  0  0
 24 23  1  0  0  0  0
 25 24  1  0  0  0  0
 26 25  2  0  0  0  0
 29 31  2  0  0  0  0
 30 32  1  0  0  0  0
 31 28  1  0  0  0  0
 32 22  1  0  0  0  0
 32 28  2  0  0  0  0
 33 30  2  0  0  0  0
 33 29  1  0  0  0  0
 34 26  1  0  0  0  0
 34 33  1  0  0  0  0
 35  1  1  0  0  0  0
 36 35  1  0  0  0  0
 37 36  1  0  0  0  0
 38 37  1  0  0  0  0
 39 38  1  0  0  0  0
 39 40  1  0  0  0  0
 40 41  2  0  0  0  0
M  END
>  <MODEL>
3

>  <REMARK>
 VINA RESULT:      -7.2      2.578      6.750
  Name = 
  16 active torsions:
  status: ('A' for Active; 'I' for Inactive)
    1  A    between atoms: O_2  and  C_32
    2  A    between atoms: O_2  and  C_39
    3  A    between atoms: C_7  and  C_9
    4  A    between atoms: C_8  and  C_12
    5  A    between atoms: C_8  and  C_39
    6  A    between atoms: C_9  and  N_14
    7  A    between atoms: C_10  and  C_39
    8  A    between atoms: C_12  and  O_40
    9  A    between atoms: C_13  and  C_17
   10  A    between atoms: C_16  and  C_38
   11  A    between atoms: C_17  and  C_33
   12  A    between atoms: C_24  and  C_32
   13  A    between atoms: C_24  and  C_33
   14  A    between atoms: N_27  and  C_34
   15  A    between atoms: C_29  and  O_40
   16  A    between atoms: C_34  and  C_37
                            x       y       z     vdW  Elec       q    Type
                         _______ _______ _______ _____ _____    ______ ____

>  <TORSDO>
F 16

$$$$
=
 OpenBabel10232408343D

 41 44  0  0  1  0  0  0  0  0999 V2000
  184.3430  178.3540  142.9720 C   0  0  1  0  0  3  0  0  0  0  0  0
  182.9500  178.6620  142.4930 C   0  0  0  0  0  0  0  0  0  0  0  0
  180.5240  179.6000  141.3880 C   0  0  0  0  0  2  0  0  0  0  0  0
  180.7960  179.7210  142.8810 C   0  0  0  0  0  2  0  0  0  0  0  0
  182.1830  179.4270  143.2030 N   0  0  0  0  0  0  0  0  0  0  0  0
  180.9930  178.2240  140.9420 C   0  0  0  0  0  2  0  0  0  0  0  0
  182.4990  178.0830  141.1680 C   0  0  1  0  0  3  0  0  0  0  0  0
  183.2560  178.7490  140.0300 C   0  0  0  0  0  2  0  0  0  0  0  0
  185.4940  178.7250  138.3210 O   0  0  0  0  0  0  0  0  0  0  0  0
  183.4390  177.8100  138.9350 N   0  0  0  0  0  2  0  0  0  0  0  0
  184.6330  177.8210  138.1510 C   0  0  0  0  0  0  0  0  0  0  0  0
  184.4330  175.4090  137.6350 C   0  0  0  0  0  2  0  0  0  0  0  0
  185.0480  174.3720  136.7180 C   0  0  1  0  0  3  0  0  0  0  0  0
  184.8440  176.7690  137.1140 C   0  0  2  0  0  3  0  0  0  0  0  0
  186.6430  175.0090  136.1060 S   0  0  0  0  0  0  0  0  0  0  0  0
  186.3090  176.6870  136.7290 C   0  0  0  0  0  2  0  0  0  0  0  0
  185.2550  173.0710  137.4750 C   0  0  0  0  0  2  0  0  0  0  0  0
  184.0410  172.2150  135.6780 C   0  0  0  0  0  1  0  0  0  0  0  0
  184.2280  172.1030  137.1110 N   0  0  0  0  0  2  0  0  0  0  0  0
  185.3240  179.4790  142.6470 C   0  0  0  0  0  2  0  0  0  0  0  0
  186.2930  179.0820  141.5420 C   0  0  0  0  0  2  0  0  0  0  0  0
  187.2360  178.1350  142.0300 O   0  0  0  0  0  0  0  0  0  0  0  0
  192.2060  176.9250  139.6290 N   0  0  0  0  0  2  0  0  0  0  0  0
  192.5200  176.5210  138.2560 C   0  0  2  0  0  3  0  0  0  0  0  0
  191.5670  175.4660  137.7810 C   0  0  0  0  0  3  0  0  0  0  0  0
  190.3080  175.7830  137.4790 C   0  0  0  0  0  3  0  0  0  0  0  0
  193.8710  175.9950  138.2080 N   0  0  0  0  0  1  0  0  0  0  0  0
  189.6120  177.7630  142.1590 C   0  0  0  0  0  3  0  0  0  0  0  0
  190.9320  177.3310  140.1610 C   0  0  0  0  0  0  0  0  0  0  0  0
  188.5350  177.7510  139.9930 C   0  0  0  0  0  3  0  0  0  0  0  0
  190.8340  177.4800  141.5500 C   0  0  0  0  0  3  0  0  0  0  0  0
  188.4530  177.8840  141.3880 C   0  0  0  0  0  0  0  0  0  0  0  0
  189.7610  177.4920  139.3680 C   0  0  0  0  0  0  0  0  0  0  0  0
  189.7780  177.4940  137.5710 S   0  0  0  0  0  0  0  0  0  0  0  0
  184.3210  178.1290  144.3540 O   0  0  0  0  0  0  0  0  0  0  0  0
  185.5370  178.6310  144.8400 C   0  0  0  0  0  2  0  0  0  0  0  0
  186.2650  177.5790  145.6650 C   0  0  0  0  0  2  0  0  0  0  0  0
  187.7750  177.7330  145.5260 C   0  0  0  0  0  2  0  0  0  0  0  0
  188.4480  177.7130  146.8920 C   0  0  0  0  0  2  0  0  0  0  0  0
  189.7680  177.0160  146.8370 C   0  0  0  0  0  3  0  0  0  0  0  0
  190.4650  177.0430  145.7640 N   0  0  0  0  0  2  0  0  0  0  0  0
  1 20  1  1  0  0  0
  1 35  1  0  0  0  0
  2  1  1  0  0  0  0
  2  5  2  0  0  0  0
  3  4  1  0  0  0  0
  4  5  1  0  0  0  0
  6  7  1  0  0  0  0
  6  3  1  0  0  0  0
  7  8  1  6  0  0  0
  7  2  1  0  0  0  0
 10  8  1  0  0  0  0
 11  9  2  0  0  0  0
 11 10  1  0  0  0  0
 13 17  1  1  0  0  0
 13 12  1  0  0  0  0
 14 12  1  0  0  0  0
 14 11  1  1  0  0  0
 15 13  1  0  0  0  0
 15 16  1  0  0  0  0
 16 14  1  0  0  0  0
 18 19  1  0  0  0  0
 19 17  1  0  0  0  0
 21 22  1  0  0  0  0
 21 20  1  0  0  0  0
 23 29  1  0  0  0  0
 24 27  1  1  0  0  0
 24 23  1  0  0  0  0
 25 24  1  0  0  0  0
 26 34  1  0  0  0  0
 26 25  2  0  0  0  0
 29 31  2  0  0  0  0
 30 32  1  0  0  0  0
 31 28  1  0  0  0  0
 32 22  1  0  0  0  0
 32 28  2  0  0  0  0
 33 30  2  0  0  0  0
 33 29  1  0  0  0  0
 34 33  1  0  0  0  0
 35 36  1  0  0  0  0
 36 37  1  0  0  0  0
 38 37  1  0  0  0  0
 38 39  1  0  0  0  0
 40 39  1  0  0  0  0
 41 40  2  0  0  0  0
M  END
>  <MODEL>
4

>  <REMARK>
 VINA RESULT:      -7.2      2.041      2.937
  Name = 
  16 active torsions:
  status: ('A' for Active; 'I' for Inactive)
    1  A    between atoms: O_2  and  C_32
    2  A    between atoms: O_2  and  C_39
    3  A    between atoms: C_7  and  C_9
    4  A    between atoms: C_8  and  C_12
    5  A    between atoms: C_8  and  C_39
    6  A    between atoms: C_9  and  N_14
    7  A    between atoms: C_10  and  C_39
    8  A    between atoms: C_12  and  O_40
    9  A    between atoms: C_13  and  C_17
   10  A    between atoms: C_16  and  C_38
   11  A    between atoms: C_17  and  C_33
   12  A    between atoms: C_24  and  C_32
   13  A    between atoms: C_24  and  C_33
   14  A    between atoms: N_27  and  C_34
   15  A    between atoms: C_29  and  O_40
   16  A    between atoms: C_34  and  C_37
                            x       y       z     vdW  Elec       q    Type
                         _______ _______ _______ _____ _____    ______ ____

>  <TORSDO>
F 16

$$$$
=
 OpenBabel10232408343D

 41 44  0  0  1  0  0  0  0  0999 V2000
  187.9810  177.8170  139.0420 C   0  0  1  0  0  3  0  0  0  0  0  0
  188.0070  177.6840  137.5430 C   0  0  0  0  0  0  0  0  0  0  0  0
  188.0010  176.9880  134.8040 C   0  0  0  0  0  2  0  0  0  0  0  0
  189.2870  177.4210  135.4930 C   0  0  0  0  0  2  0  0  0  0  0  0
  189.1340  177.4800  136.9370 N   0  0  0  0  0  0  0  0  0  0  0  0
  186.8890  177.9100  135.2780 C   0  0  0  0  0  2  0  0  0  0  0  0
  186.6950  177.7670  136.7890 C   0  0  1  0  0  3  0  0  0  0  0  0
  185.8520  176.5380  137.0870 C   0  0  0  0  0  2  0  0  0  0  0  0
  183.4440  176.6870  135.6340 O   0  0  0  0  0  0  0  0  0  0  0  0
  184.5750  176.9360  137.6580 N   0  0  0  0  0  2  0  0  0  0  0  0
  183.3840  176.9270  136.8690 C   0  0  0  0  0  0  0  0  0  0  0  0
  181.4400  178.4570  136.9080 C   0  0  0  0  0  2  0  0  0  0  0  0
  180.3580  178.9230  137.8610 C   0  0  1  0  0  3  0  0  0  0  0  0
  182.0710  177.2230  137.5130 C   0  0  2  0  0  3  0  0  0  0  0  0
  180.8780  178.5340  139.5650 S   0  0  0  0  0  0  0  0  0  0  0  0
  182.2530  177.4840  138.9970 C   0  0  0  0  0  2  0  0  0  0  0  0
  180.1400  180.4190  137.7040 C   0  0  0  0  0  2  0  0  0  0  0  0
  181.6070  182.1230  138.3190 C   0  0  0  0  0  1  0  0  0  0  0  0
  180.6890  181.1340  138.8490 N   0  0  0  0  0  2  0  0  0  0  0  0
  189.3540  178.1660  139.6110 C   0  0  0  0  0  2  0  0  0  0  0  0
  189.9510  177.0040  140.3940 C   0  0  0  0  0  2  0  0  0  0  0  0
  190.7470  177.4910  141.4690 O   0  0  0  0  0  0  0  0  0  0  0  0
  189.2750  177.3760  146.9240 N   0  0  0  0  0  2  0  0  0  0  0  0
  187.9530  177.4550  147.5490 C   0  0  2  0  0  3  0  0  0  0  0  0
  187.1350  178.5450  146.9260 C   0  0  0  0  0  3  0  0  0  0  0  0
  186.6290  178.3920  145.7010 C   0  0  0  0  0  3  0  0  0  0  0  0
  188.1070  177.7290  148.9640 N   0  0  0  0  0  1  0  0  0  0  0  0
  191.3090  177.4780  143.8100 C   0  0  0  0  0  3  0  0  0  0  0  0
  189.5860  177.2980  145.5200 C   0  0  0  0  0  0  0  0  0  0  0  0
  188.9900  177.2600  143.1550 C   0  0  0  0  0  3  0  0  0  0  0  0
  190.9310  177.4310  145.1530 C   0  0  0  0  0  3  0  0  0  0  0  0
  190.3400  177.4090  142.8050 C   0  0  0  0  0  0  0  0  0  0  0  0
  188.6010  177.1880  144.4990 C   0  0  0  0  0  0  0  0  0  0  0  0
  186.8690  176.8430  144.8300 S   0  0  0  0  0  0  0  0  0  0  0  0
  187.0530  178.8020  139.4050 O   0  0  0  0  0  0  0  0  0  0  0  0
  186.5820  178.4300  140.6720 C   0  0  0  0  0  2  0  0  0  0  0  0
  185.1440  178.8900  140.8710 C   0  0  0  0  0  2  0  0  0  0  0  0
  184.5200  178.2040  142.0800 C   0  0  0  0  0  2  0  0  0  0  0  0
  184.2830  179.2020  143.2050 C   0  0  0  0  0  2  0  0  0  0  0  0
  183.0460  178.8710  143.9750 C   0  0  0  0  0  3  0  0  0  0  0  0
  181.8940  179.0430  143.4430 N   0  0  0  0  0  2  0  0  0  0  0  0
  1 35  1  0  0  0  0
  1 20  1  6  0  0  0
  2  1  1  0  0  0  0
  3  6  1  0  0  0  0
  3  4  1  0  0  0  0
  4  5  1  0  0  0  0
  5  2  2  0  0  0  0
  6  7  1  0  0  0  0
  7  8  1  6  0  0  0
  7  2  1  0  0  0  0
  8 10  1  0  0  0  0
  9 11  2  0  0  0  0
 11 10  1  0  0  0  0
 12 14  1  0  0  0  0
 12 13  1  0  0  0  0
 13 17  1  1  0  0  0
 13 15  1  0  0  0  0
 14 11  1  6  0  0  0
 14 16  1  0  0  0  0
 16 15  1  0  0  0  0
 17 19  1  0  0  0  0
 18 19  1  0  0  0  0
 20 21  1  0  0  0  0
 21 22  1  0  0  0  0
 22 32  1  0  0  0  0
 23 24  1  0  0  0  0
 24 27  1  1  0  0  0
 25 24  1  0  0  0  0
 26 25  2  0  0  0  0
 28 31  1  0  0  0  0
 29 23  1  0  0  0  0
 30 33  2  0  0  0  0
 31 29  2  0  0  0  0
 32 30  1  0  0  0  0
 32 28  2  0  0  0  0
 33 34  1  0  0  0  0
 33 29  1  0  0  0  0
 34 26  1  0  0  0  0
 35 36  1  0  0  0  0
 36 37  1  0  0  0  0
 37 38  1  0  0  0  0
 38 39  1  0  0  0  0
 39 40  1  0  0  0  0
 41 40  2  0  0  0  0
M  END
>  <MODEL>
5

>  <REMARK>
 VINA RESULT:      -7.1      3.433      7.728
  Name = 
  16 active torsions:
  status: ('A' for Active; 'I' for Inactive)
    1  A    between atoms: O_2  and  C_32
    2  A    between atoms: O_2  and  C_39
    3  A    between atoms: C_7  and  C_9
    4  A    between atoms: C_8  and  C_12
    5  A    between atoms: C_8  and  C_39
    6  A    between atoms: C_9  and  N_14
    7  A    between atoms: C_10  and  C_39
    8  A    between atoms: C_12  and  O_40
    9  A    between atoms: C_13  and  C_17
   10  A    between atoms: C_16  and  C_38
   11  A    between atoms: C_17  and  C_33
   12  A    between atoms: C_24  and  C_32
   13  A    between atoms: C_24  and  C_33
   14  A    between atoms: N_27  and  C_34
   15  A    between atoms: C_29  and  O_40
   16  A    between atoms: C_34  and  C_37
                            x       y       z     vdW  Elec       q    Type
                         _______ _______ _______ _____ _____    ______ ____

>  <TORSDO>
F 16

$$$$
=
 OpenBabel10232408343D

 41 44  0  0  1  0  0  0  0  0999 V2000
  187.7460  176.5940  137.5290 C   0  0  1  0  0  3  0  0  0  0  0  0
  189.2000  176.3520  137.2260 C   0  0  0  0  0  0  0  0  0  0  0  0
  191.9820  176.3460  136.7270 C   0  0  0  0  0  2  0  0  0  0  0  0
  190.9870  176.1630  135.5890 C   0  0  0  0  0  2  0  0  0  0  0  0
  189.6270  176.4560  136.0070 N   0  0  0  0  0  0  0  0  0  0  0  0
  191.4960  175.5150  137.9040 C   0  0  0  0  0  2  0  0  0  0  0  0
  190.1290  176.0190  138.3750 C   0  0  1  0  0  3  0  0  0  0  0  0
  190.3080  177.2400  139.2630 C   0  0  0  0  0  2  0  0  0  0  0  0
  188.6160  178.1430  141.3260 O   0  0  0  0  0  0  0  0  0  0  0  0
  190.4240  176.8310  140.6540 N   0  0  0  0  0  2  0  0  0  0  0  0
  189.4870  177.2850  141.6320 C   0  0  0  0  0  0  0  0  0  0  0  0
  188.3250  177.1330  143.8120 C   0  0  0  0  0  2  0  0  0  0  0  0
  188.6470  176.9340  145.2790 C   0  0  1  0  0  3  0  0  0  0  0  0
  189.5590  176.7540  143.0250 C   0  0  2  0  0  3  0  0  0  0  0  0
  190.4150  177.2960  145.5400 S   0  0  0  0  0  0  0  0  0  0  0  0
  190.7600  177.3300  143.7520 C   0  0  0  0  0  2  0  0  0  0  0  0
  187.7890  177.8570  146.1270 C   0  0  0  0  0  2  0  0  0  0  0  0
  185.5770  178.4500  146.5620 C   0  0  0  0  0  1  0  0  0  0  0  0
  186.4860  178.0530  145.5050 N   0  0  0  0  0  2  0  0  0  0  0  0
  187.3690  178.0680  137.3950 C   0  0  0  0  0  2  0  0  0  0  0  0
  185.9990  178.3560  137.9950 C   0  0  0  0  0  2  0  0  0  0  0  0
  186.1360  178.8520  139.3210 O   0  0  0  0  0  0  0  0  0  0  0  0
  182.0640  178.8030  143.2390 N   0  0  0  0  0  2  0  0  0  0  0  0
  180.6070  178.7570  143.0890 C   0  0  2  0  0  3  0  0  0  0  0  0
  180.1510  179.7190  142.0340 C   0  0  0  0  0  3  0  0  0  0  0  0
  180.3660  179.4570  140.7440 C   0  0  0  0  0  3  0  0  0  0  0  0
  179.9840  179.1060  144.3500 N   0  0  0  0  0  1  0  0  0  0  0  0
  185.4020  179.0030  141.6090 C   0  0  0  0  0  3  0  0  0  0  0  0
  183.0620  178.7000  142.2060 C   0  0  0  0  0  0  0  0  0  0  0  0
  183.7830  178.4940  139.8850 C   0  0  0  0  0  3  0  0  0  0  0  0
  184.3880  178.9710  142.5670 C   0  0  0  0  0  3  0  0  0  0  0  0
  185.1030  178.7820  140.2620 C   0  0  0  0  0  0  0  0  0  0  0  0
  182.7610  178.4350  140.8410 C   0  0  0  0  0  0  0  0  0  0  0  0
  181.1390  177.9090  140.2720 S   0  0  0  0  0  0  0  0  0  0  0  0
  186.9560  175.8230  136.6650 O   0  0  0  0  0  0  0  0  0  0  0  0
  186.9060  174.5440  137.2390 C   0  0  0  0  0  2  0  0  0  0  0  0
  185.7830  173.7200  136.6230 C   0  0  0  0  0  2  0  0  0  0  0  0
  184.7440  173.3520  137.6760 C   0  0  0  0  0  2  0  0  0  0  0  0
  183.9980  172.0850  137.2790 C   0  0  0  0  0  2  0  0  0  0  0  0
  182.6330  172.3980  136.7600 C   0  0  0  0  0  3  0  0  0  0  0  0
  182.1520  173.5780  136.8880 N   0  0  0  0  0  2  0  0  0  0  0  0
  1 20  1  6  0  0  0
  2  1  1  0  0  0  0
  2  7  1  0  0  0  0
  3  6  1  0  0  0  0
  4  5  1  0  0  0  0
  4  3  1  0  0  0  0
  5  2  2  0  0  0  0
  6  7  1  0  0  0  0
  7  8  1  6  0  0  0
  8 10  1  0  0  0  0
  9 11  2  0  0  0  0
 10 11  1  0  0  0  0
 12 13  1  0  0  0  0
 13 15  1  0  0  0  0
 13 17  1  1  0  0  0
 14 11  1  6  0  0  0
 14 16  1  0  0  0  0
 14 12  1  0  0  0  0
 16 15  1  0  0  0  0
 19 17  1  0  0  0  0
 19 18  1  0  0  0  0
 20 21  1  0  0  0  0
 21 22  1  0  0  0  0
 22 32  1  0  0  0  0
 24 23  1  0  0  0  0
 24 27  1  1  0  0  0
 25 24  1  0  0  0  0
 26 25  2  0  0  0  0
 28 31  1  0  0  0  0
 29 31  2  0  0  0  0
 29 23  1  0  0  0  0
 30 32  1  0  0  0  0
 30 33  2  0  0  0  0
 32 28  2  0  0  0  0
 33 29  1  0  0  0  0
 34 26  1  0  0  0  0
 34 33  1  0  0  0  0
 35 36  1  0  0  0  0
 35  1  1  0  0  0  0
 37 36  1  0  0  0  0
 37 38  1  0  0  0  0
 39 38  1  0  0  0  0
 40 41  2  0  0  0  0
 40 39  1  0  0  0  0
M  END
>  <MODEL>
6

>  <REMARK>
 VINA RESULT:      -7.0      3.138     10.075
  Name = 
  16 active torsions:
  status: ('A' for Active; 'I' for Inactive)
    1  A    between atoms: O_2  and  C_32
    2  A    between atoms: O_2  and  C_39
    3  A    between atoms: C_7  and  C_9
    4  A    between atoms: C_8  and  C_12
    5  A    between atoms: C_8  and  C_39
    6  A    between atoms: C_9  and  N_14
    7  A    between atoms: C_10  and  C_39
    8  A    between atoms: C_12  and  O_40
    9  A    between atoms: C_13  and  C_17
   10  A    between atoms: C_16  and  C_38
   11  A    between atoms: C_17  and  C_33
   12  A    between atoms: C_24  and  C_32
   13  A    between atoms: C_24  and  C_33
   14  A    between atoms: N_27  and  C_34
   15  A    between atoms: C_29  and  O_40
   16  A    between atoms: C_34  and  C_37
                            x       y       z     vdW  Elec       q    Type
                         _______ _______ _______ _____ _____    ______ ____

>  <TORSDO>
F 16

$$$$
=
 OpenBabel10232408343D

 41 44  0  0  1  0  0  0  0  0999 V2000
  184.3630  178.8300  140.3810 C   0  0  1  0  0  3  0  0  0  0  0  0
  183.4580  178.9050  141.5810 C   0  0  0  0  0  0  0  0  0  0  0  0
  181.8440  178.6000  143.8810 C   0  0  0  0  0  2  0  0  0  0  0  0
  181.2140  178.8180  142.5120 C   0  0  0  0  0  2  0  0  0  0  0  0
  182.1890  178.6890  141.4420 N   0  0  0  0  0  0  0  0  0  0  0  0
  183.0310  179.5420  143.9990 C   0  0  0  0  0  2  0  0  0  0  0  0
  184.0760  179.2080  142.9310 C   0  0  1  0  0  3  0  0  0  0  0  0
  184.9200  178.0280  143.3870 C   0  0  0  0  0  2  0  0  0  0  0  0
  187.1200  176.5310  144.3060 O   0  0  0  0  0  0  0  0  0  0  0  0
  185.7750  178.4260  144.4950 N   0  0  0  0  0  2  0  0  0  0  0  0
  186.9110  177.6420  144.8620 C   0  0  0  0  0  0  0  0  0  0  0  0
  189.1030  177.3110  145.9620 C   0  0  0  0  0  2  0  0  0  0  0  0
  189.7810  177.5910  147.2880 C   0  0  1  0  0  3  0  0  0  0  0  0
  187.8360  178.1370  145.9220 C   0  0  2  0  0  3  0  0  0  0  0  0
  188.4970  177.9100  148.5420 S   0  0  0  0  0  0  0  0  0  0  0  0
  187.1830  178.0390  147.2880 C   0  0  0  0  0  2  0  0  0  0  0  0
  190.6310  176.3990  147.6950 C   0  0  0  0  0  2  0  0  0  0  0  0
  192.7620  175.4560  147.7650 C   0  0  0  0  0  1  0  0  0  0  0  0
  192.0040  176.5760  147.2410 N   0  0  0  0  0  2  0  0  0  0  0  0
  183.7850  179.5740  139.1790 C   0  0  0  0  0  2  0  0  0  0  0  0
  183.0060  178.6420  138.2610 C   0  0  0  0  0  2  0  0  0  0  0  0
  183.1680  177.2910  138.6760 O   0  0  0  0  0  0  0  0  0  0  0  0
  185.4650  173.2920  135.4110 N   0  0  0  0  0  2  0  0  0  0  0  0
  184.9910  171.9430  135.0930 C   0  0  2  0  0  3  0  0  0  0  0  0
  184.5170  171.2410  136.3290 C   0  0  0  0  0  3  0  0  0  0  0  0
  183.3650  171.5900  136.9030 C   0  0  0  0  0  3  0  0  0  0  0  0
  186.0740  171.1810  134.5020 N   0  0  0  0  0  1  0  0  0  0  0  0
  184.9710  176.4440  137.3230 C   0  0  0  0  0  3  0  0  0  0  0  0
  184.7830  174.3130  136.1610 C   0  0  0  0  0  0  0  0  0  0  0  0
  182.9220  175.1680  137.4860 C   0  0  0  0  0  3  0  0  0  0  0  0
  185.5180  175.4550  136.5050 C   0  0  0  0  0  3  0  0  0  0  0  0
  183.6770  176.2990  137.8320 C   0  0  0  0  0  0  0  0  0  0  0  0
  183.4510  174.1810  136.6450 C   0  0  0  0  0  0  0  0  0  0  0  0
  182.3460  172.8560  136.1440 S   0  0  0  0  0  0  0  0  0  0  0  0
  185.6170  179.3630  140.7100 O   0  0  0  0  0  0  0  0  0  0  0  0
  186.5590  178.4600  140.1970 C   0  0  0  0  0  2  0  0  0  0  0  0
  187.7520  178.3330  141.1340 C   0  0  0  0  0  2  0  0  0  0  0  0
  188.9810  177.8400  140.3800 C   0  0  0  0  0  2  0  0  0  0  0  0
  189.8300  176.9370  141.2640 C   0  0  0  0  0  2  0  0  0  0  0  0
  191.0000  177.6750  141.8290 C   0  0  0  0  0  3  0  0  0  0  0  0
  191.3660  177.4690  143.0390 N   0  0  0  0  0  2  0  0  0  0  0  0
  1 20  1  6  0  0  0
  1 35  1  0  0  0  0
  1  2  1  0  0  0  0
  2  7  1  0  0  0  0
  3  6  1  0  0  0  0
  4  3  1  0  0  0  0
  5  2  2  0  0  0  0
  5  4  1  0  0  0  0
  7  8  1  1  0  0  0
  7  6  1  0  0  0  0
  8 10  1  0  0  0  0
  9 11  2  0  0  0  0
 10 11  1  0  0  0  0
 12 13  1  0  0  0  0
 13 17  1  1  0  0  0
 13 15  1  0  0  0  0
 14 11  1  6  0  0  0
 14 12  1  0  0  0  0
 14 16  1  0  0  0  0
 16 15  1  0  0  0  0
 19 17  1  0  0  0  0
 19 18  1  0  0  0  0
 21 22  1  0  0  0  0
 21 20  1  0  0  0  0
 23 29  1  0  0  0  0
 24 27  1  1  0  0  0
 24 23  1  0  0  0  0
 24 25  1  0  0  0  0
 25 26  2  0  0  0  0
 28 32  1  0  0  0  0
 29 31  1  0  0  0  0
 29 33  2  0  0  0  0
 30 32  2  0  0  0  0
 31 28  2  0  0  0  0
 32 22  1  0  0  0  0
 33 30  1  0  0  0  0
 34 33  1  0  0  0  0
 34 26  1  0  0  0  0
 36 35  1  0  0  0  0
 36 37  1  0  0  0  0
 38 37  1  0  0  0  0
 38 39  1  0  0  0  0
 39 40  1  0  0  0  0
 40 41  2  0  0  0  0
M  END
>  <MODEL>
7

>  <REMARK>
 VINA RESULT:      -6.7      3.376      7.895
  Name = 
  16 active torsions:
  status: ('A' for Active; 'I' for Inactive)
    1  A    between atoms: O_2  and  C_32
    2  A    between atoms: O_2  and  C_39
    3  A    between atoms: C_7  and  C_9
    4  A    between atoms: C_8  and  C_12
    5  A    between atoms: C_8  and  C_39
    6  A    between atoms: C_9  and  N_14
    7  A    between atoms: C_10  and  C_39
    8  A    between atoms: C_12  and  O_40
    9  A    between atoms: C_13  and  C_17
   10  A    between atoms: C_16  and  C_38
   11  A    between atoms: C_17  and  C_33
   12  A    between atoms: C_24  and  C_32
   13  A    between atoms: C_24  and  C_33
   14  A    between atoms: N_27  and  C_34
   15  A    between atoms: C_29  and  O_40
   16  A    between atoms: C_34  and  C_37
                            x       y       z     vdW  Elec       q    Type
                         _______ _______ _______ _____ _____    ______ ____

>  <TORSDO>
F 16

$$$$
=
 OpenBabel10232408343D

 41 44  0  0  1  0  0  0  0  0999 V2000
  187.4690  177.2590  142.9550 C   0  0  1  0  0  3  0  0  0  0  0  0
  186.3000  177.9710  143.5810 C   0  0  0  0  0  0  0  0  0  0  0  0
  184.2710  179.6820  144.5510 C   0  0  0  0  0  2  0  0  0  0  0  0
  185.3470  179.1450  145.4850 C   0  0  0  0  0  2  0  0  0  0  0  0
  186.4300  178.5090  144.7520 N   0  0  0  0  0  0  0  0  0  0  0  0
  183.8300  178.5410  143.6480 C   0  0  0  0  0  2  0  0  0  0  0  0
  185.0070  178.0590  142.7970 C   0  0  1  0  0  3  0  0  0  0  0  0
  185.1910  178.9820  141.6020 C   0  0  0  0  0  2  0  0  0  0  0  0
  184.4020  180.2610  139.2210 O   0  0  0  0  0  0  0  0  0  0  0  0
  184.8450  178.2830  140.3750 N   0  0  0  0  0  2  0  0  0  0  0  0
  184.5140  179.0060  139.1880 C   0  0  0  0  0  0  0  0  0  0  0  0
  183.0320  177.4170  138.0040 C   0  0  0  0  0  2  0  0  0  0  0  0
  183.0910  176.4080  136.8760 C   0  0  1  0  0  3  0  0  0  0  0  0
  184.2820  178.2650  137.9140 C   0  0  2  0  0  3  0  0  0  0  0  0
  184.8370  175.9740  136.5750 S   0  0  0  0  0  0  0  0  0  0  0  0
  185.4450  177.3360  137.6200 C   0  0  0  0  0  2  0  0  0  0  0  0
  182.2960  175.1680  137.2490 C   0  0  0  0  0  2  0  0  0  0  0  0
  181.7940  173.5420  135.6560 C   0  0  0  0  0  1  0  0  0  0  0  0
  181.3640  174.8220  136.1840 N   0  0  0  0  0  2  0  0  0  0  0  0
  188.3840  178.2160  142.1930 C   0  0  0  0  0  2  0  0  0  0  0  0
  188.3940  177.9170  140.7000 C   0  0  0  0  0  2  0  0  0  0  0  0
  189.7130  178.0400  140.1810 O   0  0  0  0  0  0  0  0  0  0  0  0
  191.7690  174.6710  136.1370 N   0  0  0  0  0  2  0  0  0  0  0  0
  191.0740  173.8980  135.1050 C   0  0  2  0  0  3  0  0  0  0  0  0
  189.9000  173.1700  135.6880 C   0  0  0  0  0  3  0  0  0  0  0  0
  188.7990  173.8370  136.0350 C   0  0  0  0  0  3  0  0  0  0  0  0
  191.9900  172.9330  134.5300 N   0  0  0  0  0  1  0  0  0  0  0  0
  191.5400  176.8920  139.1120 C   0  0  0  0  0  3  0  0  0  0  0  0
  191.2020  175.6040  137.0750 C   0  0  0  0  0  0  0  0  0  0  0  0
  189.3410  176.7950  138.1090 C   0  0  0  0  0  3  0  0  0  0  0  0
  192.0360  176.0730  138.0970 C   0  0  0  0  0  3  0  0  0  0  0  0
  190.1870  177.2440  139.1330 C   0  0  0  0  0  0  0  0  0  0  0  0
  189.8330  175.9920  137.0710 C   0  0  0  0  0  0  0  0  0  0  0  0
  188.6990  175.6020  135.7320 S   0  0  0  0  0  0  0  0  0  0  0  0
  188.2000  176.5990  143.9520 O   0  0  0  0  0  0  0  0  0  0  0  0
  189.5040  177.1060  143.8650 C   0  0  0  0  0  2  0  0  0  0  0  0
  189.8920  177.8240  145.1500 C   0  0  0  0  0  2  0  0  0  0  0  0
  190.7600  176.9300  146.0270 C   0  0  0  0  0  2  0  0  0  0  0  0
  190.2020  176.8540  147.4420 C   0  0  0  0  0  2  0  0  0  0  0  0
  189.0200  177.7520  147.6090 C   0  0  0  0  0  3  0  0  0  0  0  0
  187.8950  177.2700  147.9840 N   0  0  0  0  0  2  0  0  0  0  0  0
  1 20  1  1  0  0  0
  1  2  1  0  0  0  0
  1 35  1  0  0  0  0
  2  5  2  0  0  0  0
  3  4  1  0  0  0  0
  5  4  1  0  0  0  0
  6  3  1  0  0  0  0
  7  8  1  6  0  0  0
  7  2  1  0  0  0  0
  7  6  1  0  0  0  0
 10  8  1  0  0  0  0
 11  9  2  0  0  0  0
 11 10  1  0  0  0  0
 13 17  1  1  0  0  0
 13 12  1  0  0  0  0
 14 12  1  0  0  0  0
 14 11  1  1  0  0  0
 15 13  1  0  0  0  0
 15 16  1  0  0  0  0
 16 14  1  0  0  0  0
 18 19  1  0  0  0  0
 19 17  1  0  0  0  0
 21 20  1  0  0  0  0
 22 21  1  0  0  0  0
 23 29  1  0  0  0  0
 24 27  1  1  0  0  0
 24 25  1  0  0  0  0
 24 23  1  0  0  0  0
 25 26  2  0  0  0  0
 28 32  1  0  0  0  0
 29 31  1  0  0  0  0
 30 32  2  0  0  0  0
 31 28  2  0  0  0  0
 32 22  1  0  0  0  0
 33 29  2  0  0  0  0
 33 30  1  0  0  0  0
 34 26  1  0  0  0  0
 34 33  1  0  0  0  0
 36 35  1  0  0  0  0
 36 37  1  0  0  0  0
 37 38  1  0  0  0  0
 38 39  1  0  0  0  0
 39 40  1  0  0  0  0
 40 41  2  0  0  0  0
M  END
>  <MODEL>
8

>  <REMARK>
 VINA RESULT:      -6.7      1.899      2.319
  Name = 
  16 active torsions:
  status: ('A' for Active; 'I' for Inactive)
    1  A    between atoms: O_2  and  C_32
    2  A    between atoms: O_2  and  C_39
    3  A    between atoms: C_7  and  C_9
    4  A    between atoms: C_8  and  C_12
    5  A    between atoms: C_8  and  C_39
    6  A    between atoms: C_9  and  N_14
    7  A    between atoms: C_10  and  C_39
    8  A    between atoms: C_12  and  O_40
    9  A    between atoms: C_13  and  C_17
   10  A    between atoms: C_16  and  C_38
   11  A    between atoms: C_17  and  C_33
   12  A    between atoms: C_24  and  C_32
   13  A    between atoms: C_24  and  C_33
   14  A    between atoms: N_27  and  C_34
   15  A    between atoms: C_29  and  O_40
   16  A    between atoms: C_34  and  C_37
                            x       y       z     vdW  Elec       q    Type
                         _______ _______ _______ _____ _____    ______ ____

>  <TORSDO>
F 16

$$$$
=
 OpenBabel10232408343D

 41 44  0  0  1  0  0  0  0  0999 V2000
  189.5850  177.0570  137.4910 C   0  0  1  0  0  3  0  0  0  0  0  0
  188.2570  176.4810  137.0780 C   0  0  0  0  0  0  0  0  0  0  0  0
  185.6710  175.3890  136.7490 C   0  0  0  0  0  2  0  0  0  0  0  0
  186.9110  174.5390  136.5080 C   0  0  0  0  0  2  0  0  0  0  0  0
  188.1180  175.1970  136.9780 N   0  0  0  0  0  0  0  0  0  0  0  0
  185.9200  176.7560  136.1320 C   0  0  0  0  0  2  0  0  0  0  0  0
  187.1080  177.4340  136.8170 C   0  0  1  0  0  3  0  0  0  0  0  0
  186.6570  178.0660  138.1240 C   0  0  0  0  0  2  0  0  0  0  0  0
  185.2330  179.4300  140.1350 O   0  0  0  0  0  0  0  0  0  0  0  0
  185.2210  178.2930  138.0980 N   0  0  0  0  0  2  0  0  0  0  0  0
  184.5790  179.0490  139.1270 C   0  0  0  0  0  0  0  0  0  0  0  0
  182.4390  179.2520  140.3520 C   0  0  0  0  0  2  0  0  0  0  0  0
  180.9490  179.1760  140.0900 C   0  0  1  0  0  3  0  0  0  0  0  0
  183.1260  179.3680  139.0100 C   0  0  2  0  0  3  0  0  0  0  0  0
  180.6800  178.3110  138.5070 S   0  0  0  0  0  0  0  0  0  0  0  0
  182.4440  178.4000  138.0610 C   0  0  0  0  0  2  0  0  0  0  0  0
  180.2620  178.4300  141.2210 C   0  0  0  0  0  2  0  0  0  0  0  0
  179.9990  178.3810  143.5370 C   0  0  0  0  0  1  0  0  0  0  0  0
  180.1780  179.2720  142.4070 N   0  0  0  0  0  2  0  0  0  0  0  0
  190.1520  176.3630  138.7280 C   0  0  0  0  0  2  0  0  0  0  0  0
  190.1590  177.2860  139.9390 C   0  0  0  0  0  2  0  0  0  0  0  0
  188.9160  177.2080  140.6260 O   0  0  0  0  0  0  0  0  0  0  0  0
  188.2860  177.7570  146.2150 N   0  0  0  0  0  2  0  0  0  0  0  0
  189.2850  177.7330  147.2860 C   0  0  2  0  0  3  0  0  0  0  0  0
  190.2470  176.6000  147.0910 C   0  0  0  0  0  3  0  0  0  0  0  0
  191.1700  176.6580  146.1310 C   0  0  0  0  0  3  0  0  0  0  0  0
  188.6160  177.5700  148.5630 N   0  0  0  0  0  1  0  0  0  0  0  0
  187.5350  177.4030  142.5890 C   0  0  0  0  0  3  0  0  0  0  0  0
  188.5140  177.7240  144.7940 C   0  0  0  0  0  0  0  0  0  0  0  0
  189.9370  177.5770  142.8180 C   0  0  0  0  0  3  0  0  0  0  0  0
  187.3950  177.5560  143.9690 C   0  0  0  0  0  3  0  0  0  0  0  0
  188.8060  177.3960  142.0080 C   0  0  0  0  0  0  0  0  0  0  0  0
  189.8070  177.7570  144.2010 C   0  0  0  0  0  0  0  0  0  0  0  0
  191.3050  178.1340  145.1200 S   0  0  0  0  0  0  0  0  0  0  0  0
  190.4910  176.9460  136.4280 O   0  0  0  0  0  0  0  0  0  0  0  0
  191.5190  176.1130  136.8920 C   0  0  0  0  0  2  0  0  0  0  0  0
  192.6930  176.1130  135.9230 C   0  0  0  0  0  2  0  0  0  0  0  0
  193.6490  174.9670  136.2330 C   0  0  0  0  0  2  0  0  0  0  0  0
  193.7760  174.7610  137.7360 C   0  0  0  0  0  2  0  0  0  0  0  0
  195.1660  174.3640  138.1150 C   0  0  0  0  0  3  0  0  0  0  0  0
  195.3620  173.3330  138.8490 N   0  0  0  0  0  2  0  0  0  0  0  0
  1 20  1  1  0  0  0
  2  1  1  0  0  0  0
  4  3  1  0  0  0  0
  4  5  1  0  0  0  0
  5  2  2  0  0  0  0
  6  3  1  0  0  0  0
  6  7  1  0  0  0  0
  7  2  1  0  0  0  0
  7  8  1  1  0  0  0
 10  8  1  0  0  0  0
 10 11  1  0  0  0  0
 11  9  2  0  0  0  0
 13 12  1  0  0  0  0
 13 17  1  1  0  0  0
 14 11  1  1  0  0  0
 14 12  1  0  0  0  0
 15 13  1  0  0  0  0
 16 15  1  0  0  0  0
 16 14  1  0  0  0  0
 17 19  1  0  0  0  0
 19 18  1  0  0  0  0
 20 21  1  0  0  0  0
 21 22  1  0  0  0  0
 22 32  1  0  0  0  0
 23 24  1  0  0  0  0
 24 27  1  1  0  0  0
 25 24  1  0  0  0  0
 26 25  2  0  0  0  0
 28 31  1  0  0  0  0
 29 23  1  0  0  0  0
 30 33  2  0  0  0  0
 31 29  2  0  0  0  0
 32 28  2  0  0  0  0
 32 30  1  0  0  0  0
 33 29  1  0  0  0  0
 33 34  1  0  0  0  0
 34 26  1  0  0  0  0
 35 36  1  0  0  0  0
 35  1  1  0  0  0  0
 37 38  1  0  0  0  0
 37 36  1  0  0  0  0
 38 39  1  0  0  0  0
 39 40  1  0  0  0  0
 40 41  2  0  0  0  0
M  END
>  <MODEL>
9

>  <REMARK>
 VINA RESULT:      -6.7      2.925      7.780
  Name = 
  16 active torsions:
  status: ('A' for Active; 'I' for Inactive)
    1  A    between atoms: O_2  and  C_32
    2  A    between atoms: O_2  and  C_39
    3  A    between atoms: C_7  and  C_9
    4  A    between atoms: C_8  and  C_12
    5  A    between atoms: C_8  and  C_39
    6  A    between atoms: C_9  and  N_14
    7  A    between atoms: C_10  and  C_39
    8  A    between atoms: C_12  and  O_40
    9  A    between atoms: C_13  and  C_17
   10  A    between atoms: C_16  and  C_38
   11  A    between atoms: C_17  and  C_33
   12  A    between atoms: C_24  and  C_32
   13  A    between atoms: C_24  and  C_33
   14  A    between atoms: N_27  and  C_34
   15  A    between atoms: C_29  and  O_40
   16  A    between atoms: C_34  and  C_37
                            x       y       z     vdW  Elec       q    Type
                         _______ _______ _______ _____ _____    ______ ____

>  <TORSDO>
F 16

$$$$
