=
 OpenBabel10232412263D

 38 40  0  0  1  0  0  0  0  0999 V2000
  187.1950  177.2480  144.2110 C   0  0  0  0  0  0  0  0  0  0  0  0
  185.5070  179.0950  144.7310 C   0  0  2  0  0  3  0  0  0  0  0  0
  186.3030  178.1840  143.8250 C   0  0  0  0  0  3  0  0  0  0  0  0
  187.4400  178.0220  146.5940 C   0  0  2  0  0  3  0  0  0  0  0  0
  184.9850  178.3690  145.9620 C   0  0  0  0  0  2  0  0  0  0  0  0
  186.0280  178.3650  147.0830 C   0  0  0  0  0  2  0  0  0  0  0  0
  187.4260  176.8340  145.6420 C   0  0  0  0  0  2  0  0  0  0  0  0
  187.9000  177.7200  148.9190 O   0  0  0  0  0  0  0  0  0  0  0  0
  188.3580  177.7600  147.7460 C   0  0  0  0  0  0  0  0  0  0  0  0
  189.7530  177.5240  147.5320 N   0  0  0  0  0  2  0  0  0  0  0  0
  190.3770  177.5270  146.2130 C   0  0  0  0  0  2  0  0  0  0  0  0
  191.6290  176.6590  146.2010 C   0  0  0  0  0  2  0  0  0  0  0  0
  192.9410  175.9150  148.1160 N   0  0  0  0  0  1  0  0  0  0  0  0
  191.6800  175.7470  147.4160 C   0  0  0  0  0  2  0  0  0  0  0  0
  184.3420  179.6980  143.9650 C   0  0  0  0  0  2  0  0  0  0  0  0
  183.5880  178.6160  143.2100 C   0  0  0  0  0  2  0  0  0  0  0  0
  182.3520  179.1590  142.6700 N   0  0  0  0  0  2  0  0  0  0  0  0
  181.9980  178.3650  141.5030 C   0  0  1  0  0  3  0  0  0  0  0  0
  181.1310  179.1050  140.6660 O   0  0  0  0  0  0  0  0  0  0  0  0
  183.0280  178.5560  139.4620 C   0  0  1  0  0  3  0  0  0  0  0  0
  183.1770  178.0420  140.7740 O   0  0  0  0  0  0  0  0  0  0  0  0
  181.2020  179.8020  138.4630 O   0  0  0  0  0  0  0  0  0  0  0  0
  181.7240  179.2180  139.4500 C   0  0  0  0  0  0  0  0  0  0  0  0
  184.1280  179.5660  139.1820 C   0  0  0  0  0  2  0  0  0  0  0  0
  185.0620  179.5460  140.2180 O   0  0  0  0  0  1  0  0  0  0  0  0
  187.9260  176.4890  143.1560 C   0  0  0  0  0  2  0  0  0  0  0  0
  189.1040  177.2320  142.7390 N   0  0  0  0  0  2  0  0  0  0  0  0
  189.9950  176.2980  142.1970 N   0  0  0  0  0  2  0  0  0  0  0  0
  190.6550  176.9540  141.0810 C   0  0  0  0  0  2  0  0  0  0  0  0
  190.1820  176.3850  139.8280 N   0  0  0  0  0  2  0  0  0  0  0  0
  189.7830  177.4560  139.0140 N   0  0  0  0  0  0  0  0  0  0  0  0
  188.3670  177.6890  139.2870 C   0  0  0  0  0  2  0  0  0  0  0  0
  187.9100  178.8140  138.5690 O   0  0  0  0  0  0  0  0  0  0  0  0
  189.8780  176.9930  137.6340 C   0  0  0  0  0  2  0  0  0  0  0  0
  187.9640  178.5440  137.1800 C   0  0  1  0  0  3  0  0  0  0  0  0
  189.3390  178.0630  136.6940 C   0  0  0  0  0  2  0  0  0  0  0  0
  186.7780  177.7210  136.6660 C   0  0  0  0  0  2  0  0  0  0  0  0
  186.8130  177.5680  135.2190 N   0  0  0  0  0  1  0  0  0  0  0  0
  1  7  1  0  0  0  0
  2 15  1  6  0  0  0
  2  5  1  0  0  0  0
  3  1  2  0  0  0  0
  3  2  1  0  0  0  0
  4  6  1  0  0  0  0
  4  9  1  1  0  0  0
  5  6  1  0  0  0  0
  7  4  1  0  0  0  0
  9  8  2  0  0  0  0
 10  9  1  0  0  0  0
 11 10  1  0  0  0  0
 12 11  1  0  0  0  0
 12 14  1  0  0  0  0
 14 13  1  0  0  0  0
 16 15  1  0  0  0  0
 17 16  1  0  0  0  0
 18 17  1  1  0  0  0
 19 18  1  0  0  0  0
 20 24  1  1  0  0  0
 20 21  1  0  0  0  0
 21 18  1  0  0  0  0
 22 23  2  0  0  0  0
 23 20  1  0  0  0  0
 23 19  1  0  0  0  0
 24 25  1  0  0  0  0
 26  1  1  0  0  0  0
 27 26  1  0  0  0  0
 28 27  1  0  0  0  0
 29 28  1  0  0  0  0
 30 29  1  0  0  0  0
 31 32  1  0  0  0  0
 31 30  1  0  0  0  0
 33 32  1  0  0  0  0
 34 31  1  0  0  0  0
 35 37  1  1  0  0  0
 35 33  1  0  0  0  0
 36 35  1  0  0  0  0
 36 34  1  0  0  0  0
 38 37  1  0  0  0  0
M  END
>  <MODEL>
1

>  <REMARK>
 VINA RESULT:      -7.8      0.000      0.000
  Name = 
  16 active torsions:
  status: ('A' for Active; 'I' for Inactive)
    1  A    between atoms: C_1  and  C_8
    2  A    between atoms: C_1  and  C_34
    3  A    between atoms: C_2  and  C_21
    4  A    between atoms: N_3  and  N_4
    5  A    between atoms: N_4  and  C_14
    6  A    between atoms: C_6  and  N_7
    7  A    between atoms: N_7  and  C_34
    8  A    between atoms: N_11  and  C_14
    9  A    between atoms: N_11  and  N_28
   10  A    between atoms: C_12  and  C_25
   11  A    between atoms: C_16  and  C_27
   12  A    between atoms: C_18  and  C_26
   13  A    between atoms: C_19  and  C_20
   14  A    between atoms: C_19  and  C_22
   15  A    between atoms: C_21  and  N_28
   16  A    between atoms: C_22  and  N_38
                            x       y       z     vdW  Elec       q    Type
                         _______ _______ _______ _____ _____    ______ ____

>  <TORSDO>
F 16

$$$$
=
 OpenBabel10232412263D

 38 40  0  0  1  0  0  0  0  0999 V2000
  186.0180  178.4610  142.7190 C   0  0  0  0  0  0  0  0  0  0  0  0
  185.4490  177.8780  145.1410 C   0  0  2  0  0  3  0  0  0  0  0  0
  186.3450  177.9550  143.9260 C   0  0  0  0  0  3  0  0  0  0  0  0
  183.5290  178.5450  143.0850 C   0  0  2  0  0  3  0  0  0  0  0  0
  184.6170  179.1390  145.3230 C   0  0  0  0  0  2  0  0  0  0  0  0
  183.3210  179.0660  144.5120 C   0  0  0  0  0  2  0  0  0  0  0  0
  184.7360  179.1980  142.4250 C   0  0  0  0  0  2  0  0  0  0  0  0
  181.3470  179.4420  142.7010 O   0  0  0  0  0  0  0  0  0  0  0  0
  182.3020  178.7510  142.2540 C   0  0  0  0  0  0  0  0  0  0  0  0
  182.2060  178.1970  140.9390 N   0  0  0  0  0  2  0  0  0  0  0  0
  183.2630  177.4010  140.3210 C   0  0  0  0  0  2  0  0  0  0  0  0
  183.4850  177.8220  138.8740 C   0  0  0  0  0  2  0  0  0  0  0  0
  184.4300  180.0610  139.0570 N   0  0  0  0  0  1  0  0  0  0  0  0
  184.7330  178.6780  138.7330 C   0  0  0  0  0  2  0  0  0  0  0  0
  186.2850  177.6360  146.3860 C   0  0  0  0  0  2  0  0  0  0  0  0
  187.7650  177.6820  146.0470 C   0  0  0  0  0  2  0  0  0  0  0  0
  188.5180  176.8990  147.0130 N   0  0  0  0  0  2  0  0  0  0  0  0
  189.8630  177.4520  147.0720 C   0  0  1  0  0  3  0  0  0  0  0  0
  190.7570  176.4840  147.5870 O   0  0  0  0  0  0  0  0  0  0  0  0
  191.4680  177.0930  145.4710 C   0  0  1  0  0  3  0  0  0  0  0  0
  190.2840  177.8160  145.7610 O   0  0  0  0  0  0  0  0  0  0  0  0
  192.6860  175.4760  146.8080 O   0  0  0  0  0  0  0  0  0  0  0  0
  191.7190  176.2680  146.6530 C   0  0  0  0  0  0  0  0  0  0  0  0
  191.2410  176.2080  144.2560 C   0  0  0  0  0  2  0  0  0  0  0  0
  191.8290  176.7900  143.1330 O   0  0  0  0  0  1  0  0  0  0  0  0
  187.0290  178.3900  141.6240 C   0  0  0  0  0  2  0  0  0  0  0  0
  188.3600  178.2420  142.1900 N   0  0  0  0  0  2  0  0  0  0  0  0
  189.1480  177.6330  141.2070 N   0  0  0  0  0  2  0  0  0  0  0  0
  188.5190  177.9260  139.9300 C   0  0  0  0  0  2  0  0  0  0  0  0
  189.5330  178.3220  138.9630 N   0  0  0  0  0  2  0  0  0  0  0  0
  189.3220  177.5550  137.8080 N   0  0  0  0  0  0  0  0  0  0  0  0
  189.0170  178.4920  136.7300 C   0  0  0  0  0  2  0  0  0  0  0  0
  188.8800  177.8010  135.5070 O   0  0  0  0  0  0  0  0  0  0  0  0
  188.1170  176.7670  138.0400 C   0  0  0  0  0  2  0  0  0  0  0  0
  187.7490  176.9490  135.5680 C   0  0  1  0  0  3  0  0  0  0  0  0
  187.7530  176.0000  136.7750 C   0  0  0  0  0  2  0  0  0  0  0  0
  186.4200  177.6710  135.3220 C   0  0  0  0  0  2  0  0  0  0  0  0
  185.2800  176.7980  135.5600 N   0  0  0  0  0  1  0  0  0  0  0  0
  1  3  2  0  0  0  0
  2  5  1  0  0  0  0
  2 15  1  1  0  0  0
  3  2  1  0  0  0  0
  4  9  1  6  0  0  0
  4  6  1  0  0  0  0
  6  5  1  0  0  0  0
  7  1  1  0  0  0  0
  7  4  1  0  0  0  0
  9  8  2  0  0  0  0
 10  9  1  0  0  0  0
 11 10  1  0  0  0  0
 12 11  1  0  0  0  0
 14 12  1  0  0  0  0
 14 13  1  0  0  0  0
 16 15  1  0  0  0  0
 16 17  1  0  0  0  0
 18 17  1  6  0  0  0
 18 19  1  0  0  0  0
 20 24  1  6  0  0  0
 20 21  1  0  0  0  0
 20 23  1  0  0  0  0
 21 18  1  0  0  0  0
 23 22  2  0  0  0  0
 23 19  1  0  0  0  0
 25 24  1  0  0  0  0
 26 27  1  0  0  0  0
 26  1  1  0  0  0  0
 28 27  1  0  0  0  0
 29 28  1  0  0  0  0
 30 29  1  0  0  0  0
 31 34  1  0  0  0  0
 31 30  1  0  0  0  0
 32 31  1  0  0  0  0
 33 35  1  0  0  0  0
 33 32  1  0  0  0  0
 35 37  1  1  0  0  0
 35 36  1  0  0  0  0
 36 34  1  0  0  0  0
 37 38  1  0  0  0  0
M  END
>  <MODEL>
2

>  <REMARK>
 VINA RESULT:      -7.7      2.224      7.183
  Name = 
  16 active torsions:
  status: ('A' for Active; 'I' for Inactive)
    1  A    between atoms: C_1  and  C_8
    2  A    between atoms: C_1  and  C_34
    3  A    between atoms: C_2  and  C_21
    4  A    between atoms: N_3  and  N_4
    5  A    between atoms: N_4  and  C_14
    6  A    between atoms: C_6  and  N_7
    7  A    between atoms: N_7  and  C_34
    8  A    between atoms: N_11  and  C_14
    9  A    between atoms: N_11  and  N_28
   10  A    between atoms: C_12  and  C_25
   11  A    between atoms: C_16  and  C_27
   12  A    between atoms: C_18  and  C_26
   13  A    between atoms: C_19  and  C_20
   14  A    between atoms: C_19  and  C_22
   15  A    between atoms: C_21  and  N_28
   16  A    between atoms: C_22  and  N_38
                            x       y       z     vdW  Elec       q    Type
                         _______ _______ _______ _____ _____    ______ ____

>  <TORSDO>
F 16

$$$$
=
 OpenBabel10232412263D

 38 40  0  0  1  0  0  0  0  0999 V2000
  186.0660  178.4960  142.6900 C   0  0  0  0  0  0  0  0  0  0  0  0
  185.7450  177.8430  145.1400 C   0  0  2  0  0  3  0  0  0  0  0  0
  186.5120  177.9550  143.8430 C   0  0  0  0  0  3  0  0  0  0  0  0
  183.6280  178.5750  143.3110 C   0  0  2  0  0  3  0  0  0  0  0  0
  184.9410  179.1000  145.4430 C   0  0  0  0  0  2  0  0  0  0  0  0
  183.5690  179.0540  144.7660 C   0  0  0  0  0  2  0  0  0  0  0  0
  184.7650  179.2440  142.5500 C   0  0  0  0  0  2  0  0  0  0  0  0
  181.4290  179.5000  143.1710 O   0  0  0  0  0  0  0  0  0  0  0  0
  182.3240  178.8080  142.6150 C   0  0  0  0  0  0  0  0  0  0  0  0
  182.0860  178.2790  141.3080 N   0  0  0  0  0  2  0  0  0  0  0  0
  183.0640  177.4850  140.5700 C   0  0  0  0  0  2  0  0  0  0  0  0
  182.5420  177.1300  139.1830 C   0  0  0  0  0  2  0  0  0  0  0  0
  183.9100  176.0290  137.4940 N   0  0  0  0  0  1  0  0  0  0  0  0
  183.6200  177.3040  138.1270 C   0  0  0  0  0  2  0  0  0  0  0  0
  186.7010  177.5630  146.2860 C   0  0  0  0  0  2  0  0  0  0  0  0
  188.1150  177.9700  145.9060 C   0  0  0  0  0  2  0  0  0  0  0  0
  189.0690  177.0320  146.4740 N   0  0  0  0  0  2  0  0  0  0  0  0
  190.3840  177.3740  145.9520 C   0  0  1  0  0  3  0  0  0  0  0  0
  191.1550  176.1990  145.7890 O   0  0  0  0  0  0  0  0  0  0  0  0
  190.9560  177.2420  143.7340 C   0  0  1  0  0  3  0  0  0  0  0  0
  190.2410  178.0090  144.6860 O   0  0  0  0  0  0  0  0  0  0  0  0
  192.2250  175.1910  144.0050 O   0  0  0  0  0  0  0  0  0  0  0  0
  191.5100  176.1130  144.4820 C   0  0  0  0  0  0  0  0  0  0  0  0
  190.0030  176.7400  142.6620 C   0  0  0  0  0  2  0  0  0  0  0  0
  189.1170  175.8160  143.2150 O   0  0  0  0  0  1  0  0  0  0  0  0
  186.9610  178.4560  141.4970 C   0  0  0  0  0  2  0  0  0  0  0  0
  186.2290  178.8870  140.3170 N   0  0  0  0  0  2  0  0  0  0  0  0
  186.9580  178.4410  139.2090 N   0  0  0  0  0  2  0  0  0  0  0  0
  188.3450  178.3520  139.6320 C   0  0  0  0  0  2  0  0  0  0  0  0
  189.2200  178.4650  138.4750 N   0  0  0  0  0  2  0  0  0  0  0  0
  189.6600  177.1700  138.1620 N   0  0  0  0  0  0  0  0  0  0  0  0
  190.8740  176.9380  138.9400 C   0  0  0  0  0  2  0  0  0  0  0  0
  191.3310  175.6160  138.7480 O   0  0  0  0  0  0  0  0  0  0  0  0
  190.0510  177.1860  136.7570 C   0  0  0  0  0  2  0  0  0  0  0  0
  191.7340  175.4450  137.4010 C   0  0  1  0  0  3  0  0  0  0  0  0
  190.6600  175.8430  136.3770 C   0  0  0  0  0  2  0  0  0  0  0  0
  193.1370  175.9850  137.1030 C   0  0  0  0  0  2  0  0  0  0  0  0
  194.1180  175.4950  138.0600 N   0  0  0  0  0  1  0  0  0  0  0  0
  1  3  2  0  0  0  0
  2  5  1  0  0  0  0
  2 15  1  1  0  0  0
  3  2  1  0  0  0  0
  4  9  1  6  0  0  0
  4  6  1  0  0  0  0
  6  5  1  0  0  0  0
  7  1  1  0  0  0  0
  7  4  1  0  0  0  0
  9  8  2  0  0  0  0
 10  9  1  0  0  0  0
 11 10  1  0  0  0  0
 12 11  1  0  0  0  0
 13 14  1  0  0  0  0
 14 12  1  0  0  0  0
 16 15  1  0  0  0  0
 16 17  1  0  0  0  0
 18 17  1  6  0  0  0
 19 18  1  0  0  0  0
 20 24  1  6  0  0  0
 20 23  1  0  0  0  0
 20 21  1  0  0  0  0
 21 18  1  0  0  0  0
 22 23  2  0  0  0  0
 23 19  1  0  0  0  0
 24 25  1  0  0  0  0
 26  1  1  0  0  0  0
 27 26  1  0  0  0  0
 28 29  1  0  0  0  0
 28 27  1  0  0  0  0
 30 29  1  0  0  0  0
 31 30  1  0  0  0  0
 31 32  1  0  0  0  0
 33 32  1  0  0  0  0
 34 31  1  0  0  0  0
 35 37  1  6  0  0  0
 35 33  1  0  0  0  0
 36 34  1  0  0  0  0
 36 35  1  0  0  0  0
 37 38  1  0  0  0  0
M  END
>  <MODEL>
3

>  <REMARK>
 VINA RESULT:      -7.6      2.750      7.232
  Name = 
  16 active torsions:
  status: ('A' for Active; 'I' for Inactive)
    1  A    between atoms: C_1  and  C_8
    2  A    between atoms: C_1  and  C_34
    3  A    between atoms: C_2  and  C_21
    4  A    between atoms: N_3  and  N_4
    5  A    between atoms: N_4  and  C_14
    6  A    between atoms: C_6  and  N_7
    7  A    between atoms: N_7  and  C_34
    8  A    between atoms: N_11  and  C_14
    9  A    between atoms: N_11  and  N_28
   10  A    between atoms: C_12  and  C_25
   11  A    between atoms: C_16  and  C_27
   12  A    between atoms: C_18  and  C_26
   13  A    between atoms: C_19  and  C_20
   14  A    between atoms: C_19  and  C_22
   15  A    between atoms: C_21  and  N_28
   16  A    between atoms: C_22  and  N_38
                            x       y       z     vdW  Elec       q    Type
                         _______ _______ _______ _____ _____    ______ ____

>  <TORSDO>
F 16

$$$$
=
 OpenBabel10232412263D

 38 40  0  0  1  0  0  0  0  0999 V2000
  186.9020  177.4160  144.1790 C   0  0  0  0  0  0  0  0  0  0  0  0
  185.0690  179.1040  144.7420 C   0  0  2  0  0  3  0  0  0  0  0  0
  185.9230  178.2690  143.8160 C   0  0  0  0  0  3  0  0  0  0  0  0
  187.1300  178.2040  146.5590 C   0  0  2  0  0  3  0  0  0  0  0  0
  184.6410  178.3330  145.9820 C   0  0  0  0  0  2  0  0  0  0  0  0
  185.7050  178.4190  147.0800 C   0  0  0  0  0  2  0  0  0  0  0  0
  187.2010  177.0210  145.6030 C   0  0  0  0  0  2  0  0  0  0  0  0
  187.6720  177.9870  148.8760 O   0  0  0  0  0  0  0  0  0  0  0  0
  188.0940  178.0220  147.6890 C   0  0  0  0  0  0  0  0  0  0  0  0
  189.4920  177.8570  147.4410 N   0  0  0  0  0  2  0  0  0  0  0  0
  190.0790  177.8610  146.1040 C   0  0  0  0  0  2  0  0  0  0  0  0
  191.1760  176.8100  145.9890 C   0  0  0  0  0  2  0  0  0  0  0  0
  191.7430  177.6280  143.7640 N   0  0  0  0  0  1  0  0  0  0  0  0
  191.4340  176.4390  144.5370 C   0  0  0  0  0  2  0  0  0  0  0  0
  183.8390  179.6030  144.0050 C   0  0  0  0  0  2  0  0  0  0  0  0
  183.5360  178.7070  142.8150 C   0  0  0  0  0  2  0  0  0  0  0  0
  182.1300  178.8130  142.4610 N   0  0  0  0  0  2  0  0  0  0  0  0
  182.0480  178.9070  141.0120 C   0  0  1  0  0  3  0  0  0  0  0  0
  183.0930  178.1560  140.4230 O   0  0  0  0  0  0  0  0  0  0  0  0
  181.0710  177.3160  139.6770 C   0  0  1  0  0  3  0  0  0  0  0  0
  180.8000  178.3810  140.5720 O   0  0  0  0  0  0  0  0  0  0  0  0
  183.1870  176.3940  138.9310 O   0  0  0  0  0  0  0  0  0  0  0  0
  182.5290  177.2160  139.6220 C   0  0  0  0  0  0  0  0  0  0  0  0
  180.4800  176.0270  140.2240 C   0  0  0  0  0  2  0  0  0  0  0  0
  179.9840  175.2540  139.1750 O   0  0  0  0  0  1  0  0  0  0  0  0
  187.6740  176.7260  143.1050 C   0  0  0  0  0  2  0  0  0  0  0  0
  188.4410  177.6990  142.3450 N   0  0  0  0  0  2  0  0  0  0  0  0
  189.1240  176.9860  141.3540 N   0  0  0  0  0  2  0  0  0  0  0  0
  189.2670  177.8820  140.2200 C   0  0  0  0  0  2  0  0  0  0  0  0
  187.9810  178.4910  139.9120 N   0  0  0  0  0  2  0  0  0  0  0  0
  187.9570  178.7270  138.5290 N   0  0  0  0  0  0  0  0  0  0  0  0
  186.8380  177.9580  137.9890 C   0  0  0  0  0  2  0  0  0  0  0  0
  186.6900  178.2150  136.6100 O   0  0  0  0  0  0  0  0  0  0  0  0
  189.1760  178.1440  137.9810 C   0  0  0  0  0  2  0  0  0  0  0  0
  187.8240  177.7280  135.9130 C   0  0  1  0  0  3  0  0  0  0  0  0
  189.1600  178.2500  136.4630 C   0  0  0  0  0  2  0  0  0  0  0  0
  187.7840  176.2190  135.6490 C   0  0  0  0  0  2  0  0  0  0  0  0
  186.5390  175.8150  135.0130 N   0  0  0  0  0  1  0  0  0  0  0  0
  1  7  1  0  0  0  0
  2 15  1  6  0  0  0
  2  5  1  0  0  0  0
  3  1  2  0  0  0  0
  3  2  1  0  0  0  0
  4  6  1  0  0  0  0
  4  9  1  1  0  0  0
  5  6  1  0  0  0  0
  7  4  1  0  0  0  0
  9  8  2  0  0  0  0
 10  9  1  0  0  0  0
 11 10  1  0  0  0  0
 12 11  1  0  0  0  0
 13 14  1  0  0  0  0
 14 12  1  0  0  0  0
 16 15  1  0  0  0  0
 17 16  1  0  0  0  0
 18 17  1  1  0  0  0
 19 18  1  0  0  0  0
 20 24  1  1  0  0  0
 20 21  1  0  0  0  0
 21 18  1  0  0  0  0
 22 23  2  0  0  0  0
 23 20  1  0  0  0  0
 23 19  1  0  0  0  0
 25 24  1  0  0  0  0
 26  1  1  0  0  0  0
 27 26  1  0  0  0  0
 28 27  1  0  0  0  0
 29 28  1  0  0  0  0
 30 29  1  0  0  0  0
 31 30  1  0  0  0  0
 32 31  1  0  0  0  0
 33 32  1  0  0  0  0
 34 31  1  0  0  0  0
 35 37  1  1  0  0  0
 35 36  1  0  0  0  0
 35 33  1  0  0  0  0
 36 34  1  0  0  0  0
 38 37  1  0  0  0  0
M  END
>  <MODEL>
4

>  <REMARK>
 VINA RESULT:      -7.1      1.516      2.215
  Name = 
  16 active torsions:
  status: ('A' for Active; 'I' for Inactive)
    1  A    between atoms: C_1  and  C_8
    2  A    between atoms: C_1  and  C_34
    3  A    between atoms: C_2  and  C_21
    4  A    between atoms: N_3  and  N_4
    5  A    between atoms: N_4  and  C_14
    6  A    between atoms: C_6  and  N_7
    7  A    between atoms: N_7  and  C_34
    8  A    between atoms: N_11  and  C_14
    9  A    between atoms: N_11  and  N_28
   10  A    between atoms: C_12  and  C_25
   11  A    between atoms: C_16  and  C_27
   12  A    between atoms: C_18  and  C_26
   13  A    between atoms: C_19  and  C_20
   14  A    between atoms: C_19  and  C_22
   15  A    between atoms: C_21  and  N_28
   16  A    between atoms: C_22  and  N_38
                            x       y       z     vdW  Elec       q    Type
                         _______ _______ _______ _____ _____    ______ ____

>  <TORSDO>
F 16

$$$$
=
 OpenBabel10232412263D

 38 40  0  0  1  0  0  0  0  0999 V2000
  186.6750  177.7990  143.8100 C   0  0  0  0  0  0  0  0  0  0  0  0
  184.8130  179.2820  144.7410 C   0  0  2  0  0  3  0  0  0  0  0  0
  185.6450  178.6540  143.6460 C   0  0  0  0  0  3  0  0  0  0  0  0
  187.0060  178.1870  146.2750 C   0  0  2  0  0  3  0  0  0  0  0  0
  184.4850  178.2940  145.8510 C   0  0  0  0  0  2  0  0  0  0  0  0
  185.6050  178.2450  146.8940 C   0  0  0  0  0  2  0  0  0  0  0  0
  187.0670  177.1850  145.1300 C   0  0  0  0  0  2  0  0  0  0  0  0
  187.6830  177.6010  148.4900 O   0  0  0  0  0  0  0  0  0  0  0  0
  188.0370  177.8640  147.3100 C   0  0  0  0  0  0  0  0  0  0  0  0
  189.4260  177.8200  146.9710 N   0  0  0  0  0  2  0  0  0  0  0  0
  189.9370  178.0870  145.6300 C   0  0  0  0  0  2  0  0  0  0  0  0
  190.7650  176.9140  145.1200 C   0  0  0  0  0  2  0  0  0  0  0  0
  191.3610  178.7030  143.5760 N   0  0  0  0  0  1  0  0  0  0  0  0
  191.5660  177.3000  143.8870 C   0  0  0  0  0  2  0  0  0  0  0  0
  183.5260  179.8390  144.1590 C   0  0  0  0  0  2  0  0  0  0  0  0
  182.7470  178.7420  143.4520 C   0  0  0  0  0  2  0  0  0  0  0  0
  181.7370  179.3310  142.5880 N   0  0  0  0  0  2  0  0  0  0  0  0
  181.5500  178.4340  141.4580 C   0  0  1  0  0  3  0  0  0  0  0  0
  180.5890  178.9740  140.5700 O   0  0  0  0  0  0  0  0  0  0  0  0
  182.5800  178.6980  139.4250 C   0  0  1  0  0  3  0  0  0  0  0  0
  182.7830  178.2810  140.7640 O   0  0  0  0  0  0  0  0  0  0  0  0
  180.5930  179.5660  138.3360 O   0  0  0  0  0  0  0  0  0  0  0  0
  181.1830  179.1270  139.3590 C   0  0  0  0  0  0  0  0  0  0  0  0
  183.5000  179.8670  139.1100 C   0  0  0  0  0  2  0  0  0  0  0  0
  184.6870  179.7400  139.8300 O   0  0  0  0  0  1  0  0  0  0  0  0
  187.4110  177.3350  142.5980 C   0  0  0  0  0  2  0  0  0  0  0  0
  187.2790  178.3170  141.5350 N   0  0  0  0  0  2  0  0  0  0  0  0
  188.5680  178.5510  141.0430 N   0  0  0  0  0  2  0  0  0  0  0  0
  189.2140  177.2540  140.9370 C   0  0  0  0  0  2  0  0  0  0  0  0
  190.4300  177.3750  140.1470 N   0  0  0  0  0  2  0  0  0  0  0  0
  190.5130  176.2320  139.3390 N   0  0  0  0  0  0  0  0  0  0  0  0
  191.7950  176.3000  138.6410 C   0  0  0  0  0  2  0  0  0  0  0  0
  191.9950  175.1340  137.8720 O   0  0  0  0  0  0  0  0  0  0  0  0
  189.4720  176.3570  138.3260 C   0  0  0  0  0  2  0  0  0  0  0  0
  191.0290  175.0790  136.8360 C   0  0  1  0  0  3  0  0  0  0  0  0
  189.5810  175.2090  137.3310 C   0  0  0  0  0  2  0  0  0  0  0  0
  191.3740  175.9520  135.6240 C   0  0  0  0  0  2  0  0  0  0  0  0
  192.7480  175.7480  135.1860 N   0  0  0  0  0  1  0  0  0  0  0  0
  1  7  1  0  0  0  0
  2 15  1  6  0  0  0
  2  5  1  0  0  0  0
  3  1  2  0  0  0  0
  3  2  1  0  0  0  0
  4  6  1  0  0  0  0
  4  9  1  1  0  0  0
  5  6  1  0  0  0  0
  7  4  1  0  0  0  0
  9  8  2  0  0  0  0
 10  9  1  0  0  0  0
 11 10  1  0  0  0  0
 12 11  1  0  0  0  0
 13 14  1  0  0  0  0
 14 12  1  0  0  0  0
 16 15  1  0  0  0  0
 17 16  1  0  0  0  0
 18 17  1  1  0  0  0
 19 18  1  0  0  0  0
 20 24  1  1  0  0  0
 20 21  1  0  0  0  0
 21 18  1  0  0  0  0
 22 23  2  0  0  0  0
 23 20  1  0  0  0  0
 23 19  1  0  0  0  0
 24 25  1  0  0  0  0
 26  1  1  0  0  0  0
 27 26  1  0  0  0  0
 28 27  1  0  0  0  0
 29 28  1  0  0  0  0
 30 29  1  0  0  0  0
 31 30  1  0  0  0  0
 32 31  1  0  0  0  0
 33 32  1  0  0  0  0
 34 31  1  0  0  0  0
 35 37  1  6  0  0  0
 35 36  1  0  0  0  0
 35 33  1  0  0  0  0
 36 34  1  0  0  0  0
 38 37  1  0  0  0  0
M  END
>  <MODEL>
5

>  <REMARK>
 VINA RESULT:      -7.0      1.834      2.397
  Name = 
  16 active torsions:
  status: ('A' for Active; 'I' for Inactive)
    1  A    between atoms: C_1  and  C_8
    2  A    between atoms: C_1  and  C_34
    3  A    between atoms: C_2  and  C_21
    4  A    between atoms: N_3  and  N_4
    5  A    between atoms: N_4  and  C_14
    6  A    between atoms: C_6  and  N_7
    7  A    between atoms: N_7  and  C_34
    8  A    between atoms: N_11  and  C_14
    9  A    between atoms: N_11  and  N_28
   10  A    between atoms: C_12  and  C_25
   11  A    between atoms: C_16  and  C_27
   12  A    between atoms: C_18  and  C_26
   13  A    between atoms: C_19  and  C_20
   14  A    between atoms: C_19  and  C_22
   15  A    between atoms: C_21  and  N_28
   16  A    between atoms: C_22  and  N_38
                            x       y       z     vdW  Elec       q    Type
                         _______ _______ _______ _____ _____    ______ ____

>  <TORSDO>
F 16

$$$$
=
 OpenBabel10232412263D

 38 40  0  0  1  0  0  0  0  0999 V2000
  187.2770  177.2000  143.4790 C   0  0  0  0  0  0  0  0  0  0  0  0
  185.5660  178.8890  142.6140 C   0  0  2  0  0  3  0  0  0  0  0  0
  186.7260  177.9300  142.4870 C   0  0  0  0  0  3  0  0  0  0  0  0
  186.2070  178.4320  145.3960 C   0  0  2  0  0  3  0  0  0  0  0  0
  184.4690  178.3480  143.5200 C   0  0  0  0  0  2  0  0  0  0  0  0
  184.7510  178.6830  144.9870 C   0  0  0  0  0  2  0  0  0  0  0  0
  186.7090  177.0930  144.8700 C   0  0  0  0  0  2  0  0  0  0  0  0
  185.3630  178.7040  147.6150 O   0  0  0  0  0  0  0  0  0  0  0  0
  186.3690  178.5050  146.8810 C   0  0  0  0  0  0  0  0  0  0  0  0
  187.6500  178.3240  147.4890 N   0  0  0  0  0  2  0  0  0  0  0  0
  188.8710  178.0670  146.7320 C   0  0  0  0  0  2  0  0  0  0  0  0
  189.5510  176.7900  147.2120 C   0  0  0  0  0  2  0  0  0  0  0  0
  191.9460  176.9310  147.6410 N   0  0  0  0  0  1  0  0  0  0  0  0
  190.9460  176.6530  146.6250 C   0  0  0  0  0  2  0  0  0  0  0  0
  184.9890  179.1900  141.2410 C   0  0  0  0  0  2  0  0  0  0  0  0
  183.6500  178.4910  141.0660 C   0  0  0  0  0  2  0  0  0  0  0  0
  183.5850  177.8710  139.7530 N   0  0  0  0  0  2  0  0  0  0  0  0
  182.4140  177.0070  139.7350 C   0  0  1  0  0  3  0  0  0  0  0  0
  181.4810  177.4840  138.7850 O   0  0  0  0  0  0  0  0  0  0  0  0
  182.0840  175.3270  138.2070 C   0  0  1  0  0  3  0  0  0  0  0  0
  182.8040  175.6860  139.3730 O   0  0  0  0  0  0  0  0  0  0  0  0
  180.4680  176.5900  136.9100 O   0  0  0  0  0  0  0  0  0  0  0  0
  181.2680  176.4960  137.8790 C   0  0  0  0  0  0  0  0  0  0  0  0
  183.0550  175.0350  137.0760 C   0  0  0  0  0  2  0  0  0  0  0  0
  184.2350  174.5010  137.5930 O   0  0  0  0  0  1  0  0  0  0  0  0
  188.4620  176.3520  143.1600 C   0  0  0  0  0  2  0  0  0  0  0  0
  189.4610  177.1420  142.4590 N   0  0  0  0  0  2  0  0  0  0  0  0
  189.9780  176.3270  141.4450 N   0  0  0  0  0  2  0  0  0  0  0  0
  189.9940  177.1300  140.2340 C   0  0  0  0  0  2  0  0  0  0  0  0
  189.0310  178.2150  140.3520 N   0  0  0  0  0  2  0  0  0  0  0  0
  188.7650  178.6730  139.0540 N   0  0  0  0  0  0  0  0  0  0  0  0
  187.3980  178.2670  138.7340 C   0  0  0  0  0  2  0  0  0  0  0  0
  187.0220  178.7720  137.4710 O   0  0  0  0  0  0  0  0  0  0  0  0
  189.6480  177.9350  138.1580 C   0  0  0  0  0  2  0  0  0  0  0  0
  187.8160  178.1700  136.4640 C   0  0  1  0  0  3  0  0  0  0  0  0
  189.3270  178.2900  136.7120 C   0  0  0  0  0  2  0  0  0  0  0  0
  187.3420  176.7700  136.0590 C   0  0  0  0  0  2  0  0  0  0  0  0
  185.9910  176.7940  135.5160 N   0  0  0  0  0  1  0  0  0  0  0  0
  1  7  1  0  0  0  0
  2 15  1  6  0  0  0
  2  5  1  0  0  0  0
  3  2  1  0  0  0  0
  3  1  2  0  0  0  0
  4  9  1  1  0  0  0
  5  6  1  0  0  0  0
  6  4  1  0  0  0  0
  7  4  1  0  0  0  0
  9 10  1  0  0  0  0
  9  8  2  0  0  0  0
 11 12  1  0  0  0  0
 11 10  1  0  0  0  0
 14 12  1  0  0  0  0
 14 13  1  0  0  0  0
 16 15  1  0  0  0  0
 17 16  1  0  0  0  0
 18 17  1  6  0  0  0
 19 18  1  0  0  0  0
 20 24  1  6  0  0  0
 20 21  1  0  0  0  0
 21 18  1  0  0  0  0
 22 23  2  0  0  0  0
 23 20  1  0  0  0  0
 23 19  1  0  0  0  0
 24 25  1  0  0  0  0
 26  1  1  0  0  0  0
 27 26  1  0  0  0  0
 28 27  1  0  0  0  0
 29 30  1  0  0  0  0
 29 28  1  0  0  0  0
 31 30  1  0  0  0  0
 32 31  1  0  0  0  0
 33 32  1  0  0  0  0
 34 31  1  0  0  0  0
 35 37  1  1  0  0  0
 35 36  1  0  0  0  0
 35 33  1  0  0  0  0
 36 34  1  0  0  0  0
 38 37  1  0  0  0  0
M  END
>  <MODEL>
6

>  <REMARK>
 VINA RESULT:      -7.0      2.050      2.366
  Name = 
  16 active torsions:
  status: ('A' for Active; 'I' for Inactive)
    1  A    between atoms: C_1  and  C_8
    2  A    between atoms: C_1  and  C_34
    3  A    between atoms: C_2  and  C_21
    4  A    between atoms: N_3  and  N_4
    5  A    between atoms: N_4  and  C_14
    6  A    between atoms: C_6  and  N_7
    7  A    between atoms: N_7  and  C_34
    8  A    between atoms: N_11  and  C_14
    9  A    between atoms: N_11  and  N_28
   10  A    between atoms: C_12  and  C_25
   11  A    between atoms: C_16  and  C_27
   12  A    between atoms: C_18  and  C_26
   13  A    between atoms: C_19  and  C_20
   14  A    between atoms: C_19  and  C_22
   15  A    between atoms: C_21  and  N_28
   16  A    between atoms: C_22  and  N_38
                            x       y       z     vdW  Elec       q    Type
                         _______ _______ _______ _____ _____    ______ ____

>  <TORSDO>
F 16

$$$$
=
 OpenBabel10232412263D

 38 40  0  0  1  0  0  0  0  0999 V2000
  185.9180  178.7340  142.0050 C   0  0  0  0  0  0  0  0  0  0  0  0
  187.1000  176.9520  143.4050 C   0  0  2  0  0  3  0  0  0  0  0  0
  186.7940  177.7170  142.1380 C   0  0  0  0  0  3  0  0  0  0  0  0
  184.7220  178.3950  144.1950 C   0  0  2  0  0  3  0  0  0  0  0  0
  187.1880  177.8640  144.6200 C   0  0  0  0  0  2  0  0  0  0  0  0
  185.8060  178.0970  145.2360 C   0  0  0  0  0  2  0  0  0  0  0  0
  185.2080  179.3990  143.1570 C   0  0  0  0  0  2  0  0  0  0  0  0
  183.4670  179.1610  146.0780 O   0  0  0  0  0  0  0  0  0  0  0  0
  183.4680  178.8840  144.8490 C   0  0  0  0  0  0  0  0  0  0  0  0
  182.2700  179.0690  144.0900 N   0  0  0  0  0  2  0  0  0  0  0  0
  182.1730  178.7980  142.6600 C   0  0  0  0  0  2  0  0  0  0  0  0
  180.7200  178.8230  142.1990 C   0  0  0  0  0  2  0  0  0  0  0  0
  181.5200  179.0970  139.9130 N   0  0  0  0  0  1  0  0  0  0  0  0
  180.5920  178.3650  140.7550 C   0  0  0  0  0  2  0  0  0  0  0  0
  188.4020  176.1870  143.2470 C   0  0  0  0  0  2  0  0  0  0  0  0
  189.2800  176.8470  142.1970 C   0  0  0  0  0  2  0  0  0  0  0  0
  190.5160  176.0990  142.0440 N   0  0  0  0  0  2  0  0  0  0  0  0
  191.5850  176.8940  142.6290 C   0  0  1  0  0  3  0  0  0  0  0  0
  191.2070  178.2570  142.6580 O   0  0  0  0  0  0  0  0  0  0  0  0
  191.6310  177.5630  144.8240 C   0  0  1  0  0  3  0  0  0  0  0  0
  191.8270  176.4560  143.9620 O   0  0  0  0  0  0  0  0  0  0  0  0
  190.9780  179.8460  144.3220 O   0  0  0  0  0  0  0  0  0  0  0  0
  191.2400  178.6700  143.9510 C   0  0  0  0  0  0  0  0  0  0  0  0
  190.5140  177.2540  145.8060 C   0  0  0  0  0  2  0  0  0  0  0  0
  191.0350  176.5960  146.9210 O   0  0  0  0  0  1  0  0  0  0  0  0
  185.7140  179.3210  140.6500 C   0  0  0  0  0  2  0  0  0  0  0  0
  185.0320  178.3650  139.7940 N   0  0  0  0  0  2  0  0  0  0  0  0
  185.1830  178.8230  138.4800 N   0  0  0  0  0  2  0  0  0  0  0  0
  186.3010  178.0900  137.9110 C   0  0  0  0  0  2  0  0  0  0  0  0
  187.2220  179.0180  137.2730 N   0  0  0  0  0  2  0  0  0  0  0  0
  188.5090  178.4740  137.3990 N   0  0  0  0  0  0  0  0  0  0  0  0
  188.8140  177.8150  136.1310 C   0  0  0  0  0  2  0  0  0  0  0  0
  190.1340  177.3170  136.1460 O   0  0  0  0  0  0  0  0  0  0  0  0
  188.4270  177.4290  138.4120 C   0  0  0  0  0  2  0  0  0  0  0  0
  190.2430  176.2900  137.1150 C   0  0  1  0  0  3  0  0  0  0  0  0
  189.7620  176.7050  138.5140 C   0  0  0  0  0  2  0  0  0  0  0  0
  189.7230  174.9300  136.6350 C   0  0  0  0  0  2  0  0  0  0  0  0
  190.3610  173.8280  137.3410 N   0  0  0  0  0  1  0  0  0  0  0  0
  1  3  2  0  0  0  0
  1  7  1  0  0  0  0
  2 15  1  6  0  0  0
  2  5  1  0  0  0  0
  3  2  1  0  0  0  0
  4  9  1  1  0  0  0
  4  6  1  0  0  0  0
  5  6  1  0  0  0  0
  7  4  1  0  0  0  0
  9  8  2  0  0  0  0
 10  9  1  0  0  0  0
 11 10  1  0  0  0  0
 12 11  1  0  0  0  0
 13 14  1  0  0  0  0
 14 12  1  0  0  0  0
 16 15  1  0  0  0  0
 17 16  1  0  0  0  0
 18 17  1  1  0  0  0
 18 19  1  0  0  0  0
 18 21  1  0  0  0  0
 19 23  1  0  0  0  0
 20 24  1  1  0  0  0
 21 20  1  0  0  0  0
 23 22  2  0  0  0  0
 23 20  1  0  0  0  0
 24 25  1  0  0  0  0
 26  1  1  0  0  0  0
 27 26  1  0  0  0  0
 28 27  1  0  0  0  0
 29 28  1  0  0  0  0
 30 31  1  0  0  0  0
 30 29  1  0  0  0  0
 31 34  1  0  0  0  0
 32 33  1  0  0  0  0
 32 31  1  0  0  0  0
 33 35  1  0  0  0  0
 34 36  1  0  0  0  0
 35 37  1  6  0  0  0
 35 36  1  0  0  0  0
 37 38  1  0  0  0  0
M  END
>  <MODEL>
7

>  <REMARK>
 VINA RESULT:      -6.9      3.053      7.238
  Name = 
  16 active torsions:
  status: ('A' for Active; 'I' for Inactive)
    1  A    between atoms: C_1  and  C_8
    2  A    between atoms: C_1  and  C_34
    3  A    between atoms: C_2  and  C_21
    4  A    between atoms: N_3  and  N_4
    5  A    between atoms: N_4  and  C_14
    6  A    between atoms: C_6  and  N_7
    7  A    between atoms: N_7  and  C_34
    8  A    between atoms: N_11  and  C_14
    9  A    between atoms: N_11  and  N_28
   10  A    between atoms: C_12  and  C_25
   11  A    between atoms: C_16  and  C_27
   12  A    between atoms: C_18  and  C_26
   13  A    between atoms: C_19  and  C_20
   14  A    between atoms: C_19  and  C_22
   15  A    between atoms: C_21  and  N_28
   16  A    between atoms: C_22  and  N_38
                            x       y       z     vdW  Elec       q    Type
                         _______ _______ _______ _____ _____    ______ ____

>  <TORSDO>
F 16

$$$$
=
 OpenBabel10232412263D

 38 40  0  0  1  0  0  0  0  0999 V2000
  188.0500  177.9480  141.3710 C   0  0  0  0  0  0  0  0  0  0  0  0
  186.7010  178.0780  143.5390 C   0  0  2  0  0  3  0  0  0  0  0  0
  186.9540  178.3140  142.0670 C   0  0  0  0  0  3  0  0  0  0  0  0
  189.5150  177.4380  143.3540 C   0  0  2  0  0  3  0  0  0  0  0  0
  187.1500  176.6930  143.9830 C   0  0  0  0  0  2  0  0  0  0  0  0
  188.6340  176.6890  144.3590 C   0  0  0  0  0  2  0  0  0  0  0  0
  189.1520  177.0780  141.9190 C   0  0  0  0  0  2  0  0  0  0  0  0
  191.7300  176.8800  142.6510 O   0  0  0  0  0  0  0  0  0  0  0  0
  190.9660  177.1740  143.6090 C   0  0  0  0  0  0  0  0  0  0  0  0
  191.5090  177.2780  144.9280 N   0  0  0  0  0  2  0  0  0  0  0  0
  190.7150  177.6330  146.1000 C   0  0  0  0  0  2  0  0  0  0  0  0
  191.0230  176.7030  147.2670 C   0  0  0  0  0  2  0  0  0  0  0  0
  193.0250  175.5670  148.0680 N   0  0  0  0  0  1  0  0  0  0  0  0
  192.1480  175.7400  146.9240 C   0  0  0  0  0  2  0  0  0  0  0  0
  185.2250  178.2570  143.8470 C   0  0  0  0  0  2  0  0  0  0  0  0
  184.5940  179.2290  142.8650 C   0  0  0  0  0  2  0  0  0  0  0  0
  183.2620  178.7710  142.5020 N   0  0  0  0  0  2  0  0  0  0  0  0
  183.2060  178.6950  141.0500 C   0  0  1  0  0  3  0  0  0  0  0  0
  183.6020  177.4060  140.6220 O   0  0  0  0  0  0  0  0  0  0  0  0
  181.4460  177.8000  139.8810 C   0  0  1  0  0  3  0  0  0  0  0  0
  181.8720  178.9350  140.6140 O   0  0  0  0  0  0  0  0  0  0  0  0
  182.6080  175.7300  139.3770 O   0  0  0  0  0  0  0  0  0  0  0  0
  182.5720  176.8670  139.9200 C   0  0  0  0  0  0  0  0  0  0  0  0
  180.2330  177.1810  140.5570 C   0  0  0  0  0  2  0  0  0  0  0  0
  180.0060  177.8070  141.7830 O   0  0  0  0  0  1  0  0  0  0  0  0
  188.1340  178.3290  139.9320 C   0  0  0  0  0  2  0  0  0  0  0  0
  186.8120  178.6650  139.4310 N   0  0  0  0  0  2  0  0  0  0  0  0
  186.7650  178.2330  138.1000 N   0  0  0  0  0  2  0  0  0  0  0  0
  188.0380  177.5860  137.8290 C   0  0  0  0  0  2  0  0  0  0  0  0
  187.9470  176.8250  136.5920 N   0  0  0  0  0  2  0  0  0  0  0  0
  189.0460  175.9550  136.5610 N   0  0  0  0  0  0  0  0  0  0  0  0
  189.5390  175.8480  137.9320 C   0  0  0  0  0  2  0  0  0  0  0  0
  190.5950  174.9150  138.0000 O   0  0  0  0  0  0  0  0  0  0  0  0
  190.0870  176.6190  135.7860 C   0  0  0  0  0  2  0  0  0  0  0  0
  191.7030  175.3980  137.2610 C   0  0  1  0  0  3  0  0  0  0  0  0
  191.3610  175.7860  135.8150 C   0  0  0  0  0  2  0  0  0  0  0  0
  192.5480  176.4280  138.0190 C   0  0  0  0  0  2  0  0  0  0  0  0
  193.9570  176.0590  138.0410 N   0  0  0  0  0  1  0  0  0  0  0  0
  1  7  1  0  0  0  0
  1  3  2  0  0  0  0
  2 15  1  6  0  0  0
  2  5  1  0  0  0  0
  3  2  1  0  0  0  0
  4  9  1  1  0  0  0
  4  6  1  0  0  0  0
  5  6  1  0  0  0  0
  7  4  1  0  0  0  0
  8  9  2  0  0  0  0
  9 10  1  0  0  0  0
 10 11  1  0  0  0  0
 11 12  1  0  0  0  0
 14 12  1  0  0  0  0
 14 13  1  0  0  0  0
 16 15  1  0  0  0  0
 17 16  1  0  0  0  0
 18 17  1  1  0  0  0
 19 18  1  0  0  0  0
 20 23  1  0  0  0  0
 20 24  1  1  0  0  0
 20 21  1  0  0  0  0
 21 18  1  0  0  0  0
 22 23  2  0  0  0  0
 23 19  1  0  0  0  0
 24 25  1  0  0  0  0
 26  1  1  0  0  0  0
 27 26  1  0  0  0  0
 28 27  1  0  0  0  0
 29 28  1  0  0  0  0
 30 29  1  0  0  0  0
 31 30  1  0  0  0  0
 31 32  1  0  0  0  0
 32 33  1  0  0  0  0
 34 36  1  0  0  0  0
 34 31  1  0  0  0  0
 35 33  1  0  0  0  0
 35 37  1  1  0  0  0
 36 35  1  0  0  0  0
 37 38  1  0  0  0  0
M  END
>  <MODEL>
8

>  <REMARK>
 VINA RESULT:      -6.7      2.387      3.770
  Name = 
  16 active torsions:
  status: ('A' for Active; 'I' for Inactive)
    1  A    between atoms: C_1  and  C_8
    2  A    between atoms: C_1  and  C_34
    3  A    between atoms: C_2  and  C_21
    4  A    between atoms: N_3  and  N_4
    5  A    between atoms: N_4  and  C_14
    6  A    between atoms: C_6  and  N_7
    7  A    between atoms: N_7  and  C_34
    8  A    between atoms: N_11  and  C_14
    9  A    between atoms: N_11  and  N_28
   10  A    between atoms: C_12  and  C_25
   11  A    between atoms: C_16  and  C_27
   12  A    between atoms: C_18  and  C_26
   13  A    between atoms: C_19  and  C_20
   14  A    between atoms: C_19  and  C_22
   15  A    between atoms: C_21  and  N_28
   16  A    between atoms: C_22  and  N_38
                            x       y       z     vdW  Elec       q    Type
                         _______ _______ _______ _____ _____    ______ ____

>  <TORSDO>
F 16

$$$$
=
 OpenBabel10232412263D

 38 40  0  0  1  0  0  0  0  0999 V2000
  184.7040  178.8050  141.8680 C   0  0  0  0  0  0  0  0  0  0  0  0
  183.6140  178.5260  144.1630 C   0  0  2  0  0  3  0  0  0  0  0  0
  184.7760  178.6030  143.2000 C   0  0  0  0  0  3  0  0  0  0  0  0
  182.2370  178.3660  141.6260 C   0  0  2  0  0  3  0  0  0  0  0  0
  182.5480  179.5700  143.8620 C   0  0  0  0  0  2  0  0  0  0  0  0
  181.5580  179.0590  142.8120 C   0  0  0  0  0  2  0  0  0  0  0  0
  183.4380  179.1610  141.1310 C   0  0  0  0  0  2  0  0  0  0  0  0
  180.2680  178.8920  140.3790 O   0  0  0  0  0  0  0  0  0  0  0  0
  181.2670  178.1350  140.5110 C   0  0  0  0  0  0  0  0  0  0  0  0
  181.4710  177.0790  139.5680 N   0  0  0  0  0  2  0  0  0  0  0  0
  182.6050  176.1620  139.6200 C   0  0  0  0  0  2  0  0  0  0  0  0
  183.2990  176.0770  138.2650 C   0  0  0  0  0  2  0  0  0  0  0  0
  184.8410  177.2960  136.8260 N   0  0  0  0  0  1  0  0  0  0  0  0
  183.7800  177.4440  137.8060 C   0  0  0  0  0  2  0  0  0  0  0  0
  184.1090  178.7020  145.5880 C   0  0  0  0  0  2  0  0  0  0  0  0
  185.5800  179.0820  145.5950 C   0  0  0  0  0  2  0  0  0  0  0  0
  186.2650  178.3870  146.6720 N   0  0  0  0  0  2  0  0  0  0  0  0
  187.1150  177.3710  146.0680 C   0  0  1  0  0  3  0  0  0  0  0  0
  187.9850  177.9720  145.1270 O   0  0  0  0  0  0  0  0  0  0  0  0
  189.2600  176.9240  146.7480 C   0  0  1  0  0  3  0  0  0  0  0  0
  187.8950  176.7430  147.0800 O   0  0  0  0  0  0  0  0  0  0  0  0
  190.2790  178.0800  144.8740 O   0  0  0  0  0  0  0  0  0  0  0  0
  189.2590  177.7070  145.5120 C   0  0  0  0  0  0  0  0  0  0  0  0
  189.9560  177.7000  147.8550 C   0  0  0  0  0  2  0  0  0  0  0  0
  189.0120  178.4110  148.5960 O   0  0  0  0  0  1  0  0  0  0  0  0
  185.9700  178.7880  141.0800 C   0  0  0  0  0  2  0  0  0  0  0  0
  187.0770  178.3820  141.9300 N   0  0  0  0  0  2  0  0  0  0  0  0
  188.2490  178.7920  141.2850 N   0  0  0  0  0  2  0  0  0  0  0  0
  188.8180  177.6070  140.6660 C   0  0  0  0  0  2  0  0  0  0  0  0
  189.6420  177.9950  139.5310 N   0  0  0  0  0  2  0  0  0  0  0  0
  189.6680  176.9050  138.6480 N   0  0  0  0  0  0  0  0  0  0  0  0
  190.9230  176.1970  138.8890 C   0  0  0  0  0  2  0  0  0  0  0  0
  190.9840  175.0300  138.0980 O   0  0  0  0  0  0  0  0  0  0  0  0
  189.7430  177.4570  137.3010 C   0  0  0  0  0  2  0  0  0  0  0  0
  191.0350  175.3880  136.7280 C   0  0  1  0  0  3  0  0  0  0  0  0
  189.9020  176.3280  136.2910 C   0  0  0  0  0  2  0  0  0  0  0  0
  192.4320  175.7990  136.2490 C   0  0  0  0  0  2  0  0  0  0  0  0
  193.4470  174.8420  136.6620 N   0  0  0  0  0  1  0  0  0  0  0  0
  1  3  2  0  0  0  0
  2 15  1  1  0  0  0
  3  2  1  0  0  0  0
  4  9  1  6  0  0  0
  4  6  1  0  0  0  0
  5  2  1  0  0  0  0
  6  5  1  0  0  0  0
  7  4  1  0  0  0  0
  7  1  1  0  0  0  0
  8  9  2  0  0  0  0
 10 11  1  0  0  0  0
 10  9  1  0  0  0  0
 12 11  1  0  0  0  0
 13 14  1  0  0  0  0
 14 12  1  0  0  0  0
 15 16  1  0  0  0  0
 16 17  1  0  0  0  0
 18 17  1  1  0  0  0
 18 21  1  0  0  0  0
 19 23  1  0  0  0  0
 19 18  1  0  0  0  0
 20 21  1  0  0  0  0
 20 24  1  1  0  0  0
 22 23  2  0  0  0  0
 23 20  1  0  0  0  0
 24 25  1  0  0  0  0
 26  1  1  0  0  0  0
 26 27  1  0  0  0  0
 28 27  1  0  0  0  0
 29 28  1  0  0  0  0
 30 29  1  0  0  0  0
 31 32  1  0  0  0  0
 31 30  1  0  0  0  0
 33 32  1  0  0  0  0
 34 31  1  0  0  0  0
 35 37  1  1  0  0  0
 35 33  1  0  0  0  0
 36 35  1  0  0  0  0
 36 34  1  0  0  0  0
 37 38  1  0  0  0  0
M  END
>  <MODEL>
9

>  <REMARK>
 VINA RESULT:      -6.6      2.525      7.342
  Name = 
  16 active torsions:
  status: ('A' for Active; 'I' for Inactive)
    1  A    between atoms: C_1  and  C_8
    2  A    between atoms: C_1  and  C_34
    3  A    between atoms: C_2  and  C_21
    4  A    between atoms: N_3  and  N_4
    5  A    between atoms: N_4  and  C_14
    6  A    between atoms: C_6  and  N_7
    7  A    between atoms: N_7  and  C_34
    8  A    between atoms: N_11  and  C_14
    9  A    between atoms: N_11  and  N_28
   10  A    between atoms: C_12  and  C_25
   11  A    between atoms: C_16  and  C_27
   12  A    between atoms: C_18  and  C_26
   13  A    between atoms: C_19  and  C_20
   14  A    between atoms: C_19  and  C_22
   15  A    between atoms: C_21  and  N_28
   16  A    between atoms: C_22  and  N_38
                            x       y       z     vdW  Elec       q    Type
                         _______ _______ _______ _____ _____    ______ ____

>  <TORSDO>
F 16

$$$$
