=
 OpenBabel10232408293D

 45 51  0  0  1  0  0  0  0  0999 V2000
  180.0140  175.7050  138.1920 O   0  0  0  0  0  0  0  0  0  0  0  0
  181.3400  177.1820  136.8150 C   0  0  2  0  0  3  0  0  0  0  0  0
  181.6490  177.0860  135.4860 C   0  0  2  0  0  3  0  0  0  0  0  0
  184.6270  178.0760  140.3830 O   0  0  0  0  0  0  0  0  0  0  0  0
  182.3990  178.0930  141.1660 C   0  0  0  0  0  3  0  0  0  0  0  0
  180.4590  178.0480  139.6540 C   0  0  0  0  0  1  0  0  0  0  0  0
  183.4660  177.5910  136.4620 C   0  0  0  0  0  0  0  0  0  0  0  0
  182.5110  177.5350  137.4620 C   0  0  2  0  0  3  0  0  0  0  0  0
  184.8150  177.7700  136.7460 C   0  0  0  0  0  3  0  0  0  0  0  0
  180.7730  176.1110  134.7650 C   0  0  0  0  0  3  0  0  0  0  0  0
  185.2030  177.9150  138.0870 C   0  0  0  0  0  0  0  0  0  0  0  0
  183.7760  178.1500  141.4030 C   0  0  0  0  0  0  0  0  0  0  0  0
  182.9610  177.2880  135.2460 N   0  0  0  0  0  2  0  0  0  0  0  0
  179.9820  175.5100  135.8430 N   0  0  0  0  0  0  0  0  0  0  0  0
  180.3720  176.1300  137.0640 C   0  0  0  0  0  0  0  0  0  0  0  0
  181.9260  177.9070  139.8690 C   0  0  0  0  0  0  0  0  0  0  0  0
  182.8520  177.7490  138.8160 C   0  0  0  0  0  0  0  0  0  0  0  0
  184.2350  177.9090  139.1210 C   0  0  0  0  0  0  0  0  0  0  0  0
  185.2330  178.6730  145.3740 C   0  0  0  0  0  0  0  0  0  0  0  0
  183.5370  178.9460  143.7110 N   0  0  0  0  0  0  0  0  0  0  0  0
  186.0460  178.0310  144.4210 C   0  0  0  0  0  0  0  0  0  0  0  0
  185.6860  178.8820  146.7930 C   0  0  0  0  0  2  0  0  0  0  0  0
  184.3040  178.3260  142.7690 C   0  0  0  0  0  0  0  0  0  0  0  0
  187.0420  178.2970  147.0820 C   0  0  0  0  0  0  0  0  0  0  0  0
  187.3810  177.5380  144.7840 C   0  0  0  0  0  3  0  0  0  0  0  0
  183.9710  179.1280  144.9870 C   0  0  0  0  0  3  0  0  0  0  0  0
  187.8470  177.6600  146.0270 C   0  0  0  0  0  3  0  0  0  0  0  0
  185.5800  177.8600  143.1160 C   0  0  0  0  0  3  0  0  0  0  0  0
  187.5000  178.3550  148.2530 O   0  0  0  0  0  0  0  0  0  0  0  0
  186.6470  178.1260  138.3930 C   0  0  0  0  0  2  0  0  0  0  0  0
  187.4380  177.0940  137.7420 N   0  0  0  0  0  2  0  0  0  0  0  0
  188.8290  177.5170  137.8020 C   0  0  2  0  0  3  0  0  0  0  0  0
  189.3730  177.7020  136.3920 C   0  0  0  0  0  1  0  0  0  0  0  0
  189.6470  176.5230  138.6400 C   0  0  2  0  0  3  0  0  0  0  0  0
  191.3330  176.9990  140.4200 C   0  0  0  0  0  3  0  0  0  0  0  0
  189.9950  177.0180  140.0130 C   0  0  0  0  0  0  0  0  0  0  0  0
  189.3690  177.9590  142.1620 C   0  0  0  0  0  3  0  0  0  0  0  0
  189.0130  177.5000  140.8910 C   0  0  0  0  0  3  0  0  0  0  0  0
  191.6890  177.4600  141.6900 C   0  0  0  0  0  3  0  0  0  0  0  0
  190.7110  177.9480  142.5710 C   0  0  0  0  0  0  0  0  0  0  0  0
  191.0690  178.4300  143.8770 N   0  0  0  0  0  0  0  0  0  0  0  0
  191.0120  179.7560  144.1510 O   0  0  0  0  0  1  0  0  0  0  0  0
  191.5420  177.5260  144.9160 C   0  0  0  0  0  1  0  0  0  0  0  0
  190.6660  174.4580  137.8910 O   0  0  0  0  0  1  0  0  0  0  0  0
  190.8120  175.8470  137.9090 C   0  0  0  0  0  2  0  0  0  0  0  0
  2 15  1  1  0  0  0
  2  8  1  0  0  0  0
  3 10  1  1  0  0  0
  3  2  1  0  0  0  0
  4 12  1  0  0  0  0
  5 12  2  0  0  0  0
  6 16  1  0  0  0  0
  7  9  2  0  0  0  0
  8  7  1  1  0  0  0
  8 17  1  0  0  0  0
  9 11  1  0  0  0  0
 10 14  2  0  0  0  0
 11 30  1  0  0  0  0
 11 18  2  0  0  0  0
 12 23  1  0  0  0  0
 13  3  1  0  0  0  0
 13  7  1  0  0  0  0
 14 15  1  0  0  0  0
 15  1  2  0  0  0  0
 16  5  1  0  0  0  0
 17 18  1  0  0  0  0
 17 16  2  0  0  0  0
 18  4  1  0  0  0  0
 19 22  1  0  0  0  0
 20 26  2  0  0  0  0
 21 25  1  0  0  0  0
 21 19  2  0  0  0  0
 22 24  1  0  0  0  0
 23 28  2  0  0  0  0
 23 20  1  0  0  0  0
 24 29  2  0  0  0  0
 25 27  2  0  0  0  0
 26 19  1  0  0  0  0
 27 24  1  0  0  0  0
 28 21  1  0  0  0  0
 31 32  1  0  0  0  0
 31 30  1  0  0  0  0
 32 33  1  6  0  0  0
 32 34  1  0  0  0  0
 34 45  1  6  0  0  0
 34 36  1  0  0  0  0
 35 39  1  0  0  0  0
 36 35  2  0  0  0  0
 36 38  1  0  0  0  0
 37 40  1  0  0  0  0
 38 37  2  0  0  0  0
 39 40  2  0  0  0  0
 40 41  1  0  0  0  0
 41 42  1  0  0  0  0
 41 43  1  0  0  0  0
 44 45  1  0  0  0  0
M  END
>  <MODEL>
1

>  <REMARK>
 VINA RESULT:      -9.6      0.000      0.000
  Name = 
  8 active torsions:
  status: ('A' for Active; 'I' for Inactive)
    1  A    between atoms: C_1  and  C_12
    2  A    between atoms: C_1  and  N_30
    3  A    between atoms: C_9  and  C_12
    4  A    between atoms: C_12  and  C_31
    5  A    between atoms: N_16  and  C_43
    6  A    between atoms: C_17  and  C_28
    7  A    between atoms: C_24  and  C_33
    8  A    between atoms: N_30  and  C_33
                            x       y       z     vdW  Elec       q    Type
                         _______ _______ _______ _____ _____    ______ ____

>  <TORSDO>
F 8

$$$$
=
 OpenBabel10232408293D

 45 51  0  0  1  0  0  0  0  0999 V2000
  180.9770  177.5700  142.2320 O   0  0  0  0  0  0  0  0  0  0  0  0
  182.0630  179.0230  140.6350 C   0  0  2  0  0  3  0  0  0  0  0  0
  181.7880  179.2140  139.3090 C   0  0  2  0  0  3  0  0  0  0  0  0
  186.5690  178.1850  142.4580 O   0  0  0  0  0  0  0  0  0  0  0  0
  184.9430  178.4930  144.1430 C   0  0  0  0  0  3  0  0  0  0  0  0
  182.6640  179.2840  143.6610 C   0  0  0  0  0  1  0  0  0  0  0  0
  183.8990  179.0240  139.4370 C   0  0  0  0  0  0  0  0  0  0  0  0
  183.4390  178.9210  140.7380 C   0  0  2  0  0  3  0  0  0  0  0  0
  185.2350  178.8160  139.1140 C   0  0  0  0  0  3  0  0  0  0  0  0
  180.4440  178.6860  138.9210 C   0  0  0  0  0  3  0  0  0  0  0  0
  186.1340  178.5120  140.1480 C   0  0  0  0  0  0  0  0  0  0  0  0
  186.2480  178.1760  143.7490 C   0  0  0  0  0  0  0  0  0  0  0  0
  182.8980  179.1740  138.5420 N   0  0  0  0  0  2  0  0  0  0  0  0
  179.9830  178.0140  140.1400 N   0  0  0  0  0  0  0  0  0  0  0  0
  180.9870  178.1870  141.1360 C   0  0  0  0  0  0  0  0  0  0  0  0
  183.9750  178.7660  143.1790 C   0  0  0  0  0  0  0  0  0  0  0  0
  184.3230  178.6900  141.8140 C   0  0  0  0  0  0  0  0  0  0  0  0
  185.6900  178.4490  141.4920 C   0  0  0  0  0  0  0  0  0  0  0  0
  189.1970  177.2640  146.6850 C   0  0  0  0  0  0  0  0  0  0  0  0
  186.9810  177.9190  146.0740 N   0  0  0  0  0  0  0  0  0  0  0  0
  189.5400  177.1990  145.3220 C   0  0  0  0  0  0  0  0  0  0  0  0
  190.1900  176.9470  147.7700 C   0  0  0  0  0  2  0  0  0  0  0  0
  187.2860  177.8630  144.7470 C   0  0  0  0  0  0  0  0  0  0  0  0
  191.5330  176.5140  147.2460 C   0  0  0  0  0  0  0  0  0  0  0  0
  190.8960  176.8170  144.9060 C   0  0  0  0  0  3  0  0  0  0  0  0
  187.8980  177.6330  147.0380 C   0  0  0  0  0  3  0  0  0  0  0  0
  191.8270  176.4950  145.8040 C   0  0  0  0  0  3  0  0  0  0  0  0
  188.5820  177.5010  144.3530 C   0  0  0  0  0  3  0  0  0  0  0  0
  192.4270  176.1630  148.0600 O   0  0  0  0  0  0  0  0  0  0  0  0
  187.5710  178.3060  139.8070 C   0  0  0  0  0  2  0  0  0  0  0  0
  187.7260  178.2550  138.3620 N   0  0  0  0  0  2  0  0  0  0  0  0
  188.2030  176.9210  138.0280 C   0  0  2  0  0  3  0  0  0  0  0  0
  189.7240  176.8940  138.0670 C   0  0  0  0  0  1  0  0  0  0  0  0
  187.6240  176.4780  136.6750 C   0  0  2  0  0  3  0  0  0  0  0  0
  185.1510  176.5530  136.3340 C   0  0  0  0  0  3  0  0  0  0  0  0
  186.2710  175.8370  136.7670 C   0  0  0  0  0  0  0  0  0  0  0  0
  184.8330  173.9660  137.3420 C   0  0  0  0  0  3  0  0  0  0  0  0
  186.1060  174.5380  137.2740 C   0  0  0  0  0  3  0  0  0  0  0  0
  183.8790  175.9810  136.4000 C   0  0  0  0  0  3  0  0  0  0  0  0
  183.7090  174.6800  136.9030 C   0  0  0  0  0  0  0  0  0  0  0  0
  182.4050  174.0800  136.9690 N   0  0  0  0  0  0  0  0  0  0  0  0
  182.1160  172.9940  136.2110 O   0  0  0  0  0  1  0  0  0  0  0  0
  181.3530  174.6420  137.8050 C   0  0  0  0  0  1  0  0  0  0  0  0
  188.9620  176.5310  134.6580 O   0  0  0  0  0  1  0  0  0  0  0  0
  188.6000  175.7410  135.7510 C   0  0  0  0  0  2  0  0  0  0  0  0
  2  8  1  0  0  0  0
  2 15  1  6  0  0  0
  3 10  1  6  0  0  0
  3  2  1  0  0  0  0
  4 12  1  0  0  0  0
  8  7  1  6  0  0  0
  8 17  1  0  0  0  0
  9  7  2  0  0  0  0
  9 11  1  0  0  0  0
 10 14  2  0  0  0  0
 11 18  2  0  0  0  0
 12  5  2  0  0  0  0
 12 23  1  0  0  0  0
 13  3  1  0  0  0  0
 13  7  1  0  0  0  0
 14 15  1  0  0  0  0
 15  1  2  0  0  0  0
 16  6  1  0  0  0  0
 16  5  1  0  0  0  0
 17 16  2  0  0  0  0
 18 17  1  0  0  0  0
 18  4  1  0  0  0  0
 19 26  1  0  0  0  0
 19 22  1  0  0  0  0
 20 26  2  0  0  0  0
 21 19  2  0  0  0  0
 23 20  1  0  0  0  0
 24 22  1  0  0  0  0
 24 29  2  0  0  0  0
 25 21  1  0  0  0  0
 25 27  2  0  0  0  0
 27 24  1  0  0  0  0
 28 23  2  0  0  0  0
 28 21  1  0  0  0  0
 30 11  1  0  0  0  0
 31 30  1  0  0  0  0
 32 33  1  6  0  0  0
 32 31  1  0  0  0  0
 34 45  1  1  0  0  0
 34 36  1  0  0  0  0
 34 32  1  0  0  0  0
 35 39  2  0  0  0  0
 35 36  1  0  0  0  0
 36 38  2  0  0  0  0
 38 37  1  0  0  0  0
 39 40  1  0  0  0  0
 40 41  1  0  0  0  0
 40 37  2  0  0  0  0
 41 43  1  0  0  0  0
 42 41  1  0  0  0  0
 44 45  1  0  0  0  0
M  END
>  <MODEL>
2

>  <REMARK>
 VINA RESULT:      -9.5      2.480      5.515
  Name = 
  8 active torsions:
  status: ('A' for Active; 'I' for Inactive)
    1  A    between atoms: C_1  and  C_12
    2  A    between atoms: C_1  and  N_30
    3  A    between atoms: C_9  and  C_12
    4  A    between atoms: C_12  and  C_31
    5  A    between atoms: N_16  and  C_43
    6  A    between atoms: C_17  and  C_28
    7  A    between atoms: C_24  and  C_33
    8  A    between atoms: N_30  and  C_33
                            x       y       z     vdW  Elec       q    Type
                         _______ _______ _______ _____ _____    ______ ____

>  <TORSDO>
F 8

$$$$
=
 OpenBabel10232408293D

 45 51  0  0  1  0  0  0  0  0999 V2000
  191.7940  174.0290  135.0930 O   0  0  0  0  0  0  0  0  0  0  0  0
  192.7950  175.7510  136.4600 C   0  0  2  0  0  3  0  0  0  0  0  0
  193.9830  175.7410  137.1380 C   0  0  2  0  0  3  0  0  0  0  0  0
  188.4860  177.1540  138.4070 O   0  0  0  0  0  0  0  0  0  0  0  0
  188.3510  176.7490  136.0840 C   0  0  0  0  0  3  0  0  0  0  0  0
  190.3400  176.3830  134.6820 C   0  0  0  0  0  1  0  0  0  0  0  0
  192.5580  176.5480  138.4890 C   0  0  0  0  0  0  0  0  0  0  0  0
  191.8600  176.2980  137.3210 C   0  0  2  0  0  3  0  0  0  0  0  0
  191.9170  176.9640  139.6510 C   0  0  0  0  0  3  0  0  0  0  0  0
  194.8880  174.6380  136.6890 C   0  0  0  0  0  3  0  0  0  0  0  0
  190.5270  177.1490  139.6180 C   0  0  0  0  0  0  0  0  0  0  0  0
  187.7440  177.0510  137.3070 C   0  0  0  0  0  0  0  0  0  0  0  0
  193.8560  176.1840  138.4070 N   0  0  0  0  0  2  0  0  0  0  0  0
  194.0530  173.8810  135.7510 N   0  0  0  0  0  0  0  0  0  0  0  0
  192.7920  174.5360  135.6680 C   0  0  0  0  0  0  0  0  0  0  0  0
  189.7230  176.5070  136.0330 C   0  0  0  0  0  0  0  0  0  0  0  0
  190.4720  176.5430  137.2280 C   0  0  0  0  0  0  0  0  0  0  0  0
  189.8010  176.9450  138.4180 C   0  0  0  0  0  0  0  0  0  0  0  0
  183.5350  177.6840  137.5170 C   0  0  0  0  0  0  0  0  0  0  0  0
  185.4490  176.6140  136.5630 N   0  0  0  0  0  0  0  0  0  0  0  0
  184.3830  178.3970  138.3850 C   0  0  0  0  0  0  0  0  0  0  0  0
  182.0410  177.8570  137.5460 C   0  0  0  0  0  2  0  0  0  0  0  0
  186.2920  177.2910  137.3940 C   0  0  0  0  0  0  0  0  0  0  0  0
  181.5670  178.8090  138.6110 C   0  0  0  0  0  0  0  0  0  0  0  0
  183.8310  179.3480  139.3600 C   0  0  0  0  0  3  0  0  0  0  0  0
  184.1000  176.7910  136.6050 C   0  0  0  0  0  3  0  0  0  0  0  0
  182.5160  179.5390  139.4680 C   0  0  0  0  0  3  0  0  0  0  0  0
  185.7630  178.2010  138.3210 C   0  0  0  0  0  3  0  0  0  0  0  0
  180.3320  178.9860  138.7730 O   0  0  0  0  0  0  0  0  0  0  0  0
  189.8390  177.6130  140.8570 C   0  0  0  0  0  2  0  0  0  0  0  0
  190.5530  177.1200  142.0240 N   0  0  0  0  0  2  0  0  0  0  0  0
  190.2510  178.0220  143.1250 C   0  0  2  0  0  3  0  0  0  0  0  0
  191.5320  178.6750  143.6230 C   0  0  0  0  0  1  0  0  0  0  0  0
  189.4870  177.2700  144.2270 C   0  0  2  0  0  3  0  0  0  0  0  0
  187.4910  177.8540  145.6090 C   0  0  0  0  0  3  0  0  0  0  0  0
  188.0400  177.6510  144.3390 C   0  0  0  0  0  0  0  0  0  0  0  0
  185.8890  178.1690  143.3410 C   0  0  0  0  0  3  0  0  0  0  0  0
  187.2320  177.8090  143.2030 C   0  0  0  0  0  3  0  0  0  0  0  0
  186.1480  178.2160  145.7460 C   0  0  0  0  0  3  0  0  0  0  0  0
  185.3350  178.3790  144.6120 C   0  0  0  0  0  0  0  0  0  0  0  0
  183.9550  178.7580  144.7430 N   0  0  0  0  0  0  0  0  0  0  0  0
  183.4530  179.0860  145.9580 O   0  0  0  0  0  1  0  0  0  0  0  0
  183.0560  178.7550  143.5980 C   0  0  0  0  0  1  0  0  0  0  0  0
  191.3080  176.3070  145.5000 O   0  0  0  0  0  1  0  0  0  0  0  0
  190.2090  177.1660  145.5750 C   0  0  0  0  0  2  0  0  0  0  0  0
  1 15  2  0  0  0  0
  2 15  1  1  0  0  0
  2  3  1  0  0  0  0
  2  8  1  0  0  0  0
  3 10  1  1  0  0  0
  3 13  1  0  0  0  0
  4 18  1  0  0  0  0
  5 12  2  0  0  0  0
  6 16  1  0  0  0  0
  7  9  2  0  0  0  0
  8 17  1  1  0  0  0
  8  7  1  0  0  0  0
 11  9  1  0  0  0  0
 11 30  1  0  0  0  0
 12 23  1  0  0  0  0
 12  4  1  0  0  0  0
 13  7  1  0  0  0  0
 14 10  2  0  0  0  0
 15 14  1  0  0  0  0
 16  5  1  0  0  0  0
 16 17  2  0  0  0  0
 17 18  1  0  0  0  0
 18 11  2  0  0  0  0
 19 22  1  0  0  0  0
 19 21  1  0  0  0  0
 20 26  1  0  0  0  0
 20 23  2  0  0  0  0
 21 25  1  0  0  0  0
 22 24  1  0  0  0  0
 23 28  1  0  0  0  0
 24 29  2  0  0  0  0
 24 27  1  0  0  0  0
 25 27  2  0  0  0  0
 26 19  2  0  0  0  0
 28 21  2  0  0  0  0
 30 31  1  0  0  0  0
 31 32  1  0  0  0  0
 32 33  1  1  0  0  0
 32 34  1  0  0  0  0
 34 36  1  0  0  0  0
 34 45  1  1  0  0  0
 35 39  1  0  0  0  0
 36 35  2  0  0  0  0
 37 40  1  0  0  0  0
 38 37  2  0  0  0  0
 38 36  1  0  0  0  0
 40 41  1  0  0  0  0
 40 39  2  0  0  0  0
 41 42  1  0  0  0  0
 43 41  1  0  0  0  0
 44 45  1  0  0  0  0
M  END
>  <MODEL>
3

>  <REMARK>
 VINA RESULT:      -9.5      2.494      8.462
  Name = 
  8 active torsions:
  status: ('A' for Active; 'I' for Inactive)
    1  A    between atoms: C_1  and  C_12
    2  A    between atoms: C_1  and  N_30
    3  A    between atoms: C_9  and  C_12
    4  A    between atoms: C_12  and  C_31
    5  A    between atoms: N_16  and  C_43
    6  A    between atoms: C_17  and  C_28
    7  A    between atoms: C_24  and  C_33
    8  A    between atoms: N_30  and  C_33
                            x       y       z     vdW  Elec       q    Type
                         _______ _______ _______ _____ _____    ______ ____

>  <TORSDO>
F 8

$$$$
=
 OpenBabel10232408293D

 45 51  0  0  1  0  0  0  0  0999 V2000
  181.3170  175.5080  137.8540 O   0  0  0  0  0  0  0  0  0  0  0  0
  182.6760  177.0850  136.6280 C   0  0  2  0  0  3  0  0  0  0  0  0
  183.1200  177.0280  135.3360 C   0  0  2  0  0  3  0  0  0  0  0  0
  185.5300  178.1320  140.5120 O   0  0  0  0  0  0  0  0  0  0  0  0
  183.2390  177.9970  141.0700 C   0  0  0  0  0  3  0  0  0  0  0  0
  181.4650  177.8530  139.3720 C   0  0  0  0  0  1  0  0  0  0  0  0
  184.7960  177.6320  136.4920 C   0  0  0  0  0  0  0  0  0  0  0  0
  183.7530  177.5010  137.3910 C   0  0  2  0  0  3  0  0  0  0  0  0
  186.0960  177.8920  136.9100 C   0  0  0  0  0  3  0  0  0  0  0  0
  182.3850  176.0110  134.5230 C   0  0  0  0  0  3  0  0  0  0  0  0
  186.3390  178.0410  138.2840 C   0  0  0  0  0  0  0  0  0  0  0  0
  184.5800  178.1380  141.4430 C   0  0  0  0  0  0  0  0  0  0  0  0
  184.4350  177.3160  135.2290 N   0  0  0  0  0  2  0  0  0  0  0  0
  181.5310  175.3450  135.5110 N   0  0  0  0  0  0  0  0  0  0  0  0
  181.7580  175.9710  136.7700 C   0  0  0  0  0  0  0  0  0  0  0  0
  182.9100  177.8010  139.7300 C   0  0  0  0  0  0  0  0  0  0  0  0
  183.9440  177.7170  138.7740 C   0  0  0  0  0  0  0  0  0  0  0  0
  185.2760  177.9590  139.2160 C   0  0  0  0  0  0  0  0  0  0  0  0
  185.6010  178.6990  145.5420 C   0  0  0  0  0  0  0  0  0  0  0  0
  184.1010  178.9690  143.7000 N   0  0  0  0  0  0  0  0  0  0  0  0
  186.5040  178.0330  144.6930 C   0  0  0  0  0  0  0  0  0  0  0  0
  185.8990  178.9230  147.0000 C   0  0  0  0  0  2  0  0  0  0  0  0
  184.9570  178.3260  142.8560 C   0  0  0  0  0  0  0  0  0  0  0  0
  187.2070  178.3250  147.4430 C   0  0  0  0  0  0  0  0  0  0  0  0
  187.7850  177.5290  145.2060 C   0  0  0  0  0  3  0  0  0  0  0  0
  184.3950  179.1640  145.0140 C   0  0  0  0  0  3  0  0  0  0  0  0
  188.1130  177.6630  146.4910 C   0  0  0  0  0  3  0  0  0  0  0  0
  186.1810  177.8490  143.3470 C   0  0  0  0  0  3  0  0  0  0  0  0
  187.5350  178.3930  148.6560 O   0  0  0  0  0  0  0  0  0  0  0  0
  187.7300  178.3380  138.7340 C   0  0  0  0  0  2  0  0  0  0  0  0
  188.3430  177.1240  139.2510 N   0  0  0  0  0  2  0  0  0  0  0  0
  188.7560  177.4010  140.6180 C   0  0  2  0  0  3  0  0  0  0  0  0
  188.5260  178.8710  140.9390 C   0  0  0  0  0  1  0  0  0  0  0  0
  190.2120  176.9570  140.8290 C   0  0  2  0  0  3  0  0  0  0  0  0
  191.1300  177.9630  142.9230 C   0  0  0  0  0  3  0  0  0  0  0  0
  190.6160  176.8390  142.2690 C   0  0  0  0  0  0  0  0  0  0  0  0
  190.8670  175.5530  144.3130 C   0  0  0  0  0  3  0  0  0  0  0  0
  190.4870  175.6310  142.9710 C   0  0  0  0  0  3  0  0  0  0  0  0
  191.5080  177.8860  144.2650 C   0  0  0  0  0  3  0  0  0  0  0  0
  191.3760  176.6810  144.9740 C   0  0  0  0  0  0  0  0  0  0  0  0
  191.7560  176.5940  146.3570 N   0  0  0  0  0  0  0  0  0  0  0  0
  191.6000  177.6640  147.1740 O   0  0  0  0  0  1  0  0  0  0  0  0
  192.3560  175.3850  146.9050 C   0  0  0  0  0  1  0  0  0  0  0  0
  192.5160  177.0930  140.0950 O   0  0  0  0  0  1  0  0  0  0  0  0
  191.2500  177.6630  139.9480 C   0  0  0  0  0  2  0  0  0  0  0  0
  2 15  1  1  0  0  0
  2  8  1  0  0  0  0
  3 10  1  1  0  0  0
  3  2  1  0  0  0  0
  4 12  1  0  0  0  0
  5 12  2  0  0  0  0
  6 16  1  0  0  0  0
  7  9  2  0  0  0  0
  8  7  1  1  0  0  0
  8 17  1  0  0  0  0
  9 11  1  0  0  0  0
 10 14  2  0  0  0  0
 11 30  1  0  0  0  0
 11 18  2  0  0  0  0
 12 23  1  0  0  0  0
 13  3  1  0  0  0  0
 13  7  1  0  0  0  0
 14 15  1  0  0  0  0
 15  1  2  0  0  0  0
 16  5  1  0  0  0  0
 17 18  1  0  0  0  0
 17 16  2  0  0  0  0
 18  4  1  0  0  0  0
 19 22  1  0  0  0  0
 20 26  2  0  0  0  0
 21 25  1  0  0  0  0
 21 19  2  0  0  0  0
 22 24  1  0  0  0  0
 23 28  2  0  0  0  0
 23 20  1  0  0  0  0
 24 29  2  0  0  0  0
 25 27  2  0  0  0  0
 26 19  1  0  0  0  0
 27 24  1  0  0  0  0
 28 21  1  0  0  0  0
 30 31  1  0  0  0  0
 31 32  1  0  0  0  0
 32 34  1  0  0  0  0
 32 33  1  6  0  0  0
 34 45  1  6  0  0  0
 34 36  1  0  0  0  0
 35 39  1  0  0  0  0
 36 35  2  0  0  0  0
 36 38  1  0  0  0  0
 37 40  1  0  0  0  0
 38 37  2  0  0  0  0
 39 40  2  0  0  0  0
 40 41  1  0  0  0  0
 41 43  1  0  0  0  0
 41 42  1  0  0  0  0
 45 44  1  0  0  0  0
M  END
>  <MODEL>
4

>  <REMARK>
 VINA RESULT:      -9.1      1.487      1.986
  Name = 
  8 active torsions:
  status: ('A' for Active; 'I' for Inactive)
    1  A    between atoms: C_1  and  C_12
    2  A    between atoms: C_1  and  N_30
    3  A    between atoms: C_9  and  C_12
    4  A    between atoms: C_12  and  C_31
    5  A    between atoms: N_16  and  C_43
    6  A    between atoms: C_17  and  C_28
    7  A    between atoms: C_24  and  C_33
    8  A    between atoms: N_30  and  C_33
                            x       y       z     vdW  Elec       q    Type
                         _______ _______ _______ _____ _____    ______ ____

>  <TORSDO>
F 8

$$$$
=
 OpenBabel10232408293D

 45 51  0  0  1  0  0  0  0  0999 V2000
  188.8370  178.4330  147.5920 O   0  0  0  0  0  0  0  0  0  0  0  0
  189.8320  176.7830  146.1340 C   0  0  2  0  0  3  0  0  0  0  0  0
  191.1440  176.4240  145.9980 C   0  0  2  0  0  3  0  0  0  0  0  0
  186.8210  177.8290  142.3700 O   0  0  0  0  0  0  0  0  0  0  0  0
  185.6970  177.7470  144.4450 C   0  0  0  0  0  3  0  0  0  0  0  0
  186.7600  176.9100  146.5000 C   0  0  0  0  0  1  0  0  0  0  0  0
  190.3940  176.6190  144.0210 C   0  0  0  0  0  0  0  0  0  0  0  0
  189.3220  176.8910  144.8520 C   0  0  0  0  0  0  0  0  0  0  0  0
  190.3110  176.7780  142.6430 C   0  0  0  0  0  3  0  0  0  0  0  0
  191.9890  176.9030  147.1340 C   0  0  0  0  0  3  0  0  0  0  0  0
  189.0950  177.2100  142.0910 C   0  0  0  0  0  0  0  0  0  0  0  0
  185.7040  178.0050  143.0700 C   0  0  0  0  0  0  0  0  0  0  0  0
  191.5300  176.3600  144.7060 N   0  0  0  0  0  2  0  0  0  0  0  0
  191.0630  177.7280  147.9160 N   0  0  0  0  0  0  0  0  0  0  0  0
  189.7930  177.6810  147.2740 C   0  0  0  0  0  0  0  0  0  0  0  0
  186.8720  177.3560  145.0830 C   0  0  0  0  0  0  0  0  0  0  0  0
  188.0620  177.2550  144.3300 C   0  0  0  0  0  0  0  0  0  0  0  0
  187.9720  177.4460  142.9210 C   0  0  2  0  0  3  0  0  0  0  0  0
  182.1310  179.2700  141.1240 C   0  0  0  0  0  0  0  0  0  0  0  0
  183.2980  178.4780  143.0530 N   0  0  0  0  0  0  0  0  0  0  0  0
  183.3360  179.2400  140.3980 C   0  0  0  0  0  0  0  0  0  0  0  0
  180.8370  179.7140  140.4960 C   0  0  0  0  0  2  0  0  0  0  0  0
  184.4790  178.4400  142.3740 C   0  0  0  0  0  0  0  0  0  0  0  0
  180.9850  180.1580  139.0660 C   0  0  0  0  0  0  0  0  0  0  0  0
  183.3730  179.6430  138.9860 C   0  0  0  0  0  3  0  0  0  0  0  0
  182.1390  178.8780  142.4630 C   0  0  0  0  0  3  0  0  0  0  0  0
  182.2760  180.0740  138.3630 C   0  0  0  0  0  3  0  0  0  0  0  0
  184.5110  178.8220  141.0250 C   0  0  0  0  0  3  0  0  0  0  0  0
  179.9820  180.6100  138.4550 O   0  0  0  0  0  0  0  0  0  0  0  0
  188.9970  177.3640  140.6110 C   0  0  0  0  0  2  0  0  0  0  0  0
  190.1950  176.8260  139.9850 N   0  0  0  0  0  2  0  0  0  0  0  0
  189.8500  176.4950  138.6110 C   0  0  2  0  0  3  0  0  0  0  0  0
  191.1060  176.4910  137.7510 C   0  0  0  0  0  1  0  0  0  0  0  0
  188.7650  177.4530  138.0950 C   0  0  2  0  0  3  0  0  0  0  0  0
  186.3170  177.5200  137.6080 C   0  0  0  0  0  3  0  0  0  0  0  0
  187.4970  176.7730  137.6700 C   0  0  0  0  0  0  0  0  0  0  0  0
  186.2750  174.8070  136.9360 C   0  0  0  0  0  3  0  0  0  0  0  0
  187.4710  175.4110  137.3330 C   0  0  0  0  0  3  0  0  0  0  0  0
  185.1210  176.9170  137.2090 C   0  0  0  0  0  3  0  0  0  0  0  0
  185.0910  175.5550  136.8670 C   0  0  0  0  0  0  0  0  0  0  0  0
  183.8670  174.9280  136.4490 N   0  0  0  0  0  0  0  0  0  0  0  0
  183.5380  173.7000  136.9190 O   0  0  0  0  0  1  0  0  0  0  0  0
  182.9780  175.5630  135.4860 C   0  0  0  0  0  1  0  0  0  0  0  0
  188.9560  179.8130  137.5890 O   0  0  0  0  0  1  0  0  0  0  0  0
  189.2500  178.5320  137.1190 C   0  0  0  0  0  2  0  0  0  0  0  0
  2  8  1  6  0  0  0
  2 15  1  0  0  0  0
  3  2  1  0  0  0  0
  3 10  1  1  0  0  0
  4 18  1  0  0  0  0
  4 12  1  0  0  0  0
  5 16  1  0  0  0  0
  7 13  1  0  0  0  0
  7  8  2  0  0  0  0
  9  7  1  0  0  0  0
 10 14  2  0  0  0  0
 11  9  2  0  0  0  0
 12  5  2  0  0  0  0
 13  3  1  0  0  0  0
 15  1  2  0  0  0  0
 15 14  1  0  0  0  0
 16  6  1  0  0  0  0
 17  8  1  0  0  0  0
 17 16  2  0  0  0  0
 18 11  1  6  0  0  0
 18 17  1  0  0  0  0
 19 26  1  0  0  0  0
 21 28  1  0  0  0  0
 21 19  2  0  0  0  0
 22 19  1  0  0  0  0
 23 20  1  0  0  0  0
 23 12  1  0  0  0  0
 24 22  1  0  0  0  0
 25 21  1  0  0  0  0
 26 20  2  0  0  0  0
 27 25  2  0  0  0  0
 27 24  1  0  0  0  0
 28 23  2  0  0  0  0
 29 24  2  0  0  0  0
 30 11  1  0  0  0  0
 31 30  1  0  0  0  0
 32 33  1  6  0  0  0
 32 31  1  0  0  0  0
 34 45  1  6  0  0  0
 34 32  1  0  0  0  0
 35 36  1  0  0  0  0
 36 34  1  0  0  0  0
 37 38  1  0  0  0  0
 38 36  2  0  0  0  0
 39 35  2  0  0  0  0
 40 37  2  0  0  0  0
 40 39  1  0  0  0  0
 41 40  1  0  0  0  0
 41 42  1  0  0  0  0
 43 41  1  0  0  0  0
 45 44  1  0  0  0  0
M  END
>  <MODEL>
5

>  <REMARK>
 VINA RESULT:      -9.0      2.204      8.579
  Name = 
  8 active torsions:
  status: ('A' for Active; 'I' for Inactive)
    1  A    between atoms: C_1  and  C_12
    2  A    between atoms: C_1  and  N_30
    3  A    between atoms: C_9  and  C_12
    4  A    between atoms: C_12  and  C_31
    5  A    between atoms: N_16  and  C_43
    6  A    between atoms: C_17  and  C_28
    7  A    between atoms: C_24  and  C_33
    8  A    between atoms: N_30  and  C_33
                            x       y       z     vdW  Elec       q    Type
                         _______ _______ _______ _____ _____    ______ ____

>  <TORSDO>
F 8

$$$$
=
 OpenBabel10232408293D

 45 51  0  0  1  0  0  0  0  0999 V2000
  190.4410  175.1520  136.0580 O   0  0  0  0  0  0  0  0  0  0  0  0
  191.9040  176.6010  137.3230 C   0  0  2  0  0  3  0  0  0  0  0  0
  193.2180  176.4280  137.6600 C   0  0  2  0  0  3  0  0  0  0  0  0
  188.3660  177.9360  140.4900 O   0  0  0  0  0  0  0  0  0  0  0  0
  187.6160  177.8800  138.2500 C   0  0  0  0  0  3  0  0  0  0  0  0
  189.1480  177.6160  136.3430 C   0  0  0  0  0  1  0  0  0  0  0  0
  192.2570  177.1050  139.4280 C   0  0  0  0  0  0  0  0  0  0  0  0
  191.2680  177.0660  138.4600 C   0  0  2  0  0  3  0  0  0  0  0  0
  191.9680  177.3830  140.7590 C   0  0  0  0  0  3  0  0  0  0  0  0
  193.8780  175.3550  136.8540 C   0  0  0  0  0  3  0  0  0  0  0  0
  190.6360  177.6450  141.1150 C   0  0  0  0  0  0  0  0  0  0  0  0
  187.3650  178.0340  139.6180 C   0  0  0  0  0  0  0  0  0  0  0  0
  193.4550  176.6880  138.9630 N   0  0  0  0  0  2  0  0  0  0  0  0
  192.7710  174.7880  136.0790 N   0  0  0  0  0  0  0  0  0  0  0  0
  191.5920  175.5160  136.4110 C   0  0  0  0  0  0  0  0  0  0  0  0
  188.9030  177.5750  137.8120 C   0  0  0  0  0  0  0  0  0  0  0  0
  189.9290  177.3960  138.7640 C   0  0  0  0  0  0  0  0  0  0  0  0
  189.6180  177.6570  140.1300 C   0  0  0  0  0  0  0  0  0  0  0  0
  183.4180  178.8950  140.9740 C   0  0  0  0  0  0  0  0  0  0  0  0
  185.0020  178.5500  139.2170 N   0  0  0  0  0  0  0  0  0  0  0  0
  184.4390  178.6810  141.9190 C   0  0  0  0  0  0  0  0  0  0  0  0
  182.0030  179.1960  141.3880 C   0  0  0  0  0  2  0  0  0  0  0  0
  186.0090  178.3370  140.1110 C   0  0  0  0  0  0  0  0  0  0  0  0
  181.8000  179.1890  142.8790 C   0  0  0  0  0  0  0  0  0  0  0  0
  184.1550  178.7460  143.3590 C   0  0  0  0  0  3  0  0  0  0  0  0
  183.7300  178.8260  139.6150 C   0  0  0  0  0  3  0  0  0  0  0  0
  182.9230  178.9810  143.8080 C   0  0  0  0  0  3  0  0  0  0  0  0
  185.7360  178.4030  141.4850 C   0  0  0  0  0  3  0  0  0  0  0  0
  180.6440  179.3660  143.3440 O   0  0  0  0  0  0  0  0  0  0  0  0
  190.3260  177.9600  142.5390 C   0  0  0  0  0  2  0  0  0  0  0  0
  191.3430  177.3760  143.3990 N   0  0  0  0  0  2  0  0  0  0  0  0
  190.8100  176.1180  143.9000 C   0  0  2  0  0  3  0  0  0  0  0  0
  189.5370  175.7610  143.1460 C   0  0  0  0  0  1  0  0  0  0  0  0
  190.6090  176.2000  145.4220 C   0  0  2  0  0  3  0  0  0  0  0  0
  189.2030  177.2780  147.1820 C   0  0  0  0  0  3  0  0  0  0  0  0
  189.3630  176.9250  145.8380 C   0  0  0  0  0  0  0  0  0  0  0  0
  187.2150  177.9360  145.3310 C   0  0  0  0  0  3  0  0  0  0  0  0
  188.3620  177.2560  144.9130 C   0  0  0  0  0  3  0  0  0  0  0  0
  188.0570  177.9600  147.5990 C   0  0  0  0  0  3  0  0  0  0  0  0
  187.0540  178.2970  146.6760 C   0  0  0  0  0  0  0  0  0  0  0  0
  185.8750  179.0040  147.0960 N   0  0  0  0  0  0  0  0  0  0  0  0
  185.9820  180.2310  147.6600 O   0  0  0  0  0  1  0  0  0  0  0  0
  184.5500  178.4110  146.9710 C   0  0  0  0  0  1  0  0  0  0  0  0
  192.6020  175.4610  146.5820 O   0  0  0  0  0  1  0  0  0  0  0  0
  191.8530  176.5860  146.2300 C   0  0  0  0  0  2  0  0  0  0  0  0
  1 15  2  0  0  0  0
  2 15  1  1  0  0  0
  2  3  1  0  0  0  0
  2  8  1  0  0  0  0
  3 10  1  1  0  0  0
  3 13  1  0  0  0  0
  5 12  2  0  0  0  0
  6 16  1  0  0  0  0
  7  9  2  0  0  0  0
  8 17  1  1  0  0  0
  8  7  1  0  0  0  0
  9 11  1  0  0  0  0
 11 30  1  0  0  0  0
 12 23  1  0  0  0  0
 12  4  1  0  0  0  0
 13  7  1  0  0  0  0
 14 15  1  0  0  0  0
 14 10  2  0  0  0  0
 16  5  1  0  0  0  0
 16 17  2  0  0  0  0
 17 18  1  0  0  0  0
 18  4  1  0  0  0  0
 18 11  2  0  0  0  0
 19 22  1  0  0  0  0
 19 21  1  0  0  0  0
 20 26  1  0  0  0  0
 20 23  2  0  0  0  0
 21 25  1  0  0  0  0
 22 24  1  0  0  0  0
 23 28  1  0  0  0  0
 24 29  2  0  0  0  0
 24 27  1  0  0  0  0
 25 27  2  0  0  0  0
 26 19  2  0  0  0  0
 28 21  2  0  0  0  0
 30 31  1  0  0  0  0
 31 32  1  0  0  0  0
 32 33  1  6  0  0  0
 32 34  1  0  0  0  0
 34 36  1  0  0  0  0
 34 45  1  1  0  0  0
 35 39  1  0  0  0  0
 36 35  2  0  0  0  0
 37 40  1  0  0  0  0
 38 37  2  0  0  0  0
 38 36  1  0  0  0  0
 40 41  1  0  0  0  0
 40 39  2  0  0  0  0
 41 42  1  0  0  0  0
 43 41  1  0  0  0  0
 45 44  1  0  0  0  0
M  END
>  <MODEL>
6

>  <REMARK>
 VINA RESULT:      -8.8      2.852      7.465
  Name = 
  8 active torsions:
  status: ('A' for Active; 'I' for Inactive)
    1  A    between atoms: C_1  and  C_12
    2  A    between atoms: C_1  and  N_30
    3  A    between atoms: C_9  and  C_12
    4  A    between atoms: C_12  and  C_31
    5  A    between atoms: N_16  and  C_43
    6  A    between atoms: C_17  and  C_28
    7  A    between atoms: C_24  and  C_33
    8  A    between atoms: N_30  and  C_33
                            x       y       z     vdW  Elec       q    Type
                         _______ _______ _______ _____ _____    ______ ____

>  <TORSDO>
F 8

$$$$
=
 OpenBabel10232408293D

 45 51  0  0  1  0  0  0  0  0999 V2000
  188.3650  178.8050  148.1510 O   0  0  0  0  0  0  0  0  0  0  0  0
  189.4370  177.0750  146.8490 C   0  0  2  0  0  3  0  0  0  0  0  0
  190.7540  176.7070  146.8100 C   0  0  2  0  0  3  0  0  0  0  0  0
  186.6580  177.9130  142.8610 O   0  0  0  0  0  0  0  0  0  0  0  0
  185.4130  177.9480  144.8670 C   0  0  0  0  0  3  0  0  0  0  0  0
  186.3500  177.2260  147.0250 C   0  0  0  0  0  1  0  0  0  0  0  0
  190.1220  176.7940  144.7840 C   0  0  0  0  0  0  0  0  0  0  0  0
  189.0040  177.1120  145.5350 C   0  0  0  0  0  0  0  0  0  0  0  0
  190.1210  176.8760  143.3970 C   0  0  0  0  0  3  0  0  0  0  0  0
  191.5330  177.2490  147.9660 C   0  0  0  0  0  3  0  0  0  0  0  0
  188.9420  177.2780  142.7510 C   0  0  0  0  0  0  0  0  0  0  0  0
  185.5020  178.1290  143.4830 C   0  0  0  0  0  0  0  0  0  0  0  0
  191.2140  176.5720  145.5480 N   0  0  0  0  0  2  0  0  0  0  0  0
  190.5660  178.1160  148.6450 N   0  0  0  0  0  0  0  0  0  0  0  0
  189.3350  178.0350  147.9320 C   0  0  0  0  0  0  0  0  0  0  0  0
  186.5470  177.5920  145.5940 C   0  0  0  0  0  0  0  0  0  0  0  0
  187.7780  177.4480  144.9200 C   0  0  0  0  0  0  0  0  0  0  0  0
  187.7730  177.5610  143.4990 C   0  0  2  0  0  3  0  0  0  0  0  0
  182.0560  179.2930  141.2620 C   0  0  0  0  0  0  0  0  0  0  0  0
  183.1150  178.6650  143.3110 N   0  0  0  0  0  0  0  0  0  0  0  0
  183.2900  179.1560  140.5980 C   0  0  0  0  0  0  0  0  0  0  0  0
  180.8050  179.7070  140.5370 C   0  0  0  0  0  2  0  0  0  0  0  0
  184.3220  178.5270  142.6930 C   0  0  0  0  0  0  0  0  0  0  0  0
  181.0270  180.0010  139.0770 C   0  0  0  0  0  0  0  0  0  0  0  0
  183.3980  179.4140  139.1560 C   0  0  0  0  0  3  0  0  0  0  0  0
  181.9960  179.0360  142.6330 C   0  0  0  0  0  3  0  0  0  0  0  0
  182.3430  179.8110  138.4450 C   0  0  0  0  0  3  0  0  0  0  0  0
  184.4230  178.7700  141.3160 C   0  0  0  0  0  3  0  0  0  0  0  0
  180.0660  180.4170  138.3800 O   0  0  0  0  0  0  0  0  0  0  0  0
  188.9320  177.3500  141.2620 C   0  0  0  0  0  2  0  0  0  0  0  0
  190.1190  176.6950  140.7350 N   0  0  0  0  0  2  0  0  0  0  0  0
  190.3100  177.1800  139.3770 C   0  0  2  0  0  3  0  0  0  0  0  0
  189.4090  178.3810  139.1270 C   0  0  0  0  0  1  0  0  0  0  0  0
  190.0880  176.0380  138.3730 C   0  0  2  0  0  3  0  0  0  0  0  0
  191.2850  174.2460  137.1120 C   0  0  0  0  0  3  0  0  0  0  0  0
  191.3530  175.4450  137.8280 C   0  0  0  0  0  0  0  0  0  0  0  0
  193.7580  175.4920  137.4930 C   0  0  0  0  0  3  0  0  0  0  0  0
  192.5970  176.0670  138.0180 C   0  0  0  0  0  3  0  0  0  0  0  0
  192.4460  173.6720  136.5860 C   0  0  0  0  0  3  0  0  0  0  0  0
  193.6920  174.2920  136.7690 C   0  0  0  0  0  0  0  0  0  0  0  0
  194.8900  173.7130  136.2260 N   0  0  0  0  0  0  0  0  0  0  0  0
  194.9500  172.3820  135.9790 O   0  0  0  0  0  1  0  0  0  0  0  0
  196.0760  174.5200  135.9730 C   0  0  0  0  0  1  0  0  0  0  0  0
  188.0130  175.3220  137.3500 O   0  0  0  0  0  1  0  0  0  0  0  0
  189.0130  176.2960  137.3100 C   0  0  0  0  0  2  0  0  0  0  0  0
  2  8  1  6  0  0  0
  2 15  1  0  0  0  0
  3  2  1  0  0  0  0
  3 10  1  6  0  0  0
  4 12  1  0  0  0  0
  4 18  1  0  0  0  0
  5 16  1  0  0  0  0
  7  8  2  0  0  0  0
  7 13  1  0  0  0  0
  9  7  1  0  0  0  0
 10 14  2  0  0  0  0
 11  9  2  0  0  0  0
 12  5  2  0  0  0  0
 13  3  1  0  0  0  0
 15  1  2  0  0  0  0
 15 14  1  0  0  0  0
 16  6  1  0  0  0  0
 17  8  1  0  0  0  0
 17 16  2  0  0  0  0
 18 11  1  6  0  0  0
 18 17  1  0  0  0  0
 19 26  1  0  0  0  0
 21 19  2  0  0  0  0
 21 28  1  0  0  0  0
 22 19  1  0  0  0  0
 23 20  1  0  0  0  0
 23 12  1  0  0  0  0
 24 22  1  0  0  0  0
 25 21  1  0  0  0  0
 26 20  2  0  0  0  0
 27 24  1  0  0  0  0
 27 25  2  0  0  0  0
 28 23  2  0  0  0  0
 29 24  2  0  0  0  0
 30 11  1  0  0  0  0
 31 30  1  0  0  0  0
 32 33  1  6  0  0  0
 32 31  1  0  0  0  0
 34 45  1  6  0  0  0
 34 32  1  0  0  0  0
 35 36  1  0  0  0  0
 36 38  2  0  0  0  0
 36 34  1  0  0  0  0
 37 38  1  0  0  0  0
 39 40  1  0  0  0  0
 39 35  2  0  0  0  0
 40 37  2  0  0  0  0
 41 40  1  0  0  0  0
 42 41  1  0  0  0  0
 43 41  1  0  0  0  0
 45 44  1  0  0  0  0
M  END
>  <MODEL>
7

>  <REMARK>
 VINA RESULT:      -8.7      2.968      8.487
  Name = 
  8 active torsions:
  status: ('A' for Active; 'I' for Inactive)
    1  A    between atoms: C_1  and  C_12
    2  A    between atoms: C_1  and  N_30
    3  A    between atoms: C_9  and  C_12
    4  A    between atoms: C_12  and  C_31
    5  A    between atoms: N_16  and  C_43
    6  A    between atoms: C_17  and  C_28
    7  A    between atoms: C_24  and  C_33
    8  A    between atoms: N_30  and  C_33
                            x       y       z     vdW  Elec       q    Type
                         _______ _______ _______ _____ _____    ______ ____

>  <TORSDO>
F 8

$$$$
=
 OpenBabel10232408293D

 45 51  0  0  1  0  0  0  0  0999 V2000
  190.0360  176.6070  146.6900 O   0  0  0  0  0  0  0  0  0  0  0  0
  188.1980  178.1730  146.5940 C   0  0  2  0  0  3  0  0  0  0  0  0
  187.1880  178.3810  147.4920 C   0  0  2  0  0  3  0  0  0  0  0  0
  187.5360  177.5900  141.7410 O   0  0  0  0  0  0  0  0  0  0  0  0
  189.8160  177.7410  142.3420 C   0  0  0  0  0  3  0  0  0  0  0  0
  190.5540  178.3900  144.5980 C   0  0  0  0  0  1  0  0  0  0  0  0
  186.2570  178.3300  145.5850 C   0  0  0  0  0  0  0  0  0  0  0  0
  187.6090  178.1610  145.3420 C   0  0  0  0  0  0  0  0  0  0  0  0
  185.3120  178.2210  144.5710 C   0  0  0  0  0  3  0  0  0  0  0  0
  187.4760  177.7740  148.8280 C   0  0  0  0  0  3  0  0  0  0  0  0
  185.7560  177.9490  143.2680 C   0  0  0  0  0  0  0  0  0  0  0  0
  188.8170  177.5240  141.3870 C   0  0  0  0  0  0  0  0  0  0  0  0
  185.9760  178.4370  146.9020 N   0  0  0  0  0  2  0  0  0  0  0  0
  188.7250  177.0410  148.6010 N   0  0  0  0  0  0  0  0  0  0  0  0
  189.1110  177.2530  147.2460 C   0  0  0  0  0  0  0  0  0  0  0  0
  189.4640  177.9750  143.6700 C   0  0  0  0  0  0  0  0  0  0  0  0
  188.1010  177.9590  144.0340 C   0  0  0  0  0  0  0  0  0  0  0  0
  187.1390  177.8210  142.9920 C   0  0  2  0  0  3  0  0  0  0  0  0
  189.7520  176.7790  137.2970 C   0  0  0  0  0  0  0  0  0  0  0  0
  188.2210  177.4420  139.0090 N   0  0  0  0  0  0  0  0  0  0  0  0
  190.7410  176.5750  138.2770 C   0  0  0  0  0  0  0  0  0  0  0  0
  190.0200  176.5410  135.8360 C   0  0  0  0  0  2  0  0  0  0  0  0
  189.1610  177.2530  139.9790 C   0  0  0  0  0  0  0  0  0  0  0  0
  191.4380  176.1250  135.5460 C   0  0  0  0  0  0  0  0  0  0  0  0
  192.0850  176.1150  137.9030 C   0  0  0  0  0  3  0  0  0  0  0  0
  188.4870  177.2140  137.6940 C   0  0  0  0  0  3  0  0  0  0  0  0
  192.4120  175.9070  136.6280 C   0  0  0  0  0  3  0  0  0  0  0  0
  190.4430  176.8110  139.6200 C   0  0  0  0  0  3  0  0  0  0  0  0
  191.7980  175.9570  134.3520 O   0  0  0  0  0  0  0  0  0  0  0  0
  184.7460  177.8500  142.1760 C   0  0  0  0  0  2  0  0  0  0  0  0
  184.8700  178.9980  141.2920 N   0  0  0  0  0  2  0  0  0  0  0  0
  184.1700  178.6690  140.0600 C   0  0  2  0  0  3  0  0  0  0  0  0
  183.9830  179.9250  139.2220 C   0  0  0  0  0  1  0  0  0  0  0  0
  182.8490  177.9520  140.3800 C   0  0  2  0  0  3  0  0  0  0  0  0
  181.3260  176.1210  139.6270 C   0  0  0  0  0  3  0  0  0  0  0  0
  182.5360  176.8050  139.4660 C   0  0  0  0  0  0  0  0  0  0  0  0
  183.1020  175.3360  137.6170 C   0  0  0  0  0  3  0  0  0  0  0  0
  183.4240  176.4060  138.4550 C   0  0  0  0  0  3  0  0  0  0  0  0
  181.0030  175.0530  138.7870 C   0  0  0  0  0  3  0  0  0  0  0  0
  181.8870  174.6530  137.7720 C   0  0  0  0  0  0  0  0  0  0  0  0
  181.5600  173.5590  136.8990 N   0  0  0  0  0  0  0  0  0  0  0  0
  180.5180  173.6640  136.0380 O   0  0  0  0  0  1  0  0  0  0  0  0
  182.2990  172.3050  136.9440 C   0  0  0  0  0  1  0  0  0  0  0  0
  181.3100  178.8650  142.0120 O   0  0  0  0  0  1  0  0  0  0  0  0
  181.6520  178.8700  140.6580 C   0  0  0  0  0  2  0  0  0  0  0  0
  1 15  2  0  0  0  0
  2  8  1  6  0  0  0
  2 15  1  0  0  0  0
  2  3  1  0  0  0  0
  3 10  1  1  0  0  0
  5 16  1  0  0  0  0
  7 13  1  0  0  0  0
  8  7  2  0  0  0  0
  9  7  1  0  0  0  0
 11  9  2  0  0  0  0
 12  4  1  0  0  0  0
 12  5  2  0  0  0  0
 13  3  1  0  0  0  0
 14 10  2  0  0  0  0
 15 14  1  0  0  0  0
 16 17  2  0  0  0  0
 16  6  1  0  0  0  0
 17  8  1  0  0  0  0
 18  4  1  6  0  0  0
 18 11  1  0  0  0  0
 18 17  1  0  0  0  0
 19 26  2  0  0  0  0
 19 21  1  0  0  0  0
 20 23  2  0  0  0  0
 21 28  2  0  0  0  0
 22 19  1  0  0  0  0
 23 12  1  0  0  0  0
 24 22  1  0  0  0  0
 24 27  1  0  0  0  0
 25 21  1  0  0  0  0
 26 20  1  0  0  0  0
 27 25  2  0  0  0  0
 28 23  1  0  0  0  0
 29 24  2  0  0  0  0
 30 11  1  0  0  0  0
 31 30  1  0  0  0  0
 32 33  1  1  0  0  0
 32 34  1  0  0  0  0
 32 31  1  0  0  0  0
 34 45  1  6  0  0  0
 36 35  1  0  0  0  0
 36 34  1  0  0  0  0
 37 40  2  0  0  0  0
 37 38  1  0  0  0  0
 38 36  2  0  0  0  0
 39 35  2  0  0  0  0
 40 39  1  0  0  0  0
 41 43  1  0  0  0  0
 41 40  1  0  0  0  0
 42 41  1  0  0  0  0
 45 44  1  0  0  0  0
M  END
>  <MODEL>
8

>  <REMARK>
 VINA RESULT:      -8.6      2.218      9.927
  Name = 
  8 active torsions:
  status: ('A' for Active; 'I' for Inactive)
    1  A    between atoms: C_1  and  C_12
    2  A    between atoms: C_1  and  N_30
    3  A    between atoms: C_9  and  C_12
    4  A    between atoms: C_12  and  C_31
    5  A    between atoms: N_16  and  C_43
    6  A    between atoms: C_17  and  C_28
    7  A    between atoms: C_24  and  C_33
    8  A    between atoms: N_30  and  C_33
                            x       y       z     vdW  Elec       q    Type
                         _______ _______ _______ _____ _____    ______ ____

>  <TORSDO>
F 8

$$$$
=
 OpenBabel10232408293D

 45 51  0  0  1  0  0  0  0  0999 V2000
  190.0440  176.1580  146.7230 O   0  0  0  0  0  0  0  0  0  0  0  0
  188.4390  177.9550  146.5350 C   0  0  2  0  0  3  0  0  0  0  0  0
  187.3970  178.2770  147.3590 C   0  0  2  0  0  3  0  0  0  0  0  0
  188.0960  177.5610  141.6300 O   0  0  0  0  0  0  0  0  0  0  0  0
  190.3200  177.3980  142.4070 C   0  0  0  0  0  3  0  0  0  0  0  0
  190.9550  177.8990  144.7310 C   0  0  0  0  0  1  0  0  0  0  0  0
  186.6220  178.3870  145.3850 C   0  0  0  0  0  0  0  0  0  0  0  0
  187.9550  178.0460  145.2420 C   0  0  0  0  0  0  0  0  0  0  0  0
  185.7540  178.4240  144.3000 C   0  0  0  0  0  3  0  0  0  0  0  0
  187.4970  177.6110  148.6940 C   0  0  0  0  0  3  0  0  0  0  0  0
  186.2620  178.1220  143.0270 C   0  0  0  0  0  0  0  0  0  0  0  0
  189.3810  177.3330  141.3720 C   0  0  0  0  0  0  0  0  0  0  0  0
  186.2530  178.5040  146.6800 N   0  0  0  0  0  2  0  0  0  0  0  0
  188.6530  176.7230  148.5410 N   0  0  0  0  0  0  0  0  0  0  0  0
  189.1700  176.9090  147.2270 C   0  0  0  0  0  0  0  0  0  0  0  0
  189.8980  177.6500  143.7110 C   0  0  0  0  0  0  0  0  0  0  0  0
  188.5190  177.8070  143.9690 C   0  0  0  0  0  0  0  0  0  0  0  0
  187.6340  177.8170  142.8530 C   0  0  2  0  0  3  0  0  0  0  0  0
  190.5210  176.5330  137.3450 C   0  0  0  0  0  0  0  0  0  0  0  0
  188.8630  177.0230  138.9960 N   0  0  0  0  0  0  0  0  0  0  0  0
  191.5080  176.5510  138.3490 C   0  0  0  0  0  0  0  0  0  0  0  0
  190.8600  176.2640  135.9040 C   0  0  0  0  0  2  0  0  0  0  0  0
  189.7980  177.0480  139.9870 C   0  0  0  0  0  0  0  0  0  0  0  0
  192.3330  176.0760  135.6590 C   0  0  0  0  0  0  0  0  0  0  0  0
  192.9180  176.3040  138.0210 C   0  0  0  0  0  3  0  0  0  0  0  0
  189.1930  176.7720  137.7000 C   0  0  0  0  0  3  0  0  0  0  0  0
  193.3050  176.0840  136.7650 C   0  0  0  0  0  3  0  0  0  0  0  0
  191.1430  176.8070  139.6720 C   0  0  0  0  0  3  0  0  0  0  0  0
  192.7440  175.9060  134.4820 O   0  0  0  0  0  0  0  0  0  0  0  0
  185.3370  178.1780  141.8580 C   0  0  0  0  0  2  0  0  0  0  0  0
  184.0330  177.6620  142.2440 N   0  0  0  0  0  2  0  0  0  0  0  0
  183.0580  178.7040  141.9590 C   0  0  2  0  0  3  0  0  0  0  0  0
  182.4030  179.1650  143.2530 C   0  0  0  0  0  1  0  0  0  0  0  0
  182.0480  178.2080  140.9130 C   0  0  2  0  0  3  0  0  0  0  0  0
  183.4050  178.2580  138.8170 C   0  0  0  0  0  3  0  0  0  0  0  0
  182.6710  177.5080  139.7410 C   0  0  0  0  0  0  0  0  0  0  0  0
  183.1320  175.5000  138.4570 C   0  0  0  0  0  3  0  0  0  0  0  0
  182.5350  176.1240  139.5560 C   0  0  0  0  0  3  0  0  0  0  0  0
  184.0040  177.6330  137.7200 C   0  0  0  0  0  3  0  0  0  0  0  0
  183.8750  176.2480  137.5320 C   0  0  0  0  0  0  0  0  0  0  0  0
  184.4920  175.5960  136.4090 N   0  0  0  0  0  0  0  0  0  0  0  0
  183.9670  174.4480  135.9170 O   0  0  0  0  0  1  0  0  0  0  0  0
  185.7110  176.1170  135.8050 C   0  0  0  0  0  1  0  0  0  0  0  0
  180.1340  178.7060  139.5150 O   0  0  0  0  0  1  0  0  0  0  0  0
  180.9530  179.2100  140.5280 C   0  0  0  0  0  2  0  0  0  0  0  0
  1 15  2  0  0  0  0
  2  8  1  6  0  0  0
  2 15  1  0  0  0  0
  2  3  1  0  0  0  0
  3 10  1  1  0  0  0
  5 16  1  0  0  0  0
  7 13  1  0  0  0  0
  8  7  2  0  0  0  0
  9  7  1  0  0  0  0
 11  9  2  0  0  0  0
 12  4  1  0  0  0  0
 12  5  2  0  0  0  0
 13  3  1  0  0  0  0
 14 10  2  0  0  0  0
 15 14  1  0  0  0  0
 16 17  2  0  0  0  0
 16  6  1  0  0  0  0
 17  8  1  0  0  0  0
 18  4  1  6  0  0  0
 18 11  1  0  0  0  0
 18 17  1  0  0  0  0
 19 26  2  0  0  0  0
 19 21  1  0  0  0  0
 20 23  2  0  0  0  0
 21 28  2  0  0  0  0
 22 19  1  0  0  0  0
 23 12  1  0  0  0  0
 24 22  1  0  0  0  0
 24 27  1  0  0  0  0
 25 21  1  0  0  0  0
 26 20  1  0  0  0  0
 27 25  2  0  0  0  0
 28 23  1  0  0  0  0
 29 24  2  0  0  0  0
 30 31  1  0  0  0  0
 30 11  1  0  0  0  0
 32 31  1  0  0  0  0
 32 33  1  1  0  0  0
 34 45  1  6  0  0  0
 34 32  1  0  0  0  0
 35 36  1  0  0  0  0
 36 34  1  0  0  0  0
 37 38  1  0  0  0  0
 38 36  2  0  0  0  0
 39 35  2  0  0  0  0
 40 39  1  0  0  0  0
 40 37  2  0  0  0  0
 41 40  1  0  0  0  0
 42 41  1  0  0  0  0
 43 41  1  0  0  0  0
 44 45  1  0  0  0  0
M  END
>  <MODEL>
9

>  <REMARK>
 VINA RESULT:      -8.6      2.267      9.834
  Name = 
  8 active torsions:
  status: ('A' for Active; 'I' for Inactive)
    1  A    between atoms: C_1  and  C_12
    2  A    between atoms: C_1  and  N_30
    3  A    between atoms: C_9  and  C_12
    4  A    between atoms: C_12  and  C_31
    5  A    between atoms: N_16  and  C_43
    6  A    between atoms: C_17  and  C_28
    7  A    between atoms: C_24  and  C_33
    8  A    between atoms: N_30  and  C_33
                            x       y       z     vdW  Elec       q    Type
                         _______ _______ _______ _____ _____    ______ ____

>  <TORSDO>
F 8

$$$$
