=
 OpenBabel10232411333D

 27 29  0  0  1  0  0  0  0  0999 V2000
  187.0470  175.6060  137.5770 O   0  0  0  0  0  0  0  0  0  0  0  0
  188.9840  177.2140  139.7820 C   0  0  1  0  0  3  0  0  0  0  0  0
  190.5690  175.9590  138.1500 C   0  0  0  0  0  0  0  0  0  0  0  0
  191.3270  176.8200  140.2110 O   0  0  0  0  0  0  0  0  0  0  0  0
  187.8220  177.0770  135.7610 O   0  0  0  0  0  0  0  0  0  0  0  0
  188.1130  176.5760  137.1480 S   0  0  0  0  0  0  0  0  0  0  0  0
  188.1900  178.2000  138.4620 S   0  0  0  0  0  0  0  0  0  0  0  0
  191.7950  175.2030  137.7420 C   0  0  1  0  0  3  0  0  0  0  0  0
  189.6860  175.8170  137.1800 C   0  0  0  0  0  0  0  0  0  0  0  0
  190.3600  176.6950  139.4130 C   0  0  0  0  0  0  0  0  0  0  0  0
  191.3960  174.6690  136.4420 N   0  0  0  0  0  0  0  0  0  0  0  0
  190.2140  175.0220  136.1360 N   0  0  0  0  0  0  0  0  0  0  0  0
  192.9280  176.1190  137.5660 C   0  0  0  0  0  0  0  0  0  0  0  0
  193.8220  176.8410  137.4260 N   0  0  0  0  0  0  0  0  0  0  0  0
  188.8500  177.8890  141.1630 C   0  0  1  0  0  3  0  0  0  0  0  0
  187.6370  178.8140  141.1170 C   0  0  0  0  0  1  0  0  0  0  0  0
  187.6780  176.8610  144.4370 C   0  0  1  0  0  3  0  0  0  0  0  0
  187.4680  177.1330  142.9620 C   0  0  0  0  0  2  0  0  0  0  0  0
  188.7460  176.9310  142.2800 N   0  0  0  0  0  0  0  0  0  0  0  0
  189.1720  176.8750  144.6420 C   0  0  0  0  0  2  0  0  0  0  0  0
  189.7460  177.2480  143.2950 C   0  0  0  0  0  2  0  0  0  0  0  0
  187.0150  177.9130  145.2650 C   0  0  0  0  0  0  0  0  0  0  0  0
  187.5810  178.2990  146.3220 O   0  0  0  0  0  0  0  0  0  0  0  0
  184.7370  178.4290  147.0000 N   0  0  0  0  0  1  0  0  0  0  0  0
  184.7220  178.7040  145.6010 C   0  0  0  0  0  0  0  0  0  0  0  0
  185.7530  178.4640  144.8470 N   0  0  0  0  0  0  0  0  0  0  0  0
  183.5480  179.2550  145.0180 N   0  0  0  0  0  1  0  0  0  0  0  0
  2 15  1  1  0  0  0
  3 10  1  0  0  0  0
  5  6  2  0  0  0  0
  6  9  1  0  0  0  0
  6  1  2  0  0  0  0
  6  7  1  0  0  0  0
  7  2  1  0  0  0  0
  8 13  1  6  0  0  0
  8  3  1  0  0  0  0
  9  3  2  0  0  0  0
 10  2  1  0  0  0  0
 10  4  2  0  0  0  0
 11  8  1  0  0  0  0
 12 11  2  0  0  0  0
 12  9  1  0  0  0  0
 14 13  3  0  0  0  0
 15 16  1  6  0  0  0
 15 19  1  0  0  0  0
 17 20  1  0  0  0  0
 17 22  1  1  0  0  0
 18 17  1  0  0  0  0
 19 18  1  0  0  0  0
 19 21  1  0  0  0  0
 21 20  1  0  0  0  0
 22 23  2  0  0  0  0
 25 24  1  0  0  0  0
 26 22  1  0  0  0  0
 26 25  2  0  0  0  0
 27 25  1  0  0  0  0
M  END
>  <MODEL>
1

>  <REMARK>
 VINA RESULT:      -7.4      0.000      0.000
  Name = 
  5 active torsions:
  status: ('A' for Active; 'I' for Inactive)
    1  A    between atoms: C_2  and  C_6
    2  A    between atoms: C_5  and  C_9
    3  A    between atoms: C_6  and  N_19
    4  A    between atoms: N_7  and  C_9
    5  A    between atoms: C_8  and  C_17
                            x       y       z     vdW  Elec       q    Type
                         _______ _______ _______ _____ _____    ______ ____

>  <TORSDO>
F 5

$$$$
=
 OpenBabel10232411333D

 27 29  0  0  1  0  0  0  0  0999 V2000
  191.3520  175.9630  144.4950 O   0  0  0  0  0  0  0  0  0  0  0  0
  188.8150  177.3890  142.8450 C   0  0  1  0  0  3  0  0  0  0  0  0
  188.1360  177.2960  145.3520 C   0  0  0  0  0  0  0  0  0  0  0  0
  186.5580  177.7000  143.6460 O   0  0  0  0  0  0  0  0  0  0  0  0
  191.8510  178.0830  145.6440 O   0  0  0  0  0  0  0  0  0  0  0  0
  190.8160  177.3170  144.8680 S   0  0  0  0  0  0  0  0  0  0  0  0
  190.3100  178.3970  143.1500 S   0  0  0  0  0  0  0  0  0  0  0  0
  187.2020  177.1590  146.5120 C   0  0  1  0  0  3  0  0  0  0  0  0
  189.3610  177.1620  145.8220 C   0  0  0  0  0  0  0  0  0  0  0  0
  187.7680  177.5020  143.9360 C   0  0  0  0  0  0  0  0  0  0  0  0
  188.1320  176.9390  147.6180 N   0  0  0  0  0  0  0  0  0  0  0  0
  189.3390  176.9460  147.2200 N   0  0  0  0  0  0  0  0  0  0  0  0
  186.4690  178.4120  146.7340 C   0  0  0  0  0  0  0  0  0  0  0  0
  185.8910  179.3990  146.9070 N   0  0  0  0  0  0  0  0  0  0  0  0
  188.3130  177.5300  141.3920 C   0  0  1  0  0  3  0  0  0  0  0  0
  187.3330  178.6980  141.3480 C   0  0  0  0  0  1  0  0  0  0  0  0
  189.5690  178.2410  138.0660 C   0  0  1  0  0  3  0  0  0  0  0  0
  188.9620  178.6610  139.3890 C   0  0  0  0  0  2  0  0  0  0  0  0
  189.3960  177.7070  140.4080 N   0  0  0  0  0  0  0  0  0  0  0  0
  190.0430  176.8230  138.2710 C   0  0  0  0  0  2  0  0  0  0  0  0
  189.6000  176.4640  139.6710 C   0  0  0  0  0  2  0  0  0  0  0  0
  188.5530  178.3120  136.9740 C   0  0  0  0  0  0  0  0  0  0  0  0
  188.9380  178.2050  135.7790 O   0  0  0  0  0  0  0  0  0  0  0  0
  186.5670  176.1980  137.2070 N   0  0  0  0  0  1  0  0  0  0  0  0
  186.2580  177.5750  137.4090 C   0  0  0  0  0  0  0  0  0  0  0  0
  187.1640  178.5010  137.2990 N   0  0  0  0  0  0  0  0  0  0  0  0
  184.9250  177.9430  137.7410 N   0  0  0  0  0  1  0  0  0  0  0  0
  1  6  2  0  0  0  0
  2 15  1  6  0  0  0
  2  7  1  0  0  0  0
  2 10  1  0  0  0  0
  3  9  2  0  0  0  0
  3  8  1  0  0  0  0
  4 10  2  0  0  0  0
  6  5  2  0  0  0  0
  6  9  1  0  0  0  0
  7  6  1  0  0  0  0
  8 13  1  1  0  0  0
  8 11  1  0  0  0  0
  9 12  1  0  0  0  0
 10  3  1  0  0  0  0
 12 11  2  0  0  0  0
 13 14  3  0  0  0  0
 15 16  1  1  0  0  0
 17 22  1  6  0  0  0
 17 20  1  0  0  0  0
 17 18  1  0  0  0  0
 18 19  1  0  0  0  0
 19 15  1  0  0  0  0
 20 21  1  0  0  0  0
 21 19  1  0  0  0  0
 22 26  1  0  0  0  0
 23 22  2  0  0  0  0
 24 25  1  0  0  0  0
 25 27  1  0  0  0  0
 26 25  2  0  0  0  0
M  END
>  <MODEL>
2

>  <REMARK>
 VINA RESULT:      -6.9      3.219      8.034
  Name = 
  5 active torsions:
  status: ('A' for Active; 'I' for Inactive)
    1  A    between atoms: C_2  and  C_6
    2  A    between atoms: C_5  and  C_9
    3  A    between atoms: C_6  and  N_19
    4  A    between atoms: N_7  and  C_9
    5  A    between atoms: C_8  and  C_17
                            x       y       z     vdW  Elec       q    Type
                         _______ _______ _______ _____ _____    ______ ____

>  <TORSDO>
F 5

$$$$
=
 OpenBabel10232411333D

 27 29  0  0  1  0  0  0  0  0999 V2000
  188.2630  174.9380  136.9840 O   0  0  0  0  0  0  0  0  0  0  0  0
  190.2420  176.8480  138.8890 C   0  0  1  0  0  3  0  0  0  0  0  0
  191.7520  175.7570  137.0780 C   0  0  0  0  0  0  0  0  0  0  0  0
  192.6520  176.7710  139.0080 O   0  0  0  0  0  0  0  0  0  0  0  0
  188.5950  176.4390  135.0610 O   0  0  0  0  0  0  0  0  0  0  0  0
  189.1270  176.0220  136.4030 S   0  0  0  0  0  0  0  0  0  0  0  0
  189.1600  177.6830  137.6730 S   0  0  0  0  0  0  0  0  0  0  0  0
  193.0030  175.1530  136.5210 C   0  0  1  0  0  3  0  0  0  0  0  0
  190.7770  175.4730  136.2360 C   0  0  0  0  0  0  0  0  0  0  0  0
  191.6150  176.4990  138.3470 C   0  0  0  0  0  0  0  0  0  0  0  0
  192.5120  174.5320  135.2930 N   0  0  0  0  0  0  0  0  0  0  0  0
  191.2640  174.7210  135.1420 N   0  0  0  0  0  0  0  0  0  0  0  0
  193.9740  176.2000  136.1840 C   0  0  0  0  0  0  0  0  0  0  0  0
  194.7410  177.0250  135.9180 N   0  0  0  0  0  0  0  0  0  0  0  0
  190.2020  177.5420  140.2670 C   0  0  1  0  0  3  0  0  0  0  0  0
  188.8760  178.2910  140.3750 C   0  0  0  0  0  1  0  0  0  0  0  0
  190.0060  176.6570  143.7780 C   0  0  1  0  0  3  0  0  0  0  0  0
  189.3810  176.9130  142.4230 C   0  0  0  0  0  2  0  0  0  0  0  0
  190.3820  176.6150  141.4000 N   0  0  0  0  0  0  0  0  0  0  0  0
  191.4920  176.5760  143.5290 C   0  0  0  0  0  2  0  0  0  0  0  0
  191.6560  176.8840  142.0580 C   0  0  0  0  0  2  0  0  0  0  0  0
  189.6830  177.7660  144.7250 C   0  0  0  0  0  0  0  0  0  0  0  0
  190.1850  178.9040  144.5200 O   0  0  0  0  0  0  0  0  0  0  0  0
  190.5360  176.9320  147.3790 N   0  0  0  0  0  1  0  0  0  0  0  0
  189.1680  177.1500  147.0380 C   0  0  0  0  0  0  0  0  0  0  0  0
  188.8130  177.5220  145.8450 N   0  0  0  0  0  0  0  0  0  0  0  0
  188.1690  176.9550  148.0310 N   0  0  0  0  0  1  0  0  0  0  0  0
  2 15  1  1  0  0  0
  3 10  1  0  0  0  0
  5  6  2  0  0  0  0
  6  1  2  0  0  0  0
  6  7  1  0  0  0  0
  7  2  1  0  0  0  0
  8 13  1  6  0  0  0
  8  3  1  0  0  0  0
  9  6  1  0  0  0  0
  9  3  2  0  0  0  0
 10  2  1  0  0  0  0
 10  4  2  0  0  0  0
 11  8  1  0  0  0  0
 12 11  2  0  0  0  0
 12  9  1  0  0  0  0
 14 13  3  0  0  0  0
 15 16  1  1  0  0  0
 15 19  1  0  0  0  0
 17 22  1  1  0  0  0
 18 17  1  0  0  0  0
 19 21  1  0  0  0  0
 19 18  1  0  0  0  0
 20 17  1  0  0  0  0
 21 20  1  0  0  0  0
 22 26  1  0  0  0  0
 23 22  2  0  0  0  0
 25 24  1  0  0  0  0
 25 27  1  0  0  0  0
 26 25  2  0  0  0  0
M  END
>  <MODEL>
3

>  <REMARK>
 VINA RESULT:      -6.8      2.300      2.655
  Name = 
  5 active torsions:
  status: ('A' for Active; 'I' for Inactive)
    1  A    between atoms: C_2  and  C_6
    2  A    between atoms: C_5  and  C_9
    3  A    between atoms: C_6  and  N_19
    4  A    between atoms: N_7  and  C_9
    5  A    between atoms: C_8  and  C_17
                            x       y       z     vdW  Elec       q    Type
                         _______ _______ _______ _____ _____    ______ ____

>  <TORSDO>
F 5

$$$$
=
 OpenBabel10232411333D

 27 29  0  0  1  0  0  0  0  0999 V2000
  192.0100  177.5670  139.5970 O   0  0  0  0  0  0  0  0  0  0  0  0
  189.0510  177.9590  141.1090 C   0  0  1  0  0  3  0  0  0  0  0  0
  188.6150  178.0480  138.5490 C   0  0  0  0  0  0  0  0  0  0  0  0
  187.0130  178.7890  140.1140 O   0  0  0  0  0  0  0  0  0  0  0  0
  191.3190  175.3720  138.7210 O   0  0  0  0  0  0  0  0  0  0  0  0
  190.8390  176.6710  139.3070 S   0  0  0  0  0  0  0  0  0  0  0  0
  189.7710  176.2780  141.0610 S   0  0  0  0  0  0  0  0  0  0  0  0
  187.9430  178.4980  137.2900 C   0  0  1  0  0  3  0  0  0  0  0  0
  189.7320  177.4420  138.1960 C   0  0  0  0  0  0  0  0  0  0  0  0
  188.1470  178.2690  139.9320 C   0  0  0  0  0  0  0  0  0  0  0  0
  188.8800  178.0330  136.2700 N   0  0  0  0  0  0  0  0  0  0  0  0
  189.8770  177.4390  136.7900 N   0  0  0  0  0  0  0  0  0  0  0  0
  186.6570  177.8120  137.1200 C   0  0  0  0  0  0  0  0  0  0  0  0
  185.6430  177.2700  136.9860 N   0  0  0  0  0  0  0  0  0  0  0  0
  188.5040  178.3110  142.5090 C   0  0  1  0  0  3  0  0  0  0  0  0
  187.0110  177.9980  142.5190 C   0  0  0  0  0  1  0  0  0  0  0  0
  188.7220  177.0200  145.8900 C   0  0  1  0  0  3  0  0  0  0  0  0
  188.2100  176.9700  144.4660 C   0  0  0  0  0  2  0  0  0  0  0  0
  189.2010  177.6160  143.6070 N   0  0  0  0  0  0  0  0  0  0  0  0
  189.8360  178.0380  145.8830 C   0  0  0  0  0  2  0  0  0  0  0  0
  189.8460  178.5930  144.4780 C   0  0  0  0  0  2  0  0  0  0  0  0
  187.6320  177.4270  146.8270 C   0  0  0  0  0  0  0  0  0  0  0  0
  187.8980  177.5420  148.0530 O   0  0  0  0  0  0  0  0  0  0  0  0
  185.9820  179.7360  147.4740 N   0  0  0  0  0  1  0  0  0  0  0  0
  185.5520  178.6990  146.5930 C   0  0  0  0  0  0  0  0  0  0  0  0
  186.3080  177.6780  146.3210 N   0  0  0  0  0  0  0  0  0  0  0  0
  184.2630  178.7880  145.9990 N   0  0  0  0  0  1  0  0  0  0  0  0
  2 15  1  1  0  0  0
  3 10  1  0  0  0  0
  5  6  2  0  0  0  0
  6  1  2  0  0  0  0
  6  7  1  0  0  0  0
  7  2  1  0  0  0  0
  8 13  1  6  0  0  0
  8  3  1  0  0  0  0
  9  3  2  0  0  0  0
  9  6  1  0  0  0  0
 10  4  2  0  0  0  0
 10  2  1  0  0  0  0
 11 12  2  0  0  0  0
 11  8  1  0  0  0  0
 12  9  1  0  0  0  0
 14 13  3  0  0  0  0
 15 16  1  6  0  0  0
 15 19  1  0  0  0  0
 17 22  1  1  0  0  0
 18 17  1  0  0  0  0
 19 18  1  0  0  0  0
 19 21  1  0  0  0  0
 20 17  1  0  0  0  0
 21 20  1  0  0  0  0
 22 23  2  0  0  0  0
 25 24  1  0  0  0  0
 26 25  2  0  0  0  0
 26 22  1  0  0  0  0
 27 25  1  0  0  0  0
M  END
>  <MODEL>
4

>  <REMARK>
 VINA RESULT:      -6.7      2.378      3.456
  Name = 
  5 active torsions:
  status: ('A' for Active; 'I' for Inactive)
    1  A    between atoms: C_2  and  C_6
    2  A    between atoms: C_5  and  C_9
    3  A    between atoms: C_6  and  N_19
    4  A    between atoms: N_7  and  C_9
    5  A    between atoms: C_8  and  C_17
                            x       y       z     vdW  Elec       q    Type
                         _______ _______ _______ _____ _____    ______ ____

>  <TORSDO>
F 5

$$$$
=
 OpenBabel10232411333D

 27 29  0  0  1  0  0  0  0  0999 V2000
  189.8200  173.5130  137.3420 O   0  0  0  0  0  0  0  0  0  0  0  0
  191.0670  176.3150  138.6790 C   0  0  1  0  0  3  0  0  0  0  0  0
  192.8610  175.3890  137.0420 C   0  0  0  0  0  0  0  0  0  0  0  0
  193.3740  177.0290  138.6580 O   0  0  0  0  0  0  0  0  0  0  0  0
  189.6660  174.5870  135.1320 O   0  0  0  0  0  0  0  0  0  0  0  0
  190.2940  174.6610  136.4950 S   0  0  0  0  0  0  0  0  0  0  0  0
  189.7830  176.4820  137.3870 S   0  0  0  0  0  0  0  0  0  0  0  0
  194.2430  175.1040  136.5460 C   0  0  1  0  0  3  0  0  0  0  0  0
  192.0340  174.6360  136.3420 C   0  0  0  0  0  0  0  0  0  0  0  0
  192.4830  176.3070  138.1360 C   0  0  0  0  0  0  0  0  0  0  0  0
  193.9860  174.1090  135.5070 N   0  0  0  0  0  0  0  0  0  0  0  0
  192.7450  173.8580  135.3990 N   0  0  0  0  0  0  0  0  0  0  0  0
  194.8290  176.3040  135.9370 C   0  0  0  0  0  0  0  0  0  0  0  0
  195.2910  177.2510  135.4580 N   0  0  0  0  0  0  0  0  0  0  0  0
  190.7970  177.2430  139.8820 C   0  0  1  0  0  3  0  0  0  0  0  0
  189.6460  178.1720  139.5070 C   0  0  0  0  0  1  0  0  0  0  0  0
  188.8530  176.6220  142.8800 C   0  0  1  0  0  3  0  0  0  0  0  0
  189.0680  176.5520  141.3820 C   0  0  0  0  0  2  0  0  0  0  0  0
  190.5080  176.5180  141.1340 N   0  0  0  0  0  0  0  0  0  0  0  0
  190.1900  177.0110  143.4620 C   0  0  0  0  0  2  0  0  0  0  0  0
  191.0830  177.2400  142.2640 C   0  0  0  0  0  2  0  0  0  0  0  0
  187.8080  177.6350  143.2140 C   0  0  0  0  0  0  0  0  0  0  0  0
  187.4690  177.7810  144.4200 O   0  0  0  0  0  0  0  0  0  0  0  0
  184.9520  177.9870  142.7850 N   0  0  0  0  0  1  0  0  0  0  0  0
  185.9400  178.5930  141.9550 C   0  0  0  0  0  0  0  0  0  0  0  0
  187.2100  178.4200  142.1680 N   0  0  0  0  0  0  0  0  0  0  0  0
  185.5220  179.4090  140.8680 N   0  0  0  0  0  1  0  0  0  0  0  0
  2 15  1  1  0  0  0
  3 10  1  0  0  0  0
  5  6  2  0  0  0  0
  6  1  2  0  0  0  0
  6  7  1  0  0  0  0
  7  2  1  0  0  0  0
  8 13  1  6  0  0  0
  8  3  1  0  0  0  0
  9  6  1  0  0  0  0
  9  3  2  0  0  0  0
 10  4  2  0  0  0  0
 10  2  1  0  0  0  0
 11  8  1  0  0  0  0
 12 11  2  0  0  0  0
 12  9  1  0  0  0  0
 14 13  3  0  0  0  0
 15 16  1  6  0  0  0
 15 19  1  0  0  0  0
 17 22  1  6  0  0  0
 17 20  1  0  0  0  0
 18 17  1  0  0  0  0
 19 18  1  0  0  0  0
 19 21  1  0  0  0  0
 21 20  1  0  0  0  0
 22 23  2  0  0  0  0
 25 26  2  0  0  0  0
 25 24  1  0  0  0  0
 26 22  1  0  0  0  0
 27 25  1  0  0  0  0
M  END
>  <MODEL>
5

>  <REMARK>
 VINA RESULT:      -6.6      2.248      2.799
  Name = 
  5 active torsions:
  status: ('A' for Active; 'I' for Inactive)
    1  A    between atoms: C_2  and  C_6
    2  A    between atoms: C_5  and  C_9
    3  A    between atoms: C_6  and  N_19
    4  A    between atoms: N_7  and  C_9
    5  A    between atoms: C_8  and  C_17
                            x       y       z     vdW  Elec       q    Type
                         _______ _______ _______ _____ _____    ______ ____

>  <TORSDO>
F 5

$$$$
=
 OpenBabel10232411333D

 27 29  0  0  1  0  0  0  0  0999 V2000
  189.1720  179.1630  138.8920 O   0  0  0  0  0  0  0  0  0  0  0  0
  187.9320  178.1970  141.8450 C   0  0  1  0  0  3  0  0  0  0  0  0
  185.9070  178.6580  140.2830 C   0  0  0  0  0  0  0  0  0  0  0  0
  185.6610  178.4650  142.6210 O   0  0  0  0  0  0  0  0  0  0  0  0
  188.3630  177.0960  137.8280 O   0  0  0  0  0  0  0  0  0  0  0  0
  188.2290  178.0000  139.0210 S   0  0  0  0  0  0  0  0  0  0  0  0
  188.6480  176.9130  140.7570 S   0  0  0  0  0  0  0  0  0  0  0  0
  184.5200  179.1000  139.9340 C   0  0  1  0  0  3  0  0  0  0  0  0
  186.5780  178.5570  139.1520 C   0  0  0  0  0  0  0  0  0  0  0  0
  186.4450  178.4140  141.6360 C   0  0  0  0  0  0  0  0  0  0  0  0
  184.6000  179.2050  138.4790 N   0  0  0  0  0  0  0  0  0  0  0  0
  185.7560  178.8950  138.0510 N   0  0  0  0  0  0  0  0  0  0  0  0
  183.5440  178.0650  140.2950 C   0  0  0  0  0  0  0  0  0  0  0  0
  182.7730  177.2500  140.5800 N   0  0  0  0  0  0  0  0  0  0  0  0
  188.4070  178.0430  143.3050 C   0  0  1  0  0  3  0  0  0  0  0  0
  187.5930  176.9220  143.9460 C   0  0  0  0  0  1  0  0  0  0  0  0
  191.3430  176.9250  145.1150 C   0  0  1  0  0  3  0  0  0  0  0  0
  190.0620  176.6690  144.3490 C   0  0  0  0  0  2  0  0  0  0  0  0
  189.8540  177.7890  143.4320 N   0  0  0  0  0  0  0  0  0  0  0  0
  191.6600  178.3840  144.8980 C   0  0  0  0  0  2  0  0  0  0  0  0
  190.4960  178.9190  144.0960 C   0  0  0  0  0  2  0  0  0  0  0  0
  191.1540  176.6290  146.5670 C   0  0  0  0  0  0  0  0  0  0  0  0
  192.1720  176.5380  147.3040 O   0  0  0  0  0  0  0  0  0  0  0  0
  189.7260  178.5520  148.2210 N   0  0  0  0  0  1  0  0  0  0  0  0
  189.1690  177.2970  147.8360 C   0  0  0  0  0  0  0  0  0  0  0  0
  189.8280  176.4550  147.0970 N   0  0  0  0  0  0  0  0  0  0  0  0
  187.8580  176.9600  148.2730 N   0  0  0  0  0  1  0  0  0  0  0  0
  1  6  2  0  0  0  0
  2 15  1  1  0  0  0
  3 10  1  0  0  0  0
  5  6  2  0  0  0  0
  6  9  1  0  0  0  0
  6  7  1  0  0  0  0
  7  2  1  0  0  0  0
  8  3  1  0  0  0  0
  8 13  1  6  0  0  0
  9  3  2  0  0  0  0
 10  2  1  0  0  0  0
 10  4  2  0  0  0  0
 11  8  1  0  0  0  0
 12 11  2  0  0  0  0
 12  9  1  0  0  0  0
 13 14  3  0  0  0  0
 15 19  1  0  0  0  0
 15 16  1  6  0  0  0
 17 22  1  1  0  0  0
 18 17  1  0  0  0  0
 19 21  1  0  0  0  0
 19 18  1  0  0  0  0
 20 17  1  0  0  0  0
 21 20  1  0  0  0  0
 22 26  1  0  0  0  0
 22 23  2  0  0  0  0
 25 24  1  0  0  0  0
 25 27  1  0  0  0  0
 26 25  2  0  0  0  0
M  END
>  <MODEL>
6

>  <REMARK>
 VINA RESULT:      -6.3      3.960      5.405
  Name = 
  5 active torsions:
  status: ('A' for Active; 'I' for Inactive)
    1  A    between atoms: C_2  and  C_6
    2  A    between atoms: C_5  and  C_9
    3  A    between atoms: C_6  and  N_19
    4  A    between atoms: N_7  and  C_9
    5  A    between atoms: C_8  and  C_17
                            x       y       z     vdW  Elec       q    Type
                         _______ _______ _______ _____ _____    ______ ____

>  <TORSDO>
F 5

$$$$
=
 OpenBabel10232411333D

 27 29  0  0  1  0  0  0  0  0999 V2000
  186.5220  177.7060  137.9650 O   0  0  0  0  0  0  0  0  0  0  0  0
  189.3860  176.9930  139.5400 C   0  0  1  0  0  3  0  0  0  0  0  0
  189.6530  176.2030  137.0790 C   0  0  0  0  0  0  0  0  0  0  0  0
  191.1220  175.4940  138.7840 O   0  0  0  0  0  0  0  0  0  0  0  0
  187.6530  179.4060  136.5880 O   0  0  0  0  0  0  0  0  0  0  0  0
  187.8510  178.2060  137.4720 S   0  0  0  0  0  0  0  0  0  0  0  0
  189.0710  178.7370  139.0850 S   0  0  0  0  0  0  0  0  0  0  0  0
  190.1360  175.3230  135.9690 C   0  0  1  0  0  3  0  0  0  0  0  0
  188.6890  176.9560  136.5850 C   0  0  0  0  0  0  0  0  0  0  0  0
  190.1310  176.2090  138.4760 C   0  0  0  0  0  0  0  0  0  0  0  0
  189.2790  175.7430  134.8630 N   0  0  0  0  0  0  0  0  0  0  0  0
  188.4750  176.6610  135.2190 N   0  0  0  0  0  0  0  0  0  0  0  0
  191.5350  175.6260  135.6430 C   0  0  0  0  0  0  0  0  0  0  0  0
  192.6380  175.8640  135.3880 N   0  0  0  0  0  0  0  0  0  0  0  0
  189.9100  176.8620  140.9850 C   0  0  1  0  0  3  0  0  0  0  0  0
  191.2990  177.4920  141.0380 C   0  0  0  0  0  1  0  0  0  0  0  0
  189.1000  177.9310  144.3540 C   0  0  1  0  0  3  0  0  0  0  0  0
  189.8260  178.0900  143.0350 C   0  0  0  0  0  2  0  0  0  0  0  0
  189.0160  177.4590  141.9940 N   0  0  0  0  0  0  0  0  0  0  0  0
  188.0520  176.8720  144.1130 C   0  0  0  0  0  2  0  0  0  0  0  0
  188.2910  176.4050  142.6960 C   0  0  0  0  0  2  0  0  0  0  0  0
  190.0470  177.5110  145.4290 C   0  0  0  0  0  0  0  0  0  0  0  0
  190.9270  176.6500  145.1600 O   0  0  0  0  0  0  0  0  0  0  0  0
  188.3880  176.4990  147.5950 N   0  0  0  0  0  1  0  0  0  0  0  0
  189.2100  177.6570  147.7260 C   0  0  0  0  0  0  0  0  0  0  0  0
  189.9420  178.0890  146.7430 N   0  0  0  0  0  0  0  0  0  0  0  0
  189.2280  178.3550  148.9650 N   0  0  0  0  0  1  0  0  0  0  0  0
  2 15  1  1  0  0  0
  3 10  1  0  0  0  0
  5  6  2  0  0  0  0
  6  1  2  0  0  0  0
  6  7  1  0  0  0  0
  7  2  1  0  0  0  0
  8 13  1  6  0  0  0
  8  3  1  0  0  0  0
  9  3  2  0  0  0  0
  9  6  1  0  0  0  0
 10  4  2  0  0  0  0
 10  2  1  0  0  0  0
 11 12  2  0  0  0  0
 11  8  1  0  0  0  0
 12  9  1  0  0  0  0
 14 13  3  0  0  0  0
 15 16  1  6  0  0  0
 15 19  1  0  0  0  0
 17 22  1  1  0  0  0
 18 17  1  0  0  0  0
 19 21  1  0  0  0  0
 19 18  1  0  0  0  0
 20 17  1  0  0  0  0
 21 20  1  0  0  0  0
 22 26  1  0  0  0  0
 23 22  2  0  0  0  0
 24 25  1  0  0  0  0
 25 27  1  0  0  0  0
 26 25  2  0  0  0  0
M  END
>  <MODEL>
7

>  <REMARK>
 VINA RESULT:      -6.3      2.495      2.907
  Name = 
  5 active torsions:
  status: ('A' for Active; 'I' for Inactive)
    1  A    between atoms: C_2  and  C_6
    2  A    between atoms: C_5  and  C_9
    3  A    between atoms: C_6  and  N_19
    4  A    between atoms: N_7  and  C_9
    5  A    between atoms: C_8  and  C_17
                            x       y       z     vdW  Elec       q    Type
                         _______ _______ _______ _____ _____    ______ ____

>  <TORSDO>
F 5

$$$$
=
 OpenBabel10232411333D

 27 29  0  0  1  0  0  0  0  0999 V2000
  186.8240  177.3090  138.2640 O   0  0  0  0  0  0  0  0  0  0  0  0
  189.0980  177.3320  140.7190 C   0  0  1  0  0  3  0  0  0  0  0  0
  190.2890  176.4490  138.5850 C   0  0  0  0  0  0  0  0  0  0  0  0
  191.2240  176.1880  140.7360 O   0  0  0  0  0  0  0  0  0  0  0  0
  188.0170  179.1110  137.0850 O   0  0  0  0  0  0  0  0  0  0  0  0
  188.1280  178.0450  138.1390 S   0  0  0  0  0  0  0  0  0  0  0  0
  188.6410  178.9330  139.9610 S   0  0  0  0  0  0  0  0  0  0  0  0
  191.2570  175.6170  137.8030 C   0  0  1  0  0  3  0  0  0  0  0  0
  189.4200  176.9440  137.7250 C   0  0  0  0  0  0  0  0  0  0  0  0
  190.2760  176.6530  140.0480 C   0  0  0  0  0  0  0  0  0  0  0  0
  190.7460  175.7680  136.4430 N   0  0  0  0  0  0  0  0  0  0  0  0
  189.7190  176.5170  136.4110 N   0  0  0  0  0  0  0  0  0  0  0  0
  192.6070  176.1870  137.8830 C   0  0  0  0  0  0  0  0  0  0  0  0
  193.6720  176.6360  137.9450 N   0  0  0  0  0  0  0  0  0  0  0  0
  189.1370  177.4150  142.2590 C   0  0  1  0  0  3  0  0  0  0  0  0
  188.4470  176.1710  142.8120 C   0  0  0  0  0  1  0  0  0  0  0  0
  191.5790  177.2040  144.9310 C   0  0  1  0  0  3  0  0  0  0  0  0
  190.6810  176.5810  143.8820 C   0  0  0  0  0  2  0  0  0  0  0  0
  190.4980  177.5560  142.8090 N   0  0  0  0  0  0  0  0  0  0  0  0
  191.5940  178.6810  144.6250 C   0  0  0  0  0  2  0  0  0  0  0  0
  190.6290  178.8490  143.4730 C   0  0  0  0  0  2  0  0  0  0  0  0
  191.0420  176.9480  146.3020 C   0  0  0  0  0  0  0  0  0  0  0  0
  191.8550  176.8010  147.2530 O   0  0  0  0  0  0  0  0  0  0  0  0
  189.5520  178.4130  148.3270 N   0  0  0  0  0  1  0  0  0  0  0  0
  188.9330  177.5160  147.4080 C   0  0  0  0  0  0  0  0  0  0  0  0
  189.6210  176.8730  146.5120 N   0  0  0  0  0  0  0  0  0  0  0  0
  187.5250  177.3220  147.4740 N   0  0  0  0  0  1  0  0  0  0  0  0
  2 15  1  1  0  0  0
  3 10  1  0  0  0  0
  5  6  2  0  0  0  0
  6  1  2  0  0  0  0
  6  7  1  0  0  0  0
  7  2  1  0  0  0  0
  8 13  1  6  0  0  0
  8  3  1  0  0  0  0
  9  6  1  0  0  0  0
  9  3  2  0  0  0  0
 10  2  1  0  0  0  0
 10  4  2  0  0  0  0
 11  8  1  0  0  0  0
 12 11  2  0  0  0  0
 12  9  1  0  0  0  0
 13 14  3  0  0  0  0
 15 19  1  0  0  0  0
 15 16  1  1  0  0  0
 17 22  1  1  0  0  0
 18 17  1  0  0  0  0
 19 21  1  0  0  0  0
 19 18  1  0  0  0  0
 20 17  1  0  0  0  0
 21 20  1  0  0  0  0
 22 26  1  0  0  0  0
 22 23  2  0  0  0  0
 25 27  1  0  0  0  0
 25 24  1  0  0  0  0
 26 25  2  0  0  0  0
M  END
>  <MODEL>
8

>  <REMARK>
 VINA RESULT:      -6.3      2.257      2.808
  Name = 
  5 active torsions:
  status: ('A' for Active; 'I' for Inactive)
    1  A    between atoms: C_2  and  C_6
    2  A    between atoms: C_5  and  C_9
    3  A    between atoms: C_6  and  N_19
    4  A    between atoms: N_7  and  C_9
    5  A    between atoms: C_8  and  C_17
                            x       y       z     vdW  Elec       q    Type
                         _______ _______ _______ _____ _____    ______ ____

>  <TORSDO>
F 5

$$$$
=
 OpenBabel10232411333D

 27 29  0  0  1  0  0  0  0  0999 V2000
  191.3040  176.0240  144.3660 O   0  0  0  0  0  0  0  0  0  0  0  0
  188.7720  177.6050  142.8570 C   0  0  1  0  0  3  0  0  0  0  0  0
  188.1420  177.3810  145.3680 C   0  0  0  0  0  0  0  0  0  0  0  0
  186.5400  177.9240  143.7230 O   0  0  0  0  0  0  0  0  0  0  0  0
  191.8800  178.0590  145.6270 O   0  0  0  0  0  0  0  0  0  0  0  0
  190.8110  177.3660  144.8290 S   0  0  0  0  0  0  0  0  0  0  0  0
  190.2980  178.5570  143.1890 S   0  0  0  0  0  0  0  0  0  0  0  0
  187.2270  177.1990  146.5390 C   0  0  1  0  0  3  0  0  0  0  0  0
  189.3720  177.1900  145.8040 C   0  0  0  0  0  0  0  0  0  0  0  0
  187.7500  177.6800  143.9760 C   0  0  0  0  0  0  0  0  0  0  0  0
  188.1730  176.8920  147.6090 N   0  0  0  0  0  0  0  0  0  0  0  0
  189.3720  176.8930  147.1870 N   0  0  0  0  0  0  0  0  0  0  0  0
  186.5320  178.4540  146.8490 C   0  0  0  0  0  0  0  0  0  0  0  0
  185.9820  179.4430  147.0940 N   0  0  0  0  0  0  0  0  0  0  0  0
  188.2440  177.8440  141.4270 C   0  0  1  0  0  3  0  0  0  0  0  0
  188.7050  179.2300  140.9840 C   0  0  0  0  0  1  0  0  0  0  0  0
  190.6880  176.2200  139.2960 C   0  0  1  0  0  3  0  0  0  0  0  0
  190.0890  176.5360  140.6510 C   0  0  0  0  0  2  0  0  0  0  0  0
  188.6660  176.8110  140.4620 N   0  0  0  0  0  0  0  0  0  0  0  0
  189.6710  176.6900  138.2850 C   0  0  0  0  0  2  0  0  0  0  0  0
  188.5810  177.3400  139.1050 C   0  0  0  0  0  2  0  0  0  0  0  0
  191.9890  176.9320  139.1170 C   0  0  0  0  0  0  0  0  0  0  0  0
  192.4880  177.5400  140.1010 O   0  0  0  0  0  0  0  0  0  0  0  0
  194.3850  175.4140  138.4660 N   0  0  0  0  0  1  0  0  0  0  0  0
  193.7140  176.2450  137.5210 C   0  0  0  0  0  0  0  0  0  0  0  0
  192.6450  176.9130  137.8370 N   0  0  0  0  0  0  0  0  0  0  0  0
  194.2300  176.3420  136.1990 N   0  0  0  0  0  1  0  0  0  0  0  0
  1  6  2  0  0  0  0
  2 15  1  6  0  0  0
  2  7  1  0  0  0  0
  2 10  1  0  0  0  0
  3  9  2  0  0  0  0
  3  8  1  0  0  0  0
  4 10  2  0  0  0  0
  6  5  2  0  0  0  0
  6  9  1  0  0  0  0
  7  6  1  0  0  0  0
  8 13  1  1  0  0  0
  8 11  1  0  0  0  0
  9 12  1  0  0  0  0
 10  3  1  0  0  0  0
 12 11  2  0  0  0  0
 13 14  3  0  0  0  0
 15 16  1  6  0  0  0
 17 22  1  6  0  0  0
 17 18  1  0  0  0  0
 19 18  1  0  0  0  0
 19 15  1  0  0  0  0
 20 21  1  0  0  0  0
 20 17  1  0  0  0  0
 21 19  1  0  0  0  0
 22 23  2  0  0  0  0
 25 26  2  0  0  0  0
 25 24  1  0  0  0  0
 26 22  1  0  0  0  0
 27 25  1  0  0  0  0
M  END
>  <MODEL>
9

>  <REMARK>
 VINA RESULT:      -6.3      2.919      8.636
  Name = 
  5 active torsions:
  status: ('A' for Active; 'I' for Inactive)
    1  A    between atoms: C_2  and  C_6
    2  A    between atoms: C_5  and  C_9
    3  A    between atoms: C_6  and  N_19
    4  A    between atoms: N_7  and  C_9
    5  A    between atoms: C_8  and  C_17
                            x       y       z     vdW  Elec       q    Type
                         _______ _______ _______ _____ _____    ______ ____

>  <TORSDO>
F 5

$$$$
