=
 OpenBabel10232408433D

 30 35  0  0  1  0  0  0  0  0999 V2000
  182.2450  178.9380  143.2610 C   0  0  0  0  0  2  0  0  0  0  0  0
  183.3940  178.4620  140.9820 C   0  0  0  0  0  3  0  0  0  0  0  0
  186.0780  178.3160  144.9960 C   0  0  0  0  0  0  0  0  0  0  0  0
  185.4590  178.6080  147.1170 C   0  0  0  0  0  3  0  0  0  0  0  0
  181.0740  178.8240  141.1890 O   0  0  0  0  0  0  0  0  0  0  0  0
  185.0130  178.5940  145.7960 C   0  0  0  0  0  0  0  0  0  0  0  0
  183.6070  178.7000  143.8520 C   0  0  0  0  0  0  0  0  0  0  0  0
  183.7470  178.7960  145.2540 C   0  0  0  0  0  3  0  0  0  0  0  0
  187.2690  177.9060  142.8270 C   0  0  1  0  0  3  0  0  0  0  0  0
  182.1850  178.7350  141.7740 C   0  0  0  0  0  0  0  0  0  0  0  0
  187.7640  176.4900  143.1410 C   0  0  0  0  0  2  0  0  0  0  0  0
  186.0080  178.2050  143.6200 C   0  0  0  0  0  0  0  0  0  0  0  0
  184.7410  178.4080  143.0270 C   0  0  0  0  0  0  0  0  0  0  0  0
  186.8270  178.3150  147.0050 C   0  0  0  0  0  0  0  0  0  0  0  0
  188.5260  177.6730  143.6940 C   0  0  2  0  0  0  0  0  0  0  0  0
  188.4130  177.8150  145.1530 N   0  0  0  0  0  2  0  0  0  0  0  0
  187.1730  178.1420  145.7130 N   0  0  0  0  0  0  0  0  0  0  0  0
  184.5820  178.3140  141.5640 C   0  0  0  0  0  3  0  0  0  0  0  0
  188.5120  178.1070  149.0310 C   0  0  0  0  0  3  0  0  0  0  0  0
  187.7420  178.2030  148.1090 C   0  0  0  0  0  0  0  0  0  0  0  0
  189.8910  177.8740  143.0660 C   0  0  0  0  0  2  0  0  0  0  0  0
  190.2600  176.6670  142.2240 C   0  0  0  0  0  2  0  0  0  0  0  0
  191.7630  177.2930  140.4880 O   0  0  0  0  0  0  0  0  0  0  0  0
  189.4920  177.2960  139.9070 N   0  0  0  0  0  2  0  0  0  0  0  0
  190.5670  177.0940  140.8330 C   0  0  0  0  0  0  0  0  0  0  0  0
  188.5650  178.9650  136.9060 C   0  0  0  0  0  2  0  0  0  0  0  0
  189.6630  177.7400  138.5280 C   0  0  1  0  0  3  0  0  0  0  0  0
  189.1180  176.7160  137.5520 C   0  0  0  0  0  2  0  0  0  0  0  0
  188.3540  177.5150  136.5240 C   0  0  0  0  0  2  0  0  0  0  0  0
  188.9690  179.0010  138.3020 N   0  0  0  0  0  2  0  0  0  0  0  0
  1  7  1  0  0  0  0
  2 18  2  0  0  0  0
  2 10  1  0  0  0  0
  3 17  1  0  0  0  0
  3  6  1  0  0  0  0
  5 10  2  0  0  0  0
  6  4  1  0  0  0  0
  7  8  1  0  0  0  0
  8  6  2  0  0  0  0
  9 11  1  1  0  0  0
  9 12  1  0  0  0  0
  9 15  1  0  0  0  0
 10  1  1  0  0  0  0
 11 15  1  0  0  0  0
 12  3  2  0  0  0  0
 13 12  1  0  0  0  0
 13  7  2  0  0  0  0
 14  4  2  0  0  0  0
 14 20  1  0  0  0  0
 15 21  1  6  0  0  0
 15 16  1  0  0  0  0
 16 17  1  0  0  0  0
 17 14  1  0  0  0  0
 18 13  1  0  0  0  0
 20 19  3  0  0  0  0
 22 21  1  0  0  0  0
 23 25  2  0  0  0  0
 24 25  1  0  0  0  0
 25 22  1  0  0  0  0
 26 30  1  0  0  0  0
 27 24  1  1  0  0  0
 28 27  1  0  0  0  0
 29 26  1  0  0  0  0
 29 28  1  0  0  0  0
 30 27  1  0  0  0  0
M  END
>  <MODEL>
1

>  <REMARK>
 VINA RESULT:     -10.6      0.000      0.000
  Name = 
  5 active torsions:
  status: ('A' for Active; 'I' for Inactive)
    1  A    between atoms: C_7  and  C_13
    2  A    between atoms: C_7  and  C_24
    3  A    between atoms: C_13  and  C_17
    4  A    between atoms: C_15  and  N_16
    5  A    between atoms: C_23  and  C_29
                            x       y       z     vdW  Elec       q    Type
                         _______ _______ _______ _____ _____    ______ ____

>  <TORSDO>
F 5

$$$$
=
 OpenBabel10232408433D

 30 35  0  0  1  0  0  0  0  0999 V2000
  184.2810  178.5900  145.8690 C   0  0  0  0  0  2  0  0  0  0  0  0
  184.2720  178.6920  143.2750 C   0  0  0  0  0  3  0  0  0  0  0  0
  188.3680  177.4650  145.5210 C   0  0  0  0  0  0  0  0  0  0  0  0
  188.7600  177.2160  147.7000 C   0  0  0  0  0  3  0  0  0  0  0  0
  182.3330  179.0360  144.5720 O   0  0  0  0  0  0  0  0  0  0  0  0
  187.7950  177.5500  146.7520 C   0  0  0  0  0  0  0  0  0  0  0  0
  185.7210  178.1800  145.7200 C   0  0  0  0  0  0  0  0  0  0  0  0
  186.4590  177.9100  146.8930 C   0  0  0  0  0  3  0  0  0  0  0  0
  188.4520  177.6010  143.0180 C   0  0  1  0  0  3  0  0  0  0  0  0
  183.5650  178.7770  144.5620 C   0  0  0  0  0  0  0  0  0  0  0  0
  188.8410  176.1430  142.7550 C   0  0  0  0  0  2  0  0  0  0  0  0
  187.7030  177.7130  144.3350 C   0  0  0  0  0  0  0  0  0  0  0  0
  186.3430  178.0870  144.4320 C   0  0  0  0  0  0  0  0  0  0  0  0
  189.8970  176.9330  146.9260 C   0  0  0  0  0  0  0  0  0  0  0  0
  189.9160  177.1280  143.1550 C   0  0  2  0  0  0  0  0  0  0  0  0
  190.4570  176.8930  144.5010 N   0  0  0  0  0  2  0  0  0  0  0  0
  189.6310  177.0900  145.6150 N   0  0  0  0  0  0  0  0  0  0  0  0
  185.5620  178.3750  143.2150 C   0  0  0  0  0  3  0  0  0  0  0  0
  192.2410  176.1740  147.8850 C   0  0  0  0  0  3  0  0  0  0  0  0
  191.1730  176.5230  147.4500 C   0  0  0  0  0  0  0  0  0  0  0  0
  190.8940  177.4560  142.0450 C   0  0  0  0  0  2  0  0  0  0  0  0
  190.8640  176.3690  140.9870 C   0  0  0  0  0  2  0  0  0  0  0  0
  191.7480  177.0830  138.8950 O   0  0  0  0  0  0  0  0  0  0  0  0
  189.4560  177.4640  139.2050 N   0  0  0  0  0  2  0  0  0  0  0  0
  190.7330  176.9790  139.6360 C   0  0  0  0  0  0  0  0  0  0  0  0
  187.4520  178.7860  136.5810 C   0  0  0  0  0  2  0  0  0  0  0  0
  189.2090  178.1060  137.9190 C   0  0  1  0  0  3  0  0  0  0  0  0
  189.1360  177.0830  136.8030 C   0  0  0  0  0  2  0  0  0  0  0  0
  187.9520  177.4980  135.9610 C   0  0  0  0  0  2  0  0  0  0  0  0
  187.9540  178.8450  137.9450 N   0  0  0  0  0  2  0  0  0  0  0  0
  2 10  1  0  0  0  0
  3 17  1  0  0  0  0
  3  6  1  0  0  0  0
  6  8  2  0  0  0  0
  6  4  1  0  0  0  0
  7  1  1  0  0  0  0
  7  8  1  0  0  0  0
  9 11  1  6  0  0  0
  9 15  1  0  0  0  0
  9 12  1  0  0  0  0
 10  5  2  0  0  0  0
 10  1  1  0  0  0  0
 11 15  1  0  0  0  0
 12 13  1  0  0  0  0
 12  3  2  0  0  0  0
 13  7  2  0  0  0  0
 14 20  1  0  0  0  0
 14  4  2  0  0  0  0
 15 21  1  6  0  0  0
 15 16  1  0  0  0  0
 16 17  1  0  0  0  0
 17 14  1  0  0  0  0
 18  2  2  0  0  0  0
 18 13  1  0  0  0  0
 20 19  3  0  0  0  0
 22 21  1  0  0  0  0
 23 25  2  0  0  0  0
 24 25  1  0  0  0  0
 25 22  1  0  0  0  0
 26 30  1  0  0  0  0
 27 30  1  0  0  0  0
 27 24  1  1  0  0  0
 28 27  1  0  0  0  0
 29 26  1  0  0  0  0
 29 28  1  0  0  0  0
M  END
>  <MODEL>
2

>  <REMARK>
 VINA RESULT:     -10.3      1.674      2.427
  Name = 
  5 active torsions:
  status: ('A' for Active; 'I' for Inactive)
    1  A    between atoms: C_7  and  C_13
    2  A    between atoms: C_7  and  C_24
    3  A    between atoms: C_13  and  C_17
    4  A    between atoms: C_15  and  N_16
    5  A    between atoms: C_23  and  C_29
                            x       y       z     vdW  Elec       q    Type
                         _______ _______ _______ _____ _____    ______ ____

>  <TORSDO>
F 5

$$$$
=
 OpenBabel10232408433D

 30 35  0  0  1  0  0  0  0  0999 V2000
  184.4550  178.6900  145.9290 C   0  0  0  0  0  2  0  0  0  0  0  0
  184.3600  178.5900  143.3360 C   0  0  0  0  0  3  0  0  0  0  0  0
  188.4780  177.3640  145.5440 C   0  0  0  0  0  0  0  0  0  0  0  0
  188.9340  177.2680  147.7230 C   0  0  0  0  0  3  0  0  0  0  0  0
  182.4830  179.1180  144.6620 O   0  0  0  0  0  0  0  0  0  0  0  0
  187.9520  177.5690  146.7820 C   0  0  0  0  0  0  0  0  0  0  0  0
  185.8710  178.2080  145.7680 C   0  0  0  0  0  0  0  0  0  0  0  0
  186.6370  177.9980  146.9350 C   0  0  0  0  0  3  0  0  0  0  0  0
  188.4800  177.3000  143.0360 C   0  0  1  0  0  3  0  0  0  0  0  0
  183.7020  178.8060  144.6340 C   0  0  0  0  0  0  0  0  0  0  0  0
  188.8000  175.8110  142.8780 C   0  0  0  0  0  2  0  0  0  0  0  0
  187.7830  177.5470  144.3630 C   0  0  0  0  0  0  0  0  0  0  0  0
  186.4430  177.9880  144.4730 C   0  0  0  0  0  0  0  0  0  0  0  0
  190.0310  176.8760  146.9390 C   0  0  0  0  0  0  0  0  0  0  0  0
  189.9270  176.7760  143.1650 C   0  0  2  0  0  0  0  0  0  0  0  0
  190.5050  176.6230  144.5080 N   0  0  0  0  0  2  0  0  0  0  0  0
  189.7260  176.9420  145.6270 N   0  0  0  0  0  0  0  0  0  0  0  0
  185.6340  178.2140  143.2620 C   0  0  0  0  0  3  0  0  0  0  0  0
  192.3750  176.0950  147.8790 C   0  0  0  0  0  3  0  0  0  0  0  0
  191.3060  176.4530  147.4530 C   0  0  0  0  0  0  0  0  0  0  0  0
  190.8790  176.9730  142.0020 C   0  0  0  0  0  2  0  0  0  0  0  0
  190.2770  177.9300  140.9910 C   0  0  0  0  0  2  0  0  0  0  0  0
  189.4910  177.5320  138.7800 O   0  0  0  0  0  0  0  0  0  0  0  0
  191.6040  176.6450  139.2760 N   0  0  0  0  0  2  0  0  0  0  0  0
  190.4190  177.3750  139.6190 C   0  0  0  0  0  0  0  0  0  0  0  0
  192.1690  173.9490  137.0260 C   0  0  0  0  0  2  0  0  0  0  0  0
  191.8470  176.0310  137.9750 C   0  0  1  0  0  3  0  0  0  0  0  0
  193.3300  175.9520  137.6760 C   0  0  0  0  0  2  0  0  0  0  0  0
  193.5470  174.5700  137.1080 C   0  0  0  0  0  2  0  0  0  0  0  0
  191.2990  174.6810  137.9330 N   0  0  0  0  0  2  0  0  0  0  0  0
  2 10  1  0  0  0  0
  3 17  1  0  0  0  0
  3  6  1  0  0  0  0
  6  8  2  0  0  0  0
  6  4  1  0  0  0  0
  7  1  1  0  0  0  0
  7  8  1  0  0  0  0
  9 11  1  6  0  0  0
  9 15  1  0  0  0  0
  9 12  1  0  0  0  0
 10  5  2  0  0  0  0
 10  1  1  0  0  0  0
 11 15  1  0  0  0  0
 12 13  1  0  0  0  0
 12  3  2  0  0  0  0
 13  7  2  0  0  0  0
 14 20  1  0  0  0  0
 14  4  2  0  0  0  0
 15 21  1  6  0  0  0
 15 16  1  0  0  0  0
 16 17  1  0  0  0  0
 17 14  1  0  0  0  0
 18  2  2  0  0  0  0
 18 13  1  0  0  0  0
 20 19  3  0  0  0  0
 22 21  1  0  0  0  0
 23 25  2  0  0  0  0
 24 25  1  0  0  0  0
 25 22  1  0  0  0  0
 26 29  1  0  0  0  0
 26 30  1  0  0  0  0
 27 24  1  1  0  0  0
 28 27  1  0  0  0  0
 29 28  1  0  0  0  0
 30 27  1  0  0  0  0
M  END
>  <MODEL>
3

>  <REMARK>
 VINA RESULT:      -9.9      2.426      3.289
  Name = 
  5 active torsions:
  status: ('A' for Active; 'I' for Inactive)
    1  A    between atoms: C_7  and  C_13
    2  A    between atoms: C_7  and  C_24
    3  A    between atoms: C_13  and  C_17
    4  A    between atoms: C_15  and  N_16
    5  A    between atoms: C_23  and  C_29
                            x       y       z     vdW  Elec       q    Type
                         _______ _______ _______ _____ _____    ______ ____

>  <TORSDO>
F 5

$$$$
=
 OpenBabel10232408433D

 30 35  0  0  1  0  0  0  0  0999 V2000
  190.1580  176.8100  147.7240 C   0  0  0  0  0  2  0  0  0  0  0  0
  191.9820  176.4700  145.9080 C   0  0  0  0  0  3  0  0  0  0  0  0
  187.5300  177.7140  144.5050 C   0  0  0  0  0  0  0  0  0  0  0  0
  185.7300  178.1460  145.7460 C   0  0  0  0  0  3  0  0  0  0  0  0
  192.4400  176.3340  148.2160 O   0  0  0  0  0  0  0  0  0  0  0  0
  187.0710  177.7690  145.7850 C   0  0  0  0  0  0  0  0  0  0  0  0
  189.2520  177.1390  146.5700 C   0  0  0  0  0  0  0  0  0  0  0  0
  187.9120  177.4830  146.8560 C   0  0  0  0  0  3  0  0  0  0  0  0
  189.2220  177.3450  142.6910 C   0  0  1  0  0  3  0  0  0  0  0  0
  191.5790  176.5360  147.3210 C   0  0  0  0  0  0  0  0  0  0  0  0
  189.1780  178.7540  142.0910 C   0  0  0  0  0  2  0  0  0  0  0  0
  188.8280  177.3880  144.1570 C   0  0  0  0  0  0  0  0  0  0  0  0
  189.7150  177.0860  145.2160 C   0  0  0  0  0  0  0  0  0  0  0  0
  185.4730  178.3060  144.3750 C   0  0  0  0  0  0  0  0  0  0  0  0
  188.0990  177.7630  141.7160 C   0  0  2  0  0  0  0  0  0  0  0  0
  186.7770  178.0970  142.2650 N   0  0  0  0  0  2  0  0  0  0  0  0
  186.5780  178.0400  143.6500 N   0  0  0  0  0  0  0  0  0  0  0  0
  191.1150  176.7220  144.9300 C   0  0  0  0  0  3  0  0  0  0  0  0
  183.1520  179.0380  143.3440 C   0  0  0  0  0  3  0  0  0  0  0  0
  184.2120  178.7050  143.8110 C   0  0  0  0  0  0  0  0  0  0  0  0
  188.1710  177.2910  140.2770 C   0  0  0  0  0  2  0  0  0  0  0  0
  188.6670  178.4130  139.3850 C   0  0  0  0  0  2  0  0  0  0  0  0
  189.4350  178.3130  137.1340 O   0  0  0  0  0  0  0  0  0  0  0  0
  190.4450  176.8000  138.6140 N   0  0  0  0  0  2  0  0  0  0  0  0
  189.5300  177.8600  138.3070 C   0  0  0  0  0  0  0  0  0  0  0  0
  192.5190  174.2060  137.3420 C   0  0  0  0  0  2  0  0  0  0  0  0
  191.3200  176.1590  137.6390 C   0  0  1  0  0  3  0  0  0  0  0  0
  192.7690  176.5380  137.8720 C   0  0  0  0  0  2  0  0  0  0  0  0
  193.5440  175.2500  137.7330 C   0  0  0  0  0  2  0  0  0  0  0  0
  191.2080  174.7090  137.7220 N   0  0  0  0  0  2  0  0  0  0  0  0
  2 10  1  0  0  0  0
  3  6  1  0  0  0  0
  4  6  1  0  0  0  0
  6  8  2  0  0  0  0
  7  8  1  0  0  0  0
  7  1  1  0  0  0  0
  9 11  1  1  0  0  0
  9 12  1  0  0  0  0
 10  1  1  0  0  0  0
 10  5  2  0  0  0  0
 12  3  2  0  0  0  0
 12 13  1  0  0  0  0
 13  7  2  0  0  0  0
 14  4  2  0  0  0  0
 15 21  1  6  0  0  0
 15 11  1  0  0  0  0
 15 16  1  0  0  0  0
 15  9  1  0  0  0  0
 16 17  1  0  0  0  0
 17 14  1  0  0  0  0
 17  3  1  0  0  0  0
 18 13  1  0  0  0  0
 18  2  2  0  0  0  0
 19 20  3  0  0  0  0
 20 14  1  0  0  0  0
 22 21  1  0  0  0  0
 23 25  2  0  0  0  0
 25 24  1  0  0  0  0
 25 22  1  0  0  0  0
 26 30  1  0  0  0  0
 26 29  1  0  0  0  0
 27 30  1  0  0  0  0
 27 28  1  0  0  0  0
 27 24  1  1  0  0  0
 29 28  1  0  0  0  0
M  END
>  <MODEL>
4

>  <REMARK>
 VINA RESULT:      -9.8      2.832      5.687
  Name = 
  5 active torsions:
  status: ('A' for Active; 'I' for Inactive)
    1  A    between atoms: C_7  and  C_13
    2  A    between atoms: C_7  and  C_24
    3  A    between atoms: C_13  and  C_17
    4  A    between atoms: C_15  and  N_16
    5  A    between atoms: C_23  and  C_29
                            x       y       z     vdW  Elec       q    Type
                         _______ _______ _______ _____ _____    ______ ____

>  <TORSDO>
F 5

$$$$
=
 OpenBabel10232408433D

 30 35  0  0  1  0  0  0  0  0999 V2000
  190.1620  176.8120  147.7710 C   0  0  0  0  0  2  0  0  0  0  0  0
  192.0510  176.4440  146.0280 C   0  0  0  0  0  3  0  0  0  0  0  0
  187.6510  177.6530  144.4430 C   0  0  0  0  0  0  0  0  0  0  0  0
  185.8070  178.1030  145.6100 C   0  0  0  0  0  3  0  0  0  0  0  0
  192.4260  176.3490  148.3530 O   0  0  0  0  0  0  0  0  0  0  0  0
  187.1460  177.7300  145.7040 C   0  0  0  0  0  0  0  0  0  0  0  0
  189.2970  177.1190  146.5790 C   0  0  0  0  0  0  0  0  0  0  0  0
  187.9480  177.4650  146.8100 C   0  0  0  0  0  3  0  0  0  0  0  0
  189.4080  177.2550  142.6980 C   0  0  1  0  0  3  0  0  0  0  0  0
  191.5970  176.5330  147.4240 C   0  0  0  0  0  0  0  0  0  0  0  0
  189.3830  178.6530  142.0720 C   0  0  0  0  0  2  0  0  0  0  0  0
  188.9610  177.3240  144.1480 C   0  0  0  0  0  0  0  0  0  0  0  0
  189.8100  177.0420  145.2430 C   0  0  0  0  0  0  0  0  0  0  0  0
  185.5990  178.2370  144.2280 C   0  0  0  0  0  0  0  0  0  0  0  0
  188.3210  177.6530  141.6760 C   0  0  2  0  0  0  0  0  0  0  0  0
  186.9790  177.9940  142.1710 N   0  0  0  0  0  2  0  0  0  0  0  0
  186.7300  177.9610  143.5480 N   0  0  0  0  0  0  0  0  0  0  0  0
  191.2200  176.6760  145.0150 C   0  0  0  0  0  3  0  0  0  0  0  0
  183.3200  178.9440  143.0910 C   0  0  0  0  0  3  0  0  0  0  0  0
  184.3580  178.6240  143.6120 C   0  0  0  0  0  0  0  0  0  0  0  0
  188.4450  177.1560  140.2500 C   0  0  0  0  0  2  0  0  0  0  0  0
  188.5750  178.3300  139.2980 C   0  0  0  0  0  2  0  0  0  0  0  0
  187.3210  178.6480  137.3000 O   0  0  0  0  0  0  0  0  0  0  0  0
  186.0680  178.5920  139.2800 N   0  0  0  0  0  2  0  0  0  0  0  0
  187.3020  178.5240  138.5550 C   0  0  0  0  0  0  0  0  0  0  0  0
  182.7930  179.9590  139.0400 C   0  0  0  0  0  2  0  0  0  0  0  0
  184.7610  178.8080  138.6680 C   0  0  1  0  0  3  0  0  0  0  0  0
  183.7650  177.7610  139.1230 C   0  0  0  0  0  2  0  0  0  0  0  0
  182.4960  178.5230  139.4190 C   0  0  0  0  0  2  0  0  0  0  0  0
  184.2380  180.1210  139.0190 N   0  0  0  0  0  2  0  0  0  0  0  0
  2 10  1  0  0  0  0
  3  6  1  0  0  0  0
  4  6  1  0  0  0  0
  6  8  2  0  0  0  0
  7  8  1  0  0  0  0
  7  1  1  0  0  0  0
  9 11  1  1  0  0  0
  9 12  1  0  0  0  0
 10  1  1  0  0  0  0
 10  5  2  0  0  0  0
 12  3  2  0  0  0  0
 12 13  1  0  0  0  0
 13  7  2  0  0  0  0
 14  4  2  0  0  0  0
 15 21  1  6  0  0  0
 15 11  1  0  0  0  0
 15 16  1  0  0  0  0
 15  9  1  0  0  0  0
 16 17  1  0  0  0  0
 17 14  1  0  0  0  0
 17  3  1  0  0  0  0
 18 13  1  0  0  0  0
 18  2  2  0  0  0  0
 19 20  3  0  0  0  0
 20 14  1  0  0  0  0
 22 21  1  0  0  0  0
 23 25  2  0  0  0  0
 25 24  1  0  0  0  0
 25 22  1  0  0  0  0
 26 29  1  0  0  0  0
 27 30  1  0  0  0  0
 27 28  1  0  0  0  0
 27 24  1  1  0  0  0
 28 29  1  0  0  0  0
 30 26  1  0  0  0  0
M  END
>  <MODEL>
5

>  <REMARK>
 VINA RESULT:      -9.8      2.850      5.971
  Name = 
  5 active torsions:
  status: ('A' for Active; 'I' for Inactive)
    1  A    between atoms: C_7  and  C_13
    2  A    between atoms: C_7  and  C_24
    3  A    between atoms: C_13  and  C_17
    4  A    between atoms: C_15  and  N_16
    5  A    between atoms: C_23  and  C_29
                            x       y       z     vdW  Elec       q    Type
                         _______ _______ _______ _____ _____    ______ ____

>  <TORSDO>
F 5

$$$$
=
 OpenBabel10232408433D

 30 35  0  0  1  0  0  0  0  0999 V2000
  186.6630  178.0230  147.1680 C   0  0  0  0  0  2  0  0  0  0  0  0
  189.1230  177.2600  146.8460 C   0  0  0  0  0  3  0  0  0  0  0  0
  186.4870  178.2620  142.9250 C   0  0  0  0  0  0  0  0  0  0  0  0
  184.3850  178.9890  142.7880 C   0  0  0  0  0  3  0  0  0  0  0  0
  188.1660  177.6170  148.9710 O   0  0  0  0  0  0  0  0  0  0  0  0
  185.3960  178.6020  143.6640 C   0  0  0  0  0  0  0  0  0  0  0  0
  186.6290  178.1120  145.6660 C   0  0  0  0  0  0  0  0  0  0  0  0
  185.4300  178.5380  145.0540 C   0  0  0  0  0  3  0  0  0  0  0  0
  188.8360  177.4730  142.5330 C   0  0  1  0  0  3  0  0  0  0  0  0
  188.0040  177.6380  147.7230 C   0  0  0  0  0  0  0  0  0  0  0  0
  189.3410  178.7200  141.8000 C   0  0  0  0  0  2  0  0  0  0  0  0
  187.6900  177.8410  143.4600 C   0  0  0  0  0  0  0  0  0  0  0  0
  187.7660  177.7570  144.8700 C   0  0  0  0  0  0  0  0  0  0  0  0
  184.9770  178.8530  141.5220 C   0  0  0  0  0  0  0  0  0  0  0  0
  188.5380  177.6930  141.0340 C   0  0  2  0  0  0  0  0  0  0  0  0
  187.2020  178.1650  140.6420 N   0  0  0  0  0  2  0  0  0  0  0  0
  186.2460  178.4140  141.6350 N   0  0  0  0  0  0  0  0  0  0  0  0
  189.0110  177.3110  145.5220 C   0  0  0  0  0  3  0  0  0  0  0  0
  183.7900  179.3860  139.2210 C   0  0  0  0  0  3  0  0  0  0  0  0
  184.3310  179.1460  140.2710 C   0  0  0  0  0  0  0  0  0  0  0  0
  189.3450  176.9200  140.0100 C   0  0  0  0  0  2  0  0  0  0  0  0
  190.0200  177.8770  139.0470 C   0  0  0  0  0  2  0  0  0  0  0  0
  188.9810  179.5650  137.7290 O   0  0  0  0  0  0  0  0  0  0  0  0
  188.1680  177.3900  137.4070 N   0  0  0  0  0  2  0  0  0  0  0  0
  189.0440  178.3410  138.0250 C   0  0  0  0  0  0  0  0  0  0  0  0
  185.1300  176.9530  135.6100 C   0  0  0  0  0  2  0  0  0  0  0  0
  187.1530  177.7270  136.4150 C   0  0  1  0  0  3  0  0  0  0  0  0
  187.4700  177.0980  135.0730 C   0  0  0  0  0  2  0  0  0  0  0  0
  186.1570  176.5440  134.5750 C   0  0  0  0  0  2  0  0  0  0  0  0
  185.8410  177.2580  136.8410 N   0  0  0  0  0  2  0  0  0  0  0  0
  1 10  1  0  0  0  0
  2 10  1  0  0  0  0
  3 12  2  0  0  0  0
  3  6  1  0  0  0  0
  4  6  1  0  0  0  0
  6  8  2  0  0  0  0
  7  1  1  0  0  0  0
  8  7  1  0  0  0  0
  9 11  1  1  0  0  0
  9 12  1  0  0  0  0
 10  5  2  0  0  0  0
 12 13  1  0  0  0  0
 13 18  1  0  0  0  0
 13  7  2  0  0  0  0
 14 17  1  0  0  0  0
 14  4  2  0  0  0  0
 15 21  1  6  0  0  0
 15 11  1  0  0  0  0
 15  9  1  0  0  0  0
 16 15  1  0  0  0  0
 16 17  1  0  0  0  0
 17  3  1  0  0  0  0
 18  2  2  0  0  0  0
 19 20  3  0  0  0  0
 20 14  1  0  0  0  0
 22 21  1  0  0  0  0
 23 25  2  0  0  0  0
 24 25  1  0  0  0  0
 25 22  1  0  0  0  0
 26 30  1  0  0  0  0
 27 30  1  0  0  0  0
 27 24  1  1  0  0  0
 28 27  1  0  0  0  0
 29 28  1  0  0  0  0
 29 26  1  0  0  0  0
M  END
>  <MODEL>
6

>  <REMARK>
 VINA RESULT:      -9.1      2.611      5.148
  Name = 
  5 active torsions:
  status: ('A' for Active; 'I' for Inactive)
    1  A    between atoms: C_7  and  C_13
    2  A    between atoms: C_7  and  C_24
    3  A    between atoms: C_13  and  C_17
    4  A    between atoms: C_15  and  N_16
    5  A    between atoms: C_23  and  C_29
                            x       y       z     vdW  Elec       q    Type
                         _______ _______ _______ _____ _____    ______ ____

>  <TORSDO>
F 5

$$$$
=
 OpenBabel10232408433D

 30 35  0  0  1  0  0  0  0  0999 V2000
  186.6600  178.1460  147.5040 C   0  0  0  0  0  2  0  0  0  0  0  0
  189.1560  177.4300  147.5520 C   0  0  0  0  0  3  0  0  0  0  0  0
  187.0280  178.0990  143.2670 C   0  0  0  0  0  0  0  0  0  0  0  0
  184.9480  178.7580  142.8140 C   0  0  0  0  0  3  0  0  0  0  0  0
  187.9260  177.9020  149.5070 O   0  0  0  0  0  0  0  0  0  0  0  0
  185.8450  178.4580  143.8370 C   0  0  0  0  0  0  0  0  0  0  0  0
  186.8190  178.1350  146.0080 C   0  0  0  0  0  0  0  0  0  0  0  0
  185.7010  178.4860  145.2200 C   0  0  0  0  0  3  0  0  0  0  0  0
  189.4220  177.3500  143.2330 C   0  0  1  0  0  3  0  0  0  0  0  0
  187.9260  177.8360  148.2510 C   0  0  0  0  0  0  0  0  0  0  0  0
  189.9950  178.5580  142.4860 C   0  0  0  0  0  2  0  0  0  0  0  0
  188.1600  177.7480  143.9790 C   0  0  0  0  0  0  0  0  0  0  0  0
  188.0550  177.7590  145.3900 C   0  0  0  0  0  0  0  0  0  0  0  0
  185.7010  178.5550  141.6460 C   0  0  0  0  0  0  0  0  0  0  0  0
  189.3150  177.4620  141.6960 C   0  0  2  0  0  0  0  0  0  0  0  0
  188.0330  177.8710  141.1060 N   0  0  0  0  0  2  0  0  0  0  0  0
  186.9530  178.1590  141.9500 N   0  0  0  0  0  0  0  0  0  0  0  0
  189.2140  177.3910  146.2230 C   0  0  0  0  0  3  0  0  0  0  0  0
  184.8110  178.9140  139.1830 C   0  0  0  0  0  3  0  0  0  0  0  0
  185.2160  178.7470  140.3050 C   0  0  0  0  0  0  0  0  0  0  0  0
  190.2620  176.6450  140.8400 C   0  0  0  0  0  2  0  0  0  0  0  0
  190.3460  177.2360  139.4450 C   0  0  0  0  0  2  0  0  0  0  0  0
  190.6780  175.1050  138.4400 O   0  0  0  0  0  0  0  0  0  0  0  0
  192.2040  176.7680  137.8080 N   0  0  0  0  0  2  0  0  0  0  0  0
  191.0640  176.3010  138.5390 C   0  0  0  0  0  0  0  0  0  0  0  0
  194.6900  176.1370  135.3430 C   0  0  0  0  0  2  0  0  0  0  0  0
  193.0060  175.9410  136.9120 C   0  0  1  0  0  3  0  0  0  0  0  0
  192.3240  175.7700  135.5700 C   0  0  0  0  0  2  0  0  0  0  0  0
  193.4170  175.9540  134.5440 C   0  0  0  0  0  2  0  0  0  0  0  0
  194.3130  176.5420  136.6890 N   0  0  0  0  0  2  0  0  0  0  0  0
  1 10  1  0  0  0  0
  2 10  1  0  0  0  0
  3  6  2  0  0  0  0
  3 12  1  0  0  0  0
  4  6  1  0  0  0  0
  6  8  1  0  0  0  0
  7  1  1  0  0  0  0
  8  7  2  0  0  0  0
  9 11  1  1  0  0  0
  9 12  1  0  0  0  0
 10  5  2  0  0  0  0
 12 13  2  0  0  0  0
 13  7  1  0  0  0  0
 13 18  1  0  0  0  0
 14 17  1  0  0  0  0
 14  4  2  0  0  0  0
 15 21  1  6  0  0  0
 15 11  1  0  0  0  0
 15  9  1  0  0  0  0
 16 15  1  0  0  0  0
 16 17  1  0  0  0  0
 17  3  1  0  0  0  0
 18  2  2  0  0  0  0
 19 20  3  0  0  0  0
 20 14  1  0  0  0  0
 22 21  1  0  0  0  0
 23 25  2  0  0  0  0
 24 25  1  0  0  0  0
 25 22  1  0  0  0  0
 26 30  1  0  0  0  0
 27 24  1  1  0  0  0
 28 27  1  0  0  0  0
 29 26  1  0  0  0  0
 29 28  1  0  0  0  0
 30 27  1  0  0  0  0
M  END
>  <MODEL>
7

>  <REMARK>
 VINA RESULT:      -9.1      3.144      5.392
  Name = 
  5 active torsions:
  status: ('A' for Active; 'I' for Inactive)
    1  A    between atoms: C_7  and  C_13
    2  A    between atoms: C_7  and  C_24
    3  A    between atoms: C_13  and  C_17
    4  A    between atoms: C_15  and  N_16
    5  A    between atoms: C_23  and  C_29
                            x       y       z     vdW  Elec       q    Type
                         _______ _______ _______ _____ _____    ______ ____

>  <TORSDO>
F 5

$$$$
=
 OpenBabel10232408433D

 30 35  0  0  1  0  0  0  0  0999 V2000
  190.2170  176.5610  147.6720 C   0  0  0  0  0  2  0  0  0  0  0  0
  191.9830  176.2620  145.7930 C   0  0  0  0  0  3  0  0  0  0  0  0
  187.5310  177.6830  144.5710 C   0  0  0  0  0  0  0  0  0  0  0  0
  185.7760  178.1000  145.8790 C   0  0  0  0  0  3  0  0  0  0  0  0
  192.4980  176.0050  148.0790 O   0  0  0  0  0  0  0  0  0  0  0  0
  187.1070  177.6880  145.8640 C   0  0  0  0  0  0  0  0  0  0  0  0
  189.2900  176.9670  146.5590 C   0  0  0  0  0  0  0  0  0  0  0  0
  187.9680  177.3310  146.8970 C   0  0  0  0  0  3  0  0  0  0  0  0
  189.1660  177.3580  142.6960 C   0  0  1  0  0  3  0  0  0  0  0  0
  191.6190  176.2710  147.2180 C   0  0  0  0  0  0  0  0  0  0  0  0
  189.1430  178.7940  142.1640 C   0  0  0  0  0  2  0  0  0  0  0  0
  188.8100  177.3410  144.1730 C   0  0  0  0  0  0  0  0  0  0  0  0
  189.7170  176.9660  145.1920 C   0  0  0  0  0  0  0  0  0  0  0  0
  185.4880  178.3300  144.5240 C   0  0  0  0  0  0  0  0  0  0  0  0
  188.0290  177.8490  141.7730 C   0  0  2  0  0  0  0  0  0  0  0  0
  186.7310  178.1900  142.3720 N   0  0  0  0  0  2  0  0  0  0  0  0
  186.5660  178.0720  143.7570 N   0  0  0  0  0  0  0  0  0  0  0  0
  191.0990  176.5820  144.8520 C   0  0  0  0  0  3  0  0  0  0  0  0
  183.1610  179.1660  143.5890 C   0  0  0  0  0  3  0  0  0  0  0  0
  184.2230  178.7870  144.0140 C   0  0  0  0  0  0  0  0  0  0  0  0
  188.0520  177.4450  140.3120 C   0  0  0  0  0  2  0  0  0  0  0  0
  188.8250  178.4660  139.5000 C   0  0  0  0  0  2  0  0  0  0  0  0
  188.3370  179.3220  137.3330 O   0  0  0  0  0  0  0  0  0  0  0  0
  188.4060  176.9850  137.5030 N   0  0  0  0  0  2  0  0  0  0  0  0
  188.5170  178.3030  138.0540 C   0  0  0  0  0  0  0  0  0  0  0  0
  186.3560  175.8550  134.8260 C   0  0  0  0  0  2  0  0  0  0  0  0
  188.0820  176.6980  136.1100 C   0  0  1  0  0  3  0  0  0  0  0  0
  188.5150  175.2970  135.7260 C   0  0  0  0  0  2  0  0  0  0  0  0
  187.3620  174.7290  134.9340 C   0  0  0  0  0  2  0  0  0  0  0  0
  186.6480  176.8110  135.8820 N   0  0  0  0  0  2  0  0  0  0  0  0
  2 10  1  0  0  0  0
  3  6  1  0  0  0  0
  6  4  1  0  0  0  0
  6  8  2  0  0  0  0
  7  8  1  0  0  0  0
  7  1  1  0  0  0  0
  9 11  1  1  0  0  0
  9 12  1  0  0  0  0
 10  1  1  0  0  0  0
 10  5  2  0  0  0  0
 12  3  2  0  0  0  0
 12 13  1  0  0  0  0
 13  7  2  0  0  0  0
 14  4  2  0  0  0  0
 15 21  1  6  0  0  0
 15 11  1  0  0  0  0
 15 16  1  0  0  0  0
 15  9  1  0  0  0  0
 16 17  1  0  0  0  0
 17 14  1  0  0  0  0
 17  3  1  0  0  0  0
 18 13  1  0  0  0  0
 18  2  2  0  0  0  0
 19 20  3  0  0  0  0
 20 14  1  0  0  0  0
 22 21  1  0  0  0  0
 23 25  2  0  0  0  0
 24 25  1  0  0  0  0
 25 22  1  0  0  0  0
 26 29  1  0  0  0  0
 26 30  1  0  0  0  0
 27 24  1  1  0  0  0
 28 27  1  0  0  0  0
 29 28  1  0  0  0  0
 30 27  1  0  0  0  0
M  END
>  <MODEL>
8

>  <REMARK>
 VINA RESULT:      -9.1      2.750      5.574
  Name = 
  5 active torsions:
  status: ('A' for Active; 'I' for Inactive)
    1  A    between atoms: C_7  and  C_13
    2  A    between atoms: C_7  and  C_24
    3  A    between atoms: C_13  and  C_17
    4  A    between atoms: C_15  and  N_16
    5  A    between atoms: C_23  and  C_29
                            x       y       z     vdW  Elec       q    Type
                         _______ _______ _______ _____ _____    ______ ____

>  <TORSDO>
F 5

$$$$
=
 OpenBabel10232408433D

 30 35  0  0  1  0  0  0  0  0999 V2000
  191.9760  176.3650  145.9020 C   0  0  0  0  0  2  0  0  0  0  0  0
  190.2650  176.8880  147.7840 C   0  0  0  0  0  3  0  0  0  0  0  0
  188.9140  177.5340  143.1920 C   0  0  0  0  0  0  0  0  0  0  0  0
  190.0580  177.1490  141.3180 C   0  0  0  0  0  3  0  0  0  0  0  0
  192.3980  175.9800  148.2150 O   0  0  0  0  0  0  0  0  0  0  0  0
  190.1130  177.1070  142.7100 C   0  0  0  0  0  0  0  0  0  0  0  0
  190.8730  176.7700  144.9630 C   0  0  0  0  0  0  0  0  0  0  0  0
  191.1290  176.7140  143.5760 C   0  0  0  0  0  3  0  0  0  0  0  0
  187.2290  178.1170  144.9560 C   0  0  1  0  0  3  0  0  0  0  0  0
  191.5770  176.3840  147.3510 C   0  0  0  0  0  0  0  0  0  0  0  0
  186.1450  177.1240  144.5270 C   0  0  0  0  0  2  0  0  0  0  0  0
  188.5980  177.6100  144.5350 C   0  0  0  0  0  0  0  0  0  0  0  0
  189.6050  177.2240  145.4500 C   0  0  0  0  0  0  0  0  0  0  0  0
  188.7600  177.6150  141.0550 C   0  0  0  0  0  0  0  0  0  0  0  0
  186.2780  178.4320  143.7810 C   0  0  2  0  0  0  0  0  0  0  0  0
  186.7780  178.2770  142.4070 N   0  0  0  0  0  2  0  0  0  0  0  0
  188.0920  177.8380  142.2040 N   0  0  0  0  0  0  0  0  0  0  0  0
  189.3510  177.2820  146.9020 C   0  0  0  0  0  3  0  0  0  0  0  0
  187.7440  177.9910  138.6430 C   0  0  0  0  0  3  0  0  0  0  0  0
  188.2070  177.8230  139.7430 C   0  0  0  0  0  0  0  0  0  0  0  0
  185.1280  179.3920  144.0120 C   0  0  0  0  0  2  0  0  0  0  0  0
  183.8220  178.6260  144.1150 C   0  0  0  0  0  2  0  0  0  0  0  0
  181.9060  179.1160  142.7910 O   0  0  0  0  0  0  0  0  0  0  0  0
  183.7420  178.2420  141.6250 N   0  0  0  0  0  2  0  0  0  0  0  0
  183.0920  178.6900  142.8210 C   0  0  0  0  0  0  0  0  0  0  0  0
  183.0350  176.9290  138.3960 C   0  0  0  0  0  2  0  0  0  0  0  0
  183.1220  178.2290  140.3050 C   0  0  1  0  0  3  0  0  0  0  0  0
  183.9850  178.9500  139.2890 C   0  0  0  0  0  2  0  0  0  0  0  0
  183.9710  178.0710  138.0610 C   0  0  0  0  0  2  0  0  0  0  0  0
  182.9200  176.8610  139.8450 N   0  0  0  0  0  2  0  0  0  0  0  0
  1 10  1  0  0  0  0
  3 12  1  0  0  0  0
  4  6  1  0  0  0  0
  6  3  2  0  0  0  0
  6  8  1  0  0  0  0
  7 13  1  0  0  0  0
  7  1  1  0  0  0  0
  8  7  2  0  0  0  0
  9 11  1  1  0  0  0
 10  2  1  0  0  0  0
 10  5  2  0  0  0  0
 12  9  1  0  0  0  0
 12 13  2  0  0  0  0
 13 18  1  0  0  0  0
 14  4  2  0  0  0  0
 14 17  1  0  0  0  0
 15 21  1  1  0  0  0
 15 11  1  0  0  0  0
 15  9  1  0  0  0  0
 16 15  1  0  0  0  0
 17 16  1  0  0  0  0
 17  3  1  0  0  0  0
 18  2  2  0  0  0  0
 19 20  3  0  0  0  0
 20 14  1  0  0  0  0
 21 22  1  0  0  0  0
 23 25  2  0  0  0  0
 24 25  1  0  0  0  0
 25 22  1  0  0  0  0
 26 30  1  0  0  0  0
 27 24  1  1  0  0  0
 28 27  1  0  0  0  0
 29 26  1  0  0  0  0
 29 28  1  0  0  0  0
 30 27  1  0  0  0  0
M  END
>  <MODEL>
9

>  <REMARK>
 VINA RESULT:      -9.1      2.889      7.192
  Name = 
  5 active torsions:
  status: ('A' for Active; 'I' for Inactive)
    1  A    between atoms: C_7  and  C_13
    2  A    between atoms: C_7  and  C_24
    3  A    between atoms: C_13  and  C_17
    4  A    between atoms: C_15  and  N_16
    5  A    between atoms: C_23  and  C_29
                            x       y       z     vdW  Elec       q    Type
                         _______ _______ _______ _____ _____    ______ ____

>  <TORSDO>
F 5

$$$$
