=
 OpenBabel10232411333D

 27 29  0  0  1  0  0  0  0  0999 V2000
  187.1950  176.9990  143.8510 C   0  0  1  0  0  3  0  0  0  0  0  0
  190.5660  176.7750  144.4980 O   0  0  0  0  0  0  0  0  0  0  0  0
  186.3470  177.3240  144.9690 C   0  0  2  0  0  3  0  0  0  0  0  0
  186.0510  177.9890  143.6220 C   0  0  0  0  0  0  0  0  0  0  0  0
  186.9160  178.3660  145.9400 C   0  0  2  0  0  3  0  0  0  0  0  0
  189.1180  177.3200  146.3010 C   0  0  0  0  0  0  0  0  0  0  0  0
  188.5280  177.7490  143.7930 C   0  0  0  0  0  2  0  0  0  0  0  0
  189.4590  177.2560  144.8550 C   0  0  0  0  0  0  0  0  0  0  0  0
  187.9910  177.7950  146.7500 N   0  0  0  0  0  0  0  0  0  0  0  0
  185.3440  178.8100  142.8560 C   0  0  0  0  0  3  0  0  0  0  0  0
  190.0950  176.7910  147.2930 C   0  0  0  0  0  1  0  0  0  0  0  0
  184.5130  178.3890  146.6990 N   0  0  0  0  0  1  0  0  0  0  0  0
  185.8360  178.8960  146.8240 C   0  0  0  0  0  0  0  0  0  0  0  0
  186.0900  179.7760  147.6880 O   0  0  0  0  0  0  0  0  0  0  0  0
  184.7930  179.4870  140.6470 O   0  0  0  0  0  0  0  0  0  0  0  0
  185.6570  179.0180  141.4390 C   0  0  0  0  0  0  0  0  0  0  0  0
  186.9940  178.6720  140.9520 C   0  0  0  0  0  3  0  0  0  0  0  0
  187.2420  178.5920  139.6850 N   0  0  0  0  0  0  0  0  0  0  0  0
  188.5700  178.2500  139.2050 C   0  0  0  0  0  3  0  0  0  0  0  0
  191.7450  174.5440  138.0990 O   0  0  0  0  0  1  0  0  0  0  0  0
  191.1880  175.4300  137.3970 C   0  0  0  0  0  0  0  0  0  0  0  0
  190.4780  176.6550  139.4730 C   0  0  0  0  0  2  0  0  0  0  0  0
  190.4710  176.5030  138.0190 N   0  0  0  0  0  0  0  0  0  0  0  0
  189.0820  177.0280  139.9620 C   0  0  0  0  0  2  0  0  0  0  0  0
  189.9210  177.5840  137.2050 C   0  0  0  0  0  2  0  0  0  0  0  0
  191.2700  175.3530  136.0110 O   0  0  0  0  0  0  0  0  0  0  0  0
  188.5280  177.9520  137.7050 C   0  0  0  0  0  2  0  0  0  0  0  0
  1  7  1  1  0  0  0
  1  3  1  0  0  0  0
  2  8  2  0  0  0  0
  3  4  1  6  0  0  0
  3  5  1  0  0  0  0
  4  1  1  0  0  0  0
  5  9  1  0  0  0  0
  5 13  1  1  0  0  0
  6  9  2  0  0  0  0
  6 11  1  0  0  0  0
  7  8  1  0  0  0  0
  8  6  1  0  0  0  0
 10  4  2  0  0  0  0
 12 13  1  0  0  0  0
 13 14  2  0  0  0  0
 15 16  2  0  0  0  0
 16 10  1  0  0  0  0
 17 16  1  0  0  0  0
 18 17  2  0  0  0  0
 19 18  1  0  0  0  0
 19 24  1  0  0  0  0
 21 23  1  0  0  0  0
 21 20  1  0  0  0  0
 22 24  1  0  0  0  0
 23 22  1  0  0  0  0
 25 27  1  0  0  0  0
 25 23  1  0  0  0  0
 26 21  2  0  0  0  0
 27 19  1  0  0  0  0
M  END
>  <MODEL>
1

>  <REMARK>
 VINA RESULT:      -9.4      0.000      0.000
  Name = 
  4 active torsions:
  status: ('A' for Active; 'I' for Inactive)
    1  A    between atoms: C_4  and  C_11
    2  A    between atoms: C_5  and  N_27
    3  A    between atoms: C_14  and  C_20
    4  A    between atoms: C_14  and  C_24
                            x       y       z     vdW  Elec       q    Type
                         _______ _______ _______ _____ _____    ______ ____

>  <TORSDO>
F 4

$$$$
=
 OpenBabel10232411333D

 27 29  0  0  1  0  0  0  0  0999 V2000
  187.8460  176.8020  142.9680 C   0  0  1  0  0  3  0  0  0  0  0  0
  188.2870  178.4150  139.9620 O   0  0  0  0  0  0  0  0  0  0  0  0
  189.0160  176.1960  143.5500 C   0  0  2  0  0  3  0  0  0  0  0  0
  188.0520  176.9390  144.4790 C   0  0  0  0  0  0  0  0  0  0  0  0
  190.3110  177.0040  143.4040 C   0  0  2  0  0  3  0  0  0  0  0  0
  190.1840  177.4060  140.9760 C   0  0  0  0  0  0  0  0  0  0  0  0
  188.0670  178.1630  142.3060 C   0  0  0  0  0  2  0  0  0  0  0  0
  188.8270  178.0110  141.0260 C   0  0  0  0  0  0  0  0  0  0  0  0
  190.8070  176.9560  142.0300 N   0  0  0  0  0  0  0  0  0  0  0  0
  187.6910  177.3750  145.6790 C   0  0  0  0  0  3  0  0  0  0  0  0
  190.8650  177.2750  139.6580 C   0  0  0  0  0  1  0  0  0  0  0  0
  191.6140  177.1810  145.5540 N   0  0  0  0  0  1  0  0  0  0  0  0
  191.3530  176.4870  144.3410 C   0  0  0  0  0  0  0  0  0  0  0  0
  191.9900  175.4340  144.0720 O   0  0  0  0  0  0  0  0  0  0  0  0
  186.2560  178.7430  146.9860 O   0  0  0  0  0  0  0  0  0  0  0  0
  186.4690  178.1580  145.8890 C   0  0  0  0  0  0  0  0  0  0  0  0
  185.4940  178.2520  144.8000 C   0  0  0  0  0  3  0  0  0  0  0  0
  184.9830  179.3910  144.4600 N   0  0  0  0  0  0  0  0  0  0  0  0
  184.0160  179.4820  143.3790 C   0  0  0  0  0  3  0  0  0  0  0  0
  181.7070  177.0370  139.6740 O   0  0  0  0  0  0  0  0  0  0  0  0
  181.2910  177.5600  140.7420 C   0  0  0  0  0  0  0  0  0  0  0  0
  183.4950  178.7260  141.0520 C   0  0  0  0  0  2  0  0  0  0  0  0
  182.1580  178.3820  141.5330 N   0  0  0  0  0  0  0  0  0  0  0  0
  184.4960  178.6400  142.2000 C   0  0  0  0  0  2  0  0  0  0  0  0
  181.6380  179.0710  142.7110 C   0  0  0  0  0  2  0  0  0  0  0  0
  179.9820  177.3260  141.1510 O   0  0  0  0  0  1  0  0  0  0  0  0
  182.6490  178.9830  143.8500 C   0  0  0  0  0  2  0  0  0  0  0  0
  1  7  1  6  0  0  0
  1  3  1  0  0  0  0
  1  4  1  0  0  0  0
  2  8  2  0  0  0  0
  3  4  1  1  0  0  0
  4 10  2  0  0  0  0
  5  3  1  0  0  0  0
  5 13  1  1  0  0  0
  6  8  1  0  0  0  0
  6  9  2  0  0  0  0
  8  7  1  0  0  0  0
  9  5  1  0  0  0  0
 10 16  1  0  0  0  0
 11  6  1  0  0  0  0
 13 12  1  0  0  0  0
 14 13  2  0  0  0  0
 16 15  2  0  0  0  0
 17 16  1  0  0  0  0
 18 17  2  0  0  0  0
 19 27  1  0  0  0  0
 19 18  1  0  0  0  0
 20 21  2  0  0  0  0
 21 26  1  0  0  0  0
 21 23  1  0  0  0  0
 22 23  1  0  0  0  0
 22 24  1  0  0  0  0
 23 25  1  0  0  0  0
 24 19  1  0  0  0  0
 25 27  1  0  0  0  0
M  END
>  <MODEL>
2

>  <REMARK>
 VINA RESULT:      -8.9      2.768      6.819
  Name = 
  4 active torsions:
  status: ('A' for Active; 'I' for Inactive)
    1  A    between atoms: C_4  and  C_11
    2  A    between atoms: C_5  and  N_27
    3  A    between atoms: C_14  and  C_20
    4  A    between atoms: C_14  and  C_24
                            x       y       z     vdW  Elec       q    Type
                         _______ _______ _______ _____ _____    ______ ____

>  <TORSDO>
F 4

$$$$
=
 OpenBabel10232411333D

 27 29  0  0  1  0  0  0  0  0999 V2000
  188.3700  176.7190  143.0900 C   0  0  1  0  0  3  0  0  0  0  0  0
  191.7850  176.9780  143.4110 O   0  0  0  0  0  0  0  0  0  0  0  0
  187.6060  176.7540  144.3100 C   0  0  2  0  0  3  0  0  0  0  0  0
  187.0690  177.5260  143.1020 C   0  0  0  0  0  0  0  0  0  0  0  0
  188.1080  177.7440  145.3680 C   0  0  2  0  0  3  0  0  0  0  0  0
  190.4700  177.0410  145.3890 C   0  0  0  0  0  0  0  0  0  0  0  0
  189.5580  177.6820  143.0270 C   0  0  0  0  0  2  0  0  0  0  0  0
  190.6610  177.2190  143.9250 C   0  0  0  0  0  0  0  0  0  0  0  0
  189.3380  177.2610  145.9950 N   0  0  0  0  0  0  0  0  0  0  0  0
  186.1670  178.3090  142.5240 C   0  0  0  0  0  3  0  0  0  0  0  0
  191.6170  176.5600  146.2090 C   0  0  0  0  0  1  0  0  0  0  0  0
  187.4240  177.9800  147.7820 N   0  0  0  0  0  1  0  0  0  0  0  0
  187.0600  177.9700  146.4070 C   0  0  0  0  0  0  0  0  0  0  0  0
  185.8610  178.1660  146.0750 O   0  0  0  0  0  0  0  0  0  0  0  0
  185.4300  179.5050  140.6100 O   0  0  0  0  0  0  0  0  0  0  0  0
  186.2930  178.7450  141.1290 C   0  0  0  0  0  0  0  0  0  0  0  0
  187.4400  178.2850  140.3450 C   0  0  0  0  0  3  0  0  0  0  0  0
  187.4410  178.3700  139.0540 N   0  0  0  0  0  0  0  0  0  0  0  0
  188.5820  177.9130  138.2780 C   0  0  0  0  0  3  0  0  0  0  0  0
  192.2120  174.4930  137.8730 O   0  0  0  0  0  1  0  0  0  0  0  0
  191.2140  174.7690  137.1540 C   0  0  0  0  0  0  0  0  0  0  0  0
  190.8680  176.9080  138.4250 C   0  0  0  0  0  2  0  0  0  0  0  0
  190.4410  175.9480  137.4100 N   0  0  0  0  0  0  0  0  0  0  0  0
  189.6600  177.3910  139.2230 C   0  0  0  0  0  2  0  0  0  0  0  0
  189.3540  176.3190  136.5080 C   0  0  0  0  0  2  0  0  0  0  0  0
  190.8660  173.9150  136.1140 O   0  0  0  0  0  0  0  0  0  0  0  0
  188.1540  176.8040  137.3150 C   0  0  0  0  0  2  0  0  0  0  0  0
  1  7  1  1  0  0  0
  1  4  1  0  0  0  0
  1  3  1  0  0  0  0
  2  8  2  0  0  0  0
  3  4  1  6  0  0  0
  3  5  1  0  0  0  0
  5  9  1  0  0  0  0
  5 13  1  1  0  0  0
  6  9  2  0  0  0  0
  6 11  1  0  0  0  0
  7  8  1  0  0  0  0
  8  6  1  0  0  0  0
 10  4  2  0  0  0  0
 13 12  1  0  0  0  0
 14 13  2  0  0  0  0
 15 16  2  0  0  0  0
 16 10  1  0  0  0  0
 17 16  1  0  0  0  0
 18 17  2  0  0  0  0
 19 18  1  0  0  0  0
 19 24  1  0  0  0  0
 21 23  1  0  0  0  0
 21 20  1  0  0  0  0
 22 24  1  0  0  0  0
 23 22  1  0  0  0  0
 25 27  1  0  0  0  0
 25 23  1  0  0  0  0
 26 21  2  0  0  0  0
 27 19  1  0  0  0  0
M  END
>  <MODEL>
3

>  <REMARK>
 VINA RESULT:      -8.8      1.326      1.434
  Name = 
  4 active torsions:
  status: ('A' for Active; 'I' for Inactive)
    1  A    between atoms: C_4  and  C_11
    2  A    between atoms: C_5  and  N_27
    3  A    between atoms: C_14  and  C_20
    4  A    between atoms: C_14  and  C_24
                            x       y       z     vdW  Elec       q    Type
                         _______ _______ _______ _____ _____    ______ ____

>  <TORSDO>
F 4

$$$$
=
 OpenBabel10232411333D

 27 29  0  0  1  0  0  0  0  0999 V2000
  189.6520  178.2450  144.6970 C   0  0  1  0  0  3  0  0  0  0  0  0
  186.7210  178.3500  146.4950 O   0  0  0  0  0  0  0  0  0  0  0  0
  190.8180  177.7690  145.3970 C   0  0  2  0  0  3  0  0  0  0  0  0
  190.6050  177.3060  143.9540 C   0  0  0  0  0  0  0  0  0  0  0  0
  190.5730  176.5950  146.3520 C   0  0  2  0  0  3  0  0  0  0  0  0
  188.6760  177.5630  147.5920 C   0  0  0  0  0  0  0  0  0  0  0  0
  188.3500  177.5010  145.0020 C   0  0  0  0  0  2  0  0  0  0  0  0
  187.8620  177.8300  146.3770 C   0  0  0  0  0  0  0  0  0  0  0  0
  189.8670  177.0360  147.5540 N   0  0  0  0  0  0  0  0  0  0  0  0
  190.9700  176.6080  142.8850 C   0  0  0  0  0  3  0  0  0  0  0  0
  188.1230  177.9370  148.9240 C   0  0  0  0  0  1  0  0  0  0  0  0
  192.4950  176.3010  147.9550 N   0  0  0  0  0  1  0  0  0  0  0  0
  191.8670  175.9520  146.7270 C   0  0  0  0  0  0  0  0  0  0  0  0
  192.3980  175.0940  145.9740 O   0  0  0  0  0  0  0  0  0  0  0  0
  190.6090  176.0280  140.6110 O   0  0  0  0  0  0  0  0  0  0  0  0
  190.1800  176.6030  141.6500 C   0  0  0  0  0  0  0  0  0  0  0  0
  188.8810  177.2760  141.6390 C   0  0  0  0  0  3  0  0  0  0  0  0
  188.5600  178.0890  140.6850 N   0  0  0  0  0  0  0  0  0  0  0  0
  187.2680  178.7550  140.6750 C   0  0  0  0  0  3  0  0  0  0  0  0
  182.3460  178.2340  139.9400 O   0  0  0  0  0  0  0  0  0  0  0  0
  183.0320  178.5210  140.9580 C   0  0  0  0  0  0  0  0  0  0  0  0
  185.0560  178.8810  139.5130 C   0  0  0  0  0  2  0  0  0  0  0  0
  184.4320  178.8020  140.8320 N   0  0  0  0  0  0  0  0  0  0  0  0
  186.4170  178.1910  139.5410 C   0  0  0  0  0  2  0  0  0  0  0  0
  185.1970  179.2370  141.9970 C   0  0  0  0  0  2  0  0  0  0  0  0
  182.4200  178.5540  142.2050 O   0  0  0  0  0  1  0  0  0  0  0  0
  186.5560  178.5450  142.0130 C   0  0  0  0  0  2  0  0  0  0  0  0
  1  7  1  1  0  0  0
  1  3  1  0  0  0  0
  3  4  1  6  0  0  0
  3  5  1  0  0  0  0
  4  1  1  0  0  0  0
  5 13  1  1  0  0  0
  5  9  1  0  0  0  0
  6 11  1  0  0  0  0
  7  8  1  0  0  0  0
  8  2  2  0  0  0  0
  8  6  1  0  0  0  0
  9  6  2  0  0  0  0
 10  4  2  0  0  0  0
 13 12  1  0  0  0  0
 14 13  2  0  0  0  0
 15 16  2  0  0  0  0
 16 10  1  0  0  0  0
 17 16  1  0  0  0  0
 18 17  2  0  0  0  0
 19 18  1  0  0  0  0
 19 27  1  0  0  0  0
 20 21  2  0  0  0  0
 21 26  1  0  0  0  0
 22 24  1  0  0  0  0
 22 23  1  0  0  0  0
 23 21  1  0  0  0  0
 23 25  1  0  0  0  0
 24 19  1  0  0  0  0
 25 27  1  0  0  0  0
M  END
>  <MODEL>
4

>  <REMARK>
 VINA RESULT:      -8.6      2.631      5.757
  Name = 
  4 active torsions:
  status: ('A' for Active; 'I' for Inactive)
    1  A    between atoms: C_4  and  C_11
    2  A    between atoms: C_5  and  N_27
    3  A    between atoms: C_14  and  C_20
    4  A    between atoms: C_14  and  C_24
                            x       y       z     vdW  Elec       q    Type
                         _______ _______ _______ _____ _____    ______ ____

>  <TORSDO>
F 4

$$$$
=
 OpenBabel10232411333D

 27 29  0  0  1  0  0  0  0  0999 V2000
  188.8520  178.2530  144.3580 C   0  0  1  0  0  3  0  0  0  0  0  0
  185.6870  177.9590  143.0410 O   0  0  0  0  0  0  0  0  0  0  0  0
  188.9410  178.3780  145.7910 C   0  0  2  0  0  3  0  0  0  0  0  0
  189.9590  177.4810  145.0800 C   0  0  0  0  0  0  0  0  0  0  0  0
  187.9600  177.5080  146.5860 C   0  0  2  0  0  3  0  0  0  0  0  0
  185.9000  178.1570  145.4000 C   0  0  0  0  0  0  0  0  0  0  0  0
  187.8020  177.2640  143.8470 C   0  0  0  0  0  2  0  0  0  0  0  0
  186.4220  177.8050  144.0520 C   0  0  0  0  0  0  0  0  0  0  0  0
  186.6000  178.0340  146.4920 N   0  0  0  0  0  0  0  0  0  0  0  0
  190.9980  176.6550  145.0940 C   0  0  0  0  0  3  0  0  0  0  0  0
  184.5200  178.7060  145.5140 C   0  0  0  0  0  1  0  0  0  0  0  0
  189.3130  178.3710  148.5290 N   0  0  0  0  0  1  0  0  0  0  0  0
  188.3800  177.4290  148.0170 C   0  0  0  0  0  0  0  0  0  0  0  0
  187.9020  176.5450  148.7760 O   0  0  0  0  0  0  0  0  0  0  0  0
  192.0940  174.9260  143.8920 O   0  0  0  0  0  0  0  0  0  0  0  0
  191.5340  176.0560  143.8680 C   0  0  0  0  0  0  0  0  0  0  0  0
  191.4100  176.7920  142.6090 C   0  0  0  0  0  3  0  0  0  0  0  0
  190.5870  176.4040  141.6890 N   0  0  0  0  0  0  0  0  0  0  0  0
  190.4640  177.1360  140.4400 C   0  0  0  0  0  3  0  0  0  0  0  0
  188.6240  177.1070  135.7870 O   0  0  0  0  0  0  0  0  0  0  0  0
  188.3850  177.8230  136.7960 C   0  0  0  0  0  0  0  0  0  0  0  0
  190.4220  176.9110  137.9490 C   0  0  0  0  0  2  0  0  0  0  0  0
  189.2170  177.7370  137.9590 N   0  0  0  0  0  0  0  0  0  0  0  0
  190.5470  176.1590  139.2710 C   0  0  0  0  0  2  0  0  0  0  0  0
  189.0000  178.6460  139.0810 C   0  0  0  0  0  2  0  0  0  0  0  0
  187.3010  178.6940  136.7720 O   0  0  0  0  0  1  0  0  0  0  0  0
  189.1310  177.8860  140.3970 C   0  0  0  0  0  2  0  0  0  0  0  0
  1  7  1  1  0  0  0
  1  4  1  0  0  0  0
  1  3  1  0  0  0  0
  2  8  2  0  0  0  0
  3  4  1  1  0  0  0
  3  5  1  0  0  0  0
  4 10  2  0  0  0  0
  5 13  1  1  0  0  0
  6 11  1  0  0  0  0
  6  9  2  0  0  0  0
  7  8  1  0  0  0  0
  8  6  1  0  0  0  0
  9  5  1  0  0  0  0
 13 12  1  0  0  0  0
 13 14  2  0  0  0  0
 16 15  2  0  0  0  0
 16 10  1  0  0  0  0
 17 16  1  0  0  0  0
 18 17  2  0  0  0  0
 19 18  1  0  0  0  0
 20 21  2  0  0  0  0
 21 23  1  0  0  0  0
 22 23  1  0  0  0  0
 22 24  1  0  0  0  0
 23 25  1  0  0  0  0
 24 19  1  0  0  0  0
 25 27  1  0  0  0  0
 26 21  1  0  0  0  0
 27 19  1  0  0  0  0
M  END
>  <MODEL>
5

>  <REMARK>
 VINA RESULT:      -8.6      2.126      4.247
  Name = 
  4 active torsions:
  status: ('A' for Active; 'I' for Inactive)
    1  A    between atoms: C_4  and  C_11
    2  A    between atoms: C_5  and  N_27
    3  A    between atoms: C_14  and  C_20
    4  A    between atoms: C_14  and  C_24
                            x       y       z     vdW  Elec       q    Type
                         _______ _______ _______ _____ _____    ______ ____

>  <TORSDO>
F 4

$$$$
=
 OpenBabel10232411333D

 27 29  0  0  1  0  0  0  0  0999 V2000
  187.8570  176.8820  143.4540 C   0  0  1  0  0  3  0  0  0  0  0  0
  188.0310  177.7730  140.1360 O   0  0  0  0  0  0  0  0  0  0  0  0
  189.1120  176.7320  144.1450 C   0  0  2  0  0  3  0  0  0  0  0  0
  187.9640  177.4270  144.8800 C   0  0  0  0  0  0  0  0  0  0  0  0
  190.1860  177.7640  143.7820 C   0  0  2  0  0  3  0  0  0  0  0  0
  190.0690  177.5220  141.3320 C   0  0  0  0  0  0  0  0  0  0  0  0
  187.7800  178.0540  142.4730 C   0  0  0  0  0  2  0  0  0  0  0  0
  188.6060  177.7800  141.2570 C   0  0  0  0  0  0  0  0  0  0  0  0
  190.7350  177.5030  142.4520 N   0  0  0  0  0  0  0  0  0  0  0  0
  187.4610  178.0430  145.9430 C   0  0  0  0  0  3  0  0  0  0  0  0
  190.8140  177.2400  140.0740 C   0  0  0  0  0  1  0  0  0  0  0  0
  191.2970  176.7480  145.8030 N   0  0  0  0  0  1  0  0  0  0  0  0
  191.2810  177.7530  144.7970 C   0  0  0  0  0  0  0  0  0  0  0  0
  192.1980  178.6160  144.7600 O   0  0  0  0  0  0  0  0  0  0  0  0
  185.7050  179.3420  146.8740 O   0  0  0  0  0  0  0  0  0  0  0  0
  186.0820  178.5400  145.9760 C   0  0  0  0  0  0  0  0  0  0  0  0
  185.1430  178.0900  144.9470 C   0  0  0  0  0  3  0  0  0  0  0  0
  184.5210  178.9390  144.1950 N   0  0  0  0  0  0  0  0  0  0  0  0
  183.5910  178.4900  143.1730 C   0  0  0  0  0  3  0  0  0  0  0  0
  179.9850  179.8380  139.9770 O   0  0  0  0  0  1  0  0  0  0  0  0
  181.1470  179.3810  139.8100 C   0  0  0  0  0  0  0  0  0  0  0  0
  181.2860  178.7950  142.2490 C   0  0  0  0  0  2  0  0  0  0  0  0
  181.8990  178.8880  140.9260 N   0  0  0  0  0  0  0  0  0  0  0  0
  182.2780  179.2550  143.3140 C   0  0  0  0  0  2  0  0  0  0  0  0
  183.2000  178.2610  140.7100 C   0  0  0  0  0  2  0  0  0  0  0  0
  181.6960  179.3650  138.5330 O   0  0  0  0  0  0  0  0  0  0  0  0
  184.1820  178.7240  141.7820 C   0  0  0  0  0  2  0  0  0  0  0  0
  1  7  1  6  0  0  0
  1  3  1  0  0  0  0
  1  4  1  0  0  0  0
  2  8  2  0  0  0  0
  3  4  1  1  0  0  0
  4 10  2  0  0  0  0
  5  3  1  0  0  0  0
  5 13  1  1  0  0  0
  6  9  2  0  0  0  0
  8  6  1  0  0  0  0
  8  7  1  0  0  0  0
  9  5  1  0  0  0  0
 10 16  1  0  0  0  0
 11  6  1  0  0  0  0
 13 12  1  0  0  0  0
 14 13  2  0  0  0  0
 16 15  2  0  0  0  0
 17 16  1  0  0  0  0
 18 17  2  0  0  0  0
 19 24  1  0  0  0  0
 19 18  1  0  0  0  0
 21 20  1  0  0  0  0
 21 23  1  0  0  0  0
 22 24  1  0  0  0  0
 23 22  1  0  0  0  0
 25 23  1  0  0  0  0
 25 27  1  0  0  0  0
 26 21  2  0  0  0  0
 27 19  1  0  0  0  0
M  END
>  <MODEL>
6

>  <REMARK>
 VINA RESULT:      -8.5      2.803      6.723
  Name = 
  4 active torsions:
  status: ('A' for Active; 'I' for Inactive)
    1  A    between atoms: C_4  and  C_11
    2  A    between atoms: C_5  and  N_27
    3  A    between atoms: C_14  and  C_20
    4  A    between atoms: C_14  and  C_24
                            x       y       z     vdW  Elec       q    Type
                         _______ _______ _______ _____ _____    ______ ____

>  <TORSDO>
F 4

$$$$
=
 OpenBabel10232411333D

 27 29  0  0  1  0  0  0  0  0999 V2000
  187.0950  176.9900  143.4870 C   0  0  1  0  0  3  0  0  0  0  0  0
  190.4060  176.7520  144.3870 O   0  0  0  0  0  0  0  0  0  0  0  0
  186.1740  177.3810  144.5240 C   0  0  2  0  0  3  0  0  0  0  0  0
  185.9870  177.9830  143.1290 C   0  0  0  0  0  0  0  0  0  0  0  0
  186.6890  178.4610  145.4820 C   0  0  2  0  0  3  0  0  0  0  0  0
  188.8420  177.4040  146.0520 C   0  0  0  0  0  0  0  0  0  0  0  0
  188.4400  177.7180  143.4900 C   0  0  0  0  0  2  0  0  0  0  0  0
  189.2840  177.2650  144.6390 C   0  0  0  0  0  0  0  0  0  0  0  0
  187.6930  177.9150  146.3950 N   0  0  0  0  0  0  0  0  0  0  0  0
  185.3500  178.7760  142.2750 C   0  0  0  0  0  3  0  0  0  0  0  0
  189.7360  176.9100  147.1360 C   0  0  0  0  0  1  0  0  0  0  0  0
  185.7980  179.5830  147.5550 N   0  0  0  0  0  1  0  0  0  0  0  0
  185.5580  179.0470  146.2600 C   0  0  0  0  0  0  0  0  0  0  0  0
  184.3970  179.0850  145.7720 O   0  0  0  0  0  0  0  0  0  0  0  0
  185.2970  179.8250  140.1460 O   0  0  0  0  0  0  0  0  0  0  0  0
  185.7680  178.9110  140.8760 C   0  0  0  0  0  0  0  0  0  0  0  0
  186.7470  177.9650  140.3370 C   0  0  0  0  0  3  0  0  0  0  0  0
  187.8810  178.3740  139.8680 N   0  0  0  0  0  0  0  0  0  0  0  0
  188.8510  177.4330  139.3340 C   0  0  0  0  0  3  0  0  0  0  0  0
  193.0680  176.8840  136.6970 O   0  0  0  0  0  0  0  0  0  0  0  0
  192.7760  176.6490  137.9000 C   0  0  0  0  0  0  0  0  0  0  0  0
  190.3340  176.9330  137.3820 C   0  0  0  0  0  2  0  0  0  0  0  0
  191.4150  176.7150  138.3420 N   0  0  0  0  0  0  0  0  0  0  0  0
  189.3160  177.9110  137.9610 C   0  0  0  0  0  2  0  0  0  0  0  0
  191.0710  176.3380  139.7100 C   0  0  0  0  0  2  0  0  0  0  0  0
  193.7890  176.3330  138.7980 O   0  0  0  0  0  1  0  0  0  0  0  0
  190.0500  177.3180  140.2770 C   0  0  0  0  0  2  0  0  0  0  0  0
  1  7  1  1  0  0  0
  1  3  1  0  0  0  0
  2  8  2  0  0  0  0
  3  4  1  6  0  0  0
  3  5  1  0  0  0  0
  4  1  1  0  0  0  0
  5 13  1  1  0  0  0
  5  9  1  0  0  0  0
  6  9  2  0  0  0  0
  6 11  1  0  0  0  0
  7  8  1  0  0  0  0
  8  6  1  0  0  0  0
 10  4  2  0  0  0  0
 13 12  1  0  0  0  0
 14 13  2  0  0  0  0
 15 16  2  0  0  0  0
 16 10  1  0  0  0  0
 17 16  1  0  0  0  0
 18 17  2  0  0  0  0
 19 18  1  0  0  0  0
 19 27  1  0  0  0  0
 20 21  2  0  0  0  0
 21 23  1  0  0  0  0
 21 26  1  0  0  0  0
 22 24  1  0  0  0  0
 22 23  1  0  0  0  0
 23 25  1  0  0  0  0
 24 19  1  0  0  0  0
 25 27  1  0  0  0  0
M  END
>  <MODEL>
7

>  <REMARK>
 VINA RESULT:      -8.4      1.192      1.653
  Name = 
  4 active torsions:
  status: ('A' for Active; 'I' for Inactive)
    1  A    between atoms: C_4  and  C_11
    2  A    between atoms: C_5  and  N_27
    3  A    between atoms: C_14  and  C_20
    4  A    between atoms: C_14  and  C_24
                            x       y       z     vdW  Elec       q    Type
                         _______ _______ _______ _____ _____    ______ ____

>  <TORSDO>
F 4

$$$$
=
 OpenBabel10232411333D

 27 29  0  0  1  0  0  0  0  0999 V2000
  187.9020  176.9040  144.2770 C   0  0  1  0  0  3  0  0  0  0  0  0
  190.0950  177.2660  146.9030 O   0  0  0  0  0  0  0  0  0  0  0  0
  186.5350  177.2810  144.5270 C   0  0  2  0  0  3  0  0  0  0  0  0
  187.1570  177.6720  143.1840 C   0  0  0  0  0  0  0  0  0  0  0  0
  186.3490  178.5350  145.3890 C   0  0  2  0  0  3  0  0  0  0  0  0
  187.8270  177.8830  147.2500 C   0  0  0  0  0  0  0  0  0  0  0  0
  188.9620  177.8160  144.8980 C   0  0  0  0  0  2  0  0  0  0  0  0
  189.0100  177.6360  146.3830 C   0  0  0  0  0  0  0  0  0  0  0  0
  186.6680  178.2600  146.7890 N   0  0  0  0  0  0  0  0  0  0  0  0
  187.0920  178.2510  141.9910 C   0  0  0  0  0  3  0  0  0  0  0  0
  187.9540  177.6640  148.7180 C   0  0  0  0  0  1  0  0  0  0  0  0
  184.5680  179.8010  144.1340 N   0  0  0  0  0  1  0  0  0  0  0  0
  184.9490  179.0410  145.2740 C   0  0  0  0  0  0  0  0  0  0  0  0
  184.1010  178.7880  146.1690 O   0  0  0  0  0  0  0  0  0  0  0  0
  189.3760  178.6330  141.4650 O   0  0  0  0  0  0  0  0  0  0  0  0
  188.2330  178.2710  141.0710 C   0  0  0  0  0  0  0  0  0  0  0  0
  188.0260  177.8630  139.6800 C   0  0  0  0  0  3  0  0  0  0  0  0
  187.1080  178.4130  138.9540 N   0  0  0  0  0  0  0  0  0  0  0  0
  186.9060  178.0080  137.5730 C   0  0  0  0  0  3  0  0  0  0  0  0
  186.7830  174.1730  134.3610 O   0  0  0  0  0  0  0  0  0  0  0  0
  185.9020  174.9780  134.7640 C   0  0  0  0  0  0  0  0  0  0  0  0
  187.6750  176.4370  135.7840 C   0  0  0  0  0  2  0  0  0  0  0  0
  186.2670  176.1210  135.5470 N   0  0  0  0  0  0  0  0  0  0  0  0
  187.8710  176.8750  137.2320 C   0  0  0  0  0  2  0  0  0  0  0  0
  185.2560  177.1060  135.9190 C   0  0  0  0  0  2  0  0  0  0  0  0
  184.5680  174.7430  134.4480 O   0  0  0  0  0  1  0  0  0  0  0  0
  185.4640  177.5410  137.3660 C   0  0  0  0  0  2  0  0  0  0  0  0
  1  3  1  0  0  0  0
  1  7  1  1  0  0  0
  3  4  1  6  0  0  0
  3  5  1  0  0  0  0
  4  1  1  0  0  0  0
  5 13  1  1  0  0  0
  5  9  1  0  0  0  0
  6 11  1  0  0  0  0
  7  8  1  0  0  0  0
  8  2  2  0  0  0  0
  8  6  1  0  0  0  0
  9  6  2  0  0  0  0
 10  4  2  0  0  0  0
 12 13  1  0  0  0  0
 13 14  2  0  0  0  0
 16 15  2  0  0  0  0
 16 10  1  0  0  0  0
 17 16  1  0  0  0  0
 18 17  2  0  0  0  0
 19 18  1  0  0  0  0
 20 21  2  0  0  0  0
 21 23  1  0  0  0  0
 22 24  1  0  0  0  0
 23 22  1  0  0  0  0
 23 25  1  0  0  0  0
 24 19  1  0  0  0  0
 25 27  1  0  0  0  0
 26 21  1  0  0  0  0
 27 19  1  0  0  0  0
M  END
>  <MODEL>
8

>  <REMARK>
 VINA RESULT:      -8.4      2.819      3.318
  Name = 
  4 active torsions:
  status: ('A' for Active; 'I' for Inactive)
    1  A    between atoms: C_4  and  C_11
    2  A    between atoms: C_5  and  N_27
    3  A    between atoms: C_14  and  C_20
    4  A    between atoms: C_14  and  C_24
                            x       y       z     vdW  Elec       q    Type
                         _______ _______ _______ _____ _____    ______ ____

>  <TORSDO>
F 4

$$$$
=
 OpenBabel10232411333D

 27 29  0  0  1  0  0  0  0  0999 V2000
  189.7050  178.3430  144.6240 C   0  0  1  0  0  3  0  0  0  0  0  0
  186.7420  178.3990  146.3710 O   0  0  0  0  0  0  0  0  0  0  0  0
  190.8540  177.8290  145.3250 C   0  0  2  0  0  3  0  0  0  0  0  0
  190.6640  177.4270  143.8600 C   0  0  0  0  0  0  0  0  0  0  0  0
  190.5820  176.6200  146.2270 C   0  0  2  0  0  3  0  0  0  0  0  0
  188.6700  177.5520  147.4710 C   0  0  0  0  0  0  0  0  0  0  0  0
  188.3920  177.5980  144.8740 C   0  0  0  0  0  2  0  0  0  0  0  0
  187.8810  177.8750  146.2530 C   0  0  0  0  0  0  0  0  0  0  0  0
  189.8580  177.0180  147.4330 N   0  0  0  0  0  0  0  0  0  0  0  0
  191.0430  176.7700  142.7710 C   0  0  0  0  0  3  0  0  0  0  0  0
  188.0950  177.8770  148.8060 C   0  0  0  0  0  1  0  0  0  0  0  0
  192.4850  176.2630  147.8400 N   0  0  0  0  0  1  0  0  0  0  0  0
  191.8650  175.9510  146.5990 C   0  0  0  0  0  0  0  0  0  0  0  0
  192.3910  175.1040  145.8300 O   0  0  0  0  0  0  0  0  0  0  0  0
  189.0170  176.8900  141.5400 O   0  0  0  0  0  0  0  0  0  0  0  0
  190.2770  176.8210  141.5220 C   0  0  0  0  0  0  0  0  0  0  0  0
  190.9970  176.7910  140.2490 C   0  0  0  0  0  3  0  0  0  0  0  0
  190.6210  176.0110  139.2880 N   0  0  0  0  0  0  0  0  0  0  0  0
  191.3370  175.9840  138.0240 C   0  0  0  0  0  3  0  0  0  0  0  0
  195.6870  175.0070  135.7500 O   0  0  0  0  0  1  0  0  0  0  0  0
  194.5440  174.4810  135.6720 C   0  0  0  0  0  0  0  0  0  0  0  0
  193.5470  176.4120  136.9320 C   0  0  0  0  0  2  0  0  0  0  0  0
  193.4160  175.1010  136.3000 N   0  0  0  0  0  0  0  0  0  0  0  0
  192.7790  176.4310  138.2500 C   0  0  0  0  0  2  0  0  0  0  0  0
  192.0790  174.5440  136.1140 C   0  0  0  0  0  2  0  0  0  0  0  0
  194.3910  173.2870  134.9770 O   0  0  0  0  0  0  0  0  0  0  0  0
  191.3180  174.5720  137.4360 C   0  0  0  0  0  2  0  0  0  0  0  0
  1  7  1  1  0  0  0
  1  3  1  0  0  0  0
  3  4  1  6  0  0  0
  3  5  1  0  0  0  0
  4  1  1  0  0  0  0
  5 13  1  1  0  0  0
  5  9  1  0  0  0  0
  6 11  1  0  0  0  0
  7  8  1  0  0  0  0
  8  2  2  0  0  0  0
  8  6  1  0  0  0  0
  9  6  2  0  0  0  0
 10  4  2  0  0  0  0
 13 12  1  0  0  0  0
 14 13  2  0  0  0  0
 16 15  2  0  0  0  0
 16 10  1  0  0  0  0
 17 16  1  0  0  0  0
 18 17  2  0  0  0  0
 19 24  1  0  0  0  0
 19 18  1  0  0  0  0
 21 20  1  0  0  0  0
 21 23  1  0  0  0  0
 22 24  1  0  0  0  0
 23 22  1  0  0  0  0
 25 23  1  0  0  0  0
 25 27  1  0  0  0  0
 26 21  2  0  0  0  0
 27 19  1  0  0  0  0
M  END
>  <MODEL>
9

>  <REMARK>
 VINA RESULT:      -8.3      2.952      4.556
  Name = 
  4 active torsions:
  status: ('A' for Active; 'I' for Inactive)
    1  A    between atoms: C_4  and  C_11
    2  A    between atoms: C_5  and  N_27
    3  A    between atoms: C_14  and  C_20
    4  A    between atoms: C_14  and  C_24
                            x       y       z     vdW  Elec       q    Type
                         _______ _______ _______ _____ _____    ______ ____

>  <TORSDO>
F 4

$$$$
