=
 OpenBabel10232409383D

 35 38  0  0  1  0  0  0  0  0999 V2000
  190.1730  177.9420  142.6630 C   0  0  1  0  0  3  0  0  0  0  0  0
  189.0310  177.0150  142.9630 C   0  0  0  0  0  0  0  0  0  0  0  0
  189.2440  175.7740  143.0510 O   0  0  0  0  0  0  0  0  0  0  0  0
  187.0060  177.3920  144.3820 C   0  0  0  0  0  3  0  0  0  0  0  0
  187.6660  177.5430  143.1550 C   0  0  0  0  0  0  0  0  0  0  0  0
  185.1220  179.4060  141.2330 O   0  0  0  0  0  1  0  0  0  0  0  0
  185.7360  178.7390  142.2860 C   0  0  0  0  0  0  0  0  0  0  0  0
  185.0830  178.5920  143.5220 C   0  0  0  0  0  0  0  0  0  0  0  0
  187.0200  178.2160  142.1100 C   0  0  0  0  0  3  0  0  0  0  0  0
  185.7240  177.9110  144.5680 C   0  0  0  0  0  0  0  0  0  0  0  0
  185.1120  177.7500  145.7680 F   0  0  0  0  0  0  0  0  0  0  0  0
  182.7060  179.5820  143.8740 N   0  0  0  0  0  0  0  0  0  0  0  0
  183.7650  179.1410  143.7180 C   0  0  0  0  0  0  0  0  0  0  0  0
  190.6170  178.7000  143.9070 C   0  0  0  0  0  2  0  0  0  0  0  0
  189.6880  177.8740  146.1390 C   0  0  0  0  0  3  0  0  0  0  0  0
  191.0980  176.1700  146.9380 C   0  0  0  0  0  3  0  0  0  0  0  0
  190.6020  177.8070  145.1010 C   0  0  0  0  0  0  0  0  0  0  0  0
  189.9650  176.9520  147.1590 C   0  0  0  0  0  3  0  0  0  0  0  0
  191.7510  176.6430  145.4610 S   0  0  0  0  0  0  0  0  0  0  0  0
  191.3420  177.1730  142.0720 C   0  0  0  0  0  2  0  0  0  0  0  0
  191.8690  177.9030  140.8500 C   0  0  2  0  0  3  0  0  0  0  0  0
  191.5880  177.1730  139.6950 N   0  0  0  0  0  0  0  0  0  0  0  0
  194.1870  176.9060  140.3830 O   0  0  0  0  0  0  0  0  0  0  0  0
  192.9740  177.2350  140.3420 C   0  0  0  0  0  0  0  0  0  0  0  0
  190.6750  176.6940  138.6720 C   0  0  2  0  0  3  0  0  0  0  0  0
  189.2350  176.9000  139.1300 C   0  0  1  0  0  3  0  0  0  0  0  0
  188.8790  178.3710  139.0980 C   0  0  0  0  0  2  0  0  0  0  0  0
  188.3080  177.4490  138.0400 C   0  0  1  0  0  3  0  0  0  0  0  0
  187.9570  177.8770  135.8990 C   0  0  0  0  0  1  0  0  0  0  0  0
  188.9730  177.6620  136.8300 O   0  0  0  0  0  0  0  0  0  0  0  0
  190.9000  175.3330  138.4500 O   0  0  0  0  0  0  0  0  0  0  0  0
  191.4920  175.2710  137.1860 C   0  0  0  0  0  2  0  0  0  0  0  0
  193.8460  176.1500  137.0030 N   0  0  0  0  0  1  0  0  0  0  0  0
  193.4170  174.0030  137.7780 O   0  0  0  0  0  0  0  0  0  0  0  0
  192.9600  175.0860  137.3300 C   0  0  0  0  0  0  0  0  0  0  0  0
  1 20  1  1  0  0  0
  1  2  1  0  0  0  0
  1 14  1  0  0  0  0
  2  3  2  0  0  0  0
  2  5  1  0  0  0  0
  4 10  1  0  0  0  0
  5  4  2  0  0  0  0
  6  7  1  0  0  0  0
  7  8  1  0  0  0  0
  8 13  1  0  0  0  0
  8 10  2  0  0  0  0
  9  7  2  0  0  0  0
  9  5  1  0  0  0  0
 10 11  1  0  0  0  0
 13 12  3  0  0  0  0
 14 17  1  0  0  0  0
 15 18  1  0  0  0  0
 16 18  2  0  0  0  0
 17 19  1  0  0  0  0
 17 15  2  0  0  0  0
 19 16  1  0  0  0  0
 21 20  1  1  0  0  0
 22 24  1  0  0  0  0
 22 21  1  0  0  0  0
 24 23  2  0  0  0  0
 24 21  1  0  0  0  0
 25 31  1  1  0  0  0
 25 22  1  0  0  0  0
 26 25  1  6  0  0  0
 27 26  1  0  0  0  0
 28 30  1  6  0  0  0
 28 27  1  0  0  0  0
 28 26  1  0  0  0  0
 29 30  1  0  0  0  0
 32 35  1  0  0  0  0
 32 31  1  0  0  0  0
 33 35  1  0  0  0  0
 35 34  2  0  0  0  0
M  END
>  <MODEL>
1

>  <REMARK>
 VINA RESULT:      -7.4      0.000      0.000
  Name = 
  13 active torsions:
  status: ('A' for Active; 'I' for Inactive)
    1  A    between atoms: C_3  and  C_13
    2  A    between atoms: C_3  and  C_16
    3  A    between atoms: O_4  and  C_11
    4  A    between atoms: O_4  and  C_14
    5  A    between atoms: CA_5  and  C_22
    6  A    between atoms: N_6  and  C_11
    7  A    between atoms: C_8  and  C_13
    8  A    between atoms: C_8  and  C_30
    9  A    between atoms: C_11  and  C_19
   10  A    between atoms: C_13  and  C_22
   11  A    between atoms: C_14  and  C_26
   12  A    between atoms: C_23  and  C_31
   13  A    between atoms: O_32  and  C_34
                            x       y       z     vdW  Elec       q    Type
                         _______ _______ _______ _____ _____    ______ ____

>  <TORSDO>
F 13

$$$$
=
 OpenBabel10232409383D

 35 38  0  0  1  0  0  0  0  0999 V2000
  190.2380  178.0220  142.7510 C   0  0  1  0  0  3  0  0  0  0  0  0
  189.1040  177.0670  142.9860 C   0  0  0  0  0  0  0  0  0  0  0  0
  189.3370  175.8280  143.0440 O   0  0  0  0  0  0  0  0  0  0  0  0
  187.0450  177.4050  144.3650 C   0  0  0  0  0  3  0  0  0  0  0  0
  187.7250  177.5660  143.1490 C   0  0  0  0  0  0  0  0  0  0  0  0
  185.1770  179.3640  141.1710 O   0  0  0  0  0  1  0  0  0  0  0  0
  185.7860  178.7150  142.2390 C   0  0  0  0  0  0  0  0  0  0  0  0
  185.1130  178.5600  143.4630 C   0  0  0  0  0  0  0  0  0  0  0  0
  187.0840  178.2200  142.0890 C   0  0  0  0  0  3  0  0  0  0  0  0
  185.7480  177.8970  144.5240 C   0  0  0  0  0  0  0  0  0  0  0  0
  185.1180  177.7270  145.7130 F   0  0  0  0  0  0  0  0  0  0  0  0
  182.7080  179.4970  143.7660 N   0  0  0  0  0  0  0  0  0  0  0  0
  183.7790  179.0800  143.6320 C   0  0  0  0  0  0  0  0  0  0  0  0
  190.6250  178.7550  144.0280 C   0  0  0  0  0  2  0  0  0  0  0  0
  189.6430  177.8640  146.2130 C   0  0  0  0  0  3  0  0  0  0  0  0
  191.0430  176.1480  147.0030 C   0  0  0  0  0  3  0  0  0  0  0  0
  190.5840  177.8300  145.1980 C   0  0  0  0  0  0  0  0  0  0  0  0
  189.9000  176.9170  147.2160 C   0  0  0  0  0  3  0  0  0  0  0  0
  191.7320  176.6640  145.5570 S   0  0  0  0  0  0  0  0  0  0  0  0
  191.4410  177.2890  142.1820 C   0  0  0  0  0  2  0  0  0  0  0  0
  191.7960  177.8660  140.8230 C   0  0  2  0  0  3  0  0  0  0  0  0
  191.4080  176.9890  139.8110 N   0  0  0  0  0  0  0  0  0  0  0  0
  194.0780  176.8660  140.2100 O   0  0  0  0  0  0  0  0  0  0  0  0
  192.8570  177.1610  140.2740 C   0  0  0  0  0  0  0  0  0  0  0  0
  190.4000  176.3630  138.9730 C   0  0  2  0  0  3  0  0  0  0  0  0
  190.8200  176.4540  137.5100 C   0  0  1  0  0  3  0  0  0  0  0  0
  192.0870  175.6580  137.2760 C   0  0  0  0  0  2  0  0  0  0  0  0
  190.7680  175.1160  136.7630 C   0  0  1  0  0  3  0  0  0  0  0  0
  189.3400  173.4300  136.8570 C   0  0  0  0  0  1  0  0  0  0  0  0
  190.3490  174.0640  137.5820 O   0  0  0  0  0  0  0  0  0  0  0  0
  189.1800  177.0210  139.1470 O   0  0  0  0  0  0  0  0  0  0  0  0
  189.2370  178.1130  138.2780 C   0  0  0  0  0  2  0  0  0  0  0  0
  186.9930  177.1940  137.5930 N   0  0  0  0  0  1  0  0  0  0  0  0
  187.6530  179.3380  136.9910 O   0  0  0  0  0  0  0  0  0  0  0  0
  187.9370  178.2590  137.5730 C   0  0  0  0  0  0  0  0  0  0  0  0
  1 20  1  1  0  0  0
  1  2  1  0  0  0  0
  1 14  1  0  0  0  0
  2  3  2  0  0  0  0
  2  5  1  0  0  0  0
  4 10  1  0  0  0  0
  5  4  2  0  0  0  0
  6  7  1  0  0  0  0
  7  8  1  0  0  0  0
  8 13  1  0  0  0  0
  8 10  2  0  0  0  0
  9  7  2  0  0  0  0
  9  5  1  0  0  0  0
 10 11  1  0  0  0  0
 13 12  3  0  0  0  0
 14 17  1  0  0  0  0
 15 18  1  0  0  0  0
 16 18  2  0  0  0  0
 17 19  1  0  0  0  0
 17 15  2  0  0  0  0
 19 16  1  0  0  0  0
 21 20  1  1  0  0  0
 22 24  1  0  0  0  0
 22 21  1  0  0  0  0
 23 24  2  0  0  0  0
 24 21  1  0  0  0  0
 25 31  1  6  0  0  0
 25 22  1  0  0  0  0
 26 25  1  1  0  0  0
 27 26  1  0  0  0  0
 28 27  1  0  0  0  0
 28 26  1  0  0  0  0
 28 30  1  1  0  0  0
 29 30  1  0  0  0  0
 32 31  1  0  0  0  0
 34 35  2  0  0  0  0
 35 33  1  0  0  0  0
 35 32  1  0  0  0  0
M  END
>  <MODEL>
2

>  <REMARK>
 VINA RESULT:      -7.3      1.218      2.645
  Name = 
  13 active torsions:
  status: ('A' for Active; 'I' for Inactive)
    1  A    between atoms: C_3  and  C_13
    2  A    between atoms: C_3  and  C_16
    3  A    between atoms: O_4  and  C_11
    4  A    between atoms: O_4  and  C_14
    5  A    between atoms: CA_5  and  C_22
    6  A    between atoms: N_6  and  C_11
    7  A    between atoms: C_8  and  C_13
    8  A    between atoms: C_8  and  C_30
    9  A    between atoms: C_11  and  C_19
   10  A    between atoms: C_13  and  C_22
   11  A    between atoms: C_14  and  C_26
   12  A    between atoms: C_23  and  C_31
   13  A    between atoms: O_32  and  C_34
                            x       y       z     vdW  Elec       q    Type
                         _______ _______ _______ _____ _____    ______ ____

>  <TORSDO>
F 13

$$$$
=
 OpenBabel10232409383D

 35 38  0  0  1  0  0  0  0  0999 V2000
  187.8070  177.8160  142.7940 C   0  0  1  0  0  3  0  0  0  0  0  0
  186.7840  178.5600  141.9860 C   0  0  0  0  0  0  0  0  0  0  0  0
  187.1360  179.1450  140.9240 O   0  0  0  0  0  0  0  0  0  0  0  0
  185.0500  178.8790  143.7590 C   0  0  0  0  0  3  0  0  0  0  0  0
  185.3750  178.6110  142.4230 C   0  0  0  0  0  0  0  0  0  0  0  0
  182.0060  178.2660  140.9520 O   0  0  0  0  0  1  0  0  0  0  0  0
  183.0070  178.4710  141.8940 C   0  0  0  0  0  0  0  0  0  0  0  0
  182.6860  178.7490  143.2340 C   0  0  0  0  0  0  0  0  0  0  0  0
  184.3450  178.4040  141.4970 C   0  0  0  0  0  3  0  0  0  0  0  0
  183.7160  178.9480  144.1660 C   0  0  0  0  0  0  0  0  0  0  0  0
  183.4330  179.2110  145.4660 F   0  0  0  0  0  0  0  0  0  0  0  0
  180.2030  178.9050  143.9840 N   0  0  0  0  0  0  0  0  0  0  0  0
  181.3090  178.8340  143.6500 C   0  0  0  0  0  0  0  0  0  0  0  0
  187.1600  177.0300  143.9260 C   0  0  0  0  0  2  0  0  0  0  0  0
  187.3210  177.6140  146.4090 C   0  0  0  0  0  3  0  0  0  0  0  0
  189.5920  177.6160  147.0190 C   0  0  0  0  0  3  0  0  0  0  0  0
  187.8970  177.2460  145.2060 C   0  0  0  0  0  0  0  0  0  0  0  0
  188.2710  177.8120  147.4220 C   0  0  0  0  0  3  0  0  0  0  0  0
  189.5610  177.1970  145.3900 S   0  0  0  0  0  0  0  0  0  0  0  0
  188.6150  176.8870  141.9050 C   0  0  0  0  0  2  0  0  0  0  0  0
  189.7030  177.6740  141.1970 C   0  0  2  0  0  3  0  0  0  0  0  0
  190.3140  176.8850  140.2240 N   0  0  0  0  0  0  0  0  0  0  0  0
  191.8900  177.0940  142.4100 O   0  0  0  0  0  0  0  0  0  0  0  0
  190.9510  177.2020  141.5790 C   0  0  0  0  0  0  0  0  0  0  0  0
  190.3290  176.2320  138.9260 C   0  0  2  0  0  3  0  0  0  0  0  0
  191.4710  176.7900  138.0840 C   0  0  1  0  0  3  0  0  0  0  0  0
  192.8050  176.4550  138.7170 C   0  0  0  0  0  2  0  0  0  0  0  0
  192.3730  175.7150  137.4670 C   0  0  1  0  0  3  0  0  0  0  0  0
  192.0860  173.6890  136.6270 C   0  0  0  0  0  1  0  0  0  0  0  0
  191.9710  174.4210  137.8090 O   0  0  0  0  0  0  0  0  0  0  0  0
  189.1160  176.4670  138.2760 O   0  0  0  0  0  0  0  0  0  0  0  0
  189.3990  177.4680  137.3430 C   0  0  0  0  0  2  0  0  0  0  0  0
  187.0790  178.4170  137.6020 N   0  0  0  0  0  1  0  0  0  0  0  0
  188.9590  179.7740  137.7360 O   0  0  0  0  0  0  0  0  0  0  0  0
  188.4860  178.6220  137.5560 C   0  0  0  0  0  0  0  0  0  0  0  0
  1 20  1  6  0  0  0
  1 14  1  0  0  0  0
  2  5  1  0  0  0  0
  2  1  1  0  0  0  0
  3  2  2  0  0  0  0
  4 10  1  0  0  0  0
  5  4  2  0  0  0  0
  6  7  1  0  0  0  0
  7  8  1  0  0  0  0
  8 13  1  0  0  0  0
  8 10  2  0  0  0  0
  9  7  2  0  0  0  0
  9  5  1  0  0  0  0
 10 11  1  0  0  0  0
 13 12  3  0  0  0  0
 14 17  1  0  0  0  0
 15 18  1  0  0  0  0
 16 18  2  0  0  0  0
 17 19  1  0  0  0  0
 17 15  2  0  0  0  0
 19 16  1  0  0  0  0
 21 24  1  0  0  0  0
 21 20  1  1  0  0  0
 22 21  1  0  0  0  0
 22 24  1  0  0  0  0
 24 23  2  0  0  0  0
 25 31  1  6  0  0  0
 25 22  1  0  0  0  0
 26 27  1  0  0  0  0
 26 25  1  1  0  0  0
 28 30  1  1  0  0  0
 28 26  1  0  0  0  0
 28 27  1  0  0  0  0
 29 30  1  0  0  0  0
 32 35  1  0  0  0  0
 32 31  1  0  0  0  0
 35 33  1  0  0  0  0
 35 34  2  0  0  0  0
M  END
>  <MODEL>
3

>  <REMARK>
 VINA RESULT:      -7.2      1.873      3.488
  Name = 
  13 active torsions:
  status: ('A' for Active; 'I' for Inactive)
    1  A    between atoms: C_3  and  C_13
    2  A    between atoms: C_3  and  C_16
    3  A    between atoms: O_4  and  C_11
    4  A    between atoms: O_4  and  C_14
    5  A    between atoms: CA_5  and  C_22
    6  A    between atoms: N_6  and  C_11
    7  A    between atoms: C_8  and  C_13
    8  A    between atoms: C_8  and  C_30
    9  A    between atoms: C_11  and  C_19
   10  A    between atoms: C_13  and  C_22
   11  A    between atoms: C_14  and  C_26
   12  A    between atoms: C_23  and  C_31
   13  A    between atoms: O_32  and  C_34
                            x       y       z     vdW  Elec       q    Type
                         _______ _______ _______ _____ _____    ______ ____

>  <TORSDO>
F 13

$$$$
=
 OpenBabel10232409383D

 35 38  0  0  1  0  0  0  0  0999 V2000
  188.4980  177.4010  141.3710 C   0  0  1  0  0  3  0  0  0  0  0  0
  189.2910  176.6720  142.4180 C   0  0  0  0  0  0  0  0  0  0  0  0
  190.1650  175.8340  142.0630 O   0  0  0  0  0  0  0  0  0  0  0  0
  190.1300  177.0760  144.7380 C   0  0  0  0  0  3  0  0  0  0  0  0
  189.0550  176.9280  143.8520 C   0  0  0  0  0  0  0  0  0  0  0  0
  186.2020  177.4130  146.1460 O   0  0  0  0  0  1  0  0  0  0  0  0
  187.5110  177.3030  145.6920 C   0  0  0  0  0  0  0  0  0  0  0  0
  188.5930  177.4600  146.5740 C   0  0  0  0  0  0  0  0  0  0  0  0
  187.7470  177.0390  144.3400 C   0  0  0  0  0  3  0  0  0  0  0  0
  189.9050  177.3400  146.0910 C   0  0  0  0  0  0  0  0  0  0  0  0
  190.9670  177.4800  146.9230 F   0  0  0  0  0  0  0  0  0  0  0  0
  188.1760  177.9770  149.0870 N   0  0  0  0  0  0  0  0  0  0  0  0
  188.3610  177.7470  147.9680 C   0  0  0  0  0  0  0  0  0  0  0  0
  187.8300  178.6440  141.9440 C   0  0  0  0  0  2  0  0  0  0  0  0
  185.8220  178.7720  140.3680 C   0  0  0  0  0  3  0  0  0  0  0  0
  183.8630  178.7340  141.6670 C   0  0  0  0  0  3  0  0  0  0  0  0
  186.3710  178.6470  141.6320 C   0  0  0  0  0  0  0  0  0  0  0  0
  184.4200  178.8130  140.3910 C   0  0  0  0  0  3  0  0  0  0  0  0
  185.1350  178.6170  142.7630 S   0  0  0  0  0  0  0  0  0  0  0  0
  189.3860  177.7770  140.1980 C   0  0  0  0  0  2  0  0  0  0  0  0
  188.6760  177.4540  138.8950 C   0  0  2  0  0  3  0  0  0  0  0  0
  189.5850  176.9610  137.9600 N   0  0  0  0  0  0  0  0  0  0  0  0
  188.9520  179.5310  137.4130 O   0  0  0  0  0  0  0  0  0  0  0  0
  189.0230  178.3850  137.9260 C   0  0  0  0  0  0  0  0  0  0  0  0
  190.4380  175.9110  137.4320 C   0  0  2  0  0  3  0  0  0  0  0  0
  189.5790  174.7610  136.9170 C   0  0  1  0  0  3  0  0  0  0  0  0
  188.8680  175.1660  135.6420 C   0  0  0  0  0  2  0  0  0  0  0  0
  190.0340  174.2010  135.5650 C   0  0  1  0  0  3  0  0  0  0  0  0
  192.0510  173.8520  134.7250 C   0  0  0  0  0  1  0  0  0  0  0  0
  191.1550  174.8670  135.0610 O   0  0  0  0  0  0  0  0  0  0  0  0
  191.2790  175.4440  138.4440 O   0  0  0  0  0  0  0  0  0  0  0  0
  192.3620  176.3270  138.4440 C   0  0  0  0  0  2  0  0  0  0  0  0
  194.1250  176.5490  136.6570 N   0  0  0  0  0  1  0  0  0  0  0  0
  193.8640  174.5770  137.8560 O   0  0  0  0  0  0  0  0  0  0  0  0
  193.4730  175.7530  137.6410 C   0  0  0  0  0  0  0  0  0  0  0  0
  1 20  1  6  0  0  0
  1 14  1  0  0  0  0
  1  2  1  0  0  0  0
  2  5  1  0  0  0  0
  3  2  2  0  0  0  0
  4 10  1  0  0  0  0
  5  9  1  0  0  0  0
  5  4  2  0  0  0  0
  7  6  1  0  0  0  0
  7  8  1  0  0  0  0
  8 13  1  0  0  0  0
  9  7  2  0  0  0  0
 10  8  2  0  0  0  0
 10 11  1  0  0  0  0
 13 12  3  0  0  0  0
 15 18  1  0  0  0  0
 15 17  2  0  0  0  0
 16 19  1  0  0  0  0
 17 14  1  0  0  0  0
 17 19  1  0  0  0  0
 18 16  2  0  0  0  0
 21 20  1  1  0  0  0
 22 21  1  0  0  0  0
 23 24  2  0  0  0  0
 24 22  1  0  0  0  0
 24 21  1  0  0  0  0
 25 22  1  0  0  0  0
 25 31  1  1  0  0  0
 26 25  1  6  0  0  0
 27 26  1  0  0  0  0
 28 30  1  6  0  0  0
 28 27  1  0  0  0  0
 28 26  1  0  0  0  0
 29 30  1  0  0  0  0
 31 32  1  0  0  0  0
 33 35  1  0  0  0  0
 35 34  2  0  0  0  0
 35 32  1  0  0  0  0
M  END
>  <MODEL>
4

>  <REMARK>
 VINA RESULT:      -6.9      2.749      4.688
  Name = 
  13 active torsions:
  status: ('A' for Active; 'I' for Inactive)
    1  A    between atoms: C_3  and  C_13
    2  A    between atoms: C_3  and  C_16
    3  A    between atoms: O_4  and  C_11
    4  A    between atoms: O_4  and  C_14
    5  A    between atoms: CA_5  and  C_22
    6  A    between atoms: N_6  and  C_11
    7  A    between atoms: C_8  and  C_13
    8  A    between atoms: C_8  and  C_30
    9  A    between atoms: C_11  and  C_19
   10  A    between atoms: C_13  and  C_22
   11  A    between atoms: C_14  and  C_26
   12  A    between atoms: C_23  and  C_31
   13  A    between atoms: O_32  and  C_34
                            x       y       z     vdW  Elec       q    Type
                         _______ _______ _______ _____ _____    ______ ____

>  <TORSDO>
F 13

$$$$
=
 OpenBabel10232409383D

 35 38  0  0  1  0  0  0  0  0999 V2000
  184.9830  177.9930  138.4670 C   0  0  1  0  0  3  0  0  0  0  0  0
  184.8050  179.0370  139.5310 C   0  0  0  0  0  0  0  0  0  0  0  0
  184.3570  180.1750  139.2170 O   0  0  0  0  0  0  0  0  0  0  0  0
  186.4790  178.5010  141.3100 C   0  0  0  0  0  3  0  0  0  0  0  0
  185.1500  178.7440  140.9350 C   0  0  0  0  0  0  0  0  0  0  0  0
  183.4510  178.4510  144.2010 O   0  0  0  0  0  1  0  0  0  0  0  0
  184.4660  178.4640  143.2510 C   0  0  0  0  0  0  0  0  0  0  0  0
  185.8010  178.2310  143.6230 C   0  0  0  0  0  0  0  0  0  0  0  0
  184.1490  178.7190  141.9150 C   0  0  0  0  0  3  0  0  0  0  0  0
  186.8060  178.2450  142.6440 C   0  0  0  0  0  0  0  0  0  0  0  0
  188.1010  178.0160  142.9750 F   0  0  0  0  0  0  0  0  0  0  0  0
  186.4110  177.7810  146.1090 N   0  0  0  0  0  0  0  0  0  0  0  0
  186.1400  177.9810  145.0010 C   0  0  0  0  0  0  0  0  0  0  0  0
  183.7070  177.7990  137.6580 C   0  0  0  0  0  2  0  0  0  0  0  0
  182.6150  175.9550  139.0470 C   0  0  0  0  0  3  0  0  0  0  0  0
  180.5050  176.7160  139.7520 C   0  0  0  0  0  3  0  0  0  0  0  0
  182.6240  177.2300  138.5100 C   0  0  0  0  0  0  0  0  0  0  0  0
  181.4320  175.6750  139.7470 C   0  0  0  0  0  3  0  0  0  0  0  0
  181.1730  177.9860  138.8730 S   0  0  0  0  0  0  0  0  0  0  0  0
  186.1360  178.3580  137.5500 C   0  0  0  0  0  2  0  0  0  0  0  0
  186.6710  177.1060  136.8770 C   0  0  2  0  0  3  0  0  0  0  0  0
  188.0520  177.0210  137.0460 N   0  0  0  0  0  0  0  0  0  0  0  0
  187.4470  177.8410  134.5430 O   0  0  0  0  0  0  0  0  0  0  0  0
  187.3840  177.4520  135.7380 C   0  0  0  0  0  0  0  0  0  0  0  0
  189.2310  176.7540  137.8520 C   0  0  2  0  0  3  0  0  0  0  0  0
  189.7550  175.3540  137.5490 C   0  0  1  0  0  3  0  0  0  0  0  0
  190.2930  175.2890  136.1350 C   0  0  0  0  0  2  0  0  0  0  0  0
  191.2650  175.2960  137.2970 C   0  0  1  0  0  3  0  0  0  0  0  0
  193.2380  176.2850  137.4540 C   0  0  0  0  0  1  0  0  0  0  0  0
  191.8710  176.5530  137.3880 O   0  0  0  0  0  0  0  0  0  0  0  0
  188.8960  176.8410  139.2050 O   0  0  0  0  0  0  0  0  0  0  0  0
  189.7960  177.7680  139.7370 C   0  0  0  0  0  2  0  0  0  0  0  0
  192.0360  177.5290  140.8660 N   0  0  0  0  0  1  0  0  0  0  0  0
  190.2480  176.1580  141.4310 O   0  0  0  0  0  0  0  0  0  0  0  0
  190.6910  177.0920  140.7120 C   0  0  0  0  0  0  0  0  0  0  0  0
  1 20  1  6  0  0  0
  1  2  1  0  0  0  0
  2  5  1  0  0  0  0
  3  2  2  0  0  0  0
  4 10  1  0  0  0  0
  5  4  2  0  0  0  0
  5  9  1  0  0  0  0
  7  8  1  0  0  0  0
  7  6  1  0  0  0  0
  8 13  1  0  0  0  0
  9  7  2  0  0  0  0
 10 11  1  0  0  0  0
 10  8  2  0  0  0  0
 13 12  3  0  0  0  0
 14  1  1  0  0  0  0
 14 17  1  0  0  0  0
 15 18  1  0  0  0  0
 17 19  1  0  0  0  0
 17 15  2  0  0  0  0
 18 16  2  0  0  0  0
 19 16  1  0  0  0  0
 21 22  1  0  0  0  0
 21 20  1  1  0  0  0
 22 25  1  0  0  0  0
 23 24  2  0  0  0  0
 24 21  1  0  0  0  0
 24 22  1  0  0  0  0
 25 31  1  1  0  0  0
 26 25  1  6  0  0  0
 27 28  1  0  0  0  0
 27 26  1  0  0  0  0
 28 30  1  6  0  0  0
 28 26  1  0  0  0  0
 30 29  1  0  0  0  0
 31 32  1  0  0  0  0
 32 35  1  0  0  0  0
 35 33  1  0  0  0  0
 35 34  2  0  0  0  0
M  END
>  <MODEL>
5

>  <REMARK>
 VINA RESULT:      -6.8      3.571      6.341
  Name = 
  13 active torsions:
  status: ('A' for Active; 'I' for Inactive)
    1  A    between atoms: C_3  and  C_13
    2  A    between atoms: C_3  and  C_16
    3  A    between atoms: O_4  and  C_11
    4  A    between atoms: O_4  and  C_14
    5  A    between atoms: CA_5  and  C_22
    6  A    between atoms: N_6  and  C_11
    7  A    between atoms: C_8  and  C_13
    8  A    between atoms: C_8  and  C_30
    9  A    between atoms: C_11  and  C_19
   10  A    between atoms: C_13  and  C_22
   11  A    between atoms: C_14  and  C_26
   12  A    between atoms: C_23  and  C_31
   13  A    between atoms: O_32  and  C_34
                            x       y       z     vdW  Elec       q    Type
                         _______ _______ _______ _____ _____    ______ ____

>  <TORSDO>
F 13

$$$$
=
 OpenBabel10232409383D

 35 38  0  0  1  0  0  0  0  0999 V2000
  190.5260  177.5840  142.2880 C   0  0  1  0  0  3  0  0  0  0  0  0
  189.3930  176.6850  142.6900 C   0  0  0  0  0  0  0  0  0  0  0  0
  189.5750  175.4370  142.7320 O   0  0  0  0  0  0  0  0  0  0  0  0
  187.4890  176.9900  144.2820 C   0  0  0  0  0  3  0  0  0  0  0  0
  188.0740  177.2490  143.0350 C   0  0  0  0  0  0  0  0  0  0  0  0
  185.5100  179.4290  141.5140 O   0  0  0  0  0  1  0  0  0  0  0  0
  186.1560  178.6200  142.4420 C   0  0  0  0  0  0  0  0  0  0  0  0
  185.5790  178.3660  143.6980 C   0  0  0  0  0  0  0  0  0  0  0  0
  187.3960  178.0630  142.1190 C   0  0  0  0  0  3  0  0  0  0  0  0
  186.2500  177.5430  144.6150 C   0  0  0  0  0  0  0  0  0  0  0  0
  185.7120  177.2750  145.8310 F   0  0  0  0  0  0  0  0  0  0  0  0
  183.2850  179.4130  144.3270 N   0  0  0  0  0  0  0  0  0  0  0  0
  184.3070  178.9470  144.0470 C   0  0  0  0  0  0  0  0  0  0  0  0
  191.7010  177.4630  143.2490 C   0  0  0  0  0  2  0  0  0  0  0  0
  190.3940  178.2340  145.3040 C   0  0  0  0  0  3  0  0  0  0  0  0
  190.8220  176.7270  147.0570 C   0  0  0  0  0  3  0  0  0  0  0  0
  191.2210  177.3340  144.6550 C   0  0  0  0  0  0  0  0  0  0  0  0
  190.1680  177.8870  146.6440 C   0  0  0  0  0  3  0  0  0  0  0  0
  191.6870  176.1430  145.7370 S   0  0  0  0  0  0  0  0  0  0  0  0
  190.9730  177.2750  140.8700 C   0  0  0  0  0  2  0  0  0  0  0  0
  189.7680  176.9070  140.0230 C   0  0  2  0  0  3  0  0  0  0  0  0
  190.1770  176.5110  138.7500 N   0  0  0  0  0  0  0  0  0  0  0  0
  189.1760  179.0210  138.6920 O   0  0  0  0  0  0  0  0  0  0  0  0
  189.5600  177.8790  139.0540 C   0  0  0  0  0  0  0  0  0  0  0  0
  190.7660  175.5500  137.8330 C   0  0  2  0  0  3  0  0  0  0  0  0
  191.8750  176.2200  137.0290 C   0  0  1  0  0  3  0  0  0  0  0  0
  193.0410  176.5680  137.9310 C   0  0  0  0  0  2  0  0  0  0  0  0
  193.1740  175.4080  136.9650 C   0  0  1  0  0  3  0  0  0  0  0  0
  194.4110  173.8350  137.9080 C   0  0  0  0  0  1  0  0  0  0  0  0
  193.0870  174.2050  137.6710 O   0  0  0  0  0  0  0  0  0  0  0  0
  189.7820  175.0790  136.9620 O   0  0  0  0  0  0  0  0  0  0  0  0
  189.7020  176.0460  135.9570 C   0  0  0  0  0  2  0  0  0  0  0  0
  187.9700  177.7960  135.4190 N   0  0  0  0  0  1  0  0  0  0  0  0
  187.3650  175.6000  135.8750 O   0  0  0  0  0  0  0  0  0  0  0  0
  188.2850  176.4520  135.7670 C   0  0  0  0  0  0  0  0  0  0  0  0
  1 20  1  6  0  0  0
  1  2  1  0  0  0  0
  1 14  1  0  0  0  0
  2  3  2  0  0  0  0
  2  5  1  0  0  0  0
  4 10  1  0  0  0  0
  5  4  2  0  0  0  0
  6  7  1  0  0  0  0
  7  8  1  0  0  0  0
  8 13  1  0  0  0  0
  8 10  2  0  0  0  0
  9  7  2  0  0  0  0
  9  5  1  0  0  0  0
 10 11  1  0  0  0  0
 13 12  3  0  0  0  0
 14 17  1  0  0  0  0
 15 18  1  0  0  0  0
 17 15  2  0  0  0  0
 17 19  1  0  0  0  0
 18 16  2  0  0  0  0
 19 16  1  0  0  0  0
 21 20  1  1  0  0  0
 22 24  1  0  0  0  0
 22 21  1  0  0  0  0
 23 24  2  0  0  0  0
 24 21  1  0  0  0  0
 25 31  1  6  0  0  0
 25 22  1  0  0  0  0
 26 25  1  1  0  0  0
 26 27  1  0  0  0  0
 28 26  1  0  0  0  0
 28 30  1  1  0  0  0
 28 27  1  0  0  0  0
 30 29  1  0  0  0  0
 32 31  1  0  0  0  0
 33 35  1  0  0  0  0
 35 34  2  0  0  0  0
 35 32  1  0  0  0  0
M  END
>  <MODEL>
6

>  <REMARK>
 VINA RESULT:      -6.8      1.510      3.130
  Name = 
  13 active torsions:
  status: ('A' for Active; 'I' for Inactive)
    1  A    between atoms: C_3  and  C_13
    2  A    between atoms: C_3  and  C_16
    3  A    between atoms: O_4  and  C_11
    4  A    between atoms: O_4  and  C_14
    5  A    between atoms: CA_5  and  C_22
    6  A    between atoms: N_6  and  C_11
    7  A    between atoms: C_8  and  C_13
    8  A    between atoms: C_8  and  C_30
    9  A    between atoms: C_11  and  C_19
   10  A    between atoms: C_13  and  C_22
   11  A    between atoms: C_14  and  C_26
   12  A    between atoms: C_23  and  C_31
   13  A    between atoms: O_32  and  C_34
                            x       y       z     vdW  Elec       q    Type
                         _______ _______ _______ _____ _____    ______ ____

>  <TORSDO>
F 13

$$$$
=
 OpenBabel10232409383D

 35 38  0  0  1  0  0  0  0  0999 V2000
  187.1630  178.4460  142.9400 C   0  0  1  0  0  3  0  0  0  0  0  0
  186.9920  178.0380  144.3750 C   0  0  0  0  0  0  0  0  0  0  0  0
  185.8350  178.0080  144.8790 O   0  0  0  0  0  0  0  0  0  0  0  0
  188.0910  177.6970  146.5950 C   0  0  0  0  0  3  0  0  0  0  0  0
  188.1630  177.6720  145.1950 C   0  0  0  0  0  0  0  0  0  0  0  0
  191.6390  176.5250  144.7060 O   0  0  0  0  0  1  0  0  0  0  0  0
  190.4670  176.9130  145.3460 C   0  0  0  0  0  0  0  0  0  0  0  0
  190.3870  176.9310  146.7490 C   0  0  0  0  0  0  0  0  0  0  0  0
  189.3590  177.2820  144.5790 C   0  0  0  0  0  3  0  0  0  0  0  0
  189.1930  177.3300  147.3700 C   0  0  0  0  0  0  0  0  0  0  0  0
  189.0920  177.3620  148.7220 F   0  0  0  0  0  0  0  0  0  0  0  0
  192.4310  176.2240  148.1890 N   0  0  0  0  0  0  0  0  0  0  0  0
  191.5200  176.5380  147.5480 C   0  0  0  0  0  0  0  0  0  0  0  0
  187.3710  177.2380  142.0370 C   0  0  0  0  0  2  0  0  0  0  0  0
  188.5110  178.2200  139.9720 C   0  0  0  0  0  3  0  0  0  0  0  0
  190.7070  177.3840  139.8760 C   0  0  0  0  0  3  0  0  0  0  0  0
  188.5310  177.4560  141.1250 C   0  0  0  0  0  0  0  0  0  0  0  0
  189.7320  178.1840  139.2810 C   0  0  0  0  0  3  0  0  0  0  0  0
  190.0310  176.7220  141.2680 S   0  0  0  0  0  0  0  0  0  0  0  0
  185.9650  179.2530  142.4710 C   0  0  0  0  0  2  0  0  0  0  0  0
  184.9270  178.3230  141.8690 C   0  0  2  0  0  3  0  0  0  0  0  0
  184.2060  178.9830  140.8740 N   0  0  0  0  0  0  0  0  0  0  0  0
  182.7470  178.7890  143.1400 O   0  0  0  0  0  0  0  0  0  0  0  0
  183.6570  178.7070  142.2760 C   0  0  0  0  0  0  0  0  0  0  0  0
  184.0790  179.5380  139.5380 C   0  0  2  0  0  3  0  0  0  0  0  0
  182.9040  178.8810  138.8200 C   0  0  1  0  0  3  0  0  0  0  0  0
  181.6130  179.1570  139.5610 C   0  0  0  0  0  2  0  0  0  0  0  0
  181.8850  179.8770  138.2560 C   0  0  1  0  0  3  0  0  0  0  0  0
  181.1770  181.9580  138.0040 C   0  0  0  0  0  1  0  0  0  0  0  0
  182.2320  181.2050  138.5210 O   0  0  0  0  0  0  0  0  0  0  0  0
  185.2530  179.2960  138.8220 O   0  0  0  0  0  0  0  0  0  0  0  0
  185.0380  178.0710  138.1860 C   0  0  0  0  0  2  0  0  0  0  0  0
  187.0510  178.7880  136.8510 N   0  0  0  0  0  1  0  0  0  0  0  0
  186.4580  176.5500  137.0310 O   0  0  0  0  0  0  0  0  0  0  0  0
  186.2010  177.7470  137.3190 C   0  0  0  0  0  0  0  0  0  0  0  0
  1 14  1  6  0  0  0
  1  2  1  0  0  0  0
  2  3  2  0  0  0  0
  2  5  1  0  0  0  0
  4 10  1  0  0  0  0
  5  4  2  0  0  0  0
  6  7  1  0  0  0  0
  7  8  1  0  0  0  0
  8 10  2  0  0  0  0
  8 13  1  0  0  0  0
  9  5  1  0  0  0  0
  9  7  2  0  0  0  0
 10 11  1  0  0  0  0
 13 12  3  0  0  0  0
 15 17  2  0  0  0  0
 16 19  1  0  0  0  0
 17 19  1  0  0  0  0
 17 14  1  0  0  0  0
 18 16  2  0  0  0  0
 18 15  1  0  0  0  0
 20  1  1  0  0  0  0
 21 24  1  0  0  0  0
 21 20  1  1  0  0  0
 22 21  1  0  0  0  0
 22 24  1  0  0  0  0
 24 23  2  0  0  0  0
 25 31  1  6  0  0  0
 25 22  1  0  0  0  0
 26 25  1  1  0  0  0
 26 27  1  0  0  0  0
 28 30  1  1  0  0  0
 28 26  1  0  0  0  0
 28 27  1  0  0  0  0
 29 30  1  0  0  0  0
 32 31  1  0  0  0  0
 33 35  1  0  0  0  0
 34 35  2  0  0  0  0
 35 32  1  0  0  0  0
M  END
>  <MODEL>
7

>  <REMARK>
 VINA RESULT:      -6.8      3.383      6.809
  Name = 
  13 active torsions:
  status: ('A' for Active; 'I' for Inactive)
    1  A    between atoms: C_3  and  C_13
    2  A    between atoms: C_3  and  C_16
    3  A    between atoms: O_4  and  C_11
    4  A    between atoms: O_4  and  C_14
    5  A    between atoms: CA_5  and  C_22
    6  A    between atoms: N_6  and  C_11
    7  A    between atoms: C_8  and  C_13
    8  A    between atoms: C_8  and  C_30
    9  A    between atoms: C_11  and  C_19
   10  A    between atoms: C_13  and  C_22
   11  A    between atoms: C_14  and  C_26
   12  A    between atoms: C_23  and  C_31
   13  A    between atoms: O_32  and  C_34
                            x       y       z     vdW  Elec       q    Type
                         _______ _______ _______ _____ _____    ______ ____

>  <TORSDO>
F 13

$$$$
=
 OpenBabel10232409383D

 35 38  0  0  1  0  0  0  0  0999 V2000
  187.6200  177.8490  142.8840 C   0  0  1  0  0  3  0  0  0  0  0  0
  186.5730  178.4670  142.0020 C   0  0  0  0  0  0  0  0  0  0  0  0
  186.8990  178.9040  140.8640 O   0  0  0  0  0  0  0  0  0  0  0  0
  184.1140  178.3840  141.5560 C   0  0  0  0  0  3  0  0  0  0  0  0
  185.1730  178.5660  142.4560 C   0  0  0  0  0  0  0  0  0  0  0  0
  183.3130  179.1650  145.5900 O   0  0  0  0  0  1  0  0  0  0  0  0
  183.5650  178.9060  144.2480 C   0  0  0  0  0  0  0  0  0  0  0  0
  182.5080  178.7140  143.3420 C   0  0  0  0  0  0  0  0  0  0  0  0
  184.8870  178.8310  143.8020 C   0  0  0  0  0  3  0  0  0  0  0  0
  182.7900  178.4570  141.9920 C   0  0  0  0  0  0  0  0  0  0  0  0
  181.7870  178.2750  141.0960 F   0  0  0  0  0  0  0  0  0  0  0  0
  180.0420  178.8240  144.1580 N   0  0  0  0  0  0  0  0  0  0  0  0
  181.1410  178.7750  143.7960 C   0  0  0  0  0  0  0  0  0  0  0  0
  186.9950  176.9790  143.9660 C   0  0  0  0  0  2  0  0  0  0  0  0
  186.9700  177.6680  146.4260 C   0  0  0  0  0  3  0  0  0  0  0  0
  189.1870  177.6780  147.2110 C   0  0  0  0  0  3  0  0  0  0  0  0
  187.6330  177.2440  145.2880 C   0  0  0  0  0  0  0  0  0  0  0  0
  187.8410  177.9020  147.5010 C   0  0  0  0  0  3  0  0  0  0  0  0
  189.2770  177.1890  145.6030 S   0  0  0  0  0  0  0  0  0  0  0  0
  188.5990  177.0350  142.0560 C   0  0  0  0  0  2  0  0  0  0  0  0
  189.9090  177.7910  141.9240 C   0  0  2  0  0  3  0  0  0  0  0  0
  190.5850  177.3850  140.7740 N   0  0  0  0  0  0  0  0  0  0  0  0
  191.6990  176.2810  142.9740 O   0  0  0  0  0  0  0  0  0  0  0  0
  190.9730  176.9390  142.1860 C   0  0  0  0  0  0  0  0  0  0  0  0
  190.7690  177.3710  139.3330 C   0  0  2  0  0  3  0  0  0  0  0  0
  189.8330  176.3430  138.7060 C   0  0  1  0  0  3  0  0  0  0  0  0
  188.4230  176.8910  138.6320 C   0  0  0  0  0  2  0  0  0  0  0  0
  189.2410  176.7780  137.3610 C   0  0  1  0  0  3  0  0  0  0  0  0
  188.5160  178.8260  136.9460 C   0  0  0  0  0  1  0  0  0  0  0  0
  189.6740  178.0500  136.9740 O   0  0  0  0  0  0  0  0  0  0  0  0
  192.0920  177.0330  139.0380 O   0  0  0  0  0  0  0  0  0  0  0  0
  192.0160  175.7630  138.4600 C   0  0  0  0  0  2  0  0  0  0  0  0
  193.6440  174.1180  137.4660 N   0  0  0  0  0  1  0  0  0  0  0  0
  194.0140  176.4080  137.3390 O   0  0  0  0  0  0  0  0  0  0  0  0
  193.2810  175.4660  137.7400 C   0  0  0  0  0  0  0  0  0  0  0  0
  1 20  1  6  0  0  0
  1 14  1  0  0  0  0
  2  5  1  0  0  0  0
  2  1  1  0  0  0  0
  3  2  2  0  0  0  0
  4 10  2  0  0  0  0
  4  5  1  0  0  0  0
  5  9  2  0  0  0  0
  7  6  1  0  0  0  0
  8 13  1  0  0  0  0
  8  7  2  0  0  0  0
  9  7  1  0  0  0  0
 10  8  1  0  0  0  0
 11 10  1  0  0  0  0
 13 12  3  0  0  0  0
 14 17  1  0  0  0  0
 15 18  1  0  0  0  0
 16 18  2  0  0  0  0
 17 19  1  0  0  0  0
 17 15  2  0  0  0  0
 19 16  1  0  0  0  0
 21 20  1  6  0  0  0
 21 24  1  0  0  0  0
 22 21  1  0  0  0  0
 22 24  1  0  0  0  0
 24 23  2  0  0  0  0
 25 31  1  1  0  0  0
 25 22  1  0  0  0  0
 26 25  1  1  0  0  0
 27 26  1  0  0  0  0
 28 30  1  1  0  0  0
 28 27  1  0  0  0  0
 28 26  1  0  0  0  0
 29 30  1  0  0  0  0
 32 31  1  0  0  0  0
 33 35  1  0  0  0  0
 34 35  2  0  0  0  0
 35 32  1  0  0  0  0
M  END
>  <MODEL>
8

>  <REMARK>
 VINA RESULT:      -6.7      1.992      2.844
  Name = 
  13 active torsions:
  status: ('A' for Active; 'I' for Inactive)
    1  A    between atoms: C_3  and  C_13
    2  A    between atoms: C_3  and  C_16
    3  A    between atoms: O_4  and  C_11
    4  A    between atoms: O_4  and  C_14
    5  A    between atoms: CA_5  and  C_22
    6  A    between atoms: N_6  and  C_11
    7  A    between atoms: C_8  and  C_13
    8  A    between atoms: C_8  and  C_30
    9  A    between atoms: C_11  and  C_19
   10  A    between atoms: C_13  and  C_22
   11  A    between atoms: C_14  and  C_26
   12  A    between atoms: C_23  and  C_31
   13  A    between atoms: O_32  and  C_34
                            x       y       z     vdW  Elec       q    Type
                         _______ _______ _______ _____ _____    ______ ____

>  <TORSDO>
F 13

$$$$
=
 OpenBabel10232409383D

 35 38  0  0  1  0  0  0  0  0999 V2000
  188.5980  177.3620  141.3480 C   0  0  1  0  0  3  0  0  0  0  0  0
  189.3790  176.6410  142.4080 C   0  0  0  0  0  0  0  0  0  0  0  0
  190.2510  175.7930  142.0690 O   0  0  0  0  0  0  0  0  0  0  0  0
  190.2070  177.1110  144.7200 C   0  0  0  0  0  3  0  0  0  0  0  0
  189.1360  176.9160  143.8370 C   0  0  0  0  0  0  0  0  0  0  0  0
  186.2710  177.3610  146.1240 O   0  0  0  0  0  1  0  0  0  0  0  0
  187.5830  177.2800  145.6710 C   0  0  0  0  0  0  0  0  0  0  0  0
  188.6600  177.4840  146.5500 C   0  0  0  0  0  0  0  0  0  0  0  0
  187.8250  176.9990  144.3240 C   0  0  0  0  0  3  0  0  0  0  0  0
  189.9740  177.3930  146.0680 C   0  0  0  0  0  0  0  0  0  0  0  0
  191.0320  177.5790  146.8970 F   0  0  0  0  0  0  0  0  0  0  0  0
  188.2250  178.0320  149.0530 N   0  0  0  0  0  0  0  0  0  0  0  0
  188.4190  177.7890  147.9380 C   0  0  0  0  0  0  0  0  0  0  0  0
  188.0190  178.6690  141.8730 C   0  0  0  0  0  2  0  0  0  0  0  0
  185.6170  178.5310  142.7340 C   0  0  0  0  0  3  0  0  0  0  0  0
  184.1650  178.6670  140.8900 C   0  0  0  0  0  3  0  0  0  0  0  0
  186.5360  178.6900  141.7120 C   0  0  0  0  0  0  0  0  0  0  0  0
  184.2930  178.5260  142.2720 C   0  0  0  0  0  3  0  0  0  0  0  0
  185.7170  178.7930  140.2540 S   0  0  0  0  0  0  0  0  0  0  0  0
  189.4690  177.6260  140.1320 C   0  0  0  0  0  2  0  0  0  0  0  0
  188.6520  177.4350  138.8670 C   0  0  2  0  0  3  0  0  0  0  0  0
  189.4560  176.9330  137.8440 N   0  0  0  0  0  0  0  0  0  0  0  0
  188.9910  179.5700  137.4830 O   0  0  0  0  0  0  0  0  0  0  0  0
  189.0060  178.3930  137.9280 C   0  0  0  0  0  0  0  0  0  0  0  0
  190.1890  175.8560  137.2020 C   0  0  2  0  0  3  0  0  0  0  0  0
  191.5530  176.3640  136.7450 C   0  0  1  0  0  3  0  0  0  0  0  0
  192.5030  176.4490  137.9200 C   0  0  0  0  0  2  0  0  0  0  0  0
  192.6830  175.3410  136.9020 C   0  0  1  0  0  3  0  0  0  0  0  0
  192.6180  173.1630  136.5190 C   0  0  0  0  0  1  0  0  0  0  0  0
  192.2370  174.1330  137.4460 O   0  0  0  0  0  0  0  0  0  0  0  0
  189.4690  175.4020  136.0950 O   0  0  0  0  0  0  0  0  0  0  0  0
  188.7360  174.3110  136.5690 C   0  0  0  0  0  2  0  0  0  0  0  0
  186.7830  175.5820  135.6080 N   0  0  0  0  0  1  0  0  0  0  0  0
  186.4960  174.0490  137.3290 O   0  0  0  0  0  0  0  0  0  0  0  0
  187.2860  174.6370  136.5460 C   0  0  0  0  0  0  0  0  0  0  0  0
  1 20  1  6  0  0  0
  1 14  1  0  0  0  0
  1  2  1  0  0  0  0
  2  5  1  0  0  0  0
  3  2  2  0  0  0  0
  4 10  1  0  0  0  0
  5  9  1  0  0  0  0
  5  4  2  0  0  0  0
  7  6  1  0  0  0  0
  7  8  1  0  0  0  0
  8 13  1  0  0  0  0
  9  7  2  0  0  0  0
 10  8  2  0  0  0  0
 10 11  1  0  0  0  0
 13 12  3  0  0  0  0
 16 18  2  0  0  0  0
 17 14  1  0  0  0  0
 17 15  2  0  0  0  0
 18 15  1  0  0  0  0
 19 16  1  0  0  0  0
 19 17  1  0  0  0  0
 21 20  1  1  0  0  0
 22 24  1  0  0  0  0
 22 21  1  0  0  0  0
 23 24  2  0  0  0  0
 24 21  1  0  0  0  0
 25 31  1  6  0  0  0
 25 22  1  0  0  0  0
 26 28  1  0  0  0  0
 26 25  1  1  0  0  0
 26 27  1  0  0  0  0
 28 30  1  1  0  0  0
 28 27  1  0  0  0  0
 29 30  1  0  0  0  0
 31 32  1  0  0  0  0
 33 35  1  0  0  0  0
 35 32  1  0  0  0  0
 35 34  2  0  0  0  0
M  END
>  <MODEL>
9

>  <REMARK>
 VINA RESULT:      -6.6      3.045      5.103
  Name = 
  13 active torsions:
  status: ('A' for Active; 'I' for Inactive)
    1  A    between atoms: C_3  and  C_13
    2  A    between atoms: C_3  and  C_16
    3  A    between atoms: O_4  and  C_11
    4  A    between atoms: O_4  and  C_14
    5  A    between atoms: CA_5  and  C_22
    6  A    between atoms: N_6  and  C_11
    7  A    between atoms: C_8  and  C_13
    8  A    between atoms: C_8  and  C_30
    9  A    between atoms: C_11  and  C_19
   10  A    between atoms: C_13  and  C_22
   11  A    between atoms: C_14  and  C_26
   12  A    between atoms: C_23  and  C_31
   13  A    between atoms: O_32  and  C_34
                            x       y       z     vdW  Elec       q    Type
                         _______ _______ _______ _____ _____    ______ ____

>  <TORSDO>
F 13

$$$$
