=
 OpenBabel10232409283D

 53 58  0  0  1  0  0  0  0  0999 V2000
  185.2440  178.0580  142.3740 C   0  0  1  0  0  3  0  0  0  0  0  0
  185.0890  180.1290  143.6580 O   0  0  0  0  0  1  0  0  0  0  0  0
  185.0510  178.7320  143.7370 C   0  0  2  0  0  3  0  0  0  0  0  0
  186.0060  178.2390  144.7240 N   0  0  0  0  0  0  0  0  0  0  0  0
  185.5540  177.7790  146.0060 C   0  0  0  0  0  3  0  0  0  0  0  0
  185.3110  178.6110  147.0110 C   0  0  0  0  0  2  0  0  0  0  0  0
  187.4160  178.1870  144.3580 C   0  0  0  0  0  2  0  0  0  0  0  0
  188.0470  176.8920  144.8450 C   0  0  0  0  0  2  0  0  0  0  0  0
  189.0850  176.7860  147.1740 C   0  0  0  0  0  2  0  0  0  0  0  0
  188.9990  178.2580  146.7850 C   0  0  0  0  0  2  0  0  0  0  0  0
  189.2470  177.2010  145.7270 C   0  0  0  0  0  0  0  0  0  0  0  0
  191.6040  176.4270  146.1280 C   0  0  0  0  0  1  0  0  0  0  0  0
  190.6610  177.0880  145.1350 C   0  0  2  0  0  3  0  0  0  0  0  0
  191.1970  178.3800  144.7270 N   0  0  0  0  0  2  0  0  0  0  0  0
  190.9970  178.4900  143.2940 C   0  0  0  0  0  2  0  0  0  0  0  0
  191.4950  177.2600  142.6200 C   0  0  0  0  0  3  0  0  0  0  0  0
  192.1700  177.3490  141.6090 O   0  0  0  0  0  0  0  0  0  0  0  0
  183.9420  177.6890  141.8260 N   0  0  0  0  0  2  0  0  0  0  0  0
  182.0440  178.9510  142.0740 C   0  0  0  0  0  1  0  0  0  0  0  0
  183.3150  178.8610  141.3730 N   0  0  0  0  0  0  0  0  0  0  0  0
  183.0010  178.6830  139.9620 C   0  0  0  0  0  2  0  0  0  0  0  0
  182.8850  177.1940  139.6330 C   0  0  0  0  0  2  0  0  0  0  0  0
  181.5060  176.7940  139.1060 C   0  0  0  0  0  0  0  0  0  0  0  0
  180.7030  177.9340  139.0710 O   0  0  0  0  0  1  0  0  0  0  0  0
  180.9200  175.8550  139.9590 O   0  0  0  0  0  1  0  0  0  0  0  0
  181.6400  176.2210  137.6940 C   0  0  0  0  0  2  0  0  0  0  0  0
  184.2470  171.9080  136.3910 C   0  0  2  0  0  3  0  0  0  0  0  0
  185.0580  172.2100  135.2570 O   0  0  0  0  0  0  0  0  0  0  0  0
  183.6530  174.0900  135.5940 C   0  0  1  0  0  3  0  0  0  0  0  0
  184.8910  175.9100  136.5850 O   0  0  0  0  0  1  0  0  0  0  0  0
  182.8060  175.2390  137.5660 C   0  0  1  0  0  3  0  0  0  0  0  0
  182.4670  173.7280  137.6870 C   0  0  2  0  0  3  0  0  0  0  0  0
  183.4090  173.1260  136.6800 C   0  0  1  0  0  0  0  0  0  0  0  0
  183.6080  175.4580  136.2670 C   0  0  2  0  0  3  0  0  0  0  0  0
  184.9160  173.5890  134.9280 C   0  0  0  0  0  2  0  0  0  0  0  0
  184.6460  172.7890  137.5380 C   0  0  0  0  0  2  0  0  0  0  0  0
  180.7130  172.0430  137.7370 O   0  0  0  0  0  1  0  0  0  0  0  0
  181.0120  173.3590  137.3650 C   0  0  0  0  0  2  0  0  0  0  0  0
  186.0260  178.9080  141.3680 C   0  0  0  0  0  2  0  0  0  0  0  0
  186.7840  178.1030  137.9660 C   0  0  0  0  0  3  0  0  0  0  0  0
  189.3620  176.1360  136.3730 C   0  0  0  0  0  0  0  0  0  0  0  0
  190.9120  175.2920  137.9790 N   0  0  0  0  0  0  0  0  0  0  0  0
  186.5060  178.1130  139.1180 C   0  0  0  0  0  3  0  0  0  0  0  0
  186.9060  178.0330  140.4960 C   0  0  1  0  0  3  0  0  0  0  0  0
  190.5140  176.2060  138.8960 C   0  0  0  0  0  3  0  0  0  0  0  0
  187.7120  177.9210  136.9250 C   0  0  0  0  0  0  0  0  0  0  0  0
  188.7800  176.0060  135.0800 N   0  0  0  0  0  1  0  0  0  0  0  0
  190.3600  175.2400  136.7430 C   0  0  0  0  0  3  0  0  0  0  0  0
  189.3530  178.1700  139.6930 C   0  0  0  0  0  3  0  0  0  0  0  0
  188.3210  178.5510  140.4910 C   0  0  0  0  0  3  0  0  0  0  0  0
  188.8990  177.1000  137.2990 C   0  0  0  0  0  0  0  0  0  0  0  0
  187.6420  178.6370  135.8090 C   0  0  0  0  0  2  0  0  0  0  0  0
  189.4920  177.1210  138.6210 C   0  0  0  0  0  0  0  0  0  0  0  0
  1 39  1  6  0  0  0
  1  3  1  0  0  0  0
  3  2  1  6  0  0  0
  3  4  1  0  0  0  0
  4  5  1  0  0  0  0
  5  6  2  0  0  0  0
  7  4  1  0  0  0  0
  7  8  1  0  0  0  0
  8 11  1  0  0  0  0
 10  9  1  0  0  0  0
 11 10  1  0  0  0  0
 11  9  1  0  0  0  0
 13 11  1  0  0  0  0
 13 12  1  1  0  0  0
 14 13  1  0  0  0  0
 15 14  1  0  0  0  0
 16 15  1  0  0  0  0
 17 16  2  0  0  0  0
 18  1  1  0  0  0  0
 20 18  1  0  0  0  0
 20 19  1  0  0  0  0
 21 20  1  0  0  0  0
 22 21  1  0  0  0  0
 23 22  1  0  0  0  0
 23 25  1  0  0  0  0
 24 23  1  0  0  0  0
 26 23  1  0  0  0  0
 27 33  1  0  0  0  0
 27 36  1  1  0  0  0
 28 27  1  0  0  0  0
 29 35  1  1  0  0  0
 29 34  1  0  0  0  0
 29 33  1  0  0  0  0
 31 32  1  0  0  0  0
 31 26  1  6  0  0  0
 32 38  1  6  0  0  0
 33 36  1  1  0  0  0
 33 32  1  0  0  0  0
 34 30  1  1  0  0  0
 34 31  1  0  0  0  0
 35 28  1  0  0  0  0
 38 37  1  0  0  0  0
 40 43  2  0  0  0  0
 41 48  2  0  0  0  0
 41 51  1  0  0  0  0
 42 45  2  0  0  0  0
 43 44  1  0  0  0  0
 44 39  1  1  0  0  0
 46 51  1  0  0  0  0
 46 40  1  0  0  0  0
 47 41  1  0  0  0  0
 48 42  1  0  0  0  0
 49 50  2  0  0  0  0
 50 44  1  0  0  0  0
 51 53  2  0  0  0  0
 52 46  2  0  0  0  0
 53 45  1  0  0  0  0
 53 49  1  0  0  0  0
M  END
>  <MODEL>
1

>  <REMARK>
 VINA RESULT:      -6.5      0.000      0.000
  Name = 
  20 active torsions:
  status: ('A' for Active; 'I' for Inactive)
    1  A    between atoms: C_6  and  C_36
    2  A    between atoms: C_6  and  C_42
    3  A    between atoms: C_8  and  C_53
    4  A    between atoms: C_10  and  C_18
    5  A    between atoms: C_10  and  N_20
    6  A    between atoms: C_10  and  C_49
    7  A    between atoms: C_12  and  C_18
    8  A    between atoms: C_15  and  N_39
    9  A    between atoms: C_15  and  C_50
   10  A    between atoms: C_16  and  C_47
   11  A    between atoms: C_16  and  C_50
   12  A    between atoms: N_20  and  N_39
   13  A    between atoms: N_29  and  C_35
   14  A    between atoms: N_29  and  C_36
   15  A    between atoms: N_29  and  C_49
   16  A    between atoms: C_30  and  N_37
   17  A    between atoms: C_30  and  C_42
   18  A    between atoms: C_33  and  C_47
   19  A    between atoms: N_37  and  C_53
   20  A    between atoms: C_38  and  C_45
                            x       y       z     vdW  Elec       q    Type
                         _______ _______ _______ _____ _____    ______ ____

>  <TORSDO>
F 20

$$$$
=
 OpenBabel10232409283D

 53 58  0  0  1  0  0  0  0  0999 V2000
  188.6470  177.6930  138.8500 C   0  0  1  0  0  3  0  0  0  0  0  0
  187.9790  179.1350  140.7030 O   0  0  0  0  0  1  0  0  0  0  0  0
  188.3520  177.8340  140.3470 C   0  0  2  0  0  3  0  0  0  0  0  0
  189.4690  177.3710  141.1640 N   0  0  0  0  0  0  0  0  0  0  0  0
  190.8150  177.7370  140.8290 C   0  0  0  0  0  3  0  0  0  0  0  0
  191.8650  177.2430  141.4740 C   0  0  0  0  0  2  0  0  0  0  0  0
  189.1780  176.5680  142.3450 C   0  0  0  0  0  2  0  0  0  0  0  0
  188.2000  177.2930  143.2570 C   0  0  0  0  0  2  0  0  0  0  0  0
  190.1120  178.4340  144.5020 C   0  0  0  0  0  2  0  0  0  0  0  0
  190.2180  176.9390  144.7860 C   0  0  0  0  0  2  0  0  0  0  0  0
  188.8610  177.5880  144.5940 C   0  0  0  0  0  0  0  0  0  0  0  0
  188.6380  177.1990  147.0670 C   0  0  0  0  0  1  0  0  0  0  0  0
  187.9790  177.8010  145.8360 C   0  0  2  0  0  3  0  0  0  0  0  0
  186.6410  177.2480  145.6690 N   0  0  0  0  0  2  0  0  0  0  0  0
  185.7330  178.0960  146.4170 C   0  0  0  0  0  2  0  0  0  0  0  0
  185.0320  179.0260  145.4890 C   0  0  0  0  0  3  0  0  0  0  0  0
  183.8230  179.1580  145.5550 O   0  0  0  0  0  0  0  0  0  0  0  0
  188.7770  176.2790  138.5120 N   0  0  0  0  0  2  0  0  0  0  0  0
  189.3730  174.7840  136.8790 C   0  0  0  0  0  1  0  0  0  0  0  0
  189.3940  176.1890  137.2540 N   0  0  0  0  0  0  0  0  0  0  0  0
  190.7940  176.5570  137.4140 C   0  0  0  0  0  2  0  0  0  0  0  0
  191.6270  175.3190  137.7500 C   0  0  0  0  0  2  0  0  0  0  0  0
  193.1120  175.4790  137.4190 C   0  0  0  0  0  0  0  0  0  0  0  0
  193.6020  176.5790  138.1240 O   0  0  0  0  0  1  0  0  0  0  0  0
  193.2770  175.7100  136.0510 O   0  0  0  0  0  1  0  0  0  0  0  0
  193.8730  174.2210  137.8420 C   0  0  0  0  0  2  0  0  0  0  0  0
  199.0060  173.4440  137.4630 C   0  0  2  0  0  3  0  0  0  0  0  0
  199.2140  172.1760  136.8440 O   0  0  0  0  0  0  0  0  0  0  0  0
  196.8910  172.3250  137.2960 C   0  0  1  0  0  3  0  0  0  0  0  0
  195.6580  172.7730  135.2710 O   0  0  0  0  0  1  0  0  0  0  0  0
  195.2620  174.1330  137.2090 C   0  0  1  0  0  3  0  0  0  0  0  0
  196.4630  174.5870  138.0830 C   0  0  2  0  0  3  0  0  0  0  0  0
  197.5230  173.6000  137.6780 C   0  0  1  0  0  0  0  0  0  0  0  0
  195.5610  172.7210  136.6630 C   0  0  2  0  0  3  0  0  0  0  0  0
  197.9550  171.6080  136.4940 C   0  0  0  0  0  2  0  0  0  0  0  0
  198.2440  174.3360  136.5290 C   0  0  0  0  0  2  0  0  0  0  0  0
  197.3230  175.0110  140.3190 O   0  0  0  0  0  1  0  0  0  0  0  0
  196.2200  174.5380  139.5990 C   0  0  0  0  0  2  0  0  0  0  0  0
  187.6090  178.3650  137.9470 C   0  0  0  0  0  2  0  0  0  0  0  0
  184.1380  178.8490  138.6660 C   0  0  0  0  0  3  0  0  0  0  0  0
  181.1980  176.7760  138.3300 C   0  0  0  0  0  0  0  0  0  0  0  0
  181.7370  174.6800  137.3240 N   0  0  0  0  0  0  0  0  0  0  0  0
  185.2680  178.4980  138.6020 C   0  0  0  0  0  3  0  0  0  0  0  0
  186.2760  177.6450  138.0350 C   0  0  1  0  0  3  0  0  0  0  0  0
  182.9040  175.1710  136.8420 C   0  0  0  0  0  3  0  0  0  0  0  0
  182.7810  178.7010  138.3250 C   0  0  0  0  0  0  0  0  0  0  0  0
  180.3000  177.5230  139.1440 N   0  0  0  0  0  1  0  0  0  0  0  0
  180.8920  175.4460  138.0550 C   0  0  0  0  0  3  0  0  0  0  0  0
  184.5220  176.8840  136.3050 C   0  0  0  0  0  3  0  0  0  0  0  0
  185.7540  177.3380  136.6550 C   0  0  0  0  0  3  0  0  0  0  0  0
  182.4120  177.3330  137.8620 C   0  0  0  0  0  0  0  0  0  0  0  0
  181.9880  179.7570  138.1900 C   0  0  0  0  0  2  0  0  0  0  0  0
  183.3070  176.4850  137.1010 C   0  0  0  0  0  0  0  0  0  0  0  0
  1 39  1  6  0  0  0
  1  3  1  0  0  0  0
  3  2  1  6  0  0  0
  3  4  1  0  0  0  0
  4  7  1  0  0  0  0
  5  4  1  0  0  0  0
  5  6  2  0  0  0  0
  7  8  1  0  0  0  0
  8 11  1  0  0  0  0
  9 11  1  0  0  0  0
  9 10  1  0  0  0  0
 11 10  1  0  0  0  0
 11 13  1  0  0  0  0
 13 12  1  1  0  0  0
 14 13  1  0  0  0  0
 14 15  1  0  0  0  0
 16 17  2  0  0  0  0
 16 15  1  0  0  0  0
 18  1  1  0  0  0  0
 19 20  1  0  0  0  0
 20 21  1  0  0  0  0
 20 18  1  0  0  0  0
 21 22  1  0  0  0  0
 23 22  1  0  0  0  0
 23 26  1  0  0  0  0
 23 24  1  0  0  0  0
 25 23  1  0  0  0  0
 27 36  1  6  0  0  0
 27 33  1  0  0  0  0
 28 27  1  0  0  0  0
 29 35  1  6  0  0  0
 29 33  1  0  0  0  0
 31 26  1  1  0  0  0
 31 32  1  0  0  0  0
 32 38  1  1  0  0  0
 33 36  1  6  0  0  0
 33 32  1  0  0  0  0
 34 30  1  6  0  0  0
 34 31  1  0  0  0  0
 34 29  1  0  0  0  0
 35 28  1  0  0  0  0
 38 37  1  0  0  0  0
 41 47  1  0  0  0  0
 42 48  2  0  0  0  0
 43 40  2  0  0  0  0
 44 39  1  6  0  0  0
 44 43  1  0  0  0  0
 45 53  2  0  0  0  0
 45 42  1  0  0  0  0
 46 40  1  0  0  0  0
 48 41  1  0  0  0  0
 49 50  2  0  0  0  0
 49 53  1  0  0  0  0
 50 44  1  0  0  0  0
 51 46  1  0  0  0  0
 51 41  2  0  0  0  0
 52 46  2  0  0  0  0
 53 51  1  0  0  0  0
M  END
>  <MODEL>
2

>  <REMARK>
 VINA RESULT:      -6.4      4.097      9.139
  Name = 
  20 active torsions:
  status: ('A' for Active; 'I' for Inactive)
    1  A    between atoms: C_6  and  C_36
    2  A    between atoms: C_6  and  C_42
    3  A    between atoms: C_8  and  C_53
    4  A    between atoms: C_10  and  C_18
    5  A    between atoms: C_10  and  N_20
    6  A    between atoms: C_10  and  C_49
    7  A    between atoms: C_12  and  C_18
    8  A    between atoms: C_15  and  N_39
    9  A    between atoms: C_15  and  C_50
   10  A    between atoms: C_16  and  C_47
   11  A    between atoms: C_16  and  C_50
   12  A    between atoms: N_20  and  N_39
   13  A    between atoms: N_29  and  C_35
   14  A    between atoms: N_29  and  C_36
   15  A    between atoms: N_29  and  C_49
   16  A    between atoms: C_30  and  N_37
   17  A    between atoms: C_30  and  C_42
   18  A    between atoms: C_33  and  C_47
   19  A    between atoms: N_37  and  C_53
   20  A    between atoms: C_38  and  C_45
                            x       y       z     vdW  Elec       q    Type
                         _______ _______ _______ _____ _____    ______ ____

>  <TORSDO>
F 20

$$$$
=
 OpenBabel10232409283D

 53 58  0  0  1  0  0  0  0  0999 V2000
  189.5540  176.2980  137.4080 C   0  0  1  0  0  3  0  0  0  0  0  0
  191.1040  174.6060  138.2420 O   0  0  0  0  0  1  0  0  0  0  0  0
  190.1110  174.8750  137.2920 C   0  0  2  0  0  3  0  0  0  0  0  0
  190.5900  174.5900  135.9430 N   0  0  0  0  0  0  0  0  0  0  0  0
  190.1160  173.4380  135.2320 C   0  0  0  0  0  3  0  0  0  0  0  0
  188.9150  173.3980  134.6690 C   0  0  0  0  0  2  0  0  0  0  0  0
  191.5230  175.5250  135.3270 C   0  0  0  0  0  2  0  0  0  0  0  0
  192.7740  174.8000  134.8550 C   0  0  0  0  0  2  0  0  0  0  0  0
  193.6910  176.3140  136.6930 C   0  0  0  0  0  2  0  0  0  0  0  0
  194.5820  176.5000  135.4690 C   0  0  0  0  0  2  0  0  0  0  0  0
  193.9470  175.1530  135.7550 C   0  0  0  0  0  0  0  0  0  0  0  0
  194.3330  173.5190  137.6260 C   0  0  0  0  0  1  0  0  0  0  0  0
  194.8490  174.0280  136.2890 C   0  0  2  0  0  3  0  0  0  0  0  0
  196.2390  174.4440  136.4190 N   0  0  0  0  0  2  0  0  0  0  0  0
  196.6060  174.2730  137.8110 C   0  0  0  0  0  2  0  0  0  0  0  0
  198.0250  174.6800  138.0110 C   0  0  0  0  0  3  0  0  0  0  0  0
  198.2980  175.5730  138.7940 O   0  0  0  0  0  0  0  0  0  0  0  0
  188.1230  176.2370  137.6880 N   0  0  0  0  0  2  0  0  0  0  0  0
  186.7680  177.9310  136.9470 C   0  0  0  0  0  1  0  0  0  0  0  0
  187.4390  176.7030  136.5530 N   0  0  0  0  0  0  0  0  0  0  0  0
  186.3930  175.7400  136.2340 C   0  0  0  0  0  2  0  0  0  0  0  0
  185.2130  175.9110  137.1910 C   0  0  0  0  0  2  0  0  0  0  0  0
  184.1550  174.8140  137.0520 C   0  0  0  0  0  0  0  0  0  0  0  0
  184.5430  173.7290  137.8380 O   0  0  0  0  0  1  0  0  0  0  0  0
  184.0680  174.3990  135.7200 O   0  0  0  0  0  1  0  0  0  0  0  0
  182.8020  175.3380  137.5370 C   0  0  0  0  0  2  0  0  0  0  0  0
  181.5000  180.2530  138.6520 C   0  0  2  0  0  3  0  0  0  0  0  0
  180.9820  180.2800  139.9810 O   0  0  0  0  0  0  0  0  0  0  0  0
  181.2380  177.9930  139.4090 C   0  0  1  0  0  3  0  0  0  0  0  0
  183.1720  177.0530  140.5060 O   0  0  0  0  0  1  0  0  0  0  0  0
  182.8960  176.7390  138.1430 C   0  0  1  0  0  3  0  0  0  0  0  0
  182.3880  177.9170  137.2670 C   0  0  2  0  0  3  0  0  0  0  0  0
  181.7560  178.8110  138.3000 C   0  0  1  0  0  0  0  0  0  0  0  0
  182.2090  176.8220  139.5210 C   0  0  2  0  0  3  0  0  0  0  0  0
  181.0660  178.9750  140.5470 C   0  0  0  0  0  2  0  0  0  0  0  0
  182.9150  179.7570  138.6780 C   0  0  0  0  0  2  0  0  0  0  0  0
  181.9630  177.4680  134.9140 O   0  0  0  0  0  1  0  0  0  0  0  0
  181.3730  177.5320  136.1820 C   0  0  0  0  0  2  0  0  0  0  0  0
  190.2670  177.1600  138.4530 C   0  0  0  0  0  2  0  0  0  0  0  0
  190.8090  177.3150  141.9860 C   0  0  0  0  0  3  0  0  0  0  0  0
  188.6130  177.4300  144.8530 C   0  0  0  0  0  0  0  0  0  0  0  0
  186.3250  177.5070  144.1790 N   0  0  0  0  0  0  0  0  0  0  0  0
  190.5110  177.0400  140.8730 C   0  0  0  0  0  3  0  0  0  0  0  0
  189.5610  177.0700  139.7940 C   0  0  1  0  0  3  0  0  0  0  0  0
  186.6690  177.9080  142.9320 C   0  0  0  0  0  3  0  0  0  0  0  0
  190.4860  177.8260  143.2560 C   0  0  0  0  0  0  0  0  0  0  0  0
  189.5560  177.1160  145.8730 N   0  0  0  0  0  1  0  0  0  0  0  0
  187.2590  177.2660  145.1300 C   0  0  0  0  0  3  0  0  0  0  0  0
  188.1570  178.7100  141.2040 C   0  0  0  0  0  3  0  0  0  0  0  0
  188.7630  178.3220  140.0520 C   0  0  0  0  0  3  0  0  0  0  0  0
  189.0260  177.8330  143.5610 C   0  0  0  0  0  0  0  0  0  0  0  0
  191.3870  178.4720  143.9870 C   0  0  0  0  0  2  0  0  0  0  0  0
  188.0080  178.0630  142.5570 C   0  0  0  0  0  0  0  0  0  0  0  0
  1 18  1  0  0  0  0
  1 39  1  1  0  0  0
  3  1  1  0  0  0  0
  3  2  1  1  0  0  0
  4  3  1  0  0  0  0
  5  4  1  0  0  0  0
  6  5  2  0  0  0  0
  7  4  1  0  0  0  0
  8  7  1  0  0  0  0
  8 11  1  0  0  0  0
 10 11  1  0  0  0  0
 10  9  1  0  0  0  0
 11 13  1  0  0  0  0
 11  9  1  0  0  0  0
 13 14  1  0  0  0  0
 13 12  1  1  0  0  0
 14 15  1  0  0  0  0
 15 16  1  0  0  0  0
 16 17  2  0  0  0  0
 20 19  1  0  0  0  0
 20 18  1  0  0  0  0
 21 20  1  0  0  0  0
 21 22  1  0  0  0  0
 23 22  1  0  0  0  0
 23 26  1  0  0  0  0
 23 24  1  0  0  0  0
 25 23  1  0  0  0  0
 27 36  1  1  0  0  0
 27 28  1  0  0  0  0
 28 35  1  0  0  0  0
 29 34  1  0  0  0  0
 29 35  1  1  0  0  0
 31 26  1  6  0  0  0
 31 34  1  0  0  0  0
 32 38  1  6  0  0  0
 32 31  1  0  0  0  0
 32 33  1  0  0  0  0
 33 27  1  0  0  0  0
 33 36  1  1  0  0  0
 33 29  1  0  0  0  0
 34 30  1  1  0  0  0
 37 38  1  0  0  0  0
 40 46  1  0  0  0  0
 41 48  1  0  0  0  0
 41 47  1  0  0  0  0
 42 48  2  0  0  0  0
 43 40  2  0  0  0  0
 44 39  1  6  0  0  0
 44 50  1  0  0  0  0
 44 43  1  0  0  0  0
 45 42  1  0  0  0  0
 46 51  1  0  0  0  0
 46 52  2  0  0  0  0
 49 53  1  0  0  0  0
 50 49  2  0  0  0  0
 51 41  2  0  0  0  0
 53 45  2  0  0  0  0
 53 51  1  0  0  0  0
M  END
>  <MODEL>
3

>  <REMARK>
 VINA RESULT:      -6.2      2.884      7.836
  Name = 
  20 active torsions:
  status: ('A' for Active; 'I' for Inactive)
    1  A    between atoms: C_6  and  C_36
    2  A    between atoms: C_6  and  C_42
    3  A    between atoms: C_8  and  C_53
    4  A    between atoms: C_10  and  C_18
    5  A    between atoms: C_10  and  N_20
    6  A    between atoms: C_10  and  C_49
    7  A    between atoms: C_12  and  C_18
    8  A    between atoms: C_15  and  N_39
    9  A    between atoms: C_15  and  C_50
   10  A    between atoms: C_16  and  C_47
   11  A    between atoms: C_16  and  C_50
   12  A    between atoms: N_20  and  N_39
   13  A    between atoms: N_29  and  C_35
   14  A    between atoms: N_29  and  C_36
   15  A    between atoms: N_29  and  C_49
   16  A    between atoms: C_30  and  N_37
   17  A    between atoms: C_30  and  C_42
   18  A    between atoms: C_33  and  C_47
   19  A    between atoms: N_37  and  C_53
   20  A    between atoms: C_38  and  C_45
                            x       y       z     vdW  Elec       q    Type
                         _______ _______ _______ _____ _____    ______ ____

>  <TORSDO>
F 20

$$$$
=
 OpenBabel10232409283D

 53 58  0  0  1  0  0  0  0  0999 V2000
  189.4680  176.9840  141.3210 C   0  0  1  0  0  3  0  0  0  0  0  0
  187.8710  176.1600  142.9730 O   0  0  0  0  0  1  0  0  0  0  0  0
  189.2280  176.2490  142.6440 C   0  0  2  0  0  3  0  0  0  0  0  0
  189.9910  176.8430  143.7380 N   0  0  0  0  0  0  0  0  0  0  0  0
  191.4070  176.6270  143.8370 C   0  0  0  0  0  3  0  0  0  0  0  0
  191.9220  175.4430  144.1440 C   0  0  0  0  0  2  0  0  0  0  0  0
  189.2880  177.6890  144.6940 C   0  0  0  0  0  2  0  0  0  0  0  0
  188.9930  176.9200  145.9730 C   0  0  0  0  0  2  0  0  0  0  0  0
  188.8190  178.4250  148.0260 C   0  0  0  0  0  2  0  0  0  0  0  0
  187.9430  177.2040  148.2860 C   0  0  0  0  0  2  0  0  0  0  0  0
  188.0980  177.7490  146.8800 C   0  0  0  0  0  0  0  0  0  0  0  0
  186.1060  179.2070  147.3540 C   0  0  0  0  0  1  0  0  0  0  0  0
  186.9140  178.5160  146.2670 C   0  0  2  0  0  3  0  0  0  0  0  0
  186.0460  177.6570  145.4730 N   0  0  0  0  0  2  0  0  0  0  0  0
  185.5800  178.4450  144.3480 C   0  0  0  0  0  2  0  0  0  0  0  0
  184.0930  178.5250  144.3710 C   0  0  0  0  0  3  0  0  0  0  0  0
  183.5290  179.1550  145.2480 O   0  0  0  0  0  0  0  0  0  0  0  0
  188.5500  178.1140  141.2200 N   0  0  0  0  0  2  0  0  0  0  0  0
  188.3100  178.6720  139.0100 C   0  0  0  0  0  1  0  0  0  0  0  0
  187.7280  177.9060  140.1000 N   0  0  0  0  0  0  0  0  0  0  0  0
  186.4290  178.5020  140.3810 C   0  0  0  0  0  2  0  0  0  0  0  0
  185.6240  178.6400  139.0880 C   0  0  0  0  0  2  0  0  0  0  0  0
  184.1940  179.1360  139.3130 C   0  0  0  0  0  0  0  0  0  0  0  0
  184.1650  180.5110  139.0830 O   0  0  0  0  0  1  0  0  0  0  0  0
  183.8040  178.8900  140.6330 O   0  0  0  0  0  1  0  0  0  0  0  0
  183.2460  178.4350  138.3390 C   0  0  0  0  0  2  0  0  0  0  0  0
  183.0430  173.4170  136.9690 C   0  0  2  0  0  3  0  0  0  0  0  0
  183.2940  173.3330  135.5680 O   0  0  0  0  0  0  0  0  0  0  0  0
  183.0620  175.6390  136.0690 C   0  0  1  0  0  3  0  0  0  0  0  0
  185.2170  176.7270  136.0820 O   0  0  0  0  0  1  0  0  0  0  0  0
  183.7340  177.0400  137.9430 C   0  0  1  0  0  3  0  0  0  0  0  0
  182.9250  175.8330  138.4900 C   0  0  2  0  0  3  0  0  0  0  0  0
  182.9830  174.8790  137.3270 C   0  0  1  0  0  0  0  0  0  0  0  0
  183.8700  176.8860  136.4140 C   0  0  2  0  0  3  0  0  0  0  0  0
  183.5720  174.6340  135.0590 C   0  0  0  0  0  2  0  0  0  0  0  0
  184.2300  174.0300  137.6520 C   0  0  0  0  0  2  0  0  0  0  0  0
  181.3490  176.4930  140.2210 O   0  0  0  0  0  1  0  0  0  0  0  0
  181.4710  176.1420  138.8720 C   0  0  0  0  0  2  0  0  0  0  0  0
  190.9130  177.4510  141.1240 C   0  0  0  0  0  2  0  0  0  0  0  0
  193.5950  176.2830  139.0650 C   0  0  0  0  0  3  0  0  0  0  0  0
  193.9550  175.6910  135.5190 C   0  0  0  0  0  0  0  0  0  0  0  0
  191.9040  176.0980  134.3690 N   0  0  0  0  0  0  0  0  0  0  0  0
  192.7260  176.8840  139.6010 C   0  0  0  0  0  3  0  0  0  0  0  0
  191.3430  177.2690  139.6800 C   0  0  1  0  0  3  0  0  0  0  0  0
  191.1990  176.0050  135.5210 C   0  0  0  0  0  3  0  0  0  0  0  0
  194.0740  175.4970  138.0010 C   0  0  0  0  0  0  0  0  0  0  0  0
  195.3740  175.5940  135.4490 N   0  0  0  0  0  1  0  0  0  0  0  0
  193.2500  175.9500  134.3470 C   0  0  0  0  0  3  0  0  0  0  0  0
  190.8500  175.5090  137.8610 C   0  0  0  0  0  3  0  0  0  0  0  0
  190.6100  176.1090  139.0560 C   0  0  0  0  0  3  0  0  0  0  0  0
  193.2670  175.6000  136.7520 C   0  0  0  0  0  0  0  0  0  0  0  0
  195.0010  174.5670  138.1970 C   0  0  0  0  0  2  0  0  0  0  0  0
  191.8290  175.7820  136.7500 C   0  0  0  0  0  0  0  0  0  0  0  0
  1 39  1  1  0  0  0
  1  3  1  0  0  0  0
  3  2  1  1  0  0  0
  3  4  1  0  0  0  0
  4  5  1  0  0  0  0
  4  7  1  0  0  0  0
  5  6  2  0  0  0  0
  7  8  1  0  0  0  0
  8 11  1  0  0  0  0
  9 10  1  0  0  0  0
 11  9  1  0  0  0  0
 11 10  1  0  0  0  0
 13 11  1  0  0  0  0
 13 12  1  1  0  0  0
 14 13  1  0  0  0  0
 15 16  1  0  0  0  0
 15 14  1  0  0  0  0
 16 17  2  0  0  0  0
 18  1  1  0  0  0  0
 19 20  1  0  0  0  0
 20 21  1  0  0  0  0
 20 18  1  0  0  0  0
 22 23  1  0  0  0  0
 22 21  1  0  0  0  0
 23 25  1  0  0  0  0
 24 23  1  0  0  0  0
 26 23  1  0  0  0  0
 27 33  1  0  0  0  0
 27 36  1  1  0  0  0
 28 27  1  0  0  0  0
 29 35  1  6  0  0  0
 29 34  1  0  0  0  0
 29 33  1  0  0  0  0
 31 26  1  6  0  0  0
 31 32  1  0  0  0  0
 32 38  1  6  0  0  0
 33 36  1  1  0  0  0
 33 32  1  0  0  0  0
 34 30  1  1  0  0  0
 34 31  1  0  0  0  0
 35 28  1  0  0  0  0
 38 37  1  0  0  0  0
 40 43  2  0  0  0  0
 41 51  1  0  0  0  0
 42 45  2  0  0  0  0
 43 44  1  0  0  0  0
 44 39  1  1  0  0  0
 45 53  1  0  0  0  0
 46 52  2  0  0  0  0
 46 40  1  0  0  0  0
 47 41  1  0  0  0  0
 48 42  1  0  0  0  0
 48 41  2  0  0  0  0
 49 50  2  0  0  0  0
 50 44  1  0  0  0  0
 51 46  1  0  0  0  0
 53 51  2  0  0  0  0
 53 49  1  0  0  0  0
M  END
>  <MODEL>
4

>  <REMARK>
 VINA RESULT:      -6.1      2.356      4.639
  Name = 
  20 active torsions:
  status: ('A' for Active; 'I' for Inactive)
    1  A    between atoms: C_6  and  C_36
    2  A    between atoms: C_6  and  C_42
    3  A    between atoms: C_8  and  C_53
    4  A    between atoms: C_10  and  C_18
    5  A    between atoms: C_10  and  N_20
    6  A    between atoms: C_10  and  C_49
    7  A    between atoms: C_12  and  C_18
    8  A    between atoms: C_15  and  N_39
    9  A    between atoms: C_15  and  C_50
   10  A    between atoms: C_16  and  C_47
   11  A    between atoms: C_16  and  C_50
   12  A    between atoms: N_20  and  N_39
   13  A    between atoms: N_29  and  C_35
   14  A    between atoms: N_29  and  C_36
   15  A    between atoms: N_29  and  C_49
   16  A    between atoms: C_30  and  N_37
   17  A    between atoms: C_30  and  C_42
   18  A    between atoms: C_33  and  C_47
   19  A    between atoms: N_37  and  C_53
   20  A    between atoms: C_38  and  C_45
                            x       y       z     vdW  Elec       q    Type
                         _______ _______ _______ _____ _____    ______ ____

>  <TORSDO>
F 20

$$$$
=
 OpenBabel10232409283D

 53 58  0  0  1  0  0  0  0  0999 V2000
  183.4330  178.4870  139.7910 C   0  0  1  0  0  3  0  0  0  0  0  0
  182.5840  176.2040  139.6360 O   0  0  0  0  0  1  0  0  0  0  0  0
  182.2560  177.5220  139.9710 C   0  0  2  0  0  3  0  0  0  0  0  0
  181.0750  177.9680  139.2370 N   0  0  0  0  0  0  0  0  0  0  0  0
  180.0250  178.6770  139.9120 C   0  0  0  0  0  3  0  0  0  0  0  0
  180.1160  179.9690  140.2000 C   0  0  0  0  0  2  0  0  0  0  0  0
  181.0120  177.7120  137.8040 C   0  0  0  0  0  2  0  0  0  0  0  0
  180.7170  176.2450  137.5350 C   0  0  0  0  0  2  0  0  0  0  0  0
  182.0690  176.9240  135.4800 C   0  0  0  0  0  2  0  0  0  0  0  0
  180.6450  176.6410  135.0100 C   0  0  0  0  0  2  0  0  0  0  0  0
  181.2410  175.8550  136.1620 C   0  0  0  0  0  0  0  0  0  0  0  0
  180.5420  173.6410  135.2000 C   0  0  0  0  0  1  0  0  0  0  0  0
  181.6570  174.3970  135.9040 C   0  0  2  0  0  3  0  0  0  0  0  0
  182.0330  173.7020  137.1280 N   0  0  0  0  0  2  0  0  0  0  0  0
  183.4200  173.3030  136.9820 C   0  0  0  0  0  2  0  0  0  0  0  0
  183.5210  171.8170  137.0080 C   0  0  0  0  0  3  0  0  0  0  0  0
  182.5110  171.1370  137.0420 O   0  0  0  0  0  0  0  0  0  0  0  0
  184.4770  178.1640  140.7590 N   0  0  0  0  0  2  0  0  0  0  0  0
  186.3380  179.2830  141.4930 C   0  0  0  0  0  1  0  0  0  0  0  0
  184.8920  179.3610  141.3650 N   0  0  0  0  0  0  0  0  0  0  0  0
  184.3540  179.3860  142.7190 C   0  0  0  0  0  2  0  0  0  0  0  0
  184.7740  178.1240  143.4740 C   0  0  0  0  0  2  0  0  0  0  0  0
  185.2630  178.4030  144.8970 C   0  0  0  0  0  0  0  0  0  0  0  0
  184.1820  178.2650  145.7670 O   0  0  0  0  0  1  0  0  0  0  0  0
  185.7530  179.7090  144.9880 O   0  0  0  0  0  1  0  0  0  0  0  0
  186.3530  177.3980  145.2730 C   0  0  0  0  0  2  0  0  0  0  0  0
  191.5000  177.4940  144.5020 C   0  0  2  0  0  3  0  0  0  0  0  0
  191.8140  176.5190  143.5100 O   0  0  0  0  0  0  0  0  0  0  0  0
  189.5310  176.1980  144.0620 C   0  0  1  0  0  3  0  0  0  0  0  0
  188.1050  177.0690  142.3200 O   0  0  0  0  0  1  0  0  0  0  0  0
  187.6920  177.7010  144.5990 C   0  0  1  0  0  3  0  0  0  0  0  0
  188.8890  178.0280  145.5320 C   0  0  2  0  0  3  0  0  0  0  0  0
  190.0290  177.3690  144.8030 C   0  0  1  0  0  0  0  0  0  0  0  0
  188.1190  176.5800  143.6290 C   0  0  2  0  0  3  0  0  0  0  0  0
  190.6110  175.9160  143.0410 C   0  0  0  0  0  2  0  0  0  0  0  0
  190.5670  178.5150  143.9200 C   0  0  0  0  0  2  0  0  0  0  0  0
  190.0180  177.3510  147.5790 O   0  0  0  0  0  1  0  0  0  0  0  0
  188.7680  177.4840  146.9630 C   0  0  0  0  0  2  0  0  0  0  0  0
  184.0070  178.5070  138.3720 C   0  0  0  0  0  2  0  0  0  0  0  0
  185.5870  175.9940  136.3760 C   0  0  0  0  0  3  0  0  0  0  0  0
  188.8570  174.4570  136.4120 C   0  0  0  0  0  0  0  0  0  0  0  0
  190.2440  175.4310  138.0920 N   0  0  0  0  0  0  0  0  0  0  0  0
  185.1030  176.6580  137.2300 C   0  0  0  0  0  3  0  0  0  0  0  0
  185.2410  177.6300  138.2800 C   0  0  1  0  0  3  0  0  0  0  0  0
  189.4460  176.5230  138.1680 C   0  0  0  0  0  3  0  0  0  0  0  0
  186.7100  175.4980  135.6890 C   0  0  0  0  0  0  0  0  0  0  0  0
  188.5890  173.3370  135.5750 N   0  0  0  0  0  1  0  0  0  0  0  0
  189.9720  174.4110  137.2430 C   0  0  0  0  0  3  0  0  0  0  0  0
  187.6640  178.0050  137.4830 C   0  0  0  0  0  3  0  0  0  0  0  0
  186.4360  178.4460  137.8610 C   0  0  0  0  0  3  0  0  0  0  0  0
  187.9820  175.5680  136.4640 C   0  0  0  0  0  0  0  0  0  0  0  0
  186.6610  175.2400  134.3880 C   0  0  0  0  0  2  0  0  0  0  0  0
  188.2850  176.6360  137.3960 C   0  0  0  0  0  0  0  0  0  0  0  0
  1 39  1  6  0  0  0
  1  3  1  0  0  0  0
  1 18  1  0  0  0  0
  3  2  1  6  0  0  0
  4  5  1  0  0  0  0
  4  3  1  0  0  0  0
  5  6  2  0  0  0  0
  7  4  1  0  0  0  0
  8  7  1  0  0  0  0
  9 11  1  0  0  0  0
 10  9  1  0  0  0  0
 10 11  1  0  0  0  0
 11  8  1  0  0  0  0
 13 12  1  1  0  0  0
 13 11  1  0  0  0  0
 13 14  1  0  0  0  0
 15 16  1  0  0  0  0
 15 14  1  0  0  0  0
 16 17  2  0  0  0  0
 18 20  1  0  0  0  0
 20 19  1  0  0  0  0
 20 21  1  0  0  0  0
 21 22  1  0  0  0  0
 22 23  1  0  0  0  0
 23 25  1  0  0  0  0
 23 26  1  0  0  0  0
 23 24  1  0  0  0  0
 27 36  1  6  0  0  0
 27 33  1  0  0  0  0
 28 27  1  0  0  0  0
 29 35  1  6  0  0  0
 29 33  1  0  0  0  0
 31 26  1  1  0  0  0
 31 32  1  0  0  0  0
 32 38  1  1  0  0  0
 33 36  1  6  0  0  0
 33 32  1  0  0  0  0
 34 30  1  6  0  0  0
 34 29  1  0  0  0  0
 34 31  1  0  0  0  0
 35 28  1  0  0  0  0
 38 37  1  0  0  0  0
 40 43  2  0  0  0  0
 41 51  2  0  0  0  0
 41 48  1  0  0  0  0
 42 45  1  0  0  0  0
 43 44  1  0  0  0  0
 44 39  1  6  0  0  0
 46 40  1  0  0  0  0
 46 51  1  0  0  0  0
 47 41  1  0  0  0  0
 48 42  2  0  0  0  0
 49 50  2  0  0  0  0
 50 44  1  0  0  0  0
 51 53  1  0  0  0  0
 52 46  2  0  0  0  0
 53 49  1  0  0  0  0
 53 45  2  0  0  0  0
M  END
>  <MODEL>
5

>  <REMARK>
 VINA RESULT:      -6.0      2.143      8.514
  Name = 
  20 active torsions:
  status: ('A' for Active; 'I' for Inactive)
    1  A    between atoms: C_6  and  C_36
    2  A    between atoms: C_6  and  C_42
    3  A    between atoms: C_8  and  C_53
    4  A    between atoms: C_10  and  C_18
    5  A    between atoms: C_10  and  N_20
    6  A    between atoms: C_10  and  C_49
    7  A    between atoms: C_12  and  C_18
    8  A    between atoms: C_15  and  N_39
    9  A    between atoms: C_15  and  C_50
   10  A    between atoms: C_16  and  C_47
   11  A    between atoms: C_16  and  C_50
   12  A    between atoms: N_20  and  N_39
   13  A    between atoms: N_29  and  C_35
   14  A    between atoms: N_29  and  C_36
   15  A    between atoms: N_29  and  C_49
   16  A    between atoms: C_30  and  N_37
   17  A    between atoms: C_30  and  C_42
   18  A    between atoms: C_33  and  C_47
   19  A    between atoms: N_37  and  C_53
   20  A    between atoms: C_38  and  C_45
                            x       y       z     vdW  Elec       q    Type
                         _______ _______ _______ _____ _____    ______ ____

>  <TORSDO>
F 20

$$$$
=
 OpenBabel10232409283D

 53 58  0  0  1  0  0  0  0  0999 V2000
  183.8530  177.4920  138.4800 C   0  0  1  0  0  3  0  0  0  0  0  0
  182.2740  176.3190  139.9270 O   0  0  0  0  0  1  0  0  0  0  0  0
  183.3740  177.1840  139.9030 C   0  0  2  0  0  3  0  0  0  0  0  0
  183.0950  178.4040  140.6550 N   0  0  0  0  0  0  0  0  0  0  0  0
  181.7820  178.9840  140.6360 C   0  0  0  0  0  3  0  0  0  0  0  0
  180.9300  178.8380  141.6430 C   0  0  0  0  0  2  0  0  0  0  0  0
  184.1650  178.9870  141.4530 C   0  0  0  0  0  2  0  0  0  0  0  0
  184.7530  177.9500  142.3990 C   0  0  0  0  0  2  0  0  0  0  0  0
  183.4220  178.8250  144.3920 C   0  0  0  0  0  2  0  0  0  0  0  0
  184.3510  179.9490  143.9410 C   0  0  0  0  0  2  0  0  0  0  0  0
  184.7840  178.5010  143.8150 C   0  0  0  0  0  0  0  0  0  0  0  0
  185.7200  178.6850  146.1410 C   0  0  0  0  0  1  0  0  0  0  0  0
  185.8380  177.9730  144.8020 C   0  0  2  0  0  3  0  0  0  0  0  0
  187.1950  178.1030  144.2890 N   0  0  0  0  0  2  0  0  0  0  0  0
  187.9440  176.9560  144.7660 C   0  0  0  0  0  2  0  0  0  0  0  0
  189.0440  177.4100  145.6610 C   0  0  0  0  0  3  0  0  0  0  0  0
  189.1560  176.9370  146.7780 O   0  0  0  0  0  0  0  0  0  0  0  0
  182.6980  177.5990  137.5930 N   0  0  0  0  0  2  0  0  0  0  0  0
  182.9800  177.2460  135.3460 C   0  0  0  0  0  1  0  0  0  0  0  0
  182.7980  176.5850  136.6270 N   0  0  0  0  0  0  0  0  0  0  0  0
  181.5140  175.8990  136.5640 C   0  0  0  0  0  2  0  0  0  0  0  0
  181.5020  174.9120  135.3960 C   0  0  0  0  0  2  0  0  0  0  0  0
  181.8040  173.4720  135.8150 C   0  0  0  0  0  0  0  0  0  0  0  0
  180.6390  172.7190  135.6670 O   0  0  0  0  0  1  0  0  0  0  0  0
  182.1980  173.4360  137.1560 O   0  0  0  0  0  1  0  0  0  0  0  0
  182.9030  172.8940  134.9220 C   0  0  0  0  0  2  0  0  0  0  0  0
  187.8520  171.8350  136.1410 C   0  0  2  0  0  3  0  0  0  0  0  0
  188.6910  172.5820  135.2620 O   0  0  0  0  0  0  0  0  0  0  0  0
  186.4780  172.8360  134.4500 C   0  0  1  0  0  3  0  0  0  0  0  0
  185.6160  175.0230  134.9990 O   0  0  0  0  0  1  0  0  0  0  0  0
  184.3020  173.0820  135.5130 C   0  0  1  0  0  3  0  0  0  0  0  0
  184.9960  171.8170  136.0880 C   0  0  2  0  0  3  0  0  0  0  0  0
  186.4290  172.0550  135.6980 C   0  0  1  0  0  0  0  0  0  0  0  0
  185.2650  173.7590  134.5180 C   0  0  2  0  0  3  0  0  0  0  0  0
  187.8830  173.3950  134.4150 C   0  0  0  0  0  2  0  0  0  0  0  0
  186.9980  172.7770  136.9370 C   0  0  0  0  0  2  0  0  0  0  0  0
  183.3920  169.9930  136.2420 O   0  0  0  0  0  1  0  0  0  0  0  0
  184.4890  170.4820  135.5230 C   0  0  0  0  0  2  0  0  0  0  0  0
  184.7250  178.7450  138.3760 C   0  0  0  0  0  2  0  0  0  0  0  0
  187.8780  178.1550  139.9610 C   0  0  0  0  0  3  0  0  0  0  0  0
  191.0490  176.8530  138.8190 C   0  0  0  0  0  0  0  0  0  0  0  0
  190.9260  176.1770  136.5340 N   0  0  0  0  0  0  0  0  0  0  0  0
  186.9710  178.5120  139.2870 C   0  0  0  0  0  3  0  0  0  0  0  0
  186.1700  178.3720  138.1010 C   0  0  1  0  0  3  0  0  0  0  0  0
  189.5730  176.1290  136.5840 C   0  0  0  0  0  3  0  0  0  0  0  0
  189.0150  177.3550  140.1710 C   0  0  0  0  0  0  0  0  0  0  0  0
  191.8680  177.2660  139.9080 N   0  0  0  0  0  1  0  0  0  0  0  0
  191.6640  176.5310  137.6130 C   0  0  0  0  0  3  0  0  0  0  0  0
  187.4020  176.1540  137.6460 C   0  0  0  0  0  3  0  0  0  0  0  0
  186.2780  176.9080  137.7630 C   0  0  0  0  0  3  0  0  0  0  0  0
  189.6380  176.8340  138.9200 C   0  0  0  0  0  0  0  0  0  0  0  0
  189.3280  176.9100  141.3820 C   0  0  0  0  0  2  0  0  0  0  0  0
  188.8710  176.4730  137.7440 C   0  0  0  0  0  0  0  0  0  0  0  0
  1 39  1  1  0  0  0
  1  3  1  0  0  0  0
  3  2  1  6  0  0  0
  3  4  1  0  0  0  0
  4  7  1  0  0  0  0
  5  4  1  0  0  0  0
  5  6  2  0  0  0  0
  7  8  1  0  0  0  0
  8 11  1  0  0  0  0
 10  9  1  0  0  0  0
 11 10  1  0  0  0  0
 11  9  1  0  0  0  0
 11 13  1  0  0  0  0
 13 12  1  1  0  0  0
 14 15  1  0  0  0  0
 14 13  1  0  0  0  0
 15 16  1  0  0  0  0
 16 17  2  0  0  0  0
 18  1  1  0  0  0  0
 19 20  1  0  0  0  0
 20 18  1  0  0  0  0
 21 20  1  0  0  0  0
 22 23  1  0  0  0  0
 22 21  1  0  0  0  0
 23 25  1  0  0  0  0
 24 23  1  0  0  0  0
 26 23  1  0  0  0  0
 27 36  1  1  0  0  0
 28 27  1  0  0  0  0
 29 35  1  1  0  0  0
 29 34  1  0  0  0  0
 29 33  1  0  0  0  0
 31 26  1  6  0  0  0
 31 32  1  0  0  0  0
 32 38  1  6  0  0  0
 33 32  1  0  0  0  0
 33 27  1  0  0  0  0
 33 36  1  1  0  0  0
 34 30  1  1  0  0  0
 34 31  1  0  0  0  0
 35 28  1  0  0  0  0
 38 37  1  0  0  0  0
 40 46  1  0  0  0  0
 41 51  1  0  0  0  0
 41 47  1  0  0  0  0
 42 45  2  0  0  0  0
 42 48  1  0  0  0  0
 43 40  2  0  0  0  0
 44 39  1  1  0  0  0
 44 43  1  0  0  0  0
 45 53  1  0  0  0  0
 46 52  2  0  0  0  0
 48 41  2  0  0  0  0
 49 53  1  0  0  0  0
 49 50  2  0  0  0  0
 50 44  1  0  0  0  0
 51 46  1  0  0  0  0
 53 51  2  0  0  0  0
M  END
>  <MODEL>
6

>  <REMARK>
 VINA RESULT:      -5.9      2.069      4.372
  Name = 
  20 active torsions:
  status: ('A' for Active; 'I' for Inactive)
    1  A    between atoms: C_6  and  C_36
    2  A    between atoms: C_6  and  C_42
    3  A    between atoms: C_8  and  C_53
    4  A    between atoms: C_10  and  C_18
    5  A    between atoms: C_10  and  N_20
    6  A    between atoms: C_10  and  C_49
    7  A    between atoms: C_12  and  C_18
    8  A    between atoms: C_15  and  N_39
    9  A    between atoms: C_15  and  C_50
   10  A    between atoms: C_16  and  C_47
   11  A    between atoms: C_16  and  C_50
   12  A    between atoms: N_20  and  N_39
   13  A    between atoms: N_29  and  C_35
   14  A    between atoms: N_29  and  C_36
   15  A    between atoms: N_29  and  C_49
   16  A    between atoms: C_30  and  N_37
   17  A    between atoms: C_30  and  C_42
   18  A    between atoms: C_33  and  C_47
   19  A    between atoms: N_37  and  C_53
   20  A    between atoms: C_38  and  C_45
                            x       y       z     vdW  Elec       q    Type
                         _______ _______ _______ _____ _____    ______ ____

>  <TORSDO>
F 20

$$$$
=
 OpenBabel10232409283D

 53 58  0  0  1  0  0  0  0  0999 V2000
  188.7100  176.7400  138.1150 C   0  0  1  0  0  3  0  0  0  0  0  0
  189.1350  179.0320  138.8420 O   0  0  0  0  0  1  0  0  0  0  0  0
  188.7890  177.7450  139.2700 C   0  0  2  0  0  3  0  0  0  0  0  0
  189.6880  177.2880  140.3240 N   0  0  0  0  0  0  0  0  0  0  0  0
  191.1060  177.2450  140.1020 C   0  0  0  0  0  3  0  0  0  0  0  0
  191.9770  177.6630  141.0120 C   0  0  0  0  0  2  0  0  0  0  0  0
  189.1150  176.9200  141.6130 C   0  0  0  0  0  2  0  0  0  0  0  0
  188.8230  178.1620  142.4420 C   0  0  0  0  0  2  0  0  0  0  0  0
  187.5480  176.4770  143.8720 C   0  0  0  0  0  2  0  0  0  0  0  0
  186.8520  177.8240  144.0340 C   0  0  0  0  0  2  0  0  0  0  0  0
  188.3530  177.7580  143.8300 C   0  0  0  0  0  0  0  0  0  0  0  0
  190.6670  178.3870  144.5820 C   0  0  0  0  0  1  0  0  0  0  0  0
  189.2600  178.0370  145.0400 C   0  0  2  0  0  3  0  0  0  0  0  0
  189.3060  176.9170  145.9700 N   0  0  0  0  0  2  0  0  0  0  0  0
  189.5230  177.4710  147.2930 C   0  0  0  0  0  2  0  0  0  0  0  0
  188.2380  177.9860  147.8410 C   0  0  0  0  0  3  0  0  0  0  0  0
  187.8770  177.6620  148.9590 O   0  0  0  0  0  0  0  0  0  0  0  0
  187.3120  176.4110  137.8530 N   0  0  0  0  0  2  0  0  0  0  0  0
  185.9890  178.2150  137.3550 C   0  0  0  0  0  1  0  0  0  0  0  0
  186.8720  177.2100  136.7860 N   0  0  0  0  0  0  0  0  0  0  0  0
  186.0520  176.3800  135.9140 C   0  0  0  0  0  2  0  0  0  0  0  0
  184.8070  175.9020  136.6630 C   0  0  0  0  0  2  0  0  0  0  0  0
  183.6750  175.4540  135.7350 C   0  0  0  0  0  0  0  0  0  0  0  0
  183.5580  174.0670  135.8260 O   0  0  0  0  0  1  0  0  0  0  0  0
  183.9750  175.7980  134.4140 O   0  0  0  0  0  1  0  0  0  0  0  0
  182.3630  176.1080  136.1710 C   0  0  0  0  0  2  0  0  0  0  0  0
  181.3190  179.6430  139.8470 C   0  0  2  0  0  3  0  0  0  0  0  0
  180.6950  178.9700  140.9380 O   0  0  0  0  0  0  0  0  0  0  0  0
  180.8360  177.3920  139.1750 C   0  0  1  0  0  3  0  0  0  0  0  0
  182.6010  175.8000  139.5980 O   0  0  0  0  0  1  0  0  0  0  0  0
  182.5030  176.9040  137.4690 C   0  0  1  0  0  3  0  0  0  0  0  0
  182.1550  178.4160  137.4050 C   0  0  2  0  0  3  0  0  0  0  0  0
  181.5030  178.6330  138.7440 C   0  0  1  0  0  0  0  0  0  0  0  0
  181.7100  176.2680  138.6280 C   0  0  2  0  0  3  0  0  0  0  0  0
  180.6380  177.5740  140.6640 C   0  0  0  0  0  2  0  0  0  0  0  0
  182.6890  179.0720  139.6270 C   0  0  0  0  0  2  0  0  0  0  0  0
  181.0020  180.2040  136.2230 O   0  0  0  0  0  1  0  0  0  0  0  0
  181.2100  178.8200  136.2650 C   0  0  0  0  0  2  0  0  0  0  0  0
  189.3970  177.2150  136.8320 C   0  0  0  0  0  2  0  0  0  0  0  0
  192.7590  176.0160  137.0780 C   0  0  0  0  0  3  0  0  0  0  0  0
  194.4670  173.0800  135.8470 C   0  0  0  0  0  0  0  0  0  0  0  0
  192.9570  171.6230  134.7100 N   0  0  0  0  0  0  0  0  0  0  0  0
  191.6940  176.4140  136.7420 C   0  0  0  0  0  3  0  0  0  0  0  0
  190.3480  176.1550  136.3090 C   0  0  1  0  0  3  0  0  0  0  0  0
  191.8890  172.2160  135.2960 C   0  0  0  0  0  3  0  0  0  0  0  0
  193.6780  174.9690  137.2700 C   0  0  0  0  0  0  0  0  0  0  0  0
  195.8120  173.5040  136.0410 N   0  0  0  0  0  1  0  0  0  0  0  0
  194.2230  172.0320  134.9640 C   0  0  0  0  0  3  0  0  0  0  0  0
  190.7530  173.6680  136.8580 C   0  0  0  0  0  3  0  0  0  0  0  0
  190.0260  174.8140  136.9170 C   0  0  0  0  0  3  0  0  0  0  0  0
  193.3850  173.7440  136.4730 C   0  0  0  0  0  0  0  0  0  0  0  0
  194.5590  175.0010  138.2620 C   0  0  0  0  0  2  0  0  0  0  0  0
  192.0390  173.3000  136.1670 C   0  0  0  0  0  0  0  0  0  0  0  0
  1 39  1  6  0  0  0
  1  3  1  0  0  0  0
  3  2  1  6  0  0  0
  3  4  1  0  0  0  0
  4  7  1  0  0  0  0
  5  4  1  0  0  0  0
  5  6  2  0  0  0  0
  7  8  1  0  0  0  0
  8 11  1  0  0  0  0
  9 10  1  0  0  0  0
 11  9  1  0  0  0  0
 11 10  1  0  0  0  0
 11 13  1  0  0  0  0
 13 12  1  6  0  0  0
 13 14  1  0  0  0  0
 14 15  1  0  0  0  0
 15 16  1  0  0  0  0
 16 17  2  0  0  0  0
 18  1  1  0  0  0  0
 20 19  1  0  0  0  0
 20 18  1  0  0  0  0
 21 22  1  0  0  0  0
 21 20  1  0  0  0  0
 23 24  1  0  0  0  0
 23 26  1  0  0  0  0
 23 22  1  0  0  0  0
 25 23  1  0  0  0  0
 27 36  1  1  0  0  0
 27 28  1  0  0  0  0
 29 35  1  1  0  0  0
 31 26  1  6  0  0  0
 31 34  1  0  0  0  0
 32 38  1  6  0  0  0
 32 31  1  0  0  0  0
 32 33  1  0  0  0  0
 33 29  1  0  0  0  0
 33 36  1  1  0  0  0
 33 27  1  0  0  0  0
 34 29  1  0  0  0  0
 34 30  1  1  0  0  0
 35 28  1  0  0  0  0
 37 38  1  0  0  0  0
 40 46  1  0  0  0  0
 41 47  1  0  0  0  0
 41 51  1  0  0  0  0
 42 48  1  0  0  0  0
 42 45  2  0  0  0  0
 43 40  2  0  0  0  0
 44 43  1  0  0  0  0
 44 39  1  1  0  0  0
 44 50  1  0  0  0  0
 45 53  1  0  0  0  0
 46 52  2  0  0  0  0
 48 41  2  0  0  0  0
 49 50  2  0  0  0  0
 51 46  1  0  0  0  0
 53 51  2  0  0  0  0
 53 49  1  0  0  0  0
M  END
>  <MODEL>
7

>  <REMARK>
 VINA RESULT:      -5.9      2.677      5.820
  Name = 
  20 active torsions:
  status: ('A' for Active; 'I' for Inactive)
    1  A    between atoms: C_6  and  C_36
    2  A    between atoms: C_6  and  C_42
    3  A    between atoms: C_8  and  C_53
    4  A    between atoms: C_10  and  C_18
    5  A    between atoms: C_10  and  N_20
    6  A    between atoms: C_10  and  C_49
    7  A    between atoms: C_12  and  C_18
    8  A    between atoms: C_15  and  N_39
    9  A    between atoms: C_15  and  C_50
   10  A    between atoms: C_16  and  C_47
   11  A    between atoms: C_16  and  C_50
   12  A    between atoms: N_20  and  N_39
   13  A    between atoms: N_29  and  C_35
   14  A    between atoms: N_29  and  C_36
   15  A    between atoms: N_29  and  C_49
   16  A    between atoms: C_30  and  N_37
   17  A    between atoms: C_30  and  C_42
   18  A    between atoms: C_33  and  C_47
   19  A    between atoms: N_37  and  C_53
   20  A    between atoms: C_38  and  C_45
                            x       y       z     vdW  Elec       q    Type
                         _______ _______ _______ _____ _____    ______ ____

>  <TORSDO>
F 20

$$$$
=
 OpenBabel10232409283D

 53 58  0  0  1  0  0  0  0  0999 V2000
  188.3390  177.2170  137.4300 C   0  0  1  0  0  3  0  0  0  0  0  0
  189.1410  179.2510  138.5160 O   0  0  0  0  0  1  0  0  0  0  0  0
  188.7480  177.9250  138.7270 C   0  0  2  0  0  3  0  0  0  0  0  0
  189.7790  177.1830  139.4450 N   0  0  0  0  0  0  0  0  0  0  0  0
  191.0760  176.9910  138.8610 C   0  0  0  0  0  3  0  0  0  0  0  0
  192.1960  177.2830  139.5110 C   0  0  0  0  0  2  0  0  0  0  0  0
  189.4730  176.6860  140.7800 C   0  0  0  0  0  2  0  0  0  0  0  0
  189.8260  177.7260  141.8330 C   0  0  0  0  0  2  0  0  0  0  0  0
  189.9690  175.6770  143.3470 C   0  0  0  0  0  2  0  0  0  0  0  0
  188.5090  176.1180  143.3220 C   0  0  0  0  0  2  0  0  0  0  0  0
  189.6210  177.1450  143.2230 C   0  0  0  0  0  0  0  0  0  0  0  0
  191.2060  177.6030  145.1180 C   0  0  0  0  0  1  0  0  0  0  0  0
  189.9050  178.0240  144.4520 C   0  0  2  0  0  3  0  0  0  0  0  0
  188.8180  177.9920  145.4210 N   0  0  0  0  0  2  0  0  0  0  0  0
  189.4160  177.7750  146.7250 C   0  0  0  0  0  2  0  0  0  0  0  0
  188.3490  177.5100  147.7300 C   0  0  0  0  0  3  0  0  0  0  0  0
  187.5110  178.3620  147.9690 O   0  0  0  0  0  0  0  0  0  0  0  0
  188.1280  175.7980  137.6990 N   0  0  0  0  0  2  0  0  0  0  0  0
  187.7710  173.7430  136.7470 C   0  0  0  0  0  1  0  0  0  0  0  0
  188.1670  175.1140  136.4720 N   0  0  0  0  0  0  0  0  0  0  0  0
  189.5550  175.0660  136.0310 C   0  0  0  0  0  2  0  0  0  0  0  0
  190.1810  173.7240  136.4110 C   0  0  0  0  0  2  0  0  0  0  0  0
  191.6360  173.5830  135.9600 C   0  0  0  0  0  0  0  0  0  0  0  0
  191.7690  174.1920  134.7120 O   0  0  0  0  0  1  0  0  0  0  0  0
  191.9710  172.2310  135.8410 O   0  0  0  0  0  1  0  0  0  0  0  0
  192.5570  174.2740  136.9660 C   0  0  0  0  0  2  0  0  0  0  0  0
  197.6430  175.1840  136.3280 C   0  0  2  0  0  3  0  0  0  0  0  0
  198.3150  174.7700  137.5160 O   0  0  0  0  0  0  0  0  0  0  0  0
  195.9950  174.6520  137.9870 C   0  0  1  0  0  3  0  0  0  0  0  0
  195.2410  172.3590  137.9790 O   0  0  0  0  0  1  0  0  0  0  0  0
  194.0370  173.9930  136.6990 C   0  0  1  0  0  3  0  0  0  0  0  0
  194.8210  175.0690  135.8980 C   0  0  2  0  0  3  0  0  0  0  0  0
  196.1640  175.0300  136.5740 C   0  0  1  0  0  0  0  0  0  0  0  0
  194.8120  173.6880  137.9960 C   0  0  2  0  0  3  0  0  0  0  0  0
  197.3730  174.2010  138.4200 C   0  0  0  0  0  2  0  0  0  0  0  0
  196.9400  174.0070  135.7180 C   0  0  0  0  0  2  0  0  0  0  0  0
  195.1270  177.4470  135.4880 O   0  0  0  0  0  1  0  0  0  0  0  0
  194.2240  176.4830  135.9480 C   0  0  0  0  0  2  0  0  0  0  0  0
  187.1050  177.8220  136.7560 C   0  0  0  0  0  2  0  0  0  0  0  0
  184.3290  178.9840  138.6920 C   0  0  0  0  0  3  0  0  0  0  0  0
  181.2470  177.4670  139.8110 C   0  0  0  0  0  0  0  0  0  0  0  0
  181.0320  175.2430  138.9730 N   0  0  0  0  0  0  0  0  0  0  0  0
  185.2750  178.4280  138.2440 C   0  0  0  0  0  3  0  0  0  0  0  0
  185.8360  177.3660  137.4520 C   0  0  1  0  0  3  0  0  0  0  0  0
  181.9590  175.4770  138.0130 C   0  0  0  0  0  3  0  0  0  0  0  0
  182.9450  179.0640  138.9290 C   0  0  0  0  0  0  0  0  0  0  0  0
  180.8720  178.4210  140.7990 N   0  0  0  0  0  1  0  0  0  0  0  0
  180.6730  176.2000  139.8620 C   0  0  0  0  0  3  0  0  0  0  0  0
  183.4430  176.8220  136.6610 C   0  0  0  0  0  3  0  0  0  0  0  0
  184.7610  177.0660  136.4390 C   0  0  0  0  0  3  0  0  0  0  0  0
  182.2320  177.7580  138.8370 C   0  0  0  0  0  0  0  0  0  0  0  0
  182.3220  180.2360  138.9680 C   0  0  0  0  0  2  0  0  0  0  0  0
  182.6120  176.7100  137.9120 C   0  0  0  0  0  0  0  0  0  0  0  0
  1 39  1  1  0  0  0
  1 18  1  0  0  0  0
  1  3  1  0  0  0  0
  3  2  1  6  0  0  0
  3  4  1  0  0  0  0
  4  7  1  0  0  0  0
  5  4  1  0  0  0  0
  5  6  2  0  0  0  0
  7  8  1  0  0  0  0
  8 11  1  0  0  0  0
 10  9  1  0  0  0  0
 11 10  1  0  0  0  0
 11  9  1  0  0  0  0
 11 13  1  0  0  0  0
 13 12  1  1  0  0  0
 13 14  1  0  0  0  0
 14 15  1  0  0  0  0
 15 16  1  0  0  0  0
 16 17  2  0  0  0  0
 20 19  1  0  0  0  0
 20 18  1  0  0  0  0
 21 22  1  0  0  0  0
 21 20  1  0  0  0  0
 23 22  1  0  0  0  0
 23 26  1  0  0  0  0
 24 23  1  0  0  0  0
 25 23  1  0  0  0  0
 27 36  1  6  0  0  0
 27 33  1  0  0  0  0
 27 28  1  0  0  0  0
 28 35  1  0  0  0  0
 29 34  1  0  0  0  0
 29 35  1  6  0  0  0
 31 26  1  1  0  0  0
 31 34  1  0  0  0  0
 32 38  1  1  0  0  0
 32 33  1  0  0  0  0
 32 31  1  0  0  0  0
 33 36  1  6  0  0  0
 33 29  1  0  0  0  0
 34 30  1  6  0  0  0
 37 38  1  0  0  0  0
 40 46  1  0  0  0  0
 41 48  1  0  0  0  0
 41 47  1  0  0  0  0
 42 48  2  0  0  0  0
 43 40  2  0  0  0  0
 44 39  1  6  0  0  0
 44 43  1  0  0  0  0
 45 42  1  0  0  0  0
 46 52  2  0  0  0  0
 49 53  1  0  0  0  0
 50 49  2  0  0  0  0
 50 44  1  0  0  0  0
 51 46  1  0  0  0  0
 51 41  2  0  0  0  0
 53 45  2  0  0  0  0
 53 51  1  0  0  0  0
M  END
>  <MODEL>
8

>  <REMARK>
 VINA RESULT:      -5.8      3.704      8.872
  Name = 
  20 active torsions:
  status: ('A' for Active; 'I' for Inactive)
    1  A    between atoms: C_6  and  C_36
    2  A    between atoms: C_6  and  C_42
    3  A    between atoms: C_8  and  C_53
    4  A    between atoms: C_10  and  C_18
    5  A    between atoms: C_10  and  N_20
    6  A    between atoms: C_10  and  C_49
    7  A    between atoms: C_12  and  C_18
    8  A    between atoms: C_15  and  N_39
    9  A    between atoms: C_15  and  C_50
   10  A    between atoms: C_16  and  C_47
   11  A    between atoms: C_16  and  C_50
   12  A    between atoms: N_20  and  N_39
   13  A    between atoms: N_29  and  C_35
   14  A    between atoms: N_29  and  C_36
   15  A    between atoms: N_29  and  C_49
   16  A    between atoms: C_30  and  N_37
   17  A    between atoms: C_30  and  C_42
   18  A    between atoms: C_33  and  C_47
   19  A    between atoms: N_37  and  C_53
   20  A    between atoms: C_38  and  C_45
                            x       y       z     vdW  Elec       q    Type
                         _______ _______ _______ _____ _____    ______ ____

>  <TORSDO>
F 20

$$$$
=
 OpenBabel10232409283D

 53 58  0  0  1  0  0  0  0  0999 V2000
  188.8860  176.2450  136.2990 C   0  0  1  0  0  3  0  0  0  0  0  0
  187.9580  174.0200  136.6820 O   0  0  0  0  0  1  0  0  0  0  0  0
  187.6520  175.3820  136.5810 C   0  0  2  0  0  3  0  0  0  0  0  0
  186.5980  175.6080  135.5970 N   0  0  0  0  0  0  0  0  0  0  0  0
  186.7410  176.6310  134.6010 C   0  0  0  0  0  3  0  0  0  0  0  0
  186.3230  177.8750  134.7990 C   0  0  0  0  0  2  0  0  0  0  0  0
  185.4250  174.7430  135.6270 C   0  0  0  0  0  2  0  0  0  0  0  0
  184.6220  174.9750  136.8990 C   0  0  0  0  0  2  0  0  0  0  0  0
  182.2990  174.6120  135.9080 C   0  0  0  0  0  2  0  0  0  0  0  0
  182.9850  175.6850  135.0690 C   0  0  0  0  0  2  0  0  0  0  0  0
  183.2700  175.5770  136.5540 C   0  0  0  0  0  0  0  0  0  0  0  0
  182.1730  177.8350  136.6850 C   0  0  0  0  0  1  0  0  0  0  0  0
  182.6630  176.6390  137.4860 C   0  0  2  0  0  3  0  0  0  0  0  0
  183.5990  177.0780  138.5120 N   0  0  0  0  0  2  0  0  0  0  0  0
  184.3480  178.1890  137.9570 C   0  0  0  0  0  2  0  0  0  0  0  0
  185.0700  178.9040  139.0460 C   0  0  0  0  0  3  0  0  0  0  0  0
  184.5450  179.8490  139.6080 O   0  0  0  0  0  0  0  0  0  0  0  0
  189.5190  176.6140  137.5610 N   0  0  0  0  0  2  0  0  0  0  0  0
  189.0940  178.8420  137.2220 C   0  0  0  0  0  1  0  0  0  0  0  0
  188.8190  177.7100  138.0920 N   0  0  0  0  0  0  0  0  0  0  0  0
  189.4040  178.0290  139.3880 C   0  0  0  0  0  2  0  0  0  0  0  0
  189.4690  176.7730  140.2580 C   0  0  0  0  0  2  0  0  0  0  0  0
  190.0730  177.0230  141.6410 C   0  0  0  0  0  0  0  0  0  0  0  0
  191.2910  177.6820  141.4750 O   0  0  0  0  0  1  0  0  0  0  0  0
  190.3020  175.8070  142.2910 O   0  0  0  0  0  1  0  0  0  0  0  0
  189.1280  177.8980  142.4660 C   0  0  0  0  0  2  0  0  0  0  0  0
  189.1470  177.8470  147.6710 C   0  0  2  0  0  3  0  0  0  0  0  0
  187.8070  178.0390  148.1170 O   0  0  0  0  0  0  0  0  0  0  0  0
  187.7900  178.4080  145.7750 C   0  0  1  0  0  3  0  0  0  0  0  0
  186.8160  176.5230  144.6250 O   0  0  0  0  0  1  0  0  0  0  0  0
  188.9360  177.3770  143.8910 C   0  0  1  0  0  3  0  0  0  0  0  0
  189.9950  177.8050  144.9430 C   0  0  2  0  0  3  0  0  0  0  0  0
  189.1450  177.9870  146.1710 C   0  0  1  0  0  0  0  0  0  0  0  0
  187.5350  177.7070  144.4450 C   0  0  2  0  0  3  0  0  0  0  0  0
  186.9390  178.1110  146.9900 C   0  0  0  0  0  2  0  0  0  0  0  0
  189.2230  176.6000  146.8410 C   0  0  0  0  0  2  0  0  0  0  0  0
  192.1000  178.8400  144.2960 O   0  0  0  0  0  1  0  0  0  0  0  0
  190.7600  179.0950  144.6100 C   0  0  0  0  0  2  0  0  0  0  0  0
  189.9030  175.5850  135.3640 C   0  0  0  0  0  2  0  0  0  0  0  0
  192.0390  172.8250  136.1490 C   0  0  0  0  0  3  0  0  0  0  0  0
  195.2620  172.5310  137.7550 C   0  0  0  0  0  0  0  0  0  0  0  0
  196.1450  174.6780  138.3070 N   0  0  0  0  0  0  0  0  0  0  0  0
  191.3300  173.7740  136.1460 C   0  0  0  0  0  3  0  0  0  0  0  0
  191.1590  175.2020  136.1230 C   0  0  1  0  0  3  0  0  0  0  0  0
  195.3050  175.2860  137.4350 C   0  0  0  0  0  3  0  0  0  0  0  0
  193.3180  172.2440  136.2210 C   0  0  0  0  0  0  0  0  0  0  0  0
  195.2600  171.1300  138.0100 N   0  0  0  0  0  1  0  0  0  0  0  0
  196.1380  173.3340  138.4790 C   0  0  0  0  0  3  0  0  0  0  0  0
  193.6850  175.3980  135.6450 C   0  0  0  0  0  3  0  0  0  0  0  0
  192.3840  175.6990  135.3990 C   0  0  0  0  0  3  0  0  0  0  0  0
  194.3540  173.1180  136.8430 C   0  0  0  0  0  0  0  0  0  0  0  0
  193.6050  171.1300  135.5590 C   0  0  0  0  0  2  0  0  0  0  0  0
  194.3680  174.5590  136.6930 C   0  0  0  0  0  0  0  0  0  0  0  0
  1 39  1  6  0  0  0
  1  3  1  0  0  0  0
  1 18  1  0  0  0  0
  3  2  1  6  0  0  0
  4  7  1  0  0  0  0
  4  3  1  0  0  0  0
  5  6  2  0  0  0  0
  5  4  1  0  0  0  0
  7  8  1  0  0  0  0
  9 11  1  0  0  0  0
 10  9  1  0  0  0  0
 10 11  1  0  0  0  0
 11  8  1  0  0  0  0
 11 13  1  0  0  0  0
 13 12  1  6  0  0  0
 13 14  1  0  0  0  0
 15 14  1  0  0  0  0
 15 16  1  0  0  0  0
 16 17  2  0  0  0  0
 18 20  1  0  0  0  0
 19 20  1  0  0  0  0
 20 21  1  0  0  0  0
 21 22  1  0  0  0  0
 22 23  1  0  0  0  0
 23 25  1  0  0  0  0
 23 26  1  0  0  0  0
 24 23  1  0  0  0  0
 27 36  1  6  0  0  0
 27 28  1  0  0  0  0
 29 33  1  0  0  0  0
 29 35  1  1  0  0  0
 31 26  1  6  0  0  0
 31 34  1  0  0  0  0
 31 32  1  0  0  0  0
 32 38  1  6  0  0  0
 32 33  1  0  0  0  0
 33 36  1  6  0  0  0
 33 27  1  0  0  0  0
 34 30  1  1  0  0  0
 34 29  1  0  0  0  0
 35 28  1  0  0  0  0
 37 38  1  0  0  0  0
 40 46  1  0  0  0  0
 41 47  1  0  0  0  0
 41 48  1  0  0  0  0
 42 48  2  0  0  0  0
 43 40  2  0  0  0  0
 44 39  1  6  0  0  0
 44 43  1  0  0  0  0
 45 42  1  0  0  0  0
 46 51  1  0  0  0  0
 49 53  1  0  0  0  0
 50 49  2  0  0  0  0
 50 44  1  0  0  0  0
 51 41  2  0  0  0  0
 52 46  2  0  0  0  0
 53 51  1  0  0  0  0
 53 45  2  0  0  0  0
M  END
>  <MODEL>
9

>  <REMARK>
 VINA RESULT:      -5.8      2.961      9.679
  Name = 
  20 active torsions:
  status: ('A' for Active; 'I' for Inactive)
    1  A    between atoms: C_6  and  C_36
    2  A    between atoms: C_6  and  C_42
    3  A    between atoms: C_8  and  C_53
    4  A    between atoms: C_10  and  C_18
    5  A    between atoms: C_10  and  N_20
    6  A    between atoms: C_10  and  C_49
    7  A    between atoms: C_12  and  C_18
    8  A    between atoms: C_15  and  N_39
    9  A    between atoms: C_15  and  C_50
   10  A    between atoms: C_16  and  C_47
   11  A    between atoms: C_16  and  C_50
   12  A    between atoms: N_20  and  N_39
   13  A    between atoms: N_29  and  C_35
   14  A    between atoms: N_29  and  C_36
   15  A    between atoms: N_29  and  C_49
   16  A    between atoms: C_30  and  N_37
   17  A    between atoms: C_30  and  C_42
   18  A    between atoms: C_33  and  C_47
   19  A    between atoms: N_37  and  C_53
   20  A    between atoms: C_38  and  C_45
                            x       y       z     vdW  Elec       q    Type
                         _______ _______ _______ _____ _____    ______ ____

>  <TORSDO>
F 20

$$$$
