=
 OpenBabel10232411533D

 31 36  0  0  1  0  0  0  0  0999 V2000
  183.8920  178.7920  145.8810 C   0  0  0  0  0  3  0  0  0  0  0  0
  186.8150  178.0240  145.2840 C   0  0  0  0  0  0  0  0  0  0  0  0
  189.6730  177.0760  142.4160 C   0  0  0  0  0  0  0  0  0  0  0  0
  183.9730  178.8090  144.5460 C   0  0  0  0  0  3  0  0  0  0  0  0
  184.7900  178.0720  146.8400 C   0  0  0  0  0  2  0  0  0  0  0  0
  190.7530  176.9770  143.1930 C   0  0  0  0  0  3  0  0  0  0  0  0
  187.1840  177.6160  142.9330 C   0  0  0  0  0  3  0  0  0  0  0  0
  186.2420  178.1450  146.5230 C   0  0  0  0  0  0  0  0  0  0  0  0
  188.1500  177.8460  145.5540 C   0  0  0  0  0  0  0  0  0  0  0  0
  187.2050  178.0870  147.4270 O   0  0  0  0  0  0  0  0  0  0  0  0
  189.0330  177.5480  144.5280 C   0  0  0  0  0  0  0  0  0  0  0  0
  188.5480  177.4450  143.2440 C   0  0  0  0  0  0  0  0  0  0  0  0
  185.0240  178.2540  143.6640 C   0  0  0  0  0  3  0  0  0  0  0  0
  190.3320  177.2770  144.5800 C   0  0  0  0  0  3  0  0  0  0  0  0
  188.3810  177.9090  146.8780 N   0  0  0  0  0  0  0  0  0  0  0  0
  186.2860  177.9410  143.9800 C   0  0  0  0  0  0  0  0  0  0  0  0
  189.7760  177.7270  138.7840 C   0  0  0  0  0  2  0  0  0  0  0  0
  189.6560  176.9320  140.9930 N   0  0  0  0  0  0  0  0  0  0  0  0
  189.2560  177.9610  140.1190 C   0  0  0  0  0  0  0  0  0  0  0  0
  190.4790  176.3820  139.0080 C   0  0  2  0  0  3  0  0  0  0  0  0
  188.5740  178.9600  140.4650 O   0  0  0  0  0  0  0  0  0  0  0  0
  190.3970  175.9760  140.3740 O   0  0  0  0  0  0  0  0  0  0  0  0
  192.3300  175.6840  137.4010 N   0  0  0  0  0  0  0  0  0  0  0  0
  192.7300  177.1690  139.1630 O   0  0  0  0  0  0  0  0  0  0  0  0
  191.7570  174.1160  134.3510 O   0  0  0  0  0  0  0  0  0  0  0  0
  191.0140  173.7110  137.1890 N   0  0  0  0  0  1  0  0  0  0  0  0
  191.4020  174.9580  136.5490 C   0  0  2  0  0  3  0  0  0  0  0  0
  193.6030  175.1670  135.4390 C   0  0  0  0  0  3  0  0  0  0  0  0
  193.6530  175.8430  136.8060 C   0  0  0  0  0  3  0  0  0  0  0  0
  192.2070  174.6690  135.3420 C   0  0  0  0  0  0  0  0  0  0  0  0
  191.9070  176.4340  138.5520 C   0  0  0  0  0  0  0  0  0  0  0  0
  1  5  1  0  0  0  0
  2  9  1  0  0  0  0
  2  8  2  0  0  0  0
  3  6  2  0  0  0  0
  3 12  1  0  0  0  0
  4  1  2  0  0  0  0
  6 14  1  0  0  0  0
  7 12  2  0  0  0  0
  7 16  1  0  0  0  0
  8  5  1  0  0  0  0
  8 10  1  0  0  0  0
  9 15  2  0  0  0  0
 11 14  2  0  0  0  0
 11  9  1  0  0  0  0
 12 11  1  0  0  0  0
 13 16  2  0  0  0  0
 13  4  1  0  0  0  0
 15 10  1  0  0  0  0
 16  2  1  0  0  0  0
 17 20  1  0  0  0  0
 17 19  1  0  0  0  0
 18  3  1  0  0  0  0
 19 21  2  0  0  0  0
 19 18  1  0  0  0  0
 20 31  1  1  0  0  0
 20 22  1  0  0  0  0
 22 18  1  0  0  0  0
 23 31  1  0  0  0  0
 25 30  2  0  0  0  0
 27 26  1  1  0  0  0
 27 23  1  0  0  0  0
 28 29  2  0  0  0  0
 29 23  1  0  0  0  0
 30 28  1  0  0  0  0
 30 27  1  0  0  0  0
 31 24  2  0  0  0  0
M  END
>  <MODEL>
1

>  <REMARK>
 VINA RESULT:     -10.6      0.000      0.000
  Name = 
  2 active torsions:
  status: ('A' for Active; 'I' for Inactive)
    1  A    between atoms: C_6  and  N_9
    2  A    between atoms: C_26  and  C_29
                            x       y       z     vdW  Elec       q    Type
                         _______ _______ _______ _____ _____    ______ ____

>  <TORSDO>
F 2

$$$$
=
 OpenBabel10232411533D

 31 36  0  0  1  0  0  0  0  0999 V2000
  186.6550  177.9000  146.6730 C   0  0  0  0  0  3  0  0  0  0  0  0
  189.0800  177.5640  144.8020 C   0  0  0  0  0  0  0  0  0  0  0  0
  190.5000  177.4460  140.8950 C   0  0  0  0  0  0  0  0  0  0  0  0
  186.1710  178.1620  145.4550 C   0  0  0  0  0  3  0  0  0  0  0  0
  187.8880  177.1200  147.0170 C   0  0  0  0  0  2  0  0  0  0  0  0
  191.8080  177.3260  141.1310 C   0  0  0  0  0  3  0  0  0  0  0  0
  188.4420  177.6190  142.4740 C   0  0  0  0  0  3  0  0  0  0  0  0
  189.0730  177.4010  146.1630 C   0  0  0  0  0  0  0  0  0  0  0  0
  190.4090  177.4820  144.4660 C   0  0  0  0  0  0  0  0  0  0  0  0
  190.3260  177.2860  146.5670 O   0  0  0  0  0  0  0  0  0  0  0  0
  190.7890  177.4660  143.1330 C   0  0  0  0  0  0  0  0  0  0  0  0
  189.8150  177.5410  142.1640 C   0  0  0  0  0  0  0  0  0  0  0  0
  186.7700  177.8860  144.1300 C   0  0  0  0  0  3  0  0  0  0  0  0
  191.9970  177.3290  142.5980 C   0  0  0  0  0  3  0  0  0  0  0  0
  191.1690  177.3340  145.5650 N   0  0  0  0  0  0  0  0  0  0  0  0
  188.0560  177.6570  143.8360 C   0  0  0  0  0  0  0  0  0  0  0  0
  188.7730  176.7160  137.7160 C   0  0  0  0  0  2  0  0  0  0  0  0
  189.8940  177.5550  139.6040 N   0  0  0  0  0  0  0  0  0  0  0  0
  189.8160  176.4810  138.6970 C   0  0  0  0  0  0  0  0  0  0  0  0
  188.3080  178.1100  138.1570 C   0  0  2  0  0  3  0  0  0  0  0  0
  190.5310  175.4470  138.7580 O   0  0  0  0  0  0  0  0  0  0  0  0
  189.0040  178.5430  139.3250 O   0  0  0  0  0  0  0  0  0  0  0  0
  185.9240  177.7960  137.3120 N   0  0  0  0  0  0  0  0  0  0  0  0
  186.3700  178.4400  139.5150 O   0  0  0  0  0  0  0  0  0  0  0  0
  185.1170  176.1510  134.3570 O   0  0  0  0  0  0  0  0  0  0  0  0
  186.8950  178.3600  135.2130 N   0  0  0  0  0  1  0  0  0  0  0  0
  186.3790  177.2760  136.0320 C   0  0  2  0  0  3  0  0  0  0  0  0
  183.9410  176.9380  136.2780 C   0  0  0  0  0  3  0  0  0  0  0  0
  184.4890  177.6300  137.5230 C   0  0  0  0  0  3  0  0  0  0  0  0
  185.1410  176.7380  135.4270 C   0  0  0  0  0  0  0  0  0  0  0  0
  186.8240  178.1420  138.3770 C   0  0  0  0  0  0  0  0  0  0  0  0
  1  5  1  0  0  0  0
  2  8  2  0  0  0  0
  3  6  2  0  0  0  0
  3 12  1  0  0  0  0
  4  1  2  0  0  0  0
  6 14  1  0  0  0  0
  7 16  1  0  0  0  0
  8 10  1  0  0  0  0
  8  5  1  0  0  0  0
  9  2  1  0  0  0  0
  9 15  2  0  0  0  0
 11  9  1  0  0  0  0
 12  7  2  0  0  0  0
 12 11  1  0  0  0  0
 13  4  1  0  0  0  0
 14 11  2  0  0  0  0
 15 10  1  0  0  0  0
 16 13  2  0  0  0  0
 16  2  1  0  0  0  0
 17 20  1  0  0  0  0
 17 19  1  0  0  0  0
 18  3  1  0  0  0  0
 19 21  2  0  0  0  0
 19 18  1  0  0  0  0
 20 31  1  1  0  0  0
 20 22  1  0  0  0  0
 22 18  1  0  0  0  0
 23 29  1  0  0  0  0
 23 31  1  0  0  0  0
 25 30  2  0  0  0  0
 27 26  1  6  0  0  0
 27 23  1  0  0  0  0
 28 29  2  0  0  0  0
 30 27  1  0  0  0  0
 30 28  1  0  0  0  0
 31 24  2  0  0  0  0
M  END
>  <MODEL>
2

>  <REMARK>
 VINA RESULT:     -10.1      3.151      4.484
  Name = 
  2 active torsions:
  status: ('A' for Active; 'I' for Inactive)
    1  A    between atoms: C_6  and  N_9
    2  A    between atoms: C_26  and  C_29
                            x       y       z     vdW  Elec       q    Type
                         _______ _______ _______ _____ _____    ______ ____

>  <TORSDO>
F 2

$$$$
=
 OpenBabel10232411533D

 31 36  0  0  1  0  0  0  0  0999 V2000
  192.0510  176.2350  147.8480 C   0  0  0  0  0  3  0  0  0  0  0  0
  189.5490  177.1080  146.2780 C   0  0  0  0  0  0  0  0  0  0  0  0
  187.7120  177.5390  142.5710 C   0  0  0  0  0  0  0  0  0  0  0  0
  192.3070  175.8680  146.5880 C   0  0  0  0  0  3  0  0  0  0  0  0
  191.0780  177.2730  148.3170 C   0  0  0  0  0  2  0  0  0  0  0  0
  186.5050  177.9530  142.9610 C   0  0  0  0  0  3  0  0  0  0  0  0
  189.8600  176.9070  143.8920 C   0  0  0  0  0  3  0  0  0  0  0  0
  189.7630  177.2660  147.6220 C   0  0  0  0  0  0  0  0  0  0  0  0
  188.2400  177.4880  146.1040 C   0  0  0  0  0  0  0  0  0  0  0  0
  188.6280  177.6620  148.1720 O   0  0  0  0  0  0  0  0  0  0  0  0
  187.7090  177.5870  144.8280 C   0  0  0  0  0  0  0  0  0  0  0  0
  188.5120  177.2930  143.7490 C   0  0  0  0  0  0  0  0  0  0  0  0
  191.6240  176.2710  145.3380 C   0  0  0  0  0  3  0  0  0  0  0  0
  186.5050  177.9940  144.4410 C   0  0  0  0  0  3  0  0  0  0  0  0
  187.6770  177.8050  147.2830 N   0  0  0  0  0  0  0  0  0  0  0  0
  190.3960  176.7850  145.1980 C   0  0  0  0  0  0  0  0  0  0  0  0
  188.7530  177.9420  139.0540 C   0  0  0  0  0  2  0  0  0  0  0  0
  188.1110  177.2940  141.2200 N   0  0  0  0  0  0  0  0  0  0  0  0
  187.8580  178.1940  140.1670 C   0  0  0  0  0  0  0  0  0  0  0  0
  189.5130  176.7260  139.5990 C   0  0  2  0  0  3  0  0  0  0  0  0
  186.9970  179.1120  140.2100 O   0  0  0  0  0  0  0  0  0  0  0  0
  189.0990  176.4090  140.9270 O   0  0  0  0  0  0  0  0  0  0  0  0
  191.7720  176.3780  138.4700 N   0  0  0  0  0  0  0  0  0  0  0  0
  191.5570  177.6550  140.4170 O   0  0  0  0  0  0  0  0  0  0  0  0
  192.1530  175.1700  135.2320 O   0  0  0  0  0  0  0  0  0  0  0  0
  190.7670  174.3550  137.7190 N   0  0  0  0  0  1  0  0  0  0  0  0
  191.1700  175.6970  137.3340 C   0  0  2  0  0  3  0  0  0  0  0  0
  193.5440  176.2110  136.8680 C   0  0  0  0  0  3  0  0  0  0  0  0
  193.1780  176.7110  138.2620 C   0  0  0  0  0  3  0  0  0  0  0  0
  192.2780  175.6250  136.3580 C   0  0  0  0  0  0  0  0  0  0  0  0
  190.9970  176.9430  139.5410 C   0  0  0  0  0  0  0  0  0  0  0  0
  1  5  1  0  0  0  0
  2  8  2  0  0  0  0
  3  6  2  0  0  0  0
  3 12  1  0  0  0  0
  4  1  2  0  0  0  0
  6 14  1  0  0  0  0
  7 16  1  0  0  0  0
  8 10  1  0  0  0  0
  8  5  1  0  0  0  0
  9  2  1  0  0  0  0
  9 15  2  0  0  0  0
 11  9  1  0  0  0  0
 12  7  2  0  0  0  0
 12 11  1  0  0  0  0
 13  4  1  0  0  0  0
 14 11  2  0  0  0  0
 15 10  1  0  0  0  0
 16 13  2  0  0  0  0
 16  2  1  0  0  0  0
 17 20  1  0  0  0  0
 17 19  1  0  0  0  0
 18  3  1  0  0  0  0
 19 21  2  0  0  0  0
 19 18  1  0  0  0  0
 20 31  1  1  0  0  0
 20 22  1  0  0  0  0
 22 18  1  0  0  0  0
 23 31  1  0  0  0  0
 25 30  2  0  0  0  0
 27 26  1  1  0  0  0
 27 23  1  0  0  0  0
 28 29  2  0  0  0  0
 29 23  1  0  0  0  0
 30 28  1  0  0  0  0
 30 27  1  0  0  0  0
 31 24  2  0  0  0  0
M  END
>  <MODEL>
3

>  <REMARK>
 VINA RESULT:     -10.1      1.660      3.499
  Name = 
  2 active torsions:
  status: ('A' for Active; 'I' for Inactive)
    1  A    between atoms: C_6  and  N_9
    2  A    between atoms: C_26  and  C_29
                            x       y       z     vdW  Elec       q    Type
                         _______ _______ _______ _____ _____    ______ ____

>  <TORSDO>
F 2

$$$$
=
 OpenBabel10232411533D

 31 36  0  0  1  0  0  0  0  0999 V2000
  188.7710  177.2270  145.4920 C   0  0  0  0  0  3  0  0  0  0  0  0
  185.8810  178.1310  144.9240 C   0  0  0  0  0  0  0  0  0  0  0  0
  182.8650  178.6600  142.1100 C   0  0  0  0  0  0  0  0  0  0  0  0
  188.5690  176.9010  144.2110 C   0  0  0  0  0  3  0  0  0  0  0  0
  188.0280  178.2440  146.3040 C   0  0  0  0  0  2  0  0  0  0  0  0
  181.8730  179.0540  142.9100 C   0  0  0  0  0  3  0  0  0  0  0  0
  185.3370  178.0030  142.5750 C   0  0  0  0  0  3  0  0  0  0  0  0
  186.5530  178.2490  146.1130 C   0  0  0  0  0  0  0  0  0  0  0  0
  184.5970  178.5060  145.2310 C   0  0  0  0  0  0  0  0  0  0  0  0
  185.6840  178.6210  147.0370 O   0  0  0  0  0  0  0  0  0  0  0  0
  183.6530  178.6410  144.2250 C   0  0  0  0  0  0  0  0  0  0  0  0
  184.0260  178.3840  142.9250 C   0  0  0  0  0  0  0  0  0  0  0  0
  187.4930  177.3360  143.2930 C   0  0  0  0  0  3  0  0  0  0  0  0
  182.3910  179.0510  144.2960 C   0  0  0  0  0  3  0  0  0  0  0  0
  184.4820  178.7840  146.5420 N   0  0  0  0  0  0  0  0  0  0  0  0
  186.2950  177.8460  143.6070 C   0  0  0  0  0  0  0  0  0  0  0  0
  182.6120  179.1770  138.4640 C   0  0  0  0  0  2  0  0  0  0  0  0
  182.7650  178.4590  140.6970 N   0  0  0  0  0  0  0  0  0  0  0  0
  182.1630  179.3890  139.8280 C   0  0  0  0  0  0  0  0  0  0  0  0
  183.5090  177.9500  138.6710 C   0  0  2  0  0  3  0  0  0  0  0  0
  181.3760  180.2990  140.1970 O   0  0  0  0  0  0  0  0  0  0  0  0
  183.5850  177.5900  140.0510 O   0  0  0  0  0  0  0  0  0  0  0  0
  185.3970  177.3100  137.0830 N   0  0  0  0  0  0  0  0  0  0  0  0
  185.5630  179.1610  138.5030 O   0  0  0  0  0  0  0  0  0  0  0  0
  185.0280  175.0930  134.4300 O   0  0  0  0  0  0  0  0  0  0  0  0
  184.4930  175.1220  137.3430 N   0  0  0  0  0  1  0  0  0  0  0  0
  184.6000  176.2680  136.4550 C   0  0  2  0  0  3  0  0  0  0  0  0
  186.6690  176.6650  135.1590 C   0  0  0  0  0  3  0  0  0  0  0  0
  186.6370  177.5940  136.3690 C   0  0  0  0  0  3  0  0  0  0  0  0
  185.3980  175.9040  135.2640 C   0  0  0  0  0  0  0  0  0  0  0  0
  184.8800  178.1790  138.1040 C   0  0  0  0  0  0  0  0  0  0  0  0
  1  5  1  0  0  0  0
  2  9  1  0  0  0  0
  2  8  2  0  0  0  0
  3  6  2  0  0  0  0
  3 12  1  0  0  0  0
  4  1  2  0  0  0  0
  6 14  1  0  0  0  0
  7 12  2  0  0  0  0
  7 16  1  0  0  0  0
  8  5  1  0  0  0  0
  8 10  1  0  0  0  0
  9 15  2  0  0  0  0
 11 14  2  0  0  0  0
 11  9  1  0  0  0  0
 12 11  1  0  0  0  0
 13 16  2  0  0  0  0
 13  4  1  0  0  0  0
 15 10  1  0  0  0  0
 16  2  1  0  0  0  0
 17 20  1  0  0  0  0
 17 19  1  0  0  0  0
 18  3  1  0  0  0  0
 19 21  2  0  0  0  0
 19 18  1  0  0  0  0
 20 31  1  1  0  0  0
 20 22  1  0  0  0  0
 22 18  1  0  0  0  0
 23 31  1  0  0  0  0
 25 30  2  0  0  0  0
 27 23  1  0  0  0  0
 27 26  1  1  0  0  0
 28 30  1  0  0  0  0
 28 29  2  0  0  0  0
 29 23  1  0  0  0  0
 30 27  1  0  0  0  0
 31 24  2  0  0  0  0
M  END
>  <MODEL>
4

>  <REMARK>
 VINA RESULT:      -9.9      4.302      5.997
  Name = 
  2 active torsions:
  status: ('A' for Active; 'I' for Inactive)
    1  A    between atoms: C_6  and  N_9
    2  A    between atoms: C_26  and  C_29
                            x       y       z     vdW  Elec       q    Type
                         _______ _______ _______ _____ _____    ______ ____

>  <TORSDO>
F 2

$$$$
=
 OpenBabel10232411533D

 31 36  0  0  1  0  0  0  0  0999 V2000
  187.4580  177.6240  147.9240 C   0  0  0  0  0  3  0  0  0  0  0  0
  189.4500  177.3870  145.5860 C   0  0  0  0  0  0  0  0  0  0  0  0
  190.0130  177.1890  141.4710 C   0  0  0  0  0  0  0  0  0  0  0  0
  186.7050  177.7860  146.8320 C   0  0  0  0  0  3  0  0  0  0  0  0
  188.7990  176.9620  148.0200 C   0  0  0  0  0  2  0  0  0  0  0  0
  191.3470  177.1830  141.4230 C   0  0  0  0  0  3  0  0  0  0  0  0
  188.3300  177.2770  143.4500 C   0  0  0  0  0  3  0  0  0  0  0  0
  189.7460  177.2930  146.9210 C   0  0  0  0  0  0  0  0  0  0  0  0
  190.6790  177.3950  144.9750 C   0  0  0  0  0  0  0  0  0  0  0  0
  191.0620  177.2980  147.0490 O   0  0  0  0  0  0  0  0  0  0  0  0
  190.7680  177.3430  143.5920 C   0  0  0  0  0  0  0  0  0  0  0  0
  189.6070  177.2920  142.8540 C   0  0  0  0  0  0  0  0  0  0  0  0
  187.0310  177.4920  145.4180 C   0  0  0  0  0  3  0  0  0  0  0  0
  191.8430  177.2750  142.8140 C   0  0  0  0  0  3  0  0  0  0  0  0
  191.6650  177.3620  145.8880 N   0  0  0  0  0  0  0  0  0  0  0  0
  188.2410  177.3510  144.8620 C   0  0  0  0  0  0  0  0  0  0  0  0
  187.8930  178.2030  138.6250 C   0  0  0  0  0  2  0  0  0  0  0  0
  189.1400  177.1850  140.3380 N   0  0  0  0  0  0  0  0  0  0  0  0
  188.2850  178.2580  140.0210 C   0  0  0  0  0  0  0  0  0  0  0  0
  188.5980  176.9060  138.2060 C   0  0  2  0  0  3  0  0  0  0  0  0
  187.9450  179.1570  140.8330 O   0  0  0  0  0  0  0  0  0  0  0  0
  189.3620  176.3610  139.2810 O   0  0  0  0  0  0  0  0  0  0  0  0
  189.9660  176.0010  136.2550 N   0  0  0  0  0  0  0  0  0  0  0  0
  189.7070  178.2980  136.6110 O   0  0  0  0  0  0  0  0  0  0  0  0
  189.8350  172.7020  135.1630 O   0  0  0  0  0  0  0  0  0  0  0  0
  190.2880  174.1450  137.7100 N   0  0  0  0  0  1  0  0  0  0  0  0
  189.5770  174.6280  136.5380 C   0  0  2  0  0  3  0  0  0  0  0  0
  190.7160  174.7640  134.3460 C   0  0  0  0  0  3  0  0  0  0  0  0
  190.6460  176.1530  134.9730 C   0  0  0  0  0  3  0  0  0  0  0  0
  190.0350  173.8940  135.3390 C   0  0  0  0  0  0  0  0  0  0  0  0
  189.4590  177.1230  136.9960 C   0  0  0  0  0  0  0  0  0  0  0  0
  1  5  1  0  0  0  0
  2  8  2  0  0  0  0
  3 12  1  0  0  0  0
  4  1  2  0  0  0  0
  6  3  2  0  0  0  0
  6 14  1  0  0  0  0
  7 16  1  0  0  0  0
  8 10  1  0  0  0  0
  8  5  1  0  0  0  0
  9  2  1  0  0  0  0
  9 15  2  0  0  0  0
 11  9  1  0  0  0  0
 12  7  2  0  0  0  0
 12 11  1  0  0  0  0
 13  4  1  0  0  0  0
 14 11  2  0  0  0  0
 15 10  1  0  0  0  0
 16 13  2  0  0  0  0
 16  2  1  0  0  0  0
 17 19  1  0  0  0  0
 18  3  1  0  0  0  0
 19 18  1  0  0  0  0
 19 21  2  0  0  0  0
 20 31  1  6  0  0  0
 20 17  1  0  0  0  0
 20 22  1  0  0  0  0
 22 18  1  0  0  0  0
 23 27  1  0  0  0  0
 23 31  1  0  0  0  0
 24 31  2  0  0  0  0
 25 30  2  0  0  0  0
 27 26  1  1  0  0  0
 28 29  2  0  0  0  0
 28 30  1  0  0  0  0
 29 23  1  0  0  0  0
 30 27  1  0  0  0  0
M  END
>  <MODEL>
5

>  <REMARK>
 VINA RESULT:      -9.8      2.155      2.662
  Name = 
  2 active torsions:
  status: ('A' for Active; 'I' for Inactive)
    1  A    between atoms: C_6  and  N_9
    2  A    between atoms: C_26  and  C_29
                            x       y       z     vdW  Elec       q    Type
                         _______ _______ _______ _____ _____    ______ ____

>  <TORSDO>
F 2

$$$$
=
 OpenBabel10232411533D

 31 36  0  0  1  0  0  0  0  0999 V2000
  185.5580  178.3530  146.4570 C   0  0  0  0  0  3  0  0  0  0  0  0
  187.7680  177.7120  144.4090 C   0  0  0  0  0  0  0  0  0  0  0  0
  188.9210  177.6160  140.4150 C   0  0  0  0  0  0  0  0  0  0  0  0
  185.0640  178.7850  145.2930 C   0  0  0  0  0  3  0  0  0  0  0  0
  186.6390  177.3380  146.6700 C   0  0  0  0  0  2  0  0  0  0  0  0
  190.1940  177.2400  140.5530 C   0  0  0  0  0  3  0  0  0  0  0  0
  187.0230  178.0500  142.1370 C   0  0  0  0  0  3  0  0  0  0  0  0
  187.8070  177.4570  145.7550 C   0  0  0  0  0  0  0  0  0  0  0  0
  189.0370  177.4130  143.9790 C   0  0  0  0  0  0  0  0  0  0  0  0
  189.0370  177.0860  146.0650 O   0  0  0  0  0  0  0  0  0  0  0  0
  189.3330  177.4230  142.6250 C   0  0  0  0  0  0  0  0  0  0  0  0
  188.3370  177.7440  141.7300 C   0  0  0  0  0  0  0  0  0  0  0  0
  185.5260  178.5000  143.9160 C   0  0  0  0  0  3  0  0  0  0  0  0
  190.4630  177.1040  142.0020 C   0  0  0  0  0  3  0  0  0  0  0  0
  189.8160  177.0490  145.0130 N   0  0  0  0  0  0  0  0  0  0  0  0
  186.7280  178.0600  143.5230 C   0  0  0  0  0  0  0  0  0  0  0  0
  187.6100  177.4760  136.9670 C   0  0  0  0  0  2  0  0  0  0  0  0
  188.2750  177.9260  139.1760 N   0  0  0  0  0  0  0  0  0  0  0  0
  188.6830  177.3900  137.9400 C   0  0  0  0  0  0  0  0  0  0  0  0
  186.5500  178.1970  137.8100 C   0  0  2  0  0  3  0  0  0  0  0  0
  189.8110  176.8740  137.7280 O   0  0  0  0  0  0  0  0  0  0  0  0
  187.0050  178.4070  139.1470 O   0  0  0  0  0  0  0  0  0  0  0  0
  184.0390  178.0900  138.2400 N   0  0  0  0  0  0  0  0  0  0  0  0
  185.2150  176.2630  137.3750 O   0  0  0  0  0  0  0  0  0  0  0  0
  182.0490  180.8850  138.8000 O   0  0  0  0  0  0  0  0  0  0  0  0
  184.5400  179.7210  139.9000 N   0  0  0  0  0  1  0  0  0  0  0  0
  183.9740  179.5020  138.5790 C   0  0  2  0  0  3  0  0  0  0  0  0
  181.6950  178.5720  138.3290 C   0  0  0  0  0  3  0  0  0  0  0  0
  182.7260  177.4750  138.0780 C   0  0  0  0  0  3  0  0  0  0  0  0
  182.5200  179.7750  138.6090 C   0  0  0  0  0  0  0  0  0  0  0  0
  185.2490  177.4480  137.8020 C   0  0  0  0  0  0  0  0  0  0  0  0
  1  5  1  0  0  0  0
  2  8  2  0  0  0  0
  3  6  2  0  0  0  0
  3 12  1  0  0  0  0
  4  1  2  0  0  0  0
  6 14  1  0  0  0  0
  7 16  1  0  0  0  0
  8 10  1  0  0  0  0
  8  5  1  0  0  0  0
  9  2  1  0  0  0  0
  9 15  2  0  0  0  0
 11  9  1  0  0  0  0
 12  7  2  0  0  0  0
 12 11  1  0  0  0  0
 13  4  1  0  0  0  0
 14 11  2  0  0  0  0
 15 10  1  0  0  0  0
 16 13  2  0  0  0  0
 16  2  1  0  0  0  0
 17 20  1  0  0  0  0
 17 19  1  0  0  0  0
 18  3  1  0  0  0  0
 19 18  1  0  0  0  0
 20 31  1  1  0  0  0
 20 22  1  0  0  0  0
 21 19  2  0  0  0  0
 22 18  1  0  0  0  0
 23 27  1  0  0  0  0
 24 31  2  0  0  0  0
 27 30  1  0  0  0  0
 27 26  1  1  0  0  0
 28 30  1  0  0  0  0
 29 23  1  0  0  0  0
 29 28  2  0  0  0  0
 30 25  2  0  0  0  0
 31 23  1  0  0  0  0
M  END
>  <MODEL>
6

>  <REMARK>
 VINA RESULT:      -9.8      3.496      5.825
  Name = 
  2 active torsions:
  status: ('A' for Active; 'I' for Inactive)
    1  A    between atoms: C_6  and  N_9
    2  A    between atoms: C_26  and  C_29
                            x       y       z     vdW  Elec       q    Type
                         _______ _______ _______ _____ _____    ______ ____

>  <TORSDO>
F 2

$$$$
=
 OpenBabel10232411533D

 31 36  0  0  1  0  0  0  0  0999 V2000
  187.3200  177.8750  146.6430 C   0  0  0  0  0  3  0  0  0  0  0  0
  189.2100  177.5740  144.2290 C   0  0  0  0  0  0  0  0  0  0  0  0
  189.6000  177.3030  140.0980 C   0  0  0  0  0  0  0  0  0  0  0  0
  186.5240  178.0300  145.5790 C   0  0  0  0  0  3  0  0  0  0  0  0
  188.6540  177.1970  146.6940 C   0  0  0  0  0  2  0  0  0  0  0  0
  190.9310  177.2780  139.9950 C   0  0  0  0  0  3  0  0  0  0  0  0
  188.0020  177.4460  142.1420 C   0  0  0  0  0  3  0  0  0  0  0  0
  189.5600  177.4970  145.5520 C   0  0  0  0  0  0  0  0  0  0  0  0
  190.4130  177.5550  143.5670 C   0  0  0  0  0  0  0  0  0  0  0  0
  190.8800  177.4850  145.6250 O   0  0  0  0  0  0  0  0  0  0  0  0
  190.4440  177.4800  142.1840 C   0  0  0  0  0  0  0  0  0  0  0  0
  189.2530  177.4340  141.4940 C   0  0  0  0  0  0  0  0  0  0  0  0
  186.7880  177.7100  144.1580 C   0  0  0  0  0  3  0  0  0  0  0  0
  191.4850  177.3850  141.3630 C   0  0  0  0  0  3  0  0  0  0  0  0
  191.4360  177.5230  144.4400 N   0  0  0  0  0  0  0  0  0  0  0  0
  187.9710  177.5440  143.5550 C   0  0  0  0  0  0  0  0  0  0  0  0
  187.9320  177.9200  136.8640 C   0  0  0  0  0  2  0  0  0  0  0  0
  188.6810  177.2930  139.0020 N   0  0  0  0  0  0  0  0  0  0  0  0
  188.5470  178.3660  138.1000 C   0  0  0  0  0  0  0  0  0  0  0  0
  187.6770  176.4490  137.2150 C   0  0  2  0  0  3  0  0  0  0  0  0
  188.9430  179.5390  138.3280 O   0  0  0  0  0  0  0  0  0  0  0  0
  188.1860  176.1280  138.5090 O   0  0  0  0  0  0  0  0  0  0  0  0
  187.5810  174.3130  135.8250 N   0  0  0  0  0  0  0  0  0  0  0  0
  189.3170  175.8610  135.5790 O   0  0  0  0  0  0  0  0  0  0  0  0
  184.7490  172.3190  135.5300 O   0  0  0  0  0  0  0  0  0  0  0  0
  186.3880  173.4780  137.7080 N   0  0  0  0  0  1  0  0  0  0  0  0
  186.2680  173.9610  136.3420 C   0  0  2  0  0  3  0  0  0  0  0  0
  186.8620  172.4990  134.4370 C   0  0  0  0  0  3  0  0  0  0  0  0
  187.9960  173.4860  134.6970 C   0  0  0  0  0  3  0  0  0  0  0  0
  185.8430  172.8550  135.4570 C   0  0  0  0  0  0  0  0  0  0  0  0
  188.2550  175.5340  136.1740 C   0  0  0  0  0  0  0  0  0  0  0  0
  1  5  1  0  0  0  0
  2  8  2  0  0  0  0
  3 12  1  0  0  0  0
  4  1  2  0  0  0  0
  6  3  2  0  0  0  0
  6 14  1  0  0  0  0
  7 16  1  0  0  0  0
  8 10  1  0  0  0  0
  8  5  1  0  0  0  0
  9  2  1  0  0  0  0
  9 15  2  0  0  0  0
 11  9  1  0  0  0  0
 12  7  2  0  0  0  0
 12 11  1  0  0  0  0
 13  4  1  0  0  0  0
 14 11  2  0  0  0  0
 15 10  1  0  0  0  0
 16 13  2  0  0  0  0
 16  2  1  0  0  0  0
 17 20  1  0  0  0  0
 17 19  1  0  0  0  0
 18  3  1  0  0  0  0
 19 21  2  0  0  0  0
 19 18  1  0  0  0  0
 20 31  1  6  0  0  0
 20 22  1  0  0  0  0
 22 18  1  0  0  0  0
 23 31  1  0  0  0  0
 23 27  1  0  0  0  0
 24 31  2  0  0  0  0
 27 26  1  1  0  0  0
 28 29  2  0  0  0  0
 28 30  1  0  0  0  0
 29 23  1  0  0  0  0
 30 25  2  0  0  0  0
 30 27  1  0  0  0  0
M  END
>  <MODEL>
7

>  <REMARK>
 VINA RESULT:      -9.8      3.150      4.022
  Name = 
  2 active torsions:
  status: ('A' for Active; 'I' for Inactive)
    1  A    between atoms: C_6  and  N_9
    2  A    between atoms: C_26  and  C_29
                            x       y       z     vdW  Elec       q    Type
                         _______ _______ _______ _____ _____    ______ ____

>  <TORSDO>
F 2

$$$$
=
 OpenBabel10232411533D

 31 36  0  0  1  0  0  0  0  0999 V2000
  191.4970  175.7490  143.9820 C   0  0  0  0  0  3  0  0  0  0  0  0
  188.9880  177.1190  145.1310 C   0  0  0  0  0  0  0  0  0  0  0  0
  185.0640  178.3410  144.4960 C   0  0  0  0  0  0  0  0  0  0  0  0
  190.5650  175.5730  143.0410 C   0  0  0  0  0  3  0  0  0  0  0  0
  191.5200  176.7880  145.0620 C   0  0  0  0  0  2  0  0  0  0  0  0
  184.7690  178.8040  145.7130 C   0  0  0  0  0  3  0  0  0  0  0  0
  187.2190  177.2860  143.4960 C   0  0  0  0  0  3  0  0  0  0  0  0
  190.2150  177.0290  145.7350 C   0  0  0  0  0  0  0  0  0  0  0  0
  188.1790  177.6510  146.1040 C   0  0  0  0  0  0  0  0  0  0  0  0
  190.0860  177.4400  146.9840 O   0  0  0  0  0  0  0  0  0  0  0  0
  186.8760  178.0150  145.8020 C   0  0  0  0  0  0  0  0  0  0  0  0
  186.4130  177.8240  144.5200 C   0  0  0  0  0  0  0  0  0  0  0  0
  189.2550  176.2440  142.8830 C   0  0  0  0  0  3  0  0  0  0  0  0
  185.9600  178.5990  146.5670 C   0  0  0  0  0  3  0  0  0  0  0  0
  188.8620  177.8240  147.2490 N   0  0  0  0  0  0  0  0  0  0  0  0
  188.5430  176.8950  143.8110 C   0  0  0  0  0  0  0  0  0  0  0  0
  182.7930  179.2270  141.7250 C   0  0  0  0  0  2  0  0  0  0  0  0
  184.1630  178.2850  143.3870 N   0  0  0  0  0  0  0  0  0  0  0  0
  183.2180  179.2920  143.1110 C   0  0  0  0  0  0  0  0  0  0  0  0
  183.5860  177.9970  141.2650 C   0  0  2  0  0  3  0  0  0  0  0  0
  182.8290  180.1480  143.9470 O   0  0  0  0  0  0  0  0  0  0  0  0
  184.4210  177.4980  142.3100 O   0  0  0  0  0  0  0  0  0  0  0  0
  184.0480  177.7060  138.7750 N   0  0  0  0  0  0  0  0  0  0  0  0
  185.3580  179.1100  140.1100 O   0  0  0  0  0  0  0  0  0  0  0  0
  181.7970  176.2810  136.5420 O   0  0  0  0  0  0  0  0  0  0  0  0
  183.0520  175.5730  139.1290 N   0  0  0  0  0  1  0  0  0  0  0  0
  182.8500  176.9050  138.5830 C   0  0  2  0  0  3  0  0  0  0  0  0
  183.8260  177.5280  136.3970 C   0  0  0  0  0  3  0  0  0  0  0  0
  184.6780  178.1080  137.5220 C   0  0  0  0  0  3  0  0  0  0  0  0
  182.7280  176.8270  137.1110 C   0  0  0  0  0  0  0  0  0  0  0  0
  184.3940  178.3010  140.0370 C   0  0  0  0  0  0  0  0  0  0  0  0
  1  5  1  0  0  0  0
  2  8  2  0  0  0  0
  2  9  1  0  0  0  0
  3 12  1  0  0  0  0
  3  6  2  0  0  0  0
  4  1  2  0  0  0  0
  5  8  1  0  0  0  0
  6 14  1  0  0  0  0
  7 16  1  0  0  0  0
  7 12  2  0  0  0  0
  8 10  1  0  0  0  0
  9 15  2  0  0  0  0
 10 15  1  0  0  0  0
 11  9  1  0  0  0  0
 11 14  2  0  0  0  0
 12 11  1  0  0  0  0
 13  4  1  0  0  0  0
 13 16  2  0  0  0  0
 16  2  1  0  0  0  0
 17 19  1  0  0  0  0
 18  3  1  0  0  0  0
 19 18  1  0  0  0  0
 19 21  2  0  0  0  0
 20 31  1  6  0  0  0
 20 17  1  0  0  0  0
 20 22  1  0  0  0  0
 22 18  1  0  0  0  0
 23 31  1  0  0  0  0
 25 30  2  0  0  0  0
 27 23  1  0  0  0  0
 27 26  1  6  0  0  0
 28 30  1  0  0  0  0
 28 29  2  0  0  0  0
 29 23  1  0  0  0  0
 30 27  1  0  0  0  0
 31 24  2  0  0  0  0
M  END
>  <MODEL>
8

>  <REMARK>
 VINA RESULT:      -9.7      4.733      6.671
  Name = 
  2 active torsions:
  status: ('A' for Active; 'I' for Inactive)
    1  A    between atoms: C_6  and  N_9
    2  A    between atoms: C_26  and  C_29
                            x       y       z     vdW  Elec       q    Type
                         _______ _______ _______ _____ _____    ______ ____

>  <TORSDO>
F 2

$$$$
=
 OpenBabel10232411533D

 31 36  0  0  1  0  0  0  0  0999 V2000
  184.7590  178.6650  145.5500 C   0  0  0  0  0  3  0  0  0  0  0  0
  187.6430  177.7570  144.9590 C   0  0  0  0  0  0  0  0  0  0  0  0
  190.6180  177.1750  142.1120 C   0  0  0  0  0  0  0  0  0  0  0  0
  184.9420  178.9640  144.2600 C   0  0  0  0  0  3  0  0  0  0  0  0
  185.5170  177.6670  146.3720 C   0  0  0  0  0  2  0  0  0  0  0  0
  191.6240  176.8000  142.9060 C   0  0  0  0  0  3  0  0  0  0  0  0
  188.1520  177.8350  142.6000 C   0  0  0  0  0  3  0  0  0  0  0  0
  186.9890  177.6610  146.1600 C   0  0  0  0  0  0  0  0  0  0  0  0
  188.9330  177.3910  145.2550 C   0  0  0  0  0  0  0  0  0  0  0  0
  187.8730  177.3110  147.0790 O   0  0  0  0  0  0  0  0  0  0  0  0
  189.8620  177.2370  144.2380 C   0  0  0  0  0  0  0  0  0  0  0  0
  189.4690  177.4650  142.9390 C   0  0  0  0  0  0  0  0  0  0  0  0
  186.0050  178.5120  143.3350 C   0  0  0  0  0  3  0  0  0  0  0  0
  191.1260  176.8320  144.2990 C   0  0  0  0  0  3  0  0  0  0  0  0
  189.0670  177.1400  146.5690 N   0  0  0  0  0  0  0  0  0  0  0  0
  187.2090  178.0120  143.6420 C   0  0  0  0  0  0  0  0  0  0  0  0
  191.6260  176.9740  138.5670 C   0  0  0  0  0  2  0  0  0  0  0  0
  190.6970  177.3460  140.6940 N   0  0  0  0  0  0  0  0  0  0  0  0
  191.8990  177.2260  139.9700 C   0  0  0  0  0  0  0  0  0  0  0  0
  190.0930  177.0300  138.5850 C   0  0  2  0  0  3  0  0  0  0  0  0
  193.0460  177.2920  140.4830 O   0  0  0  0  0  0  0  0  0  0  0  0
  189.5960  177.2240  139.9090 O   0  0  0  0  0  0  0  0  0  0  0  0
  188.2860  175.8840  137.1980 N   0  0  0  0  0  0  0  0  0  0  0  0
  190.0860  174.6910  138.0950 O   0  0  0  0  0  0  0  0  0  0  0  0
  186.0030  177.5880  135.2050 O   0  0  0  0  0  0  0  0  0  0  0  0
  186.9290  177.6610  138.0170 N   0  0  0  0  0  1  0  0  0  0  0  0
  187.6520  177.1500  136.8640 C   0  0  2  0  0  3  0  0  0  0  0  0
  186.7000  175.3240  135.4930 C   0  0  0  0  0  3  0  0  0  0  0  0
  187.7690  174.7600  136.4250 C   0  0  0  0  0  3  0  0  0  0  0  0
  186.6940  176.7770  135.8000 C   0  0  0  0  0  0  0  0  0  0  0  0
  189.4980  175.7980  137.9670 C   0  0  0  0  0  0  0  0  0  0  0  0
  1  5  1  0  0  0  0
  2  9  1  0  0  0  0
  2  8  2  0  0  0  0
  3  6  2  0  0  0  0
  3 12  1  0  0  0  0
  4  1  2  0  0  0  0
  6 14  1  0  0  0  0
  7 12  2  0  0  0  0
  7 16  1  0  0  0  0
  8  5  1  0  0  0  0
  8 10  1  0  0  0  0
  9 15  2  0  0  0  0
 11 14  2  0  0  0  0
 11  9  1  0  0  0  0
 12 11  1  0  0  0  0
 13 16  2  0  0  0  0
 13  4  1  0  0  0  0
 15 10  1  0  0  0  0
 16  2  1  0  0  0  0
 17 20  1  0  0  0  0
 17 19  1  0  0  0  0
 18  3  1  0  0  0  0
 19 21  2  0  0  0  0
 19 18  1  0  0  0  0
 20 31  1  1  0  0  0
 20 22  1  0  0  0  0
 22 18  1  0  0  0  0
 23 31  1  0  0  0  0
 25 30  2  0  0  0  0
 27 23  1  0  0  0  0
 27 26  1  1  0  0  0
 28 30  1  0  0  0  0
 28 29  2  0  0  0  0
 29 23  1  0  0  0  0
 30 27  1  0  0  0  0
 31 24  2  0  0  0  0
M  END
>  <MODEL>
9

>  <REMARK>
 VINA RESULT:      -9.7      2.278      3.153
  Name = 
  2 active torsions:
  status: ('A' for Active; 'I' for Inactive)
    1  A    between atoms: C_6  and  N_9
    2  A    between atoms: C_26  and  C_29
                            x       y       z     vdW  Elec       q    Type
                         _______ _______ _______ _____ _____    ______ ____

>  <TORSDO>
F 2

$$$$
