=
 OpenBabel10222421503D

 54 60  0  0  1  0  0  0  0  0999 V2000
  191.0510  174.6680  136.0500 C   0  0  0  0  0  3  0  0  0  0  0  0
  188.5520  176.3700  137.9980 C   0  0  0  0  0  3  0  0  0  0  0  0
  186.3940  171.9080  135.8630 C   0  0  0  0  0  3  0  0  0  0  0  0
  187.6860  171.7100  136.0800 C   0  0  0  0  0  3  0  0  0  0  0  0
  184.4550  172.7520  134.5600 C   0  0  0  0  0  1  0  0  0  0  0  0
  189.7950  172.0610  135.1540 N   0  0  0  0  0  0  0  0  0  0  0  0
  188.4900  177.6490  138.7670 C   0  0  1  0  0  3  0  0  0  0  0  0
  190.9710  172.6490  134.6570 N   0  0  0  0  0  0  0  0  0  0  0  0
  188.9050  179.1100  137.7240 S   0  0  0  0  0  0  0  0  0  0  0  0
  192.8110  174.1300  134.3470 C   0  0  0  0  0  1  0  0  0  0  0  0
  187.5720  178.9400  136.4840 C   0  0  0  0  0  2  0  0  0  0  0  0
  186.1630  174.3550  135.3850 C   0  0  0  0  0  0  0  0  0  0  0  0
  187.9600  177.9510  135.3920 C   0  0  0  0  0  2  0  0  0  0  0  0
  188.6590  174.0660  135.9940 C   0  0  0  0  0  0  0  0  0  0  0  0
  189.6900  175.9760  137.4390 C   0  0  0  0  0  3  0  0  0  0  0  0
  188.7610  172.6220  135.7030 C   0  0  0  0  0  0  0  0  0  0  0  0
  191.5260  173.7690  134.9980 C   0  0  0  0  0  0  0  0  0  0  0  0
  185.6860  176.9110  135.5080 C   0  0  0  0  0  2  0  0  0  0  0  0
  189.8250  174.8170  136.5300 C   0  0  0  0  0  0  0  0  0  0  0  0
  187.5080  174.7390  135.8690 C   0  0  0  0  0  3  0  0  0  0  0  0
  186.7490  177.4910  134.5840 C   0  0  0  0  0  2  0  0  0  0  0  0
  185.7560  173.0690  135.2270 C   0  0  0  0  0  0  0  0  0  0  0  0
  185.1870  175.5110  135.1080 C   0  0  2  0  0  3  0  0  0  0  0  0
  183.8800  175.2810  135.7420 N   0  0  0  0  0  2  0  0  0  0  0  0
  183.3630  176.5270  136.3080 C   0  0  0  0  0  2  0  0  0  0  0  0
  181.9220  176.3480  136.7490 C   0  0  1  0  0  3  0  0  0  0  0  0
  181.8380  175.2500  137.7980 C   0  0  2  0  0  0  0  0  0  0  0  0
  180.5150  174.9040  138.1080 O   0  0  0  0  0  0  0  0  0  0  0  0
  182.6570  175.3340  138.9950 N   0  0  0  0  0  1  0  0  0  0  0  0
  181.2980  173.9240  137.4540 C   0  0  0  0  0  2  0  0  0  0  0  0
  181.4340  177.5490  137.2690 O   0  0  0  0  0  0  0  0  0  0  0  0
  182.5750  178.2600  137.6600 C   0  0  0  0  0  2  0  0  0  0  0  0
  180.8770  179.8640  138.5200 C   0  0  0  0  0  1  0  0  0  0  0  0
  182.2490  179.2640  138.7650 C   0  0  0  0  0  0  0  0  0  0  0  0
  182.2540  178.5780  140.1210 C   0  0  0  0  0  1  0  0  0  0  0  0
  183.2740  180.3940  138.7520 C   0  0  0  0  0  2  0  0  0  0  0  0
  184.4450  180.0260  139.4170 O   0  0  0  0  0  1  0  0  0  0  0  0
  187.1620  177.8130  139.5000 C   0  0  0  0  0  2  0  0  0  0  0  0
  187.2490  178.8000  140.4880 O   0  0  0  0  0  0  0  0  0  0  0  0
  187.1370  178.1120  141.6920 C   0  0  0  0  0  2  0  0  0  0  0  0
  185.4710  178.3660  142.3670 S   0  0  0  0  0  0  0  0  0  0  0  0
  185.2410  179.0660  145.0350 N   0  0  0  0  0  2  0  0  0  0  0  0
  185.3390  179.1160  146.4710 C   0  0  0  0  0  3  0  0  0  0  0  0
  187.0080  177.3340  146.6640 C   0  0  0  0  0  2  0  0  0  0  0  0
  187.2800  177.9180  144.3030 C   0  0  0  0  0  3  0  0  0  0  0  0
  186.1250  178.3640  147.1830 N   0  0  0  0  0  0  0  0  0  0  0  0
  186.0670  178.4220  144.0510 C   0  0  0  0  0  0  0  0  0  0  0  0
  187.9480  177.9360  145.6420 C   0  0  2  0  0  3  0  0  0  0  0  0
  189.8290  176.5510  146.9200 C   0  0  0  0  0  3  0  0  0  0  0  0
  190.4110  177.6450  144.8340 C   0  0  1  0  0  3  0  0  0  0  0  0
  191.2870  176.5570  146.8370 N   0  0  0  0  0  0  0  0  0  0  0  0
  189.2930  177.1960  145.6670 C   0  0  2  0  0  0  0  0  0  0  0  0
  191.6580  177.1780  145.5630 C   0  0  0  0  0  2  0  0  0  0  0  0
  189.6260  176.5200  144.4840 O   0  0  0  0  0  0  0  0  0  0  0  0
  1 19  1  0  0  0  0
  2  7  1  0  0  0  0
  3  4  1  0  0  0  0
  5 22  1  0  0  0  0
  6 16  1  0  0  0  0
  7 38  1  6  0  0  0
  8 17  1  0  0  0  0
  8  6  2  0  0  0  0
  9  7  1  0  0  0  0
 10 17  1  0  0  0  0
 11  9  1  0  0  0  0
 12 20  2  0  0  0  0
 13 11  1  0  0  0  0
 14 19  2  0  0  0  0
 15  2  2  0  0  0  0
 16 14  1  0  0  0  0
 16  4  2  0  0  0  0
 17  1  2  0  0  0  0
 19 15  1  0  0  0  0
 20 14  1  0  0  0  0
 21 13  1  0  0  0  0
 21 18  1  0  0  0  0
 22 12  1  0  0  0  0
 22  3  2  0  0  0  0
 23 12  1  0  0  0  0
 23 18  1  0  0  0  0
 23 24  1  1  0  0  0
 24 25  1  0  0  0  0
 26 25  1  1  0  0  0
 26 31  1  0  0  0  0
 26 27  1  0  0  0  0
 27 28  1  0  0  0  0
 27 29  1  1  0  0  0
 30 27  1  0  0  0  0
 30 28  1  0  0  0  0
 31 32  1  0  0  0  0
 32 34  1  0  0  0  0
 33 34  1  0  0  0  0
 34 35  1  0  0  0  0
 36 34  1  0  0  0  0
 36 37  1  0  0  0  0
 38 39  1  0  0  0  0
 39 40  1  0  0  0  0
 40 41  1  0  0  0  0
 41 47  1  0  0  0  0
 42 43  1  0  0  0  0
 43 46  2  0  0  0  0
 44 46  1  0  0  0  0
 47 45  2  0  0  0  0
 47 42  1  0  0  0  0
 48 45  1  6  0  0  0
 48 52  1  0  0  0  0
 48 44  1  0  0  0  0
 50 53  1  1  0  0  0
 50 52  1  0  0  0  0
 51 49  2  0  0  0  0
 52 49  1  1  0  0  0
 53 51  1  0  0  0  0
 54 50  1  0  0  0  0
 54 52  1  0  0  0  0
M  END
>  <MODEL>
1

>  <REMARK>
 VINA RESULT:      -7.0      0.000      0.000
  Name = 
  14 active torsions:
  status: ('A' for Active; 'I' for Inactive)
    1  A    between atoms: C_2  and  C_11
    2  A    between atoms: O_5  and  C_20
    3  A    between atoms: O_5  and  C_29
    4  A    between atoms: N_6  and  C_36
    5  A    between atoms: N_6  and  C_53
    6  A    between atoms: C_11  and  O_16
    7  A    between atoms: C_11  and  C_36
    8  A    between atoms: C_14  and  C_21
    9  A    between atoms: C_14  and  C_28
   10  A    between atoms: O_16  and  C_28
   11  A    between atoms: C_20  and  C_25
   12  A    between atoms: C_29  and  S_45
   13  A    between atoms: C_31  and  S_45
   14  A    between atoms: C_37  and  C_43
                            x       y       z     vdW  Elec       q    Type
                         _______ _______ _______ _____ _____    ______ ____

>  <TORSDO>
F 14

$$$$
=
 OpenBabel10222421503D

 54 60  0  0  1  0  0  0  0  0999 V2000
  182.0170  178.1160  136.1020 C   0  0  0  0  0  3  0  0  0  0  0  0
  184.6690  175.7520  136.6670 C   0  0  0  0  0  3  0  0  0  0  0  0
  183.5440  178.2880  141.2970 C   0  0  0  0  0  3  0  0  0  0  0  0
  182.4440  178.2090  140.5620 C   0  0  0  0  0  3  0  0  0  0  0  0
  185.7130  179.2980  141.9620 C   0  0  0  0  0  1  0  0  0  0  0  0
  181.3010  179.2500  138.8200 N   0  0  0  0  0  0  0  0  0  0  0  0
  185.4580  174.8140  135.8140 C   0  0  1  0  0  3  0  0  0  0  0  0
  180.9260  179.7590  137.5640 N   0  0  0  0  0  0  0  0  0  0  0  0
  186.3060  175.6800  134.4260 S   0  0  0  0  0  0  0  0  0  0  0  0
  180.6460  180.0170  135.2130 C   0  0  0  0  0  1  0  0  0  0  0  0
  187.3440  176.8160  135.4130 C   0  0  0  0  0  2  0  0  0  0  0  0
  185.4360  178.4070  139.6610 C   0  0  0  0  0  0  0  0  0  0  0  0
  186.5640  178.0600  135.8190 C   0  0  0  0  0  2  0  0  0  0  0  0
  183.3450  178.0540  138.1810 C   0  0  0  0  0  0  0  0  0  0  0  0
  183.6670  176.4540  136.1480 C   0  0  0  0  0  3  0  0  0  0  0  0
  182.3420  178.5460  139.1460 C   0  0  0  0  0  0  0  0  0  0  0  0
  181.2290  179.3160  136.3850 C   0  0  0  0  0  0  0  0  0  0  0  0
  187.4860  177.8980  138.1400 C   0  0  0  0  0  2  0  0  0  0  0  0
  182.9280  177.5190  136.8570 C   0  0  0  0  0  0  0  0  0  0  0  0
  184.6490  177.9890  138.4780 C   0  0  0  0  0  3  0  0  0  0  0  0
  187.2530  178.8200  136.9500 C   0  0  0  0  0  2  0  0  0  0  0  0
  184.8860  178.7050  140.8660 C   0  0  0  0  0  0  0  0  0  0  0  0
  186.9630  178.4420  139.4820 C   0  0  2  0  0  3  0  0  0  0  0  0
  187.6540  177.7380  140.5730 N   0  0  0  0  0  2  0  0  0  0  0  0
  189.0330  178.2090  140.6890 C   0  0  0  0  0  2  0  0  0  0  0  0
  189.9720  177.0390  140.9200 C   0  0  1  0  0  3  0  0  0  0  0  0
  191.0260  177.0010  139.8250 C   0  0  2  0  0  0  0  0  0  0  0  0
  191.0010  175.8030  139.0960 O   0  0  0  0  0  0  0  0  0  0  0  0
  192.3870  177.4120  140.1220 N   0  0  0  0  0  1  0  0  0  0  0  0
  190.6320  176.9810  138.4050 C   0  0  0  0  0  2  0  0  0  0  0  0
  190.5810  177.1610  142.1710 O   0  0  0  0  0  0  0  0  0  0  0  0
  189.5200  177.2250  143.0820 C   0  0  0  0  0  2  0  0  0  0  0  0
  190.6920  178.9900  144.3880 C   0  0  0  0  0  1  0  0  0  0  0  0
  190.0060  177.6390  144.4690 C   0  0  0  0  0  0  0  0  0  0  0  0
  188.8340  177.7370  145.4330 C   0  0  0  0  0  1  0  0  0  0  0  0
  191.0170  176.6190  144.9860 C   0  0  0  0  0  2  0  0  0  0  0  0
  191.9050  177.1990  145.8940 O   0  0  0  0  0  1  0  0  0  0  0  0
  186.4150  173.9580  136.6400 C   0  0  0  0  0  2  0  0  0  0  0  0
  187.0850  173.0310  135.8330 O   0  0  0  0  0  0  0  0  0  0  0  0
  188.4250  173.1530  136.1860 C   0  0  0  0  0  2  0  0  0  0  0  0
  189.4230  172.0980  135.0970 S   0  0  0  0  0  0  0  0  0  0  0  0
  190.7490  174.4680  134.5650 N   0  0  0  0  0  0  0  0  0  0  0  0
  191.6150  175.6170  134.6200 C   0  0  0  0  0  3  0  0  0  0  0  0
  192.9370  174.8350  136.5280 C   0  0  0  0  0  2  0  0  0  0  0  0
  191.9380  172.7210  135.8060 C   0  0  0  0  0  2  0  0  0  0  0  0
  192.5830  175.7700  135.4740 N   0  0  0  0  0  0  0  0  0  0  0  0
  190.8400  173.1820  135.1990 C   0  0  0  0  0  0  0  0  0  0  0  0
  193.2240  173.4760  135.9280 C   0  0  2  0  0  3  0  0  0  0  0  0
  194.6710  173.2080  138.1470 C   0  0  0  0  0  3  0  0  0  0  0  0
  195.4430  172.1180  136.1220 C   0  0  1  0  0  3  0  0  0  0  0  0
  196.0590  172.8150  138.3800 N   0  0  0  0  0  0  0  0  0  0  0  0
  194.2870  172.7480  136.7630 C   0  0  2  0  0  0  0  0  0  0  0  0
  196.5310  172.1180  137.1810 C   0  0  0  0  0  2  0  0  0  0  0  0
  194.3420  171.3580  136.5830 O   0  0  0  0  0  0  0  0  0  0  0  0
  1 17  2  0  0  0  0
  1 19  1  0  0  0  0
  4  3  1  0  0  0  0
  6 16  1  0  0  0  0
  7 38  1  1  0  0  0
  7  2  1  0  0  0  0
  8  6  2  0  0  0  0
  9 11  1  0  0  0  0
  9  7  1  0  0  0  0
 10 17  1  0  0  0  0
 11 13  1  0  0  0  0
 12 22  1  0  0  0  0
 13 21  1  0  0  0  0
 14 20  1  0  0  0  0
 14 16  1  0  0  0  0
 15  2  2  0  0  0  0
 15 19  1  0  0  0  0
 16  4  2  0  0  0  0
 17  8  1  0  0  0  0
 18 23  1  0  0  0  0
 19 14  2  0  0  0  0
 20 12  2  0  0  0  0
 21 18  1  0  0  0  0
 22  3  2  0  0  0  0
 22  5  1  0  0  0  0
 23 12  1  0  0  0  0
 23 24  1  1  0  0  0
 24 25  1  0  0  0  0
 26 25  1  6  0  0  0
 26 31  1  0  0  0  0
 27 29  1  1  0  0  0
 27 26  1  0  0  0  0
 28 27  1  0  0  0  0
 30 28  1  0  0  0  0
 30 27  1  0  0  0  0
 31 32  1  0  0  0  0
 32 34  1  0  0  0  0
 33 34  1  0  0  0  0
 34 36  1  0  0  0  0
 34 35  1  0  0  0  0
 36 37  1  0  0  0  0
 39 40  1  0  0  0  0
 39 38  1  0  0  0  0
 41 47  1  0  0  0  0
 41 40  1  0  0  0  0
 42 43  1  0  0  0  0
 42 47  2  0  0  0  0
 43 46  2  0  0  0  0
 46 44  1  0  0  0  0
 47 45  1  0  0  0  0
 48 45  1  1  0  0  0
 48 44  1  0  0  0  0
 48 52  1  0  0  0  0
 49 51  2  0  0  0  0
 50 54  1  0  0  0  0
 50 52  1  0  0  0  0
 50 53  1  1  0  0  0
 52 49  1  1  0  0  0
 53 51  1  0  0  0  0
 54 52  1  0  0  0  0
M  END
>  <MODEL>
2

>  <REMARK>
 VINA RESULT:      -7.0      3.407      9.404
  Name = 
  14 active torsions:
  status: ('A' for Active; 'I' for Inactive)
    1  A    between atoms: C_2  and  C_11
    2  A    between atoms: O_5  and  C_20
    3  A    between atoms: O_5  and  C_29
    4  A    between atoms: N_6  and  C_36
    5  A    between atoms: N_6  and  C_53
    6  A    between atoms: C_11  and  O_16
    7  A    between atoms: C_11  and  C_36
    8  A    between atoms: C_14  and  C_21
    9  A    between atoms: C_14  and  C_28
   10  A    between atoms: O_16  and  C_28
   11  A    between atoms: C_20  and  C_25
   12  A    between atoms: C_29  and  S_45
   13  A    between atoms: C_31  and  S_45
   14  A    between atoms: C_37  and  C_43
                            x       y       z     vdW  Elec       q    Type
                         _______ _______ _______ _____ _____    ______ ____

>  <TORSDO>
F 14

$$$$
=
 OpenBabel10222421503D

 54 60  0  0  1  0  0  0  0  0999 V2000
  182.0230  178.5990  136.8000 C   0  0  0  0  0  3  0  0  0  0  0  0
  184.4460  176.0100  137.4090 C   0  0  0  0  0  3  0  0  0  0  0  0
  183.3750  178.5560  142.0460 C   0  0  0  0  0  3  0  0  0  0  0  0
  182.2990  178.5810  141.2720 C   0  0  0  0  0  3  0  0  0  0  0  0
  185.5960  179.3670  142.8040 C   0  0  0  0  0  1  0  0  0  0  0  0
  181.3100  179.7440  139.5130 N   0  0  0  0  0  0  0  0  0  0  0  0
  185.1830  175.0230  136.5650 C   0  0  1  0  0  3  0  0  0  0  0  0
  181.0230  180.3040  138.2550 N   0  0  0  0  0  0  0  0  0  0  0  0
  186.1490  175.8370  135.2230 S   0  0  0  0  0  0  0  0  0  0  0  0
  180.8480  180.6230  135.9020 C   0  0  0  0  0  1  0  0  0  0  0  0
  187.2430  176.8640  136.2660 C   0  0  0  0  0  2  0  0  0  0  0  0
  185.3270  178.5410  140.4780 C   0  0  0  0  0  0  0  0  0  0  0  0
  186.5570  178.1640  136.6690 C   0  0  0  0  0  2  0  0  0  0  0  0
  183.2670  178.3900  138.9210 C   0  0  0  0  0  0  0  0  0  0  0  0
  183.5260  176.8020  136.8690 C   0  0  0  0  0  3  0  0  0  0  0  0
  182.2760  178.9490  139.8610 C   0  0  0  0  0  0  0  0  0  0  0  0
  181.3300  179.8560  137.0790 C   0  0  0  0  0  0  0  0  0  0  0  0
  187.3790  177.8860  139.0170 C   0  0  0  0  0  2  0  0  0  0  0  0
  182.8540  177.9150  137.5740 C   0  0  0  0  0  0  0  0  0  0  0  0
  184.5500  178.2110  139.2610 C   0  0  0  0  0  3  0  0  0  0  0  0
  187.2660  178.8440  137.8380 C   0  0  0  0  0  2  0  0  0  0  0  0
  184.7610  178.8640  141.6690 C   0  0  0  0  0  0  0  0  0  0  0  0
  186.8570  178.4500  140.3510 C   0  0  2  0  0  3  0  0  0  0  0  0
  187.4470  177.6720  141.4510 N   0  0  0  0  0  2  0  0  0  0  0  0
  188.8350  178.0760  141.6720 C   0  0  0  0  0  2  0  0  0  0  0  0
  189.3320  177.5460  143.0040 C   0  0  1  0  0  3  0  0  0  0  0  0
  190.7430  178.0500  143.2650 C   0  0  2  0  0  0  0  0  0  0  0  0
  191.5400  177.1000  143.9180 O   0  0  0  0  0  0  0  0  0  0  0  0
  190.9420  179.3780  143.8170 N   0  0  0  0  0  1  0  0  0  0  0  0
  191.8960  177.4300  142.5900 C   0  0  0  0  0  2  0  0  0  0  0  0
  188.4760  177.9620  144.0270 O   0  0  0  0  0  0  0  0  0  0  0  0
  188.5860  176.9720  145.0110 C   0  0  0  0  0  2  0  0  0  0  0  0
  188.4150  176.4550  147.4400 C   0  0  0  0  0  1  0  0  0  0  0  0
  188.1090  177.4850  146.3680 C   0  0  0  0  0  0  0  0  0  0  0  0
  188.8140  178.7860  146.7190 C   0  0  0  0  0  1  0  0  0  0  0  0
  186.6000  177.7070  146.3340 C   0  0  0  0  0  2  0  0  0  0  0  0
  186.2300  178.8090  147.1060 O   0  0  0  0  0  1  0  0  0  0  0  0
  186.0350  174.0750  137.4050 C   0  0  0  0  0  2  0  0  0  0  0  0
  186.3620  172.9210  136.6860 O   0  0  0  0  0  0  0  0  0  0  0  0
  187.7500  172.9430  136.5870 C   0  0  0  0  0  2  0  0  0  0  0  0
  188.2500  172.0510  135.0870 S   0  0  0  0  0  0  0  0  0  0  0  0
  190.9590  171.6020  134.7320 N   0  0  0  0  0  0  0  0  0  0  0  0
  192.3810  171.7520  134.5670 C   0  0  0  0  0  3  0  0  0  0  0  0
  192.4320  174.1490  135.0660 C   0  0  0  0  0  2  0  0  0  0  0  0
  190.2630  173.5590  136.0320 C   0  0  0  0  0  2  0  0  0  0  0  0
  193.0280  172.8680  134.7270 N   0  0  0  0  0  0  0  0  0  0  0  0
  189.9720  172.4790  135.3010 C   0  0  0  0  0  0  0  0  0  0  0  0
  191.6480  174.0230  136.3540 C   0  0  2  0  0  3  0  0  0  0  0  0
  192.9840  175.9760  137.5750 C   0  0  0  0  0  3  0  0  0  0  0  0
  190.6250  175.7010  138.0700 C   0  0  1  0  0  3  0  0  0  0  0  0
  192.7090  176.7590  138.7770 N   0  0  0  0  0  0  0  0  0  0  0  0
  191.6890  175.3500  137.1250 C   0  0  2  0  0  0  0  0  0  0  0  0
  191.2780  176.6380  139.0690 C   0  0  0  0  0  2  0  0  0  0  0  0
  190.6930  176.2740  136.7780 O   0  0  0  0  0  0  0  0  0  0  0  0
  1 17  2  0  0  0  0
  1 19  1  0  0  0  0
  4  3  1  0  0  0  0
  6 16  1  0  0  0  0
  7 38  1  1  0  0  0
  7  2  1  0  0  0  0
  8  6  2  0  0  0  0
  9 11  1  0  0  0  0
  9  7  1  0  0  0  0
 10 17  1  0  0  0  0
 11 13  1  0  0  0  0
 12 22  1  0  0  0  0
 13 21  1  0  0  0  0
 14 20  1  0  0  0  0
 14 16  1  0  0  0  0
 15  2  2  0  0  0  0
 15 19  1  0  0  0  0
 16  4  2  0  0  0  0
 17  8  1  0  0  0  0
 18 23  1  0  0  0  0
 19 14  2  0  0  0  0
 20 12  2  0  0  0  0
 21 18  1  0  0  0  0
 22  3  2  0  0  0  0
 22  5  1  0  0  0  0
 23 12  1  0  0  0  0
 23 24  1  1  0  0  0
 24 25  1  0  0  0  0
 26 25  1  6  0  0  0
 26 27  1  0  0  0  0
 26 31  1  0  0  0  0
 27 29  1  1  0  0  0
 27 28  1  0  0  0  0
 30 27  1  0  0  0  0
 30 28  1  0  0  0  0
 31 32  1  0  0  0  0
 32 34  1  0  0  0  0
 34 35  1  0  0  0  0
 34 33  1  0  0  0  0
 36 34  1  0  0  0  0
 36 37  1  0  0  0  0
 39 38  1  0  0  0  0
 40 39  1  0  0  0  0
 41 47  1  0  0  0  0
 41 40  1  0  0  0  0
 42 47  2  0  0  0  0
 43 46  2  0  0  0  0
 43 42  1  0  0  0  0
 45 48  1  0  0  0  0
 46 44  1  0  0  0  0
 47 45  1  0  0  0  0
 48 44  1  6  0  0  0
 48 52  1  0  0  0  0
 49 51  2  0  0  0  0
 50 53  1  1  0  0  0
 51 53  1  0  0  0  0
 52 49  1  1  0  0  0
 52 50  1  0  0  0  0
 54 52  1  0  0  0  0
 54 50  1  0  0  0  0
M  END
>  <MODEL>
3

>  <REMARK>
 VINA RESULT:      -6.4      2.974      9.443
  Name = 
  14 active torsions:
  status: ('A' for Active; 'I' for Inactive)
    1  A    between atoms: C_2  and  C_11
    2  A    between atoms: O_5  and  C_20
    3  A    between atoms: O_5  and  C_29
    4  A    between atoms: N_6  and  C_36
    5  A    between atoms: N_6  and  C_53
    6  A    between atoms: C_11  and  O_16
    7  A    between atoms: C_11  and  C_36
    8  A    between atoms: C_14  and  C_21
    9  A    between atoms: C_14  and  C_28
   10  A    between atoms: O_16  and  C_28
   11  A    between atoms: C_20  and  C_25
   12  A    between atoms: C_29  and  S_45
   13  A    between atoms: C_31  and  S_45
   14  A    between atoms: C_37  and  C_43
                            x       y       z     vdW  Elec       q    Type
                         _______ _______ _______ _____ _____    ______ ____

>  <TORSDO>
F 14

$$$$
=
 OpenBabel10222421503D

 54 60  0  0  1  0  0  0  0  0999 V2000
  182.0010  178.4840  136.6490 C   0  0  0  0  0  3  0  0  0  0  0  0
  184.5010  175.9900  137.3340 C   0  0  0  0  0  3  0  0  0  0  0  0
  183.2030  178.5020  141.9320 C   0  0  0  0  0  3  0  0  0  0  0  0
  182.1500  178.4860  141.1280 C   0  0  0  0  0  3  0  0  0  0  0  0
  185.3700  179.3980  142.7500 C   0  0  0  0  0  1  0  0  0  0  0  0
  181.1680  179.6080  139.3370 N   0  0  0  0  0  0  0  0  0  0  0  0
  185.2990  175.0290  136.5150 C   0  0  1  0  0  3  0  0  0  0  0  0
  180.8970  180.1540  138.0700 N   0  0  0  0  0  0  0  0  0  0  0  0
  186.2710  175.8760  135.1990 S   0  0  0  0  0  0  0  0  0  0  0  0
  180.7780  180.4610  135.7120 C   0  0  0  0  0  1  0  0  0  0  0  0
  187.2960  176.9460  136.2700 C   0  0  0  0  0  2  0  0  0  0  0  0
  185.1980  178.5580  140.4200 C   0  0  0  0  0  0  0  0  0  0  0  0
  186.5500  178.2190  136.6490 C   0  0  0  0  0  2  0  0  0  0  0  0
  183.1910  178.3270  138.8050 C   0  0  0  0  0  0  0  0  0  0  0  0
  183.5680  176.7450  136.7660 C   0  0  0  0  0  3  0  0  0  0  0  0
  182.1530  178.8500  139.7150 C   0  0  0  0  0  0  0  0  0  0  0  0
  181.2540  179.7160  136.9050 C   0  0  0  0  0  0  0  0  0  0  0  0
  187.3150  177.9770  139.0200 C   0  0  0  0  0  2  0  0  0  0  0  0
  182.8350  177.8340  137.4490 C   0  0  0  0  0  0  0  0  0  0  0  0
  184.4700  178.1960  139.1820 C   0  0  0  0  0  3  0  0  0  0  0  0
  187.2000  178.9280  137.8350 C   0  0  0  0  0  2  0  0  0  0  0  0
  184.5870  178.8620  141.5930 C   0  0  0  0  0  0  0  0  0  0  0  0
  186.7340  178.5240  140.3370 C   0  0  2  0  0  3  0  0  0  0  0  0
  187.3210  177.7710  141.4560 N   0  0  0  0  0  2  0  0  0  0  0  0
  188.7730  177.9410  141.4770 C   0  0  0  0  0  2  0  0  0  0  0  0
  189.3400  177.4690  142.8030 C   0  0  1  0  0  3  0  0  0  0  0  0
  190.7850  177.9210  142.9360 C   0  0  2  0  0  0  0  0  0  0  0  0
  191.6380  176.8830  143.3390 O   0  0  0  0  0  0  0  0  0  0  0  0
  191.0910  179.1580  143.6330 N   0  0  0  0  0  1  0  0  0  0  0  0
  191.8220  177.3930  142.0320 C   0  0  0  0  0  2  0  0  0  0  0  0
  188.5760  177.9830  143.8530 O   0  0  0  0  0  0  0  0  0  0  0  0
  188.6200  176.9950  144.8450 C   0  0  0  0  0  2  0  0  0  0  0  0
  186.8620  178.3290  145.9960 C   0  0  0  0  0  1  0  0  0  0  0  0
  188.1440  177.5410  146.1900 C   0  0  0  0  0  0  0  0  0  0  0  0
  187.8800  176.4000  147.1600 C   0  0  0  0  0  1  0  0  0  0  0  0
  189.1990  178.4790  146.7680 C   0  0  0  0  0  2  0  0  0  0  0  0
  189.4580  178.1890  148.1080 O   0  0  0  0  0  1  0  0  0  0  0  0
  186.1600  174.1160  137.3820 C   0  0  0  0  0  2  0  0  0  0  0  0
  186.8930  173.2200  136.5970 O   0  0  0  0  0  0  0  0  0  0  0  0
  188.1760  173.2370  137.1360 C   0  0  0  0  0  2  0  0  0  0  0  0
  189.3640  172.7420  135.8560 S   0  0  0  0  0  0  0  0  0  0  0  0
  190.0750  175.3200  136.5730 N   0  0  0  0  0  2  0  0  0  0  0  0
  190.7160  176.4740  137.1450 C   0  0  0  0  0  3  0  0  0  0  0  0
  192.6220  175.2550  138.0830 C   0  0  0  0  0  2  0  0  0  0  0  0
  191.8350  173.6190  136.4420 C   0  0  0  0  0  3  0  0  0  0  0  0
  191.8410  176.4460  137.7960 N   0  0  0  0  0  0  0  0  0  0  0  0
  190.5510  173.9810  136.3550 C   0  0  0  0  0  0  0  0  0  0  0  0
  192.9590  174.5430  136.7910 C   0  0  2  0  0  3  0  0  0  0  0  0
  194.9130  173.4870  138.2590 C   0  0  0  0  0  3  0  0  0  0  0  0
  195.3930  174.1030  135.9620 C   0  0  1  0  0  3  0  0  0  0  0  0
  196.3670  173.4870  138.1150 N   0  0  0  0  0  0  0  0  0  0  0  0
  194.3160  173.8370  136.9190 C   0  0  2  0  0  0  0  0  0  0  0  0
  196.6760  173.8170  136.7210 C   0  0  0  0  0  2  0  0  0  0  0  0
  194.6150  172.9220  135.9000 O   0  0  0  0  0  0  0  0  0  0  0  0
  1 17  2  0  0  0  0
  1 19  1  0  0  0  0
  4  3  1  0  0  0  0
  6 16  1  0  0  0  0
  7  2  1  0  0  0  0
  7 38  1  1  0  0  0
  8  6  2  0  0  0  0
  9 11  1  0  0  0  0
  9  7  1  0  0  0  0
 10 17  1  0  0  0  0
 11 13  1  0  0  0  0
 12 22  1  0  0  0  0
 13 21  1  0  0  0  0
 14 20  1  0  0  0  0
 14 16  1  0  0  0  0
 15  2  2  0  0  0  0
 15 19  1  0  0  0  0
 16  4  2  0  0  0  0
 17  8  1  0  0  0  0
 18 23  1  0  0  0  0
 19 14  2  0  0  0  0
 20 12  2  0  0  0  0
 21 18  1  0  0  0  0
 22  3  2  0  0  0  0
 22  5  1  0  0  0  0
 23 12  1  0  0  0  0
 23 24  1  1  0  0  0
 24 25  1  0  0  0  0
 26 25  1  6  0  0  0
 26 27  1  0  0  0  0
 26 31  1  0  0  0  0
 27 28  1  0  0  0  0
 27 29  1  1  0  0  0
 30 27  1  0  0  0  0
 30 28  1  0  0  0  0
 31 32  1  0  0  0  0
 32 34  1  0  0  0  0
 33 34  1  0  0  0  0
 34 36  1  0  0  0  0
 34 35  1  0  0  0  0
 36 37  1  0  0  0  0
 39 40  1  0  0  0  0
 39 38  1  0  0  0  0
 41 47  1  0  0  0  0
 41 40  1  0  0  0  0
 42 43  1  0  0  0  0
 43 46  2  0  0  0  0
 46 44  1  0  0  0  0
 47 45  2  0  0  0  0
 47 42  1  0  0  0  0
 48 45  1  1  0  0  0
 48 52  1  0  0  0  0
 48 44  1  0  0  0  0
 50 53  1  1  0  0  0
 50 52  1  0  0  0  0
 51 49  2  0  0  0  0
 52 49  1  1  0  0  0
 53 51  1  0  0  0  0
 54 50  1  0  0  0  0
 54 52  1  0  0  0  0
M  END
>  <MODEL>
4

>  <REMARK>
 VINA RESULT:      -6.3      3.263      9.266
  Name = 
  14 active torsions:
  status: ('A' for Active; 'I' for Inactive)
    1  A    between atoms: C_2  and  C_11
    2  A    between atoms: O_5  and  C_20
    3  A    between atoms: O_5  and  C_29
    4  A    between atoms: N_6  and  C_36
    5  A    between atoms: N_6  and  C_53
    6  A    between atoms: C_11  and  O_16
    7  A    between atoms: C_11  and  C_36
    8  A    between atoms: C_14  and  C_21
    9  A    between atoms: C_14  and  C_28
   10  A    between atoms: O_16  and  C_28
   11  A    between atoms: C_20  and  C_25
   12  A    between atoms: C_29  and  S_45
   13  A    between atoms: C_31  and  S_45
   14  A    between atoms: C_37  and  C_43
                            x       y       z     vdW  Elec       q    Type
                         _______ _______ _______ _____ _____    ______ ____

>  <TORSDO>
F 14

$$$$
=
 OpenBabel10222421503D

 54 60  0  0  1  0  0  0  0  0999 V2000
  182.6340  177.7030  135.4480 C   0  0  0  0  0  3  0  0  0  0  0  0
  185.4250  175.6710  136.4570 C   0  0  0  0  0  3  0  0  0  0  0  0
  183.1770  177.8860  140.8350 C   0  0  0  0  0  3  0  0  0  0  0  0
  182.2450  177.6960  139.9120 C   0  0  0  0  0  3  0  0  0  0  0  0
  185.0450  179.1350  141.8930 C   0  0  0  0  0  1  0  0  0  0  0  0
  181.3060  178.6460  138.0040 N   0  0  0  0  0  0  0  0  0  0  0  0
  186.4670  174.8680  135.7500 C   0  0  1  0  0  3  0  0  0  0  0  0
  181.0980  179.1470  136.7070 N   0  0  0  0  0  0  0  0  0  0  0  0
  187.4300  175.8790  134.5480 S   0  0  0  0  0  0  0  0  0  0  0  0
  181.2090  179.4470  134.3470 C   0  0  0  0  0  1  0  0  0  0  0  0
  188.1210  177.1010  135.7190 C   0  0  0  0  0  2  0  0  0  0  0  0
  185.2980  178.2960  139.5700 C   0  0  0  0  0  0  0  0  0  0  0  0
  187.1270  178.2250  135.9910 C   0  0  0  0  0  2  0  0  0  0  0  0
  183.5680  177.7360  137.7320 C   0  0  0  0  0  0  0  0  0  0  0  0
  184.4500  176.2590  135.7730 C   0  0  0  0  0  3  0  0  0  0  0  0
  182.3540  178.0660  138.5060 C   0  0  0  0  0  0  0  0  0  0  0  0
  181.6610  178.7860  135.5970 C   0  0  0  0  0  0  0  0  0  0  0  0
  187.6340  178.0990  138.4390 C   0  0  0  0  0  2  0  0  0  0  0  0
  183.4650  177.1990  136.3490 C   0  0  0  0  0  0  0  0  0  0  0  0
  184.7950  177.8240  138.2590 C   0  0  0  0  0  3  0  0  0  0  0  0
  187.5000  179.0250  137.2370 C   0  0  0  0  0  2  0  0  0  0  0  0
  184.5090  178.4810  140.6590 C   0  0  0  0  0  0  0  0  0  0  0  0
  186.8160  178.5270  139.6700 C   0  0  2  0  0  3  0  0  0  0  0  0
  187.3860  177.8780  140.8610 N   0  0  0  0  0  2  0  0  0  0  0  0
  188.7860  178.2660  141.0300 C   0  0  0  0  0  2  0  0  0  0  0  0
  189.3980  177.5290  142.2070 C   0  0  1  0  0  3  0  0  0  0  0  0
  190.9140  177.5780  142.1130 C   0  0  2  0  0  0  0  0  0  0  0  0
  191.4710  178.5760  142.9260 O   0  0  0  0  0  0  0  0  0  0  0  0
  191.5560  177.5380  140.8100 N   0  0  0  0  0  1  0  0  0  0  0  0
  191.7500  177.2340  143.2770 C   0  0  0  0  0  2  0  0  0  0  0  0
  188.9700  178.1110  143.4030 O   0  0  0  0  0  0  0  0  0  0  0  0
  188.3700  177.0660  144.1160 C   0  0  0  0  0  2  0  0  0  0  0  0
  186.7720  178.5450  145.3200 C   0  0  0  0  0  1  0  0  0  0  0  0
  187.8920  177.5360  145.4880 C   0  0  0  0  0  0  0  0  0  0  0  0
  187.3780  176.3580  146.3010 C   0  0  0  0  0  1  0  0  0  0  0  0
  189.0410  178.2140  146.2300 C   0  0  0  0  0  2  0  0  0  0  0  0
  190.0300  177.2960  146.5840 O   0  0  0  0  0  1  0  0  0  0  0  0
  187.3640  174.1100  136.7260 C   0  0  0  0  0  2  0  0  0  0  0  0
  187.7980  172.9000  136.1740 O   0  0  0  0  0  0  0  0  0  0  0  0
  189.0910  173.1540  135.7260 C   0  0  0  0  0  2  0  0  0  0  0  0
  190.0010  174.0440  137.0200 S   0  0  0  0  0  0  0  0  0  0  0  0
  191.5820  172.3630  135.4910 N   0  0  0  0  0  0  0  0  0  0  0  0
  192.6470  171.7880  134.7110 C   0  0  0  0  0  3  0  0  0  0  0  0
  194.2700  173.5650  135.1650 C   0  0  0  0  0  2  0  0  0  0  0  0
  192.6870  173.9580  136.9890 C   0  0  0  0  0  2  0  0  0  0  0  0
  193.8300  172.3100  134.5800 N   0  0  0  0  0  0  0  0  0  0  0  0
  191.5810  173.4340  136.4500 C   0  0  0  0  0  0  0  0  0  0  0  0
  194.0810  173.5220  136.6660 C   0  0  2  0  0  3  0  0  0  0  0  0
  196.3370  174.9340  136.5980 C   0  0  0  0  0  3  0  0  0  0  0  0
  195.5620  174.0910  138.7370 C   0  0  1  0  0  3  0  0  0  0  0  0
  197.4540  175.0570  137.5320 N   0  0  0  0  0  0  0  0  0  0  0  0
  195.1630  174.3660  137.3540 C   0  0  2  0  0  0  0  0  0  0  0  0
  196.9920  174.5900  138.8420 C   0  0  0  0  0  2  0  0  0  0  0  0
  194.7120  175.1740  138.4080 O   0  0  0  0  0  0  0  0  0  0  0  0
  1 17  2  0  0  0  0
  1 19  1  0  0  0  0
  4  3  1  0  0  0  0
  6 16  1  0  0  0  0
  7  2  1  0  0  0  0
  7 38  1  1  0  0  0
  8  6  2  0  0  0  0
  9 11  1  0  0  0  0
  9  7  1  0  0  0  0
 10 17  1  0  0  0  0
 11 13  1  0  0  0  0
 12 23  1  0  0  0  0
 12 22  1  0  0  0  0
 13 21  1  0  0  0  0
 14 20  1  0  0  0  0
 14 16  1  0  0  0  0
 15 19  1  0  0  0  0
 15  2  2  0  0  0  0
 16  4  2  0  0  0  0
 17  8  1  0  0  0  0
 18 23  1  0  0  0  0
 19 14  2  0  0  0  0
 20 12  2  0  0  0  0
 21 18  1  0  0  0  0
 22  3  2  0  0  0  0
 22  5  1  0  0  0  0
 23 24  1  1  0  0  0
 24 25  1  0  0  0  0
 26 25  1  6  0  0  0
 26 31  1  0  0  0  0
 27 29  1  6  0  0  0
 27 26  1  0  0  0  0
 27 28  1  0  0  0  0
 27 30  1  0  0  0  0
 28 30  1  0  0  0  0
 31 32  1  0  0  0  0
 32 34  1  0  0  0  0
 33 34  1  0  0  0  0
 34 36  1  0  0  0  0
 34 35  1  0  0  0  0
 36 37  1  0  0  0  0
 39 38  1  0  0  0  0
 40 39  1  0  0  0  0
 40 41  1  0  0  0  0
 42 47  2  0  0  0  0
 43 42  1  0  0  0  0
 46 43  2  0  0  0  0
 46 44  1  0  0  0  0
 47 45  1  0  0  0  0
 47 41  1  0  0  0  0
 48 44  1  6  0  0  0
 48 45  1  0  0  0  0
 48 52  1  0  0  0  0
 49 51  2  0  0  0  0
 50 53  1  6  0  0  0
 51 53  1  0  0  0  0
 52 49  1  6  0  0  0
 52 54  1  0  0  0  0
 52 50  1  0  0  0  0
 54 50  1  0  0  0  0
M  END
>  <MODEL>
5

>  <REMARK>
 VINA RESULT:      -6.0      3.202      9.263
  Name = 
  14 active torsions:
  status: ('A' for Active; 'I' for Inactive)
    1  A    between atoms: C_2  and  C_11
    2  A    between atoms: O_5  and  C_20
    3  A    between atoms: O_5  and  C_29
    4  A    between atoms: N_6  and  C_36
    5  A    between atoms: N_6  and  C_53
    6  A    between atoms: C_11  and  O_16
    7  A    between atoms: C_11  and  C_36
    8  A    between atoms: C_14  and  C_21
    9  A    between atoms: C_14  and  C_28
   10  A    between atoms: O_16  and  C_28
   11  A    between atoms: C_20  and  C_25
   12  A    between atoms: C_29  and  S_45
   13  A    between atoms: C_31  and  S_45
   14  A    between atoms: C_37  and  C_43
                            x       y       z     vdW  Elec       q    Type
                         _______ _______ _______ _____ _____    ______ ____

>  <TORSDO>
F 14

$$$$
=
 OpenBabel10222421503D

 54 60  0  0  1  0  0  0  0  0999 V2000
  191.1990  174.7570  136.1260 C   0  0  0  0  0  3  0  0  0  0  0  0
  188.8140  176.5380  138.1470 C   0  0  0  0  0  3  0  0  0  0  0  0
  186.5460  171.9900  136.3300 C   0  0  0  0  0  3  0  0  0  0  0  0
  187.8490  171.8020  136.4780 C   0  0  0  0  0  3  0  0  0  0  0  0
  184.5310  172.7790  135.1100 C   0  0  0  0  0  1  0  0  0  0  0  0
  189.8990  172.1140  135.4150 N   0  0  0  0  0  0  0  0  0  0  0  0
  188.7950  177.8480  138.8640 C   0  0  1  0  0  3  0  0  0  0  0  0
  191.0420  172.6820  134.8250 N   0  0  0  0  0  0  0  0  0  0  0  0
  189.1430  179.2640  137.7390 S   0  0  0  0  0  0  0  0  0  0  0  0
  192.8560  174.1480  134.3460 C   0  0  0  0  0  1  0  0  0  0  0  0
  187.7400  179.0420  136.5880 C   0  0  0  0  0  2  0  0  0  0  0  0
  186.2800  174.4150  135.7650 C   0  0  0  0  0  0  0  0  0  0  0  0
  188.0650  178.0080  135.5170 C   0  0  0  0  0  2  0  0  0  0  0  0
  188.8090  174.1520  136.2370 C   0  0  0  0  0  0  0  0  0  0  0  0
  189.9190  176.1210  137.5380 C   0  0  0  0  0  3  0  0  0  0  0  0
  188.8970  172.6970  136.0010 C   0  0  0  0  0  0  0  0  0  0  0  0
  191.6120  173.8150  135.0860 C   0  0  0  0  0  0  0  0  0  0  0  0
  185.8050  176.9740  135.8100 C   0  0  0  0  0  2  0  0  0  0  0  0
  190.0020  174.9250  136.6710 C   0  0  0  0  0  0  0  0  0  0  0  0
  187.6510  174.8190  136.1530 C   0  0  0  0  0  3  0  0  0  0  0  0
  186.8100  177.5160  134.8020 C   0  0  0  0  0  2  0  0  0  0  0  0
  185.8680  173.1240  135.6850 C   0  0  0  0  0  0  0  0  0  0  0  0
  185.2860  175.5580  135.4990 C   0  0  2  0  0  3  0  0  0  0  0  0
  184.0200  175.3550  136.2190 N   0  0  0  0  0  2  0  0  0  0  0  0
  183.0140  176.3120  135.7590 C   0  0  0  0  0  2  0  0  0  0  0  0
  181.8450  176.3530  136.7260 C   0  0  1  0  0  3  0  0  0  0  0  0
  181.2080  174.9760  136.8220 C   0  0  2  0  0  0  0  0  0  0  0  0
  181.6220  174.2710  137.9610 O   0  0  0  0  0  0  0  0  0  0  0  0
  181.1730  174.1160  135.6510 N   0  0  0  0  0  1  0  0  0  0  0  0
  180.2630  174.6610  137.9070 C   0  0  0  0  0  2  0  0  0  0  0  0
  182.2870  176.7680  137.9850 O   0  0  0  0  0  0  0  0  0  0  0  0
  182.7380  178.0800  137.7920 C   0  0  0  0  0  2  0  0  0  0  0  0
  181.9520  180.1450  138.9370 C   0  0  0  0  0  1  0  0  0  0  0  0
  182.7440  178.8610  139.1040 C   0  0  0  0  0  0  0  0  0  0  0  0
  182.1160  178.0340  140.2150 C   0  0  0  0  0  1  0  0  0  0  0  0
  184.1770  179.2280  139.4780 C   0  0  0  0  0  2  0  0  0  0  0  0
  184.3180  179.3840  140.8580 O   0  0  0  0  0  1  0  0  0  0  0  0
  187.5110  178.0410  139.6670 C   0  0  0  0  0  2  0  0  0  0  0  0
  187.7660  178.7000  140.8740 O   0  0  0  0  0  0  0  0  0  0  0  0
  188.0220  177.6840  141.7900 C   0  0  0  0  0  2  0  0  0  0  0  0
  189.7870  177.2620  141.7290 S   0  0  0  0  0  0  0  0  0  0  0  0
  191.1400  176.6330  144.0610 N   0  0  0  0  0  0  0  0  0  0  0  0
  191.6060  176.5700  145.4210 C   0  0  0  0  0  3  0  0  0  0  0  0
  189.8350  177.9820  146.3530 C   0  0  0  0  0  2  0  0  0  0  0  0
  188.8010  177.3470  144.2270 C   0  0  0  0  0  2  0  0  0  0  0  0
  191.0250  177.1520  146.4280 N   0  0  0  0  0  0  0  0  0  0  0  0
  189.8970  177.0950  143.5050 C   0  0  0  0  0  0  0  0  0  0  0  0
  188.7080  177.2000  145.7140 C   0  0  2  0  0  3  0  0  0  0  0  0
  186.2550  178.1930  145.4200 C   0  0  0  0  0  3  0  0  0  0  0  0
  187.2860  178.2840  147.6140 C   0  0  1  0  0  3  0  0  0  0  0  0
  185.4620  179.1220  146.2220 N   0  0  0  0  0  0  0  0  0  0  0  0
  187.3610  177.6560  146.2920 C   0  0  2  0  0  0  0  0  0  0  0  0
  186.0470  179.1590  147.5660 C   0  0  0  0  0  2  0  0  0  0  0  0
  186.9140  176.9340  147.4080 O   0  0  0  0  0  0  0  0  0  0  0  0
  1 19  1  0  0  0  0
  2  7  1  0  0  0  0
  3  4  1  0  0  0  0
  5 22  1  0  0  0  0
  6 16  1  0  0  0  0
  7 38  1  6  0  0  0
  8 17  1  0  0  0  0
  8  6  2  0  0  0  0
  9  7  1  0  0  0  0
 10 17  1  0  0  0  0
 11  9  1  0  0  0  0
 12 20  2  0  0  0  0
 13 11  1  0  0  0  0
 14 19  2  0  0  0  0
 15  2  2  0  0  0  0
 16 14  1  0  0  0  0
 16  4  2  0  0  0  0
 17  1  2  0  0  0  0
 19 15  1  0  0  0  0
 20 14  1  0  0  0  0
 21 13  1  0  0  0  0
 21 18  1  0  0  0  0
 22 12  1  0  0  0  0
 22  3  2  0  0  0  0
 23 12  1  0  0  0  0
 23 18  1  0  0  0  0
 23 24  1  1  0  0  0
 25 24  1  0  0  0  0
 26 25  1  6  0  0  0
 26 27  1  0  0  0  0
 26 31  1  0  0  0  0
 27 29  1  6  0  0  0
 27 30  1  0  0  0  0
 27 28  1  0  0  0  0
 30 28  1  0  0  0  0
 32 31  1  0  0  0  0
 32 34  1  0  0  0  0
 33 34  1  0  0  0  0
 34 36  1  0  0  0  0
 34 35  1  0  0  0  0
 36 37  1  0  0  0  0
 38 39  1  0  0  0  0
 39 40  1  0  0  0  0
 41 40  1  0  0  0  0
 41 47  1  0  0  0  0
 42 43  1  0  0  0  0
 43 46  2  0  0  0  0
 44 46  1  0  0  0  0
 47 42  2  0  0  0  0
 47 45  1  0  0  0  0
 48 45  1  6  0  0  0
 48 52  1  0  0  0  0
 48 44  1  0  0  0  0
 49 51  2  0  0  0  0
 50 53  1  6  0  0  0
 51 53  1  0  0  0  0
 52 49  1  6  0  0  0
 52 54  1  0  0  0  0
 52 50  1  0  0  0  0
 54 50  1  0  0  0  0
M  END
>  <MODEL>
6

>  <REMARK>
 VINA RESULT:      -5.9      1.263      2.488
  Name = 
  14 active torsions:
  status: ('A' for Active; 'I' for Inactive)
    1  A    between atoms: C_2  and  C_11
    2  A    between atoms: O_5  and  C_20
    3  A    between atoms: O_5  and  C_29
    4  A    between atoms: N_6  and  C_36
    5  A    between atoms: N_6  and  C_53
    6  A    between atoms: C_11  and  O_16
    7  A    between atoms: C_11  and  C_36
    8  A    between atoms: C_14  and  C_21
    9  A    between atoms: C_14  and  C_28
   10  A    between atoms: O_16  and  C_28
   11  A    between atoms: C_20  and  C_25
   12  A    between atoms: C_29  and  S_45
   13  A    between atoms: C_31  and  S_45
   14  A    between atoms: C_37  and  C_43
                            x       y       z     vdW  Elec       q    Type
                         _______ _______ _______ _____ _____    ______ ____

>  <TORSDO>
F 14

$$$$
=
 OpenBabel10222421503D

 54 60  0  0  1  0  0  0  0  0999 V2000
  190.1890  174.0070  136.4440 C   0  0  0  0  0  3  0  0  0  0  0  0
  188.0960  176.4930  137.9870 C   0  0  0  0  0  3  0  0  0  0  0  0
  185.0240  172.3780  136.3270 C   0  0  0  0  0  3  0  0  0  0  0  0
  186.2260  171.9250  136.6500 C   0  0  0  0  0  3  0  0  0  0  0  0
  183.3780  173.4450  134.8030 C   0  0  0  0  0  1  0  0  0  0  0  0
  188.3870  171.6520  135.8230 N   0  0  0  0  0  0  0  0  0  0  0  0
  188.3110  177.8500  138.5750 C   0  0  1  0  0  3  0  0  0  0  0  0
  189.6830  171.8810  135.3280 N   0  0  0  0  0  0  0  0  0  0  0  0
  189.0880  179.0130  137.3760 S   0  0  0  0  0  0  0  0  0  0  0  0
  191.8260  172.8450  134.9430 C   0  0  0  0  0  1  0  0  0  0  0  0
  187.7920  178.9740  136.0870 C   0  0  0  0  0  2  0  0  0  0  0  0
  185.3850  174.7190  135.5160 C   0  0  0  0  0  0  0  0  0  0  0  0
  187.9720  177.7760  135.1630 C   0  0  0  0  0  2  0  0  0  0  0  0
  187.7250  173.9620  136.3150 C   0  0  0  0  0  0  0  0  0  0  0  0
  189.1280  175.7750  137.5580 C   0  0  0  0  0  3  0  0  0  0  0  0
  187.4950  172.5060  136.2250 C   0  0  0  0  0  0  0  0  0  0  0  0
  190.4720  172.8820  135.5530 C   0  0  0  0  0  0  0  0  0  0  0  0
  185.5160  177.3070  135.2690 C   0  0  0  0  0  2  0  0  0  0  0  0
  189.0160  174.4980  136.8210 C   0  0  0  0  0  0  0  0  0  0  0  0
  186.7680  174.8540  136.0300 C   0  0  0  0  0  3  0  0  0  0  0  0
  186.7130  177.4930  134.3460 C   0  0  0  0  0  2  0  0  0  0  0  0
  184.6950  173.5500  135.5040 C   0  0  0  0  0  0  0  0  0  0  0  0
  184.7160  176.0150  135.0270 C   0  0  2  0  0  3  0  0  0  0  0  0
  183.3720  176.1810  135.6020 N   0  0  0  0  0  2  0  0  0  0  0  0
  182.8430  177.5070  135.2840 C   0  0  0  0  0  2  0  0  0  0  0  0
  182.2820  178.1640  136.5320 C   0  0  1  0  0  3  0  0  0  0  0  0
  180.7640  178.1840  136.4640 C   0  0  2  0  0  0  0  0  0  0  0  0
  180.2250  179.4170  136.8610 O   0  0  0  0  0  0  0  0  0  0  0  0
  180.0040  177.0740  137.0110 N   0  0  0  0  0  1  0  0  0  0  0  0
  180.0680  179.0570  135.5020 C   0  0  0  0  0  2  0  0  0  0  0  0
  182.7040  177.4640  137.6640 O   0  0  0  0  0  0  0  0  0  0  0  0
  182.8820  178.4450  138.6470 C   0  0  0  0  0  2  0  0  0  0  0  0
  182.0610  176.4710  139.9210 C   0  0  0  0  0  1  0  0  0  0  0  0
  182.5060  177.9170  140.0300 C   0  0  0  0  0  0  0  0  0  0  0  0
  183.7000  177.9970  140.9690 C   0  0  0  0  0  1  0  0  0  0  0  0
  181.3470  178.7330  140.5960 C   0  0  0  0  0  2  0  0  0  0  0  0
  180.7910  178.1160  141.7180 O   0  0  0  0  0  1  0  0  0  0  0  0
  187.0350  178.4130  139.1930 C   0  0  0  0  0  2  0  0  0  0  0  0
  187.2020  178.6560  140.5610 O   0  0  0  0  0  0  0  0  0  0  0  0
  188.5130  178.2780  140.8330 C   0  0  0  0  0  2  0  0  0  0  0  0
  188.5190  176.5840  141.4860 S   0  0  0  0  0  0  0  0  0  0  0  0
  190.9520  177.3250  142.5780 N   0  0  0  0  0  0  0  0  0  0  0  0
  191.9900  177.8800  143.4080 C   0  0  0  0  0  3  0  0  0  0  0  0
  190.5000  178.6120  145.2080 C   0  0  0  0  0  2  0  0  0  0  0  0
  189.0500  176.9900  144.0880 C   0  0  0  0  0  2  0  0  0  0  0  0
  191.7910  178.4320  144.5670 N   0  0  0  0  0  0  0  0  0  0  0  0
  189.5740  177.0230  142.8590 C   0  0  0  0  0  0  0  0  0  0  0  0
  189.8080  177.2730  145.3460 C   0  0  2  0  0  3  0  0  0  0  0  0
  187.4310  177.3790  146.5400 C   0  0  0  0  0  3  0  0  0  0  0  0
  189.4100  177.8600  147.8570 C   0  0  1  0  0  3  0  0  0  0  0  0
  186.9740  178.0060  147.7780 N   0  0  0  0  0  0  0  0  0  0  0  0
  188.9320  177.2630  146.6070 C   0  0  2  0  0  0  0  0  0  0  0  0
  188.1540  178.2670  148.6060 C   0  0  0  0  0  2  0  0  0  0  0  0
  189.4010  176.4590  147.6550 O   0  0  0  0  0  0  0  0  0  0  0  0
  1 19  1  0  0  0  0
  2  7  1  0  0  0  0
  3  4  1  0  0  0  0
  5 22  1  0  0  0  0
  6 16  1  0  0  0  0
  7 38  1  6  0  0  0
  8 17  1  0  0  0  0
  8  6  2  0  0  0  0
  9  7  1  0  0  0  0
 10 17  1  0  0  0  0
 11  9  1  0  0  0  0
 12 20  2  0  0  0  0
 13 11  1  0  0  0  0
 14 19  2  0  0  0  0
 15  2  2  0  0  0  0
 16 14  1  0  0  0  0
 16  4  2  0  0  0  0
 17  1  2  0  0  0  0
 19 15  1  0  0  0  0
 20 14  1  0  0  0  0
 21 13  1  0  0  0  0
 21 18  1  0  0  0  0
 22 12  1  0  0  0  0
 22  3  2  0  0  0  0
 23 18  1  0  0  0  0
 23 12  1  0  0  0  0
 23 24  1  1  0  0  0
 25 24  1  0  0  0  0
 26 25  1  6  0  0  0
 26 31  1  0  0  0  0
 27 26  1  0  0  0  0
 27 28  1  0  0  0  0
 27 29  1  1  0  0  0
 30 27  1  0  0  0  0
 30 28  1  0  0  0  0
 31 32  1  0  0  0  0
 32 34  1  0  0  0  0
 33 34  1  0  0  0  0
 34 36  1  0  0  0  0
 34 35  1  0  0  0  0
 36 37  1  0  0  0  0
 38 39  1  0  0  0  0
 39 40  1  0  0  0  0
 40 41  1  0  0  0  0
 41 47  1  0  0  0  0
 42 47  2  0  0  0  0
 42 43  1  0  0  0  0
 43 46  2  0  0  0  0
 44 48  1  0  0  0  0
 46 44  1  0  0  0  0
 47 45  1  0  0  0  0
 48 45  1  6  0  0  0
 48 52  1  0  0  0  0
 49 51  2  0  0  0  0
 50 53  1  1  0  0  0
 51 53  1  0  0  0  0
 52 49  1  6  0  0  0
 52 54  1  0  0  0  0
 52 50  1  0  0  0  0
 54 50  1  0  0  0  0
M  END
>  <MODEL>
7

>  <REMARK>
 VINA RESULT:      -5.2      1.772      2.833
  Name = 
  14 active torsions:
  status: ('A' for Active; 'I' for Inactive)
    1  A    between atoms: C_2  and  C_11
    2  A    between atoms: O_5  and  C_20
    3  A    between atoms: O_5  and  C_29
    4  A    between atoms: N_6  and  C_36
    5  A    between atoms: N_6  and  C_53
    6  A    between atoms: C_11  and  O_16
    7  A    between atoms: C_11  and  C_36
    8  A    between atoms: C_14  and  C_21
    9  A    between atoms: C_14  and  C_28
   10  A    between atoms: O_16  and  C_28
   11  A    between atoms: C_20  and  C_25
   12  A    between atoms: C_29  and  S_45
   13  A    between atoms: C_31  and  S_45
   14  A    between atoms: C_37  and  C_43
                            x       y       z     vdW  Elec       q    Type
                         _______ _______ _______ _____ _____    ______ ____

>  <TORSDO>
F 14

$$$$
=
 OpenBabel10222421503D

 54 60  0  0  1  0  0  0  0  0999 V2000
  191.8240  175.3960  137.1260 C   0  0  0  0  0  3  0  0  0  0  0  0
  188.9020  176.8160  138.6710 C   0  0  0  0  0  3  0  0  0  0  0  0
  187.5760  172.1230  136.3600 C   0  0  0  0  0  3  0  0  0  0  0  0
  188.8390  172.0740  136.7580 C   0  0  0  0  0  3  0  0  0  0  0  0
  185.7570  172.7320  134.7820 C   0  0  0  0  0  1  0  0  0  0  0  0
  191.0040  172.6560  136.1260 N   0  0  0  0  0  0  0  0  0  0  0  0
  188.5910  178.0850  139.3950 C   0  0  1  0  0  3  0  0  0  0  0  0
  192.1650  173.3710  135.7820 N   0  0  0  0  0  0  0  0  0  0  0  0
  188.9810  179.5760  138.3860 S   0  0  0  0  0  0  0  0  0  0  0  0
  193.8530  175.0490  135.6970 C   0  0  0  0  0  1  0  0  0  0  0  0
  187.8630  179.2470  136.9780 C   0  0  0  0  0  2  0  0  0  0  0  0
  187.1420  174.5240  135.7990 C   0  0  0  0  0  0  0  0  0  0  0  0
  188.5080  178.3010  135.9730 C   0  0  0  0  0  2  0  0  0  0  0  0
  189.5450  174.5250  136.7540 C   0  0  0  0  0  0  0  0  0  0  0  0
  190.1440  176.5500  138.2830 C   0  0  0  0  0  3  0  0  0  0  0  0
  189.8470  173.1000  136.5130 C   0  0  0  0  0  0  0  0  0  0  0  0
  192.5380  174.5490  136.1710 C   0  0  0  0  0  0  0  0  0  0  0  0
  186.3710  177.0100  135.7960 C   0  0  0  0  0  2  0  0  0  0  0  0
  190.5330  175.4080  137.4290 C   0  0  0  0  0  0  0  0  0  0  0  0
  188.3550  175.0620  136.4560 C   0  0  0  0  0  3  0  0  0  0  0  0
  187.4810  177.7010  135.0150 C   0  0  0  0  0  2  0  0  0  0  0  0
  186.9080  173.1990  135.6150 C   0  0  0  0  0  0  0  0  0  0  0  0
  186.0910  175.5600  135.3630 C   0  0  2  0  0  3  0  0  0  0  0  0
  184.7420  175.1870  135.8160 N   0  0  0  0  0  2  0  0  0  0  0  0
  184.6420  175.3090  137.2700 C   0  0  0  0  0  2  0  0  0  0  0  0
  183.1880  175.2690  137.7030 C   0  0  1  0  0  3  0  0  0  0  0  0
  182.7260  176.6660  138.0840 C   0  0  2  0  0  0  0  0  0  0  0  0
  181.3470  176.7260  138.3340 O   0  0  0  0  0  0  0  0  0  0  0  0
  183.1730  177.8090  137.3070 N   0  0  0  0  0  1  0  0  0  0  0  0
  182.2080  176.9420  139.4350 C   0  0  0  0  0  2  0  0  0  0  0  0
  182.4000  174.7670  136.6640 O   0  0  0  0  0  0  0  0  0  0  0  0
  182.2010  173.4180  136.9840 C   0  0  0  0  0  2  0  0  0  0  0  0
  179.9860  174.1540  136.1200 C   0  0  0  0  0  1  0  0  0  0  0  0
  180.7560  172.9960  136.7280 C   0  0  0  0  0  0  0  0  0  0  0  0
  180.7120  171.8160  135.7700 C   0  0  0  0  0  1  0  0  0  0  0  0
  180.0880  172.6170  138.0470 C   0  0  0  0  0  2  0  0  0  0  0  0
  179.9820  173.7180  138.8980 O   0  0  0  0  0  1  0  0  0  0  0  0
  187.1620  178.1020  139.9320 C   0  0  0  0  0  2  0  0  0  0  0  0
  187.1480  177.9790  141.3260 O   0  0  0  0  0  0  0  0  0  0  0  0
  186.2360  178.9370  141.7600 C   0  0  0  0  0  2  0  0  0  0  0  0
  185.0500  178.1550  142.8910 S   0  0  0  0  0  0  0  0  0  0  0  0
  185.6710  178.5760  145.5560 N   0  0  0  0  0  2  0  0  0  0  0  0
  186.2680  178.5340  146.8650 C   0  0  0  0  0  3  0  0  0  0  0  0
  188.1900  177.1630  146.2150 C   0  0  0  0  0  2  0  0  0  0  0  0
  187.4830  177.9750  144.0170 C   0  0  0  0  0  3  0  0  0  0  0  0
  187.3800  177.9250  147.1500 N   0  0  0  0  0  0  0  0  0  0  0  0
  186.1910  178.2120  144.2660 C   0  0  0  0  0  0  0  0  0  0  0  0
  188.5720  178.0380  145.0410 C   0  0  2  0  0  3  0  0  0  0  0  0
  190.2560  177.6010  143.0250 C   0  0  0  0  0  3  0  0  0  0  0  0
  190.7340  176.5840  145.1760 C   0  0  1  0  0  3  0  0  0  0  0  0
  191.2770  176.5820  142.7950 N   0  0  0  0  0  0  0  0  0  0  0  0
  189.9470  177.6190  144.5010 C   0  0  2  0  0  0  0  0  0  0  0  0
  191.6090  175.9830  144.0910 C   0  0  0  0  0  2  0  0  0  0  0  0
  191.0380  177.9600  145.3130 O   0  0  0  0  0  0  0  0  0  0  0  0
  1 19  1  0  0  0  0
  2  7  1  0  0  0  0
  3  4  1  0  0  0  0
  5 22  1  0  0  0  0
  6 16  1  0  0  0  0
  7 38  1  6  0  0  0
  8  6  2  0  0  0  0
  8 17  1  0  0  0  0
  9  7  1  0  0  0  0
 10 17  1  0  0  0  0
 11  9  1  0  0  0  0
 12 20  2  0  0  0  0
 13 11  1  0  0  0  0
 14 19  2  0  0  0  0
 15  2  2  0  0  0  0
 16 14  1  0  0  0  0
 16  4  2  0  0  0  0
 17  1  2  0  0  0  0
 19 15  1  0  0  0  0
 20 14  1  0  0  0  0
 21 18  1  0  0  0  0
 21 13  1  0  0  0  0
 22 12  1  0  0  0  0
 22  3  2  0  0  0  0
 23 18  1  0  0  0  0
 23 12  1  0  0  0  0
 23 24  1  1  0  0  0
 24 25  1  0  0  0  0
 26 25  1  6  0  0  0
 26 27  1  0  0  0  0
 27 29  1  6  0  0  0
 27 28  1  0  0  0  0
 27 30  1  0  0  0  0
 28 30  1  0  0  0  0
 31 32  1  0  0  0  0
 31 26  1  0  0  0  0
 33 34  1  0  0  0  0
 34 32  1  0  0  0  0
 34 36  1  0  0  0  0
 35 34  1  0  0  0  0
 36 37  1  0  0  0  0
 38 39  1  0  0  0  0
 39 40  1  0  0  0  0
 40 41  1  0  0  0  0
 41 47  1  0  0  0  0
 42 43  1  0  0  0  0
 43 46  2  0  0  0  0
 44 46  1  0  0  0  0
 45 47  2  0  0  0  0
 47 42  1  0  0  0  0
 48 45  1  6  0  0  0
 48 44  1  0  0  0  0
 50 53  1  6  0  0  0
 50 54  1  0  0  0  0
 51 49  2  0  0  0  0
 51 53  1  0  0  0  0
 52 49  1  6  0  0  0
 52 48  1  0  0  0  0
 52 50  1  0  0  0  0
 52 54  1  0  0  0  0
M  END
>  <MODEL>
8

>  <REMARK>
 VINA RESULT:      -5.1      1.616      2.872
  Name = 
  14 active torsions:
  status: ('A' for Active; 'I' for Inactive)
    1  A    between atoms: C_2  and  C_11
    2  A    between atoms: O_5  and  C_20
    3  A    between atoms: O_5  and  C_29
    4  A    between atoms: N_6  and  C_36
    5  A    between atoms: N_6  and  C_53
    6  A    between atoms: C_11  and  O_16
    7  A    between atoms: C_11  and  C_36
    8  A    between atoms: C_14  and  C_21
    9  A    between atoms: C_14  and  C_28
   10  A    between atoms: O_16  and  C_28
   11  A    between atoms: C_20  and  C_25
   12  A    between atoms: C_29  and  S_45
   13  A    between atoms: C_31  and  S_45
   14  A    between atoms: C_37  and  C_43
                            x       y       z     vdW  Elec       q    Type
                         _______ _______ _______ _____ _____    ______ ____

>  <TORSDO>
F 14

$$$$
=
 OpenBabel10222421503D

 54 60  0  0  1  0  0  0  0  0999 V2000
  191.4310  174.7750  136.4470 C   0  0  0  0  0  3  0  0  0  0  0  0
  188.7600  176.2300  138.3680 C   0  0  0  0  0  3  0  0  0  0  0  0
  186.8830  171.9280  135.7030 C   0  0  0  0  0  3  0  0  0  0  0  0
  188.1640  171.7430  135.9880 C   0  0  0  0  0  3  0  0  0  0  0  0
  185.0070  172.8380  134.3540 C   0  0  0  0  0  1  0  0  0  0  0  0
  190.3160  172.2290  135.2410 N   0  0  0  0  0  0  0  0  0  0  0  0
  188.6090  177.4320  139.2410 C   0  0  1  0  0  3  0  0  0  0  0  0
  191.5030  172.8890  134.8780 N   0  0  0  0  0  0  0  0  0  0  0  0
  189.0450  178.9910  138.3620 S   0  0  0  0  0  0  0  0  0  0  0  0
  193.3120  174.4370  134.8250 C   0  0  0  0  0  1  0  0  0  0  0  0
  187.8010  178.9020  137.0260 C   0  0  0  0  0  2  0  0  0  0  0  0
  186.6070  174.4010  135.4310 C   0  0  0  0  0  0  0  0  0  0  0  0
  188.2880  178.0250  135.8790 C   0  0  0  0  0  2  0  0  0  0  0  0
  189.0670  174.1210  136.1770 C   0  0  0  0  0  0  0  0  0  0  0  0
  189.9440  175.9160  137.8520 C   0  0  0  0  0  3  0  0  0  0  0  0
  189.2320  172.7120  135.7670 C   0  0  0  0  0  0  0  0  0  0  0  0
  192.0000  173.9870  135.3530 C   0  0  0  0  0  0  0  0  0  0  0  0
  186.0450  176.9230  135.7490 C   0  0  0  0  0  2  0  0  0  0  0  0
  190.1720  174.8490  136.8550 C   0  0  0  0  0  0  0  0  0  0  0  0
  187.9070  174.7740  136.0360 C   0  0  0  0  0  3  0  0  0  0  0  0
  187.1470  177.6110  134.9540 C   0  0  0  0  0  2  0  0  0  0  0  0
  186.2520  173.1260  135.1320 C   0  0  0  0  0  0  0  0  0  0  0  0
  185.6160  175.5530  135.1930 C   0  0  2  0  0  3  0  0  0  0  0  0
  184.2780  175.2340  135.7160 N   0  0  0  0  0  2  0  0  0  0  0  0
  184.3120  175.1420  137.1750 C   0  0  0  0  0  2  0  0  0  0  0  0
  182.9210  175.3450  137.7480 C   0  0  1  0  0  3  0  0  0  0  0  0
  182.8140  176.7330  138.3600 C   0  0  2  0  0  0  0  0  0  0  0  0
  181.8160  176.8110  139.3420 O   0  0  0  0  0  0  0  0  0  0  0  0
  182.8010  177.9010  137.4970 N   0  0  0  0  0  1  0  0  0  0  0  0
  183.1550  176.9560  139.7760 C   0  0  0  0  0  2  0  0  0  0  0  0
  181.9670  175.1900  136.7390 O   0  0  0  0  0  0  0  0  0  0  0  0
  182.1320  173.8740  136.2900 C   0  0  0  0  0  2  0  0  0  0  0  0
  180.0090  173.4190  137.5070 C   0  0  0  0  0  1  0  0  0  0  0  0
  180.7960  173.1350  136.2410 C   0  0  0  0  0  0  0  0  0  0  0  0
  179.9820  173.5910  135.0410 C   0  0  0  0  0  1  0  0  0  0  0  0
  181.0420  171.6310  136.1580 C   0  0  0  0  0  2  0  0  0  0  0  0
  182.4010  171.3310  136.2680 O   0  0  0  0  0  1  0  0  0  0  0  0
  187.2320  177.4950  139.8950 C   0  0  0  0  0  2  0  0  0  0  0  0
  186.8950  178.8090  140.2360 O   0  0  0  0  0  0  0  0  0  0  0  0
  187.3940  178.9840  141.5230 C   0  0  0  0  0  2  0  0  0  0  0  0
  186.4380  177.9530  142.6730 S   0  0  0  0  0  0  0  0  0  0  0  0
  188.8720  176.6400  142.5570 N   0  0  0  0  0  0  0  0  0  0  0  0
  190.2100  176.1710  142.8090 C   0  0  0  0  0  3  0  0  0  0  0  0
  190.4550  177.2810  144.9780 C   0  0  0  0  0  2  0  0  0  0  0  0
  188.0180  177.3190  144.7520 C   0  0  0  0  0  2  0  0  0  0  0  0
  190.8980  176.4420  143.8780 N   0  0  0  0  0  0  0  0  0  0  0  0
  187.9100  177.2690  143.4210 C   0  0  0  0  0  0  0  0  0  0  0  0
  189.1550  176.7440  145.5370 C   0  0  2  0  0  3  0  0  0  0  0  0
  187.7970  176.8470  147.8250 C   0  0  0  0  0  3  0  0  0  0  0  0
  189.8520  178.1220  147.6390 C   0  0  1  0  0  3  0  0  0  0  0  0
  187.8140  177.7880  148.9430 N   0  0  0  0  0  0  0  0  0  0  0  0
  189.0710  177.0360  147.0420 C   0  0  2  0  0  0  0  0  0  0  0  0
  189.0690  178.5400  148.8710 C   0  0  0  0  0  2  0  0  0  0  0  0
  190.2390  176.7670  147.7700 O   0  0  0  0  0  0  0  0  0  0  0  0
  1 19  1  0  0  0  0
  2  7  1  0  0  0  0
  3  4  1  0  0  0  0
  5 22  1  0  0  0  0
  6 16  1  0  0  0  0
  7 38  1  6  0  0  0
  8  6  2  0  0  0  0
  8 17  1  0  0  0  0
  9  7  1  0  0  0  0
 10 17  1  0  0  0  0
 11  9  1  0  0  0  0
 12 20  2  0  0  0  0
 13 11  1  0  0  0  0
 14 19  2  0  0  0  0
 15  2  2  0  0  0  0
 16  4  2  0  0  0  0
 16 14  1  0  0  0  0
 17  1  2  0  0  0  0
 19 15  1  0  0  0  0
 20 14  1  0  0  0  0
 21 18  1  0  0  0  0
 21 13  1  0  0  0  0
 22 12  1  0  0  0  0
 22  3  2  0  0  0  0
 23 12  1  0  0  0  0
 23 24  1  1  0  0  0
 23 18  1  0  0  0  0
 24 25  1  0  0  0  0
 26 25  1  6  0  0  0
 26 27  1  0  0  0  0
 27 29  1  6  0  0  0
 27 28  1  0  0  0  0
 27 30  1  0  0  0  0
 28 30  1  0  0  0  0
 31 26  1  0  0  0  0
 32 31  1  0  0  0  0
 34 32  1  0  0  0  0
 34 33  1  0  0  0  0
 35 34  1  0  0  0  0
 36 34  1  0  0  0  0
 36 37  1  0  0  0  0
 38 39  1  0  0  0  0
 39 40  1  0  0  0  0
 40 41  1  0  0  0  0
 41 47  1  0  0  0  0
 42 43  1  0  0  0  0
 42 47  2  0  0  0  0
 43 46  2  0  0  0  0
 44 48  1  0  0  0  0
 46 44  1  0  0  0  0
 47 45  1  0  0  0  0
 48 45  1  6  0  0  0
 48 52  1  0  0  0  0
 49 51  2  0  0  0  0
 50 54  1  0  0  0  0
 50 53  1  1  0  0  0
 52 50  1  0  0  0  0
 52 54  1  0  0  0  0
 52 49  1  1  0  0  0
 53 51  1  0  0  0  0
M  END
>  <MODEL>
9

>  <REMARK>
 VINA RESULT:      -4.7      1.724      3.334
  Name = 
  14 active torsions:
  status: ('A' for Active; 'I' for Inactive)
    1  A    between atoms: C_2  and  C_11
    2  A    between atoms: O_5  and  C_20
    3  A    between atoms: O_5  and  C_29
    4  A    between atoms: N_6  and  C_36
    5  A    between atoms: N_6  and  C_53
    6  A    between atoms: C_11  and  O_16
    7  A    between atoms: C_11  and  C_36
    8  A    between atoms: C_14  and  C_21
    9  A    between atoms: C_14  and  C_28
   10  A    between atoms: O_16  and  C_28
   11  A    between atoms: C_20  and  C_25
   12  A    between atoms: C_29  and  S_45
   13  A    between atoms: C_31  and  S_45
   14  A    between atoms: C_37  and  C_43
                            x       y       z     vdW  Elec       q    Type
                         _______ _______ _______ _____ _____    ______ ____

>  <TORSDO>
F 14

$$$$
