=
 OpenBabel10232410473D

 35 37  0  0  1  0  0  0  0  0999 V2000
  187.3610  177.0050  143.3750 C   0  0  0  0  0  2  0  0  0  0  0  0
  186.1550  179.0170  147.6380 F   0  0  0  0  0  0  0  0  0  0  0  0
  184.6520  179.1820  145.8390 N   0  0  0  0  0  0  0  0  0  0  0  0
  184.2920  178.9330  144.5510 C   0  0  0  0  0  0  0  0  0  0  0  0
  186.3870  177.7590  144.2210 C   0  0  0  0  0  0  0  0  0  0  0  0
  183.0370  179.4090  144.0730 N   0  0  0  0  0  1  0  0  0  0  0  0
  185.8360  178.7490  146.3490 C   0  0  0  0  0  0  0  0  0  0  0  0
  186.7230  178.0310  145.5480 C   0  0  0  0  0  3  0  0  0  0  0  0
  185.1520  178.2080  143.7070 C   0  0  0  0  0  0  0  0  0  0  0  0
  184.7530  177.9120  142.2930 C   0  0  0  0  0  2  0  0  0  0  0  0
  185.2320  179.0130  141.3650 C   0  0  0  0  0  2  0  0  0  0  0  0
  182.9540  178.6560  140.3070 O   0  0  0  0  0  0  0  0  0  0  0  0
  184.2050  179.2550  140.3160 C   0  0  0  0  0  0  0  0  0  0  0  0
  183.2170  180.0430  138.5490 N   0  0  0  0  0  2  0  0  0  0  0  0
  184.3810  180.0530  139.3250 N   0  0  0  0  0  0  0  0  0  0  0  0
  182.2530  179.1450  139.1730 C   0  0  1  0  0  3  0  0  0  0  0  0
  181.9300  177.9950  138.2370 C   0  0  0  0  0  2  0  0  0  0  0  0
  182.0980  176.7820  138.9020 O   0  0  0  0  0  1  0  0  0  0  0  0
  188.6650  177.7760  143.2500 C   0  0  0  0  0  2  0  0  0  0  0  0
  191.7080  175.6040  143.7920 C   0  0  0  0  0  2  0  0  0  0  0  0
  191.7190  175.9120  145.2910 C   0  0  0  0  0  2  0  0  0  0  0  0
  190.4800  178.0710  144.7420 C   0  0  0  0  0  2  0  0  0  0  0  0
  189.7150  177.0810  143.9790 N   0  0  0  0  0  0  0  0  0  0  0  0
  191.6210  177.4180  145.5380 C   0  0  0  0  0  2  0  0  0  0  0  0
  190.5950  176.3540  143.0440 C   0  0  1  0  0  3  0  0  0  0  0  0
  191.3460  177.4410  141.7750 S   0  0  0  0  0  0  0  0  0  0  0  0
  190.3270  176.7210  140.4570 C   0  0  0  0  0  2  0  0  0  0  0  0
  189.8390  177.8210  139.5370 C   0  0  0  0  0  2  0  0  0  0  0  0
  188.3210  177.8290  139.4920 C   0  0  0  0  0  2  0  0  0  0  0  0
  189.0410  178.9480  137.5700 C   0  0  0  0  0  1  0  0  0  0  0  0
  187.8590  178.5390  138.3090 N   0  0  0  0  0  0  0  0  0  0  0  0
  187.0590  177.8800  135.6920 O   0  0  0  0  0  0  0  0  0  0  0  0
  186.9850  177.3900  137.3090 P   0  0  0  0  0  0  0  0  0  0  0  0
  185.5370  177.3120  137.7400 O   0  0  0  0  0  1  0  0  0  0  0  0
  187.6950  175.8630  137.4570 O   0  0  0  0  0  1  0  0  0  0  0  0
  1  5  1  0  0  0  0
  3  7  1  0  0  0  0
  4  3  2  0  0  0  0
  5  8  1  0  0  0  0
  6  4  1  0  0  0  0
  7  2  1  0  0  0  0
  8  7  2  0  0  0  0
  9  5  2  0  0  0  0
  9  4  1  0  0  0  0
 10  9  1  0  0  0  0
 11 10  1  0  0  0  0
 12 13  1  0  0  0  0
 13 11  1  0  0  0  0
 14 16  1  0  0  0  0
 14 15  1  0  0  0  0
 15 13  2  0  0  0  0
 16 17  1  6  0  0  0
 16 12  1  0  0  0  0
 17 18  1  0  0  0  0
 19  1  1  0  0  0  0
 19 23  1  0  0  0  0
 20 21  1  0  0  0  0
 21 24  1  0  0  0  0
 22 24  1  0  0  0  0
 23 22  1  0  0  0  0
 25 26  1  6  0  0  0
 25 20  1  0  0  0  0
 25 23  1  0  0  0  0
 27 26  1  0  0  0  0
 28 27  1  0  0  0  0
 29 28  1  0  0  0  0
 30 31  1  0  0  0  0
 31 29  1  0  0  0  0
 32 33  2  0  0  0  0
 33 35  1  0  0  0  0
 33 34  1  0  0  0  0
 33 31  1  0  0  0  0
M  END
>  <MODEL>
1

>  <REMARK>
 VINA RESULT:      -7.9      0.000      0.000
  Name = 
  13 active torsions:
  status: ('A' for Active; 'I' for Inactive)
    1  A    between atoms: C_2  and  C_12
    2  A    between atoms: C_2  and  C_22
    3  A    between atoms: S_6  and  C_22
    4  A    between atoms: S_6  and  C_28
    5  A    between atoms: C_9  and  C_34
    6  A    between atoms: C_10  and  N_23
    7  A    between atoms: C_10  and  C_35
    8  A    between atoms: C_12  and  N_21
    9  A    between atoms: C_13  and  C_14
   10  A    between atoms: C_14  and  C_17
   11  A    between atoms: P_15  and  N_21
   12  A    between atoms: C_17  and  C_32
   13  A    between atoms: C_20  and  C_35
                            x       y       z     vdW  Elec       q    Type
                         _______ _______ _______ _____ _____    ______ ____

>  <TORSDO>
F 13

$$$$
=
 OpenBabel10232410473D

 35 37  0  0  1  0  0  0  0  0999 V2000
  187.2650  176.8620  143.5390 C   0  0  0  0  0  2  0  0  0  0  0  0
  185.5750  178.5320  147.7850 F   0  0  0  0  0  0  0  0  0  0  0  0
  184.3840  179.0180  145.8190 N   0  0  0  0  0  0  0  0  0  0  0  0
  184.2080  178.9360  144.4730 C   0  0  0  0  0  0  0  0  0  0  0  0
  186.2320  177.6130  144.3170 C   0  0  0  0  0  0  0  0  0  0  0  0
  183.0810  179.5720  143.8760 N   0  0  0  0  0  1  0  0  0  0  0  0
  185.4390  178.4280  146.4420 C   0  0  0  0  0  0  0  0  0  0  0  0
  186.3810  177.7160  145.7000 C   0  0  0  0  0  3  0  0  0  0  0  0
  185.1290  178.2240  143.6850 C   0  0  0  0  0  0  0  0  0  0  0  0
  184.9310  178.1120  142.2030 C   0  0  0  0  0  2  0  0  0  0  0  0
  185.6550  179.2350  141.4840 C   0  0  0  0  0  2  0  0  0  0  0  0
  187.1360  178.1200  139.7530 O   0  0  0  0  0  0  0  0  0  0  0  0
  185.9800  178.8030  140.0980 C   0  0  0  0  0  0  0  0  0  0  0  0
  185.8190  178.4730  137.9570 N   0  0  0  0  0  2  0  0  0  0  0  0
  185.2100  179.0170  139.0920 N   0  0  0  0  0  0  0  0  0  0  0  0
  187.0820  177.8640  138.3570 C   0  0  1  0  0  3  0  0  0  0  0  0
  188.2390  178.5600  137.6640 C   0  0  0  0  0  2  0  0  0  0  0  0
  188.9850  179.2790  138.5970 O   0  0  0  0  0  1  0  0  0  0  0  0
  188.5410  177.6790  143.4220 C   0  0  0  0  0  2  0  0  0  0  0  0
  191.6970  175.6320  143.7720 C   0  0  0  0  0  2  0  0  0  0  0  0
  191.7010  175.8120  145.2910 C   0  0  0  0  0  2  0  0  0  0  0  0
  190.3480  177.9410  144.9300 C   0  0  0  0  0  2  0  0  0  0  0  0
  189.6300  176.9810  144.0870 N   0  0  0  0  0  0  0  0  0  0  0  0
  191.5260  177.2850  145.6650 C   0  0  0  0  0  2  0  0  0  0  0  0
  190.5410  176.3830  143.0920 C   0  0  1  0  0  3  0  0  0  0  0  0
  191.2260  177.6110  141.9180 S   0  0  0  0  0  0  0  0  0  0  0  0
  190.6190  176.6800  140.4840 C   0  0  0  0  0  2  0  0  0  0  0  0
  191.5830  176.8490  139.3280 C   0  0  0  0  0  2  0  0  0  0  0  0
  191.0370  176.1610  138.0880 C   0  0  0  0  0  2  0  0  0  0  0  0
  190.6310  174.0430  137.1830 C   0  0  0  0  0  1  0  0  0  0  0  0
  191.5640  174.8090  137.9930 N   0  0  0  0  0  0  0  0  0  0  0  0
  192.9070  175.9370  135.7910 O   0  0  0  0  0  0  0  0  0  0  0  0
  193.0800  174.8920  137.1100 P   0  0  0  0  0  0  0  0  0  0  0  0
  193.4740  173.5200  136.6090 O   0  0  0  0  0  1  0  0  0  0  0  0
  194.2920  175.4840  138.1290 O   0  0  0  0  0  1  0  0  0  0  0  0
  1  5  1  0  0  0  0
  3  7  1  0  0  0  0
  4  3  2  0  0  0  0
  5  8  1  0  0  0  0
  6  4  1  0  0  0  0
  7  2  1  0  0  0  0
  8  7  2  0  0  0  0
  9  5  2  0  0  0  0
  9  4  1  0  0  0  0
 10  9  1  0  0  0  0
 11 10  1  0  0  0  0
 12 13  1  0  0  0  0
 13 11  1  0  0  0  0
 14 16  1  0  0  0  0
 14 15  1  0  0  0  0
 15 13  2  0  0  0  0
 16 17  1  6  0  0  0
 16 12  1  0  0  0  0
 17 18  1  0  0  0  0
 19  1  1  0  0  0  0
 19 23  1  0  0  0  0
 20 21  1  0  0  0  0
 21 24  1  0  0  0  0
 22 24  1  0  0  0  0
 23 22  1  0  0  0  0
 25 26  1  6  0  0  0
 25 20  1  0  0  0  0
 25 23  1  0  0  0  0
 27 26  1  0  0  0  0
 28 27  1  0  0  0  0
 29 28  1  0  0  0  0
 30 31  1  0  0  0  0
 31 29  1  0  0  0  0
 32 33  2  0  0  0  0
 33 31  1  0  0  0  0
 33 35  1  0  0  0  0
 34 33  1  0  0  0  0
M  END
>  <MODEL>
2

>  <REMARK>
 VINA RESULT:      -7.8      2.658      3.504
  Name = 
  13 active torsions:
  status: ('A' for Active; 'I' for Inactive)
    1  A    between atoms: C_2  and  C_12
    2  A    between atoms: C_2  and  C_22
    3  A    between atoms: S_6  and  C_22
    4  A    between atoms: S_6  and  C_28
    5  A    between atoms: C_9  and  C_34
    6  A    between atoms: C_10  and  N_23
    7  A    between atoms: C_10  and  C_35
    8  A    between atoms: C_12  and  N_21
    9  A    between atoms: C_13  and  C_14
   10  A    between atoms: C_14  and  C_17
   11  A    between atoms: P_15  and  N_21
   12  A    between atoms: C_17  and  C_32
   13  A    between atoms: C_20  and  C_35
                            x       y       z     vdW  Elec       q    Type
                         _______ _______ _______ _____ _____    ______ ____

>  <TORSDO>
F 13

$$$$
=
 OpenBabel10232410473D

 35 37  0  0  1  0  0  0  0  0999 V2000
  189.1570  176.3180  142.5060 C   0  0  0  0  0  2  0  0  0  0  0  0
  192.1080  176.9740  146.3190 F   0  0  0  0  0  0  0  0  0  0  0  0
  189.8000  177.3130  146.5980 N   0  0  0  0  0  0  0  0  0  0  0  0
  188.5250  177.3300  146.1250 C   0  0  0  0  0  0  0  0  0  0  0  0
  189.3530  176.6580  143.9490 C   0  0  0  0  0  0  0  0  0  0  0  0
  187.4590  177.6820  147.0030 N   0  0  0  0  0  1  0  0  0  0  0  0
  190.8540  176.9810  145.8060 C   0  0  0  0  0  0  0  0  0  0  0  0
  190.6480  176.6490  144.4680 C   0  0  0  0  0  3  0  0  0  0  0  0
  188.2680  176.9970  144.7830 C   0  0  0  0  0  0  0  0  0  0  0  0
  186.8630  176.9940  144.2600 C   0  0  0  0  0  2  0  0  0  0  0  0
  186.4420  178.3950  143.8590 C   0  0  0  0  0  2  0  0  0  0  0  0
  183.9520  178.1470  143.4480 O   0  0  0  0  0  0  0  0  0  0  0  0
  185.0130  178.6020  144.2160 C   0  0  0  0  0  0  0  0  0  0  0  0
  183.2330  179.2170  145.2990 N   0  0  0  0  0  2  0  0  0  0  0  0
  184.6310  179.2150  145.2790 N   0  0  0  0  0  0  0  0  0  0  0  0
  182.7530  178.5120  144.1160 C   0  0  1  0  0  3  0  0  0  0  0  0
  181.9450  179.4520  143.2400 C   0  0  0  0  0  2  0  0  0  0  0  0
  180.7870  178.8120  142.8030 O   0  0  0  0  0  1  0  0  0  0  0  0
  189.8280  177.3530  141.6200 C   0  0  0  0  0  2  0  0  0  0  0  0
  190.0130  176.1290  138.0500 C   0  0  0  0  0  2  0  0  0  0  0  0
  191.4450  175.6290  138.2460 C   0  0  0  0  0  2  0  0  0  0  0  0
  191.6650  177.3380  140.1240 C   0  0  0  0  0  2  0  0  0  0  0  0
  190.3830  176.7020  140.4430 N   0  0  0  0  0  0  0  0  0  0  0  0
  192.3170  176.7130  138.8820 C   0  0  0  0  0  2  0  0  0  0  0  0
  189.4510  176.8170  139.3050 C   0  0  1  0  0  3  0  0  0  0  0  0
  189.0230  178.5530  138.9010 S   0  0  0  0  0  0  0  0  0  0  0  0
  188.5550  178.1140  137.2040 C   0  0  0  0  0  2  0  0  0  0  0  0
  187.0940  178.4440  136.9820 C   0  0  0  0  0  2  0  0  0  0  0  0
  186.2280  177.6600  137.9530 C   0  0  0  0  0  2  0  0  0  0  0  0
  184.0140  176.9170  137.8390 C   0  0  0  0  0  1  0  0  0  0  0  0
  184.8460  178.1080  137.8650 N   0  0  0  0  0  0  0  0  0  0  0  0
  183.1940  178.2110  140.1420 O   0  0  0  0  0  1  0  0  0  0  0  0
  184.4760  178.9760  139.3460 P   0  0  0  0  0  0  0  0  0  0  0  0
  184.0880  180.4050  139.0360 O   0  0  0  0  0  0  0  0  0  0  0  0
  185.8330  178.9720  140.3550 O   0  0  0  0  0  1  0  0  0  0  0  0
  1  5  1  0  0  0  0
  4  3  1  0  0  0  0
  4  6  1  0  0  0  0
  5  8  2  0  0  0  0
  5  9  1  0  0  0  0
  7  2  1  0  0  0  0
  7  3  2  0  0  0  0
  8  7  1  0  0  0  0
  9  4  2  0  0  0  0
 10  9  1  0  0  0  0
 11 13  1  0  0  0  0
 11 10  1  0  0  0  0
 12 16  1  0  0  0  0
 12 13  1  0  0  0  0
 13 15  2  0  0  0  0
 15 14  1  0  0  0  0
 16 17  1  6  0  0  0
 16 14  1  0  0  0  0
 18 17  1  0  0  0  0
 19  1  1  0  0  0  0
 20 21  1  0  0  0  0
 20 25  1  0  0  0  0
 21 24  1  0  0  0  0
 22 23  1  0  0  0  0
 23 19  1  0  0  0  0
 24 22  1  0  0  0  0
 25 26  1  6  0  0  0
 25 23  1  0  0  0  0
 27 26  1  0  0  0  0
 28 27  1  0  0  0  0
 28 29  1  0  0  0  0
 30 31  1  0  0  0  0
 31 29  1  0  0  0  0
 31 33  1  0  0  0  0
 33 32  1  0  0  0  0
 33 35  1  0  0  0  0
 34 33  2  0  0  0  0
M  END
>  <MODEL>
3

>  <REMARK>
 VINA RESULT:      -7.4      2.564      4.663
  Name = 
  13 active torsions:
  status: ('A' for Active; 'I' for Inactive)
    1  A    between atoms: C_2  and  C_12
    2  A    between atoms: C_2  and  C_22
    3  A    between atoms: S_6  and  C_22
    4  A    between atoms: S_6  and  C_28
    5  A    between atoms: C_9  and  C_34
    6  A    between atoms: C_10  and  N_23
    7  A    between atoms: C_10  and  C_35
    8  A    between atoms: C_12  and  N_21
    9  A    between atoms: C_13  and  C_14
   10  A    between atoms: C_14  and  C_17
   11  A    between atoms: P_15  and  N_21
   12  A    between atoms: C_17  and  C_32
   13  A    between atoms: C_20  and  C_35
                            x       y       z     vdW  Elec       q    Type
                         _______ _______ _______ _____ _____    ______ ____

>  <TORSDO>
F 13

$$$$
=
 OpenBabel10232410473D

 35 37  0  0  1  0  0  0  0  0999 V2000
  188.5510  177.0500  144.0460 C   0  0  0  0  0  2  0  0  0  0  0  0
  183.9030  178.1180  143.0800 F   0  0  0  0  0  0  0  0  0  0  0  0
  184.7980  178.7290  145.1640 N   0  0  0  0  0  0  0  0  0  0  0  0
  185.8230  178.7930  146.0570 C   0  0  0  0  0  0  0  0  0  0  0  0
  187.2490  177.6590  144.4590 C   0  0  0  0  0  0  0  0  0  0  0  0
  185.6070  179.4060  147.3250 N   0  0  0  0  0  1  0  0  0  0  0  0
  184.9490  178.1580  143.9400 C   0  0  0  0  0  0  0  0  0  0  0  0
  186.1770  177.6120  143.5670 C   0  0  0  0  0  3  0  0  0  0  0  0
  187.0810  178.2610  145.7230 C   0  0  0  0  0  0  0  0  0  0  0  0
  188.2200  178.3450  146.6940 C   0  0  0  0  0  2  0  0  0  0  0  0
  188.4680  176.9950  147.3410 C   0  0  0  0  0  2  0  0  0  0  0  0
  190.4800  175.5090  147.7600 O   0  0  0  0  0  0  0  0  0  0  0  0
  189.9000  176.6280  147.1810 C   0  0  0  0  0  0  0  0  0  0  0  0
  191.9770  176.6780  146.5440 N   0  0  0  0  0  2  0  0  0  0  0  0
  190.7320  177.3120  146.4810 N   0  0  0  0  0  0  0  0  0  0  0  0
  191.8440  175.4810  147.3660 C   0  0  1  0  0  3  0  0  0  0  0  0
  192.7320  175.5900  148.5920 C   0  0  0  0  0  2  0  0  0  0  0  0
  192.8470  176.9250  148.9760 O   0  0  0  0  0  1  0  0  0  0  0  0
  188.4900  176.5950  142.5980 C   0  0  0  0  0  2  0  0  0  0  0  0
  191.0890  177.0740  139.8980 C   0  0  0  0  0  2  0  0  0  0  0  0
  192.2280  177.0060  140.9160 C   0  0  0  0  0  2  0  0  0  0  0  0
  190.5490  177.7640  142.6780 C   0  0  0  0  0  2  0  0  0  0  0  0
  189.8130  176.6930  141.9990 N   0  0  0  0  0  0  0  0  0  0  0  0
  191.9600  177.9410  142.0970 C   0  0  0  0  0  2  0  0  0  0  0  0
  189.7030  176.9750  140.5550 C   0  0  1  0  0  3  0  0  0  0  0  0
  188.7500  178.4970  140.1920 S   0  0  0  0  0  0  0  0  0  0  0  0
  189.0840  178.3630  138.4140 C   0  0  0  0  0  2  0  0  0  0  0  0
  187.7900  178.0850  137.6770 C   0  0  0  0  0  2  0  0  0  0  0  0
  186.6370  177.9910  138.6620 C   0  0  0  0  0  2  0  0  0  0  0  0
  184.7540  177.6790  137.3130 C   0  0  0  0  0  1  0  0  0  0  0  0
  185.4620  178.6560  138.1230 N   0  0  0  0  0  0  0  0  0  0  0  0
  183.3610  180.3050  139.0140 O   0  0  0  0  0  0  0  0  0  0  0  0
  184.4210  179.0710  139.4750 P   0  0  0  0  0  0  0  0  0  0  0  0
  185.2480  179.5390  140.6530 O   0  0  0  0  0  1  0  0  0  0  0  0
  183.5220  177.7130  139.9300 O   0  0  0  0  0  1  0  0  0  0  0  0
  1  5  1  0  0  0  0
  2  7  1  0  0  0  0
  3  4  1  0  0  0  0
  4  6  1  0  0  0  0
  5  9  1  0  0  0  0
  7  3  2  0  0  0  0
  8  7  1  0  0  0  0
  8  5  2  0  0  0  0
  9  4  2  0  0  0  0
  9 10  1  0  0  0  0
 10 11  1  0  0  0  0
 13 11  1  0  0  0  0
 13 12  1  0  0  0  0
 14 16  1  0  0  0  0
 15 14  1  0  0  0  0
 15 13  2  0  0  0  0
 16 12  1  0  0  0  0
 16 17  1  1  0  0  0
 17 18  1  0  0  0  0
 19  1  1  0  0  0  0
 20 25  1  0  0  0  0
 20 21  1  0  0  0  0
 21 24  1  0  0  0  0
 23 19  1  0  0  0  0
 23 22  1  0  0  0  0
 24 22  1  0  0  0  0
 25 26  1  1  0  0  0
 25 23  1  0  0  0  0
 27 26  1  0  0  0  0
 28 27  1  0  0  0  0
 28 29  1  0  0  0  0
 30 31  1  0  0  0  0
 31 29  1  0  0  0  0
 31 33  1  0  0  0  0
 32 33  2  0  0  0  0
 33 35  1  0  0  0  0
 33 34  1  0  0  0  0
M  END
>  <MODEL>
4

>  <REMARK>
 VINA RESULT:      -7.2      3.531      6.416
  Name = 
  13 active torsions:
  status: ('A' for Active; 'I' for Inactive)
    1  A    between atoms: C_2  and  C_12
    2  A    between atoms: C_2  and  C_22
    3  A    between atoms: S_6  and  C_22
    4  A    between atoms: S_6  and  C_28
    5  A    between atoms: C_9  and  C_34
    6  A    between atoms: C_10  and  N_23
    7  A    between atoms: C_10  and  C_35
    8  A    between atoms: C_12  and  N_21
    9  A    between atoms: C_13  and  C_14
   10  A    between atoms: C_14  and  C_17
   11  A    between atoms: P_15  and  N_21
   12  A    between atoms: C_17  and  C_32
   13  A    between atoms: C_20  and  C_35
                            x       y       z     vdW  Elec       q    Type
                         _______ _______ _______ _____ _____    ______ ____

>  <TORSDO>
F 13

$$$$
=
 OpenBabel10232410473D

 35 37  0  0  1  0  0  0  0  0999 V2000
  187.1830  177.7030  143.0910 C   0  0  0  0  0  2  0  0  0  0  0  0
  185.6120  179.0020  147.5100 F   0  0  0  0  0  0  0  0  0  0  0  0
  184.0700  178.9040  145.7400 N   0  0  0  0  0  0  0  0  0  0  0  0
  183.7510  178.6680  144.4390 C   0  0  0  0  0  0  0  0  0  0  0  0
  186.0690  178.1100  144.0020 C   0  0  0  0  0  0  0  0  0  0  0  0
  182.4030  178.8350  144.0080 N   0  0  0  0  0  1  0  0  0  0  0  0
  185.3390  178.7580  146.2050 C   0  0  0  0  0  0  0  0  0  0  0  0
  186.3590  178.3590  145.3430 C   0  0  0  0  0  3  0  0  0  0  0  0
  184.7470  178.2590  143.5340 C   0  0  0  0  0  0  0  0  0  0  0  0
  184.3990  177.9770  142.1030 C   0  0  0  0  0  2  0  0  0  0  0  0
  184.7520  179.1650  141.2270 C   0  0  0  0  0  2  0  0  0  0  0  0
  183.7520  180.2690  139.1740 O   0  0  0  0  0  0  0  0  0  0  0  0
  183.6550  179.3990  140.2490 C   0  0  0  0  0  0  0  0  0  0  0  0
  181.7390  179.2540  139.2360 N   0  0  0  0  0  2  0  0  0  0  0  0
  182.5170  178.8050  140.3080 N   0  0  0  0  0  0  0  0  0  0  0  0
  182.5250  180.2080  138.4620 C   0  0  1  0  0  3  0  0  0  0  0  0
  181.8550  181.5700  138.4790 C   0  0  0  0  0  2  0  0  0  0  0  0
  181.0850  181.7320  137.3280 O   0  0  0  0  0  1  0  0  0  0  0  0
  187.9730  176.5560  143.6970 C   0  0  0  0  0  2  0  0  0  0  0  0
  191.5150  176.8550  142.4150 C   0  0  0  0  0  2  0  0  0  0  0  0
  191.9530  177.6190  143.6660 C   0  0  0  0  0  2  0  0  0  0  0  0
  189.5220  178.3310  143.9460 C   0  0  0  0  0  2  0  0  0  0  0  0
  189.3890  176.8910  143.7080 N   0  0  0  0  0  0  0  0  0  0  0  0
  190.9930  178.7720  143.9640 C   0  0  0  0  0  2  0  0  0  0  0  0
  190.0150  176.5190  142.4250 C   0  0  1  0  0  3  0  0  0  0  0  0
  189.2090  177.3060  140.9790 S   0  0  0  0  0  0  0  0  0  0  0  0
  190.7210  177.1800  139.9840 C   0  0  0  0  0  2  0  0  0  0  0  0
  190.4600  176.3000  138.7790 C   0  0  0  0  0  2  0  0  0  0  0  0
  190.3970  177.1460  137.5180 C   0  0  0  0  0  2  0  0  0  0  0  0
  188.6320  175.6220  137.3470 C   0  0  0  0  0  1  0  0  0  0  0  0
  189.1990  176.8250  136.7590 N   0  0  0  0  0  0  0  0  0  0  0  0
  188.8810  179.5610  137.3390 O   0  0  0  0  0  1  0  0  0  0  0  0
  188.0470  178.1260  137.0130 P   0  0  0  0  0  0  0  0  0  0  0  0
  187.1360  177.8040  138.1770 O   0  0  0  0  0  1  0  0  0  0  0  0
  187.1160  178.3330  135.6160 O   0  0  0  0  0  0  0  0  0  0  0  0
  1 19  1  0  0  0  0
  1  5  1  0  0  0  0
  3  7  1  0  0  0  0
  4  3  2  0  0  0  0
  5  8  1  0  0  0  0
  6  4  1  0  0  0  0
  7  2  1  0  0  0  0
  8  7  2  0  0  0  0
  9  5  2  0  0  0  0
  9  4  1  0  0  0  0
 10  9  1  0  0  0  0
 11 10  1  0  0  0  0
 12 13  1  0  0  0  0
 13 15  2  0  0  0  0
 13 11  1  0  0  0  0
 14 15  1  0  0  0  0
 16 17  1  1  0  0  0
 16 12  1  0  0  0  0
 16 14  1  0  0  0  0
 18 17  1  0  0  0  0
 19 23  1  0  0  0  0
 20 25  1  0  0  0  0
 20 21  1  0  0  0  0
 21 24  1  0  0  0  0
 22 24  1  0  0  0  0
 23 22  1  0  0  0  0
 25 26  1  6  0  0  0
 25 23  1  0  0  0  0
 27 26  1  0  0  0  0
 28 27  1  0  0  0  0
 29 28  1  0  0  0  0
 31 33  1  0  0  0  0
 31 30  1  0  0  0  0
 31 29  1  0  0  0  0
 33 32  1  0  0  0  0
 33 34  1  0  0  0  0
 35 33  2  0  0  0  0
M  END
>  <MODEL>
5

>  <REMARK>
 VINA RESULT:      -7.1      1.698      1.991
  Name = 
  13 active torsions:
  status: ('A' for Active; 'I' for Inactive)
    1  A    between atoms: C_2  and  C_12
    2  A    between atoms: C_2  and  C_22
    3  A    between atoms: S_6  and  C_22
    4  A    between atoms: S_6  and  C_28
    5  A    between atoms: C_9  and  C_34
    6  A    between atoms: C_10  and  N_23
    7  A    between atoms: C_10  and  C_35
    8  A    between atoms: C_12  and  N_21
    9  A    between atoms: C_13  and  C_14
   10  A    between atoms: C_14  and  C_17
   11  A    between atoms: P_15  and  N_21
   12  A    between atoms: C_17  and  C_32
   13  A    between atoms: C_20  and  C_35
                            x       y       z     vdW  Elec       q    Type
                         _______ _______ _______ _____ _____    ______ ____

>  <TORSDO>
F 13

$$$$
=
 OpenBabel10232410473D

 35 37  0  0  1  0  0  0  0  0999 V2000
  188.1540  177.8830  141.5780 C   0  0  0  0  0  2  0  0  0  0  0  0
  191.9370  178.6470  144.5410 F   0  0  0  0  0  0  0  0  0  0  0  0
  189.8660  178.0500  145.4760 N   0  0  0  0  0  0  0  0  0  0  0  0
  188.5520  177.7160  145.3640 C   0  0  0  0  0  0  0  0  0  0  0  0
  188.7330  177.9210  142.9560 C   0  0  0  0  0  0  0  0  0  0  0  0
  187.7990  177.4410  146.5430 N   0  0  0  0  0  1  0  0  0  0  0  0
  190.6320  178.3200  144.3860 C   0  0  0  0  0  0  0  0  0  0  0  0
  190.0780  178.2600  143.1080 C   0  0  0  0  0  3  0  0  0  0  0  0
  187.9510  177.6380  144.0950 C   0  0  0  0  0  0  0  0  0  0  0  0
  186.5090  177.2490  143.9640 C   0  0  0  0  0  2  0  0  0  0  0  0
  185.6130  178.4570  144.1710 C   0  0  0  0  0  2  0  0  0  0  0  0
  184.7220  178.0250  141.8350 O   0  0  0  0  0  0  0  0  0  0  0  0
  184.5400  178.4560  143.1400 C   0  0  0  0  0  0  0  0  0  0  0  0
  182.6020  178.7040  142.1910 N   0  0  0  0  0  2  0  0  0  0  0  0
  183.3380  178.8480  143.3710 N   0  0  0  0  0  0  0  0  0  0  0  0
  183.4780  178.1530  141.1640 C   0  0  1  0  0  3  0  0  0  0  0  0
  183.6150  179.1340  140.0140 C   0  0  0  0  0  2  0  0  0  0  0  0
  184.8900  179.6980  140.0240 O   0  0  0  0  0  1  0  0  0  0  0  0
  189.2570  177.7640  140.5410 C   0  0  0  0  0  2  0  0  0  0  0  0
  189.2440  178.3820  136.8140 C   0  0  0  0  0  2  0  0  0  0  0  0
  187.8170  178.9300  136.8620 C   0  0  0  0  0  2  0  0  0  0  0  0
  187.4830  177.5610  138.9860 C   0  0  0  0  0  2  0  0  0  0  0  0
  188.7650  178.2200  139.2500 N   0  0  0  0  0  0  0  0  0  0  0  0
  186.8950  177.9820  137.6300 C   0  0  0  0  0  2  0  0  0  0  0  0
  189.7380  177.9020  138.1880 C   0  0  1  0  0  3  0  0  0  0  0  0
  190.1420  176.1170  138.0950 S   0  0  0  0  0  0  0  0  0  0  0  0
  190.6620  176.2560  136.3630 C   0  0  0  0  0  2  0  0  0  0  0  0
  192.0480  175.6660  136.2030 C   0  0  0  0  0  2  0  0  0  0  0  0
  192.5650  175.1750  137.5450 C   0  0  0  0  0  2  0  0  0  0  0  0
  193.3820  173.6750  135.9480 C   0  0  0  0  0  1  0  0  0  0  0  0
  193.2770  173.9180  137.3770 N   0  0  0  0  0  0  0  0  0  0  0  0
  194.9530  175.5300  138.9630 O   0  0  0  0  0  1  0  0  0  0  0  0
  194.9060  174.1450  137.9930 P   0  0  0  0  0  0  0  0  0  0  0  0
  195.8830  174.3060  136.8490 O   0  0  0  0  0  0  0  0  0  0  0  0
  195.3480  172.8040  138.9220 O   0  0  0  0  0  1  0  0  0  0  0  0
  1  5  1  0  0  0  0
  4  3  1  0  0  0  0
  4  6  1  0  0  0  0
  5  8  2  0  0  0  0
  5  9  1  0  0  0  0
  7  2  1  0  0  0  0
  7  3  2  0  0  0  0
  8  7  1  0  0  0  0
  9  4  2  0  0  0  0
 10  9  1  0  0  0  0
 10 11  1  0  0  0  0
 12 13  1  0  0  0  0
 13 15  2  0  0  0  0
 13 11  1  0  0  0  0
 14 15  1  0  0  0  0
 16 17  1  6  0  0  0
 16 12  1  0  0  0  0
 16 14  1  0  0  0  0
 17 18  1  0  0  0  0
 19  1  1  0  0  0  0
 20 21  1  0  0  0  0
 20 25  1  0  0  0  0
 21 24  1  0  0  0  0
 22 23  1  0  0  0  0
 23 19  1  0  0  0  0
 24 22  1  0  0  0  0
 25 26  1  6  0  0  0
 25 23  1  0  0  0  0
 27 26  1  0  0  0  0
 28 27  1  0  0  0  0
 28 29  1  0  0  0  0
 30 31  1  0  0  0  0
 31 29  1  0  0  0  0
 31 33  1  0  0  0  0
 33 35  1  0  0  0  0
 33 32  1  0  0  0  0
 34 33  2  0  0  0  0
M  END
>  <MODEL>
6

>  <REMARK>
 VINA RESULT:      -7.1      3.876      5.736
  Name = 
  13 active torsions:
  status: ('A' for Active; 'I' for Inactive)
    1  A    between atoms: C_2  and  C_12
    2  A    between atoms: C_2  and  C_22
    3  A    between atoms: S_6  and  C_22
    4  A    between atoms: S_6  and  C_28
    5  A    between atoms: C_9  and  C_34
    6  A    between atoms: C_10  and  N_23
    7  A    between atoms: C_10  and  C_35
    8  A    between atoms: C_12  and  N_21
    9  A    between atoms: C_13  and  C_14
   10  A    between atoms: C_14  and  C_17
   11  A    between atoms: P_15  and  N_21
   12  A    between atoms: C_17  and  C_32
   13  A    between atoms: C_20  and  C_35
                            x       y       z     vdW  Elec       q    Type
                         _______ _______ _______ _____ _____    ______ ____

>  <TORSDO>
F 13

$$$$
=
 OpenBabel10232410473D

 35 37  0  0  1  0  0  0  0  0999 V2000
  187.2110  178.5240  142.8740 C   0  0  0  0  0  2  0  0  0  0  0  0
  182.8310  178.2210  140.7760 F   0  0  0  0  0  0  0  0  0  0  0  0
  182.9570  178.6100  143.0900 N   0  0  0  0  0  0  0  0  0  0  0  0
  183.6630  178.8010  144.2370 C   0  0  0  0  0  0  0  0  0  0  0  0
  185.7200  178.5730  142.9760 C   0  0  0  0  0  0  0  0  0  0  0  0
  182.9640  179.0160  145.4600 N   0  0  0  0  0  1  0  0  0  0  0  0
  183.5720  178.4040  141.8950 C   0  0  0  0  0  0  0  0  0  0  0  0
  184.9640  178.3820  141.8190 C   0  0  0  0  0  3  0  0  0  0  0  0
  185.0690  178.7920  144.2070 C   0  0  0  0  0  0  0  0  0  0  0  0
  185.8540  179.0220  145.4640 C   0  0  0  0  0  2  0  0  0  0  0  0
  186.0990  177.7100  146.1850 C   0  0  0  0  0  2  0  0  0  0  0  0
  188.6320  177.7290  146.3100 O   0  0  0  0  0  0  0  0  0  0  0  0
  187.3890  177.7860  146.9220 C   0  0  0  0  0  0  0  0  0  0  0  0
  188.8220  177.9650  148.5450 N   0  0  0  0  0  2  0  0  0  0  0  0
  187.4680  177.9210  148.1970 N   0  0  0  0  0  0  0  0  0  0  0  0
  189.6150  177.8540  147.3270 C   0  0  1  0  0  3  0  0  0  0  0  0
  190.4670  176.5990  147.3710 C   0  0  0  0  0  2  0  0  0  0  0  0
  191.8040  176.9410  147.5630 O   0  0  0  0  0  1  0  0  0  0  0  0
  187.6990  177.0860  142.8970 C   0  0  0  0  0  2  0  0  0  0  0  0
  191.3870  176.3400  142.5500 C   0  0  0  0  0  2  0  0  0  0  0  0
  191.7110  177.1080  143.8320 C   0  0  0  0  0  2  0  0  0  0  0  0
  189.5680  178.4330  143.4470 C   0  0  0  0  0  2  0  0  0  0  0  0
  189.1100  177.0550  143.2530 N   0  0  0  0  0  0  0  0  0  0  0  0
  191.0580  178.4910  143.8180 C   0  0  0  0  0  2  0  0  0  0  0  0
  189.8930  176.3930  142.1920 C   0  0  1  0  0  3  0  0  0  0  0  0
  189.6920  177.1850  140.5520 S   0  0  0  0  0  0  0  0  0  0  0  0
  191.4830  177.1960  140.2630 C   0  0  0  0  0  2  0  0  0  0  0  0
  191.7650  176.8010  138.8280 C   0  0  0  0  0  2  0  0  0  0  0  0
  190.5550  176.1010  138.2320 C   0  0  0  0  0  2  0  0  0  0  0  0
  190.2000  175.1600  136.1210 C   0  0  0  0  0  1  0  0  0  0  0  0
  190.4440  176.4130  136.8150 N   0  0  0  0  0  0  0  0  0  0  0  0
  187.7030  176.7000  137.3930 O   0  0  0  0  0  1  0  0  0  0  0  0
  189.0180  177.4170  136.6060 P   0  0  0  0  0  0  0  0  0  0  0  0
  188.6940  177.5710  135.1360 O   0  0  0  0  0  0  0  0  0  0  0  0
  189.3000  178.9420  137.2780 O   0  0  0  0  0  1  0  0  0  0  0  0
  1 19  1  0  0  0  0
  1  5  1  0  0  0  0
  2  7  1  0  0  0  0
  3  4  1  0  0  0  0
  4  6  1  0  0  0  0
  5  9  1  0  0  0  0
  7  3  2  0  0  0  0
  8  7  1  0  0  0  0
  8  5  2  0  0  0  0
  9  4  2  0  0  0  0
  9 10  1  0  0  0  0
 10 11  1  0  0  0  0
 11 13  1  0  0  0  0
 12 13  1  0  0  0  0
 12 16  1  0  0  0  0
 13 15  2  0  0  0  0
 15 14  1  0  0  0  0
 16 17  1  1  0  0  0
 16 14  1  0  0  0  0
 17 18  1  0  0  0  0
 19 23  1  0  0  0  0
 20 21  1  0  0  0  0
 22 24  1  0  0  0  0
 23 22  1  0  0  0  0
 24 21  1  0  0  0  0
 25 26  1  6  0  0  0
 25 20  1  0  0  0  0
 25 23  1  0  0  0  0
 27 26  1  0  0  0  0
 28 27  1  0  0  0  0
 29 28  1  0  0  0  0
 30 31  1  0  0  0  0
 31 29  1  0  0  0  0
 33 31  1  0  0  0  0
 33 35  1  0  0  0  0
 33 32  1  0  0  0  0
 34 33  2  0  0  0  0
M  END
>  <MODEL>
7

>  <REMARK>
 VINA RESULT:      -7.0      3.319      5.525
  Name = 
  13 active torsions:
  status: ('A' for Active; 'I' for Inactive)
    1  A    between atoms: C_2  and  C_12
    2  A    between atoms: C_2  and  C_22
    3  A    between atoms: S_6  and  C_22
    4  A    between atoms: S_6  and  C_28
    5  A    between atoms: C_9  and  C_34
    6  A    between atoms: C_10  and  N_23
    7  A    between atoms: C_10  and  C_35
    8  A    between atoms: C_12  and  N_21
    9  A    between atoms: C_13  and  C_14
   10  A    between atoms: C_14  and  C_17
   11  A    between atoms: P_15  and  N_21
   12  A    between atoms: C_17  and  C_32
   13  A    between atoms: C_20  and  C_35
                            x       y       z     vdW  Elec       q    Type
                         _______ _______ _______ _____ _____    ______ ____

>  <TORSDO>
F 13

$$$$
=
 OpenBabel10232410473D

 35 37  0  0  1  0  0  0  0  0999 V2000
  188.6910  176.6620  142.5180 C   0  0  0  0  0  2  0  0  0  0  0  0
  191.9790  177.2420  146.0570 F   0  0  0  0  0  0  0  0  0  0  0  0
  189.6990  177.4700  146.5770 N   0  0  0  0  0  0  0  0  0  0  0  0
  188.3840  177.4600  146.2310 C   0  0  0  0  0  0  0  0  0  0  0  0
  189.0160  176.9350  143.9510 C   0  0  0  0  0  0  0  0  0  0  0  0
  187.3980  177.7220  147.2260 N   0  0  0  0  0  1  0  0  0  0  0  0
  190.6810  177.2240  145.6700 C   0  0  0  0  0  0  0  0  0  0  0  0
  190.3550  176.9520  144.3410 C   0  0  0  0  0  3  0  0  0  0  0  0
  188.0070  177.1860  144.9040 C   0  0  0  0  0  0  0  0  0  0  0  0
  186.5580  177.1520  144.5200 C   0  0  0  0  0  2  0  0  0  0  0  0
  185.9650  178.5480  144.5640 C   0  0  0  0  0  2  0  0  0  0  0  0
  184.8790  178.0540  142.3250 O   0  0  0  0  0  0  0  0  0  0  0  0
  184.8520  178.6400  143.5810 C   0  0  0  0  0  0  0  0  0  0  0  0
  182.9370  179.1430  142.6860 N   0  0  0  0  0  2  0  0  0  0  0  0
  183.7540  179.2670  143.8140 N   0  0  0  0  0  0  0  0  0  0  0  0
  183.6400  178.3390  141.6920 C   0  0  1  0  0  3  0  0  0  0  0  0
  183.8840  179.1580  140.4380 C   0  0  0  0  0  2  0  0  0  0  0  0
  185.2250  179.5330  140.3720 O   0  0  0  0  0  1  0  0  0  0  0  0
  189.3940  177.6590  141.6130 C   0  0  0  0  0  2  0  0  0  0  0  0
  189.9440  176.3150  138.1250 C   0  0  0  0  0  2  0  0  0  0  0  0
  191.3240  175.7730  138.5020 C   0  0  0  0  0  2  0  0  0  0  0  0
  191.3900  177.5320  140.3440 C   0  0  0  0  0  2  0  0  0  0  0  0
  190.0560  176.9520  140.5280 N   0  0  0  0  0  0  0  0  0  0  0  0
  192.1580  176.8450  139.2050 C   0  0  0  0  0  2  0  0  0  0  0  0
  189.2680  177.0630  139.2860 C   0  0  1  0  0  3  0  0  0  0  0  0
  188.9570  178.7980  138.7870 S   0  0  0  0  0  0  0  0  0  0  0  0
  188.9630  178.3640  137.0250 C   0  0  0  0  0  2  0  0  0  0  0  0
  187.5720  178.5470  136.4550 C   0  0  0  0  0  2  0  0  0  0  0  0
  186.9880  177.2010  136.0590 C   0  0  0  0  0  2  0  0  0  0  0  0
  185.0510  177.3720  137.3580 C   0  0  0  0  0  1  0  0  0  0  0  0
  186.2780  176.6130  137.1840 N   0  0  0  0  0  0  0  0  0  0  0  0
  184.2440  174.6670  137.2450 O   0  0  0  0  0  1  0  0  0  0  0  0
  185.8240  174.9790  136.7280 P   0  0  0  0  0  0  0  0  0  0  0  0
  186.7620  173.9750  137.3630 O   0  0  0  0  0  1  0  0  0  0  0  0
  185.8960  174.8240  135.0460 O   0  0  0  0  0  0  0  0  0  0  0  0
  1  5  1  0  0  0  0
  4  3  1  0  0  0  0
  4  6  1  0  0  0  0
  5  8  2  0  0  0  0
  5  9  1  0  0  0  0
  7  2  1  0  0  0  0
  7  3  2  0  0  0  0
  8  7  1  0  0  0  0
  9  4  2  0  0  0  0
 10 11  1  0  0  0  0
 10  9  1  0  0  0  0
 12 13  1  0  0  0  0
 13 15  2  0  0  0  0
 13 11  1  0  0  0  0
 14 15  1  0  0  0  0
 16 17  1  6  0  0  0
 16 12  1  0  0  0  0
 16 14  1  0  0  0  0
 18 17  1  0  0  0  0
 19  1  1  0  0  0  0
 20 21  1  0  0  0  0
 20 25  1  0  0  0  0
 21 24  1  0  0  0  0
 22 23  1  0  0  0  0
 23 19  1  0  0  0  0
 24 22  1  0  0  0  0
 25 26  1  6  0  0  0
 25 23  1  0  0  0  0
 27 26  1  0  0  0  0
 28 27  1  0  0  0  0
 29 28  1  0  0  0  0
 29 31  1  0  0  0  0
 31 30  1  0  0  0  0
 33 31  1  0  0  0  0
 33 32  1  0  0  0  0
 33 34  1  0  0  0  0
 35 33  2  0  0  0  0
M  END
>  <MODEL>
8

>  <REMARK>
 VINA RESULT:      -7.0      2.411      4.195
  Name = 
  13 active torsions:
  status: ('A' for Active; 'I' for Inactive)
    1  A    between atoms: C_2  and  C_12
    2  A    between atoms: C_2  and  C_22
    3  A    between atoms: S_6  and  C_22
    4  A    between atoms: S_6  and  C_28
    5  A    between atoms: C_9  and  C_34
    6  A    between atoms: C_10  and  N_23
    7  A    between atoms: C_10  and  C_35
    8  A    between atoms: C_12  and  N_21
    9  A    between atoms: C_13  and  C_14
   10  A    between atoms: C_14  and  C_17
   11  A    between atoms: P_15  and  N_21
   12  A    between atoms: C_17  and  C_32
   13  A    between atoms: C_20  and  C_35
                            x       y       z     vdW  Elec       q    Type
                         _______ _______ _______ _____ _____    ______ ____

>  <TORSDO>
F 13

$$$$
=
 OpenBabel10232410473D

 35 37  0  0  1  0  0  0  0  0999 V2000
  190.6480  176.9190  140.0300 C   0  0  0  0  0  2  0  0  0  0  0  0
  187.7410  179.2840  136.9260 F   0  0  0  0  0  0  0  0  0  0  0  0
  189.2310  177.6740  136.0840 N   0  0  0  0  0  0  0  0  0  0  0  0
  190.2000  176.7340  136.2510 C   0  0  0  0  0  0  0  0  0  0  0  0
  190.1590  177.1540  138.6370 C   0  0  0  0  0  0  0  0  0  0  0  0
  190.7080  176.0460  135.1110 N   0  0  0  0  0  1  0  0  0  0  0  0
  188.7080  178.3580  137.1360 C   0  0  0  0  0  0  0  0  0  0  0  0
  189.1640  178.1100  138.4300 C   0  0  0  0  0  3  0  0  0  0  0  0
  190.6880  176.4460  137.5380 C   0  0  0  0  0  0  0  0  0  0  0  0
  191.7420  175.3980  137.7310 C   0  0  0  0  0  2  0  0  0  0  0  0
  193.1250  176.0190  137.6780 C   0  0  0  0  0  2  0  0  0  0  0  0
  195.3230  175.2580  138.6890 O   0  0  0  0  0  0  0  0  0  0  0  0
  194.1420  174.9870  138.0150 C   0  0  0  0  0  0  0  0  0  0  0  0
  195.1410  173.0660  138.1910 N   0  0  0  0  0  2  0  0  0  0  0  0
  194.0120  173.7440  137.7200 N   0  0  0  0  0  0  0  0  0  0  0  0
  196.0190  174.0300  138.8450 C   0  0  1  0  0  3  0  0  0  0  0  0
  197.3500  174.1000  138.1190 C   0  0  0  0  0  2  0  0  0  0  0  0
  197.8190  175.4130  138.1180 O   0  0  0  0  0  1  0  0  0  0  0  0
  189.5930  177.3350  141.0410 C   0  0  0  0  0  2  0  0  0  0  0  0
  189.8360  178.1170  144.7300 C   0  0  0  0  0  2  0  0  0  0  0  0
  191.2740  177.6010  144.7930 C   0  0  0  0  0  2  0  0  0  0  0  0
  190.7300  176.1650  142.7590 C   0  0  0  0  0  2  0  0  0  0  0  0
  190.2040  177.4720  142.3550 N   0  0  0  0  0  0  0  0  0  0  0  0
  191.3860  176.2200  144.1470 C   0  0  0  0  0  2  0  0  0  0  0  0
  189.2120  177.9560  143.3340 C   0  0  1  0  0  3  0  0  0  0  0  0
  187.7360  176.8760  143.4530 S   0  0  0  0  0  0  0  0  0  0  0  0
  187.1460  177.7310  144.9410 C   0  0  0  0  0  2  0  0  0  0  0  0
  185.7470  178.2590  144.6990 C   0  0  0  0  0  2  0  0  0  0  0  0
  185.4650  178.3260  143.2080 C   0  0  0  0  0  2  0  0  0  0  0  0
  183.3290  179.0880  143.7780 C   0  0  0  0  0  1  0  0  0  0  0  0
  184.0460  178.1270  142.9570 N   0  0  0  0  0  0  0  0  0  0  0  0
  184.9820  179.5380  140.7090 O   0  0  0  0  0  1  0  0  0  0  0  0
  183.7420  178.5390  141.2780 P   0  0  0  0  0  0  0  0  0  0  0  0
  182.4200  179.2620  141.1440 O   0  0  0  0  0  1  0  0  0  0  0  0
  183.7020  177.1260  140.3500 O   0  0  0  0  0  0  0  0  0  0  0  0
  1 19  1  0  0  0  0
  2  7  1  0  0  0  0
  3  4  2  0  0  0  0
  3  7  1  0  0  0  0
  4  9  1  0  0  0  0
  5  1  1  0  0  0  0
  6  4  1  0  0  0  0
  7  8  2  0  0  0  0
  8  5  1  0  0  0  0
  9 10  1  0  0  0  0
  9  5  2  0  0  0  0
 11 10  1  0  0  0  0
 11 13  1  0  0  0  0
 12 16  1  0  0  0  0
 13 12  1  0  0  0  0
 14 16  1  0  0  0  0
 15 13  2  0  0  0  0
 15 14  1  0  0  0  0
 16 17  1  6  0  0  0
 18 17  1  0  0  0  0
 19 23  1  0  0  0  0
 20 21  1  0  0  0  0
 22 24  1  0  0  0  0
 23 22  1  0  0  0  0
 23 25  1  0  0  0  0
 24 21  1  0  0  0  0
 25 26  1  1  0  0  0
 25 20  1  0  0  0  0
 26 27  1  0  0  0  0
 28 27  1  0  0  0  0
 29 28  1  0  0  0  0
 31 29  1  0  0  0  0
 31 30  1  0  0  0  0
 32 33  1  0  0  0  0
 33 31  1  0  0  0  0
 34 33  1  0  0  0  0
 35 33  2  0  0  0  0
M  END
>  <MODEL>
9

>  <REMARK>
 VINA RESULT:      -6.9      4.449      8.700
  Name = 
  13 active torsions:
  status: ('A' for Active; 'I' for Inactive)
    1  A    between atoms: C_2  and  C_12
    2  A    between atoms: C_2  and  C_22
    3  A    between atoms: S_6  and  C_22
    4  A    between atoms: S_6  and  C_28
    5  A    between atoms: C_9  and  C_34
    6  A    between atoms: C_10  and  N_23
    7  A    between atoms: C_10  and  C_35
    8  A    between atoms: C_12  and  N_21
    9  A    between atoms: C_13  and  C_14
   10  A    between atoms: C_14  and  C_17
   11  A    between atoms: P_15  and  N_21
   12  A    between atoms: C_17  and  C_32
   13  A    between atoms: C_20  and  C_35
                            x       y       z     vdW  Elec       q    Type
                         _______ _______ _______ _____ _____    ______ ____

>  <TORSDO>
F 13

$$$$
