=
 OpenBabel10232412013D

 41 44  0  0  1  0  0  0  0  0999 V2000
  190.8830  177.4680  141.9360 C   0  0  0  0  0  0  0  0  0  0  0  0
  190.4220  177.3840  139.5080 C   0  0  0  0  0  3  0  0  0  0  0  0
  189.6380  177.9330  142.4070 C   0  0  0  0  0  0  0  0  0  0  0  0
  189.3180  177.7730  143.7550 C   0  0  0  0  0  3  0  0  0  0  0  0
  191.7620  176.9070  142.8100 N   0  0  0  0  0  0  0  0  0  0  0  0
  190.2190  177.1530  144.6230 C   0  0  0  0  0  0  0  0  0  0  0  0
  191.2700  177.5950  140.5190 C   0  0  0  0  0  3  0  0  0  0  0  0
  188.0900  177.9230  140.3870 C   0  0  2  0  0  3  0  0  0  0  0  0
  188.7210  178.7300  141.5270 C   0  0  0  0  0  2  0  0  0  0  0  0
  191.4630  176.7430  144.1250 C   0  0  0  0  0  3  0  0  0  0  0  0
  189.0180  176.8950  139.7230 C   0  0  0  0  0  2  0  0  0  0  0  0
  189.8670  177.0250  146.0810 C   0  0  1  0  0  3  0  0  0  0  0  0
  190.9770  176.5780  146.9460 C   0  0  0  0  0  0  0  0  0  0  0  0
  191.8810  176.2110  147.6550 C   0  0  0  0  0  3  0  0  0  0  0  0
  189.1580  178.1350  146.5980 O   0  0  0  0  0  0  0  0  0  0  0  0
  188.0990  177.6800  147.4040 C   0  0  0  0  0  2  0  0  0  0  0  0
  186.8770  177.3920  146.5440 C   0  0  0  0  0  2  0  0  0  0  0  0
  185.9740  178.6140  146.4370 C   0  0  0  0  0  2  0  0  0  0  0  0
  185.8420  178.2210  143.9640 C   0  0  0  0  0  3  0  0  0  0  0  0
  185.1330  178.2320  142.7570 C   0  0  0  0  0  3  0  0  0  0  0  0
  183.8760  179.0320  145.1270 C   0  0  0  0  0  3  0  0  0  0  0  0
  183.7950  178.6440  142.7350 C   0  0  0  0  0  3  0  0  0  0  0  0
  183.1670  179.0450  143.9210 C   0  0  0  0  0  3  0  0  0  0  0  0
  185.2140  178.6170  145.1520 C   0  0  0  0  0  0  0  0  0  0  0  0
  187.5940  178.8040  139.4220 O   0  0  0  0  0  0  0  0  0  0  0  0
  186.6590  178.0640  138.6850 C   0  0  1  0  0  3  0  0  0  0  0  0
  185.0540  179.6940  139.4040 O   0  0  0  0  0  1  0  0  0  0  0  0
  185.2410  178.3240  139.1990 C   0  0  1  0  0  3  0  0  0  0  0  0
  184.2070  177.8160  138.2040 C   0  0  0  0  0  2  0  0  0  0  0  0
  182.8990  177.4800  138.9040 C   0  0  0  0  0  2  0  0  0  0  0  0
  182.8380  175.9970  139.2250 C   0  0  0  0  0  2  0  0  0  0  0  0
  182.9460  175.1770  137.9530 C   0  0  0  0  0  2  0  0  0  0  0  0
  184.0890  174.3760  137.9970 O   0  0  0  0  0  1  0  0  0  0  0  0
  186.7840  178.3870  137.1900 C   0  0  0  0  0  2  0  0  0  0  0  0
  188.7370  177.5520  135.8490 C   0  0  0  0  0  3  0  0  0  0  0  0
  189.3990  176.5340  135.1550 C   0  0  0  0  0  0  0  0  0  0  0  0
  186.8960  176.0440  136.3030 C   0  0  0  0  0  3  0  0  0  0  0  0
  190.6420  176.7750  134.5890 O   0  0  0  0  0  1  0  0  0  0  0  0
  187.5570  175.0270  135.6080 C   0  0  0  0  0  3  0  0  0  0  0  0
  187.4830  177.3090  136.4220 C   0  0  0  0  0  0  0  0  0  0  0  0
  188.8090  175.2720  135.0350 C   0  0  0  0  0  3  0  0  0  0  0  0
  1  3  2  0  0  0  0
  1  5  1  0  0  0  0
  2 11  1  0  0  0  0
  2  7  2  0  0  0  0
  3  4  1  0  0  0  0
  4  6  2  0  0  0  0
  5 10  2  0  0  0  0
  6 12  1  0  0  0  0
  7  1  1  0  0  0  0
  8 25  1  6  0  0  0
  8  9  1  0  0  0  0
  9  3  1  0  0  0  0
 10  6  1  0  0  0  0
 11  8  1  0  0  0  0
 12 15  1  0  0  0  0
 12 13  1  1  0  0  0
 13 14  3  0  0  0  0
 15 16  1  0  0  0  0
 17 16  1  0  0  0  0
 18 17  1  0  0  0  0
 19 24  1  0  0  0  0
 20 19  2  0  0  0  0
 21 24  2  0  0  0  0
 22 20  1  0  0  0  0
 22 23  2  0  0  0  0
 23 21  1  0  0  0  0
 24 18  1  0  0  0  0
 26 34  1  6  0  0  0
 26 28  1  0  0  0  0
 26 25  1  0  0  0  0
 28 27  1  6  0  0  0
 29 30  1  0  0  0  0
 29 28  1  0  0  0  0
 30 31  1  0  0  0  0
 32 33  1  0  0  0  0
 32 31  1  0  0  0  0
 35 40  1  0  0  0  0
 36 35  2  0  0  0  0
 37 40  2  0  0  0  0
 38 36  1  0  0  0  0
 39 37  1  0  0  0  0
 40 34  1  0  0  0  0
 41 36  1  0  0  0  0
 41 39  2  0  0  0  0
M  END
>  <MODEL>
1

>  <REMARK>
 VINA RESULT:      -8.2      0.000      0.000
  Name = 
  16 active torsions:
  status: ('A' for Active; 'I' for Inactive)
    1  A    between atoms: C_5  and  C_28
    2  A    between atoms: C_5  and  C_35
    3  A    between atoms: C_7  and  C_11
    4  A    between atoms: C_7  and  C_37
    5  A    between atoms: O_9  and  C_11
    6  A    between atoms: O_9  and  C_31
    7  A    between atoms: C_10  and  O_12
    8  A    between atoms: C_10  and  C_28
    9  A    between atoms: C_11  and  C_39
   10  A    between atoms: O_12  and  C_23
   11  A    between atoms: C_15  and  C_17
   12  A    between atoms: C_15  and  C_39
   13  A    between atoms: C_17  and  C_30
   14  A    between atoms: C_21  and  C_23
   15  A    between atoms: C_23  and  C_26
   16  A    between atoms: C_29  and  C_30
                            x       y       z     vdW  Elec       q    Type
                         _______ _______ _______ _____ _____    ______ ____

>  <TORSDO>
F 16

$$$$
=
 OpenBabel10232412013D

 41 44  0  0  1  0  0  0  0  0999 V2000
  190.3550  176.8840  141.7440 C   0  0  0  0  0  0  0  0  0  0  0  0
  190.4220  176.7820  144.2150 C   0  0  0  0  0  3  0  0  0  0  0  0
  188.9930  177.1910  141.5480 C   0  0  0  0  0  0  0  0  0  0  0  0
  188.5840  177.7120  140.3200 C   0  0  0  0  0  3  0  0  0  0  0  0
  191.2370  177.0660  140.7250 N   0  0  0  0  0  0  0  0  0  0  0  0
  189.5160  177.9330  139.3040 C   0  0  0  0  0  0  0  0  0  0  0  0
  190.8490  176.3460  143.0260 C   0  0  0  0  0  3  0  0  0  0  0  0
  188.0450  177.6390  143.8670 C   0  0  2  0  0  3  0  0  0  0  0  0
  187.9580  176.8270  142.5700 C   0  0  0  0  0  2  0  0  0  0  0  0
  190.8520  177.5750  139.5240 C   0  0  0  0  0  3  0  0  0  0  0  0
  189.4710  177.9350  144.3550 C   0  0  0  0  0  2  0  0  0  0  0  0
  189.0440  178.4610  137.9750 C   0  0  1  0  0  3  0  0  0  0  0  0
  189.3540  177.5910  136.8220 C   0  0  0  0  0  0  0  0  0  0  0  0
  189.6090  176.8790  135.8830 C   0  0  0  0  0  3  0  0  0  0  0  0
  187.7110  178.9320  137.9870 O   0  0  0  0  0  0  0  0  0  0  0  0
  186.8900  178.0310  137.2830 C   0  0  0  0  0  2  0  0  0  0  0  0
  185.4990  178.0060  137.8980 C   0  0  0  0  0  2  0  0  0  0  0  0
  184.7070  176.7910  137.4300 C   0  0  0  0  0  2  0  0  0  0  0  0
  182.4400  177.8270  137.7080 C   0  0  0  0  0  3  0  0  0  0  0  0
  181.1520  177.8260  138.2540 C   0  0  0  0  0  3  0  0  0  0  0  0
  182.9280  175.7490  138.8570 C   0  0  0  0  0  3  0  0  0  0  0  0
  180.7510  176.7870  139.1020 C   0  0  0  0  0  3  0  0  0  0  0  0
  181.6400  175.7490  139.4040 C   0  0  0  0  0  3  0  0  0  0  0  0
  183.3290  176.7860  138.0050 C   0  0  0  0  0  0  0  0  0  0  0  0
  187.3310  176.9770  144.8700 O   0  0  0  0  0  0  0  0  0  0  0  0
  186.2120  177.7840  145.1260 C   0  0  1  0  0  3  0  0  0  0  0  0
  185.0310  178.5720  147.0590 O   0  0  0  0  0  1  0  0  0  0  0  0
  186.3100  178.4110  146.5180 C   0  0  1  0  0  3  0  0  0  0  0  0
  187.1440  177.5350  147.4440 C   0  0  0  0  0  2  0  0  0  0  0  0
  187.9440  178.3850  148.4200 C   0  0  0  0  0  2  0  0  0  0  0  0
  189.4340  178.2040  148.1780 C   0  0  0  0  0  2  0  0  0  0  0  0
  189.7140  176.8160  147.6350 C   0  0  0  0  0  2  0  0  0  0  0  0
  191.0920  176.5900  147.5910 O   0  0  0  0  0  1  0  0  0  0  0  0
  186.0680  178.8530  144.0360 C   0  0  0  0  0  2  0  0  0  0  0  0
  183.5550  178.8880  143.9940 C   0  0  0  0  0  3  0  0  0  0  0  0
  182.3430  178.8240  143.3000 C   0  0  0  0  0  0  0  0  0  0  0  0
  184.7580  178.5670  141.9160 C   0  0  0  0  0  3  0  0  0  0  0  0
  181.1440  178.9560  143.9860 O   0  0  0  0  0  1  0  0  0  0  0  0
  183.5460  178.5020  141.2230 C   0  0  0  0  0  3  0  0  0  0  0  0
  184.7660  178.7570  143.3020 C   0  0  0  0  0  0  0  0  0  0  0  0
  182.3380  178.6310  141.9160 C   0  0  0  0  0  3  0  0  0  0  0  0
  1  7  1  0  0  0  0
  2 11  1  0  0  0  0
  3  1  1  0  0  0  0
  3  9  1  0  0  0  0
  4  3  2  0  0  0  0
  5  1  2  0  0  0  0
  6 10  2  0  0  0  0
  6  4  1  0  0  0  0
  7  2  2  0  0  0  0
  8 11  1  0  0  0  0
  8 25  1  1  0  0  0
  9  8  1  0  0  0  0
 10  5  1  0  0  0  0
 12 13  1  6  0  0  0
 12 15  1  0  0  0  0
 12  6  1  0  0  0  0
 14 13  3  0  0  0  0
 16 17  1  0  0  0  0
 16 15  1  0  0  0  0
 18 17  1  0  0  0  0
 18 24  1  0  0  0  0
 19 24  2  0  0  0  0
 19 20  1  0  0  0  0
 20 22  2  0  0  0  0
 21 23  2  0  0  0  0
 22 23  1  0  0  0  0
 24 21  1  0  0  0  0
 25 26  1  0  0  0  0
 26 34  1  6  0  0  0
 26 28  1  0  0  0  0
 28 27  1  1  0  0  0
 28 29  1  0  0  0  0
 29 30  1  0  0  0  0
 31 30  1  0  0  0  0
 32 31  1  0  0  0  0
 33 32  1  0  0  0  0
 36 38  1  0  0  0  0
 36 35  2  0  0  0  0
 37 40  2  0  0  0  0
 39 37  1  0  0  0  0
 39 41  2  0  0  0  0
 40 35  1  0  0  0  0
 40 34  1  0  0  0  0
 41 36  1  0  0  0  0
M  END
>  <MODEL>
2

>  <REMARK>
 VINA RESULT:      -7.8      1.833      7.939
  Name = 
  16 active torsions:
  status: ('A' for Active; 'I' for Inactive)
    1  A    between atoms: C_5  and  C_28
    2  A    between atoms: C_5  and  C_35
    3  A    between atoms: C_7  and  C_11
    4  A    between atoms: C_7  and  C_37
    5  A    between atoms: O_9  and  C_11
    6  A    between atoms: O_9  and  C_31
    7  A    between atoms: C_10  and  O_12
    8  A    between atoms: C_10  and  C_28
    9  A    between atoms: C_11  and  C_39
   10  A    between atoms: O_12  and  C_23
   11  A    between atoms: C_15  and  C_17
   12  A    between atoms: C_15  and  C_39
   13  A    between atoms: C_17  and  C_30
   14  A    between atoms: C_21  and  C_23
   15  A    between atoms: C_23  and  C_26
   16  A    between atoms: C_29  and  C_30
                            x       y       z     vdW  Elec       q    Type
                         _______ _______ _______ _____ _____    ______ ____

>  <TORSDO>
F 16

$$$$
=
 OpenBabel10232412013D

 41 44  0  0  1  0  0  0  0  0999 V2000
  190.6590  177.6380  143.5220 C   0  0  0  0  0  0  0  0  0  0  0  0
  191.5580  177.4340  141.2270 C   0  0  0  0  0  3  0  0  0  0  0  0
  189.2930  177.8370  143.2340 C   0  0  0  0  0  0  0  0  0  0  0  0
  188.3490  177.6270  144.2400 C   0  0  0  0  0  3  0  0  0  0  0  0
  191.0340  177.2810  144.7800 N   0  0  0  0  0  0  0  0  0  0  0  0
  188.7560  177.2170  145.5120 C   0  0  0  0  0  0  0  0  0  0  0  0
  191.7000  177.8280  142.4950 C   0  0  0  0  0  3  0  0  0  0  0  0
  189.0570  177.4820  140.7260 C   0  0  2  0  0  3  0  0  0  0  0  0
  188.8490  178.4150  141.9240 C   0  0  0  0  0  2  0  0  0  0  0  0
  190.1250  177.0720  145.7690 C   0  0  0  0  0  3  0  0  0  0  0  0
  190.3570  176.6650  140.7530 C   0  0  0  0  0  2  0  0  0  0  0  0
  187.7220  177.0340  146.5910 C   0  0  1  0  0  3  0  0  0  0  0  0
  188.0570  177.6730  147.8800 C   0  0  0  0  0  0  0  0  0  0  0  0
  188.3320  178.1970  148.9300 C   0  0  0  0  0  3  0  0  0  0  0  0
  186.3970  177.2830  146.1630 O   0  0  0  0  0  0  0  0  0  0  0  0
  185.9270  178.4670  146.7610 C   0  0  0  0  0  2  0  0  0  0  0  0
  185.3280  179.3810  145.7030 C   0  0  0  0  0  2  0  0  0  0  0  0
  183.9430  178.9080  145.2800 C   0  0  0  0  0  2  0  0  0  0  0  0
  185.0150  178.4960  143.0510 C   0  0  0  0  0  3  0  0  0  0  0  0
  184.9350  178.3440  141.6620 C   0  0  0  0  0  3  0  0  0  0  0  0
  182.6160  178.8310  143.1530 C   0  0  0  0  0  3  0  0  0  0  0  0
  183.6950  178.4350  141.0180 C   0  0  0  0  0  3  0  0  0  0  0  0
  182.5360  178.6800  141.7640 C   0  0  0  0  0  3  0  0  0  0  0  0
  183.8560  178.7360  143.7990 C   0  0  0  0  0  0  0  0  0  0  0  0
  188.9950  178.2300  139.5460 O   0  0  0  0  0  0  0  0  0  0  0  0
  188.6800  177.3100  138.5360 C   0  0  1  0  0  3  0  0  0  0  0  0
  186.7620  178.7450  138.4230 O   0  0  0  0  0  1  0  0  0  0  0  0
  187.2200  177.4640  138.1050 C   0  0  1  0  0  3  0  0  0  0  0  0
  187.0750  177.2320  136.6070 C   0  0  0  0  0  2  0  0  0  0  0  0
  185.6110  177.0910  136.2180 C   0  0  0  0  0  2  0  0  0  0  0  0
  184.8910  176.1780  137.1970 C   0  0  0  0  0  2  0  0  0  0  0  0
  184.9050  174.7480  136.6900 C   0  0  0  0  0  2  0  0  0  0  0  0
  184.2110  174.6630  135.4810 O   0  0  0  0  0  1  0  0  0  0  0  0
  189.6380  177.4770  137.3490 C   0  0  0  0  0  2  0  0  0  0  0  0
  190.1530  175.1150  136.6630 C   0  0  0  0  0  3  0  0  0  0  0  0
  191.0510  174.0540  136.5090 C   0  0  0  0  0  0  0  0  0  0  0  0
  191.9260  176.4790  137.5940 C   0  0  0  0  0  3  0  0  0  0  0  0
  190.6190  172.8530  135.9680 O   0  0  0  0  0  1  0  0  0  0  0  0
  192.8230  175.4180  137.4410 C   0  0  0  0  0  3  0  0  0  0  0  0
  190.5890  176.3290  137.2080 C   0  0  0  0  0  0  0  0  0  0  0  0
  192.3850  174.2060  136.8980 C   0  0  0  0  0  3  0  0  0  0  0  0
  1  5  1  0  0  0  0
  2  7  2  0  0  0  0
  3  1  2  0  0  0  0
  3  4  1  0  0  0  0
  4  6  2  0  0  0  0
  5 10  2  0  0  0  0
  6 10  1  0  0  0  0
  6 12  1  0  0  0  0
  7  1  1  0  0  0  0
  8 25  1  6  0  0  0
  8 11  1  0  0  0  0
  8  9  1  0  0  0  0
  9  3  1  0  0  0  0
 11  2  1  0  0  0  0
 12 13  1  1  0  0  0
 13 14  3  0  0  0  0
 15 12  1  0  0  0  0
 15 16  1  0  0  0  0
 17 16  1  0  0  0  0
 18 17  1  0  0  0  0
 19 24  1  0  0  0  0
 20 19  2  0  0  0  0
 21 24  2  0  0  0  0
 22 20  1  0  0  0  0
 22 23  2  0  0  0  0
 23 21  1  0  0  0  0
 24 18  1  0  0  0  0
 26 34  1  6  0  0  0
 26 25  1  0  0  0  0
 28 27  1  6  0  0  0
 28 26  1  0  0  0  0
 29 28  1  0  0  0  0
 30 29  1  0  0  0  0
 30 31  1  0  0  0  0
 32 31  1  0  0  0  0
 33 32  1  0  0  0  0
 35 40  1  0  0  0  0
 36 35  2  0  0  0  0
 36 41  1  0  0  0  0
 38 36  1  0  0  0  0
 39 37  1  0  0  0  0
 40 34  1  0  0  0  0
 40 37  2  0  0  0  0
 41 39  2  0  0  0  0
M  END
>  <MODEL>
3

>  <REMARK>
 VINA RESULT:      -7.7      1.843      2.735
  Name = 
  16 active torsions:
  status: ('A' for Active; 'I' for Inactive)
    1  A    between atoms: C_5  and  C_28
    2  A    between atoms: C_5  and  C_35
    3  A    between atoms: C_7  and  C_11
    4  A    between atoms: C_7  and  C_37
    5  A    between atoms: O_9  and  C_11
    6  A    between atoms: O_9  and  C_31
    7  A    between atoms: C_10  and  O_12
    8  A    between atoms: C_10  and  C_28
    9  A    between atoms: C_11  and  C_39
   10  A    between atoms: O_12  and  C_23
   11  A    between atoms: C_15  and  C_17
   12  A    between atoms: C_15  and  C_39
   13  A    between atoms: C_17  and  C_30
   14  A    between atoms: C_21  and  C_23
   15  A    between atoms: C_23  and  C_26
   16  A    between atoms: C_29  and  C_30
                            x       y       z     vdW  Elec       q    Type
                         _______ _______ _______ _____ _____    ______ ____

>  <TORSDO>
F 16

$$$$
=
 OpenBabel10232412013D

 41 44  0  0  1  0  0  0  0  0999 V2000
  184.3210  178.8290  143.9360 C   0  0  0  0  0  0  0  0  0  0  0  0
  185.8570  178.3150  145.8060 C   0  0  0  0  0  3  0  0  0  0  0  0
  185.1560  178.5230  142.8420 C   0  0  0  0  0  0  0  0  0  0  0  0
  184.5820  178.3070  141.5890 C   0  0  0  0  0  3  0  0  0  0  0  0
  182.9790  178.9440  143.7440 N   0  0  0  0  0  0  0  0  0  0  0  0
  183.1980  178.3860  141.4260 C   0  0  0  0  0  0  0  0  0  0  0  0
  184.8690  179.0510  145.2870 C   0  0  0  0  0  3  0  0  0  0  0  0
  187.2470  177.4720  143.8410 C   0  0  2  0  0  3  0  0  0  0  0  0
  186.6500  178.5770  142.9630 C   0  0  0  0  0  2  0  0  0  0  0  0
  182.4070  178.7340  142.5290 C   0  0  0  0  0  3  0  0  0  0  0  0
  186.4320  177.1230  145.0950 C   0  0  0  0  0  2  0  0  0  0  0  0
  182.6050  178.1870  140.0570 C   0  0  1  0  0  3  0  0  0  0  0  0
  182.4170  179.4280  139.2800 C   0  0  0  0  0  0  0  0  0  0  0  0
  182.2610  180.4440  138.6490 C   0  0  0  0  0  3  0  0  0  0  0  0
  183.2090  177.1430  139.3180 O   0  0  0  0  0  0  0  0  0  0  0  0
  182.6100  177.0610  138.0470 C   0  0  0  0  0  2  0  0  0  0  0  0
  183.6700  176.7860  136.9900 C   0  0  0  0  0  2  0  0  0  0  0  0
  184.9450  177.5740  137.2660 C   0  0  0  0  0  2  0  0  0  0  0  0
  186.7570  177.5420  135.5330 C   0  0  0  0  0  3  0  0  0  0  0  0
  187.8630  176.9340  134.9280 C   0  0  0  0  0  3  0  0  0  0  0  0
  186.6080  175.7040  137.1070 C   0  0  0  0  0  3  0  0  0  0  0  0
  188.3410  175.7110  135.4120 C   0  0  0  0  0  3  0  0  0  0  0  0
  187.7130  175.0950  136.5010 C   0  0  0  0  0  3  0  0  0  0  0  0
  186.1300  176.9300  136.6260 C   0  0  0  0  0  0  0  0  0  0  0  0
  188.5470  177.8320  144.2090 O   0  0  0  0  0  0  0  0  0  0  0  0
  189.2310  178.0430  143.0030 C   0  0  1  0  0  3  0  0  0  0  0  0
  190.9380  179.4120  143.9850 O   0  0  0  0  0  1  0  0  0  0  0  0
  190.7270  178.2360  143.2600 C   0  0  1  0  0  3  0  0  0  0  0  0
  191.2940  177.0540  144.0360 C   0  0  0  0  0  2  0  0  0  0  0  0
  191.6810  177.4680  145.4480 C   0  0  0  0  0  2  0  0  0  0  0  0
  191.0910  176.5020  146.4620 C   0  0  0  0  0  2  0  0  0  0  0  0
  192.1910  175.6820  147.1100 C   0  0  0  0  0  2  0  0  0  0  0  0
  192.6630  176.3350  148.2510 O   0  0  0  0  0  1  0  0  0  0  0  0
  188.9710  176.8830  142.0330 C   0  0  0  0  0  2  0  0  0  0  0  0
  190.4050  176.6650  139.9810 C   0  0  0  0  0  3  0  0  0  0  0  0
  190.6860  176.9740  138.6470 C   0  0  0  0  0  0  0  0  0  0  0  0
  188.4600  178.1080  139.9060 C   0  0  0  0  0  3  0  0  0  0  0  0
  191.7870  176.4090  138.0210 O   0  0  0  0  0  1  0  0  0  0  0  0
  188.7420  178.4180  138.5720 C   0  0  0  0  0  3  0  0  0  0  0  0
  189.2920  177.2330  140.6140 C   0  0  0  0  0  0  0  0  0  0  0  0
  189.8550  177.8510  137.9430 C   0  0  0  0  0  3  0  0  0  0  0  0
  1  7  1  0  0  0  0
  3  9  1  0  0  0  0
  3  1  2  0  0  0  0
  4  3  1  0  0  0  0
  5  1  1  0  0  0  0
  6  4  2  0  0  0  0
  6 10  1  0  0  0  0
  7  2  2  0  0  0  0
  8 25  1  1  0  0  0
  8 11  1  0  0  0  0
  9  8  1  0  0  0  0
 10  5  2  0  0  0  0
 11  2  1  0  0  0  0
 12 13  1  6  0  0  0
 12  6  1  0  0  0  0
 14 13  3  0  0  0  0
 15 12  1  0  0  0  0
 16 15  1  0  0  0  0
 17 18  1  0  0  0  0
 17 16  1  0  0  0  0
 19 24  1  0  0  0  0
 20 22  1  0  0  0  0
 20 19  2  0  0  0  0
 22 23  2  0  0  0  0
 23 21  1  0  0  0  0
 24 21  2  0  0  0  0
 24 18  1  0  0  0  0
 26 34  1  6  0  0  0
 26 28  1  0  0  0  0
 26 25  1  0  0  0  0
 28 27  1  1  0  0  0
 28 29  1  0  0  0  0
 29 30  1  0  0  0  0
 30 31  1  0  0  0  0
 31 32  1  0  0  0  0
 32 33  1  0  0  0  0
 35 40  1  0  0  0  0
 36 35  2  0  0  0  0
 37 40  2  0  0  0  0
 38 36  1  0  0  0  0
 39 37  1  0  0  0  0
 40 34  1  0  0  0  0
 41 39  2  0  0  0  0
 41 36  1  0  0  0  0
M  END
>  <MODEL>
4

>  <REMARK>
 VINA RESULT:      -7.5      2.229      8.251
  Name = 
  16 active torsions:
  status: ('A' for Active; 'I' for Inactive)
    1  A    between atoms: C_5  and  C_28
    2  A    between atoms: C_5  and  C_35
    3  A    between atoms: C_7  and  C_11
    4  A    between atoms: C_7  and  C_37
    5  A    between atoms: O_9  and  C_11
    6  A    between atoms: O_9  and  C_31
    7  A    between atoms: C_10  and  O_12
    8  A    between atoms: C_10  and  C_28
    9  A    between atoms: C_11  and  C_39
   10  A    between atoms: O_12  and  C_23
   11  A    between atoms: C_15  and  C_17
   12  A    between atoms: C_15  and  C_39
   13  A    between atoms: C_17  and  C_30
   14  A    between atoms: C_21  and  C_23
   15  A    between atoms: C_23  and  C_26
   16  A    between atoms: C_29  and  C_30
                            x       y       z     vdW  Elec       q    Type
                         _______ _______ _______ _____ _____    ______ ____

>  <TORSDO>
F 16

$$$$
=
 OpenBabel10232412013D

 41 44  0  0  1  0  0  0  0  0999 V2000
  190.3980  177.1940  141.2770 C   0  0  0  0  0  0  0  0  0  0  0  0
  190.5210  177.0630  138.8100 C   0  0  0  0  0  3  0  0  0  0  0  0
  189.1200  177.7700  141.4290 C   0  0  0  0  0  0  0  0  0  0  0  0
  188.4780  177.6810  142.6640 C   0  0  0  0  0  3  0  0  0  0  0  0
  190.9960  176.5960  142.3430 N   0  0  0  0  0  0  0  0  0  0  0  0
  189.0930  177.0220  143.7310 C   0  0  0  0  0  0  0  0  0  0  0  0
  191.1190  177.2420  139.9910 C   0  0  0  0  0  3  0  0  0  0  0  0
  188.0990  177.8110  139.0990 C   0  0  2  0  0  3  0  0  0  0  0  0
  188.5080  178.6050  140.3440 C   0  0  0  0  0  2  0  0  0  0  0  0
  190.3800  176.5010  143.5510 C   0  0  0  0  0  3  0  0  0  0  0  0
  189.0700  176.6930  138.6900 C   0  0  0  0  0  2  0  0  0  0  0  0
  188.3960  176.9730  145.0650 C   0  0  1  0  0  3  0  0  0  0  0  0
  189.2940  177.0660  146.2330 C   0  0  0  0  0  0  0  0  0  0  0  0
  190.0310  177.1430  147.1840 C   0  0  0  0  0  3  0  0  0  0  0  0
  187.2650  177.8170  145.1510 O   0  0  0  0  0  0  0  0  0  0  0  0
  186.6240  177.6170  146.3880 C   0  0  0  0  0  2  0  0  0  0  0  0
  185.3040  178.3720  146.4180 C   0  0  0  0  0  2  0  0  0  0  0  0
  185.2630  179.4610  145.3530 C   0  0  0  0  0  2  0  0  0  0  0  0
  182.8820  179.2030  144.6100 C   0  0  0  0  0  3  0  0  0  0  0  0
  181.9310  178.9090  143.6270 C   0  0  0  0  0  3  0  0  0  0  0  0
  184.6590  178.8050  143.0090 C   0  0  0  0  0  3  0  0  0  0  0  0
  182.3430  178.5620  142.3350 C   0  0  0  0  0  3  0  0  0  0  0  0
  183.7080  178.5100  142.0270 C   0  0  0  0  0  3  0  0  0  0  0  0
  184.2480  179.1560  144.3020 C   0  0  0  0  0  0  0  0  0  0  0  0
  187.9220  178.6950  138.0300 O   0  0  0  0  0  0  0  0  0  0  0  0
  186.6080  178.4860  137.5870 C   0  0  1  0  0  3  0  0  0  0  0  0
  187.8160  177.7720  135.6420 O   0  0  0  0  0  1  0  0  0  0  0  0
  186.5990  177.6350  136.3160 C   0  0  1  0  0  3  0  0  0  0  0  0
  186.3720  176.1670  136.6550 C   0  0  0  0  0  2  0  0  0  0  0  0
  185.2600  175.5780  135.8010 C   0  0  0  0  0  2  0  0  0  0  0  0
  184.5230  174.4930  136.5680 C   0  0  0  0  0  2  0  0  0  0  0  0
  185.4120  173.2760  136.7410 C   0  0  0  0  0  2  0  0  0  0  0  0
  185.5790  172.9960  138.0990 O   0  0  0  0  0  1  0  0  0  0  0  0
  185.7670  177.8470  138.6990 C   0  0  0  0  0  2  0  0  0  0  0  0
  183.3050  177.3660  138.5440 C   0  0  0  0  0  3  0  0  0  0  0  0
  181.9730  177.7920  138.5510 C   0  0  0  0  0  0  0  0  0  0  0  0
  184.0370  179.6590  138.8220 C   0  0  0  0  0  3  0  0  0  0  0  0
  180.9490  176.8660  138.4210 O   0  0  0  0  0  1  0  0  0  0  0  0
  182.7060  180.0840  138.8270 C   0  0  0  0  0  3  0  0  0  0  0  0
  184.3400  178.3000  138.6770 C   0  0  0  0  0  0  0  0  0  0  0  0
  181.6740  179.1500  138.6930 C   0  0  0  0  0  3  0  0  0  0  0  0
  1  3  2  0  0  0  0
  1  5  1  0  0  0  0
  2  7  2  0  0  0  0
  3  4  1  0  0  0  0
  4  6  2  0  0  0  0
  5 10  2  0  0  0  0
  6 12  1  0  0  0  0
  7  1  1  0  0  0  0
  8 25  1  6  0  0  0
  8  9  1  0  0  0  0
  9  3  1  0  0  0  0
 10  6  1  0  0  0  0
 11  2  1  0  0  0  0
 11  8  1  0  0  0  0
 12 15  1  0  0  0  0
 12 13  1  1  0  0  0
 13 14  3  0  0  0  0
 15 16  1  0  0  0  0
 16 17  1  0  0  0  0
 18 17  1  0  0  0  0
 20 19  2  0  0  0  0
 21 24  2  0  0  0  0
 22 20  1  0  0  0  0
 23 22  2  0  0  0  0
 23 21  1  0  0  0  0
 24 19  1  0  0  0  0
 24 18  1  0  0  0  0
 26 25  1  0  0  0  0
 26 34  1  1  0  0  0
 28 27  1  1  0  0  0
 28 29  1  0  0  0  0
 28 26  1  0  0  0  0
 30 31  1  0  0  0  0
 30 29  1  0  0  0  0
 31 32  1  0  0  0  0
 32 33  1  0  0  0  0
 35 36  2  0  0  0  0
 35 40  1  0  0  0  0
 36 41  1  0  0  0  0
 37 39  1  0  0  0  0
 38 36  1  0  0  0  0
 40 34  1  0  0  0  0
 40 37  2  0  0  0  0
 41 39  2  0  0  0  0
M  END
>  <MODEL>
5

>  <REMARK>
 VINA RESULT:      -7.3      1.556      3.729
  Name = 
  16 active torsions:
  status: ('A' for Active; 'I' for Inactive)
    1  A    between atoms: C_5  and  C_28
    2  A    between atoms: C_5  and  C_35
    3  A    between atoms: C_7  and  C_11
    4  A    between atoms: C_7  and  C_37
    5  A    between atoms: O_9  and  C_11
    6  A    between atoms: O_9  and  C_31
    7  A    between atoms: C_10  and  O_12
    8  A    between atoms: C_10  and  C_28
    9  A    between atoms: C_11  and  C_39
   10  A    between atoms: O_12  and  C_23
   11  A    between atoms: C_15  and  C_17
   12  A    between atoms: C_15  and  C_39
   13  A    between atoms: C_17  and  C_30
   14  A    between atoms: C_21  and  C_23
   15  A    between atoms: C_23  and  C_26
   16  A    between atoms: C_29  and  C_30
                            x       y       z     vdW  Elec       q    Type
                         _______ _______ _______ _____ _____    ______ ____

>  <TORSDO>
F 16

$$$$
=
 OpenBabel10232412013D

 41 44  0  0  1  0  0  0  0  0999 V2000
  184.3610  178.8070  144.8810 C   0  0  0  0  0  0  0  0  0  0  0  0
  185.8880  178.0460  146.6730 C   0  0  0  0  0  3  0  0  0  0  0  0
  185.1740  178.5790  143.7520 C   0  0  0  0  0  0  0  0  0  0  0  0
  184.5820  178.5140  142.4910 C   0  0  0  0  0  3  0  0  0  0  0  0
  183.0240  178.9960  144.7180 N   0  0  0  0  0  0  0  0  0  0  0  0
  183.2010  178.6650  142.3530 C   0  0  0  0  0  0  0  0  0  0  0  0
  184.9280  178.8700  146.2420 C   0  0  0  0  0  3  0  0  0  0  0  0
  187.2270  177.3480  144.6170 C   0  0  2  0  0  3  0  0  0  0  0  0
  186.6700  178.5590  143.8610 C   0  0  0  0  0  2  0  0  0  0  0  0
  182.4340  178.9330  143.4950 C   0  0  0  0  0  3  0  0  0  0  0  0
  186.4070  176.9090  145.8400 C   0  0  0  0  0  2  0  0  0  0  0  0
  182.5900  178.6290  140.9780 C   0  0  1  0  0  3  0  0  0  0  0  0
  183.5310  178.9240  139.8780 C   0  0  0  0  0  0  0  0  0  0  0  0
  184.2960  179.1620  138.9770 C   0  0  0  0  0  3  0  0  0  0  0  0
  181.7810  177.4930  140.7410 O   0  0  0  0  0  0  0  0  0  0  0  0
  180.5330  177.9050  140.2360 C   0  0  0  0  0  2  0  0  0  0  0  0
  180.3470  177.3780  138.8200 C   0  0  0  0  0  2  0  0  0  0  0  0
  181.0920  176.0650  138.6140 C   0  0  0  0  0  2  0  0  0  0  0  0
  183.4710  175.5900  137.9790 C   0  0  0  0  0  3  0  0  0  0  0  0
  184.5690  175.7620  137.1290 C   0  0  0  0  0  3  0  0  0  0  0  0
  182.1560  177.0690  136.5780 C   0  0  0  0  0  3  0  0  0  0  0  0
  184.4620  176.5870  136.0030 C   0  0  0  0  0  3  0  0  0  0  0  0
  183.2550  177.2410  135.7280 C   0  0  0  0  0  3  0  0  0  0  0  0
  182.2610  176.2410  137.7030 C   0  0  0  0  0  0  0  0  0  0  0  0
  188.5440  177.6160  145.0040 O   0  0  0  0  0  0  0  0  0  0  0  0
  189.2480  177.8260  143.8090 C   0  0  1  0  0  3  0  0  0  0  0  0
  191.0380  179.4200  143.7230 O   0  0  0  0  0  1  0  0  0  0  0  0
  190.7230  178.1110  144.0990 C   0  0  1  0  0  3  0  0  0  0  0  0
  191.0250  177.9230  145.5790 C   0  0  0  0  0  2  0  0  0  0  0  0
  191.5960  176.5380  145.8460 C   0  0  0  0  0  2  0  0  0  0  0  0
  191.4180  176.1670  147.3080 C   0  0  0  0  0  2  0  0  0  0  0  0
  192.7370  175.7020  147.8970 C   0  0  0  0  0  2  0  0  0  0  0  0
  193.1080  176.5360  148.9540 O   0  0  0  0  0  1  0  0  0  0  0  0
  189.0800  176.6220  142.8740 C   0  0  0  0  0  2  0  0  0  0  0  0
  188.4370  177.7090  140.7010 C   0  0  0  0  0  3  0  0  0  0  0  0
  188.7150  178.0440  139.3720 C   0  0  0  0  0  0  0  0  0  0  0  0
  190.5600  176.5510  140.8500 C   0  0  0  0  0  3  0  0  0  0  0  0
  187.8020  178.7880  138.6400 O   0  0  0  0  0  1  0  0  0  0  0  0
  190.8360  176.8850  139.5210 C   0  0  0  0  0  3  0  0  0  0  0  0
  189.3590  176.9590  141.4420 C   0  0  0  0  0  0  0  0  0  0  0  0
  189.9130  177.6320  138.7830 C   0  0  0  0  0  3  0  0  0  0  0  0
  1  7  1  0  0  0  0
  3  9  1  0  0  0  0
  3  1  2  0  0  0  0
  4  3  1  0  0  0  0
  5  1  1  0  0  0  0
  6  4  2  0  0  0  0
  6 10  1  0  0  0  0
  7  2  2  0  0  0  0
  8 25  1  1  0  0  0
  8 11  1  0  0  0  0
  9  8  1  0  0  0  0
 10  5  2  0  0  0  0
 11  2  1  0  0  0  0
 12 13  1  6  0  0  0
 12  6  1  0  0  0  0
 14 13  3  0  0  0  0
 15 12  1  0  0  0  0
 16 15  1  0  0  0  0
 17 16  1  0  0  0  0
 18 17  1  0  0  0  0
 20 19  2  0  0  0  0
 21 24  2  0  0  0  0
 22 20  1  0  0  0  0
 23 22  2  0  0  0  0
 23 21  1  0  0  0  0
 24 19  1  0  0  0  0
 24 18  1  0  0  0  0
 26 34  1  6  0  0  0
 26 28  1  0  0  0  0
 26 25  1  0  0  0  0
 28 27  1  1  0  0  0
 28 29  1  0  0  0  0
 29 30  1  0  0  0  0
 30 31  1  0  0  0  0
 31 32  1  0  0  0  0
 32 33  1  0  0  0  0
 35 40  1  0  0  0  0
 36 35  2  0  0  0  0
 37 40  2  0  0  0  0
 38 36  1  0  0  0  0
 39 37  1  0  0  0  0
 40 34  1  0  0  0  0
 41 36  1  0  0  0  0
 41 39  2  0  0  0  0
M  END
>  <MODEL>
6

>  <REMARK>
 VINA RESULT:      -7.3      2.576      8.260
  Name = 
  16 active torsions:
  status: ('A' for Active; 'I' for Inactive)
    1  A    between atoms: C_5  and  C_28
    2  A    between atoms: C_5  and  C_35
    3  A    between atoms: C_7  and  C_11
    4  A    between atoms: C_7  and  C_37
    5  A    between atoms: O_9  and  C_11
    6  A    between atoms: O_9  and  C_31
    7  A    between atoms: C_10  and  O_12
    8  A    between atoms: C_10  and  C_28
    9  A    between atoms: C_11  and  C_39
   10  A    between atoms: O_12  and  C_23
   11  A    between atoms: C_15  and  C_17
   12  A    between atoms: C_15  and  C_39
   13  A    between atoms: C_17  and  C_30
   14  A    between atoms: C_21  and  C_23
   15  A    between atoms: C_23  and  C_26
   16  A    between atoms: C_29  and  C_30
                            x       y       z     vdW  Elec       q    Type
                         _______ _______ _______ _____ _____    ______ ____

>  <TORSDO>
F 16

$$$$
=
 OpenBabel10232412013D

 41 44  0  0  1  0  0  0  0  0999 V2000
  184.2600  178.8950  143.5030 C   0  0  0  0  0  0  0  0  0  0  0  0
  186.4200  178.4730  144.6330 C   0  0  0  0  0  3  0  0  0  0  0  0
  184.6700  178.8250  142.1560 C   0  0  0  0  0  0  0  0  0  0  0  0
  183.7100  178.6320  141.1630 C   0  0  0  0  0  3  0  0  0  0  0  0
  182.9370  178.8100  143.8070 N   0  0  0  0  0  0  0  0  0  0  0  0
  182.3620  178.5010  141.5040 C   0  0  0  0  0  0  0  0  0  0  0  0
  185.2310  179.0830  144.5980 C   0  0  0  0  0  3  0  0  0  0  0  0
  187.0900  178.0410  142.2110 C   0  0  2  0  0  3  0  0  0  0  0  0
  186.0880  179.1080  141.7580 C   0  0  0  0  0  2  0  0  0  0  0  0
  181.9910  178.6190  142.8490 C   0  0  0  0  0  3  0  0  0  0  0  0
  186.8340  177.4570  143.6080 C   0  0  0  0  0  2  0  0  0  0  0  0
  181.3400  178.3300  140.4110 C   0  0  1  0  0  3  0  0  0  0  0  0
  181.5730  179.1640  139.2140 C   0  0  0  0  0  0  0  0  0  0  0  0
  181.7660  179.8460  138.2390 C   0  0  0  0  0  3  0  0  0  0  0  0
  181.0430  176.9800  140.1120 O   0  0  0  0  0  0  0  0  0  0  0  0
  181.4380  176.6950  138.7920 C   0  0  0  0  0  2  0  0  0  0  0  0
  182.7320  175.8940  138.7980 C   0  0  0  0  0  2  0  0  0  0  0  0
  183.3900  175.8930  137.4240 C   0  0  0  0  0  2  0  0  0  0  0  0
  184.9030  177.8030  138.0170 C   0  0  0  0  0  3  0  0  0  0  0  0
  186.1700  178.3980  138.0520 C   0  0  0  0  0  3  0  0  0  0  0  0
  185.8530  175.8440  136.9510 C   0  0  0  0  0  3  0  0  0  0  0  0
  187.2780  177.7160  137.5370 C   0  0  0  0  0  3  0  0  0  0  0  0
  187.1190  176.4390  136.9850 C   0  0  0  0  0  3  0  0  0  0  0  0
  184.7430  176.5240  137.4700 C   0  0  0  0  0  0  0  0  0  0  0  0
  188.3820  178.5710  142.1510 O   0  0  0  0  0  0  0  0  0  0  0  0
  189.1880  177.6750  142.8680 C   0  0  1  0  0  3  0  0  0  0  0  0
  189.9850  175.4700  142.3640 O   0  0  0  0  0  1  0  0  0  0  0  0
  189.9930  176.7930  141.9120 C   0  0  1  0  0  3  0  0  0  0  0  0
  189.4060  176.8500  140.5070 C   0  0  0  0  0  2  0  0  0  0  0  0
  190.2930  177.6700  139.5820 C   0  0  0  0  0  2  0  0  0  0  0  0
  191.3270  176.7780  138.9150 C   0  0  0  0  0  2  0  0  0  0  0  0
  190.6980  176.0090  137.7690 C   0  0  0  0  0  2  0  0  0  0  0  0
  190.6370  174.6500  138.0830 O   0  0  0  0  0  1  0  0  0  0  0  0
  190.1030  178.4390  143.8340 C   0  0  0  0  0  2  0  0  0  0  0  0
  189.3720  177.6660  146.1100 C   0  0  0  0  0  3  0  0  0  0  0  0
  189.5960  176.9450  147.2870 C   0  0  0  0  0  0  0  0  0  0  0  0
  191.5490  176.9940  145.2870 C   0  0  0  0  0  3  0  0  0  0  0  0
  188.6260  176.9170  148.2780 O   0  0  0  0  0  1  0  0  0  0  0  0
  191.7740  176.2750  146.4640 C   0  0  0  0  0  3  0  0  0  0  0  0
  190.3500  177.6930  145.1080 C   0  0  0  0  0  0  0  0  0  0  0  0
  190.7960  176.2510  147.4640 C   0  0  0  0  0  3  0  0  0  0  0  0
  1  5  1  0  0  0  0
  1  7  1  0  0  0  0
  3  1  2  0  0  0  0
  4  6  2  0  0  0  0
  4  3  1  0  0  0  0
  6 10  1  0  0  0  0
  7  2  2  0  0  0  0
  8 25  1  1  0  0  0
  8 11  1  0  0  0  0
  9  3  1  0  0  0  0
  9  8  1  0  0  0  0
 10  5  2  0  0  0  0
 11  2  1  0  0  0  0
 12 13  1  6  0  0  0
 12  6  1  0  0  0  0
 14 13  3  0  0  0  0
 15 12  1  0  0  0  0
 16 17  1  0  0  0  0
 16 15  1  0  0  0  0
 18 24  1  0  0  0  0
 18 17  1  0  0  0  0
 19 20  1  0  0  0  0
 21 23  2  0  0  0  0
 21 24  1  0  0  0  0
 22 20  2  0  0  0  0
 23 22  1  0  0  0  0
 24 19  2  0  0  0  0
 25 26  1  0  0  0  0
 26 34  1  1  0  0  0
 28 27  1  1  0  0  0
 28 26  1  0  0  0  0
 29 28  1  0  0  0  0
 30 29  1  0  0  0  0
 31 30  1  0  0  0  0
 32 33  1  0  0  0  0
 32 31  1  0  0  0  0
 34 40  1  0  0  0  0
 35 36  1  0  0  0  0
 36 41  2  0  0  0  0
 36 38  1  0  0  0  0
 37 39  2  0  0  0  0
 39 41  1  0  0  0  0
 40 37  1  0  0  0  0
 40 35  2  0  0  0  0
M  END
>  <MODEL>
7

>  <REMARK>
 VINA RESULT:      -7.2      2.325      8.613
  Name = 
  16 active torsions:
  status: ('A' for Active; 'I' for Inactive)
    1  A    between atoms: C_5  and  C_28
    2  A    between atoms: C_5  and  C_35
    3  A    between atoms: C_7  and  C_11
    4  A    between atoms: C_7  and  C_37
    5  A    between atoms: O_9  and  C_11
    6  A    between atoms: O_9  and  C_31
    7  A    between atoms: C_10  and  O_12
    8  A    between atoms: C_10  and  C_28
    9  A    between atoms: C_11  and  C_39
   10  A    between atoms: O_12  and  C_23
   11  A    between atoms: C_15  and  C_17
   12  A    between atoms: C_15  and  C_39
   13  A    between atoms: C_17  and  C_30
   14  A    between atoms: C_21  and  C_23
   15  A    between atoms: C_23  and  C_26
   16  A    between atoms: C_29  and  C_30
                            x       y       z     vdW  Elec       q    Type
                         _______ _______ _______ _____ _____    ______ ____

>  <TORSDO>
F 16

$$$$
=
 OpenBabel10232412013D

 41 44  0  0  1  0  0  0  0  0999 V2000
  182.1450  178.7840  141.9310 C   0  0  0  0  0  0  0  0  0  0  0  0
  180.8000  179.3440  139.9320 C   0  0  0  0  0  3  0  0  0  0  0  0
  183.2820  178.2250  141.3130 C   0  0  0  0  0  0  0  0  0  0  0  0
  184.4650  178.1120  142.0440 C   0  0  0  0  0  3  0  0  0  0  0  0
  182.2100  179.1690  143.2340 N   0  0  0  0  0  0  0  0  0  0  0  0
  184.5210  178.5560  143.3660 C   0  0  0  0  0  0  0  0  0  0  0  0
  180.8710  178.9440  141.2050 C   0  0  0  0  0  3  0  0  0  0  0  0
  182.9780  178.6210  138.8180 C   0  0  2  0  0  3  0  0  0  0  0  0
  183.2030  177.6100  139.9480 C   0  0  0  0  0  2  0  0  0  0  0  0
  183.3570  179.0670  143.9560 C   0  0  0  0  0  3  0  0  0  0  0  0
  182.0120  179.7680  139.1520 C   0  0  0  0  0  2  0  0  0  0  0  0
  185.7980  178.3900  144.1450 C   0  0  1  0  0  3  0  0  0  0  0  0
  185.6590  178.5750  145.6040 C   0  0  0  0  0  0  0  0  0  0  0  0
  185.5450  178.7310  146.7940 C   0  0  0  0  0  3  0  0  0  0  0  0
  186.5400  177.2390  143.7890 O   0  0  0  0  0  0  0  0  0  0  0  0
  187.5880  177.6070  142.9260 C   0  0  0  0  0  2  0  0  0  0  0  0
  188.6990  176.5690  142.9860 C   0  0  0  0  0  2  0  0  0  0  0  0
  190.0340  177.2050  143.3520 C   0  0  0  0  0  2  0  0  0  0  0  0
  189.4770  177.3360  145.7940 C   0  0  0  0  0  3  0  0  0  0  0  0
  189.8010  177.1180  147.1380 C   0  0  0  0  0  3  0  0  0  0  0  0
  191.6020  176.3790  145.1270 C   0  0  0  0  0  3  0  0  0  0  0  0
  191.0250  176.5300  147.4770 C   0  0  0  0  0  3  0  0  0  0  0  0
  191.9260  176.1620  146.4700 C   0  0  0  0  0  3  0  0  0  0  0  0
  190.3750  176.9640  144.7860 C   0  0  0  0  0  0  0  0  0  0  0  0
  182.5310  177.9440  137.6800 O   0  0  0  0  0  0  0  0  0  0  0  0
  183.5100  176.9770  137.4120 C   0  0  1  0  0  3  0  0  0  0  0  0
  183.2450  175.6180  135.4540 O   0  0  0  0  0  1  0  0  0  0  0  0
  182.8760  175.7270  136.7980 C   0  0  1  0  0  3  0  0  0  0  0  0
  183.3190  174.4770  137.5470 C   0  0  0  0  0  2  0  0  0  0  0  0
  183.8720  173.4350  136.5860 C   0  0  0  0  0  2  0  0  0  0  0  0
  184.8050  172.4850  137.3170 C   0  0  0  0  0  2  0  0  0  0  0  0
  186.1440  172.4130  136.6080 C   0  0  0  0  0  2  0  0  0  0  0  0
  185.9510  172.3890  135.2250 O   0  0  0  0  0  1  0  0  0  0  0  0
  184.5990  177.5610  136.5030 C   0  0  0  0  0  2  0  0  0  0  0  0
  186.6960  178.2980  137.6750 C   0  0  0  0  0  3  0  0  0  0  0  0
  187.9760  178.0350  138.1720 C   0  0  0  0  0  0  0  0  0  0  0  0
  186.5500  176.0240  136.8520 C   0  0  0  0  0  3  0  0  0  0  0  0
  188.6820  179.0310  138.8310 O   0  0  0  0  0  1  0  0  0  0  0  0
  187.8310  175.7620  137.3480 C   0  0  0  0  0  3  0  0  0  0  0  0
  185.9810  177.2930  137.0120 C   0  0  0  0  0  0  0  0  0  0  0  0
  188.5430  176.7690  138.0080 C   0  0  0  0  0  3  0  0  0  0  0  0
  1  5  1  0  0  0  0
  2  7  2  0  0  0  0
  3  1  2  0  0  0  0
  3  4  1  0  0  0  0
  4  6  2  0  0  0  0
  5 10  2  0  0  0  0
  6 10  1  0  0  0  0
  6 12  1  0  0  0  0
  7  1  1  0  0  0  0
  8 25  1  6  0  0  0
  8 11  1  0  0  0  0
  8  9  1  0  0  0  0
  9  3  1  0  0  0  0
 11  2  1  0  0  0  0
 12 13  1  1  0  0  0
 13 14  3  0  0  0  0
 15 12  1  0  0  0  0
 16 17  1  0  0  0  0
 16 15  1  0  0  0  0
 17 18  1  0  0  0  0
 18 24  1  0  0  0  0
 19 20  1  0  0  0  0
 20 22  2  0  0  0  0
 21 23  2  0  0  0  0
 23 22  1  0  0  0  0
 24 21  1  0  0  0  0
 24 19  2  0  0  0  0
 26 34  1  6  0  0  0
 26 25  1  0  0  0  0
 28 27  1  6  0  0  0
 28 26  1  0  0  0  0
 28 29  1  0  0  0  0
 30 31  1  0  0  0  0
 30 29  1  0  0  0  0
 32 31  1  0  0  0  0
 33 32  1  0  0  0  0
 34 40  1  0  0  0  0
 35 36  1  0  0  0  0
 36 38  1  0  0  0  0
 37 40  1  0  0  0  0
 37 39  2  0  0  0  0
 39 41  1  0  0  0  0
 40 35  2  0  0  0  0
 41 36  2  0  0  0  0
M  END
>  <MODEL>
8

>  <REMARK>
 VINA RESULT:      -7.1      2.462      5.939
  Name = 
  16 active torsions:
  status: ('A' for Active; 'I' for Inactive)
    1  A    between atoms: C_5  and  C_28
    2  A    between atoms: C_5  and  C_35
    3  A    between atoms: C_7  and  C_11
    4  A    between atoms: C_7  and  C_37
    5  A    between atoms: O_9  and  C_11
    6  A    between atoms: O_9  and  C_31
    7  A    between atoms: C_10  and  O_12
    8  A    between atoms: C_10  and  C_28
    9  A    between atoms: C_11  and  C_39
   10  A    between atoms: O_12  and  C_23
   11  A    between atoms: C_15  and  C_17
   12  A    between atoms: C_15  and  C_39
   13  A    between atoms: C_17  and  C_30
   14  A    between atoms: C_21  and  C_23
   15  A    between atoms: C_23  and  C_26
   16  A    between atoms: C_29  and  C_30
                            x       y       z     vdW  Elec       q    Type
                         _______ _______ _______ _____ _____    ______ ____

>  <TORSDO>
F 16

$$$$
=
 OpenBabel10232412013D

 41 44  0  0  1  0  0  0  0  0999 V2000
  182.2100  178.7540  142.1150 C   0  0  0  0  0  0  0  0  0  0  0  0
  182.5310  179.3500  144.4950 C   0  0  0  0  0  3  0  0  0  0  0  0
  183.5340  178.4180  141.7650 C   0  0  0  0  0  0  0  0  0  0  0  0
  183.7620  177.6630  140.6150 C   0  0  0  0  0  3  0  0  0  0  0  0
  181.1850  178.3690  141.3080 N   0  0  0  0  0  0  0  0  0  0  0  0
  182.6890  177.2400  139.8270 C   0  0  0  0  0  0  0  0  0  0  0  0
  181.9060  179.5370  143.3280 C   0  0  0  0  0  3  0  0  0  0  0  0
  184.8520  178.4470  143.9420 C   0  0  2  0  0  3  0  0  0  0  0  0
  184.7050  178.9830  142.5140 C   0  0  0  0  0  2  0  0  0  0  0  0
  181.3930  177.6310  140.1860 C   0  0  0  0  0  3  0  0  0  0  0  0
  183.5330  178.2500  144.7040 C   0  0  0  0  0  2  0  0  0  0  0  0
  182.9630  176.4580  138.5700 C   0  0  1  0  0  3  0  0  0  0  0  0
  181.8730  175.5500  138.1590 C   0  0  0  0  0  0  0  0  0  0  0  0
  180.9840  174.8060  137.8280 C   0  0  0  0  0  3  0  0  0  0  0  0
  183.4770  177.2410  137.5100 O   0  0  0  0  0  0  0  0  0  0  0  0
  184.8020  176.8510  137.2400 C   0  0  0  0  0  2  0  0  0  0  0  0
  185.7450  178.0250  137.4620 C   0  0  0  0  0  2  0  0  0  0  0  0
  187.1200  177.7530  136.8650 C   0  0  0  0  0  2  0  0  0  0  0  0
  189.4790  177.3260  137.5990 C   0  0  0  0  0  3  0  0  0  0  0  0
  190.4650  177.2830  138.5910 C   0  0  0  0  0  3  0  0  0  0  0  0
  187.8540  178.0550  139.2430 C   0  0  0  0  0  3  0  0  0  0  0  0
  190.1450  177.6260  139.9100 C   0  0  0  0  0  3  0  0  0  0  0  0
  188.8390  178.0110  140.2360 C   0  0  0  0  0  3  0  0  0  0  0  0
  188.1730  177.7160  137.9220 C   0  0  0  0  0  0  0  0  0  0  0  0
  185.6920  179.2990  144.6660 O   0  0  0  0  0  0  0  0  0  0  0  0
  186.7490  178.4910  145.1110 C   0  0  1  0  0  3  0  0  0  0  0  0
  186.6300  176.5330  146.4900 O   0  0  0  0  0  1  0  0  0  0  0  0
  186.4410  177.9180  146.4950 C   0  0  1  0  0  3  0  0  0  0  0  0
  187.3420  178.5470  147.5490 C   0  0  0  0  0  2  0  0  0  0  0  0
  188.2260  177.4970  148.2060 C   0  0  0  0  0  2  0  0  0  0  0  0
  189.6900  177.7850  147.9170 C   0  0  0  0  0  2  0  0  0  0  0  0
  190.3380  176.5880  147.2460 C   0  0  0  0  0  2  0  0  0  0  0  0
  191.6500  176.8990  146.8810 O   0  0  0  0  0  1  0  0  0  0  0  0
  187.0340  177.3800  144.0920 C   0  0  0  0  0  2  0  0  0  0  0  0
  189.3870  178.2620  144.0710 C   0  0  0  0  0  3  0  0  0  0  0  0
  190.7540  178.0920  143.8330 C   0  0  0  0  0  0  0  0  0  0  0  0
  188.9770  175.9950  143.3190 C   0  0  0  0  0  3  0  0  0  0  0  0
  191.6370  179.1310  144.0920 O   0  0  0  0  0  1  0  0  0  0  0  0
  190.3440  175.8270  143.0800 C   0  0  0  0  0  3  0  0  0  0  0  0
  188.4950  177.2130  143.8120 C   0  0  0  0  0  0  0  0  0  0  0  0
  191.2320  176.8760  143.3380 C   0  0  0  0  0  3  0  0  0  0  0  0
  1  7  1  0  0  0  0
  2 11  1  0  0  0  0
  3  1  1  0  0  0  0
  3  9  1  0  0  0  0
  4  3  2  0  0  0  0
  5  1  2  0  0  0  0
  6 10  2  0  0  0  0
  6  4  1  0  0  0  0
  7  2  2  0  0  0  0
  8 25  1  1  0  0  0
  8 11  1  0  0  0  0
  9  8  1  0  0  0  0
 10  5  1  0  0  0  0
 12 13  1  6  0  0  0
 12  6  1  0  0  0  0
 14 13  3  0  0  0  0
 15 12  1  0  0  0  0
 16 17  1  0  0  0  0
 16 15  1  0  0  0  0
 18 17  1  0  0  0  0
 18 24  1  0  0  0  0
 19 24  2  0  0  0  0
 19 20  1  0  0  0  0
 20 22  2  0  0  0  0
 21 23  2  0  0  0  0
 22 23  1  0  0  0  0
 24 21  1  0  0  0  0
 25 26  1  0  0  0  0
 26 34  1  6  0  0  0
 26 28  1  0  0  0  0
 28 27  1  6  0  0  0
 28 29  1  0  0  0  0
 29 30  1  0  0  0  0
 31 30  1  0  0  0  0
 32 31  1  0  0  0  0
 33 32  1  0  0  0  0
 36 35  1  0  0  0  0
 36 38  1  0  0  0  0
 37 40  1  0  0  0  0
 39 37  2  0  0  0  0
 39 41  1  0  0  0  0
 40 35  2  0  0  0  0
 40 34  1  0  0  0  0
 41 36  2  0  0  0  0
M  END
>  <MODEL>
9

>  <REMARK>
 VINA RESULT:      -7.1      2.710      8.995
  Name = 
  16 active torsions:
  status: ('A' for Active; 'I' for Inactive)
    1  A    between atoms: C_5  and  C_28
    2  A    between atoms: C_5  and  C_35
    3  A    between atoms: C_7  and  C_11
    4  A    between atoms: C_7  and  C_37
    5  A    between atoms: O_9  and  C_11
    6  A    between atoms: O_9  and  C_31
    7  A    between atoms: C_10  and  O_12
    8  A    between atoms: C_10  and  C_28
    9  A    between atoms: C_11  and  C_39
   10  A    between atoms: O_12  and  C_23
   11  A    between atoms: C_15  and  C_17
   12  A    between atoms: C_15  and  C_39
   13  A    between atoms: C_17  and  C_30
   14  A    between atoms: C_21  and  C_23
   15  A    between atoms: C_23  and  C_26
   16  A    between atoms: C_29  and  C_30
                            x       y       z     vdW  Elec       q    Type
                         _______ _______ _______ _____ _____    ______ ____

>  <TORSDO>
F 16

$$$$
