=
 OpenBabel10232408083D

 38 43  0  0  1  0  0  0  0  0999 V2000
  184.2870  179.1040  142.4440 C   0  0  0  0  0  0  0  0  0  0  0  0
  183.4760  177.9260  138.2110 C   0  0  0  0  0  3  0  0  0  0  0  0
  185.0840  179.0190  141.3440 N   0  0  0  0  0  0  0  0  0  0  0  0
  182.9870  178.7860  142.1930 N   0  0  0  0  0  0  0  0  0  0  0  0
  184.5420  178.3380  139.0300 C   0  0  0  0  0  3  0  0  0  0  0  0
  184.2550  178.6120  140.3690 C   0  0  0  0  0  0  0  0  0  0  0  0
  181.9180  178.0850  140.0960 C   0  0  0  0  0  3  0  0  0  0  0  0
  181.1320  177.3910  137.9150 O   0  0  0  0  0  1  0  0  0  0  0  0
  182.1690  177.8020  138.7400 C   0  0  0  0  0  0  0  0  0  0  0  0
  182.9970  178.4840  140.8820 C   0  0  0  0  0  0  0  0  0  0  0  0
  184.9670  178.2740  144.6420 N   0  0  1  0  0  0  0  0  0  0  0  0
  183.7950  179.1400  144.8160 C   0  0  0  0  0  2  0  0  0  0  0  0
  184.7970  179.4730  143.8050 C   0  0  2  0  0  3  0  0  0  0  0  0
  185.9110  178.6370  145.6800 C   0  0  1  0  0  3  0  0  0  0  0  0
  185.7140  177.8130  146.7980 O   0  0  0  0  0  0  0  0  0  0  0  0
  186.8070  177.4890  145.9680 C   0  0  2  0  0  3  0  0  0  0  0  0
  188.5910  177.2500  147.7760 C   0  0  0  0  0  2  0  0  0  0  0  0
  189.1260  177.9620  145.5520 O   0  0  0  0  0  0  0  0  0  0  0  0
  190.0530  176.9830  145.9510 C   0  0  2  0  0  3  0  0  0  0  0  0
  189.9900  176.8420  147.4500 C   0  0  0  0  0  2  0  0  0  0  0  0
  188.1250  178.0080  146.5450 C   0  0  1  0  0  3  0  0  0  0  0  0
  191.4520  177.3950  145.5470 C   0  0  0  0  0  2  0  0  0  0  0  0
  191.5660  177.3870  144.0980 N   0  0  0  0  0  2  0  0  0  0  0  0
  191.5310  175.9960  143.6830 C   0  0  0  0  0  1  0  0  0  0  0  0
  187.2470  178.1410  142.1130 C   0  0  0  0  0  2  0  0  0  0  0  0
  186.5350  179.1970  141.2870 C   0  0  1  0  0  3  0  0  0  0  0  0
  187.1600  177.9920  140.6130 C   0  0  1  0  0  3  0  0  0  0  0  0
  188.4720  178.4030  139.9730 C   0  0  0  0  0  2  0  0  0  0  0  0
  187.9560  176.7900  137.5370 C   0  0  0  0  0  1  0  0  0  0  0  0
  189.2600  177.1770  139.6550 C   0  0  0  0  0  0  0  0  0  0  0  0
  190.1190  176.7670  140.4830 O   0  0  0  0  0  0  0  0  0  0  0  0
  189.1020  176.5080  138.3900 N   0  0  0  0  0  0  0  0  0  0  0  0
  190.1750  175.6810  137.8550 C   0  0  0  0  0  2  0  0  0  0  0  0
  191.2400  176.5550  137.2140 C   0  0  0  0  0  2  0  0  0  0  0  0
  193.4030  176.9310  139.1060 O   0  0  0  0  0  1  0  0  0  0  0  0
  194.6330  175.4190  137.9110 O   0  0  0  0  0  0  0  0  0  0  0  0
  193.5540  176.0450  138.0480 C   0  0  0  0  0  0  0  0  0  0  0  0
  192.4880  175.8220  137.1300 N   0  0  0  0  0  2  0  0  0  0  0  0
  2  9  2  0  0  0  0
  2  5  1  0  0  0  0
  3  1  1  0  0  0  0
  4  1  2  0  0  0  0
  5  6  2  0  0  0  0
  6 10  1  0  0  0  0
  6  3  1  0  0  0  0
  7 10  2  0  0  0  0
  8  9  1  0  0  0  0
  9  7  1  0  0  0  0
 10  4  1  0  0  0  0
 11 12  1  1  0  0  0
 11 14  1  0  0  0  0
 13  1  1  6  0  0  0
 13 11  1  0  0  0  0
 13 12  1  0  0  0  0
 14 16  1  0  0  0  0
 14 15  1  1  0  0  0
 16 21  1  0  0  0  0
 16 15  1  1  0  0  0
 18 19  1  0  0  0  0
 18 21  1  0  0  0  0
 19 22  1  1  0  0  0
 19 20  1  0  0  0  0
 20 17  1  0  0  0  0
 21 17  1  1  0  0  0
 23 22  1  0  0  0  0
 24 23  1  0  0  0  0
 26  3  1  1  0  0  0
 26 25  1  0  0  0  0
 27 28  1  6  0  0  0
 27 26  1  0  0  0  0
 27 25  1  0  0  0  0
 29 32  1  0  0  0  0
 30 28  1  0  0  0  0
 30 31  2  0  0  0  0
 32 30  1  0  0  0  0
 33 32  1  0  0  0  0
 34 33  1  0  0  0  0
 36 37  2  0  0  0  0
 37 35  1  0  0  0  0
 38 34  1  0  0  0  0
 38 37  1  0  0  0  0
M  END
>  <MODEL>
1

>  <REMARK>
 VINA RESULT:      -7.8      0.000      0.000
  Name = 
  11 active torsions:
  status: ('A' for Active; 'I' for Inactive)
    1  A    between atoms: C_1  and  C_36
    2  A    between atoms: N_2  and  C_3
    3  A    between atoms: N_6  and  C_23
    4  A    between atoms: C_8  and  C_17
    5  A    between atoms: C_8  and  C_29
    6  A    between atoms: C_12  and  C_27
    7  A    between atoms: C_12  and  N_34
    8  A    between atoms: N_16  and  C_38
    9  A    between atoms: C_22  and  C_38
   10  A    between atoms: C_27  and  N_37
   11  A    between atoms: C_30  and  C_35
                            x       y       z     vdW  Elec       q    Type
                         _______ _______ _______ _____ _____    ______ ____

>  <TORSDO>
F 11

$$$$
=
 OpenBabel10232408083D

 38 43  0  0  1  0  0  0  0  0999 V2000
  184.7400  179.0860  142.0520 C   0  0  0  0  0  0  0  0  0  0  0  0
  184.2920  177.8490  137.7820 C   0  0  0  0  0  3  0  0  0  0  0  0
  185.6320  178.9610  141.0320 N   0  0  0  0  0  0  0  0  0  0  0  0
  183.4610  178.7940  141.6880 N   0  0  0  0  0  0  0  0  0  0  0  0
  185.2880  178.2500  138.6890 C   0  0  0  0  0  3  0  0  0  0  0  0
  184.8860  178.5560  139.9910 C   0  0  0  0  0  0  0  0  0  0  0  0
  182.5720  178.0800  139.5120 C   0  0  0  0  0  3  0  0  0  0  0  0
  181.9720  177.3640  137.2790 O   0  0  0  0  0  1  0  0  0  0  0  0
  182.9390  177.7660  138.1890 C   0  0  0  0  0  0  0  0  0  0  0  0
  183.5840  178.4680  140.3880 C   0  0  0  0  0  0  0  0  0  0  0  0
  185.1020  178.2950  144.3390 N   0  0  1  0  0  0  0  0  0  0  0  0
  184.0000  179.2650  144.3530 C   0  0  0  0  0  2  0  0  0  0  0  0
  185.1310  179.4680  143.4480 C   0  0  2  0  0  3  0  0  0  0  0  0
  185.9580  178.6200  145.4610 C   0  0  1  0  0  3  0  0  0  0  0  0
  185.6390  177.7890  146.5460 O   0  0  0  0  0  0  0  0  0  0  0  0
  186.7930  177.4440  145.8130 C   0  0  2  0  0  3  0  0  0  0  0  0
  188.4620  177.0660  147.7060 C   0  0  0  0  0  2  0  0  0  0  0  0
  189.1300  177.9610  145.5860 O   0  0  0  0  0  0  0  0  0  0  0  0
  190.0390  176.9550  145.9620 C   0  0  2  0  0  3  0  0  0  0  0  0
  189.8830  176.6920  147.4370 C   0  0  0  0  0  2  0  0  0  0  0  0
  188.0680  177.9200  146.5130 C   0  0  1  0  0  3  0  0  0  0  0  0
  191.4560  177.4060  145.6830 C   0  0  0  0  0  2  0  0  0  0  0  0
  191.5200  178.0460  144.3790 N   0  0  0  0  0  2  0  0  0  0  0  0
  191.6050  176.9820  143.3950 C   0  0  0  0  0  1  0  0  0  0  0  0
  187.7070  177.9600  141.8900 C   0  0  0  0  0  2  0  0  0  0  0  0
  187.0860  179.1030  141.1060 C   0  0  1  0  0  3  0  0  0  0  0  0
  187.7390  177.9430  140.3810 C   0  0  1  0  0  3  0  0  0  0  0  0
  189.1070  178.3720  139.8860 C   0  0  0  0  0  2  0  0  0  0  0  0
  190.1650  176.1250  138.2630 C   0  0  0  0  0  1  0  0  0  0  0  0
  189.0950  178.3990  138.3940 C   0  0  0  0  0  0  0  0  0  0  0  0
  188.6960  179.4400  137.8030 O   0  0  0  0  0  0  0  0  0  0  0  0
  189.4610  177.2330  137.6340 N   0  0  0  0  0  0  0  0  0  0  0  0
  188.9710  177.0570  136.2730 C   0  0  0  0  0  2  0  0  0  0  0  0
  188.4000  175.6600  136.0990 C   0  0  0  0  0  2  0  0  0  0  0  0
  187.1230  173.2890  137.1710 O   0  0  0  0  0  0  0  0  0  0  0  0
  185.1770  174.4780  137.3290 O   0  0  0  0  0  1  0  0  0  0  0  0
  186.3920  174.4580  137.0150 C   0  0  0  0  0  0  0  0  0  0  0  0
  187.0130  175.6420  136.5230 N   0  0  0  0  0  2  0  0  0  0  0  0
  2  9  2  0  0  0  0
  2  5  1  0  0  0  0
  3  1  1  0  0  0  0
  4  1  2  0  0  0  0
  5  6  2  0  0  0  0
  6 10  1  0  0  0  0
  6  3  1  0  0  0  0
  7 10  2  0  0  0  0
  8  9  1  0  0  0  0
  9  7  1  0  0  0  0
 10  4  1  0  0  0  0
 11 12  1  1  0  0  0
 11 14  1  0  0  0  0
 13  1  1  6  0  0  0
 13 11  1  0  0  0  0
 13 12  1  0  0  0  0
 14 16  1  0  0  0  0
 14 15  1  1  0  0  0
 16 21  1  0  0  0  0
 16 15  1  1  0  0  0
 18 19  1  0  0  0  0
 18 21  1  0  0  0  0
 19 22  1  1  0  0  0
 19 20  1  0  0  0  0
 20 17  1  0  0  0  0
 21 17  1  1  0  0  0
 23 22  1  0  0  0  0
 24 23  1  0  0  0  0
 26  3  1  6  0  0  0
 26 25  1  0  0  0  0
 27 28  1  1  0  0  0
 27 26  1  0  0  0  0
 27 25  1  0  0  0  0
 30 28  1  0  0  0  0
 31 30  2  0  0  0  0
 32 29  1  0  0  0  0
 32 30  1  0  0  0  0
 33 32  1  0  0  0  0
 34 33  1  0  0  0  0
 34 38  1  0  0  0  0
 37 35  2  0  0  0  0
 37 36  1  0  0  0  0
 38 37  1  0  0  0  0
M  END
>  <MODEL>
2

>  <REMARK>
 VINA RESULT:      -7.7      1.913      2.741
  Name = 
  11 active torsions:
  status: ('A' for Active; 'I' for Inactive)
    1  A    between atoms: C_1  and  C_36
    2  A    between atoms: N_2  and  C_3
    3  A    between atoms: N_6  and  C_23
    4  A    between atoms: C_8  and  C_17
    5  A    between atoms: C_8  and  C_29
    6  A    between atoms: C_12  and  C_27
    7  A    between atoms: C_12  and  N_34
    8  A    between atoms: N_16  and  C_38
    9  A    between atoms: C_22  and  C_38
   10  A    between atoms: C_27  and  N_37
   11  A    between atoms: C_30  and  C_35
                            x       y       z     vdW  Elec       q    Type
                         _______ _______ _______ _____ _____    ______ ____

>  <TORSDO>
F 11

$$$$
=
 OpenBabel10232408083D

 38 43  0  0  1  0  0  0  0  0999 V2000
  189.0050  177.2050  143.1670 C   0  0  0  0  0  0  0  0  0  0  0  0
  189.6980  176.9500  147.5740 C   0  0  0  0  0  3  0  0  0  0  0  0
  188.1580  177.1800  144.2310 N   0  0  0  0  0  0  0  0  0  0  0  0
  190.3180  177.1630  143.5230 N   0  0  0  0  0  0  0  0  0  0  0  0
  188.6390  177.0220  146.6520 C   0  0  0  0  0  3  0  0  0  0  0  0
  188.9710  177.1000  145.2980 C   0  0  0  0  0  0  0  0  0  0  0  0
  191.3370  177.0370  145.7550 C   0  0  0  0  0  3  0  0  0  0  0  0
  192.0710  176.8850  148.0560 O   0  0  0  0  0  1  0  0  0  0  0  0
  191.0420  176.9600  147.1290 C   0  0  0  0  0  0  0  0  0  0  0  0
  190.2660  177.1010  144.8670 C   0  0  0  0  0  0  0  0  0  0  0  0
  189.6430  177.5990  140.8380 N   0  0  1  0  0  0  0  0  0  0  0  0
  188.6330  178.5950  141.2180 C   0  0  0  0  0  2  0  0  0  0  0  0
  188.5390  177.2340  141.7420 C   0  0  2  0  0  3  0  0  0  0  0  0
  189.2710  177.1070  139.5280 C   0  0  1  0  0  3  0  0  0  0  0  0
  189.7790  177.9690  138.5440 O   0  0  0  0  0  0  0  0  0  0  0  0
  190.4910  176.7700  138.7520 C   0  0  2  0  0  3  0  0  0  0  0  0
  190.2540  176.2320  136.2690 C   0  0  0  0  0  2  0  0  0  0  0  0
  190.9740  174.5910  137.8600 O   0  0  0  0  0  0  0  0  0  0  0  0
  191.8230  174.5410  136.7390 C   0  0  2  0  0  3  0  0  0  0  0  0
  191.1470  175.2450  135.5910 C   0  0  0  0  0  2  0  0  0  0  0  0
  190.1440  175.7190  137.6950 C   0  0  1  0  0  3  0  0  0  0  0  0
  192.0900  173.1020  136.3540 C   0  0  0  0  0  2  0  0  0  0  0  0
  193.5240  172.8760  136.2690 N   0  0  0  0  0  2  0  0  0  0  0  0
  193.7160  171.4410  136.1700 C   0  0  0  0  0  1  0  0  0  0  0  0
  186.0860  178.0260  145.2480 C   0  0  0  0  0  2  0  0  0  0  0  0
  186.6960  177.1150  144.1980 C   0  0  1  0  0  3  0  0  0  0  0  0
  186.1450  178.4720  143.8070 C   0  0  1  0  0  3  0  0  0  0  0  0
  184.7900  178.2880  143.1520 C   0  0  0  0  0  2  0  0  0  0  0  0
  183.0620  177.2840  140.9580 C   0  0  0  0  0  1  0  0  0  0  0  0
  184.8330  178.8730  141.7790 C   0  0  0  0  0  0  0  0  0  0  0  0
  185.6840  179.7680  141.5200 O   0  0  0  0  0  0  0  0  0  0  0  0
  183.8740  178.4800  140.7820 N   0  0  0  0  0  0  0  0  0  0  0  0
  183.5610  179.3690  139.6700 C   0  0  0  0  0  2  0  0  0  0  0  0
  183.7260  178.6350  138.3500 C   0  0  0  0  0  2  0  0  0  0  0  0
  184.5960  176.7630  136.3160 O   0  0  0  0  0  0  0  0  0  0  0  0
  186.7350  177.0140  137.0810 O   0  0  0  0  0  1  0  0  0  0  0  0
  185.5240  177.3270  137.1790 C   0  0  0  0  0  0  0  0  0  0  0  0
  185.1180  178.2760  138.1610 N   0  0  0  0  0  2  0  0  0  0  0  0
  1  4  2  0  0  0  0
  1  3  1  0  0  0  0
  3  6  1  0  0  0  0
  4 10  1  0  0  0  0
  5  2  2  0  0  0  0
  6  5  1  0  0  0  0
  7  9  2  0  0  0  0
  9  2  1  0  0  0  0
  9  8  1  0  0  0  0
 10  6  2  0  0  0  0
 10  7  1  0  0  0  0
 11 12  1  6  0  0  0
 11 13  1  0  0  0  0
 12 13  1  0  0  0  0
 13  1  1  1  0  0  0
 14 15  1  6  0  0  0
 14 11  1  0  0  0  0
 16 15  1  6  0  0  0
 16 14  1  0  0  0  0
 19 22  1  6  0  0  0
 19 18  1  0  0  0  0
 20 17  1  0  0  0  0
 20 19  1  0  0  0  0
 21 17  1  6  0  0  0
 21 18  1  0  0  0  0
 21 16  1  0  0  0  0
 23 22  1  0  0  0  0
 24 23  1  0  0  0  0
 26  3  1  1  0  0  0
 26 25  1  0  0  0  0
 27 28  1  6  0  0  0
 27 26  1  0  0  0  0
 27 25  1  0  0  0  0
 30 28  1  0  0  0  0
 31 30  2  0  0  0  0
 32 29  1  0  0  0  0
 32 30  1  0  0  0  0
 33 32  1  0  0  0  0
 34 33  1  0  0  0  0
 35 37  2  0  0  0  0
 36 37  1  0  0  0  0
 37 38  1  0  0  0  0
 38 34  1  0  0  0  0
M  END
>  <MODEL>
3

>  <REMARK>
 VINA RESULT:      -7.6      2.455      8.304
  Name = 
  11 active torsions:
  status: ('A' for Active; 'I' for Inactive)
    1  A    between atoms: C_1  and  C_36
    2  A    between atoms: N_2  and  C_3
    3  A    between atoms: N_6  and  C_23
    4  A    between atoms: C_8  and  C_17
    5  A    between atoms: C_8  and  C_29
    6  A    between atoms: C_12  and  C_27
    7  A    between atoms: C_12  and  N_34
    8  A    between atoms: N_16  and  C_38
    9  A    between atoms: C_22  and  C_38
   10  A    between atoms: C_27  and  N_37
   11  A    between atoms: C_30  and  C_35
                            x       y       z     vdW  Elec       q    Type
                         _______ _______ _______ _____ _____    ______ ____

>  <TORSDO>
F 11

$$$$
=
 OpenBabel10232408083D

 38 43  0  0  1  0  0  0  0  0999 V2000
  189.1000  177.1120  143.0030 C   0  0  0  0  0  0  0  0  0  0  0  0
  189.5980  177.0010  147.4430 C   0  0  0  0  0  3  0  0  0  0  0  0
  188.2070  177.1320  144.0300 N   0  0  0  0  0  0  0  0  0  0  0  0
  190.3960  177.0690  143.4180 N   0  0  0  0  0  0  0  0  0  0  0  0
  188.5810  177.0520  146.4730 C   0  0  0  0  0  3  0  0  0  0  0  0
  188.9730  177.0800  145.1330 C   0  0  0  0  0  0  0  0  0  0  0  0
  191.3160  177.0090  145.6950 C   0  0  0  0  0  3  0  0  0  0  0  0
  191.9470  176.9280  148.0300 O   0  0  0  0  0  1  0  0  0  0  0  0
  190.9600  176.9810  147.0570 C   0  0  0  0  0  0  0  0  0  0  0  0
  190.2840  177.0530  144.7590 C   0  0  0  0  0  0  0  0  0  0  0  0
  189.8500  177.3910  140.6910 N   0  0  1  0  0  0  0  0  0  0  0  0
  188.8580  178.4330  140.9860 C   0  0  0  0  0  2  0  0  0  0  0  0
  188.6970  177.0970  141.5590 C   0  0  2  0  0  3  0  0  0  0  0  0
  189.5190  176.8580  139.3860 C   0  0  1  0  0  3  0  0  0  0  0  0
  190.0550  177.6900  138.3920 O   0  0  0  0  0  0  0  0  0  0  0  0
  190.7620  176.5000  138.6590 C   0  0  2  0  0  3  0  0  0  0  0  0
  190.4410  175.9260  136.1930 C   0  0  0  0  0  2  0  0  0  0  0  0
  191.3800  174.3630  137.7480 O   0  0  0  0  0  0  0  0  0  0  0  0
  192.1680  174.3760  136.5840 C   0  0  2  0  0  3  0  0  0  0  0  0
  191.3760  175.0120  135.4710 C   0  0  0  0  0  2  0  0  0  0  0  0
  190.4500  175.4170  137.6250 C   0  0  1  0  0  3  0  0  0  0  0  0
  192.5350  172.9620  136.1890 C   0  0  0  0  0  2  0  0  0  0  0  0
  193.8680  172.6460  136.6790 N   0  0  0  0  0  2  0  0  0  0  0  0
  194.6990  173.8040  136.4040 C   0  0  0  0  0  1  0  0  0  0  0  0
  186.1060  178.1130  144.8440 C   0  0  0  0  0  2  0  0  0  0  0  0
  186.7480  177.0810  143.9340 C   0  0  1  0  0  3  0  0  0  0  0  0
  186.2380  178.3900  143.3660 C   0  0  1  0  0  3  0  0  0  0  0  0
  184.9120  178.1490  142.6720 C   0  0  0  0  0  2  0  0  0  0  0  0
  183.0970  177.3480  140.4660 C   0  0  0  0  0  1  0  0  0  0  0  0
  184.9290  178.8320  141.3450 C   0  0  0  0  0  0  0  0  0  0  0  0
  185.7930  179.7250  141.1260 O   0  0  0  0  0  0  0  0  0  0  0  0
  183.9310  178.5360  140.3520 N   0  0  0  0  0  0  0  0  0  0  0  0
  183.6060  179.5110  139.3190 C   0  0  0  0  0  2  0  0  0  0  0  0
  182.1110  179.5110  139.0490 C   0  0  0  0  0  2  0  0  0  0  0  0
  180.8980  180.2320  136.5180 O   0  0  0  0  0  0  0  0  0  0  0  0
  180.7760  182.3920  137.2580 O   0  0  0  0  0  1  0  0  0  0  0  0
  181.1060  181.2030  137.4870 C   0  0  0  0  0  0  0  0  0  0  0  0
  181.6680  180.8590  138.7500 N   0  0  0  0  0  2  0  0  0  0  0  0
  1  4  2  0  0  0  0
  1  3  1  0  0  0  0
  3  6  1  0  0  0  0
  4 10  1  0  0  0  0
  5  2  2  0  0  0  0
  6  5  1  0  0  0  0
  7  9  2  0  0  0  0
  9  2  1  0  0  0  0
  9  8  1  0  0  0  0
 10  6  2  0  0  0  0
 10  7  1  0  0  0  0
 11 12  1  6  0  0  0
 11 13  1  0  0  0  0
 12 13  1  0  0  0  0
 13  1  1  1  0  0  0
 14 15  1  6  0  0  0
 14 11  1  0  0  0  0
 16 15  1  6  0  0  0
 16 14  1  0  0  0  0
 19 22  1  6  0  0  0
 19 18  1  0  0  0  0
 20 17  1  0  0  0  0
 20 19  1  0  0  0  0
 21 17  1  6  0  0  0
 21 18  1  0  0  0  0
 21 16  1  0  0  0  0
 22 23  1  0  0  0  0
 24 23  1  0  0  0  0
 26  3  1  1  0  0  0
 26 25  1  0  0  0  0
 27 28  1  6  0  0  0
 27 26  1  0  0  0  0
 27 25  1  0  0  0  0
 30 28  1  0  0  0  0
 31 30  2  0  0  0  0
 32 29  1  0  0  0  0
 32 30  1  0  0  0  0
 33 32  1  0  0  0  0
 34 33  1  0  0  0  0
 35 37  2  0  0  0  0
 36 37  1  0  0  0  0
 37 38  1  0  0  0  0
 38 34  1  0  0  0  0
M  END
>  <MODEL>
4

>  <REMARK>
 VINA RESULT:      -7.4      2.485      9.052
  Name = 
  11 active torsions:
  status: ('A' for Active; 'I' for Inactive)
    1  A    between atoms: C_1  and  C_36
    2  A    between atoms: N_2  and  C_3
    3  A    between atoms: N_6  and  C_23
    4  A    between atoms: C_8  and  C_17
    5  A    between atoms: C_8  and  C_29
    6  A    between atoms: C_12  and  C_27
    7  A    between atoms: C_12  and  N_34
    8  A    between atoms: N_16  and  C_38
    9  A    between atoms: C_22  and  C_38
   10  A    between atoms: C_27  and  N_37
   11  A    between atoms: C_30  and  C_35
                            x       y       z     vdW  Elec       q    Type
                         _______ _______ _______ _____ _____    ______ ____

>  <TORSDO>
F 11

$$$$
=
 OpenBabel10232408083D

 38 43  0  0  1  0  0  0  0  0999 V2000
  189.2830  177.2270  136.8620 C   0  0  0  0  0  0  0  0  0  0  0  0
  192.7860  174.4900  137.3090 C   0  0  0  0  0  3  0  0  0  0  0  0
  190.2040  177.0660  137.8500 N   0  0  0  0  0  0  0  0  0  0  0  0
  189.4860  176.4040  135.7970 N   0  0  0  0  0  0  0  0  0  0  0  0
  192.1120  175.5020  138.0140 C   0  0  0  0  0  3  0  0  0  0  0  0
  191.0060  176.0890  137.3960 C   0  0  0  0  0  0  0  0  0  0  0  0
  191.2260  174.7080  135.4320 C   0  0  0  0  0  3  0  0  0  0  0  0
  193.0250  173.0910  135.3450 O   0  0  0  0  0  1  0  0  0  0  0  0
  192.3470  174.0940  136.0230 C   0  0  0  0  0  0  0  0  0  0  0  0
  190.5770  175.7030  136.1600 C   0  0  0  0  0  0  0  0  0  0  0  0
  186.8690  177.4670  137.1780 N   0  0  1  0  0  0  0  0  0  0  0  0
  187.2130  177.9640  135.8400 C   0  0  0  0  0  2  0  0  0  0  0  0
  188.1340  178.1870  136.9530 C   0  0  2  0  0  3  0  0  0  0  0  0
  185.9550  178.4310  137.7580 C   0  0  1  0  0  3  0  0  0  0  0  0
  184.6340  178.0390  137.4930 O   0  0  0  0  0  0  0  0  0  0  0  0
  185.1180  177.7710  138.7900 C   0  0  2  0  0  3  0  0  0  0  0  0
  183.2000  178.6160  140.2460 C   0  0  0  0  0  2  0  0  0  0  0  0
  185.4900  178.8220  140.9200 O   0  0  0  0  0  0  0  0  0  0  0  0
  184.7390  178.3350  142.0050 C   0  0  2  0  0  3  0  0  0  0  0  0
  183.2800  178.5990  141.7380 C   0  0  0  0  0  2  0  0  0  0  0  0
  184.6370  178.8190  139.7970 C   0  0  1  0  0  3  0  0  0  0  0  0
  185.1480  179.0420  143.2790 C   0  0  0  0  0  2  0  0  0  0  0  0
  185.6160  178.0670  144.2510 N   0  0  0  0  0  2  0  0  0  0  0  0
  185.3960  178.6480  145.5640 C   0  0  0  0  0  1  0  0  0  0  0  0
  189.0250  177.2910  139.9950 C   0  0  0  0  0  2  0  0  0  0  0  0
  190.2190  177.7180  139.1610 C   0  0  1  0  0  3  0  0  0  0  0  0
  190.3770  176.6650  140.2400 C   0  0  1  0  0  3  0  0  0  0  0  0
  191.0270  177.2940  141.4570 C   0  0  0  0  0  2  0  0  0  0  0  0
  190.5090  178.9040  143.8940 C   0  0  0  0  0  1  0  0  0  0  0  0
  190.4290  176.6970  142.6870 C   0  0  0  0  0  0  0  0  0  0  0  0
  190.2080  175.4550  142.7220 O   0  0  0  0  0  0  0  0  0  0  0  0
  190.0370  177.5310  143.7930 N   0  0  0  0  0  0  0  0  0  0  0  0
  189.0150  177.0810  144.7290 C   0  0  0  0  0  2  0  0  0  0  0  0
  189.2730  177.6650  146.1070 C   0  0  0  0  0  2  0  0  0  0  0  0
  192.1060  177.1040  146.3500 O   0  0  0  0  0  0  0  0  0  0  0  0
  191.5890  175.4190  147.8070 O   0  0  0  0  0  1  0  0  0  0  0  0
  191.1870  176.3490  147.0660 C   0  0  0  0  0  0  0  0  0  0  0  0
  189.7940  176.6350  146.9850 N   0  0  0  0  0  2  0  0  0  0  0  0
  1  3  1  0  0  0  0
  2  5  1  0  0  0  0
  4 10  1  0  0  0  0
  4  1  2  0  0  0  0
  6  3  1  0  0  0  0
  6  5  2  0  0  0  0
  7  9  1  0  0  0  0
  7 10  2  0  0  0  0
  8  9  1  0  0  0  0
  9  2  2  0  0  0  0
 10  6  1  0  0  0  0
 11 12  1  6  0  0  0
 11 14  1  0  0  0  0
 12 13  1  0  0  0  0
 13  1  1  6  0  0  0
 13 11  1  0  0  0  0
 14 15  1  6  0  0  0
 14 16  1  0  0  0  0
 16 15  1  6  0  0  0
 16 21  1  0  0  0  0
 17 20  1  0  0  0  0
 18 19  1  0  0  0  0
 19 22  1  1  0  0  0
 20 19  1  0  0  0  0
 21 17  1  1  0  0  0
 21 18  1  0  0  0  0
 22 23  1  0  0  0  0
 23 24  1  0  0  0  0
 25 27  1  0  0  0  0
 26  3  1  6  0  0  0
 26 25  1  0  0  0  0
 26 27  1  0  0  0  0
 27 28  1  1  0  0  0
 28 30  1  0  0  0  0
 30 31  2  0  0  0  0
 30 32  1  0  0  0  0
 32 29  1  0  0  0  0
 32 33  1  0  0  0  0
 33 34  1  0  0  0  0
 34 38  1  0  0  0  0
 35 37  2  0  0  0  0
 37 36  1  0  0  0  0
 38 37  1  0  0  0  0
M  END
>  <MODEL>
5

>  <REMARK>
 VINA RESULT:      -7.4      2.268      7.968
  Name = 
  11 active torsions:
  status: ('A' for Active; 'I' for Inactive)
    1  A    between atoms: C_1  and  C_36
    2  A    between atoms: N_2  and  C_3
    3  A    between atoms: N_6  and  C_23
    4  A    between atoms: C_8  and  C_17
    5  A    between atoms: C_8  and  C_29
    6  A    between atoms: C_12  and  C_27
    7  A    between atoms: C_12  and  N_34
    8  A    between atoms: N_16  and  C_38
    9  A    between atoms: C_22  and  C_38
   10  A    between atoms: C_27  and  N_37
   11  A    between atoms: C_30  and  C_35
                            x       y       z     vdW  Elec       q    Type
                         _______ _______ _______ _____ _____    ______ ____

>  <TORSDO>
F 11

$$$$
=
 OpenBabel10232408083D

 38 43  0  0  1  0  0  0  0  0999 V2000
  187.0920  177.2650  145.7010 C   0  0  0  0  0  0  0  0  0  0  0  0
  191.5350  176.7980  145.7950 C   0  0  0  0  0  3  0  0  0  0  0  0
  188.0130  177.0350  144.7270 N   0  0  0  0  0  0  0  0  0  0  0  0
  187.6340  177.3490  146.9470 N   0  0  0  0  0  0  0  0  0  0  0  0
  190.4710  176.8050  144.8760 C   0  0  0  0  0  3  0  0  0  0  0  0
  189.1840  176.9920  145.3850 C   0  0  0  0  0  0  0  0  0  0  0  0
  189.9800  177.1620  147.6540 C   0  0  0  0  0  3  0  0  0  0  0  0
  192.3560  176.9680  148.0680 O   0  0  0  0  0  1  0  0  0  0  0  0
  191.2920  176.9740  147.1790 C   0  0  0  0  0  0  0  0  0  0  0  0
  188.9490  177.1700  146.7170 C   0  0  0  0  0  0  0  0  0  0  0  0
  185.3530  178.8160  144.9560 N   0  0  1  0  0  0  0  0  0  0  0  0
  185.0720  178.4390  146.3460 C   0  0  0  0  0  2  0  0  0  0  0  0
  185.6290  177.4480  145.4260 C   0  0  2  0  0  3  0  0  0  0  0  0
  184.0930  178.7510  144.2440 C   0  0  1  0  0  3  0  0  0  0  0  0
  183.8070  180.0070  143.6860 O   0  0  0  0  0  0  0  0  0  0  0  0
  184.3140  179.0320  142.8030 C   0  0  2  0  0  3  0  0  0  0  0  0
  182.2530  179.3790  141.3400 C   0  0  0  0  0  2  0  0  0  0  0  0
  183.7640  177.5530  140.9900 O   0  0  0  0  0  0  0  0  0  0  0  0
  183.4800  178.1520  139.7500 C   0  0  2  0  0  3  0  0  0  0  0  0
  182.2420  178.9990  139.8960 C   0  0  0  0  0  2  0  0  0  0  0  0
  183.1990  178.3800  141.9830 C   0  0  1  0  0  3  0  0  0  0  0  0
  183.2340  177.0880  138.7020 C   0  0  0  0  0  2  0  0  0  0  0  0
  183.9760  177.4100  137.4940 N   0  0  0  0  0  2  0  0  0  0  0  0
  185.2560  177.9470  137.9190 C   0  0  0  0  0  1  0  0  0  0  0  0
  187.6870  178.3870  142.7000 C   0  0  0  0  0  2  0  0  0  0  0  0
  187.7820  176.9880  143.2820 C   0  0  1  0  0  3  0  0  0  0  0  0
  188.9690  177.6010  142.5660 C   0  0  1  0  0  3  0  0  0  0  0  0
  189.0710  177.0070  141.1740 C   0  0  0  0  0  2  0  0  0  0  0  0
  189.9350  176.0980  138.4860 C   0  0  0  0  0  1  0  0  0  0  0  0
  190.5120  176.8840  140.8060 C   0  0  0  0  0  0  0  0  0  0  0  0
  191.3910  177.0970  141.6850 O   0  0  0  0  0  0  0  0  0  0  0  0
  190.9030  176.6010  139.4500 N   0  0  0  0  0  0  0  0  0  0  0  0
  192.2220  176.9880  138.9670 C   0  0  0  0  0  2  0  0  0  0  0  0
  192.4970  176.3420  137.6200 C   0  0  0  0  0  2  0  0  0  0  0  0
  193.9880  173.8690  137.8630 O   0  0  0  0  0  1  0  0  0  0  0  0
  195.8950  175.0400  137.3930 O   0  0  0  0  0  0  0  0  0  0  0  0
  194.6500  175.0490  137.5540 C   0  0  0  0  0  0  0  0  0  0  0  0
  193.9280  176.2660  137.3960 N   0  0  0  0  0  2  0  0  0  0  0  0
  1  4  2  0  0  0  0
  2  9  1  0  0  0  0
  3  6  1  0  0  0  0
  3  1  1  0  0  0  0
  5  6  1  0  0  0  0
  5  2  2  0  0  0  0
  6 10  2  0  0  0  0
  9  7  2  0  0  0  0
  9  8  1  0  0  0  0
 10  4  1  0  0  0  0
 10  7  1  0  0  0  0
 11 13  1  0  0  0  0
 11 12  1  1  0  0  0
 13  1  1  1  0  0  0
 13 12  1  0  0  0  0
 14 15  1  1  0  0  0
 14 11  1  0  0  0  0
 16 15  1  1  0  0  0
 16 14  1  0  0  0  0
 18 21  1  0  0  0  0
 19 22  1  6  0  0  0
 19 20  1  0  0  0  0
 19 18  1  0  0  0  0
 20 17  1  0  0  0  0
 21 17  1  6  0  0  0
 21 16  1  0  0  0  0
 23 24  1  0  0  0  0
 23 22  1  0  0  0  0
 26 25  1  1  0  0  0
 26  3  1  0  0  0  0
 27 28  1  6  0  0  0
 27 25  1  0  0  0  0
 27 26  1  0  0  0  0
 29 32  1  0  0  0  0
 30 28  1  0  0  0  0
 30 31  2  0  0  0  0
 32 30  1  0  0  0  0
 33 32  1  0  0  0  0
 34 33  1  0  0  0  0
 36 37  2  0  0  0  0
 37 35  1  0  0  0  0
 38 37  1  0  0  0  0
 38 34  1  0  0  0  0
M  END
>  <MODEL>
6

>  <REMARK>
 VINA RESULT:      -7.3      2.040      6.719
  Name = 
  11 active torsions:
  status: ('A' for Active; 'I' for Inactive)
    1  A    between atoms: C_1  and  C_36
    2  A    between atoms: N_2  and  C_3
    3  A    between atoms: N_6  and  C_23
    4  A    between atoms: C_8  and  C_17
    5  A    between atoms: C_8  and  C_29
    6  A    between atoms: C_12  and  C_27
    7  A    between atoms: C_12  and  N_34
    8  A    between atoms: N_16  and  C_38
    9  A    between atoms: C_22  and  C_38
   10  A    between atoms: C_27  and  N_37
   11  A    between atoms: C_30  and  C_35
                            x       y       z     vdW  Elec       q    Type
                         _______ _______ _______ _____ _____    ______ ____

>  <TORSDO>
F 11

$$$$
=
 OpenBabel10232408083D

 38 43  0  0  1  0  0  0  0  0999 V2000
  188.4820  178.0380  141.8530 C   0  0  0  0  0  0  0  0  0  0  0  0
  189.4430  177.1300  146.1210 C   0  0  0  0  0  3  0  0  0  0  0  0
  187.7010  177.8000  142.9410 N   0  0  0  0  0  0  0  0  0  0  0  0
  189.8150  178.0110  142.1300 N   0  0  0  0  0  0  0  0  0  0  0  0
  188.3300  177.2890  145.2770 C   0  0  0  0  0  3  0  0  0  0  0  0
  188.5780  177.5970  143.9380 C   0  0  0  0  0  0  0  0  0  0  0  0
  190.9670  177.5900  144.2580 C   0  0  0  0  0  3  0  0  0  0  0  0
  191.8410  177.1170  146.4650 O   0  0  0  0  0  1  0  0  0  0  0  0
  190.7560  177.2810  145.6160 C   0  0  0  0  0  0  0  0  0  0  0  0
  189.8430  177.7350  143.4480 C   0  0  0  0  0  0  0  0  0  0  0  0
  188.5850  177.3790  139.4990 N   0  0  1  0  0  0  0  0  0  0  0  0
  188.9830  178.7890  139.6040 C   0  0  0  0  0  2  0  0  0  0  0  0
  187.9320  178.2660  140.4760 C   0  0  2  0  0  3  0  0  0  0  0  0
  187.6790  177.2840  138.3720 C   0  0  1  0  0  3  0  0  0  0  0  0
  188.4170  177.2930  137.1780 O   0  0  0  0  0  0  0  0  0  0  0  0
  187.9490  176.0370  137.6140 C   0  0  2  0  0  3  0  0  0  0  0  0
  186.8640  175.5460  135.3570 C   0  0  0  0  0  2  0  0  0  0  0  0
  186.2380  174.3700  137.3490 O   0  0  0  0  0  0  0  0  0  0  0  0
  186.4170  173.4400  136.3090 C   0  0  2  0  0  3  0  0  0  0  0  0
  186.3920  174.1760  134.9940 C   0  0  0  0  0  2  0  0  0  0  0  0
  186.6830  175.6170  136.8640 C   0  0  1  0  0  3  0  0  0  0  0  0
  185.3020  172.4170  136.3280 C   0  0  0  0  0  2  0  0  0  0  0  0
  184.1460  172.9650  137.0200 N   0  0  0  0  0  2  0  0  0  0  0  0
  183.0150  172.8250  136.1210 C   0  0  0  0  0  1  0  0  0  0  0  0
  185.6160  178.7180  143.8650 C   0  0  0  0  0  2  0  0  0  0  0  0
  186.2440  177.6630  142.9720 C   0  0  1  0  0  3  0  0  0  0  0  0
  185.6130  178.9010  142.3660 C   0  0  1  0  0  3  0  0  0  0  0  0
  184.2520  178.5410  141.8020 C   0  0  0  0  0  2  0  0  0  0  0  0
  182.9810  176.7190  139.8350 C   0  0  0  0  0  1  0  0  0  0  0  0
  184.2400  178.8390  140.3400 C   0  0  0  0  0  0  0  0  0  0  0  0
  184.8560  179.8550  139.9160 O   0  0  0  0  0  0  0  0  0  0  0  0
  183.4780  178.0260  139.4300 N   0  0  0  0  0  0  0  0  0  0  0  0
  183.0280  178.5710  138.1550 C   0  0  0  0  0  2  0  0  0  0  0  0
  181.6720  179.2370  138.3190 C   0  0  0  0  0  2  0  0  0  0  0  0
  180.2600  181.4060  139.6220 O   0  0  0  0  0  1  0  0  0  0  0  0
  181.0670  182.8190  138.0170 O   0  0  0  0  0  0  0  0  0  0  0  0
  181.0120  181.6560  138.4830 C   0  0  0  0  0  0  0  0  0  0  0  0
  181.7410  180.6080  137.8510 N   0  0  0  0  0  2  0  0  0  0  0  0
  1  4  2  0  0  0  0
  1  3  1  0  0  0  0
  3  6  1  0  0  0  0
  4 10  1  0  0  0  0
  5  2  2  0  0  0  0
  6  5  1  0  0  0  0
  7  9  2  0  0  0  0
  9  2  1  0  0  0  0
  9  8  1  0  0  0  0
 10  6  2  0  0  0  0
 10  7  1  0  0  0  0
 11 12  1  6  0  0  0
 11 13  1  0  0  0  0
 12 13  1  0  0  0  0
 13  1  1  1  0  0  0
 14 15  1  6  0  0  0
 14 11  1  0  0  0  0
 16 15  1  6  0  0  0
 16 14  1  0  0  0  0
 19 22  1  6  0  0  0
 19 18  1  0  0  0  0
 20 17  1  0  0  0  0
 20 19  1  0  0  0  0
 21 17  1  6  0  0  0
 21 18  1  0  0  0  0
 21 16  1  0  0  0  0
 22 23  1  0  0  0  0
 24 23  1  0  0  0  0
 26  3  1  1  0  0  0
 26 25  1  0  0  0  0
 27 28  1  6  0  0  0
 27 26  1  0  0  0  0
 27 25  1  0  0  0  0
 30 28  1  0  0  0  0
 31 30  2  0  0  0  0
 32 29  1  0  0  0  0
 32 30  1  0  0  0  0
 33 34  1  0  0  0  0
 33 32  1  0  0  0  0
 36 37  2  0  0  0  0
 37 35  1  0  0  0  0
 38 34  1  0  0  0  0
 38 37  1  0  0  0  0
M  END
>  <MODEL>
7

>  <REMARK>
 VINA RESULT:      -7.3      3.103      9.204
  Name = 
  11 active torsions:
  status: ('A' for Active; 'I' for Inactive)
    1  A    between atoms: C_1  and  C_36
    2  A    between atoms: N_2  and  C_3
    3  A    between atoms: N_6  and  C_23
    4  A    between atoms: C_8  and  C_17
    5  A    between atoms: C_8  and  C_29
    6  A    between atoms: C_12  and  C_27
    7  A    between atoms: C_12  and  N_34
    8  A    between atoms: N_16  and  C_38
    9  A    between atoms: C_22  and  C_38
   10  A    between atoms: C_27  and  N_37
   11  A    between atoms: C_30  and  C_35
                            x       y       z     vdW  Elec       q    Type
                         _______ _______ _______ _____ _____    ______ ____

>  <TORSDO>
F 11

$$$$
=
 OpenBabel10232408083D

 38 43  0  0  1  0  0  0  0  0999 V2000
  186.9530  177.6600  143.4740 C   0  0  0  0  0  0  0  0  0  0  0  0
  191.2340  176.8090  144.4340 C   0  0  0  0  0  3  0  0  0  0  0  0
  188.0260  177.3490  142.6970 N   0  0  0  0  0  0  0  0  0  0  0  0
  187.2450  177.7000  144.8030 N   0  0  0  0  0  0  0  0  0  0  0  0
  190.3760  176.9060  143.3240 C   0  0  0  0  0  3  0  0  0  0  0  0
  189.0350  177.2060  143.5720 C   0  0  0  0  0  0  0  0  0  0  0  0
  189.3790  177.3120  145.9550 C   0  0  0  0  0  3  0  0  0  0  0  0
  191.6020  176.9120  146.8260 O   0  0  0  0  0  1  0  0  0  0  0  0
  190.7380  177.0090  145.7450 C   0  0  0  0  0  0  0  0  0  0  0  0
  188.5580  177.4070  144.8340 C   0  0  0  0  0  0  0  0  0  0  0  0
  185.6200  179.2200  142.1420 N   0  0  1  0  0  0  0  0  0  0  0  0
  185.0880  179.2070  143.5110 C   0  0  0  0  0  2  0  0  0  0  0  0
  185.5950  177.9700  142.9200 C   0  0  2  0  0  3  0  0  0  0  0  0
  184.4780  179.1640  141.2510 C   0  0  1  0  0  3  0  0  0  0  0  0
  184.7750  179.8590  140.0690 O   0  0  0  0  0  0  0  0  0  0  0  0
  184.8500  178.4530  140.0030 C   0  0  2  0  0  3  0  0  0  0  0  0
  183.1470  178.5660  138.1060 C   0  0  0  0  0  2  0  0  0  0  0  0
  183.8110  176.4860  139.0920 O   0  0  0  0  0  0  0  0  0  0  0  0
  183.8300  176.3520  137.6920 C   0  0  2  0  0  3  0  0  0  0  0  0
  183.0300  177.4790  137.0890 C   0  0  0  0  0  2  0  0  0  0  0  0
  183.5930  177.8510  139.3700 C   0  0  1  0  0  3  0  0  0  0  0  0
  183.2120  175.0310  137.2870 C   0  0  0  0  0  2  0  0  0  0  0  0
  184.2280  174.1780  136.6900 N   0  0  0  0  0  2  0  0  0  0  0  0
  184.6530  173.2490  137.7210 C   0  0  0  0  0  1  0  0  0  0  0  0
  188.4910  178.6700  140.6770 C   0  0  0  0  0  2  0  0  0  0  0  0
  188.0800  177.3180  141.2350 C   0  0  1  0  0  3  0  0  0  0  0  0
  189.5070  177.5580  140.7830 C   0  0  1  0  0  3  0  0  0  0  0  0
  189.7150  176.9140  139.4270 C   0  0  0  0  0  2  0  0  0  0  0  0
  190.7640  175.1270  137.3030 C   0  0  0  0  0  1  0  0  0  0  0  0
  191.1790  176.7300  139.1980 C   0  0  0  0  0  0  0  0  0  0  0  0
  191.9970  177.2880  139.9800 O   0  0  0  0  0  0  0  0  0  0  0  0
  191.6580  175.9890  138.0610 N   0  0  0  0  0  0  0  0  0  0  0  0
  192.9950  176.2330  137.5340 C   0  0  0  0  0  2  0  0  0  0  0  0
  193.8720  175.0110  137.7460 C   0  0  0  0  0  2  0  0  0  0  0  0
  195.6620  173.0140  138.8450 O   0  0  0  0  0  0  0  0  0  0  0  0
  196.7430  174.6850  139.9700 O   0  0  0  0  0  1  0  0  0  0  0  0
  195.8260  174.3500  139.1820 C   0  0  0  0  0  0  0  0  0  0  0  0
  194.9770  175.3480  138.6230 N   0  0  0  0  0  2  0  0  0  0  0  0
  1  4  2  0  0  0  0
  2  9  1  0  0  0  0
  3  1  1  0  0  0  0
  3  6  1  0  0  0  0
  4 10  1  0  0  0  0
  5  6  1  0  0  0  0
  5  2  2  0  0  0  0
  6 10  2  0  0  0  0
  9  7  2  0  0  0  0
  9  8  1  0  0  0  0
 10  7  1  0  0  0  0
 11 13  1  0  0  0  0
 11 12  1  1  0  0  0
 13  1  1  1  0  0  0
 13 12  1  0  0  0  0
 14 15  1  6  0  0  0
 14 11  1  0  0  0  0
 16 15  1  6  0  0  0
 16 14  1  0  0  0  0
 18 21  1  0  0  0  0
 19 22  1  1  0  0  0
 19 18  1  0  0  0  0
 20 19  1  0  0  0  0
 20 17  1  0  0  0  0
 21 17  1  6  0  0  0
 21 16  1  0  0  0  0
 23 22  1  0  0  0  0
 23 24  1  0  0  0  0
 25 27  1  0  0  0  0
 26 25  1  6  0  0  0
 26  3  1  0  0  0  0
 27 28  1  6  0  0  0
 27 26  1  0  0  0  0
 29 32  1  0  0  0  0
 30 28  1  0  0  0  0
 30 31  2  0  0  0  0
 32 30  1  0  0  0  0
 33 34  1  0  0  0  0
 33 32  1  0  0  0  0
 34 38  1  0  0  0  0
 35 37  2  0  0  0  0
 37 36  1  0  0  0  0
 38 37  1  0  0  0  0
M  END
>  <MODEL>
8

>  <REMARK>
 VINA RESULT:      -7.3      2.323      6.906
  Name = 
  11 active torsions:
  status: ('A' for Active; 'I' for Inactive)
    1  A    between atoms: C_1  and  C_36
    2  A    between atoms: N_2  and  C_3
    3  A    between atoms: N_6  and  C_23
    4  A    between atoms: C_8  and  C_17
    5  A    between atoms: C_8  and  C_29
    6  A    between atoms: C_12  and  C_27
    7  A    between atoms: C_12  and  N_34
    8  A    between atoms: N_16  and  C_38
    9  A    between atoms: C_22  and  C_38
   10  A    between atoms: C_27  and  N_37
   11  A    between atoms: C_30  and  C_35
                            x       y       z     vdW  Elec       q    Type
                         _______ _______ _______ _____ _____    ______ ____

>  <TORSDO>
F 11

$$$$
=
 OpenBabel10232408083D

 38 43  0  0  1  0  0  0  0  0999 V2000
  187.0700  177.5140  137.7670 C   0  0  0  0  0  0  0  0  0  0  0  0
  190.7950  175.0810  137.3430 C   0  0  0  0  0  3  0  0  0  0  0  0
  188.2530  177.5180  138.4400 N   0  0  0  0  0  0  0  0  0  0  0  0
  187.0280  176.6020  136.7570 N   0  0  0  0  0  0  0  0  0  0  0  0
  190.2650  176.1130  138.1390 C   0  0  0  0  0  3  0  0  0  0  0  0
  188.9750  176.5560  137.8410 C   0  0  0  0  0  0  0  0  0  0  0  0
  188.7370  175.0000  136.0150 C   0  0  0  0  0  3  0  0  0  0  0  0
  190.5760  173.5090  135.5140 O   0  0  0  0  0  1  0  0  0  0  0  0
  190.0350  174.5280  136.2850 C   0  0  0  0  0  0  0  0  0  0  0  0
  188.2390  176.0180  136.8260 C   0  0  0  0  0  0  0  0  0  0  0  0
  184.7890  177.6010  138.6480 N   0  0  1  0  0  0  0  0  0  0  0  0
  184.7720  178.0940  137.2650 C   0  0  0  0  0  2  0  0  0  0  0  0
  185.9130  178.3970  138.1270 C   0  0  2  0  0  3  0  0  0  0  0  0
  183.9760  178.5130  139.4270 C   0  0  1  0  0  3  0  0  0  0  0  0
  182.7240  177.9270  139.6720 O   0  0  0  0  0  0  0  0  0  0  0  0
  183.6470  177.8990  140.7370 C   0  0  2  0  0  3  0  0  0  0  0  0
  182.0540  178.8220  142.5040 C   0  0  0  0  0  2  0  0  0  0  0  0
  184.4290  179.0820  142.6790 O   0  0  0  0  0  0  0  0  0  0  0  0
  183.9250  178.6590  143.9220 C   0  0  2  0  0  3  0  0  0  0  0  0
  182.4380  178.8970  143.9450 C   0  0  0  0  0  2  0  0  0  0  0  0
  183.3640  179.0040  141.7570 C   0  0  1  0  0  3  0  0  0  0  0  0
  184.5740  179.4460  145.0400 C   0  0  0  0  0  2  0  0  0  0  0  0
  184.3010  178.8010  146.3150 N   0  0  0  0  0  2  0  0  0  0  0  0
  185.5150  178.1040  146.6990 C   0  0  0  0  0  1  0  0  0  0  0  0
  187.5590  178.1000  140.7250 C   0  0  0  0  0  2  0  0  0  0  0  0
  188.5920  178.2990  139.6300 C   0  0  1  0  0  3  0  0  0  0  0  0
  188.8720  177.3570  140.7830 C   0  0  1  0  0  3  0  0  0  0  0  0
  189.8090  178.0350  141.7640 C   0  0  0  0  0  2  0  0  0  0  0  0
  191.5840  178.7150  144.0420 C   0  0  0  0  0  1  0  0  0  0  0  0
  190.5330  176.9880  142.5430 C   0  0  0  0  0  0  0  0  0  0  0  0
  190.4530  175.7840  142.1750 O   0  0  0  0  0  0  0  0  0  0  0  0
  191.2550  177.3300  143.7400 N   0  0  0  0  0  0  0  0  0  0  0  0
  191.5040  176.3220  144.7630 C   0  0  0  0  0  2  0  0  0  0  0  0
  191.6110  176.9780  146.1290 C   0  0  0  0  0  2  0  0  0  0  0  0
  188.9570  178.1310  146.2970 O   0  0  0  0  0  0  0  0  0  0  0  0
  188.4520  176.5890  147.9070 O   0  0  0  0  0  1  0  0  0  0  0  0
  189.2950  177.0530  147.1020 C   0  0  0  0  0  0  0  0  0  0  0  0
  190.5830  176.4520  147.0070 N   0  0  0  0  0  2  0  0  0  0  0  0
  1  3  1  0  0  0  0
  2  5  1  0  0  0  0
  4 10  1  0  0  0  0
  4  1  2  0  0  0  0
  6  5  2  0  0  0  0
  6  3  1  0  0  0  0
  7  9  1  0  0  0  0
  7 10  2  0  0  0  0
  8  9  1  0  0  0  0
  9  2  2  0  0  0  0
 10  6  1  0  0  0  0
 11 12  1  6  0  0  0
 11 14  1  0  0  0  0
 12 13  1  0  0  0  0
 13  1  1  6  0  0  0
 13 11  1  0  0  0  0
 14 15  1  6  0  0  0
 14 16  1  0  0  0  0
 16 15  1  6  0  0  0
 16 21  1  0  0  0  0
 17 20  1  0  0  0  0
 18 19  1  0  0  0  0
 19 20  1  0  0  0  0
 19 22  1  1  0  0  0
 21 17  1  1  0  0  0
 21 18  1  0  0  0  0
 22 23  1  0  0  0  0
 23 24  1  0  0  0  0
 25 27  1  0  0  0  0
 26  3  1  6  0  0  0
 26 25  1  0  0  0  0
 26 27  1  0  0  0  0
 27 28  1  1  0  0  0
 28 30  1  0  0  0  0
 30 32  1  0  0  0  0
 31 30  2  0  0  0  0
 32 29  1  0  0  0  0
 32 33  1  0  0  0  0
 33 34  1  0  0  0  0
 34 38  1  0  0  0  0
 35 37  2  0  0  0  0
 37 36  1  0  0  0  0
 38 37  1  0  0  0  0
M  END
>  <MODEL>
9

>  <REMARK>
 VINA RESULT:      -7.2      2.097      7.107
  Name = 
  11 active torsions:
  status: ('A' for Active; 'I' for Inactive)
    1  A    between atoms: C_1  and  C_36
    2  A    between atoms: N_2  and  C_3
    3  A    between atoms: N_6  and  C_23
    4  A    between atoms: C_8  and  C_17
    5  A    between atoms: C_8  and  C_29
    6  A    between atoms: C_12  and  C_27
    7  A    between atoms: C_12  and  N_34
    8  A    between atoms: N_16  and  C_38
    9  A    between atoms: C_22  and  C_38
   10  A    between atoms: C_27  and  N_37
   11  A    between atoms: C_30  and  C_35
                            x       y       z     vdW  Elec       q    Type
                         _______ _______ _______ _____ _____    ______ ____

>  <TORSDO>
F 11

$$$$
