=
 OpenBabel10232409453D

 25 28  0  0  1  0  0  0  0  0999 V2000
  189.5070  177.9740  143.4090 N   0  0  0  0  0  0  0  0  0  0  0  0
  188.3790  178.0570  142.4900 C   0  0  2  0  0  3  0  0  0  0  0  0
  189.2040  177.1860  144.3830 C   0  0  0  0  0  0  0  0  0  0  0  0
  187.9360  176.6510  144.2790 O   0  0  0  0  0  0  0  0  0  0  0  0
  187.3230  177.1260  143.0930 C   0  0  1  0  0  3  0  0  0  0  0  0
  190.1370  176.8990  145.4890 C   0  0  0  0  0  0  0  0  0  0  0  0
  191.2970  176.2360  145.2180 N   0  0  0  0  0  0  0  0  0  0  0  0
  188.6870  177.9830  147.1760 N   0  0  0  0  0  1  0  0  0  0  0  0
  191.9340  176.3250  147.5030 C   0  0  0  0  0  0  0  0  0  0  0  0
  189.8770  177.2850  146.8210 C   0  0  0  0  0  0  0  0  0  0  0  0
  190.7840  176.9870  147.7890 N   0  0  0  0  0  0  0  0  0  0  0  0
  192.1970  175.9400  146.1900 C   0  0  0  0  0  3  0  0  0  0  0  0
  192.8630  176.0260  148.5370 N   0  0  0  0  0  1  0  0  0  0  0  0
  185.7820  178.2000  144.7390 C   0  0  0  0  0  3  0  0  0  0  0  0
  185.1630  178.2390  142.3980 C   0  0  0  0  0  3  0  0  0  0  0  0
  186.0670  177.8780  143.4090 C   0  0  0  0  0  0  0  0  0  0  0  0
  183.7120  179.2510  144.0510 C   0  0  0  0  0  3  0  0  0  0  0  0
  183.9900  178.9260  142.7200 C   0  0  0  0  0  3  0  0  0  0  0  0
  184.6080  178.8880  145.0600 C   0  0  0  0  0  3  0  0  0  0  0  0
  188.7860  177.5480  141.1150 C   0  0  0  0  0  2  0  0  0  0  0  0
  188.2680  178.4660  140.0180 C   0  0  0  0  0  2  0  0  0  0  0  0
  189.2000  178.4470  138.8120 C   0  0  1  0  0  3  0  0  0  0  0  0
  188.7320  177.4310  137.8090 C   0  0  0  0  0  2  0  0  0  0  0  0
  188.9140  179.5240  137.9570 O   0  0  0  0  0  0  0  0  0  0  0  0
  188.4750  178.6420  136.9560 C   0  0  0  0  0  2  0  0  0  0  0  0
  1  3  2  0  0  0  0
  2 20  1  6  0  0  0
  2  5  1  0  0  0  0
  2  1  1  0  0  0  0
  3  6  1  0  0  0  0
  4  3  1  0  0  0  0
  5 16  1  1  0  0  0
  5  4  1  0  0  0  0
  6 10  1  0  0  0  0
  7  6  2  0  0  0  0
  7 12  1  0  0  0  0
  9 11  1  0  0  0  0
  9 13  1  0  0  0  0
 10  8  1  0  0  0  0
 10 11  2  0  0  0  0
 12  9  2  0  0  0  0
 14 19  1  0  0  0  0
 15 18  2  0  0  0  0
 15 16  1  0  0  0  0
 16 14  2  0  0  0  0
 17 19  2  0  0  0  0
 18 17  1  0  0  0  0
 21 20  1  0  0  0  0
 22 21  1  1  0  0  0
 23 22  1  0  0  0  0
 24 22  1  0  0  0  0
 25 23  1  0  0  0  0
 25 24  1  0  0  0  0
M  END
>  <MODEL>
1

>  <REMARK>
 VINA RESULT:      -8.7      0.000      0.000
  Name = 
  5 active torsions:
  status: ('A' for Active; 'I' for Inactive)
    1  A    between atoms: C_1  and  C_9
    2  A    between atoms: C_4  and  C_13
    3  A    between atoms: C_8  and  C_16
    4  A    between atoms: C_13  and  C_16
    5  A    between atoms: C_17  and  C_25
                            x       y       z     vdW  Elec       q    Type
                         _______ _______ _______ _____ _____    ______ ____

>  <TORSDO>
F 5

$$$$
=
 OpenBabel10232409453D

 25 28  0  0  1  0  0  0  0  0999 V2000
  188.5460  178.5640  141.2010 N   0  0  0  0  0  0  0  0  0  0  0  0
  187.5100  178.5010  142.2230 C   0  0  2  0  0  3  0  0  0  0  0  0
  189.2370  177.4760  141.2290 C   0  0  0  0  0  0  0  0  0  0  0  0
  188.8060  176.5790  142.1860 O   0  0  0  0  0  0  0  0  0  0  0  0
  187.6910  177.1240  142.8700 C   0  0  1  0  0  3  0  0  0  0  0  0
  190.3720  177.2350  140.3180 C   0  0  0  0  0  0  0  0  0  0  0  0
  191.6390  177.4460  140.7740 N   0  0  0  0  0  0  0  0  0  0  0  0
  188.9030  176.5480  138.4490 N   0  0  0  0  0  1  0  0  0  0  0  0
  192.5470  176.8040  138.6760 C   0  0  0  0  0  0  0  0  0  0  0  0
  190.1980  176.7910  138.9900 C   0  0  0  0  0  0  0  0  0  0  0  0
  191.2920  176.5890  138.2080 N   0  0  0  0  0  0  0  0  0  0  0  0
  192.7270  177.2420  139.9860 C   0  0  0  0  0  3  0  0  0  0  0  0
  193.6720  176.5840  137.8340 N   0  0  0  0  0  1  0  0  0  0  0  0
  186.9230  177.5150  145.2140 C   0  0  0  0  0  3  0  0  0  0  0  0
  189.2870  177.1540  144.8290 C   0  0  0  0  0  3  0  0  0  0  0  0
  187.9780  177.2570  144.3330 C   0  0  0  0  0  0  0  0  0  0  0  0
  188.4740  177.5510  147.0740 C   0  0  0  0  0  3  0  0  0  0  0  0
  189.5320  177.2990  146.1960 C   0  0  0  0  0  3  0  0  0  0  0  0
  187.1700  177.6600  146.5830 C   0  0  0  0  0  3  0  0  0  0  0  0
  186.1330  178.5870  141.5790 C   0  0  0  0  0  2  0  0  0  0  0  0
  185.1560  179.3320  142.4750 C   0  0  0  0  0  2  0  0  0  0  0  0
  184.0620  178.3960  142.9780 C   0  0  1  0  0  3  0  0  0  0  0  0
  183.5540  178.8610  144.3130 C   0  0  0  0  0  2  0  0  0  0  0  0
  182.8440  178.6810  142.3380 O   0  0  0  0  0  0  0  0  0  0  0  0
  182.2840  179.1170  143.5500 C   0  0  0  0  0  2  0  0  0  0  0  0
  1  3  2  0  0  0  0
  1  2  1  0  0  0  0
  2 20  1  6  0  0  0
  2  5  1  0  0  0  0
  3  4  1  0  0  0  0
  4  5  1  0  0  0  0
  5 16  1  1  0  0  0
  6  7  1  0  0  0  0
  6  3  1  0  0  0  0
  8 10  1  0  0  0  0
  9 12  1  0  0  0  0
 10  6  2  0  0  0  0
 11  9  2  0  0  0  0
 11 10  1  0  0  0  0
 12  7  2  0  0  0  0
 13  9  1  0  0  0  0
 14 19  1  0  0  0  0
 15 18  2  0  0  0  0
 16 15  1  0  0  0  0
 16 14  2  0  0  0  0
 18 17  1  0  0  0  0
 19 17  2  0  0  0  0
 20 21  1  0  0  0  0
 22 21  1  6  0  0  0
 22 23  1  0  0  0  0
 24 22  1  0  0  0  0
 24 25  1  0  0  0  0
 25 23  1  0  0  0  0
M  END
>  <MODEL>
2

>  <REMARK>
 VINA RESULT:      -8.6      3.227      6.124
  Name = 
  5 active torsions:
  status: ('A' for Active; 'I' for Inactive)
    1  A    between atoms: C_1  and  C_9
    2  A    between atoms: C_4  and  C_13
    3  A    between atoms: C_8  and  C_16
    4  A    between atoms: C_13  and  C_16
    5  A    between atoms: C_17  and  C_25
                            x       y       z     vdW  Elec       q    Type
                         _______ _______ _______ _____ _____    ______ ____

>  <TORSDO>
F 5

$$$$
=
 OpenBabel10232409453D

 25 28  0  0  1  0  0  0  0  0999 V2000
  188.2220  178.4600  141.5040 N   0  0  0  0  0  0  0  0  0  0  0  0
  187.1580  178.3660  142.4940 C   0  0  2  0  0  3  0  0  0  0  0  0
  189.0030  177.4420  141.6230 C   0  0  0  0  0  0  0  0  0  0  0  0
  188.6170  176.5690  142.6200 O   0  0  0  0  0  0  0  0  0  0  0  0
  187.4340  177.0530  143.2330 C   0  0  1  0  0  3  0  0  0  0  0  0
  190.1890  177.2480  140.7650 C   0  0  0  0  0  0  0  0  0  0  0  0
  190.0110  176.8210  139.4830 N   0  0  0  0  0  0  0  0  0  0  0  0
  191.7600  177.9410  142.5470 N   0  0  0  0  0  1  0  0  0  0  0  0
  192.3540  176.8630  139.0990 C   0  0  0  0  0  0  0  0  0  0  0  0
  191.5020  177.4900  141.2200 C   0  0  0  0  0  0  0  0  0  0  0  0
  192.5460  177.2900  140.3730 N   0  0  0  0  0  0  0  0  0  0  0  0
  191.0600  176.6230  138.6430 C   0  0  0  0  0  3  0  0  0  0  0  0
  193.4670  176.6620  138.2370 N   0  0  0  0  0  1  0  0  0  0  0  0
  186.6000  177.7950  145.4670 C   0  0  0  0  0  3  0  0  0  0  0  0
  188.9040  177.0680  145.2880 C   0  0  0  0  0  3  0  0  0  0  0  0
  187.6540  177.2990  144.6930 C   0  0  0  0  0  0  0  0  0  0  0  0
  188.0310  177.8120  147.4210 C   0  0  0  0  0  3  0  0  0  0  0  0
  189.0890  177.3220  146.6500 C   0  0  0  0  0  3  0  0  0  0  0  0
  186.7860  178.0490  146.8290 C   0  0  0  0  0  3  0  0  0  0  0  0
  185.8040  178.2900  141.8020 C   0  0  0  0  0  2  0  0  0  0  0  0
  184.7820  179.1720  142.5020 C   0  0  0  0  0  2  0  0  0  0  0  0
  183.5900  178.3480  142.9770 C   0  0  1  0  0  3  0  0  0  0  0  0
  183.1100  178.8490  144.3090 C   0  0  0  0  0  2  0  0  0  0  0  0
  182.4180  178.7620  142.3210 O   0  0  0  0  0  0  0  0  0  0  0  0
  181.8850  179.2410  143.5290 C   0  0  0  0  0  2  0  0  0  0  0  0
  1  3  2  0  0  0  0
  1  2  1  0  0  0  0
  2 20  1  6  0  0  0
  2  5  1  0  0  0  0
  3  4  1  0  0  0  0
  4  5  1  0  0  0  0
  5 16  1  1  0  0  0
  6 10  1  0  0  0  0
  6  3  1  0  0  0  0
  7  6  2  0  0  0  0
  9 11  1  0  0  0  0
 10  8  1  0  0  0  0
 11 10  2  0  0  0  0
 12  9  2  0  0  0  0
 12  7  1  0  0  0  0
 13  9  1  0  0  0  0
 14 19  1  0  0  0  0
 15 18  2  0  0  0  0
 16 15  1  0  0  0  0
 16 14  2  0  0  0  0
 18 17  1  0  0  0  0
 19 17  2  0  0  0  0
 20 21  1  0  0  0  0
 22 21  1  6  0  0  0
 22 23  1  0  0  0  0
 24 22  1  0  0  0  0
 24 25  1  0  0  0  0
 25 23  1  0  0  0  0
M  END
>  <MODEL>
3

>  <REMARK>
 VINA RESULT:      -8.6      2.942      5.837
  Name = 
  5 active torsions:
  status: ('A' for Active; 'I' for Inactive)
    1  A    between atoms: C_1  and  C_9
    2  A    between atoms: C_4  and  C_13
    3  A    between atoms: C_8  and  C_16
    4  A    between atoms: C_13  and  C_16
    5  A    between atoms: C_17  and  C_25
                            x       y       z     vdW  Elec       q    Type
                         _______ _______ _______ _____ _____    ______ ____

>  <TORSDO>
F 5

$$$$
=
 OpenBabel10232409453D

 25 28  0  0  1  0  0  0  0  0999 V2000
  188.0360  178.3350  141.9870 N   0  0  0  0  0  0  0  0  0  0  0  0
  187.0420  178.2120  143.0450 C   0  0  2  0  0  3  0  0  0  0  0  0
  188.9040  177.3910  142.1080 C   0  0  0  0  0  0  0  0  0  0  0  0
  188.6500  176.5470  143.1700 O   0  0  0  0  0  0  0  0  0  0  0  0
  187.4680  176.9670  143.8300 C   0  0  1  0  0  3  0  0  0  0  0  0
  190.0500  177.2450  141.1890 C   0  0  0  0  0  0  0  0  0  0  0  0
  189.8180  176.8590  139.9030 N   0  0  0  0  0  0  0  0  0  0  0  0
  191.6950  177.9010  142.9180 N   0  0  0  0  0  1  0  0  0  0  0  0
  192.1390  176.9510  139.4110 C   0  0  0  0  0  0  0  0  0  0  0  0
  191.3800  177.4920  141.5900 C   0  0  0  0  0  0  0  0  0  0  0  0
  192.3850  177.3370  140.6880 N   0  0  0  0  0  0  0  0  0  0  0  0
  190.8280  176.7060  139.0080 C   0  0  0  0  0  3  0  0  0  0  0  0
  193.2120  176.7970  138.4900 N   0  0  0  0  0  1  0  0  0  0  0  0
  186.7250  177.8350  146.0510 C   0  0  0  0  0  3  0  0  0  0  0  0
  189.0330  177.1410  145.8070 C   0  0  0  0  0  3  0  0  0  0  0  0
  187.7520  177.3110  145.2590 C   0  0  0  0  0  0  0  0  0  0  0  0
  188.2450  178.0030  147.9280 C   0  0  0  0  0  3  0  0  0  0  0  0
  189.2760  177.4850  147.1390 C   0  0  0  0  0  3  0  0  0  0  0  0
  186.9690  178.1780  147.3840 C   0  0  0  0  0  3  0  0  0  0  0  0
  185.6620  177.9900  142.4430 C   0  0  0  0  0  2  0  0  0  0  0  0
  185.2110  179.2050  141.6470 C   0  0  0  0  0  2  0  0  0  0  0  0
  184.9550  178.8320  140.1910 C   0  0  1  0  0  3  0  0  0  0  0  0
  183.5700  178.2720  140.0330 C   0  0  0  0  0  2  0  0  0  0  0  0
  184.6520  179.9800  139.4390 O   0  0  0  0  0  0  0  0  0  0  0  0
  183.3400  179.5210  139.2280 C   0  0  0  0  0  2  0  0  0  0  0  0
  1  3  2  0  0  0  0
  1  2  1  0  0  0  0
  2 20  1  6  0  0  0
  2  5  1  0  0  0  0
  3  4  1  0  0  0  0
  4  5  1  0  0  0  0
  5 16  1  1  0  0  0
  6 10  1  0  0  0  0
  6  3  1  0  0  0  0
  7  6  2  0  0  0  0
  9 11  1  0  0  0  0
 10  8  1  0  0  0  0
 11 10  2  0  0  0  0
 12  9  2  0  0  0  0
 12  7  1  0  0  0  0
 13  9  1  0  0  0  0
 14 19  1  0  0  0  0
 15 18  2  0  0  0  0
 16 15  1  0  0  0  0
 16 14  2  0  0  0  0
 18 17  1  0  0  0  0
 19 17  2  0  0  0  0
 21 20  1  0  0  0  0
 22 21  1  1  0  0  0
 23 22  1  0  0  0  0
 24 22  1  0  0  0  0
 25 24  1  0  0  0  0
 25 23  1  0  0  0  0
M  END
>  <MODEL>
4

>  <REMARK>
 VINA RESULT:      -8.6      2.852      5.138
  Name = 
  5 active torsions:
  status: ('A' for Active; 'I' for Inactive)
    1  A    between atoms: C_1  and  C_9
    2  A    between atoms: C_4  and  C_13
    3  A    between atoms: C_8  and  C_16
    4  A    between atoms: C_13  and  C_16
    5  A    between atoms: C_17  and  C_25
                            x       y       z     vdW  Elec       q    Type
                         _______ _______ _______ _____ _____    ______ ____

>  <TORSDO>
F 5

$$$$
=
 OpenBabel10232409453D

 25 28  0  0  1  0  0  0  0  0999 V2000
  188.9900  176.2510  142.7540 N   0  0  0  0  0  0  0  0  0  0  0  0
  188.4940  176.6610  144.0610 C   0  0  2  0  0  3  0  0  0  0  0  0
  188.8600  177.2280  141.9250 C   0  0  0  0  0  0  0  0  0  0  0  0
  188.3120  178.3600  142.4950 O   0  0  0  0  0  0  0  0  0  0  0  0
  188.0570  178.1160  143.8670 C   0  0  1  0  0  3  0  0  0  0  0  0
  189.2640  177.1260  140.5090 C   0  0  0  0  0  0  0  0  0  0  0  0
  190.3920  176.4280  140.1950 N   0  0  0  0  0  0  0  0  0  0  0  0
  187.3370  178.4620  139.7200 N   0  0  0  0  0  1  0  0  0  0  0  0
  190.0860  176.8880  137.8860 C   0  0  0  0  0  0  0  0  0  0  0  0
  188.5270  177.7220  139.4640 C   0  0  0  0  0  0  0  0  0  0  0  0
  188.9600  177.5850  138.1830 N   0  0  0  0  0  0  0  0  0  0  0  0
  190.8190  176.2970  138.9120 C   0  0  0  0  0  3  0  0  0  0  0  0
  190.5140  176.7630  136.5350 N   0  0  0  0  0  1  0  0  0  0  0  0
  185.6780  178.2690  143.1220 C   0  0  0  0  0  3  0  0  0  0  0  0
  186.1510  178.4680  145.4890 C   0  0  0  0  0  3  0  0  0  0  0  0
  186.6000  178.2790  144.1730 C   0  0  0  0  0  0  0  0  0  0  0  0
  183.8690  178.6180  144.6940 C   0  0  0  0  0  3  0  0  0  0  0  0
  184.7880  178.6350  145.7470 C   0  0  0  0  0  3  0  0  0  0  0  0
  184.3140  178.4360  143.3810 C   0  0  0  0  0  3  0  0  0  0  0  0
  189.6140  176.5970  145.0900 C   0  0  0  0  0  2  0  0  0  0  0  0
  189.5630  177.7910  146.0290 C   0  0  0  0  0  2  0  0  0  0  0  0
  189.5440  177.3350  147.4840 C   0  0  1  0  0  3  0  0  0  0  0  0
  189.0990  178.4600  148.3760 C   0  0  0  0  0  2  0  0  0  0  0  0
  188.3880  176.5800  147.7440 O   0  0  0  0  0  0  0  0  0  0  0  0
  187.9050  177.5760  148.6100 C   0  0  0  0  0  2  0  0  0  0  0  0
  1  2  1  0  0  0  0
  2 20  1  1  0  0  0
  3  4  1  0  0  0  0
  3  1  2  0  0  0  0
  4  5  1  0  0  0  0
  5  2  1  0  0  0  0
  5 16  1  6  0  0  0
  6  3  1  0  0  0  0
  7  6  1  0  0  0  0
  9 11  2  0  0  0  0
  9 12  1  0  0  0  0
 10  8  1  0  0  0  0
 10  6  2  0  0  0  0
 11 10  1  0  0  0  0
 12  7  2  0  0  0  0
 13  9  1  0  0  0  0
 14 19  2  0  0  0  0
 14 16  1  0  0  0  0
 15 18  1  0  0  0  0
 16 15  2  0  0  0  0
 17 18  2  0  0  0  0
 19 17  1  0  0  0  0
 20 21  1  0  0  0  0
 22 21  1  6  0  0  0
 22 24  1  0  0  0  0
 22 23  1  0  0  0  0
 23 25  1  0  0  0  0
 24 25  1  0  0  0  0
M  END
>  <MODEL>
5

>  <REMARK>
 VINA RESULT:      -8.3      2.684      6.635
  Name = 
  5 active torsions:
  status: ('A' for Active; 'I' for Inactive)
    1  A    between atoms: C_1  and  C_9
    2  A    between atoms: C_4  and  C_13
    3  A    between atoms: C_8  and  C_16
    4  A    between atoms: C_13  and  C_16
    5  A    between atoms: C_17  and  C_25
                            x       y       z     vdW  Elec       q    Type
                         _______ _______ _______ _____ _____    ______ ____

>  <TORSDO>
F 5

$$$$
=
 OpenBabel10232409453D

 25 28  0  0  1  0  0  0  0  0999 V2000
  188.2180  176.7440  143.9710 N   0  0  0  0  0  0  0  0  0  0  0  0
  187.5920  177.3130  142.7850 C   0  0  2  0  0  3  0  0  0  0  0  0
  189.3890  177.2590  144.1210 C   0  0  0  0  0  0  0  0  0  0  0  0
  189.7090  178.1860  143.1480 O   0  0  0  0  0  0  0  0  0  0  0  0
  188.6200  178.3150  142.2500 C   0  0  1  0  0  3  0  0  0  0  0  0
  190.2850  176.8810  145.2310 C   0  0  0  0  0  0  0  0  0  0  0  0
  189.9450  177.2360  146.5020 N   0  0  0  0  0  0  0  0  0  0  0  0
  191.8990  175.7580  143.7280 N   0  0  0  0  0  1  0  0  0  0  0  0
  191.9070  176.2100  147.3610 C   0  0  0  0  0  0  0  0  0  0  0  0
  191.4830  176.1630  145.0290 C   0  0  0  0  0  0  0  0  0  0  0  0
  192.2580  175.8490  146.1010 N   0  0  0  0  0  0  0  0  0  0  0  0
  190.7250  176.9190  147.5680 C   0  0  0  0  0  3  0  0  0  0  0  0
  192.7390  175.8680  148.4620 N   0  0  0  0  0  1  0  0  0  0  0  0
  190.1930  177.1940  140.6660 C   0  0  0  0  0  3  0  0  0  0  0  0
  188.3030  178.3970  139.7440 C   0  0  0  0  0  3  0  0  0  0  0  0
  189.0370  177.9570  140.8570 C   0  0  0  0  0  0  0  0  0  0  0  0
  189.8750  177.2970  138.2680 C   0  0  0  0  0  3  0  0  0  0  0  0
  188.7220  178.0650  138.4530 C   0  0  0  0  0  3  0  0  0  0  0  0
  190.6110  176.8620  139.3740 C   0  0  0  0  0  3  0  0  0  0  0  0
  186.3140  178.0470  143.1680 C   0  0  0  0  0  2  0  0  0  0  0  0
  186.0760  177.9810  144.6690 C   0  0  0  0  0  2  0  0  0  0  0  0
  185.2260  179.1580  145.1330 C   0  0  1  0  0  3  0  0  0  0  0  0
  184.3810  179.6680  144.0000 C   0  0  0  0  0  2  0  0  0  0  0  0
  184.1090  178.7000  145.8520 O   0  0  0  0  0  0  0  0  0  0  0  0
  183.2440  179.1640  144.8460 C   0  0  0  0  0  2  0  0  0  0  0  0
  1  3  2  0  0  0  0
  2 20  1  1  0  0  0
  2  1  1  0  0  0  0
  3  6  1  0  0  0  0
  4  3  1  0  0  0  0
  5 16  1  6  0  0  0
  5  2  1  0  0  0  0
  5  4  1  0  0  0  0
  6  7  1  0  0  0  0
  7 12  2  0  0  0  0
  8 10  1  0  0  0  0
  9 12  1  0  0  0  0
  9 13  1  0  0  0  0
 10  6  2  0  0  0  0
 10 11  1  0  0  0  0
 11  9  2  0  0  0  0
 14 16  1  0  0  0  0
 15 16  2  0  0  0  0
 17 18  2  0  0  0  0
 17 19  1  0  0  0  0
 18 15  1  0  0  0  0
 19 14  2  0  0  0  0
 20 21  1  0  0  0  0
 22 21  1  6  0  0  0
 22 24  1  0  0  0  0
 23 25  1  0  0  0  0
 23 22  1  0  0  0  0
 25 24  1  0  0  0  0
M  END
>  <MODEL>
6

>  <REMARK>
 VINA RESULT:      -8.3      1.551      5.122
  Name = 
  5 active torsions:
  status: ('A' for Active; 'I' for Inactive)
    1  A    between atoms: C_1  and  C_9
    2  A    between atoms: C_4  and  C_13
    3  A    between atoms: C_8  and  C_16
    4  A    between atoms: C_13  and  C_16
    5  A    between atoms: C_17  and  C_25
                            x       y       z     vdW  Elec       q    Type
                         _______ _______ _______ _____ _____    ______ ____

>  <TORSDO>
F 5

$$$$
=
 OpenBabel10232409453D

 25 28  0  0  1  0  0  0  0  0999 V2000
  188.0630  178.1300  141.9690 N   0  0  0  0  0  0  0  0  0  0  0  0
  187.7030  177.9260  143.3660 C   0  0  2  0  0  3  0  0  0  0  0  0
  188.8060  177.1530  141.5750 C   0  0  0  0  0  0  0  0  0  0  0  0
  189.0360  176.2100  142.5580 O   0  0  0  0  0  0  0  0  0  0  0  0
  188.3600  176.5940  143.7420 C   0  0  1  0  0  3  0  0  0  0  0  0
  189.3450  177.0700  140.2040 C   0  0  0  0  0  0  0  0  0  0  0  0
  190.4950  176.3700  139.9900 N   0  0  0  0  0  0  0  0  0  0  0  0
  187.5100  178.4310  139.2530 N   0  0  0  0  0  1  0  0  0  0  0  0
  190.4170  176.8670  137.6700 C   0  0  0  0  0  0  0  0  0  0  0  0
  188.7160  177.6860  139.1020 C   0  0  0  0  0  0  0  0  0  0  0  0
  189.2710  177.5660  137.8670 N   0  0  0  0  0  0  0  0  0  0  0  0
  191.0440  176.2560  138.7530 C   0  0  0  0  0  3  0  0  0  0  0  0
  190.9740  176.7600  136.3660 N   0  0  0  0  0  1  0  0  0  0  0  0
  190.6880  176.5410  144.6460 C   0  0  0  0  0  3  0  0  0  0  0  0
  188.8900  177.1570  146.1490 C   0  0  0  0  0  3  0  0  0  0  0  0
  189.3270  176.7790  144.8700 C   0  0  0  0  0  0  0  0  0  0  0  0
  191.1700  177.0740  146.9590 C   0  0  0  0  0  3  0  0  0  0  0  0
  189.8110  177.3060  147.1890 C   0  0  0  0  0  3  0  0  0  0  0  0
  191.6080  176.6910  145.6880 C   0  0  0  0  0  3  0  0  0  0  0  0
  186.1920  177.8080  143.5050 C   0  0  0  0  0  2  0  0  0  0  0  0
  185.7220  178.3530  144.8450 C   0  0  0  0  0  2  0  0  0  0  0  0
  184.6100  179.3780  144.6520 C   0  0  1  0  0  3  0  0  0  0  0  0
  183.7830  179.0280  143.4480 C   0  0  0  0  0  2  0  0  0  0  0  0
  183.5500  179.1210  145.5390 O   0  0  0  0  0  0  0  0  0  0  0  0
  182.7030  178.7940  144.4670 C   0  0  0  0  0  2  0  0  0  0  0  0
  1  2  1  0  0  0  0
  2 20  1  6  0  0  0
  2  5  1  0  0  0  0
  3  1  2  0  0  0  0
  3  4  1  0  0  0  0
  4  5  1  0  0  0  0
  5 16  1  1  0  0  0
  6  3  1  0  0  0  0
  7  6  1  0  0  0  0
  9 11  2  0  0  0  0
  9 12  1  0  0  0  0
 10  8  1  0  0  0  0
 10  6  2  0  0  0  0
 11 10  1  0  0  0  0
 12  7  2  0  0  0  0
 13  9  1  0  0  0  0
 14 16  2  0  0  0  0
 14 19  1  0  0  0  0
 15 18  2  0  0  0  0
 16 15  1  0  0  0  0
 17 18  1  0  0  0  0
 19 17  2  0  0  0  0
 20 21  1  0  0  0  0
 22 21  1  1  0  0  0
 22 24  1  0  0  0  0
 23 25  1  0  0  0  0
 23 22  1  0  0  0  0
 25 24  1  0  0  0  0
M  END
>  <MODEL>
7

>  <REMARK>
 VINA RESULT:      -8.0      3.010      6.910
  Name = 
  5 active torsions:
  status: ('A' for Active; 'I' for Inactive)
    1  A    between atoms: C_1  and  C_9
    2  A    between atoms: C_4  and  C_13
    3  A    between atoms: C_8  and  C_16
    4  A    between atoms: C_13  and  C_16
    5  A    between atoms: C_17  and  C_25
                            x       y       z     vdW  Elec       q    Type
                         _______ _______ _______ _____ _____    ______ ____

>  <TORSDO>
F 5

$$$$
=
 OpenBabel10232409453D

 25 28  0  0  1  0  0  0  0  0999 V2000
  185.5240  179.2650  143.4520 N   0  0  0  0  0  0  0  0  0  0  0  0
  185.3030  178.9440  144.8560 C   0  0  2  0  0  3  0  0  0  0  0  0
  186.2620  178.3540  142.9190 C   0  0  0  0  0  0  0  0  0  0  0  0
  186.6180  177.3530  143.8010 O   0  0  0  0  0  0  0  0  0  0  0  0
  186.0420  177.6190  145.0680 C   0  0  1  0  0  3  0  0  0  0  0  0
  186.6740  178.3960  141.5020 C   0  0  0  0  0  0  0  0  0  0  0  0
  187.9580  178.0700  141.1800 N   0  0  0  0  0  0  0  0  0  0  0  0
  184.4340  179.1090  140.7300 N   0  0  0  0  0  1  0  0  0  0  0  0
  187.5210  178.4490  138.8770 C   0  0  0  0  0  0  0  0  0  0  0  0
  185.7900  178.7590  140.4650 C   0  0  0  0  0  0  0  0  0  0  0  0
  186.2400  178.7750  139.1830 N   0  0  0  0  0  0  0  0  0  0  0  0
  188.4000  178.0880  139.8960 C   0  0  0  0  0  3  0  0  0  0  0  0
  187.9630  178.4750  137.5250 N   0  0  0  0  0  1  0  0  0  0  0  0
  188.4130  177.3740  145.8140 C   0  0  0  0  0  3  0  0  0  0  0  0
  186.8000  178.2530  147.3940 C   0  0  0  0  0  3  0  0  0  0  0  0
  187.1030  177.7630  146.1140 C   0  0  0  0  0  0  0  0  0  0  0  0
  189.1140  177.9780  148.0520 C   0  0  0  0  0  3  0  0  0  0  0  0
  187.8050  178.3620  148.3580 C   0  0  0  0  0  3  0  0  0  0  0  0
  189.4180  177.4840  146.7800 C   0  0  0  0  0  3  0  0  0  0  0  0
  183.8170  178.7490  145.1210 C   0  0  0  0  0  2  0  0  0  0  0  0
  182.9770  179.5130  144.1090 C   0  0  0  0  0  2  0  0  0  0  0  0
  181.9640  178.5900  143.4400 C   0  0  1  0  0  3  0  0  0  0  0  0
  180.6280  178.7080  144.1160 C   0  0  0  0  0  2  0  0  0  0  0  0
  181.4910  179.1660  142.2490 O   0  0  0  0  0  0  0  0  0  0  0  0
  180.2040  179.2970  142.7990 C   0  0  0  0  0  2  0  0  0  0  0  0
  1  2  1  0  0  0  0
  2  5  1  0  0  0  0
  2 20  1  6  0  0  0
  3  1  2  0  0  0  0
  3  4  1  0  0  0  0
  4  5  1  0  0  0  0
  5 16  1  1  0  0  0
  6  3  1  0  0  0  0
  7  6  1  0  0  0  0
  9 11  2  0  0  0  0
  9 12  1  0  0  0  0
 10  8  1  0  0  0  0
 10  6  2  0  0  0  0
 11 10  1  0  0  0  0
 12  7  2  0  0  0  0
 13  9  1  0  0  0  0
 14 16  2  0  0  0  0
 14 19  1  0  0  0  0
 15 18  2  0  0  0  0
 16 15  1  0  0  0  0
 17 18  1  0  0  0  0
 19 17  2  0  0  0  0
 21 20  1  0  0  0  0
 22 21  1  1  0  0  0
 22 23  1  0  0  0  0
 24 25  1  0  0  0  0
 24 22  1  0  0  0  0
 25 23  1  0  0  0  0
M  END
>  <MODEL>
8

>  <REMARK>
 VINA RESULT:      -7.9      3.432      7.080
  Name = 
  5 active torsions:
  status: ('A' for Active; 'I' for Inactive)
    1  A    between atoms: C_1  and  C_9
    2  A    between atoms: C_4  and  C_13
    3  A    between atoms: C_8  and  C_16
    4  A    between atoms: C_13  and  C_16
    5  A    between atoms: C_17  and  C_25
                            x       y       z     vdW  Elec       q    Type
                         _______ _______ _______ _____ _____    ______ ____

>  <TORSDO>
F 5

$$$$
=
 OpenBabel10232409453D

 25 28  0  0  1  0  0  0  0  0999 V2000
  188.3540  176.5420  142.2800 N   0  0  0  0  0  0  0  0  0  0  0  0
  187.9560  176.7850  143.6610 C   0  0  2  0  0  3  0  0  0  0  0  0
  188.2170  177.6290  141.6010 C   0  0  0  0  0  0  0  0  0  0  0  0
  187.7540  178.6890  142.3550 O   0  0  0  0  0  0  0  0  0  0  0  0
  187.5710  178.2670  143.6950 C   0  0  1  0  0  3  0  0  0  0  0  0
  188.5310  177.7090  140.1620 C   0  0  0  0  0  0  0  0  0  0  0  0
  189.7400  177.2560  139.7250 N   0  0  0  0  0  0  0  0  0  0  0  0
  186.3450  178.7260  139.6020 N   0  0  0  0  0  1  0  0  0  0  0  0
  189.1920  177.8240  137.4850 C   0  0  0  0  0  0  0  0  0  0  0  0
  187.6270  178.2370  139.2160 C   0  0  0  0  0  0  0  0  0  0  0  0
  187.9850  178.2790  137.9050 N   0  0  0  0  0  0  0  0  0  0  0  0
  190.0900  177.3010  138.4140 C   0  0  0  0  0  3  0  0  0  0  0  0
  189.5390  177.8810  136.1070 N   0  0  0  0  0  1  0  0  0  0  0  0
  185.1490  178.5080  143.1340 C   0  0  0  0  0  3  0  0  0  0  0  0
  185.7930  178.5510  145.4690 C   0  0  0  0  0  3  0  0  0  0  0  0
  186.1430  178.4360  144.1140 C   0  0  0  0  0  0  0  0  0  0  0  0
  183.4640  178.7900  144.8500 C   0  0  0  0  0  3  0  0  0  0  0  0
  184.4550  178.7250  145.8340 C   0  0  0  0  0  3  0  0  0  0  0  0
  183.8110  178.6820  143.5000 C   0  0  0  0  0  3  0  0  0  0  0  0
  189.1320  176.5400  144.5950 C   0  0  0  0  0  2  0  0  0  0  0  0
  189.7620  177.8530  145.0350 C   0  0  0  0  0  2  0  0  0  0  0  0
  191.2300  177.9110  144.6300 C   0  0  1  0  0  3  0  0  0  0  0  0
  191.6040  176.6810  143.8510 C   0  0  0  0  0  2  0  0  0  0  0  0
  191.3970  178.7510  143.5160 O   0  0  0  0  0  0  0  0  0  0  0  0
  191.7740  177.6570  142.7190 C   0  0  0  0  0  2  0  0  0  0  0  0
  1  2  1  0  0  0  0
  2  5  1  0  0  0  0
  2 20  1  1  0  0  0
  3  1  2  0  0  0  0
  3  4  1  0  0  0  0
  4  5  1  0  0  0  0
  5 16  1  6  0  0  0
  6  3  1  0  0  0  0
  7  6  1  0  0  0  0
  9 11  2  0  0  0  0
  9 12  1  0  0  0  0
 10  8  1  0  0  0  0
 10  6  2  0  0  0  0
 11 10  1  0  0  0  0
 12  7  2  0  0  0  0
 13  9  1  0  0  0  0
 14 19  2  0  0  0  0
 14 16  1  0  0  0  0
 15 18  1  0  0  0  0
 16 15  2  0  0  0  0
 17 18  2  0  0  0  0
 19 17  1  0  0  0  0
 20 21  1  0  0  0  0
 22 21  1  6  0  0  0
 23 22  1  0  0  0  0
 24 22  1  0  0  0  0
 25 24  1  0  0  0  0
 25 23  1  0  0  0  0
M  END
>  <MODEL>
9

>  <REMARK>
 VINA RESULT:      -7.9      2.882      6.023
  Name = 
  5 active torsions:
  status: ('A' for Active; 'I' for Inactive)
    1  A    between atoms: C_1  and  C_9
    2  A    between atoms: C_4  and  C_13
    3  A    between atoms: C_8  and  C_16
    4  A    between atoms: C_13  and  C_16
    5  A    between atoms: C_17  and  C_25
                            x       y       z     vdW  Elec       q    Type
                         _______ _______ _______ _____ _____    ______ ____

>  <TORSDO>
F 5

$$$$
