=
 OpenBabel10232411153D

 33 38  0  0  1  0  0  0  0  0999 V2000
  187.4250  177.6220  144.1900 C   0  0  1  0  0  3  0  0  0  0  0  0
  188.8360  176.8760  146.1960 C   0  0  0  0  0  3  0  0  0  0  0  0
  185.5640  178.6070  142.8180 C   0  0  0  0  0  0  0  0  0  0  0  0
  188.6510  177.9130  143.3290 C   0  0  0  0  0  2  0  0  0  0  0  0
  184.1830  178.3810  142.9190 C   0  0  0  0  0  3  0  0  0  0  0  0
  186.8590  178.2170  146.4560 C   0  0  0  0  0  0  0  0  0  0  0  0
  184.0030  178.2430  140.5070 C   0  0  0  0  0  0  0  0  0  0  0  0
  189.0070  176.9000  147.5850 C   0  0  0  0  0  3  0  0  0  0  0  0
  187.7580  177.5650  145.6360 C   0  0  0  0  0  0  0  0  0  0  0  0
  188.0890  177.6030  148.3780 C   0  0  0  0  0  3  0  0  0  0  0  0
  187.6470  178.8150  141.3810 C   0  0  0  0  0  2  0  0  0  0  0  0
  185.3830  178.4570  140.3990 C   0  0  0  0  0  3  0  0  0  0  0  0
  186.1660  178.6380  141.5420 C   0  0  0  0  0  0  0  0  0  0  0  0
  188.3540  177.6580  141.9220 N   0  0  0  0  0  2  0  0  0  0  0  0
  186.4210  178.7720  144.0480 C   0  0  1  0  0  3  0  0  0  0  0  0
  185.5040  179.0090  145.6250 S   0  0  0  0  0  0  0  0  0  0  0  0
  187.0350  178.2460  147.8030 N   0  0  0  0  0  0  0  0  0  0  0  0
  183.4070  178.2050  141.7700 C   0  0  0  0  0  3  0  0  0  0  0  0
  183.1430  178.0620  139.2930 C   0  0  1  0  0  3  0  0  0  0  0  0
  182.6180  175.7340  139.4600 O   0  0  0  0  0  0  0  0  0  0  0  0
  184.9160  176.5830  135.4320 C   0  0  1  0  0  3  0  0  0  0  0  0
  183.1530  176.6520  138.7800 C   0  0  0  0  0  0  0  0  0  0  0  0
  183.7820  176.3520  137.5240 N   0  0  0  0  0  0  0  0  0  0  0  0
  186.4370  176.5450  137.3460 O   0  0  0  0  0  1  0  0  0  0  0  0
  184.2680  177.3680  136.5880 C   0  0  1  0  0  3  0  0  0  0  0  0
  184.0260  175.0700  136.9670 C   0  0  0  0  0  0  0  0  0  0  0  0
  183.8820  173.9240  137.6230 C   0  0  0  0  0  1  0  0  0  0  0  0
  185.7910  177.3700  136.4180 C   0  0  2  0  0  3  0  0  0  0  0  0
  184.7720  175.1650  135.7730 N   0  0  0  0  0  0  0  0  0  0  0  0
  181.5670  180.0280  139.3420 N   0  0  0  0  0  2  0  0  0  0  0  0
  180.2620  180.6420  139.5200 C   0  0  0  0  0  1  0  0  0  0  0  0
  180.7950  177.8630  139.7450 O   0  0  0  0  0  0  0  0  0  0  0  0
  181.7640  178.6210  139.4640 C   0  0  0  0  0  0  0  0  0  0  0  0
  1  4  1  6  0  0  0
  1  9  1  0  0  0  0
  2  8  1  0  0  0  0
  3  5  1  0  0  0  0
  6 17  2  0  0  0  0
  7 18  1  0  0  0  0
  8 10  2  0  0  0  0
  9  2  2  0  0  0  0
  9  6  1  0  0  0  0
 11 13  1  0  0  0  0
 11 14  1  0  0  0  0
 12  7  2  0  0  0  0
 12 13  1  0  0  0  0
 13  3  2  0  0  0  0
 14  4  1  0  0  0  0
 15  3  1  6  0  0  0
 15  1  1  0  0  0  0
 15 16  1  0  0  0  0
 16  6  1  0  0  0  0
 17 10  1  0  0  0  0
 18  5  2  0  0  0  0
 19 22  1  1  0  0  0
 19 33  1  0  0  0  0
 19  7  1  0  0  0  0
 21 29  1  1  0  0  0
 21 28  1  0  0  0  0
 21 25  1  0  0  0  0
 22 20  2  0  0  0  0
 23 22  1  0  0  0  0
 25 23  1  1  0  0  0
 26 23  1  0  0  0  0
 26 27  1  0  0  0  0
 28 25  1  0  0  0  0
 28 24  1  1  0  0  0
 29 26  2  0  0  0  0
 30 33  1  0  0  0  0
 30 31  1  0  0  0  0
 33 32  2  0  0  0  0
M  END
>  <MODEL>
1

>  <REMARK>
 VINA RESULT:      -8.4      0.000      0.000
  Name = 
  3 active torsions:
  status: ('A' for Active; 'I' for Inactive)
    1  A    between atoms: C_10  and  C_21
    2  A    between atoms: C_11  and  C_21
    3  A    between atoms: C_21  and  C_32
                            x       y       z     vdW  Elec       q    Type
                         _______ _______ _______ _____ _____    ______ ____

>  <TORSDO>
F 3

$$$$
=
 OpenBabel10232411153D

 33 38  0  0  1  0  0  0  0  0999 V2000
  188.5640  177.1570  142.5750 C   0  0  1  0  0  3  0  0  0  0  0  0
  187.3500  177.0480  144.8300 C   0  0  0  0  0  3  0  0  0  0  0  0
  189.0750  177.6440  140.1630 C   0  0  0  0  0  0  0  0  0  0  0  0
  189.9400  177.2660  143.2250 C   0  0  0  0  0  2  0  0  0  0  0  0
  188.2920  177.3850  139.0280 C   0  0  0  0  0  3  0  0  0  0  0  0
  186.4860  178.3090  142.9760 C   0  0  0  0  0  0  0  0  0  0  0  0
  190.2420  176.5960  137.8280 C   0  0  0  0  0  0  0  0  0  0  0  0
  186.2460  177.4520  145.5890 C   0  0  0  0  0  3  0  0  0  0  0  0
  187.4700  177.5070  143.5160 C   0  0  0  0  0  0  0  0  0  0  0  0
  185.2860  178.2960  145.0120 C   0  0  0  0  0  3  0  0  0  0  0  0
  191.3290  177.5620  141.3290 C   0  0  0  0  0  2  0  0  0  0  0  0
  191.0290  176.8410  138.9600 C   0  0  0  0  0  3  0  0  0  0  0  0
  190.4570  177.3610  140.1240 C   0  0  0  0  0  0  0  0  0  0  0  0
  190.9500  176.6290  142.3850 N   0  0  0  0  0  2  0  0  0  0  0  0
  188.4600  178.1750  141.4330 C   0  0  1  0  0  3  0  0  0  0  0  0
  186.7300  178.7810  141.2810 S   0  0  0  0  0  0  0  0  0  0  0  0
  185.4210  178.7080  143.7210 N   0  0  0  0  0  0  0  0  0  0  0  0
  188.8720  176.8690  137.8670 C   0  0  0  0  0  3  0  0  0  0  0  0
  190.8380  176.0530  136.5640 C   0  0  1  0  0  3  0  0  0  0  0  0
  191.5670  174.0940  137.7280 O   0  0  0  0  0  0  0  0  0  0  0  0
  194.6690  175.2140  134.3580 C   0  0  1  0  0  3  0  0  0  0  0  0
  191.8030  174.9300  136.8140 C   0  0  0  0  0  0  0  0  0  0  0  0
  192.9940  174.8200  136.0190 N   0  0  0  0  0  0  0  0  0  0  0  0
  194.9010  176.6610  136.3150 O   0  0  0  0  0  1  0  0  0  0  0  0
  193.2620  175.6310  134.8290 C   0  0  1  0  0  3  0  0  0  0  0  0
  194.0830  173.9310  136.2160 C   0  0  0  0  0  0  0  0  0  0  0  0
  194.2580  173.1850  137.3000 C   0  0  0  0  0  1  0  0  0  0  0  0
  194.4440  176.5930  134.9930 C   0  0  2  0  0  3  0  0  0  0  0  0
  195.1290  174.1950  135.3070 N   0  0  0  0  0  0  0  0  0  0  0  0
  189.1650  174.4610  135.5560 N   0  0  0  0  0  2  0  0  0  0  0  0
  188.1770  174.0730  134.5640 C   0  0  0  0  0  1  0  0  0  0  0  0
  189.5430  176.5610  134.6100 O   0  0  0  0  0  0  0  0  0  0  0  0
  189.8110  175.7320  135.5230 C   0  0  0  0  0  0  0  0  0  0  0  0
  1  4  1  1  0  0  0
  1  9  1  0  0  0  0
  2  8  1  0  0  0  0
  5  3  2  0  0  0  0
  6  9  1  0  0  0  0
  6 17  2  0  0  0  0
  7 18  2  0  0  0  0
  7 12  1  0  0  0  0
  9  2  2  0  0  0  0
 10  8  2  0  0  0  0
 11 14  1  0  0  0  0
 12 13  2  0  0  0  0
 13  3  1  0  0  0  0
 13 11  1  0  0  0  0
 14  4  1  0  0  0  0
 15  3  1  6  0  0  0
 15  1  1  0  0  0  0
 16 15  1  0  0  0  0
 16  6  1  0  0  0  0
 17 10  1  0  0  0  0
 18  5  1  0  0  0  0
 19 33  1  6  0  0  0
 19 22  1  0  0  0  0
 19  7  1  0  0  0  0
 21 25  1  0  0  0  0
 21 28  1  0  0  0  0
 21 29  1  1  0  0  0
 22 20  2  0  0  0  0
 23 26  1  0  0  0  0
 23 22  1  0  0  0  0
 25 28  1  0  0  0  0
 25 23  1  1  0  0  0
 26 27  1  0  0  0  0
 28 24  1  1  0  0  0
 29 26  2  0  0  0  0
 31 30  1  0  0  0  0
 32 33  2  0  0  0  0
 33 30  1  0  0  0  0
M  END
>  <MODEL>
2

>  <REMARK>
 VINA RESULT:      -8.0      5.381      7.282
  Name = 
  3 active torsions:
  status: ('A' for Active; 'I' for Inactive)
    1  A    between atoms: C_10  and  C_21
    2  A    between atoms: C_11  and  C_21
    3  A    between atoms: C_21  and  C_32
                            x       y       z     vdW  Elec       q    Type
                         _______ _______ _______ _____ _____    ______ ____

>  <TORSDO>
F 3

$$$$
=
 OpenBabel10232411153D

 33 38  0  0  1  0  0  0  0  0999 V2000
  186.0690  178.7600  145.3230 C   0  0  1  0  0  3  0  0  0  0  0  0
  186.9120  179.1130  147.7180 C   0  0  0  0  0  3  0  0  0  0  0  0
  185.9220  177.9860  142.9370 C   0  0  0  0  0  0  0  0  0  0  0  0
  184.6030  178.7880  145.7450 C   0  0  0  0  0  2  0  0  0  0  0  0
  186.8910  178.0650  141.9250 C   0  0  0  0  0  3  0  0  0  0  0  0
  187.9850  177.5910  146.2010 C   0  0  0  0  0  0  0  0  0  0  0  0
  185.2070  178.7660  140.3310 C   0  0  0  0  0  0  0  0  0  0  0  0
  187.8550  178.7690  148.6940 C   0  0  0  0  0  3  0  0  0  0  0  0
  186.9770  178.4930  146.4680 C   0  0  0  0  0  0  0  0  0  0  0  0
  188.8430  177.8220  148.3900 C   0  0  0  0  0  3  0  0  0  0  0  0
  183.5200  178.3040  143.6940 C   0  0  0  0  0  2  0  0  0  0  0  0
  184.2360  178.7000  141.3380 C   0  0  0  0  0  3  0  0  0  0  0  0
  184.5830  178.3130  142.6360 C   0  0  0  0  0  0  0  0  0  0  0  0
  183.7800  179.3500  144.6780 N   0  0  0  0  0  2  0  0  0  0  0  0
  186.2940  177.6000  144.3470 C   0  0  1  0  0  3  0  0  0  0  0  0
  187.9880  176.9130  144.5590 S   0  0  0  0  0  0  0  0  0  0  0  0
  188.8930  177.2510  147.1540 N   0  0  0  0  0  0  0  0  0  0  0  0
  186.5350  178.4490  140.6300 C   0  0  0  0  0  3  0  0  0  0  0  0
  184.8530  179.1630  138.9300 C   0  0  1  0  0  3  0  0  0  0  0  0
  183.9100  177.2030  137.9350 O   0  0  0  0  0  0  0  0  0  0  0  0
  188.1200  178.1160  136.0180 C   0  0  1  0  0  3  0  0  0  0  0  0
  184.8820  178.0050  137.9750 C   0  0  0  0  0  0  0  0  0  0  0  0
  186.0200  177.8110  137.1200 N   0  0  0  0  0  0  0  0  0  0  0  0
  188.3380  177.0890  138.2260 O   0  0  0  0  0  1  0  0  0  0  0  0
  187.1070  178.7810  136.9700 C   0  0  1  0  0  3  0  0  0  0  0  0
  186.2880  176.6970  136.2820 C   0  0  0  0  0  0  0  0  0  0  0  0
  185.6100  175.5560  136.3080 C   0  0  0  0  0  1  0  0  0  0  0  0
  188.4540  178.2850  137.5070 C   0  0  2  0  0  3  0  0  0  0  0  0
  187.5610  176.8030  135.6830 N   0  0  0  0  0  0  0  0  0  0  0  0
  182.3440  179.2880  138.7410 N   0  0  0  0  0  2  0  0  0  0  0  0
  181.0840  180.0030  138.6350 C   0  0  0  0  0  1  0  0  0  0  0  0
  183.6360  181.2280  138.8460 O   0  0  0  0  0  0  0  0  0  0  0  0
  183.5930  179.9670  138.8500 C   0  0  0  0  0  0  0  0  0  0  0  0
  1  4  1  1  0  0  0
  1  9  1  0  0  0  0
  2  8  1  0  0  0  0
  5  3  2  0  0  0  0
  6  9  1  0  0  0  0
  6 17  2  0  0  0  0
  7 18  2  0  0  0  0
  7 12  1  0  0  0  0
  9  2  2  0  0  0  0
 10  8  2  0  0  0  0
 11 14  1  0  0  0  0
 12 13  2  0  0  0  0
 13  3  1  0  0  0  0
 13 11  1  0  0  0  0
 14  4  1  0  0  0  0
 15  3  1  6  0  0  0
 15 16  1  0  0  0  0
 15  1  1  0  0  0  0
 16  6  1  0  0  0  0
 17 10  1  0  0  0  0
 18  5  1  0  0  0  0
 19 22  1  6  0  0  0
 19  7  1  0  0  0  0
 20 22  2  0  0  0  0
 21 29  1  1  0  0  0
 21 25  1  0  0  0  0
 21 28  1  0  0  0  0
 23 22  1  0  0  0  0
 25 23  1  1  0  0  0
 25 28  1  0  0  0  0
 26 27  1  0  0  0  0
 26 23  1  0  0  0  0
 28 24  1  1  0  0  0
 29 26  2  0  0  0  0
 30 33  1  0  0  0  0
 31 30  1  0  0  0  0
 32 33  2  0  0  0  0
 33 19  1  0  0  0  0
M  END
>  <MODEL>
3

>  <REMARK>
 VINA RESULT:      -8.0      2.068      2.830
  Name = 
  3 active torsions:
  status: ('A' for Active; 'I' for Inactive)
    1  A    between atoms: C_10  and  C_21
    2  A    between atoms: C_11  and  C_21
    3  A    between atoms: C_21  and  C_32
                            x       y       z     vdW  Elec       q    Type
                         _______ _______ _______ _____ _____    ______ ____

>  <TORSDO>
F 3

$$$$
=
 OpenBabel10232411153D

 33 38  0  0  1  0  0  0  0  0999 V2000
  186.9390  177.7500  144.0920 C   0  0  1  0  0  3  0  0  0  0  0  0
  188.5120  176.9020  145.9290 C   0  0  0  0  0  3  0  0  0  0  0  0
  184.9940  178.8440  142.9350 C   0  0  0  0  0  0  0  0  0  0  0  0
  188.0820  178.0050  143.1130 C   0  0  0  0  0  2  0  0  0  0  0  0
  183.6220  178.6770  143.1740 C   0  0  0  0  0  3  0  0  0  0  0  0
  186.6360  178.3220  146.4130 C   0  0  0  0  0  0  0  0  0  0  0  0
  183.1890  178.5970  140.7920 C   0  0  0  0  0  0  0  0  0  0  0  0
  188.8250  176.8890  147.2930 C   0  0  0  0  0  3  0  0  0  0  0  0
  187.4150  177.6490  145.4950 C   0  0  0  0  0  0  0  0  0  0  0  0
  188.0260  177.6150  148.1880 C   0  0  0  0  0  3  0  0  0  0  0  0
  186.9260  178.9910  141.2950 C   0  0  0  0  0  2  0  0  0  0  0  0
  184.5590  178.7530  140.5460 C   0  0  0  0  0  3  0  0  0  0  0  0
  185.4630  178.8760  141.6050 C   0  0  0  0  0  0  0  0  0  0  0  0
  187.6310  177.7930  141.7410 N   0  0  0  0  0  2  0  0  0  0  0  0
  185.9790  178.9460  144.0730 C   0  0  1  0  0  3  0  0  0  0  0  0
  185.2400  179.1900  145.7400 S   0  0  0  0  0  0  0  0  0  0  0  0
  186.9490  178.3160  147.7360 N   0  0  0  0  0  0  0  0  0  0  0  0
  182.7250  178.5590  142.1090 C   0  0  0  0  0  3  0  0  0  0  0  0
  182.2020  178.4800  139.6700 C   0  0  1  0  0  3  0  0  0  0  0  0
  180.5690  177.2120  140.8740 O   0  0  0  0  0  0  0  0  0  0  0  0
  181.5610  175.0900  136.7820 C   0  0  1  0  0  3  0  0  0  0  0  0
  181.2760  177.3100  139.8340 C   0  0  0  0  0  0  0  0  0  0  0  0
  181.2070  176.3030  138.8120 N   0  0  0  0  0  0  0  0  0  0  0  0
  183.3160  174.7120  138.4430 O   0  0  0  0  0  1  0  0  0  0  0  0
  181.8500  176.4210  137.5010 C   0  0  1  0  0  3  0  0  0  0  0  0
  180.5180  175.0640  138.8680 C   0  0  0  0  0  0  0  0  0  0  0  0
  179.9820  174.5500  139.9690 C   0  0  0  0  0  1  0  0  0  0  0  0
  182.9790  175.4090  137.2770 C   0  0  2  0  0  3  0  0  0  0  0  0
  180.7770  174.2830  137.7220 N   0  0  0  0  0  0  0  0  0  0  0  0
  182.0950  180.7080  138.4980 N   0  0  0  0  0  2  0  0  0  0  0  0
  181.4730  181.9840  138.1900 C   0  0  0  0  0  1  0  0  0  0  0  0
  180.3870  180.0260  139.9340 O   0  0  0  0  0  0  0  0  0  0  0  0
  181.4900  179.7650  139.3810 C   0  0  0  0  0  0  0  0  0  0  0  0
  1  4  1  6  0  0  0
  1  9  1  0  0  0  0
  2  8  1  0  0  0  0
  3  5  1  0  0  0  0
  6 17  2  0  0  0  0
  7 18  1  0  0  0  0
  8 10  2  0  0  0  0
  9  2  2  0  0  0  0
  9  6  1  0  0  0  0
 11 13  1  0  0  0  0
 11 14  1  0  0  0  0
 12  7  2  0  0  0  0
 12 13  1  0  0  0  0
 13  3  2  0  0  0  0
 14  4  1  0  0  0  0
 15  3  1  6  0  0  0
 15  1  1  0  0  0  0
 15 16  1  0  0  0  0
 16  6  1  0  0  0  0
 17 10  1  0  0  0  0
 18  5  2  0  0  0  0
 19 33  1  1  0  0  0
 19 22  1  0  0  0  0
 19  7  1  0  0  0  0
 21 28  1  0  0  0  0
 21 25  1  0  0  0  0
 21 29  1  1  0  0  0
 22 20  2  0  0  0  0
 23 26  1  0  0  0  0
 23 22  1  0  0  0  0
 25 23  1  1  0  0  0
 26 27  1  0  0  0  0
 28 25  1  0  0  0  0
 28 24  1  1  0  0  0
 29 26  2  0  0  0  0
 30 33  1  0  0  0  0
 31 30  1  0  0  0  0
 33 32  2  0  0  0  0
M  END
>  <MODEL>
4

>  <REMARK>
 VINA RESULT:      -7.6      1.685      2.128
  Name = 
  3 active torsions:
  status: ('A' for Active; 'I' for Inactive)
    1  A    between atoms: C_10  and  C_21
    2  A    between atoms: C_11  and  C_21
    3  A    between atoms: C_21  and  C_32
                            x       y       z     vdW  Elec       q    Type
                         _______ _______ _______ _____ _____    ______ ____

>  <TORSDO>
F 3

$$$$
=
 OpenBabel10232411153D

 33 38  0  0  1  0  0  0  0  0999 V2000
  186.5900  177.9090  143.6060 C   0  0  1  0  0  3  0  0  0  0  0  0
  187.6450  177.4680  145.9010 C   0  0  0  0  0  3  0  0  0  0  0  0
  184.9900  178.6690  141.8240 C   0  0  0  0  0  0  0  0  0  0  0  0
  187.9440  178.0930  142.9260 C   0  0  0  0  0  2  0  0  0  0  0  0
  183.6090  178.4410  141.7260 C   0  0  0  0  0  3  0  0  0  0  0  0
  185.6660  178.8050  145.6430 C   0  0  0  0  0  0  0  0  0  0  0  0
  183.8270  177.9670  139.3610 C   0  0  0  0  0  0  0  0  0  0  0  0
  187.5850  177.6870  147.2810 C   0  0  0  0  0  3  0  0  0  0  0  0
  186.6800  178.0580  145.0810 C   0  0  0  0  0  0  0  0  0  0  0  0
  186.5560  178.4810  147.8080 C   0  0  0  0  0  3  0  0  0  0  0  0
  187.2830  178.7030  140.7330 C   0  0  0  0  0  2  0  0  0  0  0  0
  185.2080  178.1820  139.4520 C   0  0  0  0  0  3  0  0  0  0  0  0
  185.7940  178.5300  140.6720 C   0  0  0  0  0  0  0  0  0  0  0  0
  187.8790  177.6420  141.5380 N   0  0  0  0  0  2  0  0  0  0  0  0
  185.6350  179.0140  143.1430 C   0  0  1  0  0  3  0  0  0  0  0  0
  184.4730  179.4570  144.4990 S   0  0  0  0  0  0  0  0  0  0  0  0
  185.6170  179.0240  146.9840 N   0  0  0  0  0  0  0  0  0  0  0  0
  183.0310  178.0970  140.5020 C   0  0  0  0  0  3  0  0  0  0  0  0
  183.1760  177.6080  138.0590 C   0  0  1  0  0  3  0  0  0  0  0  0
  182.5370  175.3300  138.4150 O   0  0  0  0  0  0  0  0  0  0  0  0
  185.7340  175.5850  134.9590 C   0  0  1  0  0  3  0  0  0  0  0  0
  183.2500  176.1380  137.7610 C   0  0  0  0  0  0  0  0  0  0  0  0
  184.1400  175.6600  136.7390 N   0  0  0  0  0  0  0  0  0  0  0  0
  186.7690  175.8100  137.1630 O   0  0  0  0  0  1  0  0  0  0  0  0
  184.8670  176.5300  135.8130 C   0  0  1  0  0  3  0  0  0  0  0  0
  184.4550  174.3100  136.4350 C   0  0  0  0  0  0  0  0  0  0  0  0
  184.1190  173.2700  137.1890 C   0  0  0  0  0  1  0  0  0  0  0  0
  186.3880  176.4990  136.0060 C   0  0  2  0  0  3  0  0  0  0  0  0
  185.4600  174.2300  135.4480 N   0  0  0  0  0  0  0  0  0  0  0  0
  181.6440  179.5520  137.5880 N   0  0  0  0  0  2  0  0  0  0  0  0
  180.3370  180.1740  137.4600 C   0  0  0  0  0  1  0  0  0  0  0  0
  180.7830  177.4500  138.1230 O   0  0  0  0  0  0  0  0  0  0  0  0
  181.7970  178.1730  137.9190 C   0  0  0  0  0  0  0  0  0  0  0  0
  1  4  1  6  0  0  0
  1  9  1  0  0  0  0
  2  8  1  0  0  0  0
  5  3  1  0  0  0  0
  6 17  2  0  0  0  0
  7 12  2  0  0  0  0
  7 18  1  0  0  0  0
  8 10  2  0  0  0  0
  9  6  1  0  0  0  0
  9  2  2  0  0  0  0
 11 14  1  0  0  0  0
 12 13  1  0  0  0  0
 13 11  1  0  0  0  0
 13  3  2  0  0  0  0
 14  4  1  0  0  0  0
 15  3  1  6  0  0  0
 15  1  1  0  0  0  0
 15 16  1  0  0  0  0
 16  6  1  0  0  0  0
 17 10  1  0  0  0  0
 18  5  2  0  0  0  0
 19 22  1  1  0  0  0
 19  7  1  0  0  0  0
 21 29  1  1  0  0  0
 21 25  1  0  0  0  0
 21 28  1  0  0  0  0
 22 20  2  0  0  0  0
 23 22  1  0  0  0  0
 25 28  1  0  0  0  0
 25 23  1  1  0  0  0
 26 23  1  0  0  0  0
 26 27  1  0  0  0  0
 28 24  1  1  0  0  0
 29 26  2  0  0  0  0
 30 33  1  0  0  0  0
 31 30  1  0  0  0  0
 33 19  1  0  0  0  0
 33 32  2  0  0  0  0
M  END
>  <MODEL>
5

>  <REMARK>
 VINA RESULT:      -7.5      1.180      1.324
  Name = 
  3 active torsions:
  status: ('A' for Active; 'I' for Inactive)
    1  A    between atoms: C_10  and  C_21
    2  A    between atoms: C_11  and  C_21
    3  A    between atoms: C_21  and  C_32
                            x       y       z     vdW  Elec       q    Type
                         _______ _______ _______ _____ _____    ______ ____

>  <TORSDO>
F 3

$$$$
=
 OpenBabel10232411153D

 33 38  0  0  1  0  0  0  0  0999 V2000
  186.3570  178.6100  145.6670 C   0  0  1  0  0  3  0  0  0  0  0  0
  187.4840  178.8000  147.9610 C   0  0  0  0  0  3  0  0  0  0  0  0
  185.9320  178.0250  143.2600 C   0  0  0  0  0  0  0  0  0  0  0  0
  184.9550  178.5490  146.2670 C   0  0  0  0  0  2  0  0  0  0  0  0
  186.7630  178.2220  142.1470 C   0  0  0  0  0  3  0  0  0  0  0  0
  188.3990  177.4460  146.2000 C   0  0  0  0  0  0  0  0  0  0  0  0
  184.8740  178.9860  140.8370 C   0  0  0  0  0  0  0  0  0  0  0  0
  188.5510  178.4130  148.7810 C   0  0  0  0  0  3  0  0  0  0  0  0
  187.4080  178.2850  146.6650 C   0  0  0  0  0  0  0  0  0  0  0  0
  189.5180  177.5310  148.2790 C   0  0  0  0  0  3  0  0  0  0  0  0
  183.6360  178.1910  144.3310 C   0  0  0  0  0  2  0  0  0  0  0  0
  184.0400  178.8020  141.9470 C   0  0  0  0  0  3  0  0  0  0  0  0
  184.5570  178.3260  143.1550 C   0  0  0  0  0  0  0  0  0  0  0  0
  183.9890  179.1630  145.3600 N   0  0  0  0  0  2  0  0  0  0  0  0
  186.4890  177.5410  144.5750 C   0  0  1  0  0  3  0  0  0  0  0  0
  188.2130  176.9040  144.5180 S   0  0  0  0  0  0  0  0  0  0  0  0
  189.4280  177.0650  147.0020 N   0  0  0  0  0  0  0  0  0  0  0  0
  186.2370  178.6950  140.9430 C   0  0  0  0  0  3  0  0  0  0  0  0
  184.3360  179.4810  139.5290 C   0  0  1  0  0  3  0  0  0  0  0  0
  185.7470  179.1630  137.6220 O   0  0  0  0  0  0  0  0  0  0  0  0
  182.9760  175.3960  138.2240 C   0  0  1  0  0  3  0  0  0  0  0  0
  184.8400  178.6880  138.3580 C   0  0  0  0  0  0  0  0  0  0  0  0
  184.2780  177.3950  138.0750 N   0  0  0  0  0  0  0  0  0  0  0  0
  181.7570  177.2600  137.2150 O   0  0  0  0  0  1  0  0  0  0  0  0
  183.3570  176.6900  138.9680 C   0  0  1  0  0  3  0  0  0  0  0  0
  184.5140  176.5850  136.9350 C   0  0  0  0  0  0  0  0  0  0  0  0
  185.1500  176.9900  135.8420 C   0  0  0  0  0  2  0  0  0  0  0  0
  181.9470  176.5230  138.3900 C   0  0  2  0  0  3  0  0  0  0  0  0
  183.6940  175.4370  136.9460 N   0  0  0  0  0  2  0  0  0  0  0  0
  182.2300  180.3720  138.4710 N   0  0  0  0  0  2  0  0  0  0  0  0
  180.7960  180.5970  138.4240 C   0  0  0  0  0  1  0  0  0  0  0  0
  182.1550  179.1930  140.4830 O   0  0  0  0  0  0  0  0  0  0  0  0
  182.8490  179.6520  139.5350 C   0  0  0  0  0  0  0  0  0  0  0  0
  1  4  1  1  0  0  0
  1  9  1  0  0  0  0
  2  8  1  0  0  0  0
  5  3  2  0  0  0  0
  6  9  1  0  0  0  0
  6 17  2  0  0  0  0
  7 18  2  0  0  0  0
  7 12  1  0  0  0  0
  9  2  2  0  0  0  0
 10  8  2  0  0  0  0
 11 14  1  0  0  0  0
 12 13  2  0  0  0  0
 13  3  1  0  0  0  0
 13 11  1  0  0  0  0
 14  4  1  0  0  0  0
 15  3  1  6  0  0  0
 15  1  1  0  0  0  0
 16 15  1  0  0  0  0
 16  6  1  0  0  0  0
 17 10  1  0  0  0  0
 18  5  1  0  0  0  0
 19 22  1  6  0  0  0
 19 33  1  0  0  0  0
 19  7  1  0  0  0  0
 20 22  2  0  0  0  0
 21 29  1  6  0  0  0
 21 28  1  0  0  0  0
 21 25  1  0  0  0  0
 23 22  1  0  0  0  0
 25 23  1  6  0  0  0
 26 29  1  0  0  0  0
 26 23  1  0  0  0  0
 27 26  2  0  0  0  0
 28 24  1  6  0  0  0
 28 25  1  0  0  0  0
 30 33  1  0  0  0  0
 31 30  1  0  0  0  0
 33 32  2  0  0  0  0
M  END
>  <MODEL>
6

>  <REMARK>
 VINA RESULT:      -7.4      1.774      2.927
  Name = 
  3 active torsions:
  status: ('A' for Active; 'I' for Inactive)
    1  A    between atoms: C_10  and  C_21
    2  A    between atoms: C_11  and  C_21
    3  A    between atoms: C_21  and  C_32
                            x       y       z     vdW  Elec       q    Type
                         _______ _______ _______ _____ _____    ______ ____

>  <TORSDO>
F 3

$$$$
=
 OpenBabel10232411153D

 33 38  0  0  1  0  0  0  0  0999 V2000
  187.6620  177.4670  143.5570 C   0  0  1  0  0  3  0  0  0  0  0  0
  186.1040  177.6570  145.5850 C   0  0  0  0  0  3  0  0  0  0  0  0
  188.5950  177.7070  141.2370 C   0  0  0  0  0  0  0  0  0  0  0  0
  188.9220  177.4930  144.4170 C   0  0  0  0  0  2  0  0  0  0  0  0
  187.9750  177.4370  140.0070 C   0  0  0  0  0  3  0  0  0  0  0  0
  185.6850  178.8450  143.5390 C   0  0  0  0  0  0  0  0  0  0  0  0
  189.9920  176.3680  139.1950 C   0  0  0  0  0  0  0  0  0  0  0  0
  184.9460  178.2270  146.1260 C   0  0  0  0  0  3  0  0  0  0  0  0
  186.4790  177.9960  144.2820 C   0  0  0  0  0  0  0  0  0  0  0  0
  184.1870  179.1110  145.3470 C   0  0  0  0  0  3  0  0  0  0  0  0
  190.6160  177.4980  142.7600 C   0  0  0  0  0  2  0  0  0  0  0  0
  190.6140  176.6240  140.4240 C   0  0  0  0  0  3  0  0  0  0  0  0
  189.9270  177.2890  141.4430 C   0  0  0  0  0  0  0  0  0  0  0  0
  189.9760  176.6940  143.7960 N   0  0  0  0  0  2  0  0  0  0  0  0
  187.8500  178.3960  142.3530 C   0  0  1  0  0  3  0  0  0  0  0  0
  186.2420  179.1540  141.8810 S   0  0  0  0  0  0  0  0  0  0  0  0
  184.5660  179.4040  144.0710 N   0  0  0  0  0  0  0  0  0  0  0  0
  188.6710  176.7760  138.9920 C   0  0  0  0  0  3  0  0  0  0  0  0
  190.7160  175.6710  138.0830 C   0  0  1  0  0  3  0  0  0  0  0  0
  190.1970  177.0190  136.1760 O   0  0  0  0  0  0  0  0  0  0  0  0
  188.3100  172.7260  135.6780 C   0  0  1  0  0  3  0  0  0  0  0  0
  190.0780  175.8990  136.7440 C   0  0  0  0  0  0  0  0  0  0  0  0
  189.3260  174.8450  136.1210 N   0  0  0  0  0  0  0  0  0  0  0  0
  187.0070  174.1110  137.2150 O   0  0  0  0  0  1  0  0  0  0  0  0
  189.2830  173.4670  136.6150 C   0  0  1  0  0  3  0  0  0  0  0  0
  188.5310  174.9310  134.9480 C   0  0  0  0  0  0  0  0  0  0  0  0
  188.1980  176.0660  134.3460 C   0  0  0  0  0  2  0  0  0  0  0  0
  187.9020  173.0390  137.1250 C   0  0  2  0  0  3  0  0  0  0  0  0
  187.8460  173.7220  134.7060 N   0  0  0  0  0  2  0  0  0  0  0  0
  193.0820  174.8820  137.7240 N   0  0  0  0  0  2  0  0  0  0  0  0
  194.5240  175.0570  137.7320 C   0  0  0  0  0  1  0  0  0  0  0  0
  192.6400  177.0550  138.4480 O   0  0  0  0  0  0  0  0  0  0  0  0
  192.1900  175.9320  138.0910 C   0  0  0  0  0  0  0  0  0  0  0  0
  1  9  1  0  0  0  0
  1  4  1  1  0  0  0
  2  8  1  0  0  0  0
  3 13  1  0  0  0  0
  5  3  2  0  0  0  0
  6 17  2  0  0  0  0
  6  9  1  0  0  0  0
  7 12  1  0  0  0  0
  9  2  2  0  0  0  0
 10  8  2  0  0  0  0
 11 14  1  0  0  0  0
 12 13  2  0  0  0  0
 13 11  1  0  0  0  0
 14  4  1  0  0  0  0
 15  3  1  6  0  0  0
 15  1  1  0  0  0  0
 16 15  1  0  0  0  0
 16  6  1  0  0  0  0
 17 10  1  0  0  0  0
 18  7  2  0  0  0  0
 18  5  1  0  0  0  0
 19 22  1  6  0  0  0
 19 33  1  0  0  0  0
 19  7  1  0  0  0  0
 20 22  2  0  0  0  0
 21 29  1  6  0  0  0
 21 25  1  0  0  0  0
 21 28  1  0  0  0  0
 23 22  1  0  0  0  0
 25 23  1  6  0  0  0
 25 28  1  0  0  0  0
 26 23  1  0  0  0  0
 27 26  2  0  0  0  0
 28 24  1  6  0  0  0
 29 26  1  0  0  0  0
 30 31  1  0  0  0  0
 30 33  1  0  0  0  0
 33 32  2  0  0  0  0
M  END
>  <MODEL>
7

>  <REMARK>
 VINA RESULT:      -7.4      3.972      6.380
  Name = 
  3 active torsions:
  status: ('A' for Active; 'I' for Inactive)
    1  A    between atoms: C_10  and  C_21
    2  A    between atoms: C_11  and  C_21
    3  A    between atoms: C_21  and  C_32
                            x       y       z     vdW  Elec       q    Type
                         _______ _______ _______ _____ _____    ______ ____

>  <TORSDO>
F 3

$$$$
=
 OpenBabel10232411153D

 33 38  0  0  1  0  0  0  0  0999 V2000
  187.5660  178.2920  145.2080 C   0  0  1  0  0  3  0  0  0  0  0  0
  188.7770  178.5070  147.4570 C   0  0  0  0  0  3  0  0  0  0  0  0
  187.0210  177.6220  142.8480 C   0  0  0  0  0  0  0  0  0  0  0  0
  186.1840  178.3740  145.8490 C   0  0  0  0  0  2  0  0  0  0  0  0
  187.8300  177.6950  141.7040 C   0  0  0  0  0  3  0  0  0  0  0  0
  189.5270  176.9970  145.7460 C   0  0  0  0  0  0  0  0  0  0  0  0
  185.9660  178.5410  140.4080 C   0  0  0  0  0  0  0  0  0  0  0  0
  189.8360  178.0790  148.2670 C   0  0  0  0  0  3  0  0  0  0  0  0
  188.6200  177.9360  146.1930 C   0  0  0  0  0  0  0  0  0  0  0  0
  190.7150  177.0980  147.7860 C   0  0  0  0  0  3  0  0  0  0  0  0
  184.7800  178.0260  143.9720 C   0  0  0  0  0  2  0  0  0  0  0  0
  185.1550  178.4810  141.5490 C   0  0  0  0  0  3  0  0  0  0  0  0
  185.6720  178.0260  142.7650 C   0  0  0  0  0  0  0  0  0  0  0  0
  185.2410  179.0180  144.9380 N   0  0  0  0  0  2  0  0  0  0  0  0
  187.5790  177.1620  144.1720 C   0  0  1  0  0  3  0  0  0  0  0  0
  189.2460  176.3870  144.1010 S   0  0  0  0  0  0  0  0  0  0  0  0
  190.5470  176.5760  146.5390 N   0  0  0  0  0  0  0  0  0  0  0  0
  187.3040  178.1470  140.4910 C   0  0  0  0  0  3  0  0  0  0  0  0
  185.4280  179.0110  139.0900 C   0  0  1  0  0  3  0  0  0  0  0  0
  184.5340  177.0700  138.0130 O   0  0  0  0  0  0  0  0  0  0  0  0
  188.4820  178.4490  135.8350 C   0  0  1  0  0  3  0  0  0  0  0  0
  185.4490  177.9380  138.0410 C   0  0  0  0  0  0  0  0  0  0  0  0
  186.5170  177.8990  137.0790 N   0  0  0  0  0  0  0  0  0  0  0  0
  188.9680  177.2680  137.9200 O   0  0  0  0  0  1  0  0  0  0  0  0
  187.5160  178.9570  136.9220 C   0  0  1  0  0  3  0  0  0  0  0  0
  186.7830  176.8790  136.1290 C   0  0  0  0  0  0  0  0  0  0  0  0
  186.1900  175.6910  136.1130 C   0  0  0  0  0  1  0  0  0  0  0  0
  188.9370  178.5230  137.2990 C   0  0  2  0  0  3  0  0  0  0  0  0
  187.9860  177.1280  135.4370 N   0  0  0  0  0  0  0  0  0  0  0  0
  182.9870  178.9650  139.7150 N   0  0  0  0  0  2  0  0  0  0  0  0
  181.6670  179.5590  139.8370 C   0  0  0  0  0  1  0  0  0  0  0  0
  183.9650  180.8950  138.8420 O   0  0  0  0  0  0  0  0  0  0  0  0
  184.1020  179.6970  139.2110 C   0  0  0  0  0  0  0  0  0  0  0  0
  1  4  1  1  0  0  0
  1  9  1  0  0  0  0
  2  8  1  0  0  0  0
  5  3  2  0  0  0  0
  6  9  1  0  0  0  0
  6 17  2  0  0  0  0
  7 18  2  0  0  0  0
  7 12  1  0  0  0  0
  9  2  2  0  0  0  0
 10  8  2  0  0  0  0
 11 14  1  0  0  0  0
 12 13  2  0  0  0  0
 13  3  1  0  0  0  0
 13 11  1  0  0  0  0
 14  4  1  0  0  0  0
 15  3  1  6  0  0  0
 15  1  1  0  0  0  0
 16 15  1  0  0  0  0
 16  6  1  0  0  0  0
 17 10  1  0  0  0  0
 18  5  1  0  0  0  0
 19 22  1  6  0  0  0
 19 33  1  0  0  0  0
 19  7  1  0  0  0  0
 20 22  2  0  0  0  0
 21 29  1  1  0  0  0
 21 25  1  0  0  0  0
 21 28  1  0  0  0  0
 23 22  1  0  0  0  0
 25 23  1  1  0  0  0
 25 28  1  0  0  0  0
 26 23  1  0  0  0  0
 27 26  1  0  0  0  0
 28 24  1  1  0  0  0
 29 26  2  0  0  0  0
 30 31  1  0  0  0  0
 32 33  2  0  0  0  0
 33 30  1  0  0  0  0
M  END
>  <MODEL>
8

>  <REMARK>
 VINA RESULT:      -7.2      2.293      3.072
  Name = 
  3 active torsions:
  status: ('A' for Active; 'I' for Inactive)
    1  A    between atoms: C_10  and  C_21
    2  A    between atoms: C_11  and  C_21
    3  A    between atoms: C_21  and  C_32
                            x       y       z     vdW  Elec       q    Type
                         _______ _______ _______ _____ _____    ______ ____

>  <TORSDO>
F 3

$$$$
=
 OpenBabel10232411153D

 33 38  0  0  1  0  0  0  0  0999 V2000
  189.6730  177.1820  144.8440 C   0  0  1  0  0  3  0  0  0  0  0  0
  189.1060  176.9410  147.3320 C   0  0  0  0  0  3  0  0  0  0  0  0
  189.4710  177.6860  142.3900 C   0  0  0  0  0  0  0  0  0  0  0  0
  191.1360  177.5130  145.1230 C   0  0  0  0  0  2  0  0  0  0  0  0
  188.4720  177.2870  141.4900 C   0  0  0  0  0  3  0  0  0  0  0  0
  187.6160  178.0160  145.7840 C   0  0  0  0  0  0  0  0  0  0  0  0
  190.1470  176.7750  139.8170 C   0  0  0  0  0  0  0  0  0  0  0  0
  188.1850  177.1910  148.3560 C   0  0  0  0  0  3  0  0  0  0  0  0
  188.8150  177.3840  146.0390 C   0  0  0  0  0  0  0  0  0  0  0  0
  186.9930  177.8660  148.0580 C   0  0  0  0  0  3  0  0  0  0  0  0
  191.9330  177.9720  142.9390 C   0  0  0  0  0  2  0  0  0  0  0  0
  191.1510  177.1620  140.7140 C   0  0  0  0  0  3  0  0  0  0  0  0
  190.8230  177.6150  141.9950 C   0  0  0  0  0  0  0  0  0  0  0  0
  191.9830  177.0170  144.0410 N   0  0  0  0  0  2  0  0  0  0  0  0
  189.1270  178.1470  143.7850 C   0  0  1  0  0  3  0  0  0  0  0  0
  187.3440  178.4810  144.0910 S   0  0  0  0  0  0  0  0  0  0  0  0
  186.7290  178.2650  146.7820 N   0  0  0  0  0  0  0  0  0  0  0  0
  188.8080  176.8390  140.2100 C   0  0  0  0  0  3  0  0  0  0  0  0
  190.4760  176.3010  138.4330 C   0  0  1  0  0  3  0  0  0  0  0  0
  189.7340  178.2820  137.3160 O   0  0  0  0  0  0  0  0  0  0  0  0
  187.8850  174.4720  135.2420 C   0  0  1  0  0  3  0  0  0  0  0  0
  189.6970  177.0220  137.3730 C   0  0  0  0  0  0  0  0  0  0  0  0
  188.9030  176.2760  136.4360 N   0  0  0  0  0  0  0  0  0  0  0  0
  186.7260  175.0170  137.3250 O   0  0  0  0  0  1  0  0  0  0  0  0
  188.9380  174.8170  136.3130 C   0  0  1  0  0  3  0  0  0  0  0  0
  187.9870  176.7900  135.4810 C   0  0  0  0  0  0  0  0  0  0  0  0
  187.5720  178.0500  135.4390 C   0  0  0  0  0  1  0  0  0  0  0  0
  187.6260  174.1340  136.7170 C   0  0  2  0  0  3  0  0  0  0  0  0
  187.3030  175.7490  134.8190 N   0  0  0  0  0  0  0  0  0  0  0  0
  192.5410  175.0360  137.7340 N   0  0  0  0  0  2  0  0  0  0  0  0
  193.9660  174.9180  137.4770 C   0  0  0  0  0  1  0  0  0  0  0  0
  192.6620  177.2850  138.3450 O   0  0  0  0  0  0  0  0  0  0  0  0
  191.9490  176.2600  138.1630 C   0  0  0  0  0  0  0  0  0  0  0  0
  1  4  1  1  0  0  0
  1  9  1  0  0  0  0
  2  8  1  0  0  0  0
  5  3  2  0  0  0  0
  6  9  1  0  0  0  0
  6 17  2  0  0  0  0
  7 18  2  0  0  0  0
  7 12  1  0  0  0  0
  9  2  2  0  0  0  0
 10  8  2  0  0  0  0
 11 14  1  0  0  0  0
 12 13  2  0  0  0  0
 13  3  1  0  0  0  0
 13 11  1  0  0  0  0
 14  4  1  0  0  0  0
 15  3  1  6  0  0  0
 15 16  1  0  0  0  0
 15  1  1  0  0  0  0
 16  6  1  0  0  0  0
 17 10  1  0  0  0  0
 18  5  1  0  0  0  0
 19 22  1  6  0  0  0
 19  7  1  0  0  0  0
 20 22  2  0  0  0  0
 21 29  1  1  0  0  0
 21 25  1  0  0  0  0
 21 28  1  0  0  0  0
 23 22  1  0  0  0  0
 25 23  1  1  0  0  0
 25 28  1  0  0  0  0
 26 23  1  0  0  0  0
 27 26  1  0  0  0  0
 28 24  1  1  0  0  0
 29 26  2  0  0  0  0
 30 33  1  0  0  0  0
 31 30  1  0  0  0  0
 33 32  2  0  0  0  0
 33 19  1  0  0  0  0
M  END
>  <MODEL>
9

>  <REMARK>
 VINA RESULT:      -7.2      4.111      5.996
  Name = 
  3 active torsions:
  status: ('A' for Active; 'I' for Inactive)
    1  A    between atoms: C_10  and  C_21
    2  A    between atoms: C_11  and  C_21
    3  A    between atoms: C_21  and  C_32
                            x       y       z     vdW  Elec       q    Type
                         _______ _______ _______ _____ _____    ______ ____

>  <TORSDO>
F 3

$$$$
