=
 OpenBabel10232412023D

 42 48  0  0  1  0  0  0  0  0999 V2000
  190.6840  177.2180  140.9710 N   0  0  2  0  0  0  0  0  0  0  0  0
  188.8080  176.9350  142.3200 C   0  0  1  0  0  3  0  0  0  0  0  0
  188.5500  177.8740  141.1460 C   0  0  0  0  0  2  0  0  0  0  0  0
  189.4370  177.1930  140.1530 C   0  0  2  0  0  0  0  0  0  0  0  0
  190.7410  177.1760  139.5140 C   0  0  1  0  0  0  0  0  0  0  0  0
  189.6040  177.9880  138.8880 C   0  0  1  0  0  3  0  0  0  0  0  0
  190.1230  176.2650  141.9090 C   0  0  0  0  0  2  0  0  0  0  0  0
  189.0040  177.7190  143.5370 N   0  0  0  0  0  2  0  0  0  0  0  0
  188.7880  177.5300  145.9990 C   0  0  0  0  0  2  0  0  0  0  0  0
  186.4550  178.1610  146.3090 C   0  0  0  0  0  2  0  0  0  0  0  0
  186.4590  177.6860  144.5530 S   0  0  0  0  0  0  0  0  0  0  0  0
  188.2100  177.1720  144.6400 C   0  0  1  0  0  3  0  0  0  0  0  0
  187.6400  177.4950  146.9830 C   0  0  2  0  0  3  0  0  0  0  0  0
  189.3530  178.4880  148.3050 F   0  0  0  0  0  0  0  0  0  0  0  0
  187.2790  179.3610  148.4400 F   0  0  0  0  0  0  0  0  0  0  0  0
  188.0020  178.1910  148.2940 C   0  0  0  0  0  0  0  0  0  0  0  0
  187.7260  177.3510  149.3580 F   0  0  0  0  0  0  0  0  0  0  0  0
  190.9250  175.8220  138.9960 N   0  0  0  0  0  2  0  0  0  0  0  0
  192.7230  173.9750  136.2810 C   0  0  0  0  0  3  0  0  0  0  0  0
  193.7070  174.9060  135.9360 C   0  0  0  0  0  0  0  0  0  0  0  0
  192.8380  176.4310  137.6100 C   0  0  0  0  0  3  0  0  0  0  0  0
  194.7320  177.0820  136.2730 O   0  0  0  0  0  1  0  0  0  0  0  0
  191.8020  174.2680  137.2920 C   0  0  0  0  0  3  0  0  0  0  0  0
  191.8570  175.4990  137.9600 C   0  0  0  0  0  0  0  0  0  0  0  0
  193.7620  176.1410  136.6020 C   0  0  0  0  0  0  0  0  0  0  0  0
  194.6640  174.5830  134.8390 C   0  0  0  0  0  2  0  0  0  0  0  0
  195.7830  173.8230  135.3690 N   0  0  0  0  0  2  0  0  0  0  0  0
  196.9880  174.4350  134.8420 C   0  0  0  0  0  1  0  0  0  0  0  0
  188.9050  177.2730  137.7430 C   0  0  0  0  0  2  0  0  0  0  0  0
  188.8300  178.1950  136.5420 C   0  0  0  0  0  2  0  0  0  0  0  0
  186.5450  177.3360  136.3510 C   0  0  1  0  0  3  0  0  0  0  0  0
  186.8020  177.9140  135.0230 N   0  0  0  0  0  0  0  0  0  0  0  0
  187.3680  178.5340  136.2550 C   0  0  2  0  0  3  0  0  0  0  0  0
  187.2510  175.6870  134.4970 O   0  0  0  0  0  1  0  0  0  0  0  0
  187.7110  176.9940  134.3460 C   0  0  0  0  0  2  0  0  0  0  0  0
  185.1480  177.7160  136.7990 C   0  0  0  0  0  2  0  0  0  0  0  0
  185.0300  177.5390  138.2980 C   0  0  1  0  0  3  0  0  0  0  0  0
  183.9570  178.4180  138.8180 C   0  0  1  0  0  3  0  0  0  0  0  0
  183.7510  177.0430  138.6000 O   0  0  0  0  0  0  0  0  0  0  0  0
  184.1570  178.6700  140.2750 C   0  0  0  0  0  0  0  0  0  0  0  0
  185.2260  179.5020  140.7140 N   0  0  0  0  0  1  0  0  0  0  0  0
  183.3610  178.1790  141.1180 O   0  0  0  0  0  0  0  0  0  0  0  0
  1  7  1  1  0  0  0
  2  8  1  1  0  0  0
  3  2  1  0  0  0  0
  4  1  1  0  0  0  0
  4  3  1  6  0  0  0
  5 18  1  6  0  0  0
  5  4  1  0  0  0  0
  5  1  1  0  0  0  0
  6 29  1  6  0  0  0
  6  5  1  0  0  0  0
  6  4  1  0  0  0  0
  7  2  1  0  0  0  0
  9 13  1  0  0  0  0
 10 13  1  0  0  0  0
 11 12  1  0  0  0  0
 11 10  1  0  0  0  0
 12  8  1  6  0  0  0
 12  9  1  0  0  0  0
 13 16  1  1  0  0  0
 16 14  1  0  0  0  0
 16 15  1  0  0  0  0
 16 17  1  0  0  0  0
 19 23  1  0  0  0  0
 20 19  2  0  0  0  0
 20 25  1  0  0  0  0
 21 24  1  0  0  0  0
 22 25  1  0  0  0  0
 23 24  2  0  0  0  0
 24 18  1  0  0  0  0
 25 21  2  0  0  0  0
 26 27  1  0  0  0  0
 26 20  1  0  0  0  0
 28 27  1  0  0  0  0
 30 29  1  0  0  0  0
 31 36  1  1  0  0  0
 32 33  1  0  0  0  0
 32 31  1  0  0  0  0
 33 31  1  0  0  0  0
 33 30  1  6  0  0  0
 35 34  1  0  0  0  0
 35 32  1  0  0  0  0
 37 36  1  6  0  0  0
 37 39  1  0  0  0  0
 37 38  1  0  0  0  0
 38 40  1  1  0  0  0
 39 38  1  0  0  0  0
 40 41  1  0  0  0  0
 40 42  2  0  0  0  0
M  END
>  <MODEL>
1

>  <REMARK>
 VINA RESULT:      -7.7      0.000      0.000
  Name = 
  14 active torsions:
  status: ('A' for Active; 'I' for Inactive)
    1  A    between atoms: C_1  and  C_24
    2  A    between atoms: C_5  and  C_8
    3  A    between atoms: C_5  and  N_23
    4  A    between atoms: C_10  and  C_25
    5  A    between atoms: C_12  and  N_36
    6  A    between atoms: C_19  and  C_27
    7  A    between atoms: C_19  and  C_41
    8  A    between atoms: C_21  and  C_25
    9  A    between atoms: C_22  and  N_36
   10  A    between atoms: N_26  and  C_30
   11  A    between atoms: C_31  and  C_34
   12  A    between atoms: C_32  and  N_40
   13  A    between atoms: C_33  and  N_40
   14  A    between atoms: C_37  and  C_41
                            x       y       z     vdW  Elec       q    Type
                         _______ _______ _______ _____ _____    ______ ____

>  <TORSDO>
F 14

$$$$
=
 OpenBabel10232412023D

 42 48  0  0  1  0  0  0  0  0999 V2000
  190.1370  177.5100  140.6460 N   0  0  2  0  0  0  0  0  0  0  0  0
  188.3920  177.1340  142.1400 C   0  0  1  0  0  3  0  0  0  0  0  0
  188.0170  178.1170  141.0350 C   0  0  0  0  0  2  0  0  0  0  0  0
  188.8240  177.4950  139.9390 C   0  0  2  0  0  0  0  0  0  0  0  0
  190.0670  177.5310  139.1890 C   0  0  1  0  0  0  0  0  0  0  0  0
  188.8670  178.3470  138.7010 C   0  0  1  0  0  3  0  0  0  0  0  0
  189.6760  176.5080  141.5860 C   0  0  0  0  0  2  0  0  0  0  0  0
  188.6820  177.8690  143.3680 N   0  0  0  0  0  2  0  0  0  0  0  0
  188.6730  177.5420  145.8250 C   0  0  0  0  0  2  0  0  0  0  0  0
  186.3980  178.2230  146.3740 C   0  0  0  0  0  2  0  0  0  0  0  0
  186.2350  177.8520  144.6010 S   0  0  0  0  0  0  0  0  0  0  0  0
  187.9680  177.2820  144.5040 C   0  0  1  0  0  3  0  0  0  0  0  0
  187.6130  177.4840  146.9020 C   0  0  2  0  0  3  0  0  0  0  0  0
  187.5180  179.3250  148.4100 F   0  0  0  0  0  0  0  0  0  0  0  0
  187.8030  177.2650  149.2800 F   0  0  0  0  0  0  0  0  0  0  0  0
  188.1110  178.0910  148.2130 C   0  0  0  0  0  0  0  0  0  0  0  0
  189.4820  178.2630  148.1550 F   0  0  0  0  0  0  0  0  0  0  0  0
  190.2260  176.2050  138.5980 N   0  0  0  0  0  2  0  0  0  0  0  0
  193.8750  175.9210  137.8130 C   0  0  0  0  0  3  0  0  0  0  0  0
  193.9070  174.6910  137.1470 C   0  0  0  0  0  0  0  0  0  0  0  0
  191.5100  174.4750  137.4530 C   0  0  0  0  0  3  0  0  0  0  0  0
  192.7270  172.7390  136.3120 O   0  0  0  0  0  1  0  0  0  0  0  0
  192.6650  176.4290  138.2930 C   0  0  0  0  0  3  0  0  0  0  0  0
  191.4770  175.7060  138.1150 C   0  0  0  0  0  0  0  0  0  0  0  0
  192.7190  173.9640  136.9700 C   0  0  0  0  0  0  0  0  0  0  0  0
  195.2120  174.1560  136.6640 C   0  0  0  0  0  2  0  0  0  0  0  0
  196.2010  175.2200  136.6380 N   0  0  0  0  0  2  0  0  0  0  0  0
  197.4420  174.6460  137.1250 C   0  0  0  0  0  1  0  0  0  0  0  0
  188.0810  177.6680  137.5900 C   0  0  0  0  0  2  0  0  0  0  0  0
  186.7200  178.3210  137.4610 C   0  0  0  0  0  2  0  0  0  0  0  0
  184.3570  177.7000  137.3080 C   0  0  1  0  0  3  0  0  0  0  0  0
  184.5640  177.8930  138.7520 N   0  0  0  0  0  0  0  0  0  0  0  0
  185.6400  177.3290  137.8890 C   0  0  2  0  0  3  0  0  0  0  0  0
  184.8430  179.5980  140.3170 O   0  0  0  0  0  1  0  0  0  0  0  0
  184.6610  179.3340  138.9610 C   0  0  0  0  0  2  0  0  0  0  0  0
  183.5220  176.4550  137.0860 C   0  0  0  0  0  2  0  0  0  0  0  0
  184.4230  175.3040  136.6890 C   0  0  1  0  0  3  0  0  0  0  0  0
  183.7710  174.0200  137.0370 C   0  0  1  0  0  3  0  0  0  0  0  0
  183.7670  174.5230  135.7220 O   0  0  0  0  0  0  0  0  0  0  0  0
  184.7910  172.9390  137.1580 C   0  0  0  0  0  0  0  0  0  0  0  0
  184.9680  172.0040  136.0980 N   0  0  0  0  0  1  0  0  0  0  0  0
  185.5230  172.8690  138.1800 O   0  0  0  0  0  0  0  0  0  0  0  0
  1  7  1  6  0  0  0
  2  8  1  1  0  0  0
  3  2  1  0  0  0  0
  4  1  1  0  0  0  0
  4  3  1  1  0  0  0
  5 18  1  6  0  0  0
  5  4  1  0  0  0  0
  5  1  1  0  0  0  0
  6 29  1  6  0  0  0
  6  5  1  0  0  0  0
  6  4  1  0  0  0  0
  7  2  1  0  0  0  0
  9 13  1  0  0  0  0
 10 13  1  0  0  0  0
 11 10  1  0  0  0  0
 12  8  1  6  0  0  0
 12 11  1  0  0  0  0
 12  9  1  0  0  0  0
 13 16  1  1  0  0  0
 16 14  1  0  0  0  0
 16 15  1  0  0  0  0
 17 16  1  0  0  0  0
 19 23  1  0  0  0  0
 20 19  2  0  0  0  0
 21 24  1  0  0  0  0
 22 25  1  0  0  0  0
 24 23  2  0  0  0  0
 24 18  1  0  0  0  0
 25 20  1  0  0  0  0
 25 21  2  0  0  0  0
 26 20  1  0  0  0  0
 27 26  1  0  0  0  0
 27 28  1  0  0  0  0
 30 29  1  0  0  0  0
 31 36  1  1  0  0  0
 31 33  1  0  0  0  0
 31 32  1  0  0  0  0
 32 35  1  0  0  0  0
 33 30  1  6  0  0  0
 33 32  1  0  0  0  0
 35 34  1  0  0  0  0
 37 38  1  0  0  0  0
 37 36  1  1  0  0  0
 38 40  1  6  0  0  0
 39 37  1  0  0  0  0
 39 38  1  0  0  0  0
 40 42  2  0  0  0  0
 41 40  1  0  0  0  0
M  END
>  <MODEL>
2

>  <REMARK>
 VINA RESULT:      -7.7      2.100      3.174
  Name = 
  14 active torsions:
  status: ('A' for Active; 'I' for Inactive)
    1  A    between atoms: C_1  and  C_24
    2  A    between atoms: C_5  and  C_8
    3  A    between atoms: C_5  and  N_23
    4  A    between atoms: C_10  and  C_25
    5  A    between atoms: C_12  and  N_36
    6  A    between atoms: C_19  and  C_27
    7  A    between atoms: C_19  and  C_41
    8  A    between atoms: C_21  and  C_25
    9  A    between atoms: C_22  and  N_36
   10  A    between atoms: N_26  and  C_30
   11  A    between atoms: C_31  and  C_34
   12  A    between atoms: C_32  and  N_40
   13  A    between atoms: C_33  and  N_40
   14  A    between atoms: C_37  and  C_41
                            x       y       z     vdW  Elec       q    Type
                         _______ _______ _______ _____ _____    ______ ____

>  <TORSDO>
F 14

$$$$
=
 OpenBabel10232412023D

 42 48  0  0  1  0  0  0  0  0999 V2000
  188.5690  177.1280  141.8960 N   0  0  2  0  0  0  0  0  0  0  0  0
  190.5180  177.8690  142.9320 C   0  0  1  0  0  3  0  0  0  0  0  0
  190.7420  177.4750  141.4760 C   0  0  0  0  0  2  0  0  0  0  0  0
  189.4120  177.9140  140.9480 C   0  0  2  0  0  0  0  0  0  0  0  0
  188.0680  177.5060  140.5790 C   0  0  1  0  0  0  0  0  0  0  0  0
  189.1820  177.4760  139.5290 C   0  0  1  0  0  3  0  0  0  0  0  0
  188.9900  177.9600  143.0050 C   0  0  0  0  0  2  0  0  0  0  0  0
  190.9980  176.8010  143.8050 N   0  0  0  0  0  2  0  0  0  0  0  0
  189.7970  177.6940  145.7820 C   0  0  0  0  0  2  0  0  0  0  0  0
  190.6620  176.2470  147.5420 C   0  0  0  0  0  2  0  0  0  0  0  0
  191.9440  176.0520  146.2660 S   0  0  0  0  0  0  0  0  0  0  0  0
  191.1310  177.2800  145.1840 C   0  0  1  0  0  3  0  0  0  0  0  0
  189.9290  177.5500  147.2810 C   0  0  2  0  0  3  0  0  0  0  0  0
  188.6740  178.2030  149.1960 F   0  0  0  0  0  0  0  0  0  0  0  0
  187.6400  178.2470  147.1940 F   0  0  0  0  0  0  0  0  0  0  0  0
  188.5660  177.5730  147.9700 C   0  0  0  0  0  0  0  0  0  0  0  0
  188.1260  176.2770  148.1770 F   0  0  0  0  0  0  0  0  0  0  0  0
  187.2500  178.7160  140.6130 N   0  0  0  0  0  2  0  0  0  0  0  0
  184.0670  178.5400  142.5750 C   0  0  0  0  0  3  0  0  0  0  0  0
  183.1210  178.7110  141.5590 C   0  0  0  0  0  0  0  0  0  0  0  0
  184.9130  178.8910  139.9340 C   0  0  0  0  0  3  0  0  0  0  0  0
  182.6240  179.0660  139.2080 O   0  0  0  0  0  1  0  0  0  0  0  0
  185.4310  178.5370  142.2720 C   0  0  0  0  0  3  0  0  0  0  0  0
  185.8590  178.7140  140.9490 C   0  0  0  0  0  0  0  0  0  0  0  0
  183.5470  178.8920  140.2340 C   0  0  0  0  0  0  0  0  0  0  0  0
  181.6720  178.7350  141.9080 C   0  0  0  0  0  2  0  0  0  0  0  0
  181.5000  179.2070  143.2720 N   0  0  0  0  0  2  0  0  0  0  0  0
  180.3150  178.5530  143.7930 C   0  0  0  0  0  1  0  0  0  0  0  0
  189.1900  178.6920  138.6150 C   0  0  0  0  0  2  0  0  0  0  0  0
  189.2240  178.2370  137.1700 C   0  0  0  0  0  2  0  0  0  0  0  0
  189.8390  176.3150  135.7840 C   0  0  1  0  0  3  0  0  0  0  0  0
  188.4770  175.9860  136.2350 N   0  0  0  0  0  0  0  0  0  0  0  0
  189.4240  176.7240  137.1190 C   0  0  2  0  0  3  0  0  0  0  0  0
  186.7600  176.0660  134.6600 O   0  0  0  0  0  1  0  0  0  0  0  0
  187.5770  176.8480  135.4750 C   0  0  0  0  0  2  0  0  0  0  0  0
  190.7090  175.0780  135.8810 C   0  0  0  0  0  2  0  0  0  0  0  0
  192.1420  175.4850  136.1490 C   0  0  1  0  0  3  0  0  0  0  0  0
  192.6160  174.8410  137.3960 C   0  0  1  0  0  3  0  0  0  0  0  0
  192.9550  174.3390  136.1250 O   0  0  0  0  0  0  0  0  0  0  0  0
  193.7710  175.5970  137.9610 C   0  0  0  0  0  0  0  0  0  0  0  0
  193.5440  176.6870  138.8500 N   0  0  0  0  0  1  0  0  0  0  0  0
  194.9500  175.2530  137.6840 O   0  0  0  0  0  0  0  0  0  0  0  0
  1  7  1  1  0  0  0
  2  7  1  0  0  0  0
  2  8  1  1  0  0  0
  3  2  1  0  0  0  0
  4  3  1  1  0  0  0
  4  1  1  0  0  0  0
  5 18  1  6  0  0  0
  5  4  1  0  0  0  0
  5  1  1  0  0  0  0
  6 29  1  6  0  0  0
  6  5  1  0  0  0  0
  6  4  1  0  0  0  0
  9 13  1  0  0  0  0
 11 10  1  0  0  0  0
 12  8  1  6  0  0  0
 12  9  1  0  0  0  0
 12 11  1  0  0  0  0
 13 10  1  0  0  0  0
 13 16  1  1  0  0  0
 15 16  1  0  0  0  0
 16 17  1  0  0  0  0
 16 14  1  0  0  0  0
 18 24  1  0  0  0  0
 20 26  1  0  0  0  0
 20 19  2  0  0  0  0
 21 25  2  0  0  0  0
 21 24  1  0  0  0  0
 22 25  1  0  0  0  0
 23 19  1  0  0  0  0
 24 23  2  0  0  0  0
 25 20  1  0  0  0  0
 26 27  1  0  0  0  0
 27 28  1  0  0  0  0
 30 29  1  0  0  0  0
 31 36  1  1  0  0  0
 31 32  1  0  0  0  0
 31 33  1  0  0  0  0
 32 33  1  0  0  0  0
 33 30  1  6  0  0  0
 34 35  1  0  0  0  0
 35 32  1  0  0  0  0
 37 36  1  1  0  0  0
 37 38  1  0  0  0  0
 38 40  1  6  0  0  0
 39 37  1  0  0  0  0
 39 38  1  0  0  0  0
 40 41  1  0  0  0  0
 42 40  2  0  0  0  0
M  END
>  <MODEL>
3

>  <REMARK>
 VINA RESULT:      -7.6      2.253      7.717
  Name = 
  14 active torsions:
  status: ('A' for Active; 'I' for Inactive)
    1  A    between atoms: C_1  and  C_24
    2  A    between atoms: C_5  and  C_8
    3  A    between atoms: C_5  and  N_23
    4  A    between atoms: C_10  and  C_25
    5  A    between atoms: C_12  and  N_36
    6  A    between atoms: C_19  and  C_27
    7  A    between atoms: C_19  and  C_41
    8  A    between atoms: C_21  and  C_25
    9  A    between atoms: C_22  and  N_36
   10  A    between atoms: N_26  and  C_30
   11  A    between atoms: C_31  and  C_34
   12  A    between atoms: C_32  and  N_40
   13  A    between atoms: C_33  and  N_40
   14  A    between atoms: C_37  and  C_41
                            x       y       z     vdW  Elec       q    Type
                         _______ _______ _______ _____ _____    ______ ____

>  <TORSDO>
F 14

$$$$
=
 OpenBabel10232412023D

 42 48  0  0  1  0  0  0  0  0999 V2000
  188.4600  177.1980  141.7880 N   0  0  2  0  0  0  0  0  0  0  0  0
  190.3750  177.9590  142.8710 C   0  0  1  0  0  3  0  0  0  0  0  0
  190.6430  177.5440  141.4280 C   0  0  0  0  0  2  0  0  0  0  0  0
  189.3290  177.9720  140.8540 C   0  0  2  0  0  0  0  0  0  0  0  0
  187.9970  177.5550  140.4510 C   0  0  1  0  0  0  0  0  0  0  0  0
  189.1420  177.5130  139.4350 C   0  0  1  0  0  3  0  0  0  0  0  0
  188.8450  178.0470  142.8970 C   0  0  0  0  0  2  0  0  0  0  0  0
  190.8310  176.9060  143.7730 N   0  0  0  0  0  2  0  0  0  0  0  0
  189.6040  177.7610  145.7510 C   0  0  0  0  0  2  0  0  0  0  0  0
  190.5720  176.3950  147.5220 C   0  0  0  0  0  2  0  0  0  0  0  0
  191.8470  176.2530  146.2340 S   0  0  0  0  0  0  0  0  0  0  0  0
  190.9530  177.4140  145.1430 C   0  0  1  0  0  3  0  0  0  0  0  0
  189.7620  177.6480  147.2510 C   0  0  2  0  0  3  0  0  0  0  0  0
  188.0550  176.2890  148.2040 F   0  0  0  0  0  0  0  0  0  0  0  0
  188.4600  178.2930  149.1550 F   0  0  0  0  0  0  0  0  0  0  0  0
  188.4080  177.6040  147.9560 C   0  0  0  0  0  0  0  0  0  0  0  0
  187.4420  178.1750  147.1470 F   0  0  0  0  0  0  0  0  0  0  0  0
  187.1750  178.7630  140.4430 N   0  0  0  0  0  2  0  0  0  0  0  0
  183.8960  178.5460  142.2340 C   0  0  0  0  0  3  0  0  0  0  0  0
  183.0040  178.7510  141.1770 C   0  0  0  0  0  0  0  0  0  0  0  0
  184.8770  178.9680  139.6510 C   0  0  0  0  0  3  0  0  0  0  0  0
  182.6290  179.1740  138.8150 O   0  0  0  0  0  1  0  0  0  0  0  0
  185.2740  178.5460  142.0010 C   0  0  0  0  0  3  0  0  0  0  0  0
  185.7700  178.7580  140.7070 C   0  0  0  0  0  0  0  0  0  0  0  0
  183.4980  178.9670  139.8810 C   0  0  0  0  0  0  0  0  0  0  0  0
  181.5390  178.7710  141.4520 C   0  0  0  0  0  2  0  0  0  0  0  0
  181.3040  179.0840  142.8510 N   0  0  0  0  0  2  0  0  0  0  0  0
  180.1280  179.9330  142.8960 C   0  0  0  0  0  1  0  0  0  0  0  0
  189.1740  178.7140  138.5040 C   0  0  0  0  0  2  0  0  0  0  0  0
  189.2200  178.2380  137.0660 C   0  0  0  0  0  2  0  0  0  0  0  0
  187.1550  177.1600  136.3140 C   0  0  1  0  0  3  0  0  0  0  0  0
  187.6710  177.7930  135.0900 N   0  0  0  0  0  0  0  0  0  0  0  0
  187.8480  178.4350  136.4230 C   0  0  2  0  0  3  0  0  0  0  0  0
  188.3960  175.6710  134.4490 O   0  0  0  0  0  1  0  0  0  0  0  0
  188.8090  176.9850  134.6630 C   0  0  0  0  0  2  0  0  0  0  0  0
  185.6590  177.3870  136.3990 C   0  0  0  0  0  2  0  0  0  0  0  0
  184.9830  176.1300  136.9040 C   0  0  1  0  0  3  0  0  0  0  0  0
  183.5200  176.3490  136.9820 C   0  0  1  0  0  3  0  0  0  0  0  0
  184.1100  175.6500  135.9130 O   0  0  0  0  0  0  0  0  0  0  0  0
  182.9020  175.3820  137.9340 C   0  0  0  0  0  0  0  0  0  0  0  0
  182.3640  174.1540  137.4540 N   0  0  0  0  0  1  0  0  0  0  0  0
  182.8850  175.6300  139.1690 O   0  0  0  0  0  0  0  0  0  0  0  0
  1  7  1  1  0  0  0
  2  7  1  0  0  0  0
  2  8  1  1  0  0  0
  3  2  1  0  0  0  0
  4  3  1  1  0  0  0
  4  1  1  0  0  0  0
  5 18  1  6  0  0  0
  5  4  1  0  0  0  0
  5  1  1  0  0  0  0
  6 29  1  6  0  0  0
  6  5  1  0  0  0  0
  6  4  1  0  0  0  0
  9 13  1  0  0  0  0
 11 10  1  0  0  0  0
 12  8  1  6  0  0  0
 12  9  1  0  0  0  0
 12 11  1  0  0  0  0
 13 10  1  0  0  0  0
 13 16  1  1  0  0  0
 16 14  1  0  0  0  0
 16 15  1  0  0  0  0
 17 16  1  0  0  0  0
 18 24  1  0  0  0  0
 20 26  1  0  0  0  0
 20 19  2  0  0  0  0
 21 25  2  0  0  0  0
 21 24  1  0  0  0  0
 22 25  1  0  0  0  0
 23 19  1  0  0  0  0
 24 23  2  0  0  0  0
 25 20  1  0  0  0  0
 26 27  1  0  0  0  0
 27 28  1  0  0  0  0
 30 29  1  0  0  0  0
 31 36  1  6  0  0  0
 31 33  1  0  0  0  0
 32 31  1  0  0  0  0
 32 33  1  0  0  0  0
 33 30  1  1  0  0  0
 34 35  1  0  0  0  0
 35 32  1  0  0  0  0
 37 36  1  6  0  0  0
 37 38  1  0  0  0  0
 38 40  1  1  0  0  0
 39 37  1  0  0  0  0
 39 38  1  0  0  0  0
 40 42  2  0  0  0  0
 41 40  1  0  0  0  0
M  END
>  <MODEL>
4

>  <REMARK>
 VINA RESULT:      -7.5      3.413      6.795
  Name = 
  14 active torsions:
  status: ('A' for Active; 'I' for Inactive)
    1  A    between atoms: C_1  and  C_24
    2  A    between atoms: C_5  and  C_8
    3  A    between atoms: C_5  and  N_23
    4  A    between atoms: C_10  and  C_25
    5  A    between atoms: C_12  and  N_36
    6  A    between atoms: C_19  and  C_27
    7  A    between atoms: C_19  and  C_41
    8  A    between atoms: C_21  and  C_25
    9  A    between atoms: C_22  and  N_36
   10  A    between atoms: N_26  and  C_30
   11  A    between atoms: C_31  and  C_34
   12  A    between atoms: C_32  and  N_40
   13  A    between atoms: C_33  and  N_40
   14  A    between atoms: C_37  and  C_41
                            x       y       z     vdW  Elec       q    Type
                         _______ _______ _______ _____ _____    ______ ____

>  <TORSDO>
F 14

$$$$
=
 OpenBabel10232412023D

 42 48  0  0  1  0  0  0  0  0999 V2000
  188.1550  176.9660  141.7700 N   0  0  2  0  0  0  0  0  0  0  0  0
  186.7610  178.4610  142.8840 C   0  0  1  0  0  3  0  0  0  0  0  0
  187.7220  177.7420  143.8250 C   0  0  0  0  0  2  0  0  0  0  0  0
  188.8810  177.6430  142.8830 C   0  0  2  0  0  0  0  0  0  0  0  0
  189.5960  176.8060  141.9370 C   0  0  1  0  0  0  0  0  0  0  0  0
  189.9850  176.7750  143.4170 C   0  0  1  0  0  3  0  0  0  0  0  0
  187.3750  178.1590  141.5130 C   0  0  0  0  0  2  0  0  0  0  0  0
  185.4370  177.8540  142.9830 N   0  0  0  0  0  2  0  0  0  0  0  0
  183.7770  178.1030  141.1590 C   0  0  0  0  0  2  0  0  0  0  0  0
  181.8050  178.7890  142.4170 C   0  0  0  0  0  2  0  0  0  0  0  0
  183.1320  179.2080  143.5880 S   0  0  0  0  0  0  0  0  0  0  0  0
  184.4210  178.7250  142.3870 C   0  0  1  0  0  3  0  0  0  0  0  0
  182.4050  178.7250  141.0250 C   0  0  2  0  0  3  0  0  0  0  0  0
  181.7140  178.3750  138.7740 F   0  0  0  0  0  0  0  0  0  0  0  0
  181.8190  176.5810  140.1340 F   0  0  0  0  0  0  0  0  0  0  0  0
  181.5180  177.9300  140.0690 C   0  0  0  0  0  0  0  0  0  0  0  0
  180.1890  178.1140  140.4040 F   0  0  0  0  0  0  0  0  0  0  0  0
  190.3660  177.7120  141.0890 N   0  0  0  0  0  2  0  0  0  0  0  0
  193.1500  176.7980  138.7600 C   0  0  0  0  0  3  0  0  0  0  0  0
  192.4300  176.4390  137.6160 C   0  0  0  0  0  0  0  0  0  0  0  0
  190.3570  176.9190  138.7820 C   0  0  0  0  0  3  0  0  0  0  0  0
  190.2910  176.1440  136.5030 O   0  0  0  0  0  1  0  0  0  0  0  0
  192.4770  177.2220  139.9090 C   0  0  0  0  0  3  0  0  0  0  0  0
  191.0770  177.2830  139.9240 C   0  0  0  0  0  0  0  0  0  0  0  0
  191.0270  176.4970  137.6290 C   0  0  0  0  0  0  0  0  0  0  0  0
  193.1660  175.9670  136.4080 C   0  0  0  0  0  2  0  0  0  0  0  0
  194.5360  176.4510  136.4460 N   0  0  0  0  0  2  0  0  0  0  0  0
  194.8630  176.8780  135.0990 C   0  0  0  0  0  1  0  0  0  0  0  0
  191.1940  177.6360  143.7460 C   0  0  0  0  0  2  0  0  0  0  0  0
  191.7090  177.2790  145.1260 C   0  0  0  0  0  2  0  0  0  0  0  0
  190.5240  176.9750  147.2460 C   0  0  1  0  0  3  0  0  0  0  0  0
  191.1370  175.6580  147.0090 N   0  0  0  0  0  0  0  0  0  0  0  0
  190.6380  176.4900  145.8780 C   0  0  2  0  0  3  0  0  0  0  0  0
  192.7840  175.7540  148.6570 O   0  0  0  0  0  1  0  0  0  0  0  0
  192.5620  175.8170  147.2820 C   0  0  0  0  0  2  0  0  0  0  0  0
  189.1030  176.7820  147.7360 C   0  0  0  0  0  2  0  0  0  0  0  0
  188.2710  177.9920  147.3670 C   0  0  1  0  0  3  0  0  0  0  0  0
  186.9380  177.8910  148.0050 C   0  0  1  0  0  3  0  0  0  0  0  0
  187.9570  178.7040  148.5370 O   0  0  0  0  0  0  0  0  0  0  0  0
  185.9500  178.7370  147.2760 C   0  0  0  0  0  0  0  0  0  0  0  0
  184.9900  178.1320  146.4150 N   0  0  0  0  0  1  0  0  0  0  0  0
  185.9380  179.9850  147.4440 O   0  0  0  0  0  0  0  0  0  0  0  0
  1  7  1  6  0  0  0
  1  5  1  0  0  0  0
  1  4  1  0  0  0  0
  2  8  1  6  0  0  0
  2  3  1  0  0  0  0
  4  6  1  0  0  0  0
  4  3  1  6  0  0  0
  5 18  1  6  0  0  0
  5  4  1  0  0  0  0
  5  6  1  0  0  0  0
  6 29  1  6  0  0  0
  7  2  1  0  0  0  0
  9 12  1  0  0  0  0
 10 11  1  0  0  0  0
 12  8  1  1  0  0  0
 12 11  1  0  0  0  0
 13 16  1  6  0  0  0
 13  9  1  0  0  0  0
 13 10  1  0  0  0  0
 14 16  1  0  0  0  0
 16 15  1  0  0  0  0
 16 17  1  0  0  0  0
 19 23  1  0  0  0  0
 20 25  1  0  0  0  0
 20 19  2  0  0  0  0
 21 24  1  0  0  0  0
 22 25  1  0  0  0  0
 23 24  2  0  0  0  0
 24 18  1  0  0  0  0
 25 21  2  0  0  0  0
 26 27  1  0  0  0  0
 26 20  1  0  0  0  0
 28 27  1  0  0  0  0
 29 30  1  0  0  0  0
 31 36  1  1  0  0  0
 32 31  1  0  0  0  0
 32 35  1  0  0  0  0
 33 30  1  6  0  0  0
 33 32  1  0  0  0  0
 33 31  1  0  0  0  0
 35 34  1  0  0  0  0
 37 36  1  1  0  0  0
 37 38  1  0  0  0  0
 37 39  1  0  0  0  0
 38 40  1  6  0  0  0
 38 39  1  0  0  0  0
 40 42  2  0  0  0  0
 41 40  1  0  0  0  0
M  END
>  <MODEL>
5

>  <REMARK>
 VINA RESULT:      -7.5      4.432      7.600
  Name = 
  14 active torsions:
  status: ('A' for Active; 'I' for Inactive)
    1  A    between atoms: C_1  and  C_24
    2  A    between atoms: C_5  and  C_8
    3  A    between atoms: C_5  and  N_23
    4  A    between atoms: C_10  and  C_25
    5  A    between atoms: C_12  and  N_36
    6  A    between atoms: C_19  and  C_27
    7  A    between atoms: C_19  and  C_41
    8  A    between atoms: C_21  and  C_25
    9  A    between atoms: C_22  and  N_36
   10  A    between atoms: N_26  and  C_30
   11  A    between atoms: C_31  and  C_34
   12  A    between atoms: C_32  and  N_40
   13  A    between atoms: C_33  and  N_40
   14  A    between atoms: C_37  and  C_41
                            x       y       z     vdW  Elec       q    Type
                         _______ _______ _______ _____ _____    ______ ____

>  <TORSDO>
F 14

$$$$
=
 OpenBabel10232412023D

 42 48  0  0  1  0  0  0  0  0999 V2000
  187.9190  176.9500  142.0330 N   0  0  2  0  0  0  0  0  0  0  0  0
  186.6700  178.4930  143.2490 C   0  0  1  0  0  3  0  0  0  0  0  0
  187.6740  177.7380  144.1150 C   0  0  0  0  0  2  0  0  0  0  0  0
  188.7520  177.5990  143.0870 C   0  0  2  0  0  0  0  0  0  0  0  0
  189.3610  176.7370  142.0890 C   0  0  1  0  0  0  0  0  0  0  0  0
  189.8620  176.6900  143.5350 C   0  0  1  0  0  3  0  0  0  0  0  0
  187.1650  178.1710  141.8350 C   0  0  0  0  0  2  0  0  0  0  0  0
  185.3360  177.9340  143.4510 N   0  0  0  0  0  2  0  0  0  0  0  0
  183.7210  178.1790  141.5860 C   0  0  0  0  0  2  0  0  0  0  0  0
  181.7000  178.7960  142.8010 C   0  0  0  0  0  2  0  0  0  0  0  0
  182.9840  179.2240  144.0160 S   0  0  0  0  0  0  0  0  0  0  0  0
  184.3160  178.7930  142.8420 C   0  0  1  0  0  3  0  0  0  0  0  0
  182.3390  178.7720  141.4260 C   0  0  2  0  0  3  0  0  0  0  0  0
  180.4550  177.3540  141.0960 F   0  0  0  0  0  0  0  0  0  0  0  0
  180.9810  178.8060  139.4530 F   0  0  0  0  0  0  0  0  0  0  0  0
  181.4970  177.9740  140.4310 C   0  0  0  0  0  0  0  0  0  0  0  0
  182.2800  177.0030  139.8320 F   0  0  0  0  0  0  0  0  0  0  0  0
  190.0960  177.6170  141.1830 N   0  0  0  0  0  2  0  0  0  0  0  0
  190.5990  176.5340  137.6350 C   0  0  0  0  0  3  0  0  0  0  0  0
  189.7590  177.4290  136.9650 C   0  0  0  0  0  0  0  0  0  0  0  0
  189.1480  178.4310  139.0880 C   0  0  0  0  0  3  0  0  0  0  0  0
  188.1850  179.2770  137.0500 O   0  0  0  0  0  1  0  0  0  0  0  0
  190.7190  176.5910  139.0270 C   0  0  0  0  0  3  0  0  0  0  0  0
  189.9920  177.5400  139.7590 C   0  0  0  0  0  0  0  0  0  0  0  0
  189.0280  178.3790  137.6960 C   0  0  0  0  0  0  0  0  0  0  0  0
  189.6280  177.3360  135.4830 C   0  0  0  0  0  2  0  0  0  0  0  0
  188.8660  176.1510  135.1290 N   0  0  0  0  0  2  0  0  0  0  0  0
  187.5530  176.6080  134.7170 C   0  0  0  0  0  1  0  0  0  0  0  0
  191.1230  177.5060  143.7700 C   0  0  0  0  0  2  0  0  0  0  0  0
  191.6100  177.2890  145.1880 C   0  0  0  0  0  2  0  0  0  0  0  0
  190.4630  177.0540  147.3380 C   0  0  1  0  0  3  0  0  0  0  0  0
  191.0520  175.7230  147.1210 N   0  0  0  0  0  0  0  0  0  0  0  0
  190.5430  176.5350  145.9800 C   0  0  2  0  0  3  0  0  0  0  0  0
  192.6910  176.5250  148.5720 O   0  0  0  0  0  1  0  0  0  0  0  0
  192.4850  175.8660  147.3620 C   0  0  0  0  0  2  0  0  0  0  0  0
  189.0500  176.8940  147.8600 C   0  0  0  0  0  2  0  0  0  0  0  0
  188.2080  178.0700  147.4130 C   0  0  1  0  0  3  0  0  0  0  0  0
  186.8340  177.9310  147.9490 C   0  0  1  0  0  3  0  0  0  0  0  0
  187.7810  178.7840  148.5460 O   0  0  0  0  0  0  0  0  0  0  0  0
  185.8780  178.7340  147.1350 C   0  0  0  0  0  0  0  0  0  0  0  0
  184.5760  178.2270  146.8570 N   0  0  0  0  0  1  0  0  0  0  0  0
  186.2030  179.8780  146.7210 O   0  0  0  0  0  0  0  0  0  0  0  0
  1  7  1  6  0  0  0
  1  5  1  0  0  0  0
  1  4  1  0  0  0  0
  2  8  1  6  0  0  0
  2  3  1  0  0  0  0
  4  6  1  0  0  0  0
  4  3  1  6  0  0  0
  5 18  1  6  0  0  0
  5  4  1  0  0  0  0
  5  6  1  0  0  0  0
  6 29  1  6  0  0  0
  7  2  1  0  0  0  0
  9 12  1  0  0  0  0
 10 11  1  0  0  0  0
 12  8  1  1  0  0  0
 12 11  1  0  0  0  0
 13 16  1  6  0  0  0
 13  9  1  0  0  0  0
 13 10  1  0  0  0  0
 15 16  1  0  0  0  0
 16 14  1  0  0  0  0
 17 16  1  0  0  0  0
 19 23  1  0  0  0  0
 20 19  2  0  0  0  0
 20 25  1  0  0  0  0
 21 24  1  0  0  0  0
 22 25  1  0  0  0  0
 23 24  2  0  0  0  0
 24 18  1  0  0  0  0
 25 21  2  0  0  0  0
 26 20  1  0  0  0  0
 27 26  1  0  0  0  0
 28 27  1  0  0  0  0
 29 30  1  0  0  0  0
 31 36  1  1  0  0  0
 32 31  1  0  0  0  0
 32 35  1  0  0  0  0
 33 30  1  6  0  0  0
 33 32  1  0  0  0  0
 33 31  1  0  0  0  0
 35 34  1  0  0  0  0
 37 36  1  1  0  0  0
 37 38  1  0  0  0  0
 37 39  1  0  0  0  0
 38 40  1  6  0  0  0
 38 39  1  0  0  0  0
 41 40  1  0  0  0  0
 42 40  2  0  0  0  0
M  END
>  <MODEL>
6

>  <REMARK>
 VINA RESULT:      -7.4      4.383      7.906
  Name = 
  14 active torsions:
  status: ('A' for Active; 'I' for Inactive)
    1  A    between atoms: C_1  and  C_24
    2  A    between atoms: C_5  and  C_8
    3  A    between atoms: C_5  and  N_23
    4  A    between atoms: C_10  and  C_25
    5  A    between atoms: C_12  and  N_36
    6  A    between atoms: C_19  and  C_27
    7  A    between atoms: C_19  and  C_41
    8  A    between atoms: C_21  and  C_25
    9  A    between atoms: C_22  and  N_36
   10  A    between atoms: N_26  and  C_30
   11  A    between atoms: C_31  and  C_34
   12  A    between atoms: C_32  and  N_40
   13  A    between atoms: C_33  and  N_40
   14  A    between atoms: C_37  and  C_41
                            x       y       z     vdW  Elec       q    Type
                         _______ _______ _______ _____ _____    ______ ____

>  <TORSDO>
F 14

$$$$
=
 OpenBabel10232412023D

 42 48  0  0  1  0  0  0  0  0999 V2000
  188.7940  177.1950  142.0300 N   0  0  2  0  0  0  0  0  0  0  0  0
  190.8030  177.9350  142.9430 C   0  0  1  0  0  3  0  0  0  0  0  0
  190.9410  177.5140  141.4830 C   0  0  0  0  0  2  0  0  0  0  0  0
  189.5880  177.9570  141.0230 C   0  0  2  0  0  0  0  0  0  0  0  0
  188.2220  177.5560  140.7370 C   0  0  1  0  0  0  0  0  0  0  0  0
  189.2750  177.4970  139.6270 C   0  0  1  0  0  3  0  0  0  0  0  0
  189.2830  178.0410  143.1000 C   0  0  0  0  0  2  0  0  0  0  0  0
  191.3230  176.8780  143.8060 N   0  0  0  0  0  2  0  0  0  0  0  0
  189.9540  177.7530  145.6780 C   0  0  0  0  0  2  0  0  0  0  0  0
  190.5830  176.2210  147.4670 C   0  0  0  0  0  2  0  0  0  0  0  0
  191.9820  176.0190  146.3240 S   0  0  0  0  0  0  0  0  0  0  0  0
  191.3280  177.3080  145.2060 C   0  0  1  0  0  3  0  0  0  0  0  0
  189.9250  177.5570  147.1780 C   0  0  2  0  0  3  0  0  0  0  0  0
  187.6070  177.7760  146.6790 F   0  0  0  0  0  0  0  0  0  0  0  0
  188.1930  176.4410  148.3990 F   0  0  0  0  0  0  0  0  0  0  0  0
  188.4990  177.6090  147.7230 C   0  0  0  0  0  0  0  0  0  0  0  0
  188.3700  178.6800  148.5890 F   0  0  0  0  0  0  0  0  0  0  0  0
  187.4170  178.7740  140.7960 N   0  0  0  0  0  2  0  0  0  0  0  0
  183.6910  178.8480  140.4520 C   0  0  0  0  0  3  0  0  0  0  0  0
  183.3010  178.7890  141.7930 C   0  0  0  0  0  0  0  0  0  0  0  0
  185.6330  178.7140  142.4580 C   0  0  0  0  0  3  0  0  0  0  0  0
  183.9120  178.6570  144.1410 O   0  0  0  0  0  1  0  0  0  0  0  0
  185.0470  178.8460  140.1130 C   0  0  0  0  0  3  0  0  0  0  0  0
  186.0230  178.7780  141.1170 C   0  0  0  0  0  0  0  0  0  0  0  0
  184.2770  178.7180  142.8000 C   0  0  0  0  0  0  0  0  0  0  0  0
  181.8490  178.7680  142.1310 C   0  0  0  0  0  2  0  0  0  0  0  0
  181.0590  178.8670  140.9160 N   0  0  0  0  0  2  0  0  0  0  0  0
  180.1170  179.9520  141.1180 C   0  0  0  0  0  1  0  0  0  0  0  0
  189.2420  178.6970  138.6930 C   0  0  0  0  0  2  0  0  0  0  0  0
  189.2630  178.2190  137.2550 C   0  0  0  0  0  2  0  0  0  0  0  0
  189.7180  176.2520  135.8710 C   0  0  1  0  0  3  0  0  0  0  0  0
  188.4060  175.9520  136.4650 N   0  0  0  0  0  0  0  0  0  0  0  0
  189.4430  176.7020  137.2280 C   0  0  2  0  0  3  0  0  0  0  0  0
  187.6790  176.7610  134.4020 O   0  0  0  0  0  1  0  0  0  0  0  0
  187.4410  176.8030  135.7750 C   0  0  0  0  0  2  0  0  0  0  0  0
  190.5810  175.0070  135.9150 C   0  0  0  0  0  2  0  0  0  0  0  0
  192.0330  175.4020  136.0750 C   0  0  1  0  0  3  0  0  0  0  0  0
  192.5910  174.7650  137.2900 C   0  0  1  0  0  3  0  0  0  0  0  0
  192.8330  174.2480  136.0030 O   0  0  0  0  0  0  0  0  0  0  0  0
  193.7900  175.5140  137.7640 C   0  0  0  0  0  0  0  0  0  0  0  0
  195.0920  175.1120  137.3490 N   0  0  0  0  0  1  0  0  0  0  0  0
  193.6550  176.5240  138.5030 O   0  0  0  0  0  0  0  0  0  0  0  0
  1  7  1  1  0  0  0
  2  7  1  0  0  0  0
  2  8  1  1  0  0  0
  3  2  1  0  0  0  0
  4  3  1  1  0  0  0
  4  1  1  0  0  0  0
  5 18  1  6  0  0  0
  5  4  1  0  0  0  0
  5  1  1  0  0  0  0
  6 29  1  6  0  0  0
  6  5  1  0  0  0  0
  6  4  1  0  0  0  0
  9 13  1  0  0  0  0
 11 10  1  0  0  0  0
 12  8  1  6  0  0  0
 12  9  1  0  0  0  0
 12 11  1  0  0  0  0
 13 10  1  0  0  0  0
 13 16  1  6  0  0  0
 14 16  1  0  0  0  0
 16 15  1  0  0  0  0
 16 17  1  0  0  0  0
 18 24  1  0  0  0  0
 19 20  1  0  0  0  0
 20 26  1  0  0  0  0
 20 25  2  0  0  0  0
 21 25  1  0  0  0  0
 23 19  2  0  0  0  0
 23 24  1  0  0  0  0
 24 21  2  0  0  0  0
 25 22  1  0  0  0  0
 27 28  1  0  0  0  0
 27 26  1  0  0  0  0
 30 29  1  0  0  0  0
 31 36  1  1  0  0  0
 31 32  1  0  0  0  0
 31 33  1  0  0  0  0
 32 33  1  0  0  0  0
 33 30  1  6  0  0  0
 34 35  1  0  0  0  0
 35 32  1  0  0  0  0
 37 36  1  1  0  0  0
 37 38  1  0  0  0  0
 38 40  1  6  0  0  0
 39 37  1  0  0  0  0
 39 38  1  0  0  0  0
 40 42  2  0  0  0  0
 41 40  1  0  0  0  0
M  END
>  <MODEL>
7

>  <REMARK>
 VINA RESULT:      -7.4      2.277      7.711
  Name = 
  14 active torsions:
  status: ('A' for Active; 'I' for Inactive)
    1  A    between atoms: C_1  and  C_24
    2  A    between atoms: C_5  and  C_8
    3  A    between atoms: C_5  and  N_23
    4  A    between atoms: C_10  and  C_25
    5  A    between atoms: C_12  and  N_36
    6  A    between atoms: C_19  and  C_27
    7  A    between atoms: C_19  and  C_41
    8  A    between atoms: C_21  and  C_25
    9  A    between atoms: C_22  and  N_36
   10  A    between atoms: N_26  and  C_30
   11  A    between atoms: C_31  and  C_34
   12  A    between atoms: C_32  and  N_40
   13  A    between atoms: C_33  and  N_40
   14  A    between atoms: C_37  and  C_41
                            x       y       z     vdW  Elec       q    Type
                         _______ _______ _______ _____ _____    ______ ____

>  <TORSDO>
F 14

$$$$
=
 OpenBabel10232412023D

 42 48  0  0  1  0  0  0  0  0999 V2000
  185.9270  179.2060  141.6720 N   0  0  2  0  0  0  0  0  0  0  0  0
  184.5280  178.5190  139.9430 C   0  0  1  0  0  3  0  0  0  0  0  0
  185.9540  178.7840  139.4730 C   0  0  0  0  0  2  0  0  0  0  0  0
  186.6560  178.3280  140.7130 C   0  0  2  0  0  0  0  0  0  0  0  0
  187.2730  178.7280  141.9650 C   0  0  1  0  0  0  0  0  0  0  0  0
  188.1250  178.6480  140.6950 C   0  0  1  0  0  3  0  0  0  0  0  0
  184.7000  178.4640  141.4650 C   0  0  0  0  0  2  0  0  0  0  0  0
  183.6760  179.6470  139.5760 N   0  0  0  0  0  2  0  0  0  0  0  0
  182.4550  177.7590  138.5330 C   0  0  0  0  0  2  0  0  0  0  0  0
  180.5120  177.6000  139.9950 C   0  0  0  0  0  2  0  0  0  0  0  0
  181.0640  179.3000  140.3300 S   0  0  0  0  0  0  0  0  0  0  0  0
  182.3830  179.1780  139.0710 C   0  0  1  0  0  3  0  0  0  0  0  0
  181.0620  177.1800  138.6450 C   0  0  2  0  0  3  0  0  0  0  0  0
  182.3700  175.1920  138.5800 F   0  0  0  0  0  0  0  0  0  0  0  0
  180.3070  175.0660  139.4800 F   0  0  0  0  0  0  0  0  0  0  0  0
  181.0720  175.6600  138.4920 C   0  0  0  0  0  0  0  0  0  0  0  0
  180.5600  175.3140  137.2540 F   0  0  0  0  0  0  0  0  0  0  0  0
  187.2770  177.5410  142.8170 N   0  0  0  0  0  2  0  0  0  0  0  0
  190.2340  176.9190  145.0270 C   0  0  0  0  0  3  0  0  0  0  0  0
  189.6780  177.1680  146.2870 C   0  0  0  0  0  0  0  0  0  0  0  0
  187.5480  177.6650  145.2380 C   0  0  0  0  0  3  0  0  0  0  0  0
  187.7580  177.7990  147.6330 O   0  0  0  0  0  1  0  0  0  0  0  0
  189.4480  177.0380  143.8770 C   0  0  0  0  0  3  0  0  0  0  0  0
  188.1010  177.4120  143.9790 C   0  0  0  0  0  0  0  0  0  0  0  0
  188.3300  177.5460  146.3910 C   0  0  0  0  0  0  0  0  0  0  0  0
  190.5400  177.0590  147.4980 C   0  0  0  0  0  2  0  0  0  0  0  0
  191.9300  176.9110  147.1030 N   0  0  0  0  0  2  0  0  0  0  0  0
  192.3620  175.6110  147.5800 C   0  0  0  0  0  1  0  0  0  0  0  0
  188.9250  177.3600  140.5790 C   0  0  0  0  0  2  0  0  0  0  0  0
  190.0510  177.5520  139.5840 C   0  0  0  0  0  2  0  0  0  0  0  0
  188.8560  176.3850  137.7940 C   0  0  1  0  0  3  0  0  0  0  0  0
  190.1220  176.7780  137.1560 N   0  0  0  0  0  0  0  0  0  0  0  0
  189.4710  177.6490  138.1740 C   0  0  2  0  0  3  0  0  0  0  0  0
  190.6570  174.5840  137.7410 O   0  0  0  0  0  1  0  0  0  0  0  0
  191.1450  175.8890  137.6990 C   0  0  0  0  0  2  0  0  0  0  0  0
  187.7130  176.6450  136.8350 C   0  0  0  0  0  2  0  0  0  0  0  0
  187.0590  175.3330  136.4570 C   0  0  1  0  0  3  0  0  0  0  0  0
  185.6740  175.2990  136.9800 C   0  0  1  0  0  3  0  0  0  0  0  0
  185.9510  175.5950  135.6320 O   0  0  0  0  0  0  0  0  0  0  0  0
  185.2000  173.8900  137.0970 C   0  0  0  0  0  0  0  0  0  0  0  0
  184.3160  173.3510  136.1190 N   0  0  0  0  0  1  0  0  0  0  0  0
  185.6070  173.1600  138.0400 O   0  0  0  0  0  0  0  0  0  0  0  0
  1  7  1  1  0  0  0
  1  5  1  0  0  0  0
  2  8  1  1  0  0  0
  2  7  1  0  0  0  0
  3  2  1  0  0  0  0
  4  3  1  6  0  0  0
  4  1  1  0  0  0  0
  4  5  1  0  0  0  0
  5 18  1  1  0  0  0
  6 29  1  1  0  0  0
  6  4  1  0  0  0  0
  6  5  1  0  0  0  0
  9 13  1  0  0  0  0
  9 12  1  0  0  0  0
 10 11  1  0  0  0  0
 12  8  1  1  0  0  0
 12 11  1  0  0  0  0
 13 16  1  1  0  0  0
 13 10  1  0  0  0  0
 16 14  1  0  0  0  0
 16 15  1  0  0  0  0
 17 16  1  0  0  0  0
 18 24  1  0  0  0  0
 19 20  1  0  0  0  0
 20 25  2  0  0  0  0
 20 26  1  0  0  0  0
 21 25  1  0  0  0  0
 23 24  1  0  0  0  0
 23 19  2  0  0  0  0
 24 21  2  0  0  0  0
 25 22  1  0  0  0  0
 27 26  1  0  0  0  0
 27 28  1  0  0  0  0
 30 29  1  0  0  0  0
 31 36  1  6  0  0  0
 31 33  1  0  0  0  0
 32 35  1  0  0  0  0
 32 31  1  0  0  0  0
 32 33  1  0  0  0  0
 33 30  1  1  0  0  0
 35 34  1  0  0  0  0
 37 36  1  1  0  0  0
 37 38  1  0  0  0  0
 38 40  1  6  0  0  0
 39 37  1  0  0  0  0
 39 38  1  0  0  0  0
 40 42  2  0  0  0  0
 41 40  1  0  0  0  0
M  END
>  <MODEL>
8

>  <REMARK>
 VINA RESULT:      -7.3      4.405      8.180
  Name = 
  14 active torsions:
  status: ('A' for Active; 'I' for Inactive)
    1  A    between atoms: C_1  and  C_24
    2  A    between atoms: C_5  and  C_8
    3  A    between atoms: C_5  and  N_23
    4  A    between atoms: C_10  and  C_25
    5  A    between atoms: C_12  and  N_36
    6  A    between atoms: C_19  and  C_27
    7  A    between atoms: C_19  and  C_41
    8  A    between atoms: C_21  and  C_25
    9  A    between atoms: C_22  and  N_36
   10  A    between atoms: N_26  and  C_30
   11  A    between atoms: C_31  and  C_34
   12  A    between atoms: C_32  and  N_40
   13  A    between atoms: C_33  and  N_40
   14  A    between atoms: C_37  and  C_41
                            x       y       z     vdW  Elec       q    Type
                         _______ _______ _______ _____ _____    ______ ____

>  <TORSDO>
F 14

$$$$
=
 OpenBabel10232412023D

 42 48  0  0  1  0  0  0  0  0999 V2000
  189.3010  176.5510  137.4630 N   0  0  2  0  0  0  0  0  0  0  0  0
  188.3400  178.6560  137.2090 C   0  0  1  0  0  3  0  0  0  0  0  0
  188.4500  178.2340  138.6700 C   0  0  0  0  0  2  0  0  0  0  0  0
  189.7310  177.4690  138.5570 C   0  0  2  0  0  0  0  0  0  0  0  0
  190.3440  176.1610  138.4060 C   0  0  1  0  0  0  0  0  0  0  0  0
  190.0580  176.7040  139.8090 C   0  0  1  0  0  3  0  0  0  0  0  0
  189.2640  177.6480  136.5170 C   0  0  0  0  0  2  0  0  0  0  0  0
  186.9660  178.4720  136.7500 N   0  0  0  0  0  2  0  0  0  0  0  0
  185.1110  178.6870  138.3820 C   0  0  0  0  0  2  0  0  0  0  0  0
  183.7740  176.7270  137.8240 C   0  0  0  0  0  2  0  0  0  0  0  0
  185.3860  176.2630  137.1220 S   0  0  0  0  0  0  0  0  0  0  0  0
  186.1680  177.7830  137.7680 C   0  0  1  0  0  3  0  0  0  0  0  0
  184.0070  177.7850  138.8860 C   0  0  2  0  0  3  0  0  0  0  0  0
  182.2090  178.1690  140.3990 F   0  0  0  0  0  0  0  0  0  0  0  0
  182.9970  179.9290  139.2310 F   0  0  0  0  0  0  0  0  0  0  0  0
  182.7320  178.5720  139.1830 C   0  0  0  0  0  0  0  0  0  0  0  0
  181.7940  178.3280  138.1960 F   0  0  0  0  0  0  0  0  0  0  0  0
  191.6900  176.3980  137.8880 N   0  0  0  0  0  2  0  0  0  0  0  0
  193.2750  173.1840  136.8070 C   0  0  0  0  0  3  0  0  0  0  0  0
  194.5620  173.3360  137.3320 C   0  0  0  0  0  0  0  0  0  0  0  0
  193.9380  175.5090  138.2100 C   0  0  0  0  0  3  0  0  0  0  0  0
  196.1700  174.6770  138.5620 O   0  0  0  0  0  1  0  0  0  0  0  0
  192.3200  174.1880  136.9880 C   0  0  0  0  0  3  0  0  0  0  0  0
  192.6490  175.3560  137.6910 C   0  0  0  0  0  0  0  0  0  0  0  0
  194.8950  174.5050  138.0330 C   0  0  0  0  0  0  0  0  0  0  0  0
  195.5730  172.2630  137.1070 C   0  0  0  0  0  2  0  0  0  0  0  0
  195.4790  171.2680  138.1620 N   0  0  0  0  0  2  0  0  0  0  0  0
  196.1710  170.0860  137.6830 C   0  0  0  0  0  1  0  0  0  0  0  0
  191.2730  177.3240  140.4810 C   0  0  0  0  0  2  0  0  0  0  0  0
  190.9180  177.7220  141.9000 C   0  0  0  0  0  2  0  0  0  0  0  0
  189.4750  177.1460  143.7920 C   0  0  1  0  0  3  0  0  0  0  0  0
  190.1070  175.8630  143.4440 N   0  0  0  0  0  0  0  0  0  0  0  0
  189.7570  176.8590  142.3920 C   0  0  2  0  0  3  0  0  0  0  0  0
  191.5080  176.4050  145.2280 O   0  0  0  0  0  1  0  0  0  0  0  0
  191.4870  175.9480  143.9110 C   0  0  0  0  0  2  0  0  0  0  0  0
  188.0030  176.9180  144.0690 C   0  0  0  0  0  2  0  0  0  0  0  0
  187.4750  178.0270  144.9530 C   0  0  1  0  0  3  0  0  0  0  0  0
  186.3640  177.5130  145.7870 C   0  0  1  0  0  3  0  0  0  0  0  0
  187.6660  177.6700  146.2990 O   0  0  0  0  0  0  0  0  0  0  0  0
  185.5030  178.6380  146.2520 C   0  0  0  0  0  0  0  0  0  0  0  0
  184.2750  178.9190  145.5870 N   0  0  0  0  0  1  0  0  0  0  0  0
  185.8390  179.3200  147.2560 O   0  0  0  0  0  0  0  0  0  0  0  0
  1  7  1  6  0  0  0
  1  5  1  0  0  0  0
  1  4  1  0  0  0  0
  2  8  1  6  0  0  0
  2  3  1  0  0  0  0
  4  3  1  6  0  0  0
  4  6  1  0  0  0  0
  5 18  1  6  0  0  0
  5  4  1  0  0  0  0
  5  6  1  0  0  0  0
  6 29  1  1  0  0  0
  7  2  1  0  0  0  0
  9 13  1  0  0  0  0
 10 13  1  0  0  0  0
 11 12  1  0  0  0  0
 11 10  1  0  0  0  0
 12  8  1  6  0  0  0
 12  9  1  0  0  0  0
 13 16  1  6  0  0  0
 16 15  1  0  0  0  0
 16 14  1  0  0  0  0
 17 16  1  0  0  0  0
 19 23  2  0  0  0  0
 19 20  1  0  0  0  0
 20 25  2  0  0  0  0
 23 24  1  0  0  0  0
 24 18  1  0  0  0  0
 24 21  2  0  0  0  0
 25 21  1  0  0  0  0
 25 22  1  0  0  0  0
 26 20  1  0  0  0  0
 26 27  1  0  0  0  0
 28 27  1  0  0  0  0
 29 30  1  0  0  0  0
 31 36  1  6  0  0  0
 32 31  1  0  0  0  0
 32 35  1  0  0  0  0
 33 30  1  1  0  0  0
 33 32  1  0  0  0  0
 33 31  1  0  0  0  0
 35 34  1  0  0  0  0
 37 36  1  6  0  0  0
 37 38  1  0  0  0  0
 37 39  1  0  0  0  0
 38 40  1  1  0  0  0
 38 39  1  0  0  0  0
 40 42  2  0  0  0  0
 41 40  1  0  0  0  0
M  END
>  <MODEL>
9

>  <REMARK>
 VINA RESULT:      -7.3      4.174      6.708
  Name = 
  14 active torsions:
  status: ('A' for Active; 'I' for Inactive)
    1  A    between atoms: C_1  and  C_24
    2  A    between atoms: C_5  and  C_8
    3  A    between atoms: C_5  and  N_23
    4  A    between atoms: C_10  and  C_25
    5  A    between atoms: C_12  and  N_36
    6  A    between atoms: C_19  and  C_27
    7  A    between atoms: C_19  and  C_41
    8  A    between atoms: C_21  and  C_25
    9  A    between atoms: C_22  and  N_36
   10  A    between atoms: N_26  and  C_30
   11  A    between atoms: C_31  and  C_34
   12  A    between atoms: C_32  and  N_40
   13  A    between atoms: C_33  and  N_40
   14  A    between atoms: C_37  and  C_41
                            x       y       z     vdW  Elec       q    Type
                         _______ _______ _______ _____ _____    ______ ____

>  <TORSDO>
F 14

$$$$
