=
 OpenBabel10232407433D

 36 39  0  0  1  0  0  0  0  0999 V2000
  188.2840  177.9580  139.3820 C   0  0  2  0  0  3  0  0  0  0  0  0
  190.2060  177.0480  140.6310 C   0  0  2  0  0  3  0  0  0  0  0  0
  190.2450  176.5890  139.3010 O   0  0  0  0  0  0  0  0  0  0  0  0
  189.8050  177.9100  139.4910 C   0  0  1  0  0  3  0  0  0  0  0  0
  191.6070  177.3230  141.1000 C   0  0  0  0  0  0  0  0  0  0  0  0
  192.5590  177.2680  140.3340 O   0  0  0  0  0  0  0  0  0  0  0  0
  191.8220  177.7340  142.5180 C   0  0  0  0  0  2  0  0  0  0  0  0
  190.8740  176.9710  143.4340 C   0  0  0  0  0  2  0  0  0  0  0  0
  191.7920  177.4410  145.6340 N   0  0  0  0  0  2  0  0  0  0  0  0
  192.1030  176.5390  147.7710 O   0  0  0  0  0  0  0  0  0  0  0  0
  189.4190  177.1420  145.4940 C   0  0  0  0  0  2  0  0  0  0  0  0
  191.3270  176.8680  146.8360 C   0  0  0  0  0  0  0  0  0  0  0  0
  190.6580  177.6880  144.7630 C   0  0  2  0  0  0  0  0  0  0  0  0
  189.2530  177.5840  147.9320 C   0  0  0  0  0  1  0  0  0  0  0  0
  190.5220  179.0620  144.5590 O   0  0  0  0  0  1  0  0  0  0  0  0
  189.8640  176.6780  146.8790 C   0  0  1  0  0  3  0  0  0  0  0  0
  187.8020  178.3540  137.9800 C   0  0  1  0  0  3  0  0  0  0  0  0
  188.9010  178.9700  137.1220 C   0  0  0  0  0  1  0  0  0  0  0  0
  186.7630  175.1580  136.4310 C   0  0  1  0  0  3  0  0  0  0  0  0
  185.5320  175.9830  136.3820 C   0  0  0  0  0  0  0  0  0  0  0  0
  184.4280  175.6070  135.9110 O   0  0  0  0  0  0  0  0  0  0  0  0
  187.1190  177.2180  137.2850 C   0  0  0  0  0  0  0  0  0  0  0  0
  187.7020  176.0820  137.0500 N   0  0  0  0  0  0  0  0  0  0  0  0
  185.7450  177.2740  136.9230 N   0  0  0  0  0  2  0  0  0  0  0  0
  186.5540  173.9620  137.3420 C   0  0  0  0  0  1  0  0  0  0  0  0
  187.7450  178.8750  140.3780 N   0  0  0  0  0  2  0  0  0  0  0  0
  184.8350  178.5190  142.9910 C   0  0  2  0  0  3  0  0  0  0  0  0
  187.3860  177.6650  142.7460 S   0  0  0  0  0  0  0  0  0  0  0  0
  185.7000  177.3120  143.2870 C   0  0  0  0  0  2  0  0  0  0  0  0
  185.2790  179.2280  141.3670 S   0  0  0  0  0  0  0  0  0  0  0  0
  186.7290  178.1560  141.1310 C   0  0  1  0  0  3  0  0  0  0  0  0
  185.0220  179.5200  144.0290 N   0  0  0  0  0  2  0  0  0  0  0  0
  184.3740  179.0250  145.2330 C   0  0  0  0  0  2  0  0  0  0  0  0
  185.6400  179.7480  147.1170 O   0  0  0  0  0  1  0  0  0  0  0  0
  186.0830  177.6210  146.3820 O   0  0  0  0  0  0  0  0  0  0  0  0
  185.3860  178.8200  146.3060 C   0  0  0  0  0  0  0  0  0  0  0  0
  1 26  1  1  0  0  0
  2  5  1  6  0  0  0
  3  4  1  0  0  0  0
  3  2  1  0  0  0  0
  4  1  1  1  0  0  0
  4  2  1  0  0  0  0
  5  7  1  0  0  0  0
  6  5  2  0  0  0  0
  7  8  1  0  0  0  0
  8 13  1  0  0  0  0
  9 12  1  0  0  0  0
 11 16  1  0  0  0  0
 12 16  1  0  0  0  0
 12 10  2  0  0  0  0
 13 15  1  6  0  0  0
 13 11  1  0  0  0  0
 13  9  1  0  0  0  0
 16 14  1  1  0  0  0
 17 18  1  6  0  0  0
 17  1  1  0  0  0  0
 19 23  1  0  0  0  0
 19 25  1  1  0  0  0
 20 19  1  0  0  0  0
 20 24  1  0  0  0  0
 21 20  2  0  0  0  0
 22 17  1  0  0  0  0
 23 22  2  0  0  0  0
 24 22  1  0  0  0  0
 27 29  1  0  0  0  0
 27 32  1  1  0  0  0
 28 29  1  0  0  0  0
 30 27  1  0  0  0  0
 31 26  1  1  0  0  0
 31 30  1  0  0  0  0
 31 28  1  0  0  0  0
 32 33  1  0  0  0  0
 33 36  1  0  0  0  0
 36 35  2  0  0  0  0
 36 34  1  0  0  0  0
M  END
>  <MODEL>
1

>  <REMARK>
 VINA RESULT:      -7.4      0.000      0.000
  Name = 
  12 active torsions:
  status: ('A' for Active; 'I' for Inactive)
    1  A    between atoms: C_1  and  C_12
    2  A    between atoms: C_1  and  N_17
    3  A    between atoms: C_1  and  C_21
    4  A    between atoms: C_5  and  C_9
    5  A    between atoms: C_5  and  C_29
    6  A    between atoms: C_6  and  N_16
    7  A    between atoms: C_12  and  C_15
    8  A    between atoms: N_16  and  C_35
    9  A    between atoms: N_17  and  C_28
   10  A    between atoms: C_23  and  C_35
   11  A    between atoms: C_24  and  C_26
   12  A    between atoms: C_26  and  C_29
                            x       y       z     vdW  Elec       q    Type
                         _______ _______ _______ _____ _____    ______ ____

>  <TORSDO>
F 12

$$$$
=
 OpenBabel10232407433D

 36 39  0  0  1  0  0  0  0  0999 V2000
  188.1900  177.2690  137.8710 C   0  0  2  0  0  3  0  0  0  0  0  0
  189.6820  177.4560  139.8250 C   0  0  2  0  0  3  0  0  0  0  0  0
  188.7560  178.5170  139.8330 O   0  0  0  0  0  0  0  0  0  0  0  0
  188.2730  177.2710  139.3930 C   0  0  1  0  0  3  0  0  0  0  0  0
  189.9210  176.9990  141.2370 C   0  0  0  0  0  0  0  0  0  0  0  0
  190.6390  176.0400  141.4830 O   0  0  0  0  0  0  0  0  0  0  0  0
  189.3150  177.7770  142.3560 C   0  0  0  0  0  2  0  0  0  0  0  0
  189.2210  176.9120  143.6060 C   0  0  0  0  0  2  0  0  0  0  0  0
  190.7930  176.9480  145.4580 N   0  0  0  0  0  2  0  0  0  0  0  0
  191.2500  176.0080  147.5520 O   0  0  0  0  0  0  0  0  0  0  0  0
  188.5650  177.7020  145.9160 C   0  0  0  0  0  2  0  0  0  0  0  0
  190.4660  176.6360  146.7940 C   0  0  0  0  0  0  0  0  0  0  0  0
  189.6800  177.6570  144.8560 C   0  0  2  0  0  0  0  0  0  0  0  0
  189.2450  178.1800  148.2560 C   0  0  0  0  0  1  0  0  0  0  0  0
  190.0790  178.9550  144.5310 O   0  0  0  0  0  1  0  0  0  0  0  0
  189.1240  177.0960  147.2020 C   0  0  1  0  0  3  0  0  0  0  0  0
  187.2050  178.3140  137.3290 C   0  0  1  0  0  3  0  0  0  0  0  0
  187.1150  178.3180  135.8080 C   0  0  0  0  0  1  0  0  0  0  0  0
  184.0810  178.6610  139.2820 C   0  0  1  0  0  3  0  0  0  0  0  0
  183.7810  177.5550  138.3420 C   0  0  0  0  0  0  0  0  0  0  0  0
  182.6880  176.9330  138.2820 O   0  0  0  0  0  0  0  0  0  0  0  0
  185.8580  178.1920  137.9700 C   0  0  0  0  0  0  0  0  0  0  0  0
  185.4540  178.9810  138.9180 N   0  0  0  0  0  0  0  0  0  0  0  0
  184.8870  177.2590  137.5090 N   0  0  0  0  0  2  0  0  0  0  0  0
  183.1880  179.8530  138.9880 C   0  0  0  0  0  1  0  0  0  0  0  0
  187.8260  175.9390  137.3980 N   0  0  0  0  0  2  0  0  0  0  0  0
  191.1720  174.1050  136.4700 C   0  0  2  0  0  3  0  0  0  0  0  0
  190.2680  176.6500  136.5450 S   0  0  0  0  0  0  0  0  0  0  0  0
  191.2850  175.4120  135.7120 C   0  0  0  0  0  2  0  0  0  0  0  0
  189.4480  173.8410  137.0130 S   0  0  0  0  0  0  0  0  0  0  0  0
  188.8780  175.4890  136.5010 C   0  0  1  0  0  3  0  0  0  0  0  0
  192.0500  174.1340  137.6280 N   0  0  0  0  0  2  0  0  0  0  0  0
  193.3950  174.4080  137.1480 C   0  0  0  0  0  2  0  0  0  0  0  0
  195.1100  175.0180  138.6840 O   0  0  0  0  0  1  0  0  0  0  0  0
  193.5390  176.6330  138.2610 O   0  0  0  0  0  0  0  0  0  0  0  0
  194.0750  175.3670  138.0610 C   0  0  0  0  0  0  0  0  0  0  0  0
  1 26  1  1  0  0  0
  2  3  1  0  0  0  0
  2  5  1  1  0  0  0
  4  1  1  6  0  0  0
  4  2  1  0  0  0  0
  4  3  1  0  0  0  0
  5  6  2  0  0  0  0
  5  7  1  0  0  0  0
  7  8  1  0  0  0  0
  8 13  1  0  0  0  0
  9 12  1  0  0  0  0
 11 16  1  0  0  0  0
 12 16  1  0  0  0  0
 12 10  2  0  0  0  0
 13 15  1  6  0  0  0
 13  9  1  0  0  0  0
 13 11  1  0  0  0  0
 16 14  1  1  0  0  0
 17 18  1  6  0  0  0
 17  1  1  0  0  0  0
 17 22  1  0  0  0  0
 19 25  1  6  0  0  0
 20 19  1  0  0  0  0
 21 20  2  0  0  0  0
 22 23  2  0  0  0  0
 23 19  1  0  0  0  0
 24 22  1  0  0  0  0
 24 20  1  0  0  0  0
 27 30  1  0  0  0  0
 27 32  1  1  0  0  0
 29 27  1  0  0  0  0
 29 28  1  0  0  0  0
 31 28  1  0  0  0  0
 31 30  1  0  0  0  0
 31 26  1  1  0  0  0
 33 32  1  0  0  0  0
 33 36  1  0  0  0  0
 36 35  2  0  0  0  0
 36 34  1  0  0  0  0
M  END
>  <MODEL>
2

>  <REMARK>
 VINA RESULT:      -7.2      3.016      5.935
  Name = 
  12 active torsions:
  status: ('A' for Active; 'I' for Inactive)
    1  A    between atoms: C_1  and  C_12
    2  A    between atoms: C_1  and  N_17
    3  A    between atoms: C_1  and  C_21
    4  A    between atoms: C_5  and  C_9
    5  A    between atoms: C_5  and  C_29
    6  A    between atoms: C_6  and  N_16
    7  A    between atoms: C_12  and  C_15
    8  A    between atoms: N_16  and  C_35
    9  A    between atoms: N_17  and  C_28
   10  A    between atoms: C_23  and  C_35
   11  A    between atoms: C_24  and  C_26
   12  A    between atoms: C_26  and  C_29
                            x       y       z     vdW  Elec       q    Type
                         _______ _______ _______ _____ _____    ______ ____

>  <TORSDO>
F 12

$$$$
=
 OpenBabel10232407433D

 36 39  0  0  1  0  0  0  0  0999 V2000
  188.6880  177.6750  137.9060 C   0  0  2  0  0  3  0  0  0  0  0  0
  189.7450  177.8610  140.1260 C   0  0  2  0  0  3  0  0  0  0  0  0
  188.4770  177.2650  140.2540 O   0  0  0  0  0  0  0  0  0  0  0  0
  189.2190  176.9110  139.1140 C   0  0  1  0  0  3  0  0  0  0  0  0
  190.6970  177.2120  141.0920 C   0  0  0  0  0  0  0  0  0  0  0  0
  191.9080  177.3180  140.9620 O   0  0  0  0  0  0  0  0  0  0  0  0
  190.1390  176.4800  142.2660 C   0  0  0  0  0  2  0  0  0  0  0  0
  191.1650  176.4350  143.3910 C   0  0  0  0  0  2  0  0  0  0  0  0
  191.8220  177.2940  145.5660 N   0  0  0  0  0  2  0  0  0  0  0  0
  191.8360  176.8010  147.8540 O   0  0  0  0  0  0  0  0  0  0  0  0
  189.4750  177.0040  145.1820 C   0  0  0  0  0  2  0  0  0  0  0  0
  191.1930  176.9610  146.7840 C   0  0  0  0  0  0  0  0  0  0  0  0
  190.8130  177.3890  144.5280 C   0  0  2  0  0  0  0  0  0  0  0  0
  189.0280  177.8930  147.4570 C   0  0  0  0  0  1  0  0  0  0  0  0
  190.7520  178.7030  144.0600 O   0  0  0  0  0  1  0  0  0  0  0  0
  189.7300  176.8000  146.6740 C   0  0  1  0  0  3  0  0  0  0  0  0
  187.4760  176.9910  137.2580 C   0  0  1  0  0  3  0  0  0  0  0  0
  187.4610  175.4810  137.4640 C   0  0  0  0  0  1  0  0  0  0  0  0
  183.9750  177.9140  138.0220 C   0  0  1  0  0  3  0  0  0  0  0  0
  184.7670  178.9790  138.6830 C   0  0  0  0  0  0  0  0  0  0  0  0
  184.2830  179.9390  139.3380 O   0  0  0  0  0  0  0  0  0  0  0  0
  186.1890  177.6270  137.6790 C   0  0  0  0  0  0  0  0  0  0  0  0
  185.0280  177.1050  137.4240 N   0  0  0  0  0  0  0  0  0  0  0  0
  186.1570  178.8030  138.4790 N   0  0  0  0  0  2  0  0  0  0  0  0
  183.2350  177.0930  139.0620 C   0  0  0  0  0  1  0  0  0  0  0  0
  189.7520  177.8510  136.9250 N   0  0  0  0  0  2  0  0  0  0  0  0
  192.6690  175.3740  136.0440 C   0  0  2  0  0  3  0  0  0  0  0  0
  190.3570  176.1890  134.9080 S   0  0  0  0  0  0  0  0  0  0  0  0
  191.5160  174.8400  135.2200 C   0  0  0  0  0  2  0  0  0  0  0  0
  192.0510  176.5290  137.3160 S   0  0  0  0  0  0  0  0  0  0  0  0
  190.3460  176.5460  136.6840 C   0  0  1  0  0  3  0  0  0  0  0  0
  193.6110  176.0620  135.1760 N   0  0  0  0  0  2  0  0  0  0  0  0
  194.9440  175.5910  135.5190 C   0  0  0  0  0  2  0  0  0  0  0  0
  197.1150  176.5360  135.7790 O   0  0  0  0  0  1  0  0  0  0  0  0
  195.4290  178.0290  135.3460 O   0  0  0  0  0  0  0  0  0  0  0  0
  195.8950  176.7350  135.5410 C   0  0  0  0  0  0  0  0  0  0  0  0
  1 26  1  6  0  0  0
  2  3  1  0  0  0  0
  2  5  1  1  0  0  0
  4  1  1  6  0  0  0
  4  2  1  0  0  0  0
  4  3  1  0  0  0  0
  5  7  1  0  0  0  0
  6  5  2  0  0  0  0
  7  8  1  0  0  0  0
  8 13  1  0  0  0  0
  9 12  1  0  0  0  0
 11 16  1  0  0  0  0
 12 10  2  0  0  0  0
 13 15  1  6  0  0  0
 13 11  1  0  0  0  0
 13  9  1  0  0  0  0
 16 12  1  0  0  0  0
 16 14  1  1  0  0  0
 17 18  1  1  0  0  0
 17 22  1  0  0  0  0
 17  1  1  0  0  0  0
 19 20  1  0  0  0  0
 19 25  1  1  0  0  0
 20 21  2  0  0  0  0
 22 24  1  0  0  0  0
 23 22  2  0  0  0  0
 23 19  1  0  0  0  0
 24 20  1  0  0  0  0
 27 32  1  6  0  0  0
 27 30  1  0  0  0  0
 28 29  1  0  0  0  0
 28 31  1  0  0  0  0
 29 27  1  0  0  0  0
 31 26  1  6  0  0  0
 31 30  1  0  0  0  0
 32 33  1  0  0  0  0
 33 36  1  0  0  0  0
 35 36  2  0  0  0  0
 36 34  1  0  0  0  0
M  END
>  <MODEL>
3

>  <REMARK>
 VINA RESULT:      -7.2      3.670      6.764
  Name = 
  12 active torsions:
  status: ('A' for Active; 'I' for Inactive)
    1  A    between atoms: C_1  and  C_12
    2  A    between atoms: C_1  and  N_17
    3  A    between atoms: C_1  and  C_21
    4  A    between atoms: C_5  and  C_9
    5  A    between atoms: C_5  and  C_29
    6  A    between atoms: C_6  and  N_16
    7  A    between atoms: C_12  and  C_15
    8  A    between atoms: N_16  and  C_35
    9  A    between atoms: N_17  and  C_28
   10  A    between atoms: C_23  and  C_35
   11  A    between atoms: C_24  and  C_26
   12  A    between atoms: C_26  and  C_29
                            x       y       z     vdW  Elec       q    Type
                         _______ _______ _______ _____ _____    ______ ____

>  <TORSDO>
F 12

$$$$
=
 OpenBabel10232407433D

 36 39  0  0  1  0  0  0  0  0999 V2000
  190.0450  175.9640  137.7110 C   0  0  2  0  0  3  0  0  0  0  0  0
  189.5620  176.5460  140.0590 C   0  0  2  0  0  3  0  0  0  0  0  0
  190.7890  175.8610  139.9840 O   0  0  0  0  0  0  0  0  0  0  0  0
  190.5070  176.7520  138.9330 C   0  0  1  0  0  3  0  0  0  0  0  0
  189.6600  177.6230  141.1030 C   0  0  0  0  0  0  0  0  0  0  0  0
  188.8080  178.4960  141.2000 O   0  0  0  0  0  0  0  0  0  0  0  0
  190.7900  177.5790  142.0750 C   0  0  0  0  0  2  0  0  0  0  0  0
  190.3960  176.7650  143.3010 C   0  0  0  0  0  2  0  0  0  0  0  0
  191.5710  177.2950  145.3600 N   0  0  0  0  0  2  0  0  0  0  0  0
  191.9860  176.5350  147.5340 O   0  0  0  0  0  0  0  0  0  0  0  0
  189.1770  177.2750  145.4560 C   0  0  0  0  0  2  0  0  0  0  0  0
  191.1640  176.8810  146.6450 C   0  0  0  0  0  0  0  0  0  0  0  0
  190.3930  177.6070  144.5730 C   0  0  2  0  0  0  0  0  0  0  0  0
  189.3020  177.9270  147.8490 C   0  0  0  0  0  1  0  0  0  0  0  0
  190.3940  178.9670  144.2570 O   0  0  0  0  0  1  0  0  0  0  0  0
  189.7000  176.8730  146.8330 C   0  0  1  0  0  3  0  0  0  0  0  0
  190.9160  174.7310  137.4360 C   0  0  1  0  0  3  0  0  0  0  0  0
  190.4020  173.8830  136.2780 C   0  0  0  0  0  1  0  0  0  0  0  0
  194.6010  175.0590  137.5190 C   0  0  1  0  0  3  0  0  0  0  0  0
  194.1960  175.9730  136.4240 C   0  0  0  0  0  0  0  0  0  0  0  0
  194.9860  176.6630  135.7280 O   0  0  0  0  0  0  0  0  0  0  0  0
  192.3580  175.0970  137.2660 C   0  0  0  0  0  0  0  0  0  0  0  0
  193.3100  174.5540  137.9620 N   0  0  0  0  0  0  0  0  0  0  0  0
  192.7910  175.9970  136.2530 N   0  0  0  0  0  2  0  0  0  0  0  0
  195.4290  173.9140  136.9630 C   0  0  0  0  0  1  0  0  0  0  0  0
  190.0180  176.8350  136.5430 N   0  0  0  0  0  2  0  0  0  0  0  0
  186.5100  178.4180  137.3260 C   0  0  2  0  0  3  0  0  0  0  0  0
  187.5400  175.9360  137.0460 S   0  0  0  0  0  0  0  0  0  0  0  0
  186.1470  177.0530  136.7790 C   0  0  0  0  0  2  0  0  0  0  0  0
  188.2490  178.8110  136.9300 S   0  0  0  0  0  0  0  0  0  0  0  0
  188.6270  177.1600  136.2700 C   0  0  1  0  0  3  0  0  0  0  0  0
  186.3220  178.4310  138.7680 N   0  0  0  0  0  2  0  0  0  0  0  0
  184.8900  178.4560  139.0210 C   0  0  0  0  0  2  0  0  0  0  0  0
  183.4800  178.8550  140.8980 O   0  0  0  0  0  0  0  0  0  0  0  0
  185.6320  179.6190  141.0960 O   0  0  0  0  0  1  0  0  0  0  0  0
  184.6260  178.9700  140.3920 C   0  0  0  0  0  0  0  0  0  0  0  0
  1 26  1  6  0  0  0
  2  5  1  1  0  0  0
  3  2  1  0  0  0  0
  4  1  1  6  0  0  0
  4  3  1  0  0  0  0
  4  2  1  0  0  0  0
  5  6  2  0  0  0  0
  5  7  1  0  0  0  0
  7  8  1  0  0  0  0
  8 13  1  0  0  0  0
  9 12  1  0  0  0  0
 11 16  1  0  0  0  0
 12 16  1  0  0  0  0
 12 10  2  0  0  0  0
 13 15  1  6  0  0  0
 13  9  1  0  0  0  0
 13 11  1  0  0  0  0
 16 14  1  1  0  0  0
 17 18  1  6  0  0  0
 17  1  1  0  0  0  0
 19 25  1  6  0  0  0
 19 23  1  0  0  0  0
 20 19  1  0  0  0  0
 21 20  2  0  0  0  0
 22 17  1  0  0  0  0
 22 23  2  0  0  0  0
 24 20  1  0  0  0  0
 24 22  1  0  0  0  0
 27 32  1  1  0  0  0
 29 28  1  0  0  0  0
 29 27  1  0  0  0  0
 30 27  1  0  0  0  0
 31 26  1  1  0  0  0
 31 30  1  0  0  0  0
 31 28  1  0  0  0  0
 32 33  1  0  0  0  0
 33 36  1  0  0  0  0
 36 34  2  0  0  0  0
 36 35  1  0  0  0  0
M  END
>  <MODEL>
4

>  <REMARK>
 VINA RESULT:      -7.1      3.439      5.033
  Name = 
  12 active torsions:
  status: ('A' for Active; 'I' for Inactive)
    1  A    between atoms: C_1  and  C_12
    2  A    between atoms: C_1  and  N_17
    3  A    between atoms: C_1  and  C_21
    4  A    between atoms: C_5  and  C_9
    5  A    between atoms: C_5  and  C_29
    6  A    between atoms: C_6  and  N_16
    7  A    between atoms: C_12  and  C_15
    8  A    between atoms: N_16  and  C_35
    9  A    between atoms: N_17  and  C_28
   10  A    between atoms: C_23  and  C_35
   11  A    between atoms: C_24  and  C_26
   12  A    between atoms: C_26  and  C_29
                            x       y       z     vdW  Elec       q    Type
                         _______ _______ _______ _____ _____    ______ ____

>  <TORSDO>
F 12

$$$$
=
 OpenBabel10232407433D

 36 39  0  0  1  0  0  0  0  0999 V2000
  188.2590  177.5090  137.8480 C   0  0  2  0  0  3  0  0  0  0  0  0
  188.4030  178.4330  140.1300 C   0  0  2  0  0  3  0  0  0  0  0  0
  187.0810  178.5390  139.6590 O   0  0  0  0  0  0  0  0  0  0  0  0
  187.7820  177.3770  139.2910 C   0  0  1  0  0  3  0  0  0  0  0  0
  188.3800  178.0970  141.5950 C   0  0  0  0  0  0  0  0  0  0  0  0
  187.3320  178.0610  142.2250 O   0  0  0  0  0  0  0  0  0  0  0  0
  189.6610  177.7380  142.2700 C   0  0  0  0  0  2  0  0  0  0  0  0
  189.3820  176.9200  143.5240 C   0  0  0  0  0  2  0  0  0  0  0  0
  190.8760  176.9490  145.4400 N   0  0  0  0  0  2  0  0  0  0  0  0
  191.2470  175.9990  147.5460 O   0  0  0  0  0  0  0  0  0  0  0  0
  188.6310  177.7000  145.8080 C   0  0  0  0  0  2  0  0  0  0  0  0
  190.4940  176.6310  146.7600 C   0  0  0  0  0  0  0  0  0  0  0  0
  189.7890  177.6600  144.7950 C   0  0  2  0  0  0  0  0  0  0  0  0
  189.2130  178.1690  148.1760 C   0  0  0  0  0  1  0  0  0  0  0  0
  190.2000  178.9590  144.4920 O   0  0  0  0  0  1  0  0  0  0  0  0
  189.1370  177.0890  147.1140 C   0  0  1  0  0  3  0  0  0  0  0  0
  187.1070  177.7380  136.8610 C   0  0  1  0  0  3  0  0  0  0  0  0
  187.5830  177.9940  135.4360 C   0  0  0  0  0  1  0  0  0  0  0  0
  185.1630  174.5940  136.6910 C   0  0  1  0  0  3  0  0  0  0  0  0
  184.3000  175.4920  137.4960 C   0  0  0  0  0  0  0  0  0  0  0  0
  183.1810  175.1790  137.9790 O   0  0  0  0  0  0  0  0  0  0  0  0
  186.0940  176.6380  136.9250 C   0  0  0  0  0  0  0  0  0  0  0  0
  186.2920  175.4660  136.4020 N   0  0  0  0  0  0  0  0  0  0  0  0
  184.8800  176.7730  137.6540 N   0  0  0  0  0  2  0  0  0  0  0  0
  185.6290  173.4230  137.5370 C   0  0  0  0  0  1  0  0  0  0  0  0
  189.0210  176.3260  137.4690 N   0  0  0  0  0  2  0  0  0  0  0  0
  192.8590  175.7230  136.8960 C   0  0  2  0  0  3  0  0  0  0  0  0
  191.2670  176.5360  138.9220 S   0  0  0  0  0  0  0  0  0  0  0  0
  192.8430  176.6980  138.0560 C   0  0  0  0  0  2  0  0  0  0  0  0
  191.2240  175.6850  136.0830 S   0  0  0  0  0  0  0  0  0  0  0  0
  190.4130  176.7250  137.3360 C   0  0  1  0  0  3  0  0  0  0  0  0
  193.1950  174.3940  137.3820 N   0  0  0  0  0  2  0  0  0  0  0  0
  194.6190  174.1970  137.1620 C   0  0  0  0  0  2  0  0  0  0  0  0
  195.4970  174.8820  139.2670 O   0  0  0  0  0  1  0  0  0  0  0  0
  195.7630  172.6620  138.7570 O   0  0  0  0  0  0  0  0  0  0  0  0
  195.3010  173.9370  138.4590 C   0  0  0  0  0  0  0  0  0  0  0  0
  1 26  1  6  0  0  0
  2  5  1  1  0  0  0
  3  2  1  0  0  0  0
  4  1  1  6  0  0  0
  4  3  1  0  0  0  0
  4  2  1  0  0  0  0
  5  6  2  0  0  0  0
  5  7  1  0  0  0  0
  7  8  1  0  0  0  0
  8 13  1  0  0  0  0
  9 12  1  0  0  0  0
 11 16  1  0  0  0  0
 12 16  1  0  0  0  0
 12 10  2  0  0  0  0
 13 15  1  6  0  0  0
 13  9  1  0  0  0  0
 13 11  1  0  0  0  0
 16 14  1  1  0  0  0
 17 18  1  6  0  0  0
 17 22  1  0  0  0  0
 17  1  1  0  0  0  0
 19 20  1  0  0  0  0
 19 25  1  1  0  0  0
 20 24  1  0  0  0  0
 20 21  2  0  0  0  0
 22 24  1  0  0  0  0
 23 19  1  0  0  0  0
 23 22  2  0  0  0  0
 27 32  1  1  0  0  0
 27 29  1  0  0  0  0
 29 28  1  0  0  0  0
 30 27  1  0  0  0  0
 30 31  1  0  0  0  0
 31 26  1  1  0  0  0
 31 28  1  0  0  0  0
 33 32  1  0  0  0  0
 33 36  1  0  0  0  0
 36 35  2  0  0  0  0
 36 34  1  0  0  0  0
M  END
>  <MODEL>
5

>  <REMARK>
 VINA RESULT:      -7.1      3.131      6.063
  Name = 
  12 active torsions:
  status: ('A' for Active; 'I' for Inactive)
    1  A    between atoms: C_1  and  C_12
    2  A    between atoms: C_1  and  N_17
    3  A    between atoms: C_1  and  C_21
    4  A    between atoms: C_5  and  C_9
    5  A    between atoms: C_5  and  C_29
    6  A    between atoms: C_6  and  N_16
    7  A    between atoms: C_12  and  C_15
    8  A    between atoms: N_16  and  C_35
    9  A    between atoms: N_17  and  C_28
   10  A    between atoms: C_23  and  C_35
   11  A    between atoms: C_24  and  C_26
   12  A    between atoms: C_26  and  C_29
                            x       y       z     vdW  Elec       q    Type
                         _______ _______ _______ _____ _____    ______ ____

>  <TORSDO>
F 12

$$$$
=
 OpenBabel10232407433D

 36 39  0  0  1  0  0  0  0  0999 V2000
  188.4290  176.8220  137.0340 C   0  0  2  0  0  3  0  0  0  0  0  0
  188.5910  178.3140  138.9910 C   0  0  2  0  0  3  0  0  0  0  0  0
  187.3200  178.4440  138.4010 O   0  0  0  0  0  0  0  0  0  0  0  0
  187.8700  177.1500  138.4150 C   0  0  1  0  0  3  0  0  0  0  0  0
  188.4530  178.3990  140.4850 C   0  0  0  0  0  0  0  0  0  0  0  0
  187.6660  179.1750  141.0100 O   0  0  0  0  0  0  0  0  0  0  0  0
  189.2510  177.4680  141.3340 C   0  0  0  0  0  2  0  0  0  0  0  0
  189.6510  178.1550  142.6330 C   0  0  0  0  0  2  0  0  0  0  0  0
  188.0330  176.9260  143.9650 N   0  0  0  0  0  2  0  0  0  0  0  0
  186.3840  177.1650  145.6090 O   0  0  0  0  0  0  0  0  0  0  0  0
  189.8320  177.9780  145.1490 C   0  0  0  0  0  2  0  0  0  0  0  0
  187.5780  177.3210  145.2400 C   0  0  0  0  0  0  0  0  0  0  0  0
  189.4410  177.2550  143.8470 C   0  0  2  0  0  0  0  0  0  0  0  0
  188.9270  177.0600  147.2710 C   0  0  0  0  0  1  0  0  0  0  0  0
  190.1820  176.0800  143.7160 O   0  0  0  0  0  1  0  0  0  0  0  0
  188.6200  177.9460  146.0780 C   0  0  1  0  0  3  0  0  0  0  0  0
  187.3300  176.4860  136.0150 C   0  0  1  0  0  3  0  0  0  0  0  0
  187.8730  175.8570  134.7380 C   0  0  0  0  0  1  0  0  0  0  0  0
  184.1830  175.0510  137.3290 C   0  0  1  0  0  3  0  0  0  0  0  0
  185.1460  173.9290  137.4350 C   0  0  0  0  0  0  0  0  0  0  0  0
  184.8750  172.7820  137.8760 O   0  0  0  0  0  0  0  0  0  0  0  0
  186.2390  175.6640  136.6250 C   0  0  0  0  0  0  0  0  0  0  0  0
  185.0270  176.1020  136.7790 N   0  0  0  0  0  0  0  0  0  0  0  0
  186.4360  174.3020  136.9880 N   0  0  0  0  0  2  0  0  0  0  0  0
  183.0890  174.7080  136.3340 C   0  0  0  0  0  1  0  0  0  0  0  0
  189.3780  175.7210  137.1340 N   0  0  0  0  0  2  0  0  0  0  0  0
  193.2460  175.5340  136.4790 C   0  0  2  0  0  3  0  0  0  0  0  0
  191.6170  176.2890  138.4990 S   0  0  0  0  0  0  0  0  0  0  0  0
  193.1410  176.5760  137.5740 C   0  0  0  0  0  2  0  0  0  0  0  0
  191.6080  175.2510  135.7220 S   0  0  0  0  0  0  0  0  0  0  0  0
  190.7090  176.2700  136.9310 C   0  0  1  0  0  3  0  0  0  0  0  0
  193.7490  174.2890  137.0380 N   0  0  0  0  0  2  0  0  0  0  0  0
  195.1660  174.4730  137.3050 C   0  0  0  0  0  2  0  0  0  0  0  0
  195.4330  172.8090  138.9890 O   0  0  0  0  0  0  0  0  0  0  0  0
  195.7850  174.9710  139.6670 O   0  0  0  0  0  1  0  0  0  0  0  0
  195.4820  174.0310  138.6910 C   0  0  0  0  0  0  0  0  0  0  0  0
  1 26  1  1  0  0  0
  2  5  1  1  0  0  0
  3  4  1  0  0  0  0
  3  2  1  0  0  0  0
  4  1  1  6  0  0  0
  4  2  1  0  0  0  0
  5  6  2  0  0  0  0
  5  7  1  0  0  0  0
  7  8  1  0  0  0  0
  8 13  1  0  0  0  0
  9 12  1  0  0  0  0
 11 16  1  0  0  0  0
 12 10  2  0  0  0  0
 12 16  1  0  0  0  0
 13 15  1  6  0  0  0
 13  9  1  0  0  0  0
 13 11  1  0  0  0  0
 16 14  1  1  0  0  0
 17 18  1  6  0  0  0
 17 22  1  0  0  0  0
 17  1  1  0  0  0  0
 19 25  1  6  0  0  0
 19 20  1  0  0  0  0
 20 21  2  0  0  0  0
 22 23  2  0  0  0  0
 22 24  1  0  0  0  0
 23 19  1  0  0  0  0
 24 20  1  0  0  0  0
 27 32  1  1  0  0  0
 27 29  1  0  0  0  0
 29 28  1  0  0  0  0
 30 27  1  0  0  0  0
 30 31  1  0  0  0  0
 31 26  1  1  0  0  0
 31 28  1  0  0  0  0
 32 33  1  0  0  0  0
 33 36  1  0  0  0  0
 36 34  2  0  0  0  0
 36 35  1  0  0  0  0
M  END
>  <MODEL>
6

>  <REMARK>
 VINA RESULT:      -7.0      3.467      6.548
  Name = 
  12 active torsions:
  status: ('A' for Active; 'I' for Inactive)
    1  A    between atoms: C_1  and  C_12
    2  A    between atoms: C_1  and  N_17
    3  A    between atoms: C_1  and  C_21
    4  A    between atoms: C_5  and  C_9
    5  A    between atoms: C_5  and  C_29
    6  A    between atoms: C_6  and  N_16
    7  A    between atoms: C_12  and  C_15
    8  A    between atoms: N_16  and  C_35
    9  A    between atoms: N_17  and  C_28
   10  A    between atoms: C_23  and  C_35
   11  A    between atoms: C_24  and  C_26
   12  A    between atoms: C_26  and  C_29
                            x       y       z     vdW  Elec       q    Type
                         _______ _______ _______ _____ _____    ______ ____

>  <TORSDO>
F 12

$$$$
=
 OpenBabel10232407433D

 36 39  0  0  1  0  0  0  0  0999 V2000
  188.5170  177.2370  143.0330 C   0  0  2  0  0  3  0  0  0  0  0  0
  188.6670  178.4940  140.9170 C   0  0  2  0  0  3  0  0  0  0  0  0
  189.9410  178.0140  141.2740 O   0  0  0  0  0  0  0  0  0  0  0  0
  188.8550  177.1640  141.5480 C   0  0  1  0  0  3  0  0  0  0  0  0
  188.5070  178.4110  139.4250 C   0  0  0  0  0  0  0  0  0  0  0  0
  187.4020  178.4140  138.9010 O   0  0  0  0  0  0  0  0  0  0  0  0
  189.7310  178.3890  138.5720 C   0  0  0  0  0  2  0  0  0  0  0  0
  189.6320  177.2720  137.5420 C   0  0  0  0  0  2  0  0  0  0  0  0
  191.5360  176.5660  138.8750 N   0  0  0  0  0  2  0  0  0  0  0  0
  193.8390  176.8640  139.1670 O   0  0  0  0  0  0  0  0  0  0  0  0
  191.5710  175.9880  136.5500 C   0  0  0  0  0  2  0  0  0  0  0  0
  192.8720  176.5530  138.4230 C   0  0  0  0  0  0  0  0  0  0  0  0
  190.6670  176.1770  137.7810 C   0  0  2  0  0  0  0  0  0  0  0  0
  193.7430  174.8370  136.9050 C   0  0  0  0  0  1  0  0  0  0  0  0
  190.0370  174.9720  138.0960 O   0  0  0  0  0  1  0  0  0  0  0  0
  193.0180  176.1660  137.0070 C   0  0  1  0  0  3  0  0  0  0  0  0
  189.3720  176.2880  143.8840 C   0  0  1  0  0  3  0  0  0  0  0  0
  190.6090  175.7810  143.1530 C   0  0  0  0  0  1  0  0  0  0  0  0
  189.4880  178.0370  147.1430 C   0  0  1  0  0  3  0  0  0  0  0  0
  190.7590  177.2740  147.1130 C   0  0  0  0  0  0  0  0  0  0  0  0
  191.6230  177.2710  148.0290 O   0  0  0  0  0  0  0  0  0  0  0  0
  189.7120  176.8870  145.2130 C   0  0  0  0  0  0  0  0  0  0  0  0
  188.9110  177.6810  145.8550 N   0  0  0  0  0  0  0  0  0  0  0  0
  190.9040  176.5440  145.9100 N   0  0  0  0  0  2  0  0  0  0  0  0
  188.5960  177.5220  148.2580 C   0  0  0  0  0  1  0  0  0  0  0  0
  187.1010  176.9550  143.2320 N   0  0  0  0  0  2  0  0  0  0  0  0
  184.1810  179.1930  144.6070 C   0  0  2  0  0  3  0  0  0  0  0  0
  185.3550  178.7230  142.2190 S   0  0  0  0  0  0  0  0  0  0  0  0
  184.5860  179.9140  143.3380 C   0  0  0  0  0  2  0  0  0  0  0  0
  185.4720  177.9950  145.0900 S   0  0  0  0  0  0  0  0  0  0  0  0
  186.4470  178.2100  143.5700 C   0  0  1  0  0  3  0  0  0  0  0  0
  182.9230  178.4940  144.3900 N   0  0  0  0  0  2  0  0  0  0  0  0
  182.3220  179.0430  143.1850 C   0  0  0  0  0  2  0  0  0  0  0  0
  180.3040  180.2880  142.9660 O   0  0  0  0  0  0  0  0  0  0  0  0
  180.1260  178.3040  144.1010 O   0  0  0  0  0  1  0  0  0  0  0  0
  180.8620  179.2450  143.3940 C   0  0  0  0  0  0  0  0  0  0  0  0
  1 26  1  6  0  0  0
  1 17  1  0  0  0  0
  2  5  1  6  0  0  0
  2  3  1  0  0  0  0
  2  4  1  0  0  0  0
  3  4  1  0  0  0  0
  4  1  1  1  0  0  0
  6  5  2  0  0  0  0
  7  5  1  0  0  0  0
  8 13  1  0  0  0  0
  8  7  1  0  0  0  0
 11 16  1  0  0  0  0
 11 13  1  0  0  0  0
 12  9  1  0  0  0  0
 12 10  2  0  0  0  0
 13 15  1  1  0  0  0
 13  9  1  0  0  0  0
 16 14  1  1  0  0  0
 16 12  1  0  0  0  0
 17 18  1  6  0  0  0
 17 22  1  0  0  0  0
 19 25  1  1  0  0  0
 20 19  1  0  0  0  0
 20 21  2  0  0  0  0
 22 23  2  0  0  0  0
 22 24  1  0  0  0  0
 23 19  1  0  0  0  0
 24 20  1  0  0  0  0
 27 32  1  6  0  0  0
 27 30  1  0  0  0  0
 28 29  1  0  0  0  0
 28 31  1  0  0  0  0
 29 27  1  0  0  0  0
 31 26  1  6  0  0  0
 31 30  1  0  0  0  0
 33 36  1  0  0  0  0
 33 32  1  0  0  0  0
 34 36  2  0  0  0  0
 36 35  1  0  0  0  0
M  END
>  <MODEL>
7

>  <REMARK>
 VINA RESULT:      -6.8      2.911      7.309
  Name = 
  12 active torsions:
  status: ('A' for Active; 'I' for Inactive)
    1  A    between atoms: C_1  and  C_12
    2  A    between atoms: C_1  and  N_17
    3  A    between atoms: C_1  and  C_21
    4  A    between atoms: C_5  and  C_9
    5  A    between atoms: C_5  and  C_29
    6  A    between atoms: C_6  and  N_16
    7  A    between atoms: C_12  and  C_15
    8  A    between atoms: N_16  and  C_35
    9  A    between atoms: N_17  and  C_28
   10  A    between atoms: C_23  and  C_35
   11  A    between atoms: C_24  and  C_26
   12  A    between atoms: C_26  and  C_29
                            x       y       z     vdW  Elec       q    Type
                         _______ _______ _______ _____ _____    ______ ____

>  <TORSDO>
F 12

$$$$
=
 OpenBabel10232407433D

 36 39  0  0  1  0  0  0  0  0999 V2000
  186.9130  177.6550  142.2380 C   0  0  2  0  0  3  0  0  0  0  0  0
  187.7200  177.8780  139.9180 C   0  0  2  0  0  3  0  0  0  0  0  0
  187.0200  179.0420  140.2900 O   0  0  0  0  0  0  0  0  0  0  0  0
  187.8100  178.4430  141.2880 C   0  0  1  0  0  3  0  0  0  0  0  0
  188.8900  178.2590  139.0560 C   0  0  0  0  0  0  0  0  0  0  0  0
  188.9950  179.3830  138.5830 O   0  0  0  0  0  0  0  0  0  0  0  0
  189.9730  177.2580  138.8320 C   0  0  0  0  0  2  0  0  0  0  0  0
  189.4730  176.1390  137.9270 C   0  0  0  0  0  2  0  0  0  0  0  0
  191.7030  175.3250  138.4450 N   0  0  0  0  0  2  0  0  0  0  0  0
  193.9780  175.8420  138.2680 O   0  0  0  0  0  0  0  0  0  0  0  0
  191.1380  175.5290  136.1250 C   0  0  0  0  0  2  0  0  0  0  0  0
  192.8650  175.6490  137.7140 C   0  0  0  0  0  0  0  0  0  0  0  0
  190.5920  175.1840  137.5220 C   0  0  2  0  0  0  0  0  0  0  0  0
  193.3840  174.6480  135.5370 C   0  0  0  0  0  1  0  0  0  0  0  0
  190.1380  173.8650  137.5430 O   0  0  0  0  0  1  0  0  0  0  0  0
  192.6420  175.7570  136.2590 C   0  0  1  0  0  3  0  0  0  0  0  0
  185.8120  178.5190  142.8680 C   0  0  1  0  0  3  0  0  0  0  0  0
  184.4290  178.2350  142.2960 C   0  0  0  0  0  1  0  0  0  0  0  0
  186.1510  177.6140  146.4390 C   0  0  1  0  0  3  0  0  0  0  0  0
  185.7720  179.0460  146.4800 C   0  0  0  0  0  0  0  0  0  0  0  0
  185.6260  179.7270  147.5280 O   0  0  0  0  0  0  0  0  0  0  0  0
  185.8290  178.4370  144.3620 C   0  0  0  0  0  0  0  0  0  0  0  0
  186.1600  177.3600  145.0060 N   0  0  0  0  0  0  0  0  0  0  0  0
  185.5760  179.5730  145.1810 N   0  0  0  0  0  2  0  0  0  0  0  0
  187.5510  177.4280  146.9960 C   0  0  0  0  0  1  0  0  0  0  0  0
  187.7220  177.0310  143.2780 N   0  0  0  0  0  2  0  0  0  0  0  0
  191.6100  176.5490  143.5500 C   0  0  2  0  0  3  0  0  0  0  0  0
  189.7850  178.3800  144.3360 S   0  0  0  0  0  0  0  0  0  0  0  0
  191.4460  178.0460  143.7110 C   0  0  0  0  0  2  0  0  0  0  0  0
  190.0780  175.8170  142.8760 S   0  0  0  0  0  0  0  0  0  0  0  0
  189.1130  177.3540  143.0040 C   0  0  1  0  0  3  0  0  0  0  0  0
  191.9110  175.9500  144.8410 N   0  0  0  0  0  2  0  0  0  0  0  0
  191.7710  176.9910  145.8470 C   0  0  0  0  0  2  0  0  0  0  0  0
  190.4830  175.8380  147.4850 O   0  0  0  0  0  0  0  0  0  0  0  0
  192.5990  176.4380  148.1310 O   0  0  0  0  0  1  0  0  0  0  0  0
  191.5800  176.3760  147.1890 C   0  0  0  0  0  0  0  0  0  0  0  0
  1 17  1  0  0  0  0
  1 26  1  1  0  0  0
  2  5  1  6  0  0  0
  2  3  1  0  0  0  0
  2  4  1  0  0  0  0
  3  4  1  0  0  0  0
  4  1  1  1  0  0  0
  6  5  2  0  0  0  0
  7  5  1  0  0  0  0
  8  7  1  0  0  0  0
 11 16  1  0  0  0  0
 11 13  1  0  0  0  0
 12 10  2  0  0  0  0
 12  9  1  0  0  0  0
 13 15  1  1  0  0  0
 13  8  1  0  0  0  0
 13  9  1  0  0  0  0
 16 14  1  6  0  0  0
 16 12  1  0  0  0  0
 17 18  1  6  0  0  0
 17 22  1  0  0  0  0
 19 20  1  0  0  0  0
 19 25  1  6  0  0  0
 20 21  2  0  0  0  0
 22 23  2  0  0  0  0
 22 24  1  0  0  0  0
 23 19  1  0  0  0  0
 24 20  1  0  0  0  0
 27 29  1  0  0  0  0
 27 32  1  1  0  0  0
 29 28  1  0  0  0  0
 30 31  1  0  0  0  0
 30 27  1  0  0  0  0
 31 26  1  1  0  0  0
 31 28  1  0  0  0  0
 32 33  1  0  0  0  0
 33 36  1  0  0  0  0
 36 34  2  0  0  0  0
 36 35  1  0  0  0  0
M  END
>  <MODEL>
8

>  <REMARK>
 VINA RESULT:      -6.7      2.828      7.529
  Name = 
  12 active torsions:
  status: ('A' for Active; 'I' for Inactive)
    1  A    between atoms: C_1  and  C_12
    2  A    between atoms: C_1  and  N_17
    3  A    between atoms: C_1  and  C_21
    4  A    between atoms: C_5  and  C_9
    5  A    between atoms: C_5  and  C_29
    6  A    between atoms: C_6  and  N_16
    7  A    between atoms: C_12  and  C_15
    8  A    between atoms: N_16  and  C_35
    9  A    between atoms: N_17  and  C_28
   10  A    between atoms: C_23  and  C_35
   11  A    between atoms: C_24  and  C_26
   12  A    between atoms: C_26  and  C_29
                            x       y       z     vdW  Elec       q    Type
                         _______ _______ _______ _____ _____    ______ ____

>  <TORSDO>
F 12

$$$$
=
 OpenBabel10232407433D

 36 39  0  0  1  0  0  0  0  0999 V2000
  189.2160  177.3210  138.8290 C   0  0  2  0  0  3  0  0  0  0  0  0
  191.3180  176.0810  138.4830 C   0  0  2  0  0  3  0  0  0  0  0  0
  190.6580  176.2470  137.2510 O   0  0  0  0  0  0  0  0  0  0  0  0
  190.5810  177.3260  138.1500 C   0  0  1  0  0  3  0  0  0  0  0  0
  192.8010  176.2110  138.2710 C   0  0  0  0  0  0  0  0  0  0  0  0
  193.4850  176.9350  138.9800 O   0  0  0  0  0  0  0  0  0  0  0  0
  193.4490  175.3850  137.2110 C   0  0  0  0  0  2  0  0  0  0  0  0
  193.6530  173.9600  137.7080 C   0  0  0  0  0  2  0  0  0  0  0  0
  195.9360  174.7730  137.8820 N   0  0  0  0  0  2  0  0  0  0  0  0
  197.6750  175.7620  136.6680 O   0  0  0  0  0  0  0  0  0  0  0  0
  195.5670  172.8860  136.4520 C   0  0  0  0  0  2  0  0  0  0  0  0
  196.8560  174.8170  136.8140 C   0  0  0  0  0  0  0  0  0  0  0  0
  195.1280  173.5740  137.7570 C   0  0  2  0  0  0  0  0  0  0  0  0
  198.0010  172.8220  135.9670 C   0  0  0  0  0  1  0  0  0  0  0  0
  195.3760  172.7340  138.8440 O   0  0  0  0  0  1  0  0  0  0  0  0
  196.7480  173.6730  135.8880 C   0  0  1  0  0  3  0  0  0  0  0  0
  188.1110  177.9140  137.9440 C   0  0  1  0  0  3  0  0  0  0  0  0
  188.6040  179.0450  137.0500 C   0  0  0  0  0  1  0  0  0  0  0  0
  186.7330  174.8090  136.4770 C   0  0  1  0  0  3  0  0  0  0  0  0
  185.9270  175.8790  135.8420 C   0  0  0  0  0  0  0  0  0  0  0  0
  185.0010  175.6920  135.0110 O   0  0  0  0  0  0  0  0  0  0  0  0
  187.3960  176.8550  137.1650 C   0  0  0  0  0  0  0  0  0  0  0  0
  187.6330  175.5870  137.3140 N   0  0  0  0  0  0  0  0  0  0  0  0
  186.3300  177.1660  136.2750 N   0  0  0  0  0  2  0  0  0  0  0  0
  185.8490  173.9400  137.3530 C   0  0  0  0  0  1  0  0  0  0  0  0
  189.2900  178.0440  140.0930 N   0  0  0  0  0  2  0  0  0  0  0  0
  189.0590  176.7530  143.7950 C   0  0  2  0  0  3  0  0  0  0  0  0
  191.0080  177.2220  141.9840 S   0  0  0  0  0  0  0  0  0  0  0  0
  190.3840  176.1870  143.3250 C   0  0  0  0  0  2  0  0  0  0  0  0
  188.0700  177.3090  142.3640 S   0  0  0  0  0  0  0  0  0  0  0  0
  189.4050  177.0570  141.1560 C   0  0  1  0  0  3  0  0  0  0  0  0
  189.2980  177.8740  144.6900 N   0  0  0  0  0  2  0  0  0  0  0  0
  188.4920  177.6600  145.8810 C   0  0  0  0  0  2  0  0  0  0  0  0
  190.3980  176.8240  147.0390 O   0  0  0  0  0  0  0  0  0  0  0  0
  189.0380  178.2180  148.2480 O   0  0  0  0  0  1  0  0  0  0  0  0
  189.3720  177.5520  147.0760 C   0  0  0  0  0  0  0  0  0  0  0  0
  1 26  1  1  0  0  0
  2  5  1  6  0  0  0
  3  4  1  0  0  0  0
  3  2  1  0  0  0  0
  4  2  1  0  0  0  0
  4  1  1  1  0  0  0
  5  6  2  0  0  0  0
  7  8  1  0  0  0  0
  7  5  1  0  0  0  0
  8 13  1  0  0  0  0
 10 12  2  0  0  0  0
 11 13  1  0  0  0  0
 12  9  1  0  0  0  0
 13  9  1  0  0  0  0
 13 15  1  1  0  0  0
 16 14  1  1  0  0  0
 16 11  1  0  0  0  0
 16 12  1  0  0  0  0
 17 18  1  6  0  0  0
 17  1  1  0  0  0  0
 19 23  1  0  0  0  0
 19 25  1  1  0  0  0
 20 24  1  0  0  0  0
 20 19  1  0  0  0  0
 21 20  2  0  0  0  0
 22 23  2  0  0  0  0
 22 17  1  0  0  0  0
 24 22  1  0  0  0  0
 27 32  1  1  0  0  0
 28 29  1  0  0  0  0
 29 27  1  0  0  0  0
 30 27  1  0  0  0  0
 31 26  1  6  0  0  0
 31 28  1  0  0  0  0
 31 30  1  0  0  0  0
 32 33  1  0  0  0  0
 33 36  1  0  0  0  0
 34 36  2  0  0  0  0
 36 35  1  0  0  0  0
M  END
>  <MODEL>
9

>  <REMARK>
 VINA RESULT:      -6.7      3.992      6.276
  Name = 
  12 active torsions:
  status: ('A' for Active; 'I' for Inactive)
    1  A    between atoms: C_1  and  C_12
    2  A    between atoms: C_1  and  N_17
    3  A    between atoms: C_1  and  C_21
    4  A    between atoms: C_5  and  C_9
    5  A    between atoms: C_5  and  C_29
    6  A    between atoms: C_6  and  N_16
    7  A    between atoms: C_12  and  C_15
    8  A    between atoms: N_16  and  C_35
    9  A    between atoms: N_17  and  C_28
   10  A    between atoms: C_23  and  C_35
   11  A    between atoms: C_24  and  C_26
   12  A    between atoms: C_26  and  C_29
                            x       y       z     vdW  Elec       q    Type
                         _______ _______ _______ _____ _____    ______ ____

>  <TORSDO>
F 12

$$$$
