=
 OpenBabel10232409433D

 35 42  0  0  1  0  0  0  0  0999 V2000
  186.3000  179.2740  140.5920 O   0  0  0  0  0  0  0  0  0  0  0  0
  190.7190  175.5030  143.4110 C   0  0  0  0  0  2  0  0  0  0  0  0
  189.6470  177.0610  139.5270 C   0  0  0  0  0  0  0  0  0  0  0  0
  188.9180  177.2650  141.5140 C   0  0  0  0  0  0  0  0  0  0  0  0
  187.7920  178.0500  145.8790 C   0  0  0  0  0  2  0  0  0  0  0  0
  189.2470  178.3880  145.5410 C   0  0  0  0  0  2  0  0  0  0  0  0
  191.8540  175.5850  145.6080 C   0  0  0  0  0  2  0  0  0  0  0  0
  188.7340  177.0860  142.9840 C   0  0  0  0  0  0  0  0  0  0  0  0
  186.4600  177.9610  141.0260 C   0  0  2  0  0  0  0  0  0  0  0  0
  185.9390  178.9780  141.8800 C   0  0  1  0  0  0  0  0  0  0  0  0
  187.9110  177.6760  140.6330 C   0  0  0  0  0  0  0  0  0  0  0  0
  191.0730  176.7370  145.9200 O   0  0  0  0  0  0  0  0  0  0  0  0
  189.8500  176.6480  143.8650 C   0  0  0  0  0  0  0  0  0  0  0  0
  190.0060  176.8870  140.8180 N   0  0  0  0  0  0  0  0  0  0  0  0
  192.0790  175.5110  144.1040 C   0  0  0  0  0  2  0  0  0  0  0  0
  187.1120  177.0910  144.8950 C   0  0  0  0  0  2  0  0  0  0  0  0
  186.5620  177.7960  142.5160 N   0  0  0  0  0  0  0  0  0  0  0  0
  187.5030  177.3320  143.4680 C   0  0  0  0  0  0  0  0  0  0  0  0
  188.3880  177.5440  139.3750 N   0  0  0  0  0  0  0  0  0  0  0  0
  190.0500  177.2040  145.0830 C   0  0  0  0  0  0  0  0  0  0  0  0
  184.4390  178.9090  142.0200 C   0  0  0  0  0  0  0  0  0  0  0  0
  183.8950  179.0020  143.3060 C   0  0  0  0  0  3  0  0  0  0  0  0
  182.5110  178.9460  143.4970 C   0  0  0  0  0  3  0  0  0  0  0  0
  181.6580  178.8010  142.4010 C   0  0  0  0  0  0  0  0  0  0  0  0
  182.1890  178.7190  141.1110 C   0  0  0  0  0  3  0  0  0  0  0  0
  183.5720  178.7710  140.9190 C   0  0  0  0  0  3  0  0  0  0  0  0
  180.2850  178.7480  142.5920 O   0  0  0  0  0  1  0  0  0  0  0  0
  187.6200  177.5410  138.1220 C   0  0  2  0  0  3  0  0  0  0  0  0
  188.8850  179.6070  137.7930 O   0  0  0  0  0  1  0  0  0  0  0  0
  187.9800  178.7210  137.2050 C   0  0  2  0  0  3  0  0  0  0  0  0
  186.7010  178.7450  138.0050 C   0  0  0  0  0  2  0  0  0  0  0  0
  190.5110  176.6090  138.3970 C   0  0  0  0  0  2  0  0  0  0  0  0
  191.9730  176.6290  138.8100 C   0  0  0  0  0  2  0  0  0  0  0  0
  192.8290  176.0700  137.7220 C   0  0  0  0  0  3  0  0  0  0  0  0
  193.8240  176.7370  137.2680 N   0  0  0  0  0  2  0  0  0  0  0  0
  1 10  1  0  0  0  0
  2 13  1  0  0  0  0
  2 15  1  0  0  0  0
  3 14  2  0  0  0  0
  4  8  1  0  0  0  0
  6  5  1  0  0  0  0
  7 12  1  0  0  0  0
  8 18  2  0  0  0  0
  8 13  1  0  0  0  0
  9  1  1  6  0  0  0
  9 10  1  0  0  0  0
  9 17  1  0  0  0  0
 10 21  1  1  0  0  0
 10 17  1  0  0  0  0
 11  9  1  0  0  0  0
 11  4  2  0  0  0  0
 13 20  2  0  0  0  0
 14  4  1  0  0  0  0
 15  7  1  0  0  0  0
 16  5  1  0  0  0  0
 17 18  1  0  0  0  0
 18 16  1  0  0  0  0
 19  3  1  0  0  0  0
 19 11  1  0  0  0  0
 20  6  1  0  0  0  0
 20 12  1  0  0  0  0
 21 22  1  0  0  0  0
 22 23  2  0  0  0  0
 24 27  1  0  0  0  0
 24 23  1  0  0  0  0
 25 24  2  0  0  0  0
 26 25  1  0  0  0  0
 26 21  2  0  0  0  0
 28 31  1  1  0  0  0
 28 19  1  0  0  0  0
 30 29  1  1  0  0  0
 30 31  1  0  0  0  0
 30 28  1  0  0  0  0
 32 33  1  0  0  0  0
 32  3  1  0  0  0  0
 34 33  1  0  0  0  0
 35 34  2  0  0  0  0
M  END
>  <MODEL>
1

>  <REMARK>
 VINA RESULT:      -8.9      0.000      0.000
  Name = 
  5 active torsions:
  status: ('A' for Active; 'I' for Inactive)
    1  A    between atoms: C_3  and  C_16
    2  A    between atoms: C_4  and  C_32
    3  A    between atoms: C_5  and  N_29
    4  A    between atoms: C_23  and  C_34
    5  A    between atoms: C_32  and  C_34
                            x       y       z     vdW  Elec       q    Type
                         _______ _______ _______ _____ _____    ______ ____

>  <TORSDO>
F 5

$$$$
=
 OpenBabel10232409433D

 35 42  0  0  1  0  0  0  0  0999 V2000
  188.3390  176.6360  142.4250 O   0  0  0  0  0  0  0  0  0  0  0  0
  184.0220  180.1380  139.1400 C   0  0  0  0  0  2  0  0  0  0  0  0
  187.8780  178.2560  138.6310 C   0  0  0  0  0  0  0  0  0  0  0  0
  186.4340  178.3950  140.1860 C   0  0  0  0  0  0  0  0  0  0  0  0
  183.0280  178.3090  143.2410 C   0  0  0  0  0  2  0  0  0  0  0  0
  182.6470  177.7490  141.8660 C   0  0  0  0  0  2  0  0  0  0  0  0
  181.5490  180.1860  139.1250 C   0  0  0  0  0  2  0  0  0  0  0  0
  185.2220  178.7780  140.9680 C   0  0  0  0  0  0  0  0  0  0  0  0
  187.9520  177.9620  142.2540 C   0  0  2  0  0  0  0  0  0  0  0  0
  187.3760  177.1330  143.2630 C   0  0  1  0  0  0  0  0  0  0  0  0
  187.6540  178.0090  140.7540 C   0  0  0  0  0  0  0  0  0  0  0  0
  181.5650  179.1900  140.1460 O   0  0  0  0  0  0  0  0  0  0  0  0
  183.9540  179.1770  140.3000 C   0  0  0  0  0  0  0  0  0  0  0  0
  186.5770  178.5430  138.8560 N   0  0  0  0  0  0  0  0  0  0  0  0
  182.7850  180.0430  138.2500 C   0  0  0  0  0  2  0  0  0  0  0  0
  184.2640  179.2160  143.2420 C   0  0  0  0  0  2  0  0  0  0  0  0
  186.5900  178.2970  142.7950 N   0  0  0  0  0  0  0  0  0  0  0  0
  185.3400  178.7520  142.3080 C   0  0  0  0  0  0  0  0  0  0  0  0
  188.5620  177.9220  139.7550 N   0  0  0  0  0  0  0  0  0  0  0  0
  182.7510  178.7560  140.7560 C   0  0  0  0  0  0  0  0  0  0  0  0
  187.9390  177.4080  144.6330 C   0  0  0  0  0  0  0  0  0  0  0  0
  187.0440  177.7470  145.6550 C   0  0  0  0  0  3  0  0  0  0  0  0
  187.5090  178.0110  146.9470 C   0  0  0  0  0  3  0  0  0  0  0  0
  188.8740  177.9350  147.2300 C   0  0  0  0  0  0  0  0  0  0  0  0
  189.7760  177.5870  146.2210 C   0  0  0  0  0  3  0  0  0  0  0  0
  189.3140  177.3250  144.9280 C   0  0  0  0  0  3  0  0  0  0  0  0
  189.3340  178.1960  148.5130 O   0  0  0  0  0  1  0  0  0  0  0  0
  190.0250  177.8660  139.8770 C   0  0  2  0  0  3  0  0  0  0  0  0
  189.6490  175.7190  138.7710 O   0  0  0  0  0  1  0  0  0  0  0  0
  190.6230  176.6010  139.2420 C   0  0  2  0  0  3  0  0  0  0  0  0
  190.4880  176.7060  140.7400 C   0  0  0  0  0  2  0  0  0  0  0  0
  188.5120  178.4510  137.2940 C   0  0  0  0  0  2  0  0  0  0  0  0
  187.5580  178.0250  136.1910 C   0  0  0  0  0  2  0  0  0  0  0  0
  187.7220  176.5710  135.8940 C   0  0  0  0  0  3  0  0  0  0  0  0
  186.8380  175.7250  136.2750 N   0  0  0  0  0  2  0  0  0  0  0  0
  1 10  1  0  0  0  0
  2 13  1  0  0  0  0
  3 14  2  0  0  0  0
  3 19  1  0  0  0  0
  4 11  2  0  0  0  0
  4  8  1  0  0  0  0
  5 16  1  0  0  0  0
  6  5  1  0  0  0  0
  7 12  1  0  0  0  0
  8 18  2  0  0  0  0
  9 11  1  6  0  0  0
  9  1  1  0  0  0  0
  9 17  1  0  0  0  0
  9 10  1  0  0  0  0
 10 21  1  1  0  0  0
 12 20  1  0  0  0  0
 13 20  2  0  0  0  0
 13  8  1  0  0  0  0
 14  4  1  0  0  0  0
 15  7  1  0  0  0  0
 15  2  1  0  0  0  0
 17 10  1  0  0  0  0
 18 17  1  0  0  0  0
 18 16  1  0  0  0  0
 19 11  1  0  0  0  0
 20  6  1  0  0  0  0
 21 26  2  0  0  0  0
 21 22  1  0  0  0  0
 22 23  2  0  0  0  0
 23 24  1  0  0  0  0
 24 27  1  0  0  0  0
 25 24  2  0  0  0  0
 26 25  1  0  0  0  0
 28 19  1  6  0  0  0
 28 31  1  0  0  0  0
 30 29  1  6  0  0  0
 30 28  1  0  0  0  0
 30 31  1  0  0  0  0
 32  3  1  0  0  0  0
 33 32  1  0  0  0  0
 34 33  1  0  0  0  0
 34 35  2  0  0  0  0
M  END
>  <MODEL>
2

>  <REMARK>
 VINA RESULT:      -8.7      2.068      6.398
  Name = 
  5 active torsions:
  status: ('A' for Active; 'I' for Inactive)
    1  A    between atoms: C_3  and  C_16
    2  A    between atoms: C_4  and  C_32
    3  A    between atoms: C_5  and  N_29
    4  A    between atoms: C_23  and  C_34
    5  A    between atoms: C_32  and  C_34
                            x       y       z     vdW  Elec       q    Type
                         _______ _______ _______ _____ _____    ______ ____

>  <TORSDO>
F 5

$$$$
=
 OpenBabel10232409433D

 35 42  0  0  1  0  0  0  0  0999 V2000
  185.4460  179.3120  138.7120 O   0  0  0  0  0  0  0  0  0  0  0  0
  186.8650  177.3610  144.7010 C   0  0  0  0  0  2  0  0  0  0  0  0
  188.7030  177.8350  140.8200 C   0  0  0  0  0  0  0  0  0  0  0  0
  186.7940  178.2280  141.6690 C   0  0  0  0  0  0  0  0  0  0  0  0
  182.9250  179.5280  143.7390 C   0  0  0  0  0  2  0  0  0  0  0  0
  184.1910  180.1450  144.3410 C   0  0  0  0  0  2  0  0  0  0  0  0
  186.1600  178.1400  146.9410 C   0  0  0  0  0  2  0  0  0  0  0  0
  185.6530  178.2930  142.6290 C   0  0  0  0  0  0  0  0  0  0  0  0
  185.3260  178.1870  139.5220 C   0  0  2  0  0  0  0  0  0  0  0  0
  184.3100  179.1880  139.4660 C   0  0  1  0  0  0  0  0  0  0  0  0
  186.6570  178.2010  140.2760 C   0  0  0  0  0  0  0  0  0  0  0  0
  185.3250  179.1010  146.2980 O   0  0  0  0  0  0  0  0  0  0  0  0
  185.8690  178.3210  144.1010 C   0  0  0  0  0  0  0  0  0  0  0  0
  188.0770  178.0050  142.0050 N   0  0  0  0  0  0  0  0  0  0  0  0
  187.3650  177.8380  146.0620 C   0  0  0  0  0  2  0  0  0  0  0  0
  183.1620  178.2610  142.9080 C   0  0  0  0  0  2  0  0  0  0  0  0
  184.3760  178.3400  140.6770 N   0  0  0  0  0  0  0  0  0  0  0  0
  184.4180  178.3150  142.0930 C   0  0  0  0  0  0  0  0  0  0  0  0
  187.8770  177.9530  139.7490 N   0  0  0  0  0  0  0  0  0  0  0  0
  185.1440  179.1310  144.9070 C   0  0  0  0  0  0  0  0  0  0  0  0
  183.1360  178.7780  138.6140 C   0  0  0  0  0  0  0  0  0  0  0  0
  183.3900  178.0000  137.4780 C   0  0  0  0  0  3  0  0  0  0  0  0
  182.3400  177.5880  136.6510 C   0  0  0  0  0  3  0  0  0  0  0  0
  181.0260  177.9480  136.9550 C   0  0  0  0  0  0  0  0  0  0  0  0
  180.7590  178.7150  138.0920 C   0  0  0  0  0  3  0  0  0  0  0  0
  181.8070  179.1300  138.9190 C   0  0  0  0  0  3  0  0  0  0  0  0
  179.9850  177.5370  136.1340 O   0  0  0  0  0  1  0  0  0  0  0  0
  188.1900  177.5210  138.3800 C   0  0  2  0  0  3  0  0  0  0  0  0
  189.1000  179.7880  138.2860 O   0  0  0  0  0  1  0  0  0  0  0  0
  188.9520  178.5920  137.5820 C   0  0  2  0  0  3  0  0  0  0  0  0
  187.4820  178.3620  137.3330 C   0  0  0  0  0  2  0  0  0  0  0  0
  190.1290  177.4040  140.7320 C   0  0  0  0  0  2  0  0  0  0  0  0
  190.5770  176.7910  142.0480 C   0  0  0  0  0  2  0  0  0  0  0  0
  191.6440  177.6270  142.6740 C   0  0  0  0  0  3  0  0  0  0  0  0
  191.3950  178.3270  143.7180 N   0  0  0  0  0  2  0  0  0  0  0  0
  1 10  1  0  0  0  0
  2 15  1  0  0  0  0
  3 14  2  0  0  0  0
  4 14  1  0  0  0  0
  4  8  1  0  0  0  0
  5  6  1  0  0  0  0
  6 20  1  0  0  0  0
  8 13  1  0  0  0  0
  9  1  1  6  0  0  0
  9 11  1  0  0  0  0
  9 17  1  0  0  0  0
 10 21  1  6  0  0  0
 10  9  1  0  0  0  0
 10 17  1  0  0  0  0
 11  4  2  0  0  0  0
 12  7  1  0  0  0  0
 13  2  1  0  0  0  0
 13 20  2  0  0  0  0
 15  7  1  0  0  0  0
 16  5  1  0  0  0  0
 17 18  1  0  0  0  0
 18  8  2  0  0  0  0
 18 16  1  0  0  0  0
 19 11  1  0  0  0  0
 19  3  1  0  0  0  0
 20 12  1  0  0  0  0
 21 26  1  0  0  0  0
 22 21  2  0  0  0  0
 23 24  2  0  0  0  0
 23 22  1  0  0  0  0
 24 25  1  0  0  0  0
 25 26  2  0  0  0  0
 27 24  1  0  0  0  0
 28 31  1  6  0  0  0
 28 19  1  0  0  0  0
 30 29  1  1  0  0  0
 30 28  1  0  0  0  0
 31 30  1  0  0  0  0
 32  3  1  0  0  0  0
 32 33  1  0  0  0  0
 33 34  1  0  0  0  0
 34 35  2  0  0  0  0
M  END
>  <MODEL>
3

>  <REMARK>
 VINA RESULT:      -8.5      2.576      4.190
  Name = 
  5 active torsions:
  status: ('A' for Active; 'I' for Inactive)
    1  A    between atoms: C_3  and  C_16
    2  A    between atoms: C_4  and  C_32
    3  A    between atoms: C_5  and  N_29
    4  A    between atoms: C_23  and  C_34
    5  A    between atoms: C_32  and  C_34
                            x       y       z     vdW  Elec       q    Type
                         _______ _______ _______ _____ _____    ______ ____

>  <TORSDO>
F 5

$$$$
=
 OpenBabel10232409433D

 35 42  0  0  1  0  0  0  0  0999 V2000
  188.5790  176.5160  143.1540 O   0  0  0  0  0  0  0  0  0  0  0  0
  188.6070  178.6840  137.0720 C   0  0  0  0  0  2  0  0  0  0  0  0
  191.2900  177.0980  140.0640 C   0  0  0  0  0  0  0  0  0  0  0  0
  189.2030  177.4840  139.9270 C   0  0  0  0  0  0  0  0  0  0  0  0
  184.6820  177.8440  139.3170 C   0  0  0  0  0  2  0  0  0  0  0  0
  185.3770  176.9290  138.3030 C   0  0  0  0  0  2  0  0  0  0  0  0
  186.9920  178.5000  135.2070 C   0  0  0  0  0  2  0  0  0  0  0  0
  187.8730  177.9350  139.4240 C   0  0  0  0  0  0  0  0  0  0  0  0
  188.6190  177.7170  142.4510 C   0  0  2  0  0  0  0  0  0  0  0  0
  187.3860  177.1140  142.8440 C   0  0  1  0  0  0  0  0  0  0  0  0
  189.5390  177.3640  141.2810 C   0  0  0  0  0  0  0  0  0  0  0  0
  186.1200  177.7930  136.0880 O   0  0  0  0  0  0  0  0  0  0  0  0
  187.5810  178.0380  137.9690 C   0  0  0  0  0  0  0  0  0  0  0  0
  190.3010  177.3100  139.1690 N   0  0  0  0  0  0  0  0  0  0  0  0
  188.4380  178.2590  135.6160 C   0  0  0  0  0  2  0  0  0  0  0  0
  185.6120  178.8330  140.0300 C   0  0  0  0  0  2  0  0  0  0  0  0
  187.3620  178.0480  141.6970 N   0  0  0  0  0  0  0  0  0  0  0  0
  186.9550  178.2520  140.3550 C   0  0  0  0  0  0  0  0  0  0  0  0
  190.8660  177.1160  141.3540 N   0  0  0  0  0  0  0  0  0  0  0  0
  186.3950  177.6340  137.4540 C   0  0  0  0  0  0  0  0  0  0  0  0
  186.7780  177.7710  144.0570 C   0  0  0  0  0  0  0  0  0  0  0  0
  187.4270  177.6050  145.2870 C   0  0  0  0  0  3  0  0  0  0  0  0
  186.9110  178.1930  146.4460 C   0  0  0  0  0  3  0  0  0  0  0  0
  185.7420  178.9550  146.3840 C   0  0  0  0  0  0  0  0  0  0  0  0
  185.0920  179.1360  145.1600 C   0  0  0  0  0  3  0  0  0  0  0  0
  185.6050  178.5470  144.0010 C   0  0  0  0  0  3  0  0  0  0  0  0
  185.2320  179.5390  147.5350 O   0  0  0  0  0  1  0  0  0  0  0  0
  191.7350  177.2270  142.5340 C   0  0  2  0  0  3  0  0  0  0  0  0
  190.7710  175.0230  142.9710 O   0  0  0  0  0  1  0  0  0  0  0  0
  191.6970  175.9690  143.4160 C   0  0  2  0  0  3  0  0  0  0  0  0
  190.9480  177.2100  143.8330 C   0  0  0  0  0  2  0  0  0  0  0  0
  192.7230  177.0130  139.6560 C   0  0  0  0  0  2  0  0  0  0  0  0
  192.8340  176.5670  138.2070 C   0  0  0  0  0  2  0  0  0  0  0  0
  193.7340  175.3810  138.0960 C   0  0  0  0  0  3  0  0  0  0  0  0
  194.9150  175.4110  138.5920 N   0  0  0  0  0  2  0  0  0  0  0  0
  2 13  1  0  0  0  0
  3 19  1  0  0  0  0
  4 11  2  0  0  0  0
  5 16  1  0  0  0  0
  6  5  1  0  0  0  0
  7 15  1  0  0  0  0
  7 12  1  0  0  0  0
  8  4  1  0  0  0  0
  8 18  2  0  0  0  0
  9 11  1  6  0  0  0
  9 10  1  0  0  0  0
  9  1  1  0  0  0  0
 10  1  1  0  0  0  0
 10 21  1  1  0  0  0
 11 19  1  0  0  0  0
 12 20  1  0  0  0  0
 13  8  1  0  0  0  0
 14  4  1  0  0  0  0
 14  3  2  0  0  0  0
 15  2  1  0  0  0  0
 16 18  1  0  0  0  0
 17  9  1  0  0  0  0
 17 10  1  0  0  0  0
 18 17  1  0  0  0  0
 20 13  2  0  0  0  0
 20  6  1  0  0  0  0
 21 22  1  0  0  0  0
 22 23  2  0  0  0  0
 24 23  1  0  0  0  0
 24 27  1  0  0  0  0
 25 24  2  0  0  0  0
 26 21  2  0  0  0  0
 26 25  1  0  0  0  0
 28 19  1  6  0  0  0
 28 30  1  0  0  0  0
 28 31  1  0  0  0  0
 30 29  1  6  0  0  0
 30 31  1  0  0  0  0
 32  3  1  0  0  0  0
 33 32  1  0  0  0  0
 34 33  1  0  0  0  0
 34 35  2  0  0  0  0
M  END
>  <MODEL>
4

>  <REMARK>
 VINA RESULT:      -7.5      2.317      5.734
  Name = 
  5 active torsions:
  status: ('A' for Active; 'I' for Inactive)
    1  A    between atoms: C_3  and  C_16
    2  A    between atoms: C_4  and  C_32
    3  A    between atoms: C_5  and  N_29
    4  A    between atoms: C_23  and  C_34
    5  A    between atoms: C_32  and  C_34
                            x       y       z     vdW  Elec       q    Type
                         _______ _______ _______ _____ _____    ______ ____

>  <TORSDO>
F 5

$$$$
=
 OpenBabel10232409433D

 35 42  0  0  1  0  0  0  0  0999 V2000
  188.4730  178.5250  139.6770 O   0  0  0  0  0  0  0  0  0  0  0  0
  186.6450  177.1940  145.7260 C   0  0  0  0  0  2  0  0  0  0  0  0
  190.1460  177.0920  143.1960 C   0  0  0  0  0  0  0  0  0  0  0  0
  188.1210  177.7050  142.9850 C   0  0  0  0  0  0  0  0  0  0  0  0
  183.9100  179.4880  142.8270 C   0  0  0  0  0  2  0  0  0  0  0  0
  184.7990  180.0860  143.9210 C   0  0  0  0  0  2  0  0  0  0  0  0
  185.0540  178.2720  147.2830 C   0  0  0  0  0  2  0  0  0  0  0  0
  186.6770  177.9560  143.2660 C   0  0  0  0  0  0  0  0  0  0  0  0
  187.8560  177.5110  140.4050 C   0  0  2  0  0  0  0  0  0  0  0  0
  187.1090  178.5630  139.7940 C   0  0  1  0  0  0  0  0  0  0  0  0
  188.6600  177.5250  141.7060 C   0  0  0  0  0  0  0  0  0  0  0  0
  184.7400  179.2040  146.2500 O   0  0  0  0  0  0  0  0  0  0  0  0
  186.1700  178.1400  144.6520 C   0  0  0  0  0  0  0  0  0  0  0  0
  189.0570  177.4390  143.9150 N   0  0  0  0  0  0  0  0  0  0  0  0
  186.4890  177.7920  147.1210 C   0  0  0  0  0  2  0  0  0  0  0  0
  184.3680  178.1200  142.3060 C   0  0  0  0  0  2  0  0  0  0  0  0
  186.4960  177.8600  140.9420 N   0  0  0  0  0  0  0  0  0  0  0  0
  185.8570  177.9960  142.2000 C   0  0  0  0  0  0  0  0  0  0  0  0
  189.9480  177.1390  141.8540 N   0  0  0  0  0  0  0  0  0  0  0  0
  185.2460  179.0850  144.9480 C   0  0  0  0  0  0  0  0  0  0  0  0
  186.4430  178.1350  138.5110 C   0  0  0  0  0  0  0  0  0  0  0  0
  185.0470  178.0340  138.4980 C   0  0  0  0  0  3  0  0  0  0  0  0
  184.3750  177.6440  137.3370 C   0  0  0  0  0  3  0  0  0  0  0  0
  185.0930  177.3540  136.1750 C   0  0  0  0  0  0  0  0  0  0  0  0
  186.4860  177.4610  136.1720 C   0  0  0  0  0  3  0  0  0  0  0  0
  187.1610  177.8490  137.3330 C   0  0  0  0  0  3  0  0  0  0  0  0
  184.4240  176.9680  135.0220 O   0  0  0  0  0  1  0  0  0  0  0  0
  190.8220  176.5310  140.8420 C   0  0  2  0  0  3  0  0  0  0  0  0
  192.1900  178.4740  141.4160 O   0  0  0  0  0  1  0  0  0  0  0  0
  192.1390  177.3020  140.6590 C   0  0  2  0  0  3  0  0  0  0  0  0
  191.0340  177.4370  139.6420 C   0  0  0  0  0  2  0  0  0  0  0  0
  191.3840  176.5610  143.8400 C   0  0  0  0  0  2  0  0  0  0  0  0
  191.5310  177.1230  145.2440 C   0  0  0  0  0  2  0  0  0  0  0  0
  191.9010  176.0390  146.2020 C   0  0  0  0  0  3  0  0  0  0  0  0
  192.2790  176.3230  147.3930 N   0  0  0  0  0  2  0  0  0  0  0  0
  1 10  1  0  0  0  0
  2 15  1  0  0  0  0
  3 32  1  0  0  0  0
  3 14  2  0  0  0  0
  4  8  1  0  0  0  0
  4 14  1  0  0  0  0
  5  6  1  0  0  0  0
  6 20  1  0  0  0  0
  8 13  1  0  0  0  0
  9  1  1  6  0  0  0
  9 17  1  0  0  0  0
  9 11  1  0  0  0  0
 10 21  1  6  0  0  0
 10  9  1  0  0  0  0
 10 17  1  0  0  0  0
 11 19  1  0  0  0  0
 11  4  2  0  0  0  0
 12  7  1  0  0  0  0
 13 20  2  0  0  0  0
 13  2  1  0  0  0  0
 15  7  1  0  0  0  0
 16  5  1  0  0  0  0
 17 18  1  0  0  0  0
 18 16  1  0  0  0  0
 18  8  2  0  0  0  0
 19  3  1  0  0  0  0
 20 12  1  0  0  0  0
 22 21  1  0  0  0  0
 23 22  2  0  0  0  0
 24 23  1  0  0  0  0
 25 24  2  0  0  0  0
 25 26  1  0  0  0  0
 26 21  2  0  0  0  0
 27 24  1  0  0  0  0
 28 31  1  6  0  0  0
 28 19  1  0  0  0  0
 30 28  1  0  0  0  0
 30 29  1  1  0  0  0
 31 30  1  0  0  0  0
 32 33  1  0  0  0  0
 33 34  1  0  0  0  0
 34 35  2  0  0  0  0
M  END
>  <MODEL>
5

>  <REMARK>
 VINA RESULT:      -7.3      2.545      5.300
  Name = 
  5 active torsions:
  status: ('A' for Active; 'I' for Inactive)
    1  A    between atoms: C_3  and  C_16
    2  A    between atoms: C_4  and  C_32
    3  A    between atoms: C_5  and  N_29
    4  A    between atoms: C_23  and  C_34
    5  A    between atoms: C_32  and  C_34
                            x       y       z     vdW  Elec       q    Type
                         _______ _______ _______ _____ _____    ______ ____

>  <TORSDO>
F 5

$$$$
=
 OpenBabel10232409433D

 35 42  0  0  1  0  0  0  0  0999 V2000
  188.9240  176.6810  140.4170 O   0  0  0  0  0  0  0  0  0  0  0  0
  183.6970  180.1320  138.8470 C   0  0  0  0  0  2  0  0  0  0  0  0
  187.1450  178.2740  137.0220 C   0  0  0  0  0  0  0  0  0  0  0  0
  186.3380  178.4130  138.9840 C   0  0  0  0  0  0  0  0  0  0  0  0
  184.2230  178.3230  143.0410 C   0  0  0  0  0  2  0  0  0  0  0  0
  183.3880  177.7520  141.8900 C   0  0  0  0  0  2  0  0  0  0  0  0
  181.3760  180.1640  139.7010 C   0  0  0  0  0  2  0  0  0  0  0  0
  185.4750  178.7920  140.1410 C   0  0  0  0  0  0  0  0  0  0  0  0
  188.4890  178.0030  140.3880 C   0  0  2  0  0  0  0  0  0  0  0  0
  188.3120  177.1770  141.5380 C   0  0  1  0  0  0  0  0  0  0  0  0
  187.6830  178.0390  139.0880 C   0  0  0  0  0  0  0  0  0  0  0  0
  181.7590  179.1740  140.6550 O   0  0  0  0  0  0  0  0  0  0  0  0
  184.0500  179.1780  139.9600 C   0  0  0  0  0  0  0  0  0  0  0  0
  186.0030  178.5530  137.6890 N   0  0  0  0  0  0  0  0  0  0  0  0
  182.2280  180.0240  138.4480 C   0  0  0  0  0  2  0  0  0  0  0  0
  185.3730  179.2380  142.6050 C   0  0  0  0  0  2  0  0  0  0  0  0
  187.4020  178.3320  141.3720 N   0  0  0  0  0  0  0  0  0  0  0  0
  186.0560  178.7760  141.3540 C   0  0  0  0  0  0  0  0  0  0  0  0
  188.1830  177.9520  137.8350 N   0  0  0  0  0  0  0  0  0  0  0  0
  183.0870  178.7520  140.8110 C   0  0  0  0  0  0  0  0  0  0  0  0
  189.3180  177.4650  142.6220 C   0  0  0  0  0  0  0  0  0  0  0  0
  188.8420  177.6630  143.9240 C   0  0  0  0  0  3  0  0  0  0  0  0
  189.7300  177.9310  144.9710 C   0  0  0  0  0  3  0  0  0  0  0  0
  191.1030  178.0000  144.7250 C   0  0  0  0  0  0  0  0  0  0  0  0
  191.5910  177.7930  143.4320 C   0  0  0  0  0  3  0  0  0  0  0  0
  190.7050  177.5280  142.3840 C   0  0  0  0  0  3  0  0  0  0  0  0
  191.9820  178.2650  145.7660 O   0  0  0  0  0  1  0  0  0  0  0  0
  189.5960  177.9070  137.4350 C   0  0  2  0  0  3  0  0  0  0  0  0
  189.0100  175.5670  137.0390 O   0  0  0  0  0  1  0  0  0  0  0  0
  190.0220  176.5220  136.9240 C   0  0  2  0  0  3  0  0  0  0  0  0
  190.4140  176.9720  138.3090 C   0  0  0  0  0  2  0  0  0  0  0  0
  187.2670  178.4650  135.5460 C   0  0  0  0  0  2  0  0  0  0  0  0
  186.9240  177.1760  134.8180 C   0  0  0  0  0  2  0  0  0  0  0  0
  185.4640  177.1260  134.5090 C   0  0  0  0  0  3  0  0  0  0  0  0
  184.7780  176.0770  134.7760 N   0  0  0  0  0  2  0  0  0  0  0  0
  1 10  1  0  0  0  0
  2 13  1  0  0  0  0
  3 14  2  0  0  0  0
  3 19  1  0  0  0  0
  4 11  2  0  0  0  0
  4  8  1  0  0  0  0
  6  5  1  0  0  0  0
  7 12  1  0  0  0  0
  8 18  2  0  0  0  0
  9 11  1  6  0  0  0
  9  1  1  0  0  0  0
  9 17  1  0  0  0  0
  9 10  1  0  0  0  0
 10 21  1  1  0  0  0
 12 20  1  0  0  0  0
 13  8  1  0  0  0  0
 13 20  2  0  0  0  0
 14  4  1  0  0  0  0
 15  2  1  0  0  0  0
 15  7  1  0  0  0  0
 16  5  1  0  0  0  0
 17 10  1  0  0  0  0
 18 17  1  0  0  0  0
 18 16  1  0  0  0  0
 19 11  1  0  0  0  0
 20  6  1  0  0  0  0
 21 22  1  0  0  0  0
 22 23  2  0  0  0  0
 24 23  1  0  0  0  0
 24 27  1  0  0  0  0
 25 24  2  0  0  0  0
 26 21  2  0  0  0  0
 26 25  1  0  0  0  0
 28 19  1  1  0  0  0
 28 31  1  0  0  0  0
 30 29  1  1  0  0  0
 30 28  1  0  0  0  0
 30 31  1  0  0  0  0
 32  3  1  0  0  0  0
 33 32  1  0  0  0  0
 34 35  2  0  0  0  0
 34 33  1  0  0  0  0
M  END
>  <MODEL>
6

>  <REMARK>
 VINA RESULT:      -7.3      2.201      6.804
  Name = 
  5 active torsions:
  status: ('A' for Active; 'I' for Inactive)
    1  A    between atoms: C_3  and  C_16
    2  A    between atoms: C_4  and  C_32
    3  A    between atoms: C_5  and  N_29
    4  A    between atoms: C_23  and  C_34
    5  A    between atoms: C_32  and  C_34
                            x       y       z     vdW  Elec       q    Type
                         _______ _______ _______ _____ _____    ______ ____

>  <TORSDO>
F 5

$$$$
=
 OpenBabel10232409433D

 35 42  0  0  1  0  0  0  0  0999 V2000
  184.1000  178.0310  141.8440 O   0  0  0  0  0  0  0  0  0  0  0  0
  190.1340  177.7980  139.5560 C   0  0  0  0  0  2  0  0  0  0  0  0
  187.9880  178.0020  143.3000 C   0  0  0  0  0  0  0  0  0  0  0  0
  187.4690  177.8690  141.2420 C   0  0  0  0  0  0  0  0  0  0  0  0
  186.4950  177.0330  136.8500 C   0  0  0  0  0  2  0  0  0  0  0  0
  187.3970  175.9790  137.5000 C   0  0  0  0  0  2  0  0  0  0  0  0
  191.1690  176.6180  137.6440 C   0  0  0  0  0  2  0  0  0  0  0  0
  187.5670  177.8190  139.7530 C   0  0  0  0  0  0  0  0  0  0  0  0
  185.0710  178.8750  141.3130 C   0  0  2  0  0  0  0  0  0  0  0  0
  184.1140  178.2130  140.4860 C   0  0  1  0  0  0  0  0  0  0  0  0
  186.3480  178.3210  141.9480 C   0  0  0  0  0  0  0  0  0  0  0  0
  189.8770  176.1150  137.3100 O   0  0  0  0  0  0  0  0  0  0  0  0
  188.7890  177.3240  139.0660 C   0  0  0  0  0  0  0  0  0  0  0  0
  188.4910  177.6640  142.0930 N   0  0  0  0  0  0  0  0  0  0  0  0
  191.2560  176.8480  139.1460 C   0  0  0  0  0  2  0  0  0  0  0  0
  186.4640  178.3830  137.5750 C   0  0  0  0  0  2  0  0  0  0  0  0
  185.3860  178.6410  139.8620 N   0  0  0  0  0  0  0  0  0  0  0  0
  186.4940  178.2540  139.0670 C   0  0  0  0  0  0  0  0  0  0  0  0
  186.6900  178.3990  143.2540 N   0  0  0  0  0  0  0  0  0  0  0  0
  188.7130  176.5230  137.9760 C   0  0  0  0  0  0  0  0  0  0  0  0
  182.9940  179.1230  140.0500 C   0  0  0  0  0  0  0  0  0  0  0  0
  183.2130  179.9480  138.9400 C   0  0  0  0  0  3  0  0  0  0  0  0
  182.2100  180.8110  138.4890 C   0  0  0  0  0  3  0  0  0  0  0  0
  180.9770  180.8550  139.1420 C   0  0  0  0  0  0  0  0  0  0  0  0
  180.7430  180.0290  140.2450 C   0  0  0  0  0  3  0  0  0  0  0  0
  181.7450  179.1670  140.6990 C   0  0  0  0  0  3  0  0  0  0  0  0
  179.9820  181.7110  138.6920 O   0  0  0  0  0  1  0  0  0  0  0  0
  185.9780  179.1090  144.3260 C   0  0  2  0  0  3  0  0  0  0  0  0
  186.1500  176.9050  145.3710 O   0  0  0  0  0  1  0  0  0  0  0  0
  185.7360  178.2260  145.5600 C   0  0  2  0  0  3  0  0  0  0  0  0
  184.6080  178.5140  144.6010 C   0  0  0  0  0  2  0  0  0  0  0  0
  188.8410  178.0750  144.5220 C   0  0  0  0  0  2  0  0  0  0  0  0
  189.9150  177.0010  144.4810 C   0  0  0  0  0  2  0  0  0  0  0  0
  191.2650  177.6070  144.6800 C   0  0  0  0  0  3  0  0  0  0  0  0
  191.6250  178.6330  144.0020 N   0  0  0  0  0  2  0  0  0  0  0  0
  3 32  1  0  0  0  0
  4 11  2  0  0  0  0
  4 14  1  0  0  0  0
  5  6  1  0  0  0  0
  5 16  1  0  0  0  0
  6 20  1  0  0  0  0
  7 15  1  0  0  0  0
  8  4  1  0  0  0  0
  9  1  1  1  0  0  0
  9 11  1  0  0  0  0
 10 21  1  6  0  0  0
 10  9  1  0  0  0  0
 10  1  1  0  0  0  0
 11 19  1  0  0  0  0
 12  7  1  0  0  0  0
 12 20  1  0  0  0  0
 13  2  1  0  0  0  0
 13  8  1  0  0  0  0
 14  3  2  0  0  0  0
 15  2  1  0  0  0  0
 16 18  1  0  0  0  0
 17 10  1  0  0  0  0
 17  9  1  0  0  0  0
 18  8  2  0  0  0  0
 18 17  1  0  0  0  0
 19  3  1  0  0  0  0
 20 13  2  0  0  0  0
 21 26  1  0  0  0  0
 22 21  2  0  0  0  0
 23 22  1  0  0  0  0
 23 24  2  0  0  0  0
 24 25  1  0  0  0  0
 25 26  2  0  0  0  0
 27 24  1  0  0  0  0
 28 19  1  6  0  0  0
 28 31  1  0  0  0  0
 28 30  1  0  0  0  0
 30 29  1  6  0  0  0
 31 30  1  0  0  0  0
 33 32  1  0  0  0  0
 33 34  1  0  0  0  0
 35 34  2  0  0  0  0
M  END
>  <MODEL>
7

>  <REMARK>
 VINA RESULT:      -7.1      2.278      5.643
  Name = 
  5 active torsions:
  status: ('A' for Active; 'I' for Inactive)
    1  A    between atoms: C_3  and  C_16
    2  A    between atoms: C_4  and  C_32
    3  A    between atoms: C_5  and  N_29
    4  A    between atoms: C_23  and  C_34
    5  A    between atoms: C_32  and  C_34
                            x       y       z     vdW  Elec       q    Type
                         _______ _______ _______ _____ _____    ______ ____

>  <TORSDO>
F 5

$$$$
=
 OpenBabel10232409433D

 35 42  0  0  1  0  0  0  0  0999 V2000
  188.0970  176.4600  138.1840 O   0  0  0  0  0  0  0  0  0  0  0  0
  185.6070  179.6630  143.2090 C   0  0  0  0  0  2  0  0  0  0  0  0
  184.8250  178.8710  139.0340 C   0  0  0  0  0  0  0  0  0  0  0  0
  186.2910  178.2800  140.4570 C   0  0  0  0  0  0  0  0  0  0  0  0
  189.0490  176.6580  143.7270 C   0  0  0  0  0  2  0  0  0  0  0  0
  187.5600  176.4060  143.9860 C   0  0  0  0  0  2  0  0  0  0  0  0
  185.4830  179.1700  145.6290 C   0  0  0  0  0  2  0  0  0  0  0  0
  187.0830  178.1710  141.7170 C   0  0  0  0  0  0  0  0  0  0  0  0
  188.2510  177.6670  138.8610 C   0  0  2  0  0  0  0  0  0  0  0  0
  188.9850  176.4980  139.2270 C   0  0  1  0  0  0  0  0  0  0  0  0
  186.8000  178.0360  139.1760 C   0  0  0  0  0  0  0  0  0  0  0  0
  186.2140  177.9710  145.3800 O   0  0  0  0  0  0  0  0  0  0  0  0
  186.4780  178.4420  143.0480 C   0  0  0  0  0  0  0  0  0  0  0  0
  185.0520  178.7960  140.3630 N   0  0  0  0  0  0  0  0  0  0  0  0
  184.6620  179.5340  144.4010 C   0  0  0  0  0  2  0  0  0  0  0  0
  189.3440  177.7810  142.7260 C   0  0  0  0  0  2  0  0  0  0  0  0
  188.7920  177.5420  140.2580 N   0  0  0  0  0  0  0  0  0  0  0  0
  188.3770  177.8230  141.5830 C   0  0  0  0  0  0  0  0  0  0  0  0
  185.8590  178.4130  138.2820 N   0  0  0  0  0  0  0  0  0  0  0  0
  186.7510  177.6640  144.1220 C   0  0  0  0  0  0  0  0  0  0  0  0
  190.4060  176.5240  138.7260 C   0  0  0  0  0  0  0  0  0  0  0  0
  190.6410  176.1550  137.3960 C   0  0  0  0  0  3  0  0  0  0  0  0
  191.9380  176.1630  136.8760 C   0  0  0  0  0  3  0  0  0  0  0  0
  193.0140  176.5420  137.6820 C   0  0  0  0  0  0  0  0  0  0  0  0
  192.7910  176.9220  139.0080 C   0  0  0  0  0  3  0  0  0  0  0  0
  191.4950  176.9130  139.5300 C   0  0  0  0  0  3  0  0  0  0  0  0
  194.3010  176.5500  137.1640 O   0  0  0  0  0  1  0  0  0  0  0  0
  186.0350  178.6500  136.8420 C   0  0  2  0  0  3  0  0  0  0  0  0
  184.8650  176.5060  136.7400 O   0  0  0  0  0  1  0  0  0  0  0  0
  185.3930  177.5510  135.9800 C   0  0  2  0  0  3  0  0  0  0  0  0
  186.8880  177.5810  136.1820 C   0  0  0  0  0  2  0  0  0  0  0  0
  183.6150  179.5410  138.4720 C   0  0  0  0  0  2  0  0  0  0  0  0
  182.4090  178.6230  138.5740 C   0  0  0  0  0  2  0  0  0  0  0  0
  181.4250  179.1640  139.5580 C   0  0  0  0  0  3  0  0  0  0  0  0
  181.5280  178.8820  140.8040 N   0  0  0  0  0  2  0  0  0  0  0  0
  1 10  1  0  0  0  0
  2 15  1  0  0  0  0
  3 14  2  0  0  0  0
  4  8  1  0  0  0  0
  5  6  1  0  0  0  0
  6 20  1  0  0  0  0
  8 13  1  0  0  0  0
  9  1  1  6  0  0  0
  9 11  1  0  0  0  0
  9 10  1  0  0  0  0
  9 17  1  0  0  0  0
 10 21  1  6  0  0  0
 10 17  1  0  0  0  0
 11  4  2  0  0  0  0
 12  7  1  0  0  0  0
 13  2  1  0  0  0  0
 13 20  2  0  0  0  0
 14  4  1  0  0  0  0
 15  7  1  0  0  0  0
 16  5  1  0  0  0  0
 17 18  1  0  0  0  0
 18  8  2  0  0  0  0
 18 16  1  0  0  0  0
 19  3  1  0  0  0  0
 19 11  1  0  0  0  0
 20 12  1  0  0  0  0
 21 26  1  0  0  0  0
 22 21  2  0  0  0  0
 23 22  1  0  0  0  0
 23 24  2  0  0  0  0
 24 25  1  0  0  0  0
 25 26  2  0  0  0  0
 27 24  1  0  0  0  0
 28 31  1  1  0  0  0
 28 19  1  0  0  0  0
 30 31  1  0  0  0  0
 30 29  1  1  0  0  0
 30 28  1  0  0  0  0
 32 33  1  0  0  0  0
 32  3  1  0  0  0  0
 33 34  1  0  0  0  0
 34 35  2  0  0  0  0
M  END
>  <MODEL>
8

>  <REMARK>
 VINA RESULT:      -7.0      2.551      7.087
  Name = 
  5 active torsions:
  status: ('A' for Active; 'I' for Inactive)
    1  A    between atoms: C_3  and  C_16
    2  A    between atoms: C_4  and  C_32
    3  A    between atoms: C_5  and  N_29
    4  A    between atoms: C_23  and  C_34
    5  A    between atoms: C_32  and  C_34
                            x       y       z     vdW  Elec       q    Type
                         _______ _______ _______ _____ _____    ______ ____

>  <TORSDO>
F 5

$$$$
=
 OpenBabel10232409433D

 35 42  0  0  1  0  0  0  0  0999 V2000
  184.1200  179.4790  140.7780 O   0  0  0  0  0  0  0  0  0  0  0  0
  186.8040  176.4790  135.7290 C   0  0  0  0  0  2  0  0  0  0  0  0
  182.9450  177.7650  137.1840 C   0  0  0  0  0  0  0  0  0  0  0  0
  184.9580  177.9060  137.8520 C   0  0  0  0  0  0  0  0  0  0  0  0
  189.3550  178.6200  138.9000 C   0  0  0  0  0  2  0  0  0  0  0  0
  188.9460  179.1630  137.5270 C   0  0  0  0  0  2  0  0  0  0  0  0
  188.9460  176.7830  134.5290 C   0  0  0  0  0  2  0  0  0  0  0  0
  186.4390  177.7370  137.9460 C   0  0  0  0  0  0  0  0  0  0  0  0
  184.5690  178.2150  140.4050 C   0  0  2  0  0  0  0  0  0  0  0  0
  185.4280  179.1640  141.0370 C   0  0  1  0  0  0  0  0  0  0  0  0
  184.1160  178.1410  138.9460 C   0  0  0  0  0  0  0  0  0  0  0  0
  189.2730  177.8130  135.4600 O   0  0  0  0  0  0  0  0  0  0  0  0
  187.2760  177.4930  136.7410 C   0  0  0  0  0  0  0  0  0  0  0  0
  184.2210  177.6780  136.7500 N   0  0  0  0  0  0  0  0  0  0  0  0
  187.4350  176.7070  134.3580 C   0  0  0  0  0  2  0  0  0  0  0  0
  188.4190  177.5470  139.4690 C   0  0  0  0  0  2  0  0  0  0  0  0
  186.0560  178.1030  140.2170 N   0  0  0  0  0  0  0  0  0  0  0  0
  186.9730  177.8090  139.1780 C   0  0  0  0  0  0  0  0  0  0  0  0
  182.8400  178.0510  138.5070 N   0  0  0  0  0  0  0  0  0  0  0  0
  188.4740  178.1020  136.5760 C   0  0  0  0  0  0  0  0  0  0  0  0
  185.6360  178.8750  142.5020 C   0  0  0  0  0  0  0  0  0  0  0  0
  186.6670  177.9980  142.8580 C   0  0  0  0  0  3  0  0  0  0  0  0
  186.9090  177.6950  144.2010 C   0  0  0  0  0  3  0  0  0  0  0  0
  186.1220  178.2690  145.2010 C   0  0  0  0  0  0  0  0  0  0  0  0
  185.0960  179.1540  144.8590 C   0  0  0  0  0  3  0  0  0  0  0  0
  184.8510  179.4560  143.5170 C   0  0  0  0  0  3  0  0  0  0  0  0
  186.3640  177.9680  146.5340 O   0  0  0  0  0  1  0  0  0  0  0  0
  181.6240  177.9020  139.3170 C   0  0  2  0  0  3  0  0  0  0  0  0
  181.2650  180.1770  138.4970 O   0  0  0  0  0  1  0  0  0  0  0  0
  180.7080  179.1340  139.2380 C   0  0  2  0  0  3  0  0  0  0  0  0
  181.5640  178.9030  140.4580 C   0  0  0  0  0  2  0  0  0  0  0  0
  181.7850  177.4200  136.3100 C   0  0  0  0  0  2  0  0  0  0  0  0
  181.9080  175.9900  135.8100 C   0  0  0  0  0  2  0  0  0  0  0  0
  181.5120  175.0290  136.8810 C   0  0  0  0  0  3  0  0  0  0  0  0
  182.3580  174.1840  137.3430 N   0  0  0  0  0  2  0  0  0  0  0  0
  1 10  1  0  0  0  0
  2 13  1  0  0  0  0
  3 19  1  0  0  0  0
  4  8  1  0  0  0  0
  4 11  2  0  0  0  0
  5 16  1  0  0  0  0
  6  5  1  0  0  0  0
  7 12  1  0  0  0  0
  8 18  2  0  0  0  0
  9 11  1  6  0  0  0
  9  1  1  0  0  0  0
  9 10  1  0  0  0  0
 10 21  1  1  0  0  0
 12 20  1  0  0  0  0
 13  8  1  0  0  0  0
 14  3  2  0  0  0  0
 14  4  1  0  0  0  0
 15  7  1  0  0  0  0
 15  2  1  0  0  0  0
 17  9  1  0  0  0  0
 17 10  1  0  0  0  0
 18 16  1  0  0  0  0
 18 17  1  0  0  0  0
 19 11  1  0  0  0  0
 20 13  2  0  0  0  0
 20  6  1  0  0  0  0
 21 22  2  0  0  0  0
 21 26  1  0  0  0  0
 22 23  1  0  0  0  0
 23 24  2  0  0  0  0
 24 27  1  0  0  0  0
 25 24  1  0  0  0  0
 26 25  2  0  0  0  0
 28 19  1  6  0  0  0
 28 31  1  0  0  0  0
 30 29  1  6  0  0  0
 30 28  1  0  0  0  0
 30 31  1  0  0  0  0
 32  3  1  0  0  0  0
 33 32  1  0  0  0  0
 33 34  1  0  0  0  0
 34 35  2  0  0  0  0
M  END
>  <MODEL>
9

>  <REMARK>
 VINA RESULT:      -6.9      3.173      7.086
  Name = 
  5 active torsions:
  status: ('A' for Active; 'I' for Inactive)
    1  A    between atoms: C_3  and  C_16
    2  A    between atoms: C_4  and  C_32
    3  A    between atoms: C_5  and  N_29
    4  A    between atoms: C_23  and  C_34
    5  A    between atoms: C_32  and  C_34
                            x       y       z     vdW  Elec       q    Type
                         _______ _______ _______ _____ _____    ______ ____

>  <TORSDO>
F 5

$$$$
