=
 OpenBabel10232408173D

 32 36  0  0  1  0  0  0  0  0999 V2000
  188.1860  177.4690  144.0990 N   0  0  0  0  0  0  0  0  0  0  0  0
  190.1130  177.0010  145.3690 C   0  0  2  0  0  3  0  0  0  0  0  0
  189.3760  177.2530  142.0050 N   0  0  0  0  0  0  0  0  0  0  0  0
  189.0680  176.6320  143.2970 C   0  0  1  0  0  3  0  0  0  0  0  0
  187.9390  177.7620  146.3780 C   0  0  0  0  0  0  0  0  0  0  0  0
  190.5580  177.1770  141.4530 C   0  0  0  0  0  0  0  0  0  0  0  0
  190.3110  176.5340  144.1390 C   0  0  1  0  0  3  0  0  0  0  0  0
  191.6080  176.3090  143.4980 C   0  0  0  0  0  3  0  0  0  0  0  0
  188.2930  177.5450  147.8090 C   0  0  0  0  0  1  0  0  0  0  0  0
  191.7110  176.5980  142.1980 C   0  0  0  0  0  3  0  0  0  0  0  0
  186.7350  177.4060  144.1380 C   0  0  1  0  0  3  0  0  0  0  0  0
  188.7690  177.5540  145.3740 C   0  0  0  0  0  0  0  0  0  0  0  0
  186.2410  177.9360  145.8290 S   0  0  0  0  0  0  0  0  0  0  0  0
  189.7750  176.9340  138.1650 O   0  0  0  0  0  0  0  0  0  0  0  0
  191.2430  175.0400  138.0970 C   0  0  0  0  0  1  0  0  0  0  0  0
  189.5290  177.6760  139.2790 C   0  0  0  0  0  0  0  0  0  0  0  0
  191.1350  176.5510  138.1760 C   0  0  2  0  0  3  0  0  0  0  0  0
  187.3070  178.1060  138.7210 F   0  0  0  0  0  0  0  0  0  0  0  0
  190.7550  177.7570  140.0860 C   0  0  2  0  0  3  0  0  0  0  0  0
  188.3640  178.2480  139.5590 C   0  0  0  0  0  3  0  0  0  0  0  0
  191.7350  177.0140  139.3800 O   0  0  0  0  0  0  0  0  0  0  0  0
  186.1390  178.3630  143.1220 C   0  0  0  0  0  2  0  0  0  0  0  0
  184.6380  178.4720  143.3200 C   0  0  0  0  0  2  0  0  0  0  0  0
  183.9370  178.9820  138.6530 C   0  0  0  0  0  3  0  0  0  0  0  0
  184.0810  178.5120  140.8520 C   0  0  0  0  0  0  0  0  0  0  0  0
  183.4050  177.9910  139.6370 C   0  0  0  0  0  2  0  0  0  0  0  0
  184.7170  179.8310  139.2370 N   0  0  0  0  0  0  0  0  0  0  0  0
  184.8090  179.5440  140.5990 N   0  0  0  0  0  0  0  0  0  0  0  0
  183.9410  177.9450  142.1560 N   0  0  0  0  0  2  0  0  0  0  0  0
  191.1680  177.2430  146.4040 C   0  0  0  0  0  2  0  0  0  0  0  0
  191.5100  176.0010  147.0790 N   0  0  0  0  0  2  0  0  0  0  0  0
  192.4830  176.2910  147.9760 O   0  0  0  0  0  1  0  0  0  0  0  0
  1 11  1  0  0  0  0
  1 12  1  0  0  0  0
  2 12  1  0  0  0  0
  2 30  1  6  0  0  0
  4  3  1  6  0  0  0
  4  1  1  0  0  0  0
  4  7  1  0  0  0  0
  5  9  1  0  0  0  0
  6  3  2  0  0  0  0
  6 10  1  0  0  0  0
  7  8  1  6  0  0  0
  7  2  1  0  0  0  0
 10  8  2  0  0  0  0
 11 22  1  6  0  0  0
 11 13  1  0  0  0  0
 12  5  2  0  0  0  0
 13  5  1  0  0  0  0
 14 17  1  0  0  0  0
 14 16  1  0  0  0  0
 16 20  2  0  0  0  0
 16 19  1  0  0  0  0
 17 15  1  1  0  0  0
 17 21  1  0  0  0  0
 18 20  1  0  0  0  0
 19  6  1  1  0  0  0
 21 19  1  0  0  0  0
 22 23  1  0  0  0  0
 24 27  2  0  0  0  0
 24 26  1  0  0  0  0
 25 29  1  0  0  0  0
 26 25  1  0  0  0  0
 27 28  1  0  0  0  0
 28 25  2  0  0  0  0
 29 23  1  0  0  0  0
 30 31  1  0  0  0  0
 31 32  1  0  0  0  0
M  END
>  <MODEL>
1

>  <REMARK>
 VINA RESULT:      -9.1      0.000      0.000
  Name = 
  6 active torsions:
  status: ('A' for Active; 'I' for Inactive)
    1  A    between atoms: C_2  and  C_17
    2  A    between atoms: N_7  and  C_17
    3  A    between atoms: C_9  and  C_27
    4  A    between atoms: C_9  and  C_30
    5  A    between atoms: C_15  and  C_19
    6  A    between atoms: N_28  and  C_30
                            x       y       z     vdW  Elec       q    Type
                         _______ _______ _______ _____ _____    ______ ____

>  <TORSDO>
F 6

$$$$
=
 OpenBabel10232408173D

 32 36  0  0  1  0  0  0  0  0999 V2000
  187.2300  177.9320  142.7840 N   0  0  0  0  0  0  0  0  0  0  0  0
  185.9170  178.1130  144.7300 C   0  0  2  0  0  3  0  0  0  0  0  0
  185.3240  178.2490  141.3300 N   0  0  0  0  0  0  0  0  0  0  0  0
  186.0760  178.7660  142.4780 C   0  0  1  0  0  3  0  0  0  0  0  0
  188.3400  177.4420  144.7510 C   0  0  0  0  0  0  0  0  0  0  0  0
  184.0190  178.2790  141.2760 C   0  0  0  0  0  0  0  0  0  0  0  0
  185.2460  178.6790  143.7300 C   0  0  1  0  0  3  0  0  0  0  0  0
  183.7940  178.8550  143.6540 C   0  0  0  0  0  3  0  0  0  0  0  0
  188.5510  177.4890  146.2260 C   0  0  0  0  0  1  0  0  0  0  0  0
  183.2150  178.6860  142.4620 C   0  0  0  0  0  3  0  0  0  0  0  0
  188.5830  178.1120  142.2840 C   0  0  1  0  0  3  0  0  0  0  0  0
  187.1820  177.6760  144.1640 C   0  0  0  0  0  0  0  0  0  0  0  0
  189.7050  177.4640  143.5890 S   0  0  0  0  0  0  0  0  0  0  0  0
  181.2890  178.5920  139.2910 O   0  0  0  0  0  0  0  0  0  0  0  0
  180.1030  177.3470  140.9620 C   0  0  0  0  0  1  0  0  0  0  0  0
  182.6090  178.9160  139.3680 C   0  0  0  0  0  0  0  0  0  0  0  0
  181.1150  177.2990  139.8340 C   0  0  2  0  0  3  0  0  0  0  0  0
  182.3510  180.9710  138.2970 F   0  0  0  0  0  0  0  0  0  0  0  0
  183.3380  177.8200  140.0220 C   0  0  2  0  0  3  0  0  0  0  0  0
  183.1350  180.0390  138.8950 C   0  0  0  0  0  3  0  0  0  0  0  0
  182.3660  176.8350  140.3300 O   0  0  0  0  0  0  0  0  0  0  0  0
  188.7840  177.3110  141.0100 C   0  0  0  0  0  2  0  0  0  0  0  0
  189.0500  178.2410  139.8410 C   0  0  0  0  0  2  0  0  0  0  0  0
  185.9760  176.7740  136.5330 C   0  0  0  0  0  3  0  0  0  0  0  0
  187.2560  177.7040  138.1390 C   0  0  0  0  0  0  0  0  0  0  0  0
  185.9780  177.9690  137.4300 C   0  0  0  0  0  2  0  0  0  0  0  0
  187.0290  176.0510  136.7350 N   0  0  0  0  0  0  0  0  0  0  0  0
  187.8250  176.6230  137.7280 N   0  0  0  0  0  0  0  0  0  0  0  0
  187.8040  178.5470  139.1540 N   0  0  0  0  0  2  0  0  0  0  0  0
  185.3470  177.6850  146.0470 C   0  0  0  0  0  2  0  0  0  0  0  0
  184.7690  178.8230  146.7430 N   0  0  0  0  0  2  0  0  0  0  0  0
  185.7990  179.5840  147.1840 O   0  0  0  0  0  1  0  0  0  0  0  0
  1 12  1  0  0  0  0
  2 30  1  6  0  0  0
  4  3  1  6  0  0  0
  4  1  1  0  0  0  0
  4  7  1  0  0  0  0
  5  9  1  0  0  0  0
  6  3  2  0  0  0  0
  6 10  1  0  0  0  0
  7  8  1  6  0  0  0
  7  2  1  0  0  0  0
 10  8  2  0  0  0  0
 11 22  1  6  0  0  0
 11  1  1  0  0  0  0
 11 13  1  0  0  0  0
 12  2  1  0  0  0  0
 12  5  2  0  0  0  0
 13  5  1  0  0  0  0
 14 16  1  0  0  0  0
 14 17  1  0  0  0  0
 16 19  1  0  0  0  0
 17 21  1  0  0  0  0
 17 15  1  1  0  0  0
 18 20  1  0  0  0  0
 19 21  1  0  0  0  0
 19  6  1  1  0  0  0
 20 16  2  0  0  0  0
 23 22  1  0  0  0  0
 24 27  2  0  0  0  0
 24 26  1  0  0  0  0
 25 29  1  0  0  0  0
 26 25  1  0  0  0  0
 27 28  1  0  0  0  0
 28 25  2  0  0  0  0
 29 23  1  0  0  0  0
 30 31  1  0  0  0  0
 31 32  1  0  0  0  0
M  END
>  <MODEL>
2

>  <REMARK>
 VINA RESULT:      -9.1      3.545      6.094
  Name = 
  6 active torsions:
  status: ('A' for Active; 'I' for Inactive)
    1  A    between atoms: C_2  and  C_17
    2  A    between atoms: N_7  and  C_17
    3  A    between atoms: C_9  and  C_27
    4  A    between atoms: C_9  and  C_30
    5  A    between atoms: C_15  and  C_19
    6  A    between atoms: N_28  and  C_30
                            x       y       z     vdW  Elec       q    Type
                         _______ _______ _______ _____ _____    ______ ____

>  <TORSDO>
F 6

$$$$
=
 OpenBabel10232408173D

 32 36  0  0  1  0  0  0  0  0999 V2000
  187.8260  177.5240  144.2680 N   0  0  0  0  0  0  0  0  0  0  0  0
  190.0600  177.0910  144.8750 C   0  0  2  0  0  3  0  0  0  0  0  0
  188.3420  177.4980  141.9060 N   0  0  0  0  0  0  0  0  0  0  0  0
  188.4570  176.7860  143.1830 C   0  0  1  0  0  3  0  0  0  0  0  0
  188.2600  177.6680  146.5330 C   0  0  0  0  0  0  0  0  0  0  0  0
  189.3080  177.5210  141.0260 C   0  0  0  0  0  0  0  0  0  0  0  0
  189.8970  176.7080  143.6100 C   0  0  1  0  0  3  0  0  0  0  0  0
  190.9520  176.5950  142.6000 C   0  0  0  0  0  3  0  0  0  0  0  0
  189.0330  177.3880  147.7770 C   0  0  0  0  0  1  0  0  0  0  0  0
  190.6500  176.9650  141.3520 C   0  0  0  0  0  3  0  0  0  0  0  0
  186.4560  177.3770  144.7300 C   0  0  1  0  0  3  0  0  0  0  0  0
  188.7590  177.5660  145.3160 C   0  0  0  0  0  0  0  0  0  0  0  0
  186.4710  177.7790  146.5250 S   0  0  0  0  0  0  0  0  0  0  0  0
  187.6520  177.3810  138.0720 O   0  0  0  0  0  0  0  0  0  0  0  0
  189.1840  175.6440  137.4530 C   0  0  0  0  0  1  0  0  0  0  0  0
  187.6730  178.0340  139.2660 C   0  0  0  0  0  0  0  0  0  0  0  0
  188.9850  177.1310  137.6770 C   0  0  2  0  0  3  0  0  0  0  0  0
  185.3570  178.2780  139.3780 F   0  0  0  0  0  0  0  0  0  0  0  0
  189.0660  178.1900  139.7070 C   0  0  2  0  0  3  0  0  0  0  0  0
  186.5930  178.4750  139.9000 C   0  0  0  0  0  3  0  0  0  0  0  0
  189.8630  177.5850  138.7020 O   0  0  0  0  0  0  0  0  0  0  0  0
  185.5490  178.3570  144.0080 C   0  0  0  0  0  2  0  0  0  0  0  0
  184.9150  179.3160  144.9990 C   0  0  0  0  0  2  0  0  0  0  0  0
  180.8970  178.6650  142.5560 C   0  0  0  0  0  3  0  0  0  0  0  0
  182.6390  178.9390  143.9600 C   0  0  0  0  0  0  0  0  0  0  0  0
  181.1840  178.6510  144.0220 C   0  0  0  0  0  2  0  0  0  0  0  0
  181.9730  178.9100  141.8830 N   0  0  0  0  0  0  0  0  0  0  0  0
  183.0550  179.0800  142.7490 N   0  0  0  0  0  0  0  0  0  0  0  0
  183.4870  179.0540  145.1040 N   0  0  0  0  0  2  0  0  0  0  0  0
  191.3660  177.3310  145.5660 C   0  0  0  0  0  2  0  0  0  0  0  0
  191.9180  176.0770  146.0560 N   0  0  0  0  0  2  0  0  0  0  0  0
  192.3440  176.2990  147.3230 O   0  0  0  0  0  1  0  0  0  0  0  0
  1 11  1  0  0  0  0
  1 12  1  0  0  0  0
  2 12  1  0  0  0  0
  2 30  1  6  0  0  0
  4  3  1  6  0  0  0
  4  7  1  0  0  0  0
  4  1  1  0  0  0  0
  5  9  1  0  0  0  0
  6 10  1  0  0  0  0
  6  3  2  0  0  0  0
  7  8  1  6  0  0  0
  7  2  1  0  0  0  0
 10  8  2  0  0  0  0
 11 22  1  6  0  0  0
 11 13  1  0  0  0  0
 12  5  2  0  0  0  0
 13  5  1  0  0  0  0
 14 16  1  0  0  0  0
 16 19  1  0  0  0  0
 16 20  2  0  0  0  0
 17 15  1  1  0  0  0
 17 14  1  0  0  0  0
 17 21  1  0  0  0  0
 18 20  1  0  0  0  0
 19  6  1  1  0  0  0
 21 19  1  0  0  0  0
 22 23  1  0  0  0  0
 23 29  1  0  0  0  0
 24 26  1  0  0  0  0
 25 26  1  0  0  0  0
 25 29  1  0  0  0  0
 27 24  2  0  0  0  0
 27 28  1  0  0  0  0
 28 25  2  0  0  0  0
 30 31  1  0  0  0  0
 31 32  1  0  0  0  0
M  END
>  <MODEL>
3

>  <REMARK>
 VINA RESULT:      -9.0      1.642      2.125
  Name = 
  6 active torsions:
  status: ('A' for Active; 'I' for Inactive)
    1  A    between atoms: C_2  and  C_17
    2  A    between atoms: N_7  and  C_17
    3  A    between atoms: C_9  and  C_27
    4  A    between atoms: C_9  and  C_30
    5  A    between atoms: C_15  and  C_19
    6  A    between atoms: N_28  and  C_30
                            x       y       z     vdW  Elec       q    Type
                         _______ _______ _______ _____ _____    ______ ____

>  <TORSDO>
F 6

$$$$
=
 OpenBabel10232408173D

 32 36  0  0  1  0  0  0  0  0999 V2000
  187.5010  178.0420  142.2270 N   0  0  0  0  0  0  0  0  0  0  0  0
  186.4180  177.9920  144.3170 C   0  0  2  0  0  3  0  0  0  0  0  0
  185.4290  178.3970  141.0330 N   0  0  0  0  0  0  0  0  0  0  0  0
  186.2900  178.8460  142.1310 C   0  0  1  0  0  3  0  0  0  0  0  0
  188.8490  177.4340  144.0030 C   0  0  0  0  0  0  0  0  0  0  0  0
  184.1260  178.3720  141.1280 C   0  0  0  0  0  0  0  0  0  0  0  0
  185.6150  178.6110  143.4550 C   0  0  1  0  0  3  0  0  0  0  0  0
  184.1590  178.7270  143.5600 C   0  0  0  0  0  3  0  0  0  0  0  0
  189.2280  177.3610  145.4420 C   0  0  0  0  0  1  0  0  0  0  0  0
  183.4520  178.6360  142.4300 C   0  0  0  0  0  3  0  0  0  0  0  0
  188.7790  178.3270  141.5970 C   0  0  1  0  0  3  0  0  0  0  0  0
  187.6230  177.6650  143.5740 C   0  0  0  0  0  0  0  0  0  0  0  0
  190.0690  177.6190  142.7020 S   0  0  0  0  0  0  0  0  0  0  0  0
  181.2490  178.8700  139.4080 O   0  0  0  0  0  0  0  0  0  0  0  0
  180.1630  177.5980  141.1260 C   0  0  0  0  0  1  0  0  0  0  0  0
  182.5820  179.1420  139.3800 C   0  0  0  0  0  0  0  0  0  0  0  0
  181.0710  177.5620  139.9120 C   0  0  2  0  0  3  0  0  0  0  0  0
  182.3150  181.2500  138.4210 F   0  0  0  0  0  0  0  0  0  0  0  0
  183.3210  177.9930  139.9230 C   0  0  2  0  0  3  0  0  0  0  0  0
  183.1100  180.2650  138.9080 C   0  0  0  0  0  3  0  0  0  0  0  0
  182.3410  177.0320  140.2760 O   0  0  0  0  0  0  0  0  0  0  0  0
  188.8600  177.6500  140.2400 C   0  0  0  0  0  2  0  0  0  0  0  0
  190.1660  176.8870  140.1100 C   0  0  0  0  0  2  0  0  0  0  0  0
  193.2980  176.0560  136.6410 C   0  0  0  0  0  3  0  0  0  0  0  0
  191.6050  176.3550  138.0980 C   0  0  0  0  0  0  0  0  0  0  0  0
  191.8200  175.8570  136.7150 C   0  0  0  0  0  2  0  0  0  0  0  0
  193.7480  176.5510  137.7470 N   0  0  0  0  0  0  0  0  0  0  0  0
  192.7020  176.7390  138.6520 N   0  0  0  0  0  0  0  0  0  0  0  0
  190.3320  176.4120  138.7440 N   0  0  0  0  0  2  0  0  0  0  0  0
  186.0210  177.4250  145.6450 C   0  0  0  0  0  2  0  0  0  0  0  0
  186.1220  178.4410  146.6810 N   0  0  0  0  0  2  0  0  0  0  0  0
  184.8580  178.7840  147.0260 O   0  0  0  0  0  1  0  0  0  0  0  0
  1 12  1  0  0  0  0
  2 30  1  6  0  0  0
  3  6  2  0  0  0  0
  4  3  1  6  0  0  0
  4  1  1  0  0  0  0
  4  7  1  0  0  0  0
  5  9  1  0  0  0  0
  6 10  1  0  0  0  0
  7  8  1  6  0  0  0
  7  2  1  0  0  0  0
 10  8  2  0  0  0  0
 11 22  1  6  0  0  0
 11  1  1  0  0  0  0
 11 13  1  0  0  0  0
 12  5  2  0  0  0  0
 12  2  1  0  0  0  0
 13  5  1  0  0  0  0
 14 17  1  0  0  0  0
 16 14  1  0  0  0  0
 16 19  1  0  0  0  0
 17 21  1  0  0  0  0
 17 15  1  1  0  0  0
 18 20  1  0  0  0  0
 19 21  1  0  0  0  0
 19  6  1  1  0  0  0
 20 16  2  0  0  0  0
 23 22  1  0  0  0  0
 24 26  1  0  0  0  0
 24 27  2  0  0  0  0
 25 28  2  0  0  0  0
 25 29  1  0  0  0  0
 26 25  1  0  0  0  0
 27 28  1  0  0  0  0
 29 23  1  0  0  0  0
 30 31  1  0  0  0  0
 31 32  1  0  0  0  0
M  END
>  <MODEL>
4

>  <REMARK>
 VINA RESULT:      -8.7      3.550      6.973
  Name = 
  6 active torsions:
  status: ('A' for Active; 'I' for Inactive)
    1  A    between atoms: C_2  and  C_17
    2  A    between atoms: N_7  and  C_17
    3  A    between atoms: C_9  and  C_27
    4  A    between atoms: C_9  and  C_30
    5  A    between atoms: C_15  and  C_19
    6  A    between atoms: N_28  and  C_30
                            x       y       z     vdW  Elec       q    Type
                         _______ _______ _______ _____ _____    ______ ____

>  <TORSDO>
F 6

$$$$
=
 OpenBabel10232408173D

 32 36  0  0  1  0  0  0  0  0999 V2000
  186.4480  178.3700  142.1650 N   0  0  0  0  0  0  0  0  0  0  0  0
  185.9240  178.1660  144.4520 C   0  0  2  0  0  3  0  0  0  0  0  0
  184.1470  178.8000  141.5590 N   0  0  0  0  0  0  0  0  0  0  0  0
  185.2630  179.1730  142.4340 C   0  0  1  0  0  3  0  0  0  0  0  0
  188.1910  177.6430  143.4970 C   0  0  0  0  0  0  0  0  0  0  0  0
  182.9100  178.7620  141.9780 C   0  0  0  0  0  0  0  0  0  0  0  0
  184.9390  178.8420  143.8650 C   0  0  1  0  0  3  0  0  0  0  0  0
  183.5580  178.9430  144.3410 C   0  0  0  0  0  3  0  0  0  0  0  0
  188.9190  177.4700  144.7860 C   0  0  0  0  0  1  0  0  0  0  0  0
  182.5880  178.9290  143.4230 C   0  0  0  0  0  3  0  0  0  0  0  0
  187.5300  178.7050  141.2550 C   0  0  1  0  0  3  0  0  0  0  0  0
  186.9000  177.8980  143.4080 C   0  0  0  0  0  0  0  0  0  0  0  0
  189.0460  177.9270  141.9470 S   0  0  0  0  0  0  0  0  0  0  0  0
  182.1060  178.4570  138.6990 O   0  0  0  0  0  0  0  0  0  0  0  0
  182.2100  180.8500  138.5940 C   0  0  0  0  0  1  0  0  0  0  0  0
  182.3320  177.7280  139.8260 C   0  0  0  0  0  0  0  0  0  0  0  0
  181.4250  179.6400  139.0640 C   0  0  2  0  0  3  0  0  0  0  0  0
  183.3190  175.9460  138.6910 F   0  0  0  0  0  0  0  0  0  0  0  0
  181.8220  178.4670  140.9900 C   0  0  2  0  0  3  0  0  0  0  0  0
  182.9010  176.5280  139.8430 C   0  0  0  0  0  3  0  0  0  0  0  0
  181.2880  179.6760  140.4800 O   0  0  0  0  0  0  0  0  0  0  0  0
  187.2580  178.1280  139.8780 C   0  0  0  0  0  2  0  0  0  0  0  0
  188.5650  177.8280  139.1660 C   0  0  0  0  0  2  0  0  0  0  0  0
  190.4940  174.0190  137.0910 C   0  0  0  0  0  3  0  0  0  0  0  0
  189.3450  175.7810  137.8990 C   0  0  0  0  0  0  0  0  0  0  0  0
  189.1700  174.6860  136.9110 C   0  0  0  0  0  2  0  0  0  0  0  0
  191.2000  174.6380  137.9790 N   0  0  0  0  0  0  0  0  0  0  0  0
  190.4920  175.7310  138.4820 N   0  0  0  0  0  0  0  0  0  0  0  0
  188.3640  176.7830  138.1730 N   0  0  0  0  0  2  0  0  0  0  0  0
  185.8660  177.5030  145.7930 C   0  0  0  0  0  2  0  0  0  0  0  0
  186.4370  178.3710  146.8120 N   0  0  0  0  0  2  0  0  0  0  0  0
  185.4740  179.2560  147.1650 O   0  0  0  0  0  1  0  0  0  0  0  0
  1  4  1  0  0  0  0
  1 12  1  0  0  0  0
  2 30  1  6  0  0  0
  3  6  2  0  0  0  0
  4  3  1  6  0  0  0
  4  7  1  0  0  0  0
  5  9  1  0  0  0  0
  6 10  1  0  0  0  0
  7  8  1  6  0  0  0
  7  2  1  0  0  0  0
 10  8  2  0  0  0  0
 11 22  1  6  0  0  0
 11 13  1  0  0  0  0
 11  1  1  0  0  0  0
 12  5  2  0  0  0  0
 12  2  1  0  0  0  0
 13  5  1  0  0  0  0
 14 17  1  0  0  0  0
 14 16  1  0  0  0  0
 16 20  2  0  0  0  0
 16 19  1  0  0  0  0
 17 15  1  1  0  0  0
 17 21  1  0  0  0  0
 18 20  1  0  0  0  0
 19  6  1  1  0  0  0
 21 19  1  0  0  0  0
 23 22  1  0  0  0  0
 24 27  2  0  0  0  0
 25 29  1  0  0  0  0
 25 28  2  0  0  0  0
 26 24  1  0  0  0  0
 26 25  1  0  0  0  0
 27 28  1  0  0  0  0
 29 23  1  0  0  0  0
 30 31  1  0  0  0  0
 31 32  1  0  0  0  0
M  END
>  <MODEL>
5

>  <REMARK>
 VINA RESULT:      -8.6      3.562      6.777
  Name = 
  6 active torsions:
  status: ('A' for Active; 'I' for Inactive)
    1  A    between atoms: C_2  and  C_17
    2  A    between atoms: N_7  and  C_17
    3  A    between atoms: C_9  and  C_27
    4  A    between atoms: C_9  and  C_30
    5  A    between atoms: C_15  and  C_19
    6  A    between atoms: N_28  and  C_30
                            x       y       z     vdW  Elec       q    Type
                         _______ _______ _______ _____ _____    ______ ____

>  <TORSDO>
F 6

$$$$
=
 OpenBabel10232408173D

 32 36  0  0  1  0  0  0  0  0999 V2000
  184.9550  178.4890  142.0800 N   0  0  0  0  0  0  0  0  0  0  0  0
  184.5240  178.3640  144.3920 C   0  0  2  0  0  3  0  0  0  0  0  0
  187.3250  178.1200  142.3870 N   0  0  0  0  0  0  0  0  0  0  0  0
  185.9720  177.6420  142.6880 C   0  0  1  0  0  3  0  0  0  0  0  0
  182.7970  179.0430  142.6940 C   0  0  0  0  0  0  0  0  0  0  0  0
  188.2930  178.0850  143.2630 C   0  0  0  0  0  0  0  0  0  0  0  0
  185.6890  177.7660  144.1600 C   0  0  1  0  0  3  0  0  0  0  0  0
  186.7740  177.5820  145.1280 C   0  0  0  0  0  3  0  0  0  0  0  0
  181.6130  179.0430  143.5990 C   0  0  0  0  0  1  0  0  0  0  0  0
  188.0260  177.7130  144.6810 C   0  0  0  0  0  3  0  0  0  0  0  0
  184.3360  178.2970  140.7790 C   0  0  1  0  0  3  0  0  0  0  0  0
  184.0290  178.7870  143.0920 C   0  0  0  0  0  0  0  0  0  0  0  0
  182.6370  178.9900  140.9100 S   0  0  0  0  0  0  0  0  0  0  0  0
  191.4510  177.0580  142.5810 O   0  0  0  0  0  0  0  0  0  0  0  0
  191.7360  176.8180  144.9490 C   0  0  0  0  0  1  0  0  0  0  0  0
  190.3050  177.4880  141.9860 C   0  0  0  0  0  0  0  0  0  0  0  0
  191.6260  177.7810  143.7830 C   0  0  2  0  0  3  0  0  0  0  0  0
  190.5560  176.1250  140.1110 F   0  0  0  0  0  0  0  0  0  0  0  0
  189.6680  178.5020  142.8380 C   0  0  2  0  0  3  0  0  0  0  0  0
  189.8650  177.0610  140.8070 C   0  0  0  0  0  3  0  0  0  0  0  0
  190.5070  178.6400  143.9720 O   0  0  0  0  0  0  0  0  0  0  0  0
  185.1040  179.0590  139.7140 C   0  0  0  0  0  2  0  0  0  0  0  0
  185.5160  178.1230  138.5920 C   0  0  0  0  0  2  0  0  0  0  0  0
  189.7430  176.9520  136.7760 C   0  0  0  0  0  3  0  0  0  0  0  0
  187.8020  177.7870  137.5610 C   0  0  0  0  0  0  0  0  0  0  0  0
  189.0270  178.2600  136.8670 C   0  0  0  0  0  2  0  0  0  0  0  0
  189.0390  176.0080  137.3090 N   0  0  0  0  0  0  0  0  0  0  0  0
  187.8360  176.5210  137.7970 N   0  0  0  0  0  0  0  0  0  0  0  0
  186.7100  178.6300  137.9320 N   0  0  0  0  0  2  0  0  0  0  0  0
  184.0180  178.8320  145.7210 C   0  0  0  0  0  2  0  0  0  0  0  0
  184.9280  178.4260  146.7810 N   0  0  0  0  0  2  0  0  0  0  0  0
  185.4810  179.5560  147.2840 O   0  0  0  0  0  1  0  0  0  0  0  0
  1  4  1  0  0  0  0
  1 12  1  0  0  0  0
  2 30  1  1  0  0  0
  3  6  2  0  0  0  0
  4  3  1  1  0  0  0
  4  7  1  0  0  0  0
  5 12  2  0  0  0  0
  5  9  1  0  0  0  0
  6 10  1  0  0  0  0
  7  2  1  0  0  0  0
  7  8  1  1  0  0  0
 10  8  2  0  0  0  0
 11 22  1  6  0  0  0
 11 13  1  0  0  0  0
 11  1  1  0  0  0  0
 12  2  1  0  0  0  0
 13  5  1  0  0  0  0
 14 17  1  0  0  0  0
 16 14  1  0  0  0  0
 16 19  1  0  0  0  0
 17 21  1  0  0  0  0
 17 15  1  1  0  0  0
 18 20  1  0  0  0  0
 19  6  1  1  0  0  0
 19 21  1  0  0  0  0
 20 16  2  0  0  0  0
 23 22  1  0  0  0  0
 24 26  1  0  0  0  0
 24 27  2  0  0  0  0
 25 28  2  0  0  0  0
 25 29  1  0  0  0  0
 26 25  1  0  0  0  0
 27 28  1  0  0  0  0
 29 23  1  0  0  0  0
 30 31  1  0  0  0  0
 31 32  1  0  0  0  0
M  END
>  <MODEL>
6

>  <REMARK>
 VINA RESULT:      -8.3      2.986      5.312
  Name = 
  6 active torsions:
  status: ('A' for Active; 'I' for Inactive)
    1  A    between atoms: C_2  and  C_17
    2  A    between atoms: N_7  and  C_17
    3  A    between atoms: C_9  and  C_27
    4  A    between atoms: C_9  and  C_30
    5  A    between atoms: C_15  and  C_19
    6  A    between atoms: N_28  and  C_30
                            x       y       z     vdW  Elec       q    Type
                         _______ _______ _______ _____ _____    ______ ____

>  <TORSDO>
F 6

$$$$
=
 OpenBabel10232408173D

 32 36  0  0  1  0  0  0  0  0999 V2000
  187.8610  177.9330  141.8350 N   0  0  0  0  0  0  0  0  0  0  0  0
  186.4710  178.0630  143.7310 C   0  0  2  0  0  3  0  0  0  0  0  0
  186.0640  178.5390  140.3350 N   0  0  0  0  0  0  0  0  0  0  0  0
  186.7980  178.8890  141.5550 C   0  0  1  0  0  3  0  0  0  0  0  0
  188.8250  177.1830  143.7970 C   0  0  0  0  0  0  0  0  0  0  0  0
  184.7700  178.6890  140.2270 C   0  0  0  0  0  0  0  0  0  0  0  0
  185.9010  178.7690  142.7570 C   0  0  1  0  0  3  0  0  0  0  0  0
  184.4740  179.0780  142.6350 C   0  0  0  0  0  3  0  0  0  0  0  0
  188.9640  177.0850  145.2770 C   0  0  0  0  0  1  0  0  0  0  0  0
  183.9440  179.0620  141.4090 C   0  0  0  0  0  3  0  0  0  0  0  0
  189.2470  178.0360  141.4120 C   0  0  1  0  0  3  0  0  0  0  0  0
  187.7220  177.5670  143.1830 C   0  0  0  0  0  0  0  0  0  0  0  0
  190.2440  177.1830  142.7020 S   0  0  0  0  0  0  0  0  0  0  0  0
  184.1490  176.3430  137.8600 O   0  0  0  0  0  0  0  0  0  0  0  0
  186.4450  176.5880  137.2120 C   0  0  0  0  0  1  0  0  0  0  0  0
  183.5570  177.0410  138.8670 C   0  0  0  0  0  0  0  0  0  0  0  0
  185.0570  177.2000  137.1980 C   0  0  2  0  0  3  0  0  0  0  0  0
  182.1640  175.2850  139.5080 F   0  0  0  0  0  0  0  0  0  0  0  0
  184.1180  178.3990  138.9090 C   0  0  2  0  0  3  0  0  0  0  0  0
  182.6060  176.5580  139.6580 C   0  0  0  0  0  3  0  0  0  0  0  0
  185.0790  178.4560  137.8680 O   0  0  0  0  0  0  0  0  0  0  0  0
  189.4460  177.3310  140.0820 C   0  0  0  0  0  2  0  0  0  0  0  0
  190.8460  176.7510  139.9980 C   0  0  0  0  0  2  0  0  0  0  0  0
  193.6050  175.5760  136.3180 C   0  0  0  0  0  3  0  0  0  0  0  0
  192.1020  175.9350  137.9590 C   0  0  0  0  0  0  0  0  0  0  0  0
  192.2710  175.0710  136.7630 C   0  0  0  0  0  2  0  0  0  0  0  0
  194.0300  176.5040  137.1120 N   0  0  0  0  0  0  0  0  0  0  0  0
  193.1020  176.7290  138.1300 N   0  0  0  0  0  0  0  0  0  0  0  0
  190.9640  175.9020  138.8220 N   0  0  0  0  0  2  0  0  0  0  0  0
  185.8010  177.5760  144.9790 C   0  0  0  0  0  2  0  0  0  0  0  0
  185.7230  178.6450  145.9630 N   0  0  0  0  0  2  0  0  0  0  0  0
  184.4350  178.7090  146.3780 O   0  0  0  0  0  1  0  0  0  0  0  0
  1 12  1  0  0  0  0
  2 30  1  6  0  0  0
  4  3  1  6  0  0  0
  4  1  1  0  0  0  0
  4  7  1  0  0  0  0
  5  9  1  0  0  0  0
  6  3  2  0  0  0  0
  6 10  1  0  0  0  0
  7  8  1  6  0  0  0
  7  2  1  0  0  0  0
 10  8  2  0  0  0  0
 11 22  1  6  0  0  0
 11  1  1  0  0  0  0
 11 13  1  0  0  0  0
 12  2  1  0  0  0  0
 12  5  2  0  0  0  0
 13  5  1  0  0  0  0
 14 16  1  0  0  0  0
 16 19  1  0  0  0  0
 16 20  2  0  0  0  0
 17 15  1  1  0  0  0
 17 14  1  0  0  0  0
 17 21  1  0  0  0  0
 18 20  1  0  0  0  0
 19  6  1  1  0  0  0
 21 19  1  0  0  0  0
 23 22  1  0  0  0  0
 24 26  1  0  0  0  0
 24 27  2  0  0  0  0
 25 28  2  0  0  0  0
 25 29  1  0  0  0  0
 26 25  1  0  0  0  0
 27 28  1  0  0  0  0
 29 23  1  0  0  0  0
 30 31  1  0  0  0  0
 31 32  1  0  0  0  0
M  END
>  <MODEL>
7

>  <REMARK>
 VINA RESULT:      -8.3      3.301      6.508
  Name = 
  6 active torsions:
  status: ('A' for Active; 'I' for Inactive)
    1  A    between atoms: C_2  and  C_17
    2  A    between atoms: N_7  and  C_17
    3  A    between atoms: C_9  and  C_27
    4  A    between atoms: C_9  and  C_30
    5  A    between atoms: C_15  and  C_19
    6  A    between atoms: N_28  and  C_30
                            x       y       z     vdW  Elec       q    Type
                         _______ _______ _______ _____ _____    ______ ____

>  <TORSDO>
F 6

$$$$
=
 OpenBabel10232408173D

 32 36  0  0  1  0  0  0  0  0999 V2000
  187.2970  178.1210  142.2170 N   0  0  0  0  0  0  0  0  0  0  0  0
  185.3660  178.5660  143.4890 C   0  0  2  0  0  3  0  0  0  0  0  0
  188.6540  177.7720  144.1880 N   0  0  0  0  0  0  0  0  0  0  0  0
  187.4160  177.4160  143.4860 C   0  0  1  0  0  3  0  0  0  0  0  0
  185.4820  178.8650  140.9950 C   0  0  0  0  0  0  0  0  0  0  0  0
  188.7070  177.9200  145.4850 C   0  0  0  0  0  0  0  0  0  0  0  0
  186.2190  177.8970  144.2610 C   0  0  1  0  0  3  0  0  0  0  0  0
  186.2610  177.9220  145.7240 C   0  0  0  0  0  3  0  0  0  0  0  0
  184.0330  179.1140  140.7530 C   0  0  0  0  0  1  0  0  0  0  0  0
  187.4640  177.9070  146.3060 C   0  0  0  0  0  3  0  0  0  0  0  0
  187.7370  177.6400  140.9180 C   0  0  1  0  0  3  0  0  0  0  0  0
  186.0090  178.6780  142.1900 C   0  0  0  0  0  0  0  0  0  0  0  0
  186.6030  178.3900  139.6790 S   0  0  0  0  0  0  0  0  0  0  0  0
  191.9080  176.8660  145.8480 O   0  0  0  0  0  0  0  0  0  0  0  0
  191.0320  175.1370  147.2590 C   0  0  0  0  0  1  0  0  0  0  0  0
  191.1490  177.8200  145.2420 C   0  0  0  0  0  0  0  0  0  0  0  0
  191.3640  176.6110  147.1270 C   0  0  2  0  0  3  0  0  0  0  0  0
  192.4840  177.9230  143.3330 F   0  0  0  0  0  0  0  0  0  0  0  0
  190.0340  178.1860  146.1270 C   0  0  2  0  0  3  0  0  0  0  0  0
  191.4100  178.3410  144.0480 C   0  0  0  0  0  3  0  0  0  0  0  0
  190.1810  177.3860  147.2880 O   0  0  0  0  0  0  0  0  0  0  0  0
  189.1560  178.1030  140.6390 C   0  0  0  0  0  2  0  0  0  0  0  0
  190.1280  176.9490  140.8070 C   0  0  0  0  0  2  0  0  0  0  0  0
  192.3010  175.3550  136.8990 C   0  0  0  0  0  3  0  0  0  0  0  0
  191.4910  176.3080  138.7740 C   0  0  0  0  0  0  0  0  0  0  0  0
  192.6310  176.4700  137.8370 C   0  0  0  0  0  2  0  0  0  0  0  0
  191.2230  174.7470  137.2740 N   0  0  0  0  0  0  0  0  0  0  0  0
  190.7180  175.3340  138.4360 N   0  0  0  0  0  0  0  0  0  0  0  0
  191.2710  177.1260  139.9240 N   0  0  0  0  0  2  0  0  0  0  0  0
  184.1800  179.3520  143.9550 C   0  0  0  0  0  2  0  0  0  0  0  0
  183.0520  178.4680  144.2030 N   0  0  0  0  0  2  0  0  0  0  0  0
  181.9660  179.0380  143.6280 O   0  0  0  0  0  1  0  0  0  0  0  0
  1  4  1  0  0  0  0
  2 30  1  1  0  0  0
  2  7  1  0  0  0  0
  3  6  2  0  0  0  0
  4  3  1  1  0  0  0
  4  7  1  0  0  0  0
  5 12  2  0  0  0  0
  6 10  1  0  0  0  0
  7  8  1  1  0  0  0
  8 10  2  0  0  0  0
  9  5  1  0  0  0  0
 11 22  1  6  0  0  0
 11  1  1  0  0  0  0
 12  1  1  0  0  0  0
 12  2  1  0  0  0  0
 13 11  1  0  0  0  0
 13  5  1  0  0  0  0
 14 17  1  0  0  0  0
 16 14  1  0  0  0  0
 16 19  1  0  0  0  0
 17 15  1  6  0  0  0
 17 21  1  0  0  0  0
 18 20  1  0  0  0  0
 19  6  1  6  0  0  0
 19 21  1  0  0  0  0
 20 16  2  0  0  0  0
 22 23  1  0  0  0  0
 24 27  2  0  0  0  0
 24 26  1  0  0  0  0
 25 29  1  0  0  0  0
 26 25  1  0  0  0  0
 27 28  1  0  0  0  0
 28 25  2  0  0  0  0
 29 23  1  0  0  0  0
 30 31  1  0  0  0  0
 32 31  1  0  0  0  0
M  END
>  <MODEL>
8

>  <REMARK>
 VINA RESULT:      -8.1      3.049      6.939
  Name = 
  6 active torsions:
  status: ('A' for Active; 'I' for Inactive)
    1  A    between atoms: C_2  and  C_17
    2  A    between atoms: N_7  and  C_17
    3  A    between atoms: C_9  and  C_27
    4  A    between atoms: C_9  and  C_30
    5  A    between atoms: C_15  and  C_19
    6  A    between atoms: N_28  and  C_30
                            x       y       z     vdW  Elec       q    Type
                         _______ _______ _______ _____ _____    ______ ____

>  <TORSDO>
F 6

$$$$
=
 OpenBabel10232408173D

 32 36  0  0  1  0  0  0  0  0999 V2000
  187.9200  177.7240  138.5580 N   0  0  0  0  0  0  0  0  0  0  0  0
  190.2000  177.1630  138.3800 C   0  0  2  0  0  3  0  0  0  0  0  0
  187.9570  177.5830  140.9720 N   0  0  0  0  0  0  0  0  0  0  0  0
  188.5910  178.1520  139.7790 C   0  0  1  0  0  3  0  0  0  0  0  0
  188.6620  177.3600  136.4000 C   0  0  0  0  0  0  0  0  0  0  0  0
  188.6450  177.1750  142.0050 C   0  0  0  0  0  0  0  0  0  0  0  0
  189.9840  177.6060  139.6160 C   0  0  1  0  0  3  0  0  0  0  0  0
  190.7840  177.2870  140.8000 C   0  0  0  0  0  3  0  0  0  0  0  0
  189.6950  177.2610  135.3300 C   0  0  0  0  0  1  0  0  0  0  0  0
  190.1320  177.1060  141.9520 C   0  0  0  0  0  3  0  0  0  0  0  0
  186.8480  178.4250  137.8720 C   0  0  1  0  0  3  0  0  0  0  0  0
  188.9250  177.2700  137.6900 C   0  0  0  0  0  0  0  0  0  0  0  0
  187.0220  178.0140  136.0880 S   0  0  0  0  0  0  0  0  0  0  0  0
  187.3810  178.0300  145.0320 O   0  0  0  0  0  0  0  0  0  0  0  0
  189.6450  178.0430  145.8200 C   0  0  0  0  0  1  0  0  0  0  0  0
  187.0140  177.7360  143.7540 C   0  0  0  0  0  0  0  0  0  0  0  0
  188.4640  177.1950  145.3870 C   0  0  2  0  0  3  0  0  0  0  0  0
  185.2290  179.2350  143.7310 F   0  0  0  0  0  0  0  0  0  0  0  0
  187.9090  176.6990  143.2210 C   0  0  2  0  0  3  0  0  0  0  0  0
  185.9890  178.2930  143.1200 C   0  0  0  0  0  3  0  0  0  0  0  0
  188.8260  176.4050  144.2600 O   0  0  0  0  0  0  0  0  0  0  0  0
  185.4980  177.9340  138.3670 C   0  0  0  0  0  2  0  0  0  0  0  0
  184.9700  178.8550  139.4520 C   0  0  0  0  0  2  0  0  0  0  0  0
  180.6670  180.8130  139.0190 C   0  0  0  0  0  3  0  0  0  0  0  0
  182.8060  180.1020  139.0490 C   0  0  0  0  0  0  0  0  0  0  0  0
  182.0010  181.2110  138.4770 C   0  0  0  0  0  2  0  0  0  0  0  0
  180.7640  179.7290  139.7190 N   0  0  0  0  0  0  0  0  0  0  0  0
  182.0870  179.2860  139.7390 N   0  0  0  0  0  0  0  0  0  0  0  0
  184.2120  179.9450  138.8560 N   0  0  0  0  0  2  0  0  0  0  0  0
  191.3890  176.3790  137.9160 C   0  0  0  0  0  2  0  0  0  0  0  0
  191.1580  174.9540  138.0960 N   0  0  0  0  0  2  0  0  0  0  0  0
  191.4500  174.3520  136.9180 O   0  0  0  0  0  1  0  0  0  0  0  0
  1  4  1  0  0  0  0
  2 30  1  1  0  0  0
  2  7  1  0  0  0  0
  3  6  2  0  0  0  0
  4  3  1  1  0  0  0
  5 12  2  0  0  0  0
  7  4  1  0  0  0  0
  7  8  1  1  0  0  0
  8 10  2  0  0  0  0
  9  5  1  0  0  0  0
 10  6  1  0  0  0  0
 11 22  1  1  0  0  0
 11  1  1  0  0  0  0
 12  2  1  0  0  0  0
 12  1  1  0  0  0  0
 13  5  1  0  0  0  0
 13 11  1  0  0  0  0
 14 17  1  0  0  0  0
 16 14  1  0  0  0  0
 17 15  1  6  0  0  0
 19  6  1  6  0  0  0
 19 16  1  0  0  0  0
 19 21  1  0  0  0  0
 20 18  1  0  0  0  0
 20 16  2  0  0  0  0
 21 17  1  0  0  0  0
 22 23  1  0  0  0  0
 24 27  2  0  0  0  0
 25 28  2  0  0  0  0
 26 24  1  0  0  0  0
 26 25  1  0  0  0  0
 27 28  1  0  0  0  0
 29 25  1  0  0  0  0
 29 23  1  0  0  0  0
 30 31  1  0  0  0  0
 32 31  1  0  0  0  0
M  END
>  <MODEL>
9

>  <REMARK>
 VINA RESULT:      -8.0      3.231      6.361
  Name = 
  6 active torsions:
  status: ('A' for Active; 'I' for Inactive)
    1  A    between atoms: C_2  and  C_17
    2  A    between atoms: N_7  and  C_17
    3  A    between atoms: C_9  and  C_27
    4  A    between atoms: C_9  and  C_30
    5  A    between atoms: C_15  and  C_19
    6  A    between atoms: N_28  and  C_30
                            x       y       z     vdW  Elec       q    Type
                         _______ _______ _______ _____ _____    ______ ____

>  <TORSDO>
F 6

$$$$
