=
 OpenBabel10222422053D

 44 51  0  0  1  0  0  0  0  0999 V2000
  188.5660  174.8650  135.8700 C   0  0  0  0  0  0  0  0  0  0  0  0
  185.3000  178.3540  144.2240 C   0  0  0  0  0  0  0  0  0  0  0  0
  185.4930  178.5130  141.8170 C   0  0  0  0  0  3  0  0  0  0  0  0
  187.3450  175.4910  135.9490 C   0  0  0  0  0  3  0  0  0  0  0  0
  186.0910  178.2620  143.0550 C   0  0  0  0  0  0  0  0  0  0  0  0
  184.3460  179.8110  139.4770 N   0  0  0  0  0  2  0  0  0  0  0  0
  184.2310  178.3390  139.3000 C   0  0  2  0  0  0  0  0  0  0  0  0
  185.0580  177.0340  137.4160 C   0  0  1  0  0  3  0  0  0  0  0  0
  183.9510  178.7260  144.1090 C   0  0  0  0  0  3  0  0  0  0  0  0
  189.8740  176.6530  140.7180 N   0  0  0  0  0  2  0  0  0  0  0  0
  190.2170  176.5240  139.3540 C   0  0  0  0  0  0  0  0  0  0  0  0
  186.4680  177.3870  137.2100 N   0  0  0  0  0  2  0  0  0  0  0  0
  183.3710  178.9690  142.8590 C   0  0  0  0  0  3  0  0  0  0  0  0
  187.4580  176.4380  136.8980 N   0  0  0  0  0  0  0  0  0  0  0  0
  189.3920  177.3030  138.3730 C   0  0  2  0  0  3  0  0  0  0  0  0
  191.1720  175.7900  138.9900 O   0  0  0  0  0  0  0  0  0  0  0  0
  188.9000  173.7610  134.9310 C   0  0  0  0  0  1  0  0  0  0  0  0
  184.1390  178.8530  141.6980 C   0  0  0  0  0  0  0  0  0  0  0  0
  183.1280  177.9120  138.5100 O   0  0  0  0  0  0  0  0  0  0  0  0
  183.4880  179.0630  140.3590 C   0  0  1  0  0  3  0  0  0  0  0  0
  188.8720  177.6310  140.8820 C   0  0  0  0  0  0  0  0  0  0  0  0
  187.5240  177.8970  143.1020 C   0  0  0  0  0  3  0  0  0  0  0  0
  188.2270  177.7550  142.0100 C   0  0  0  0  0  0  0  0  0  0  0  0
  189.4390  175.4160  136.7320 N   0  0  0  0  0  0  0  0  0  0  0  0
  188.2470  178.3480  139.3660 S   0  0  0  0  0  0  0  0  0  0  0  0
  184.2550  178.2680  137.8030 C   0  0  1  0  0  3  0  0  0  0  0  0
  188.7310  176.3780  137.3650 C   0  0  0  0  0  0  0  0  0  0  0  0
  187.0760  177.2060  145.7610 C   0  0  0  0  0  1  0  0  0  0  0  0
  185.8680  178.1110  145.5920 C   0  0  0  0  0  0  0  0  0  0  0  0
  185.8040  179.2740  146.5440 C   0  0  0  0  0  2  0  0  0  0  0  0
  184.8910  178.0830  146.7330 C   0  0  0  0  0  2  0  0  0  0  0  0
  184.4530  176.2260  136.2620 C   0  0  2  0  0  3  0  0  0  0  0  0
  184.4300  174.0690  137.5330 C   0  0  0  0  0  2  0  0  0  0  0  0
  184.8290  172.5950  137.5360 C   0  0  0  0  0  2  0  0  0  0  0  0
  184.2490  171.9010  136.3380 C   0  0  0  0  0  0  0  0  0  0  0  0
  183.9530  170.6410  136.4150 N   0  0  0  0  0  2  0  0  0  0  0  0
  185.7620  172.3450  134.5600 O   0  0  0  0  0  1  0  0  0  0  0  0
  184.4440  172.5260  134.9870 C   0  0  2  0  0  3  0  0  0  0  0  0
  184.1100  174.0110  135.0270 C   0  0  0  0  0  2  0  0  0  0  0  0
  184.7950  174.7350  136.2000 C   0  0  1  0  0  3  0  0  0  0  0  0
  184.4640  176.9910  134.9580 C   0  0  0  0  0  0  0  0  0  0  0  0
  185.5490  177.1830  134.3470 O   0  0  0  0  0  0  0  0  0  0  0  0
  182.0180  177.2860  135.0010 C   0  0  0  0  0  1  0  0  0  0  0  0
  183.2930  177.5470  134.4400 O   0  0  0  0  0  0  0  0  0  0  0  0
  1  4  2  0  0  0  0
  1 24  1  0  0  0  0
  2 29  1  0  0  0  0
  3  5  1  0  0  0  0
  4 14  1  0  0  0  0
  5 22  1  0  0  0  0
  5  2  2  0  0  0  0
  7 19  1  6  0  0  0
  7  6  1  0  0  0  0
  7 20  1  0  0  0  0
  8 32  1  6  0  0  0
  8 26  1  0  0  0  0
  9  2  1  0  0  0  0
 10 21  1  0  0  0  0
 11 10  1  0  0  0  0
 12  8  1  0  0  0  0
 13  9  2  0  0  0  0
 14 12  1  0  0  0  0
 14 27  1  0  0  0  0
 15 27  1  6  0  0  0
 15 11  1  0  0  0  0
 15 25  1  0  0  0  0
 16 11  2  0  0  0  0
 17  1  1  0  0  0  0
 18  3  2  0  0  0  0
 18 13  1  0  0  0  0
 20  6  1  6  0  0  0
 20 18  1  0  0  0  0
 21 23  2  0  0  0  0
 23 22  2  0  0  0  0
 24 27  2  0  0  0  0
 25 21  1  0  0  0  0
 26 19  1  1  0  0  0
 26  7  1  0  0  0  0
 29 28  1  0  0  0  0
 29 30  1  0  0  0  0
 29 31  1  0  0  0  0
 30 31  1  0  0  0  0
 32 41  1  6  0  0  0
 33 34  1  0  0  0  0
 35 36  2  0  0  0  0
 35 34  1  0  0  0  0
 38 37  1  1  0  0  0
 38 39  1  0  0  0  0
 38 35  1  0  0  0  0
 39 40  1  0  0  0  0
 40 32  1  1  0  0  0
 40 33  1  0  0  0  0
 42 41  2  0  0  0  0
 44 41  1  0  0  0  0
 44 43  1  0  0  0  0
M  END
>  <MODEL>
1

>  <REMARK>
 VINA RESULT:     -10.2      0.000      0.000
  Name = 
  5 active torsions:
  status: ('A' for Active; 'I' for Inactive)
    1  A    between atoms: C_1  and  C_38
    2  A    between atoms: C_1  and  O_43
    3  A    between atoms: C_5  and  C_12
    4  A    between atoms: C_13  and  C_38
    5  A    between atoms: C_38  and  C_42
                            x       y       z     vdW  Elec       q    Type
                         _______ _______ _______ _____ _____    ______ ____

>  <TORSDO>
F 5

$$$$
=
 OpenBabel10222422053D

 44 51  0  0  1  0  0  0  0  0999 V2000
  189.3330  175.3150  135.7880 C   0  0  0  0  0  0  0  0  0  0  0  0
  186.6090  177.9200  144.6430 C   0  0  0  0  0  0  0  0  0  0  0  0
  186.5120  178.2250  142.2440 C   0  0  0  0  0  3  0  0  0  0  0  0
  188.0600  175.7710  136.0340 C   0  0  0  0  0  3  0  0  0  0  0  0
  187.2700  177.9910  143.3950 C   0  0  0  0  0  0  0  0  0  0  0  0
  184.9610  179.4810  140.1250 N   0  0  0  0  0  2  0  0  0  0  0  0
  185.0100  178.0170  139.8660 C   0  0  2  0  0  0  0  0  0  0  0  0
  185.7770  176.9280  137.8270 C   0  0  1  0  0  3  0  0  0  0  0  0
  185.2200  178.1190  144.6930 C   0  0  0  0  0  3  0  0  0  0  0  0
  190.9400  177.0070  140.5800 N   0  0  0  0  0  2  0  0  0  0  0  0
  191.1430  176.9940  139.1810 C   0  0  0  0  0  0  0  0  0  0  0  0
  187.1010  177.4710  137.4980 N   0  0  0  0  0  2  0  0  0  0  0  0
  184.4790  178.3480  143.5290 C   0  0  0  0  0  3  0  0  0  0  0  0
  188.1590  176.6760  137.0240 N   0  0  0  0  0  0  0  0  0  0  0  0
  190.1240  177.7080  138.3440 C   0  0  2  0  0  3  0  0  0  0  0  0
  192.1340  176.4080  138.6740 O   0  0  0  0  0  0  0  0  0  0  0  0
  189.6940  174.3130  134.7500 C   0  0  0  0  0  1  0  0  0  0  0  0
  185.1220  178.3920  142.2880 C   0  0  0  0  0  0  0  0  0  0  0  0
  183.8870  177.4910  139.1680 O   0  0  0  0  0  0  0  0  0  0  0  0
  184.3050  178.5840  141.0410 C   0  0  1  0  0  3  0  0  0  0  0  0
  189.8500  177.8370  140.9100 C   0  0  0  0  0  0  0  0  0  0  0  0
  188.7340  177.8120  143.2690 C   0  0  0  0  0  3  0  0  0  0  0  0
  189.3240  177.8190  142.1030 C   0  0  0  0  0  0  0  0  0  0  0  0
  190.2210  175.9290  136.5880 N   0  0  0  0  0  0  0  0  0  0  0  0
  188.9760  178.5430  139.5160 S   0  0  0  0  0  0  0  0  0  0  0  0
  184.8750  178.0270  138.3740 C   0  0  1  0  0  3  0  0  0  0  0  0
  189.4740  176.7570  137.3520 C   0  0  0  0  0  0  0  0  0  0  0  0
  188.6860  176.9590  145.9070 C   0  0  0  0  0  1  0  0  0  0  0  0
  187.3510  177.6830  145.9270 C   0  0  0  0  0  0  0  0  0  0  0  0
  187.2260  178.7650  146.9640 C   0  0  0  0  0  2  0  0  0  0  0  0
  186.5180  177.4420  147.1530 C   0  0  0  0  0  2  0  0  0  0  0  0
  185.1520  176.1080  136.6910 C   0  0  2  0  0  3  0  0  0  0  0  0
  183.5940  176.5580  134.7830 C   0  0  0  0  0  2  0  0  0  0  0  0
  182.1810  176.9600  134.3690 C   0  0  0  0  0  2  0  0  0  0  0  0
  181.1790  176.0180  134.9710 C   0  0  0  0  0  0  0  0  0  0  0  0
  180.0670  175.7880  134.3460 N   0  0  0  0  0  2  0  0  0  0  0  0
  180.8020  176.8240  137.1740 O   0  0  0  0  0  1  0  0  0  0  0  0
  181.2650  175.7290  136.4420 C   0  0  2  0  0  3  0  0  0  0  0  0
  182.6970  175.4030  136.8440 C   0  0  0  0  0  2  0  0  0  0  0  0
  183.7060  176.4340  136.3090 C   0  0  1  0  0  3  0  0  0  0  0  0
  185.5350  174.6470  136.7600 C   0  0  0  0  0  0  0  0  0  0  0  0
  186.1970  174.2120  137.7390 O   0  0  0  0  0  0  0  0  0  0  0  0
  184.4550  172.5940  135.9270 C   0  0  0  0  0  1  0  0  0  0  0  0
  185.2180  173.7700  135.7200 O   0  0  0  0  0  0  0  0  0  0  0  0
  1  4  2  0  0  0  0
  1 24  1  0  0  0  0
  2  9  1  0  0  0  0
  2 29  1  0  0  0  0
  3 18  2  0  0  0  0
  3  5  1  0  0  0  0
  4 14  1  0  0  0  0
  5  2  2  0  0  0  0
  7 19  1  6  0  0  0
  7  6  1  0  0  0  0
  7 20  1  0  0  0  0
  8 32  1  6  0  0  0
  8 26  1  0  0  0  0
 10 21  1  0  0  0  0
 11 10  1  0  0  0  0
 12  8  1  0  0  0  0
 13  9  2  0  0  0  0
 14 27  1  0  0  0  0
 14 12  1  0  0  0  0
 15 27  1  1  0  0  0
 15 11  1  0  0  0  0
 15 25  1  0  0  0  0
 16 11  2  0  0  0  0
 17  1  1  0  0  0  0
 18 13  1  0  0  0  0
 20  6  1  6  0  0  0
 20 18  1  0  0  0  0
 21 23  2  0  0  0  0
 22  5  1  0  0  0  0
 23 22  2  0  0  0  0
 24 27  2  0  0  0  0
 25 21  1  0  0  0  0
 26 19  1  1  0  0  0
 26  7  1  0  0  0  0
 28 29  1  0  0  0  0
 29 30  1  0  0  0  0
 29 31  1  0  0  0  0
 30 31  1  0  0  0  0
 32 41  1  1  0  0  0
 33 40  1  0  0  0  0
 34 33  1  0  0  0  0
 34 35  1  0  0  0  0
 35 38  1  0  0  0  0
 36 35  2  0  0  0  0
 38 39  1  0  0  0  0
 38 37  1  1  0  0  0
 40 32  1  6  0  0  0
 40 39  1  0  0  0  0
 41 42  2  0  0  0  0
 44 43  1  0  0  0  0
 44 41  1  0  0  0  0
M  END
>  <MODEL>
2

>  <REMARK>
 VINA RESULT:      -8.1      1.653      2.744
  Name = 
  5 active torsions:
  status: ('A' for Active; 'I' for Inactive)
    1  A    between atoms: C_1  and  C_38
    2  A    between atoms: C_1  and  O_43
    3  A    between atoms: C_5  and  C_12
    4  A    between atoms: C_13  and  C_38
    5  A    between atoms: C_38  and  C_42
                            x       y       z     vdW  Elec       q    Type
                         _______ _______ _______ _____ _____    ______ ____

>  <TORSDO>
F 5

$$$$
