=
 OpenBabel10232412223D

 51 59  0  0  1  0  0  0  0  0999 V2000
  189.4290  176.3500  137.1070 C   0  0  0  0  0  0  0  0  0  0  0  0
  183.5330  172.2700  137.4380 C   0  0  0  0  0  2  0  0  0  0  0  0
  185.8550  177.9390  139.7580 C   0  0  0  0  0  2  0  0  0  0  0  0
  183.4880  177.2080  139.4190 C   0  0  0  0  0  2  0  0  0  0  0  0
  190.2860  174.7570  135.4870 C   0  0  0  0  0  3  0  0  0  0  0  0
  184.4260  171.5480  136.4380 C   0  0  1  0  0  3  0  0  0  0  0  0
  182.2770  171.9280  135.4140 C   0  0  2  0  0  3  0  0  0  0  0  0
  182.1940  177.3890  138.5980 C   0  0  1  0  0  3  0  0  0  0  0  0
  190.3080  176.0340  136.0630 C   0  0  0  0  0  3  0  0  0  0  0  0
  188.2950  178.5060  136.9550 C   0  0  0  0  0  2  0  0  0  0  0  0
  189.4880  178.0160  139.0060 C   0  0  1  0  0  3  0  0  0  0  0  0
  187.0430  178.4880  139.0980 N   0  0  1  0  0  0  0  0  0  0  0  0
  182.5260  179.7840  139.2830 C   0  0  1  0  0  3  0  0  0  0  0  0
  189.3700  173.8000  135.9380 C   0  0  0  0  0  0  0  0  0  0  0  0
  182.3070  172.7660  136.6850 C   0  0  2  0  0  3  0  0  0  0  0  0
  180.4660  180.9490  138.7540 C   0  0  2  0  0  3  0  0  0  0  0  0
  188.5080  174.1120  136.9970 C   0  0  0  0  0  3  0  0  0  0  0  0
  189.3270  177.7010  137.5850 N   0  0  0  0  0  0  0  0  0  0  0  0
  183.7180  171.6060  135.0940 C   0  0  0  0  0  2  0  0  0  0  0  0
  186.7310  171.7020  135.7670 C   0  0  0  0  0  0  0  0  0  0  0  0
  188.0800  171.7950  135.3520 N   0  0  0  0  0  0  0  0  0  0  0  0
  188.5400  175.3760  137.5780 C   0  0  0  0  0  3  0  0  0  0  0  0
  184.0640  179.6970  139.3110 C   0  0  1  0  0  3  0  0  0  0  0  0
  184.5430  178.2570  139.0460 C   0  0  1  0  0  3  0  0  0  0  0  0
  185.7080  172.2290  136.3580 N   0  0  0  0  0  0  0  0  0  0  0  0
  182.4490  174.2610  136.3950 C   0  0  0  0  0  2  0  0  0  0  0  0
  181.6690  172.5940  134.3460 O   0  0  0  0  0  1  0  0  0  0  0  0
  189.2660  172.5380  135.2760 N   0  0  0  0  0  2  0  0  0  0  0  0
  188.1610  177.7620  139.7230 C   0  0  0  0  0  2  0  0  0  0  0  0
  181.9540  181.1540  139.0160 C   0  0  0  0  0  2  0  0  0  0  0  0
  181.9430  178.8610  138.2360 C   0  0  2  0  0  3  0  0  0  0  0  0
  182.2670  176.5580  137.3240 C   0  0  0  0  0  2  0  0  0  0  0  0
  180.1800  179.2590  138.1100 S   0  0  0  0  0  0  0  0  0  0  0  0
  186.9750  178.1900  137.6530 C   0  0  0  0  0  2  0  0  0  0  0  0
  187.3340  170.6380  135.0520 N   0  0  0  0  0  2  0  0  0  0  0  0
  184.6280  180.5460  138.3560 O   0  0  0  0  0  1  0  0  0  0  0  0
  182.1710  175.0750  137.6460 C   0  0  0  0  0  2  0  0  0  0  0  0
  180.7250  182.8990  137.4370 C   0  0  0  0  0  2  0  0  0  0  0  0
  179.9850  181.9190  137.8050 N   0  0  0  0  0  0  0  0  0  0  0  0
  190.6100  177.2210  139.6590 C   0  0  0  0  0  2  0  0  0  0  0  0
  190.7410  177.6020  141.1240 C   0  0  0  0  0  2  0  0  0  0  0  0
  190.5490  176.3820  142.0090 C   0  0  0  0  0  2  0  0  0  0  0  0
  188.3260  177.2400  144.5890 C   0  0  0  0  0  0  0  0  0  0  0  0
  189.4370  177.0980  145.2820 C   0  0  0  0  0  0  0  0  0  0  0  0
  190.2540  177.1390  147.5050 N   0  0  0  0  0  1  0  0  0  0  0  0
  188.0020  177.5370  147.0490 N   0  0  0  0  0  0  0  0  0  0  0  0
  188.4880  177.0190  143.2840 N   0  0  0  0  0  0  0  0  0  0  0  0
  189.8310  176.7490  143.2640 C   0  0  0  0  0  0  0  0  0  0  0  0
  187.0790  177.5650  145.6350 S   0  0  0  0  0  0  0  0  0  0  0  0
  189.2850  177.2600  146.6600 C   0  0  0  0  0  0  0  0  0  0  0  0
  190.4580  176.7730  144.4820 N   0  0  0  0  0  2  0  0  0  0  0  0
  1 22  1  0  0  0  0
  1 18  1  0  0  0  0
  5 14  2  0  0  0  0
  5  9  1  0  0  0  0
  6 19  1  6  0  0  0
  6  2  1  0  0  0  0
  7 27  1  6  0  0  0
  7 15  1  0  0  0  0
  8 32  1  6  0  0  0
  8  4  1  0  0  0  0
  9  1  2  0  0  0  0
 10 18  1  0  0  0  0
 10 34  1  0  0  0  0
 11 40  1  1  0  0  0
 11 29  1  0  0  0  0
 12 34  1  6  0  0  0
 12 29  1  0  0  0  0
 12  3  1  0  0  0  0
 13 30  1  6  0  0  0
 13 23  1  0  0  0  0
 14 17  1  0  0  0  0
 15 26  1  6  0  0  0
 15  2  1  0  0  0  0
 16 39  1  6  0  0  0
 16 30  1  0  0  0  0
 17 22  2  0  0  0  0
 18 11  1  0  0  0  0
 19  7  1  0  0  0  0
 20 25  2  0  0  0  0
 21 20  1  0  0  0  0
 23 36  1  6  0  0  0
 24 23  1  0  0  0  0
 24  4  1  1  0  0  0
 24  3  1  0  0  0  0
 25  6  1  0  0  0  0
 26 37  1  0  0  0  0
 28 21  1  0  0  0  0
 28 14  1  0  0  0  0
 31 33  1  1  0  0  0
 31  8  1  0  0  0  0
 31 13  1  0  0  0  0
 32 37  1  0  0  0  0
 33 16  1  0  0  0  0
 35 21  1  0  0  0  0
 35 20  1  0  0  0  0
 38 39  2  0  0  0  0
 40 41  1  0  0  0  0
 41 42  1  0  0  0  0
 42 48  1  0  0  0  0
 43 44  2  0  0  0  0
 43 49  1  0  0  0  0
 44 50  1  0  0  0  0
 47 43  1  0  0  0  0
 48 47  2  0  0  0  0
 48 51  1  0  0  0  0
 49 46  1  0  0  0  0
 50 46  2  0  0  0  0
 50 45  1  0  0  0  0
 51 44  1  0  0  0  0
M  END
>  <MODEL>
1

>  <REMARK>
 VINA RESULT:      -8.4      0.000      0.000
  Name = 
  5 active torsions:
  status: ('A' for Active; 'I' for Inactive)
    1  A    between atoms: C_12  and  C_35
    2  A    between atoms: C_15  and  C_35
    3  A    between atoms: C_15  and  C_36
    4  A    between atoms: C_20  and  N_51
    5  A    between atoms: C_34  and  C_36
                            x       y       z     vdW  Elec       q    Type
                         _______ _______ _______ _____ _____    ______ ____

>  <TORSDO>
F 5

$$$$
=
 OpenBabel10232412223D

 51 59  0  0  1  0  0  0  0  0999 V2000
  183.8490  178.0030  138.1380 C   0  0  0  0  0  0  0  0  0  0  0  0
  188.6760  176.1780  143.1260 C   0  0  0  0  0  2  0  0  0  0  0  0
  187.4220  175.2320  136.7660 C   0  0  0  0  0  2  0  0  0  0  0  0
  189.5980  175.1220  137.9940 C   0  0  0  0  0  2  0  0  0  0  0  0
  182.8220  179.4110  139.8280 C   0  0  0  0  0  3  0  0  0  0  0  0
  187.7440  177.1420  143.8480 C   0  0  1  0  0  3  0  0  0  0  0  0
  190.0100  177.9260  144.1050 C   0  0  2  0  0  3  0  0  0  0  0  0
  190.9700  175.7840  138.2350 C   0  0  1  0  0  3  0  0  0  0  0  0
  183.0230  179.0800  138.4820 C   0  0  0  0  0  3  0  0  0  0  0  0
  185.4280  178.3860  136.3170 C   0  0  0  0  0  2  0  0  0  0  0  0
  183.9750  176.4560  136.1430 C   0  0  1  0  0  3  0  0  0  0  0  0
  186.4460  176.1290  136.1430 N   0  0  1  0  0  0  0  0  0  0  0  0
  191.0990  175.5870  135.7340 C   0  0  1  0  0  3  0  0  0  0  0  0
  183.4660  178.6790  140.8340 C   0  0  0  0  0  0  0  0  0  0  0  0
  190.0440  176.8400  143.0380 C   0  0  2  0  0  3  0  0  0  0  0  0
  193.4010  176.0400  135.1190 C   0  0  2  0  0  3  0  0  0  0  0  0
  184.2740  177.5900  140.4860 C   0  0  0  0  0  3  0  0  0  0  0  0
  184.1940  177.7640  136.7640 N   0  0  0  0  0  0  0  0  0  0  0  0
  188.5690  178.3700  144.2010 C   0  0  0  0  0  2  0  0  0  0  0  0
  185.5980  178.1260  143.3920 C   0  0  0  0  0  0  0  0  0  0  0  0
  184.3440  178.7240  143.1260 N   0  0  0  0  0  0  0  0  0  0  0  0
  184.4620  177.2530  139.1500 C   0  0  0  0  0  3  0  0  0  0  0  0
  189.5820  175.7460  135.5140 C   0  0  1  0  0  3  0  0  0  0  0  0
  188.8320  175.8100  136.8580 C   0  0  1  0  0  3  0  0  0  0  0  0
  186.6520  177.5100  142.9630 N   0  0  0  0  0  0  0  0  0  0  0  0
  190.2530  177.4080  141.6340 C   0  0  0  0  0  2  0  0  0  0  0  0
  190.8410  179.0060  143.7980 O   0  0  0  0  0  1  0  0  0  0  0  0
  183.3570  179.0860  142.1980 N   0  0  0  0  0  2  0  0  0  0  0  0
  185.1460  175.5370  136.4990 C   0  0  0  0  0  2  0  0  0  0  0  0
  191.9740  176.0160  134.5820 C   0  0  0  0  0  2  0  0  0  0  0  0
  191.5640  176.3670  136.9430 C   0  0  2  0  0  3  0  0  0  0  0  0
  190.8380  176.8880  139.2760 C   0  0  0  0  0  2  0  0  0  0  0  0
  193.3750  176.3300  136.9270 S   0  0  0  0  0  0  0  0  0  0  0  0
  186.5810  177.4760  136.7340 C   0  0  0  0  0  2  0  0  0  0  0  0
  184.8490  178.7120  144.4410 N   0  0  0  0  0  2  0  0  0  0  0  0
  189.3040  176.9030  134.7830 O   0  0  0  0  0  1  0  0  0  0  0  0
  190.5840  176.2970  140.6530 C   0  0  0  0  0  2  0  0  0  0  0  0
  195.3320  177.3910  134.8970 C   0  0  0  0  0  2  0  0  0  0  0  0
  194.1640  177.0760  134.4720 N   0  0  0  0  0  0  0  0  0  0  0  0
  182.6540  175.8250  136.5590 C   0  0  0  0  0  2  0  0  0  0  0  0
  182.9000  174.4910  137.2440 C   0  0  0  0  0  2  0  0  0  0  0  0
  181.9610  173.4300  136.6950 C   0  0  0  0  0  2  0  0  0  0  0  0
  183.1570  170.2260  135.8970 C   0  0  0  0  0  0  0  0  0  0  0  0
  184.2450  170.9380  135.6810 C   0  0  0  0  0  0  0  0  0  0  0  0
  186.4720  170.7300  134.9000 N   0  0  0  0  0  1  0  0  0  0  0  0
  185.0660  168.8730  135.0200 N   0  0  0  0  0  0  0  0  0  0  0  0
  182.1210  170.9600  136.3050 N   0  0  0  0  0  0  0  0  0  0  0  0
  182.7140  172.1950  136.3320 C   0  0  0  0  0  0  0  0  0  0  0  0
  183.4590  168.6470  135.4870 S   0  0  0  0  0  0  0  0  0  0  0  0
  185.3280  170.2050  135.1910 C   0  0  0  0  0  0  0  0  0  0  0  0
  184.0260  172.2310  135.9390 N   0  0  0  0  0  2  0  0  0  0  0  0
  1  9  2  0  0  0  0
  1 22  1  0  0  0  0
  5 14  2  0  0  0  0
  6  2  1  6  0  0  0
  6 19  1  0  0  0  0
  7 27  1  6  0  0  0
  7 19  1  0  0  0  0
  8  4  1  6  0  0  0
  8 32  1  0  0  0  0
  9  5  1  0  0  0  0
 10 34  1  0  0  0  0
 10 18  1  0  0  0  0
 11 29  1  0  0  0  0
 11 40  1  1  0  0  0
 11 18  1  0  0  0  0
 12 29  1  1  0  0  0
 12 34  1  0  0  0  0
 12  3  1  0  0  0  0
 13 30  1  6  0  0  0
 13 31  1  0  0  0  0
 14 28  1  0  0  0  0
 15 26  1  6  0  0  0
 15  2  1  0  0  0  0
 15  7  1  0  0  0  0
 16 39  1  6  0  0  0
 16 33  1  0  0  0  0
 17 14  1  0  0  0  0
 18  1  1  0  0  0  0
 20 35  1  0  0  0  0
 21 20  1  0  0  0  0
 21 35  1  0  0  0  0
 22 17  2  0  0  0  0
 23 36  1  1  0  0  0
 23 13  1  0  0  0  0
 23 24  1  0  0  0  0
 24  3  1  6  0  0  0
 24  4  1  0  0  0  0
 25 20  2  0  0  0  0
 25  6  1  0  0  0  0
 28 21  1  0  0  0  0
 30 16  1  0  0  0  0
 31 33  1  1  0  0  0
 31  8  1  0  0  0  0
 32 37  1  0  0  0  0
 37 26  1  0  0  0  0
 39 38  2  0  0  0  0
 40 41  1  0  0  0  0
 42 41  1  0  0  0  0
 43 47  1  0  0  0  0
 44 43  2  0  0  0  0
 44 51  1  0  0  0  0
 45 50  1  0  0  0  0
 46 50  2  0  0  0  0
 46 49  1  0  0  0  0
 47 48  2  0  0  0  0
 48 42  1  0  0  0  0
 49 43  1  0  0  0  0
 50 44  1  0  0  0  0
 51 48  1  0  0  0  0
M  END
>  <MODEL>
2

>  <REMARK>
 VINA RESULT:      -6.9      3.522     10.317
  Name = 
  5 active torsions:
  status: ('A' for Active; 'I' for Inactive)
    1  A    between atoms: C_12  and  C_35
    2  A    between atoms: C_15  and  C_35
    3  A    between atoms: C_15  and  C_36
    4  A    between atoms: C_20  and  N_51
    5  A    between atoms: C_34  and  C_36
                            x       y       z     vdW  Elec       q    Type
                         _______ _______ _______ _____ _____    ______ ____

>  <TORSDO>
F 5

$$$$
=
 OpenBabel10232412223D

 51 59  0  0  1  0  0  0  0  0999 V2000
  189.0190  176.0030  137.8760 C   0  0  0  0  0  0  0  0  0  0  0  0
  182.3420  178.3910  138.9840 C   0  0  0  0  0  2  0  0  0  0  0  0
  185.6980  174.6150  134.8140 C   0  0  0  0  0  2  0  0  0  0  0  0
  183.2620  174.5890  135.3790 C   0  0  0  0  0  2  0  0  0  0  0  0
  189.6190  177.0940  139.9590 C   0  0  0  0  0  3  0  0  0  0  0  0
  183.1260  178.9160  140.1800 C   0  0  1  0  0  3  0  0  0  0  0  0
  181.2100  177.6980  140.9920 C   0  0  2  0  0  3  0  0  0  0  0  0
  182.1140  173.8280  136.0760 C   0  0  1  0  0  3  0  0  0  0  0  0
  189.8840  176.1400  138.9680 C   0  0  0  0  0  3  0  0  0  0  0  0
  188.4220  173.7220  137.2450 C   0  0  0  0  0  2  0  0  0  0  0  0
  189.3010  175.1630  135.5090 C   0  0  1  0  0  3  0  0  0  0  0  0
  187.0290  174.1760  135.2420 N   0  0  1  0  0  0  0  0  0  0  0  0
  182.9250  171.9740  134.5860 C   0  0  1  0  0  3  0  0  0  0  0  0
  188.4760  177.8960  139.8730 C   0  0  0  0  0  0  0  0  0  0  0  0
  181.3270  177.3850  139.5060 C   0  0  2  0  0  3  0  0  0  0  0  0
  181.2350  170.2370  134.6560 C   0  0  2  0  0  3  0  0  0  0  0  0
  187.6250  177.7710  138.7680 C   0  0  0  0  0  3  0  0  0  0  0  0
  189.1880  174.9190  136.9480 N   0  0  0  0  0  0  0  0  0  0  0  0
  182.5610  178.2270  141.4130 C   0  0  0  0  0  2  0  0  0  0  0  0
  185.4520  179.1010  140.7650 C   0  0  0  0  0  0  0  0  0  0  0  0
  186.8160  179.2000  141.1270 N   0  0  0  0  0  0  0  0  0  0  0  0
  187.8960  176.8340  137.7760 C   0  0  0  0  0  3  0  0  0  0  0  0
  184.3960  172.4340  134.5980 C   0  0  1  0  0  3  0  0  0  0  0  0
  184.5540  173.7640  135.3600 C   0  0  1  0  0  3  0  0  0  0  0  0
  184.5310  178.5800  140.0200 N   0  0  0  0  0  0  0  0  0  0  0  0
  181.8280  175.9640  139.2470 C   0  0  0  0  0  2  0  0  0  0  0  0
  180.8580  176.5780  141.7510 O   0  0  0  0  0  1  0  0  0  0  0  0
  188.1420  178.7860  140.9390 N   0  0  0  0  0  2  0  0  0  0  0  0
  187.8970  175.3210  134.9210 C   0  0  0  0  0  2  0  0  0  0  0  0
  182.7040  170.5010  134.3460 C   0  0  0  0  0  2  0  0  0  0  0  0
  182.2350  172.3080  135.8900 C   0  0  2  0  0  3  0  0  0  0  0  0
  182.0990  174.1590  137.5620 C   0  0  0  0  0  2  0  0  0  0  0  0
  180.6250  171.4770  135.8570 S   0  0  0  0  0  0  0  0  0  0  0  0
  187.0120  173.9300  136.6980 C   0  0  0  0  0  2  0  0  0  0  0  0
  185.8520  179.9640  141.8140 N   0  0  0  0  0  2  0  0  0  0  0  0
  185.2140  171.4700  135.1920 O   0  0  0  0  0  1  0  0  0  0  0  0
  181.6420  175.5910  137.7870 C   0  0  0  0  0  2  0  0  0  0  0  0
  181.8280  167.9510  134.8250 C   0  0  0  0  0  2  0  0  0  0  0  0
  181.0650  168.9130  135.1970 N   0  0  0  0  0  0  0  0  0  0  0  0
  190.1560  176.3810  135.1870 C   0  0  0  0  0  2  0  0  0  0  0  0
  191.6080  176.1150  135.5500 C   0  0  0  0  0  2  0  0  0  0  0  0
  191.9470  174.6480  135.3450 C   0  0  0  0  0  2  0  0  0  0  0  0
  194.6050  173.1650  137.0960 C   0  0  0  0  0  0  0  0  0  0  0  0
  194.4330  174.2530  137.8190 C   0  0  0  0  0  0  0  0  0  0  0  0
  195.3530  175.4160  139.6660 N   0  0  0  0  0  1  0  0  0  0  0  0
  196.2660  173.3940  138.9480 N   0  0  0  0  0  0  0  0  0  0  0  0
  193.7570  173.0750  136.0700 N   0  0  0  0  0  0  0  0  0  0  0  0
  193.0390  174.2250  136.2680 C   0  0  0  0  0  0  0  0  0  0  0  0
  195.9050  172.3240  137.6930 S   0  0  0  0  0  0  0  0  0  0  0  0
  195.3480  174.4050  138.8630 C   0  0  0  0  0  0  0  0  0  0  0  0
  193.4310  174.9930  137.3330 N   0  0  0  0  0  2  0  0  0  0  0  0
  1  9  1  0  0  0  0
  6  2  1  6  0  0  0
  6 19  1  0  0  0  0
  7 19  1  0  0  0  0
  7 27  1  1  0  0  0
  8  4  1  6  0  0  0
  8 32  1  0  0  0  0
  9  5  2  0  0  0  0
 11 40  1  1  0  0  0
 11 18  1  0  0  0  0
 12  3  1  1  0  0  0
 12 34  1  0  0  0  0
 13 30  1  1  0  0  0
 13 23  1  0  0  0  0
 13 31  1  0  0  0  0
 14  5  1  0  0  0  0
 14 28  1  0  0  0  0
 15  2  1  1  0  0  0
 15  7  1  0  0  0  0
 16 39  1  1  0  0  0
 16 33  1  0  0  0  0
 17 14  2  0  0  0  0
 18 10  1  0  0  0  0
 18  1  1  0  0  0  0
 20 21  1  0  0  0  0
 20 35  1  0  0  0  0
 21 35  1  0  0  0  0
 22  1  2  0  0  0  0
 22 17  1  0  0  0  0
 23 36  1  1  0  0  0
 23 24  1  0  0  0  0
 24  3  1  6  0  0  0
 24  4  1  0  0  0  0
 25  6  1  0  0  0  0
 25 20  2  0  0  0  0
 26 15  1  0  0  0  0
 28 21  1  0  0  0  0
 29 12  1  0  0  0  0
 29 11  1  0  0  0  0
 30 16  1  0  0  0  0
 31 33  1  6  0  0  0
 31  8  1  0  0  0  0
 32 37  1  0  0  0  0
 34 10  1  0  0  0  0
 37 26  1  0  0  0  0
 38 39  2  0  0  0  0
 40 41  1  0  0  0  0
 42 41  1  0  0  0  0
 42 48  1  0  0  0  0
 43 49  1  0  0  0  0
 43 44  2  0  0  0  0
 44 50  1  0  0  0  0
 47 48  2  0  0  0  0
 47 43  1  0  0  0  0
 48 51  1  0  0  0  0
 49 46  1  0  0  0  0
 50 46  2  0  0  0  0
 50 45  1  0  0  0  0
 51 44  1  0  0  0  0
M  END
>  <MODEL>
3

>  <REMARK>
 VINA RESULT:      -6.1      3.705      7.964
  Name = 
  5 active torsions:
  status: ('A' for Active; 'I' for Inactive)
    1  A    between atoms: C_12  and  C_35
    2  A    between atoms: C_15  and  C_35
    3  A    between atoms: C_15  and  C_36
    4  A    between atoms: C_20  and  N_51
    5  A    between atoms: C_34  and  C_36
                            x       y       z     vdW  Elec       q    Type
                         _______ _______ _______ _____ _____    ______ ____

>  <TORSDO>
F 5

$$$$
