=
 OpenBabel10232409283D

 53 56  0  0  1  0  0  0  0  0999 V2000
  186.6700  177.9590  144.0630 C   0  0  0  0  0  0  0  0  0  0  0  0
  186.1300  178.5650  137.9570 C   0  0  0  0  0  2  0  0  0  0  0  0
  187.6870  177.6280  144.9510 C   0  0  0  0  0  3  0  0  0  0  0  0
  188.9910  177.3970  144.5070 C   0  0  0  0  0  0  0  0  0  0  0  0
  187.5580  178.2090  138.4070 C   0  0  1  0  0  3  0  0  0  0  0  0
  183.9400  178.9340  139.2080 C   0  0  0  0  0  0  0  0  0  0  0  0
  188.4980  177.8890  140.8000 N   0  0  0  0  0  0  0  0  0  0  0  0
  189.9880  177.0750  145.4400 C   0  0  0  0  0  0  0  0  0  0  0  0
  188.2560  177.8150  142.2130 C   0  0  0  0  0  0  0  0  0  0  0  0
  185.3040  178.2080  144.6130 C   0  0  0  0  0  1  0  0  0  0  0  0
  187.4360  178.1650  139.8920 C   0  0  0  0  0  0  0  0  0  0  0  0
  186.9420  178.0570  142.6910 C   0  0  0  0  0  0  0  0  0  0  0  0
  185.3500  178.6560  139.1880 N   0  0  0  0  0  0  0  0  0  0  0  0
  185.8250  178.4590  141.7450 C   0  0  0  0  0  3  0  0  0  0  0  0
  186.2110  178.4080  140.2930 C   0  0  0  0  0  0  0  0  0  0  0  0
  189.3000  177.4890  143.1230 C   0  0  0  0  0  0  0  0  0  0  0  0
  190.6470  177.2480  142.7310 C   0  0  0  0  0  0  0  0  0  0  0  0
  183.3180  179.0890  138.1240 O   0  0  0  0  0  0  0  0  0  0  0  0
  191.2910  176.8540  144.9880 C   0  0  0  0  0  3  0  0  0  0  0  0
  191.5840  176.9450  143.6690 N   0  0  0  0  0  0  0  0  0  0  0  0
  191.1160  177.3190  141.3150 C   0  0  0  0  0  1  0  0  0  0  0  0
  187.4840  174.7270  136.8560 C   0  0  0  0  0  3  0  0  0  0  0  0
  189.3430  176.5440  137.8840 C   0  0  0  0  0  3  0  0  0  0  0  0
  188.8460  174.3980  136.8710 C   0  0  0  0  0  0  0  0  0  0  0  0
  187.0560  175.9610  137.3490 C   0  0  0  0  0  3  0  0  0  0  0  0
  187.9870  176.8810  137.8580 C   0  0  0  0  0  0  0  0  0  0  0  0
  189.7710  175.3080  137.3930 C   0  0  0  0  0  3  0  0  0  0  0  0
  189.3290  173.0830  136.3450 C   0  0  1  0  0  3  0  0  0  0  0  0
  188.1760  172.1070  136.2020 C   0  0  0  0  0  1  0  0  0  0  0  0
  189.9930  173.2620  135.0610 N   0  0  0  0  0  2  0  0  0  0  0  0
  191.7190  171.6100  134.6830 C   0  0  0  0  0  1  0  0  0  0  0  0
  191.4100  172.9810  135.2450 C   0  0  1  0  0  3  0  0  0  0  0  0
  193.4730  176.3900  137.2130 C   0  0  0  0  0  1  0  0  0  0  0  0
  193.2650  173.9190  137.3420 C   0  0  0  0  0  1  0  0  0  0  0  0
  193.1180  176.1040  134.4420 O   0  0  0  0  0  0  0  0  0  0  0  0
  193.1120  175.1400  136.5690 N   0  0  0  0  0  0  0  0  0  0  0  0
  192.8180  175.1120  135.1610 C   0  0  0  0  0  0  0  0  0  0  0  0
  192.2060  173.9770  134.5390 N   0  0  0  0  0  2  0  0  0  0  0  0
  190.6010  177.2830  147.8320 C   0  0  0  0  0  1  0  0  0  0  0  0
  189.6700  176.9800  146.8020 O   0  0  0  0  0  0  0  0  0  0  0  0
  183.1720  179.0170  140.4870 C   0  0  0  0  0  2  0  0  0  0  0  0
  180.8680  178.0780  140.4240 C   0  0  0  0  0  1  0  0  0  0  0  0
  182.3260  177.7680  140.7010 C   0  0  1  0  0  3  0  0  0  0  0  0
  182.7980  176.5970  139.8460 C   0  0  0  0  0  2  0  0  0  0  0  0
  181.7070  175.6690  139.5770 N   0  0  0  0  0  2  0  0  0  0  0  0
  180.7220  176.4880  137.0880 O   0  0  0  0  0  0  0  0  0  0  0  0
  181.1370  173.9620  137.6080 O   0  0  0  0  0  1  0  0  0  0  0  0
  181.7020  175.3440  137.8540 P   0  0  2  0  0  0  0  0  0  0  0  0
  182.1260  174.6810  134.8980 O   0  0  0  0  0  0  0  0  0  0  0  0
  183.3990  175.4770  137.1890 C   0  0  0  0  0  2  0  0  0  0  0  0
  183.5050  174.9510  135.4590 P   0  0  0  0  0  0  0  0  0  0  0  0
  183.9080  174.2440  137.0020 O   0  0  0  0  0  0  0  0  0  0  0  0
  184.6010  176.1140  134.6040 C   0  0  0  0  0 15  0  0  0  0  0  0
  1 10  1  0  0  0  0
  1  3  1  0  0  0  0
  2  5  1  0  0  0  0
  2 13  1  0  0  0  0
  4  3  2  0  0  0  0
  4  8  1  0  0  0  0
  5 26  1  6  0  0  0
  5 11  1  0  0  0  0
  6 41  1  0  0  0  0
  7  9  1  0  0  0  0
  8 40  1  0  0  0  0
  9 12  1  0  0  0  0
  9 16  2  0  0  0  0
 11 15  1  0  0  0  0
 11  7  2  0  0  0  0
 12  1  2  0  0  0  0
 13  6  1  0  0  0  0
 13 15  1  0  0  0  0
 14 12  1  0  0  0  0
 15 14  2  0  0  0  0
 16  4  1  0  0  0  0
 17 16  1  0  0  0  0
 17 20  2  0  0  0  0
 18  6  2  0  0  0  0
 19  8  2  0  0  0  0
 20 19  1  0  0  0  0
 21 17  1  0  0  0  0
 22 24  2  0  0  0  0
 22 25  1  0  0  0  0
 24 27  1  0  0  0  0
 25 26  2  0  0  0  0
 26 23  1  0  0  0  0
 27 23  2  0  0  0  0
 28 29  1  6  0  0  0
 28 24  1  0  0  0  0
 30 32  1  0  0  0  0
 30 28  1  0  0  0  0
 32 31  1  6  0  0  0
 35 37  2  0  0  0  0
 36 33  1  0  0  0  0
 36 34  1  0  0  0  0
 37 36  1  0  0  0  0
 38 37  1  0  0  0  0
 38 32  1  0  0  0  0
 40 39  1  0  0  0  0
 41 43  1  0  0  0  0
 43 42  1  6  0  0  0
 44 43  1  0  0  0  0
 45 44  1  0  0  0  0
 47 48  1  0  0  0  0
 48 46  2  6  0  0  0
 48 45  1  0  0  0  0
 49 51  2  0  0  0  0
 50 48  1  0  0  0  0
 51 52  1  0  0  0  0
 52 50  1  0  0  0  0
M  END
>  <MODEL>
1

>  <REMARK>
 VINA RESULT:      -7.9      0.000      0.000
  Name = 
  12 active torsions:
  status: ('A' for Active; 'I' for Inactive)
    1  A    between atoms: N_2  and  C_52
    2  A    between atoms: N_2  and  P_53
    3  A    between atoms: C_7  and  N_10
    4  A    between atoms: C_7  and  C_27
    5  A    between atoms: N_10  and  C_22
    6  A    between atoms: C_13  and  P_53
    7  A    between atoms: C_14  and  C_33
    8  A    between atoms: C_17  and  C_39
    9  A    between atoms: C_22  and  N_50
   10  A    between atoms: C_24  and  O_46
   11  A    between atoms: C_30  and  C_39
   12  A    between atoms: C_30  and  C_52
                            x       y       z     vdW  Elec       q    Type
                         _______ _______ _______ _____ _____    ______ ____

>  <TORSDO>
F 12

$$$$
=
 OpenBabel10232409283D

 53 56  0  0  1  0  0  0  0  0999 V2000
  187.3030  172.7240  136.0040 C   0  0  0  0  0  0  0  0  0  0  0  0
  190.6710  177.2200  138.5300 C   0  0  0  0  0  2  0  0  0  0  0  0
  185.9500  172.4830  135.7910 C   0  0  0  0  0  3  0  0  0  0  0  0
  184.9830  173.4310  136.1340 C   0  0  0  0  0  0  0  0  0  0  0  0
  189.1600  177.5190  138.5320 C   0  0  1  0  0  3  0  0  0  0  0  0
  192.0640  175.2450  137.7210 C   0  0  0  0  0  0  0  0  0  0  0  0
  187.2050  176.1190  137.5700 N   0  0  0  0  0  0  0  0  0  0  0  0
  183.6300  173.1500  135.8920 C   0  0  0  0  0  0  0  0  0  0  0  0
  186.7540  174.9060  136.9500 C   0  0  0  0  0  0  0  0  0  0  0  0
  188.2810  171.6710  135.5960 C   0  0  0  0  0  1  0  0  0  0  0  0
  188.5870  176.3280  137.8430 C   0  0  0  0  0  0  0  0  0  0  0  0
  187.7180  173.9320  136.5810 C   0  0  0  0  0  0  0  0  0  0  0  0
  190.8040  175.9150  137.8880 N   0  0  0  0  0  0  0  0  0  0  0  0
  189.2030  174.1890  136.7660 C   0  0  0  0  0  3  0  0  0  0  0  0
  189.5110  175.4610  137.5060 C   0  0  0  0  0  0  0  0  0  0  0  0
  185.3700  174.6660  136.7210 C   0  0  0  0  0  0  0  0  0  0  0  0
  184.3400  175.5940  137.0430 C   0  0  0  0  0  0  0  0  0  0  0  0
  193.1170  175.7770  138.1600 O   0  0  0  0  0  0  0  0  0  0  0  0
  182.6700  174.1060  136.2310 C   0  0  0  0  0  3  0  0  0  0  0  0
  183.0410  175.2840  136.7870 N   0  0  0  0  0  0  0  0  0  0  0  0
  184.6010  176.9310  137.6550 C   0  0  0  0  0  1  0  0  0  0  0  0
  187.1860  178.6920  141.5740 C   0  0  0  0  0  3  0  0  0  0  0  0
  189.1590  176.8210  140.9290 C   0  0  0  0  0  3  0  0  0  0  0  0
  187.7050  177.8550  142.5710 C   0  0  0  0  0  0  0  0  0  0  0  0
  187.6480  178.5900  140.2610 C   0  0  0  0  0  3  0  0  0  0  0  0
  188.6320  177.6450  139.9300 C   0  0  0  0  0  0  0  0  0  0  0  0
  188.6980  176.9260  142.2430 C   0  0  0  0  0  3  0  0  0  0  0  0
  187.2230  177.9440  143.9840 C   0  0  1  0  0  3  0  0  0  0  0  0
  185.7230  177.7260  144.0530 C   0  0  0  0  0  1  0  0  0  0  0  0
  187.9070  176.9650  144.8180 N   0  0  0  0  0  2  0  0  0  0  0  0
  188.0790  177.8270  147.0710 C   0  0  0  0  0  1  0  0  0  0  0  0
  188.7770  177.6870  145.7360 C   0  0  1  0  0  3  0  0  0  0  0  0
  192.1590  177.7150  142.8530 C   0  0  0  0  0  1  0  0  0  0  0  0
  190.6980  179.2590  144.1360 C   0  0  0  0  0  1  0  0  0  0  0  0
  191.9030  175.9470  145.0200 O   0  0  0  0  0  0  0  0  0  0  0  0
  191.2510  177.9260  143.9660 N   0  0  0  0  0  0  0  0  0  0  0  0
  191.0850  176.9040  144.9650 C   0  0  0  0  0  0  0  0  0  0  0  0
  190.0200  176.9500  145.9220 N   0  0  0  0  0  2  0  0  0  0  0  0
  181.9310  171.6440  134.8980 C   0  0  0  0  0  1  0  0  0  0  0  0
  183.2590  171.9250  135.3200 O   0  0  0  0  0  0  0  0  0  0  0  0
  192.1630  173.9080  137.0620 C   0  0  0  0  0  2  0  0  0  0  0  0
  192.5580  175.4290  135.1310 C   0  0  0  0  0  1  0  0  0  0  0  0
  192.7710  174.0270  135.6700 C   0  0  1  0  0  3  0  0  0  0  0  0
  194.2530  173.6660  135.6530 C   0  0  0  0  0  2  0  0  0  0  0  0
  195.0540  174.7520  135.1030 N   0  0  0  0  0  2  0  0  0  0  0  0
  197.1550  176.3940  135.9550 O   0  0  0  0  0  1  0  0  0  0  0  0
  197.5590  173.8800  135.3740 O   0  0  0  0  0  0  0  0  0  0  0  0
  196.5540  174.8150  136.0090 P   0  0  2  0  0  0  0  0  0  0  0  0
  198.8880  175.0620  137.9700 O   0  0  0  0  0  0  0  0  0  0  0  0
  196.2500  174.3560  137.7510 C   0  0  0  0  0  2  0  0  0  0  0  0
  197.7510  174.4540  138.7610 P   0  0  0  0  0  0  0  0  0  0  0  0
  196.8340  173.1720  138.0140 O   0  0  0  0  0  0  0  0  0  0  0  0
  197.2860  175.1820  140.3550 C   0  0  0  0  0 15  0  0  0  0  0  0
  1 12  1  0  0  0  0
  2  5  1  0  0  0  0
  3  1  2  0  0  0  0
  3  4  1  0  0  0  0
  4 16  1  0  0  0  0
  5 26  1  1  0  0  0
  6 13  1  0  0  0  0
  6 18  2  0  0  0  0
  7 11  1  0  0  0  0
  8  4  2  0  0  0  0
  8 19  1  0  0  0  0
  9  7  2  0  0  0  0
 10  1  1  0  0  0  0
 11  5  1  0  0  0  0
 12 14  2  0  0  0  0
 12  9  1  0  0  0  0
 13  2  1  0  0  0  0
 14 15  1  0  0  0  0
 15 11  2  0  0  0  0
 15 13  1  0  0  0  0
 16  9  1  0  0  0  0
 16 17  2  0  0  0  0
 17 21  1  0  0  0  0
 19 20  2  0  0  0  0
 20 17  1  0  0  0  0
 22 24  1  0  0  0  0
 23 27  1  0  0  0  0
 24 28  1  0  0  0  0
 25 22  2  0  0  0  0
 26 25  1  0  0  0  0
 26 23  2  0  0  0  0
 27 24  2  0  0  0  0
 28 29  1  6  0  0  0
 28 30  1  0  0  0  0
 30 32  1  0  0  0  0
 32 38  1  0  0  0  0
 32 31  1  1  0  0  0
 33 36  1  0  0  0  0
 36 34  1  0  0  0  0
 36 37  1  0  0  0  0
 37 35  2  0  0  0  0
 37 38  1  0  0  0  0
 39 40  1  0  0  0  0
 40  8  1  0  0  0  0
 41  6  1  0  0  0  0
 43 42  1  1  0  0  0
 43 41  1  0  0  0  0
 44 43  1  0  0  0  0
 45 44  1  0  0  0  0
 45 48  1  0  0  0  0
 46 48  1  0  0  0  0
 48 47  2  6  0  0  0
 48 50  1  0  0  0  0
 49 51  2  0  0  0  0
 50 52  1  0  0  0  0
 52 51  1  0  0  0  0
M  END
>  <MODEL>
2

>  <REMARK>
 VINA RESULT:      -7.6      3.733     10.567
  Name = 
  12 active torsions:
  status: ('A' for Active; 'I' for Inactive)
    1  A    between atoms: N_2  and  C_52
    2  A    between atoms: N_2  and  P_53
    3  A    between atoms: C_7  and  N_10
    4  A    between atoms: C_7  and  C_27
    5  A    between atoms: N_10  and  C_22
    6  A    between atoms: C_13  and  P_53
    7  A    between atoms: C_14  and  C_33
    8  A    between atoms: C_17  and  C_39
    9  A    between atoms: C_22  and  N_50
   10  A    between atoms: C_24  and  O_46
   11  A    between atoms: C_30  and  C_39
   12  A    between atoms: C_30  and  C_52
                            x       y       z     vdW  Elec       q    Type
                         _______ _______ _______ _____ _____    ______ ____

>  <TORSDO>
F 12

$$$$
=
 OpenBabel10232409283D

 53 56  0  0  1  0  0  0  0  0999 V2000
  186.8560  177.7250  143.1810 C   0  0  0  0  0  0  0  0  0  0  0  0
  188.6400  178.2330  137.3080 C   0  0  0  0  0  2  0  0  0  0  0  0
  187.4840  177.5300  144.4060 C   0  0  0  0  0  3  0  0  0  0  0  0
  188.8760  177.4670  144.5060 C   0  0  0  0  0  0  0  0  0  0  0  0
  189.8170  178.0650  138.2870 C   0  0  1  0  0  3  0  0  0  0  0  0
  186.1110  178.3220  137.6080 C   0  0  0  0  0  0  0  0  0  0  0  0
  189.7930  177.8770  140.8710 N   0  0  0  0  0  0  0  0  0  0  0  0
  189.4670  177.2800  145.7640 C   0  0  0  0  0  0  0  0  0  0  0  0
  189.0360  177.7780  142.0860 C   0  0  0  0  0  0  0  0  0  0  0  0
  185.3640  177.7980  143.1550 C   0  0  0  0  0  1  0  0  0  0  0  0
  189.1380  178.0110  139.6130 C   0  0  0  0  0  0  0  0  0  0  0  0
  187.6210  177.8520  142.0140 C   0  0  0  0  0  0  0  0  0  0  0  0
  187.4420  178.2280  138.1420 N   0  0  0  0  0  0  0  0  0  0  0  0
  186.9160  178.1030  140.6930 C   0  0  0  0  0  3  0  0  0  0  0  0
  187.8340  178.0970  139.5030 C   0  0  0  0  0  0  0  0  0  0  0  0
  189.6810  177.5930  143.3410 C   0  0  0  0  0  0  0  0  0  0  0  0
  191.0930  177.5260  143.5050 C   0  0  0  0  0  0  0  0  0  0  0  0
  185.9410  178.3910  136.3620 O   0  0  0  0  0  0  0  0  0  0  0  0
  190.8600  177.2260  145.8550 C   0  0  0  0  0  3  0  0  0  0  0  0
  191.6250  177.3480  144.7450 N   0  0  0  0  0  0  0  0  0  0  0  0
  192.0590  177.6510  142.3740 C   0  0  0  0  0  1  0  0  0  0  0  0
  190.6620  174.4720  137.3340 C   0  0  0  0  0  3  0  0  0  0  0  0
  191.9550  176.7780  138.2400 C   0  0  0  0  0  3  0  0  0  0  0  0
  192.0470  174.4570  137.5480 C   0  0  0  0  0  0  0  0  0  0  0  0
  189.9290  175.6370  137.5670 C   0  0  0  0  0  3  0  0  0  0  0  0
  190.5760  176.8010  138.0130 C   0  0  0  0  0  0  0  0  0  0  0  0
  192.6870  175.6110  138.0080 C   0  0  0  0  0  3  0  0  0  0  0  0
  192.8530  173.2210  137.3010 C   0  0  1  0  0  3  0  0  0  0  0  0
  192.7860  172.8210  135.8390 C   0  0  0  0  0  1  0  0  0  0  0  0
  194.2390  173.4300  137.6980 N   0  0  0  0  0  2  0  0  0  0  0  0
  196.3100  172.9320  136.5510 C   0  0  0  0  0  1  0  0  0  0  0  0
  195.0360  172.3520  137.1280 C   0  0  1  0  0  3  0  0  0  0  0  0
  193.5400  168.1700  137.2470 C   0  0  0  0  0  1  0  0  0  0  0  0
  194.6910  169.7700  135.7370 C   0  0  0  0  0  1  0  0  0  0  0  0
  194.8670  169.4670  139.3550 O   0  0  0  0  0  0  0  0  0  0  0  0
  194.3120  169.3880  137.0880 N   0  0  0  0  0  0  0  0  0  0  0  0
  194.8460  170.0600  138.2420 C   0  0  0  0  0  0  0  0  0  0  0  0
  195.3770  171.3890  138.1650 N   0  0  0  0  0  2  0  0  0  0  0  0
  188.8970  177.8840  148.0990 C   0  0  0  0  0  1  0  0  0  0  0  0
  188.6630  177.1490  146.9050 O   0  0  0  0  0  0  0  0  0  0  0  0
  184.9060  178.3110  138.4910 C   0  0  0  0  0  2  0  0  0  0  0  0
  182.8680  177.8300  137.1450 C   0  0  0  0  0  1  0  0  0  0  0  0
  183.9190  177.2330  138.0600 C   0  0  1  0  0  3  0  0  0  0  0  0
  184.6120  176.0530  137.3830 C   0  0  0  0  0  2  0  0  0  0  0  0
  183.8270  174.8330  137.5220 N   0  0  0  0  0  2  0  0  0  0  0  0
  183.9480  173.2570  135.2110 O   0  0  0  0  0  0  0  0  0  0  0  0
  184.6400  172.2930  137.5380 O   0  0  0  0  0  1  0  0  0  0  0  0
  184.6950  173.5510  136.6990 P   0  0  2  0  0  0  0  0  0  0  0  0
  186.5050  171.6070  135.1830 O   0  0  0  0  0  0  0  0  0  0  0  0
  186.4250  174.0580  136.4030 C   0  0  0  0  0  2  0  0  0  0  0  0
  187.3950  172.7610  135.5910 P   0  0  0  0  0  0  0  0  0  0  0  0
  187.2440  173.3680  137.2190 O   0  0  0  0  0  0  0  0  0  0  0  0
  188.4390  173.5640  134.3460 C   0  0  0  0  0 15  0  0  0  0  0  0
  1  3  1  0  0  0  0
  2 13  1  0  0  0  0
  2  5  1  0  0  0  0
  3  4  2  0  0  0  0
  4  8  1  0  0  0  0
  5 26  1  6  0  0  0
  5 11  1  0  0  0  0
  6 13  1  0  0  0  0
  6 41  1  0  0  0  0
  7  9  1  0  0  0  0
  8 19  2  0  0  0  0
  8 40  1  0  0  0  0
  9 16  2  0  0  0  0
 10  1  1  0  0  0  0
 11  7  2  0  0  0  0
 12  9  1  0  0  0  0
 12  1  2  0  0  0  0
 13 15  1  0  0  0  0
 14 12  1  0  0  0  0
 15 11  1  0  0  0  0
 15 14  2  0  0  0  0
 16 17  1  0  0  0  0
 16  4  1  0  0  0  0
 17 20  2  0  0  0  0
 18  6  2  0  0  0  0
 20 19  1  0  0  0  0
 21 17  1  0  0  0  0
 22 24  2  0  0  0  0
 22 25  1  0  0  0  0
 24 27  1  0  0  0  0
 25 26  2  0  0  0  0
 26 23  1  0  0  0  0
 27 23  2  0  0  0  0
 28 29  1  6  0  0  0
 28 24  1  0  0  0  0
 28 30  1  0  0  0  0
 32 31  1  1  0  0  0
 32 30  1  0  0  0  0
 32 38  1  0  0  0  0
 34 36  1  0  0  0  0
 36 33  1  0  0  0  0
 36 37  1  0  0  0  0
 37 35  2  0  0  0  0
 38 37  1  0  0  0  0
 40 39  1  0  0  0  0
 43 42  1  6  0  0  0
 43 41  1  0  0  0  0
 44 45  1  0  0  0  0
 44 43  1  0  0  0  0
 48 46  2  6  0  0  0
 48 45  1  0  0  0  0
 48 47  1  0  0  0  0
 49 51  2  0  0  0  0
 50 48  1  0  0  0  0
 50 52  1  0  0  0  0
 51 52  1  0  0  0  0
M  END
>  <MODEL>
3

>  <REMARK>
 VINA RESULT:      -7.6      2.561      3.582
  Name = 
  12 active torsions:
  status: ('A' for Active; 'I' for Inactive)
    1  A    between atoms: N_2  and  C_52
    2  A    between atoms: N_2  and  P_53
    3  A    between atoms: C_7  and  N_10
    4  A    between atoms: C_7  and  C_27
    5  A    between atoms: N_10  and  C_22
    6  A    between atoms: C_13  and  P_53
    7  A    between atoms: C_14  and  C_33
    8  A    between atoms: C_17  and  C_39
    9  A    between atoms: C_22  and  N_50
   10  A    between atoms: C_24  and  O_46
   11  A    between atoms: C_30  and  C_39
   12  A    between atoms: C_30  and  C_52
                            x       y       z     vdW  Elec       q    Type
                         _______ _______ _______ _____ _____    ______ ____

>  <TORSDO>
F 12

$$$$
=
 OpenBabel10232409283D

 53 56  0  0  1  0  0  0  0  0999 V2000
  187.2140  172.8070  135.8370 C   0  0  0  0  0  0  0  0  0  0  0  0
  190.9040  176.9800  138.4670 C   0  0  0  0  0  2  0  0  0  0  0  0
  185.8470  172.6690  135.6250 C   0  0  0  0  0  3  0  0  0  0  0  0
  184.9510  173.6740  135.9980 C   0  0  0  0  0  0  0  0  0  0  0  0
  189.4180  177.3860  138.4840 C   0  0  1  0  0  3  0  0  0  0  0  0
  192.1490  174.9330  137.5980 C   0  0  0  0  0  0  0  0  0  0  0  0
  187.3640  176.1560  137.4950 N   0  0  0  0  0  0  0  0  0  0  0  0
  183.5810  173.4970  135.7550 C   0  0  0  0  0  0  0  0  0  0  0  0
  186.8260  174.9960  136.8440 C   0  0  0  0  0  0  0  0  0  0  0  0
  188.1130  171.6980  135.3960 C   0  0  0  0  0  1  0  0  0  0  0  0
  188.7590  176.2580  137.7660 C   0  0  0  0  0  0  0  0  0  0  0  0
  187.7170  173.9650  136.4440 C   0  0  0  0  0  0  0  0  0  0  0  0
  190.9410  175.6860  137.7890 N   0  0  0  0  0  0  0  0  0  0  0  0
  189.2160  174.1110  136.6290 C   0  0  0  0  0  3  0  0  0  0  0  0
  189.6170  175.3370  137.4010 C   0  0  0  0  0  0  0  0  0  0  0  0
  185.4280  174.8620  136.6160 C   0  0  0  0  0  0  0  0  0  0  0  0
  184.4680  175.8520  136.9680 C   0  0  0  0  0  0  0  0  0  0  0  0
  193.2390  175.3760  138.0460 O   0  0  0  0  0  0  0  0  0  0  0  0
  182.6930  174.5100  136.1250 C   0  0  0  0  0  3  0  0  0  0  0  0
  183.1490  175.6420  136.7100 N   0  0  0  0  0  0  0  0  0  0  0  0
  184.8260  177.1500  137.6140 C   0  0  0  0  0  1  0  0  0  0  0  0
  188.7840  176.7460  142.1880 C   0  0  0  0  0  3  0  0  0  0  0  0
  187.9980  178.5320  140.1870 C   0  0  0  0  0  3  0  0  0  0  0  0
  187.8860  177.7790  142.4890 C   0  0  0  0  0  0  0  0  0  0  0  0
  189.2900  176.6110  140.8940 C   0  0  0  0  0  3  0  0  0  0  0  0
  188.9050  177.5110  139.8880 C   0  0  0  0  0  0  0  0  0  0  0  0
  187.4910  178.6640  141.4820 C   0  0  0  0  0  3  0  0  0  0  0  0
  187.3340  177.9450  143.8690 C   0  0  1  0  0  3  0  0  0  0  0  0
  185.8240  177.7970  143.8640 C   0  0  0  0  0  1  0  0  0  0  0  0
  187.9270  176.9700  144.7750 N   0  0  0  0  0  2  0  0  0  0  0  0
  188.0890  177.8330  147.0290 C   0  0  0  0  0  1  0  0  0  0  0  0
  188.7960  177.6860  145.6990 C   0  0  1  0  0  3  0  0  0  0  0  0
  192.1990  177.6890  142.8410 C   0  0  0  0  0  1  0  0  0  0  0  0
  190.7400  179.2440  144.1130 C   0  0  0  0  0  1  0  0  0  0  0  0
  191.9140  175.9230  145.0060 O   0  0  0  0  0  0  0  0  0  0  0  0
  191.2850  177.9070  143.9470 N   0  0  0  0  0  0  0  0  0  0  0  0
  191.1030  176.8870  144.9450 C   0  0  0  0  0  0  0  0  0  0  0  0
  190.0310  176.9400  145.8940 N   0  0  0  0  0  2  0  0  0  0  0  0
  181.7890  171.8470  135.3010 C   0  0  0  0  0  1  0  0  0  0  0  0
  183.1210  172.3180  135.1520 O   0  0  0  0  0  0  0  0  0  0  0  0
  192.1500  173.6110  136.9020 C   0  0  0  0  0  2  0  0  0  0  0  0
  192.7360  175.2140  135.0900 C   0  0  0  0  0  1  0  0  0  0  0  0
  192.6390  173.7470  135.4650 C   0  0  1  0  0  3  0  0  0  0  0  0
  193.9760  173.0470  135.2410 C   0  0  0  0  0  2  0  0  0  0  0  0
  194.5620  172.6150  136.5030 N   0  0  0  0  0  2  0  0  0  0  0  0
  195.7340  170.5710  134.9900 O   0  0  0  0  0  0  0  0  0  0  0  0
  193.5130  170.1700  136.3070 O   0  0  0  0  0  1  0  0  0  0  0  0
  194.8430  170.8870  136.3910 P   0  0  2  0  0  0  0  0  0  0  0  0
  195.6000  167.9270  136.5160 O   0  0  0  0  0  0  0  0  0  0  0  0
  195.7970  170.3160  137.8410 C   0  0  0  0  0  2  0  0  0  0  0  0
  196.0740  168.5250  137.8220 P   0  0  0  0  0  0  0  0  0  0  0  0
  194.9940  169.6090  138.6590 O   0  0  0  0  0  0  0  0  0  0  0  0
  197.7780  168.2350  138.3680 C   0  0  0  0  0 15  0  0  0  0  0  0
  1 12  1  0  0  0  0
  2  5  1  0  0  0  0
  3  1  2  0  0  0  0
  3  4  1  0  0  0  0
  4 16  1  0  0  0  0
  5 26  1  1  0  0  0
  6 13  1  0  0  0  0
  6 18  2  0  0  0  0
  7 11  1  0  0  0  0
  8  4  2  0  0  0  0
  8 19  1  0  0  0  0
  9  7  2  0  0  0  0
 10  1  1  0  0  0  0
 11  5  1  0  0  0  0
 12 14  2  0  0  0  0
 12  9  1  0  0  0  0
 13  2  1  0  0  0  0
 14 15  1  0  0  0  0
 15 11  2  0  0  0  0
 15 13  1  0  0  0  0
 16  9  1  0  0  0  0
 16 17  2  0  0  0  0
 17 21  1  0  0  0  0
 19 20  2  0  0  0  0
 20 17  1  0  0  0  0
 22 24  1  0  0  0  0
 23 27  1  0  0  0  0
 24 28  1  0  0  0  0
 25 22  2  0  0  0  0
 26 23  2  0  0  0  0
 26 25  1  0  0  0  0
 27 24  2  0  0  0  0
 28 29  1  6  0  0  0
 28 30  1  0  0  0  0
 30 32  1  0  0  0  0
 32 38  1  0  0  0  0
 32 31  1  1  0  0  0
 33 36  1  0  0  0  0
 36 34  1  0  0  0  0
 36 37  1  0  0  0  0
 37 35  2  0  0  0  0
 37 38  1  0  0  0  0
 40 39  1  0  0  0  0
 40  8  1  0  0  0  0
 41  6  1  0  0  0  0
 43 42  1  1  0  0  0
 43 41  1  0  0  0  0
 44 43  1  0  0  0  0
 44 45  1  0  0  0  0
 47 48  1  0  0  0  0
 48 46  2  6  0  0  0
 48 45  1  0  0  0  0
 48 50  1  0  0  0  0
 49 51  2  0  0  0  0
 50 52  1  0  0  0  0
 51 52  1  0  0  0  0
M  END
>  <MODEL>
4

>  <REMARK>
 VINA RESULT:      -6.8      3.956     10.425
  Name = 
  12 active torsions:
  status: ('A' for Active; 'I' for Inactive)
    1  A    between atoms: N_2  and  C_52
    2  A    between atoms: N_2  and  P_53
    3  A    between atoms: C_7  and  N_10
    4  A    between atoms: C_7  and  C_27
    5  A    between atoms: N_10  and  C_22
    6  A    between atoms: C_13  and  P_53
    7  A    between atoms: C_14  and  C_33
    8  A    between atoms: C_17  and  C_39
    9  A    between atoms: C_22  and  N_50
   10  A    between atoms: C_24  and  O_46
   11  A    between atoms: C_30  and  C_39
   12  A    between atoms: C_30  and  C_52
                            x       y       z     vdW  Elec       q    Type
                         _______ _______ _______ _____ _____    ______ ____

>  <TORSDO>
F 12

$$$$
=
 OpenBabel10232409283D

 53 56  0  0  1  0  0  0  0  0999 V2000
  186.9210  177.6330  142.9880 C   0  0  0  0  0  0  0  0  0  0  0  0
  188.9670  178.2450  137.2100 C   0  0  0  0  0  2  0  0  0  0  0  0
  187.4950  177.4430  144.2390 C   0  0  0  0  0  3  0  0  0  0  0  0
  188.8820  177.4150  144.4040 C   0  0  0  0  0  0  0  0  0  0  0  0
  190.1000  178.0980  138.2420 C   0  0  1  0  0  3  0  0  0  0  0  0
  186.4250  178.2650  137.3910 C   0  0  0  0  0  0  0  0  0  0  0  0
  189.9590  177.8850  140.8200 N   0  0  0  0  0  0  0  0  0  0  0  0
  189.4180  177.2320  145.6880 C   0  0  0  0  0  0  0  0  0  0  0  0
  189.1490  177.7540  141.9970 C   0  0  0  0  0  0  0  0  0  0  0  0
  185.4310  177.6680  142.8910 C   0  0  0  0  0  1  0  0  0  0  0  0
  189.3600  178.0140  139.5340 C   0  0  0  0  0  0  0  0  0  0  0  0
  187.7370  177.7910  141.8590 C   0  0  0  0  0  0  0  0  0  0  0  0
  187.7310  178.2010  137.9860 N   0  0  0  0  0  0  0  0  0  0  0  0
  187.0880  178.0370  140.5080 C   0  0  0  0  0  3  0  0  0  0  0  0
  188.0620  178.0660  139.3630 C   0  0  0  0  0  0  0  0  0  0  0  0
  189.7380  177.5730  143.2810 C   0  0  0  0  0  0  0  0  0  0  0  0
  191.1420  177.5420  143.5110 C   0  0  0  0  0  0  0  0  0  0  0  0
  186.3120  178.3420  136.1390 O   0  0  0  0  0  0  0  0  0  0  0  0
  190.8060  177.2130  145.8440 C   0  0  0  0  0  3  0  0  0  0  0  0
  191.6190  177.3660  144.7720 N   0  0  0  0  0  0  0  0  0  0  0  0
  192.1560  177.7030  142.4280 C   0  0  0  0  0  1  0  0  0  0  0  0
  191.0680  174.5010  137.4360 C   0  0  0  0  0  3  0  0  0  0  0  0
  192.2930  176.9110  138.1440 C   0  0  0  0  0  3  0  0  0  0  0  0
  192.4620  174.5610  137.5730 C   0  0  0  0  0  0  0  0  0  0  0  0
  190.2930  175.6420  137.6480 C   0  0  0  0  0  3  0  0  0  0  0  0
  190.9050  176.8570  137.9940 C   0  0  0  0  0  0  0  0  0  0  0  0
  193.0680  175.7680  137.9340 C   0  0  0  0  0  3  0  0  0  0  0  0
  193.3130  173.3520  137.3480 C   0  0  1  0  0  3  0  0  0  0  0  0
  192.7530  172.5050  136.2200 C   0  0  0  0  0  1  0  0  0  0  0  0
  194.6830  173.7430  137.0440 N   0  0  0  0  0  2  0  0  0  0  0  0
  195.7250  173.9750  139.2150 C   0  0  0  0  0  1  0  0  0  0  0  0
  195.5610  173.0850  138.0020 C   0  0  1  0  0  3  0  0  0  0  0  0
  196.6910  169.1360  136.3050 C   0  0  0  0  0  1  0  0  0  0  0  0
  197.6970  171.1540  137.3450 C   0  0  0  0  0  1  0  0  0  0  0  0
  194.4660  169.6050  137.9530 O   0  0  0  0  0  0  0  0  0  0  0  0
  196.5230  170.3270  137.1170 N   0  0  0  0  0  0  0  0  0  0  0  0
  195.2910  170.5490  137.8270 C   0  0  0  0  0  0  0  0  0  0  0  0
  194.9770  171.8160  138.4160 N   0  0  0  0  0  2  0  0  0  0  0  0
  188.8320  177.6440  148.0600 C   0  0  0  0  0  1  0  0  0  0  0  0
  188.5640  177.0690  146.7880 O   0  0  0  0  0  0  0  0  0  0  0  0
  185.1800  178.2140  138.2150 C   0  0  0  0  0  2  0  0  0  0  0  0
  184.0370  176.7680  136.5420 C   0  0  0  0  0  1  0  0  0  0  0  0
  183.9460  178.0570  137.3360 C   0  0  1  0  0  3  0  0  0  0  0  0
  182.6520  178.0980  138.1430 C   0  0  0  0  0  2  0  0  0  0  0  0
  181.6410  177.2240  137.5620 N   0  0  0  0  0  2  0  0  0  0  0  0
  180.0120  177.1590  139.8380 O   0  0  0  0  0  1  0  0  0  0  0  0
  182.1590  175.6800  139.6740 O   0  0  0  0  0  0  0  0  0  0  0  0
  181.0090  176.2170  138.8510 P   0  0  2  0  0  0  0  0  0  0  0  0
  182.5150  173.9580  137.4420 O   0  0  0  0  0  0  0  0  0  0  0  0
  180.0230  174.8490  138.1470 C   0  0  0  0  0  2  0  0  0  0  0  0
  181.0460  173.6480  137.2560 P   0  0  0  0  0  0  0  0  0  0  0  0
  179.9890  174.9610  136.8050 O   0  0  0  0  0  0  0  0  0  0  0  0
  180.4250  171.9960  137.6660 C   0  0  0  0  0 15  0  0  0  0  0  0
  1  3  1  0  0  0  0
  2 13  1  0  0  0  0
  2  5  1  0  0  0  0
  3  4  2  0  0  0  0
  4  8  1  0  0  0  0
  5 26  1  6  0  0  0
  5 11  1  0  0  0  0
  6 13  1  0  0  0  0
  6 41  1  0  0  0  0
  7  9  1  0  0  0  0
  8 19  2  0  0  0  0
  8 40  1  0  0  0  0
  9 16  2  0  0  0  0
 10  1  1  0  0  0  0
 11  7  2  0  0  0  0
 12  9  1  0  0  0  0
 12  1  2  0  0  0  0
 13 15  1  0  0  0  0
 14 12  1  0  0  0  0
 15 11  1  0  0  0  0
 15 14  2  0  0  0  0
 16 17  1  0  0  0  0
 16  4  1  0  0  0  0
 17 20  2  0  0  0  0
 18  6  2  0  0  0  0
 20 19  1  0  0  0  0
 21 17  1  0  0  0  0
 22 24  2  0  0  0  0
 22 25  1  0  0  0  0
 24 27  1  0  0  0  0
 25 26  2  0  0  0  0
 26 23  1  0  0  0  0
 27 23  2  0  0  0  0
 28 29  1  6  0  0  0
 28 24  1  0  0  0  0
 30 28  1  0  0  0  0
 30 32  1  0  0  0  0
 32 38  1  0  0  0  0
 32 31  1  1  0  0  0
 33 36  1  0  0  0  0
 36 34  1  0  0  0  0
 36 37  1  0  0  0  0
 37 35  2  0  0  0  0
 37 38  1  0  0  0  0
 40 39  1  0  0  0  0
 43 42  1  1  0  0  0
 43 44  1  0  0  0  0
 43 41  1  0  0  0  0
 45 44  1  0  0  0  0
 45 48  1  0  0  0  0
 48 47  2  1  0  0  0
 48 46  1  0  0  0  0
 50 48  1  0  0  0  0
 51 49  2  0  0  0  0
 52 51  1  0  0  0  0
 52 50  1  0  0  0  0
M  END
>  <MODEL>
5

>  <REMARK>
 VINA RESULT:      -6.8      2.566      3.612
  Name = 
  12 active torsions:
  status: ('A' for Active; 'I' for Inactive)
    1  A    between atoms: N_2  and  C_52
    2  A    between atoms: N_2  and  P_53
    3  A    between atoms: C_7  and  N_10
    4  A    between atoms: C_7  and  C_27
    5  A    between atoms: N_10  and  C_22
    6  A    between atoms: C_13  and  P_53
    7  A    between atoms: C_14  and  C_33
    8  A    between atoms: C_17  and  C_39
    9  A    between atoms: C_22  and  N_50
   10  A    between atoms: C_24  and  O_46
   11  A    between atoms: C_30  and  C_39
   12  A    between atoms: C_30  and  C_52
                            x       y       z     vdW  Elec       q    Type
                         _______ _______ _______ _____ _____    ______ ____

>  <TORSDO>
F 12

$$$$
=
 OpenBabel10232409283D

 53 56  0  0  1  0  0  0  0  0999 V2000
  186.8290  177.7840  144.1830 C   0  0  0  0  0  0  0  0  0  0  0  0
  187.1960  178.4780  138.0740 C   0  0  0  0  0  2  0  0  0  0  0  0
  187.7230  177.5480  145.2210 C   0  0  0  0  0  3  0  0  0  0  0  0
  189.0990  177.4780  144.9900 C   0  0  0  0  0  0  0  0  0  0  0  0
  188.5670  178.2750  138.7450 C   0  0  1  0  0  3  0  0  0  0  0  0
  184.8080  178.5640  138.9610 C   0  0  0  0  0  0  0  0  0  0  0  0
  189.1460  178.0040  141.2550 N   0  0  0  0  0  0  0  0  0  0  0  0
  189.9660  177.2480  146.0690 C   0  0  0  0  0  0  0  0  0  0  0  0
  188.6930  177.8670  142.6100 C   0  0  0  0  0  0  0  0  0  0  0  0
  185.3730  177.8620  144.5090 C   0  0  0  0  0  1  0  0  0  0  0  0
  188.2160  178.1800  140.1910 C   0  0  0  0  0  0  0  0  0  0  0  0
  187.3010  177.9470  142.8740 C   0  0  0  0  0  0  0  0  0  0  0  0
  186.2250  178.4490  139.1650 N   0  0  0  0  0  0  0  0  0  0  0  0
  186.3090  178.2430  141.7630 C   0  0  0  0  0  3  0  0  0  0  0  0
  186.9240  178.2730  140.3920 C   0  0  0  0  0  0  0  0  0  0  0  0
  189.6110  177.6390  143.6740 C   0  0  0  0  0  0  0  0  0  0  0  0
  191.0220  177.5640  143.5010 C   0  0  0  0  0  0  0  0  0  0  0  0
  184.3520  178.6740  137.7920 O   0  0  0  0  0  0  0  0  0  0  0  0
  191.3410  177.1880  145.8290 C   0  0  0  0  0  3  0  0  0  0  0  0
  191.8270  177.3440  144.5750 N   0  0  0  0  0  0  0  0  0  0  0  0
  191.6980  177.7220  142.1790 C   0  0  0  0  0  1  0  0  0  0  0  0
  191.0940  175.4660  138.2430 C   0  0  0  0  0  3  0  0  0  0  0  0
  188.5730  176.2320  137.3100 C   0  0  0  0  0  3  0  0  0  0  0  0
  190.4290  174.6720  137.2990 C   0  0  0  0  0  0  0  0  0  0  0  0
  190.4980  176.6340  138.7210 C   0  0  0  0  0  3  0  0  0  0  0  0
  189.2280  177.0190  138.2620 C   0  0  0  0  0  0  0  0  0  0  0  0
  189.1710  175.0650  136.8300 C   0  0  0  0  0  3  0  0  0  0  0  0
  191.0450  173.4140  136.7750 C   0  0  1  0  0  3  0  0  0  0  0  0
  190.2030  172.8310  135.6550 C   0  0  0  0  0  1  0  0  0  0  0  0
  192.3980  173.6700  136.2990 N   0  0  0  0  0  2  0  0  0  0  0  0
  193.0100  172.1650  134.5070 C   0  0  0  0  0  1  0  0  0  0  0  0
  193.0210  172.3880  136.0040 C   0  0  1  0  0  3  0  0  0  0  0  0
  194.7930  169.2110  138.5570 C   0  0  0  0  0  1  0  0  0  0  0  0
  193.5520  169.5130  136.4280 C   0  0  0  0  0  1  0  0  0  0  0  0
  195.9850  171.6960  138.0170 O   0  0  0  0  0  0  0  0  0  0  0  0
  194.3820  170.0860  137.4740 N   0  0  0  0  0  0  0  0  0  0  0  0
  194.9550  171.4000  137.3520 C   0  0  0  0  0  0  0  0  0  0  0  0
  194.3990  172.3880  136.4760 N   0  0  0  0  0  2  0  0  0  0  0  0
  189.2330  178.1720  148.2480 C   0  0  0  0  0  1  0  0  0  0  0  0
  189.4500  177.0830  147.3610 O   0  0  0  0  0  0  0  0  0  0  0  0
  183.8420  178.5270  140.1000 C   0  0  0  0  0  2  0  0  0  0  0  0
  181.3860  178.2150  139.8440 C   0  0  0  0  0  1  0  0  0  0  0  0
  182.7320  177.5150  139.8460 C   0  0  1  0  0  3  0  0  0  0  0  0
  182.9380  176.7450  138.5450 C   0  0  0  0  0  2  0  0  0  0  0  0
  182.9820  175.3090  138.7860 N   0  0  0  0  0  2  0  0  0  0  0  0
  181.5890  175.6620  136.3840 O   0  0  0  0  0  0  0  0  0  0  0  0
  180.6610  174.1030  138.2630 O   0  0  0  0  0  1  0  0  0  0  0  0
  181.9470  174.5410  137.5970 P   0  0  2  0  0  0  0  0  0  0  0  0
  184.5220  175.0920  136.0420 O   0  0  0  0  0  0  0  0  0  0  0  0
  182.8080  173.1140  136.8490 C   0  0  0  0  0  2  0  0  0  0  0  0
  184.2520  173.6130  135.8750 P   0  0  0  0  0  0  0  0  0  0  0  0
  182.6180  173.1200  135.5160 O   0  0  0  0  0  0  0  0  0  0  0  0
  185.5750  172.4220  136.2170 C   0  0  0  0  0 15  0  0  0  0  0  0
  1 10  1  0  0  0  0
  1  3  1  0  0  0  0
  2  5  1  0  0  0  0
  2 13  1  0  0  0  0
  4  3  2  0  0  0  0
  4  8  1  0  0  0  0
  5 26  1  6  0  0  0
  5 11  1  0  0  0  0
  6 13  1  0  0  0  0
  6 41  1  0  0  0  0
  7  9  1  0  0  0  0
  8 40  1  0  0  0  0
  9 12  1  0  0  0  0
  9 16  2  0  0  0  0
 11 15  1  0  0  0  0
 11  7  2  0  0  0  0
 12  1  2  0  0  0  0
 13 15  1  0  0  0  0
 14 12  1  0  0  0  0
 15 14  2  0  0  0  0
 16  4  1  0  0  0  0
 17 16  1  0  0  0  0
 17 20  2  0  0  0  0
 18  6  2  0  0  0  0
 19  8  2  0  0  0  0
 20 19  1  0  0  0  0
 21 17  1  0  0  0  0
 22 25  1  0  0  0  0
 23 26  1  0  0  0  0
 24 22  2  0  0  0  0
 26 25  2  0  0  0  0
 27 24  1  0  0  0  0
 27 23  2  0  0  0  0
 28 29  1  6  0  0  0
 28 24  1  0  0  0  0
 30 28  1  0  0  0  0
 32 31  1  6  0  0  0
 32 30  1  0  0  0  0
 32 38  1  0  0  0  0
 34 36  1  0  0  0  0
 36 33  1  0  0  0  0
 37 36  1  0  0  0  0
 37 35  2  0  0  0  0
 38 37  1  0  0  0  0
 40 39  1  0  0  0  0
 43 42  1  6  0  0  0
 43 41  1  0  0  0  0
 44 45  1  0  0  0  0
 44 43  1  0  0  0  0
 48 46  2  6  0  0  0
 48 47  1  0  0  0  0
 48 45  1  0  0  0  0
 50 48  1  0  0  0  0
 51 49  2  0  0  0  0
 52 51  1  0  0  0  0
 52 50  1  0  0  0  0
M  END
>  <MODEL>
6

>  <REMARK>
 VINA RESULT:      -6.6      1.890      2.378
  Name = 
  12 active torsions:
  status: ('A' for Active; 'I' for Inactive)
    1  A    between atoms: N_2  and  C_52
    2  A    between atoms: N_2  and  P_53
    3  A    between atoms: C_7  and  N_10
    4  A    between atoms: C_7  and  C_27
    5  A    between atoms: N_10  and  C_22
    6  A    between atoms: C_13  and  P_53
    7  A    between atoms: C_14  and  C_33
    8  A    between atoms: C_17  and  C_39
    9  A    between atoms: C_22  and  N_50
   10  A    between atoms: C_24  and  O_46
   11  A    between atoms: C_30  and  C_39
   12  A    between atoms: C_30  and  C_52
                            x       y       z     vdW  Elec       q    Type
                         _______ _______ _______ _____ _____    ______ ____

>  <TORSDO>
F 12

$$$$
=
 OpenBabel10232409283D

 53 56  0  0  1  0  0  0  0  0999 V2000
  187.9720  172.7650  135.8590 C   0  0  0  0  0  0  0  0  0  0  0  0
  193.0030  175.8040  137.7010 C   0  0  0  0  0  2  0  0  0  0  0  0
  186.6050  173.0180  135.8230 C   0  0  0  0  0  3  0  0  0  0  0  0
  186.0850  174.2520  136.2220 C   0  0  0  0  0  0  0  0  0  0  0  0
  191.7070  176.6200  137.8650 C   0  0  1  0  0  3  0  0  0  0  0  0
  193.4960  173.4530  136.8500 C   0  0  0  0  0  0  0  0  0  0  0  0
  189.2770  175.9940  137.2250 N   0  0  0  0  0  0  0  0  0  0  0  0
  184.7000  174.4660  136.1590 C   0  0  0  0  0  0  0  0  0  0  0  0
  188.3520  175.0120  136.7350 C   0  0  0  0  0  0  0  0  0  0  0  0
  188.4560  171.4280  135.4010 C   0  0  0  0  0  1  0  0  0  0  0  0
  190.6670  175.7020  137.3190 C   0  0  0  0  0  0  0  0  0  0  0  0
  188.8560  173.7540  136.3110 C   0  0  0  0  0  0  0  0  0  0  0  0
  192.5840  174.5290  137.1250 N   0  0  0  0  0  0  0  0  0  0  0  0
  190.3470  173.4700  136.3040 C   0  0  0  0  0  3  0  0  0  0  0  0
  191.1760  174.5590  136.9260 C   0  0  0  0  0  0  0  0  0  0  0  0
  186.9540  175.2760  136.6860 C   0  0  0  0  0  0  0  0  0  0  0  0
  186.3670  176.5140  137.0730 C   0  0  0  0  0  0  0  0  0  0  0  0
  194.7170  173.5820  137.1290 O   0  0  0  0  0  0  0  0  0  0  0  0
  184.1900  175.7060  136.5530 C   0  0  0  0  0  3  0  0  0  0  0  0
  185.0200  176.6810  136.9920 N   0  0  0  0  0  0  0  0  0  0  0  0
  187.1580  177.6780  137.5700 C   0  0  0  0  0  1  0  0  0  0  0  0
  192.2130  177.5710  141.5210 C   0  0  0  0  0  3  0  0  0  0  0  0
  190.1360  176.8660  139.7890 C   0  0  0  0  0  3  0  0  0  0  0  0
  190.8980  177.5070  142.0000 C   0  0  0  0  0  0  0  0  0  0  0  0
  192.4870  177.2890  140.1820 C   0  0  0  0  0  3  0  0  0  0  0  0
  191.4460  176.9430  139.3060 C   0  0  0  0  0  0  0  0  0  0  0  0
  189.8640  177.1470  141.1300 C   0  0  0  0  0  3  0  0  0  0  0  0
  190.5800  177.8090  143.4300 C   0  0  1  0  0  3  0  0  0  0  0  0
  191.6070  178.7590  144.0180 C   0  0  0  0  0  1  0  0  0  0  0  0
  189.2470  178.3840  143.5450 N   0  0  0  0  0  2  0  0  0  0  0  0
  187.6930  176.5380  143.7230 C   0  0  0  0  0  1  0  0  0  0  0  0
  188.4880  177.5740  144.4880 C   0  0  1  0  0  3  0  0  0  0  0  0
  188.7480  178.4130  148.8450 C   0  0  0  0  0  1  0  0  0  0  0  0
  187.0990  177.8290  147.0820 C   0  0  0  0  0  1  0  0  0  0  0  0
  190.5940  176.8800  147.3860 O   0  0  0  0  0  0  0  0  0  0  0  0
  188.4830  177.8680  147.5260 N   0  0  0  0  0  0  0  0  0  0  0  0
  189.5310  177.2100  146.7930 C   0  0  0  0  0  0  0  0  0  0  0  0
  189.3990  176.8970  145.4010 N   0  0  0  0  0  2  0  0  0  0  0  0
  182.4420  173.4850  135.8820 C   0  0  0  0  0  1  0  0  0  0  0  0
  183.8520  173.4460  135.7080 O   0  0  0  0  0  0  0  0  0  0  0  0
  193.0330  172.1600  136.2620 C   0  0  0  0  0  2  0  0  0  0  0  0
  194.2540  173.2480  134.3850 C   0  0  0  0  0  1  0  0  0  0  0  0
  193.5720  171.9750  134.8490 C   0  0  1  0  0  3  0  0  0  0  0  0
  194.5240  170.7880  134.7440 C   0  0  0  0  0  2  0  0  0  0  0  0
  195.9070  171.2040  134.9370 N   0  0  0  0  0  2  0  0  0  0  0  0
  197.3430  171.2420  137.3400 O   0  0  0  0  0  1  0  0  0  0  0  0
  197.5990  169.2690  135.6470 O   0  0  0  0  0  0  0  0  0  0  0  0
  196.5800  170.2250  136.2270 P   0  0  2  0  0  0  0  0  0  0  0  0
  197.3710  168.3590  138.5180 O   0  0  0  0  0  0  0  0  0  0  0  0
  195.2450  169.3120  137.0770 C   0  0  0  0  0  2  0  0  0  0  0  0
  195.8810  168.1720  138.3340 P   0  0  0  0  0  0  0  0  0  0  0  0
  195.2760  168.0180  136.7050 O   0  0  0  0  0  0  0  0  0  0  0  0
  194.7850  168.2850  139.7730 C   0  0  0  0  0 15  0  0  0  0  0  0
  1 12  1  0  0  0  0
  2  5  1  0  0  0  0
  3  1  2  0  0  0  0
  3  4  1  0  0  0  0
  4 16  1  0  0  0  0
  5 26  1  1  0  0  0
  6 13  1  0  0  0  0
  6 18  2  0  0  0  0
  7 11  1  0  0  0  0
  8  4  2  0  0  0  0
  8 19  1  0  0  0  0
  9  7  2  0  0  0  0
 10  1  1  0  0  0  0
 11  5  1  0  0  0  0
 12  9  1  0  0  0  0
 13  2  1  0  0  0  0
 14 12  2  0  0  0  0
 14 15  1  0  0  0  0
 15 13  1  0  0  0  0
 15 11  2  0  0  0  0
 16  9  1  0  0  0  0
 16 17  2  0  0  0  0
 17 21  1  0  0  0  0
 19 20  2  0  0  0  0
 20 17  1  0  0  0  0
 22 24  1  0  0  0  0
 23 27  1  0  0  0  0
 24 28  1  0  0  0  0
 25 22  2  0  0  0  0
 26 23  2  0  0  0  0
 26 25  1  0  0  0  0
 27 24  2  0  0  0  0
 28 30  1  0  0  0  0
 28 29  1  6  0  0  0
 30 32  1  0  0  0  0
 32 31  1  6  0  0  0
 32 38  1  0  0  0  0
 34 36  1  0  0  0  0
 36 33  1  0  0  0  0
 37 35  2  0  0  0  0
 37 36  1  0  0  0  0
 38 37  1  0  0  0  0
 40 39  1  0  0  0  0
 40  8  1  0  0  0  0
 41  6  1  0  0  0  0
 43 42  1  1  0  0  0
 43 41  1  0  0  0  0
 44 43  1  0  0  0  0
 44 45  1  0  0  0  0
 45 48  1  0  0  0  0
 48 47  2  6  0  0  0
 48 50  1  0  0  0  0
 48 46  1  0  0  0  0
 51 49  2  0  0  0  0
 52 50  1  0  0  0  0
 52 51  1  0  0  0  0
M  END
>  <MODEL>
7

>  <REMARK>
 VINA RESULT:      -6.4      4.230     11.092
  Name = 
  12 active torsions:
  status: ('A' for Active; 'I' for Inactive)
    1  A    between atoms: N_2  and  C_52
    2  A    between atoms: N_2  and  P_53
    3  A    between atoms: C_7  and  N_10
    4  A    between atoms: C_7  and  C_27
    5  A    between atoms: N_10  and  C_22
    6  A    between atoms: C_13  and  P_53
    7  A    between atoms: C_14  and  C_33
    8  A    between atoms: C_17  and  C_39
    9  A    between atoms: C_22  and  N_50
   10  A    between atoms: C_24  and  O_46
   11  A    between atoms: C_30  and  C_39
   12  A    between atoms: C_30  and  C_52
                            x       y       z     vdW  Elec       q    Type
                         _______ _______ _______ _____ _____    ______ ____

>  <TORSDO>
F 12

$$$$
=
 OpenBabel10232409283D

 53 56  0  0  1  0  0  0  0  0999 V2000
  188.5770  174.5910  136.1350 C   0  0  0  0  0  0  0  0  0  0  0  0
  193.1210  176.9430  139.5640 C   0  0  0  0  0  2  0  0  0  0  0  0
  187.2060  174.7910  136.0140 C   0  0  0  0  0  3  0  0  0  0  0  0
  186.5490  175.7780  136.7520 C   0  0  0  0  0  0  0  0  0  0  0  0
  191.7550  177.5980  139.8360 C   0  0  1  0  0  3  0  0  0  0  0  0
  193.8890  175.0750  138.0090 C   0  0  0  0  0  0  0  0  0  0  0  0
  189.4650  177.1570  138.7080 N   0  0  0  0  0  0  0  0  0  0  0  0
  185.1670  175.9510  136.5900 C   0  0  0  0  0  0  0  0  0  0  0  0
  188.6800  176.3850  137.7880 C   0  0  0  0  0  0  0  0  0  0  0  0
  189.2130  173.5270  135.3010 C   0  0  0  0  0  1  0  0  0  0  0  0
  190.8560  176.9010  138.8720 C   0  0  0  0  0  0  0  0  0  0  0  0
  189.3250  175.3820  137.0170 C   0  0  0  0  0  0  0  0  0  0  0  0
  192.8700  175.9460  138.5260 N   0  0  0  0  0  0  0  0  0  0  0  0
  190.8270  175.1740  137.1030 C   0  0  0  0  0  3  0  0  0  0  0  0
  191.4940  175.9950  138.1710 C   0  0  0  0  0  0  0  0  0  0  0  0
  187.2790  176.5980  137.6550 C   0  0  0  0  0  0  0  0  0  0  0  0
  186.5570  177.5910  138.3750 C   0  0  0  0  0  0  0  0  0  0  0  0
  195.0590  175.1380  138.4710 O   0  0  0  0  0  0  0  0  0  0  0  0
  184.5200  176.9470  137.3260 C   0  0  0  0  0  3  0  0  0  0  0  0
  185.2170  177.7280  138.1840 N   0  0  0  0  0  0  0  0  0  0  0  0
  187.1940  178.5270  139.3480 C   0  0  0  0  0  1  0  0  0  0  0  0
  189.8410  176.3470  142.8850 C   0  0  0  0  0  3  0  0  0  0  0  0
  191.9780  178.0440  142.2820 C   0  0  0  0  0  3  0  0  0  0  0  0
  190.5170  177.0110  143.9180 C   0  0  0  0  0  0  0  0  0  0  0  0
  190.2350  176.5270  141.5590 C   0  0  0  0  0  3  0  0  0  0  0  0
  191.3140  177.3710  141.2510 C   0  0  0  0  0  0  0  0  0  0  0  0
  191.5810  177.8640  143.6090 C   0  0  0  0  0  3  0  0  0  0  0  0
  190.1140  176.8300  145.3470 C   0  0  1  0  0  3  0  0  0  0  0  0
  191.3270  176.8960  146.2580 C   0  0  0  0  0  1  0  0  0  0  0  0
  189.1450  177.8460  145.7350 N   0  0  0  0  0  2  0  0  0  0  0  0
  188.5110  176.8950  147.8670 C   0  0  0  0  0  1  0  0  0  0  0  0
  188.0630  177.1840  146.4500 C   0  0  1  0  0  3  0  0  0  0  0  0
  185.9100  178.6350  142.8440 C   0  0  0  0  0  1  0  0  0  0  0  0
  186.7110  176.5380  143.9050 C   0  0  0  0  0  1  0  0  0  0  0  0
  185.5230  179.6050  145.4510 O   0  0  0  0  0  0  0  0  0  0  0  0
  186.3530  177.9410  144.0390 N   0  0  0  0  0  0  0  0  0  0  0  0
  186.2350  178.5720  145.3260 C   0  0  0  0  0  0  0  0  0  0  0  0
  186.8920  178.0500  146.4870 N   0  0  0  0  0  2  0  0  0  0  0  0
  183.4850  175.6390  134.7970 C   0  0  0  0  0  1  0  0  0  0  0  0
  184.4560  175.1320  135.7020 O   0  0  0  0  0  0  0  0  0  0  0  0
  193.5970  174.0640  136.9490 C   0  0  0  0  0  2  0  0  0  0  0  0
  194.2290  176.0590  135.6010 C   0  0  0  0  0  1  0  0  0  0  0  0
  194.0630  174.5510  135.5830 C   0  0  1  0  0  3  0  0  0  0  0  0
  195.3560  173.8750  135.1370 C   0  0  0  0  0  2  0  0  0  0  0  0
  195.7650  172.8460  136.0860 N   0  0  0  0  0  2  0  0  0  0  0  0
  198.0270  173.5550  134.5970 O   0  0  0  0  0  0  0  0  0  0  0  0
  197.6600  171.0980  135.4040 O   0  0  0  0  0  1  0  0  0  0  0  0
  197.4720  172.5380  135.8280 P   0  0  2  0  0  0  0  0  0  0  0  0
  197.8660  175.4700  136.6040 O   0  0  0  0  0  0  0  0  0  0  0  0
  198.4070  172.8920  137.3570 C   0  0  0  0  0  2  0  0  0  0  0  0
  198.6470  174.6690  137.6220 P   0  0  0  0  0  0  0  0  0  0  0  0
  199.6320  173.3530  137.0390 O   0  0  0  0  0  0  0  0  0  0  0  0
  198.3990  174.9910  139.3890 C   0  0  0  0  0 15  0  0  0  0  0  0
  1 12  1  0  0  0  0
  2  5  1  0  0  0  0
  3  1  2  0  0  0  0
  3  4  1  0  0  0  0
  4 16  1  0  0  0  0
  5 26  1  1  0  0  0
  6 18  2  0  0  0  0
  6 13  1  0  0  0  0
  7 11  1  0  0  0  0
  8  4  2  0  0  0  0
  8 19  1  0  0  0  0
  9  7  2  0  0  0  0
 10  1  1  0  0  0  0
 11  5  1  0  0  0  0
 12 14  2  0  0  0  0
 12  9  1  0  0  0  0
 13  2  1  0  0  0  0
 14 15  1  0  0  0  0
 15 13  1  0  0  0  0
 15 11  2  0  0  0  0
 16  9  1  0  0  0  0
 16 17  2  0  0  0  0
 17 21  1  0  0  0  0
 19 20  2  0  0  0  0
 20 17  1  0  0  0  0
 22 24  1  0  0  0  0
 23 27  1  0  0  0  0
 24 28  1  0  0  0  0
 25 22  2  0  0  0  0
 26 25  1  0  0  0  0
 26 23  2  0  0  0  0
 27 24  2  0  0  0  0
 28 30  1  0  0  0  0
 28 29  1  1  0  0  0
 30 32  1  0  0  0  0
 32 38  1  0  0  0  0
 32 31  1  1  0  0  0
 33 36  1  0  0  0  0
 34 36  1  0  0  0  0
 36 37  1  0  0  0  0
 37 35  2  0  0  0  0
 37 38  1  0  0  0  0
 39 40  1  0  0  0  0
 40  8  1  0  0  0  0
 41  6  1  0  0  0  0
 43 42  1  1  0  0  0
 43 41  1  0  0  0  0
 44 43  1  0  0  0  0
 44 45  1  0  0  0  0
 47 48  1  0  0  0  0
 48 46  2  6  0  0  0
 48 45  1  0  0  0  0
 48 50  1  0  0  0  0
 49 51  2  0  0  0  0
 52 50  1  0  0  0  0
 52 51  1  0  0  0  0
M  END
>  <MODEL>
8

>  <REMARK>
 VINA RESULT:      -6.3      4.022     11.044
  Name = 
  12 active torsions:
  status: ('A' for Active; 'I' for Inactive)
    1  A    between atoms: N_2  and  C_52
    2  A    between atoms: N_2  and  P_53
    3  A    between atoms: C_7  and  N_10
    4  A    between atoms: C_7  and  C_27
    5  A    between atoms: N_10  and  C_22
    6  A    between atoms: C_13  and  P_53
    7  A    between atoms: C_14  and  C_33
    8  A    between atoms: C_17  and  C_39
    9  A    between atoms: C_22  and  N_50
   10  A    between atoms: C_24  and  O_46
   11  A    between atoms: C_30  and  C_39
   12  A    between atoms: C_30  and  C_52
                            x       y       z     vdW  Elec       q    Type
                         _______ _______ _______ _____ _____    ______ ____

>  <TORSDO>
F 12

$$$$
=
 OpenBabel10232409283D

 53 57  0  0  1  0  0  0  0  0999 V2000
  187.2130  177.8610  142.0810 C   0  0  0  0  0  0  0  0  0  0  0  0
  189.0420  177.8040  136.2000 C   0  0  0  0  0  2  0  0  0  0  0  0
  187.8280  177.7520  143.3240 C   0  0  0  0  0  3  0  0  0  0  0  0
  189.2160  177.6530  143.4390 C   0  0  0  0  0  0  0  0  0  0  0  0
  190.2070  177.6830  137.1990 C   0  0  1  0  0  3  0  0  0  0  0  0
  186.5150  178.0000  136.4720 C   0  0  0  0  0  0  0  0  0  0  0  0
  190.1650  177.7190  139.7890 N   0  0  0  0  0  0  0  0  0  0  0  0
  189.7950  177.5560  144.7130 C   0  0  0  0  0  0  0  0  0  0  0  0
  189.3990  177.7500  141.0020 C   0  0  0  0  0  0  0  0  0  0  0  0
  185.7240  177.9800  142.0370 C   0  0  0  0  0  1  0  0  0  0  0  0
  189.5200  177.7650  138.5200 C   0  0  0  0  0  0  0  0  0  0  0  0
  187.9870  177.8620  140.9130 C   0  0  0  0  0  0  0  0  0  0  0  0
  187.8400  177.9090  137.0220 N   0  0  0  0  0  0  0  0  0  0  0  0
  187.2970  178.0220  139.5700 C   0  0  0  0  0  3  0  0  0  0  0  0
  188.2210  177.8830  138.3930 C   0  0  0  0  0  0  0  0  0  0  0  0
  190.0310  177.6520  142.2740 C   0  0  0  0  0  0  0  0  0  0  0  0
  191.4390  177.5550  142.4540 C   0  0  0  0  0  0  0  0  0  0  0  0
  186.3540  177.9670  135.2230 O   0  0  0  0  0  0  0  0  0  0  0  0
  191.1850  177.4650  144.8190 C   0  0  0  0  0  3  0  0  0  0  0  0
  191.9590  177.4670  143.7080 N   0  0  0  0  0  0  0  0  0  0  0  0
  192.4140  177.5500  141.3240 C   0  0  0  0  0  1  0  0  0  0  0  0
  191.2910  174.0570  137.6580 C   0  0  0  0  0  3  0  0  0  0  0  0
  191.9720  176.2880  136.1170 C   0  0  0  0  0  3  0  0  0  0  0  0
  192.3290  173.9670  136.7210 C   0  0  0  0  0  0  0  0  0  0  0  0
  190.5940  175.2560  137.8190 C   0  0  0  0  0  3  0  0  0  0  0  0
  190.9260  176.3760  137.0410 C   0  0  0  0  0  0  0  0  0  0  0  0
  192.6700  175.0880  135.9580 C   0  0  0  0  0  3  0  0  0  0  0  0
  193.0870  172.6920  136.5280 C   0  0  1  0  0  3  0  0  0  0  0  0
  192.4800  171.8720  135.4050 C   0  0  0  0  0  1  0  0  0  0  0  0
  194.4870  172.9710  136.2400 N   0  0  0  0  0  2  0  0  0  0  0  0
  195.3370  173.3480  138.4730 C   0  0  0  0  0  1  0  0  0  0  0  0
  195.2900  172.3860  137.3050 C   0  0  1  0  0  3  0  0  0  0  0  0
  196.9650  168.3670  136.4170 C   0  0  0  0  0  1  0  0  0  0  0  0
  197.6110  170.5620  137.3810 C   0  0  0  0  0  1  0  0  0  0  0  0
  194.4070  168.8500  137.4700 O   0  0  0  0  0  0  0  0  0  0  0  0
  196.5610  169.6270  137.0130 N   0  0  0  0  0  0  0  0  0  0  0  0
  195.1920  169.8340  137.4050 C   0  0  0  0  0  0  0  0  0  0  0  0
  194.6910  171.1320  137.7440 N   0  0  0  0  0  2  0  0  0  0  0  0
  189.4420  177.1110  147.1250 C   0  0  0  0  0  1  0  0  0  0  0  0
  188.9810  177.5500  145.8550 O   0  0  0  0  0  0  0  0  0  0  0  0
  185.3060  178.1040  137.3430 C   0  0  0  0  0  2  0  0  0  0  0  0
  184.5530  175.8030  136.7610 C   0  0  0  0  0  1  0  0  0  0  0  0
  184.1580  177.2670  136.7900 C   0  0  1  0  0  3  0  0  0  0  0  0
  182.8690  177.4590  137.5830 C   0  0  0  0  0  2  0  0  0  0  0  0
  183.0380  178.4630  138.6260 N   0  0  0  0  0  2  0  0  0  0  0  0
  180.2530  178.3800  138.3530 O   0  0  0  0  0  1  0  0  0  0  0  0
  181.6110  180.5080  137.6790 O   0  0  0  0  0  0  0  0  0  0  0  0
  181.5560  179.3970  138.7050 P   0  0  2  0  0  0  0  0  0  0  0  0
  181.1690  177.4160  141.0020 O   0  0  0  0  0  0  0  0  0  0  0  0
  181.3380  180.0790  140.3860 C   0  0  0  0  0  2  0  0  0  0  0  0
  181.0140  178.7890  141.6170 P   0  0  2  0  0  4  0  0  0  0  0  0
  180.0490  179.9600  140.7570 O   0  0  0  0  0  0  0  0  0  0  0  0
  181.9580  179.2100  143.1050 C   0  0  0  0  0  1  0  0  0  0  0  0
  1  3  1  0  0  0  0
  2 13  1  0  0  0  0
  2  5  1  0  0  0  0
  3  4  2  0  0  0  0
  4  8  1  0  0  0  0
  5 26  1  1  0  0  0
  5 11  1  0  0  0  0
  6 13  1  0  0  0  0
  6 41  1  0  0  0  0
  7  9  1  0  0  0  0
  8 19  2  0  0  0  0
  8 40  1  0  0  0  0
  9 16  2  0  0  0  0
 10  1  1  0  0  0  0
 11  7  2  0  0  0  0
 12  9  1  0  0  0  0
 12  1  2  0  0  0  0
 13 15  1  0  0  0  0
 14 12  1  0  0  0  0
 15 11  1  0  0  0  0
 15 14  2  0  0  0  0
 16 17  1  0  0  0  0
 16  4  1  0  0  0  0
 17 20  2  0  0  0  0
 18  6  2  0  0  0  0
 20 19  1  0  0  0  0
 21 17  1  0  0  0  0
 22 25  1  0  0  0  0
 23 26  1  0  0  0  0
 24 22  2  0  0  0  0
 26 25  2  0  0  0  0
 27 23  2  0  0  0  0
 27 24  1  0  0  0  0
 28 29  1  6  0  0  0
 28 24  1  0  0  0  0
 30 28  1  0  0  0  0
 30 32  1  0  0  0  0
 32 38  1  0  0  0  0
 32 31  1  1  0  0  0
 33 36  1  0  0  0  0
 36 34  1  0  0  0  0
 36 37  1  0  0  0  0
 37 35  2  0  0  0  0
 37 38  1  0  0  0  0
 40 39  1  0  0  0  0
 43 42  1  1  0  0  0
 43 41  1  0  0  0  0
 43 44  1  0  0  0  0
 44 45  1  0  0  0  0
 45 48  1  0  0  0  0
 46 48  1  0  0  0  0
 48 47  2  6  0  0  0
 48 50  1  0  0  0  0
 49 51  2  0  0  0  0
 50 52  1  0  0  0  0
 51 53  1  6  0  0  0
 52 51  1  0  0  0  0
M  END
>  <MODEL>
9

>  <REMARK>
 VINA RESULT:      -6.1      2.852      4.375
  Name = 
  12 active torsions:
  status: ('A' for Active; 'I' for Inactive)
    1  A    between atoms: N_2  and  C_52
    2  A    between atoms: N_2  and  P_53
    3  A    between atoms: C_7  and  N_10
    4  A    between atoms: C_7  and  C_27
    5  A    between atoms: N_10  and  C_22
    6  A    between atoms: C_13  and  P_53
    7  A    between atoms: C_14  and  C_33
    8  A    between atoms: C_17  and  C_39
    9  A    between atoms: C_22  and  N_50
   10  A    between atoms: C_24  and  O_46
   11  A    between atoms: C_30  and  C_39
   12  A    between atoms: C_30  and  C_52
                            x       y       z     vdW  Elec       q    Type
                         _______ _______ _______ _____ _____    ______ ____

>  <TORSDO>
F 12

$$$$
