=
 OpenBabel10232408453D

 55 59  0  0  1  0  0  0  0  0999 V2000
  192.6100  177.1100  138.9950 C   0  0  2  0  0  3  0  0  0  0  0  0
  191.5470  176.3030  139.6410 N   0  0  2  0  0  0  0  0  0  0  0  0
  190.5780  175.7130  138.6890 C   0  0  0  0  0  2  0  0  0  0  0  0
  192.7670  175.4640  136.9820 C   0  0  2  0  0  3  0  0  0  0  0  0
  191.5350  176.1260  136.3370 C   0  0  0  0  0  2  0  0  0  0  0  0
  193.5120  176.2850  138.0580 C   0  0  0  0  0  2  0  0  0  0  0  0
  193.4190  177.7010  139.9560 F   0  0  0  0  0  0  0  0  0  0  0  0
  190.4760  176.5190  137.3780 C   0  0  1  0  0  3  0  0  0  0  0  0
  184.2580  174.7400  136.3240 C   0  0  0  0  0  0  0  0  0  0  0  0
  187.6480  177.8290  135.2680 C   0  0  0  0  0  3  0  0  0  0  0  0
  186.4520  177.7430  136.1570 C   0  0  0  0  0  2  0  0  0  0  0  0
  189.0900  176.5310  136.8300 C   0  0  0  0  0  0  0  0  0  0  0  0
  184.7570  175.9750  136.0550 N   0  0  0  0  0  0  0  0  0  0  0  0
  186.8970  175.3820  136.9600 C   0  0  0  0  0  0  0  0  0  0  0  0
  186.3930  174.1110  137.2510 C   0  0  0  0  0  3  0  0  0  0  0  0
  186.0390  176.3230  136.3560 C   0  0  0  0  0  0  0  0  0  0  0  0
  188.2510  175.6700  137.3430 N   0  0  0  0  0  0  0  0  0  0  0  0
  188.8260  177.3080  135.6050 C   0  0  0  0  0  3  0  0  0  0  0  0
  185.0780  173.7780  136.9290 C   0  0  0  0  0  3  0  0  0  0  0  0
  182.9330  174.4490  136.0050 O   0  0  0  0  0  0  0  0  0  0  0  0
  181.9840  174.4160  136.9490 O   0  0  0  0  0  1  0  0  0  0  0  0
  190.8440  177.1390  140.6320 C   0  0  1  0  0  3  0  0  0  0  0  0
  187.5930  178.6030  139.9510 O   0  0  0  0  0  0  0  0  0  0  0  0
  189.7800  177.9170  140.0490 O   0  0  0  0  0  0  0  0  0  0  0  0
  188.4920  178.0090  140.5980 C   0  0  0  0  0  0  0  0  0  0  0  0
  187.2480  178.0990  142.6140 F   0  0  0  0  0  0  0  0  0  0  0  0
  188.1490  177.3370  141.8910 C   0  0  2  0  0  3  0  0  0  0  0  0
  189.4100  177.0430  142.7070 C   0  0  1  0  0  3  0  0  0  0  0  0
  190.3930  176.2800  141.8180 C   0  0  0  0  0  2  0  0  0  0  0  0
  190.0600  178.3140  143.2690 C   0  0  0  0  0  2  0  0  0  0  0  0
  189.8430  178.4660  144.7700 C   0  0  0  0  0  2  0  0  0  0  0  0
  189.9260  177.1380  145.5120 C   0  0  2  0  0  3  0  0  0  0  0  0
  188.6490  176.9560  146.3160 C   0  0  0  0  0  2  0  0  0  0  0  0
  187.6740  178.0890  146.0520 C   0  0  0  0  0  2  0  0  0  0  0  0
  186.3540  177.5120  145.5780 C   0  0  0  0  0  2  0  0  0  0  0  0
  185.2520  178.2780  146.1430 N   0  0  0  0  0  0  0  0  0  0  0  0
  185.8250  179.1820  147.1250 C   0  0  0  0  0  1  0  0  0  0  0  0
  184.7050  179.1030  145.0750 C   0  0  0  0  0  2  0  0  0  0  0  0
  184.3810  178.3020  143.9800 O   0  0  0  0  0  1  0  0  0  0  0  0
  191.1350  177.1050  146.4390 C   0  0  0  0  0  2  0  0  0  0  0  0
  192.0010  175.4520  144.9550 O   0  0  0  0  0  0  0  0  0  0  0  0
  192.7890  175.3580  147.1090 O   0  0  0  0  0  1  0  0  0  0  0  0
  191.9870  175.9230  146.1240 C   0  0  0  0  0  0  0  0  0  0  0  0
  193.6710  174.8960  135.9790 N   0  0  0  0  0  2  0  0  0  0  0  0
  194.3920  173.7460  136.5230 C   0  0  0  0  0  2  0  0  0  0  0  0
  196.6960  174.7100  138.2730 O   0  0  0  0  0  0  0  0  0  0  0  0
  195.9020  173.9270  136.3580 C   0  0  1  0  0  3  0  0  0  0  0  0
  196.2060  171.4340  135.9180 C   0  0  0  0  0  1  0  0  0  0  0  0
  198.1050  174.7550  138.3400 C   0  0  0  0  0  2  0  0  0  0  0  0
  198.2340  172.7880  136.6370 C   0  0  1  0  0  3  0  0  0  0  0  0
  198.9100  175.0620  136.0950 O   0  0  0  0  0  1  0  0  0  0  0  0
  196.3470  175.0840  137.0490 O   0  0  0  0  0  0  0  0  0  0  0  0
  196.6940  172.6420  136.7120 C   0  0  1  0  0  3  0  0  0  0  0  0
  198.7080  172.4920  135.3550 O   0  0  0  0  0  1  0  0  0  0  0  0
  198.8240  174.1270  137.1330 C   0  0  1  0  0  3  0  0  0  0  0  0
  1  2  1  0  0  0  0
  1  7  1  1  0  0  0
  2  3  1  6  0  0  0
  2 22  1  0  0  0  0
  4 44  1  6  0  0  0
  4  6  1  0  0  0  0
  5  4  1  0  0  0  0
  5  8  1  0  0  0  0
  6  1  1  0  0  0  0
  8 12  1  6  0  0  0
  8  3  1  0  0  0  0
  9 19  1  0  0  0  0
 10 18  2  0  0  0  0
 10 11  1  0  0  0  0
 11 16  1  0  0  0  0
 12 17  2  0  0  0  0
 13  9  2  0  0  0  0
 13 16  1  0  0  0  0
 14 15  1  0  0  0  0
 14 17  1  0  0  0  0
 16 14  2  0  0  0  0
 18 12  1  0  0  0  0
 19 15  2  0  0  0  0
 20  9  1  0  0  0  0
 20 21  1  0  0  0  0
 22 29  1  1  0  0  0
 23 25  2  0  0  0  0
 24 25  1  0  0  0  0
 24 22  1  0  0  0  0
 25 27  1  0  0  0  0
 27 26  1  1  0  0  0
 27 28  1  0  0  0  0
 28 30  1  6  0  0  0
 29 28  1  0  0  0  0
 30 31  1  0  0  0  0
 32 31  1  1  0  0  0
 32 33  1  0  0  0  0
 32 40  1  0  0  0  0
 34 33  1  0  0  0  0
 35 34  1  0  0  0  0
 35 36  1  0  0  0  0
 36 37  1  0  0  0  0
 38 36  1  0  0  0  0
 39 38  1  0  0  0  0
 41 43  2  0  0  0  0
 43 40  1  0  0  0  0
 43 42  1  0  0  0  0
 44 45  1  0  0  0  0
 46 49  1  0  0  0  0
 47 45  1  1  0  0  0
 47 53  1  0  0  0  0
 47 52  1  0  0  0  0
 50 54  1  6  0  0  0
 50 53  1  0  0  0  0
 50 55  1  0  0  0  0
 52 46  1  0  0  0  0
 53 48  1  6  0  0  0
 55 51  1  6  0  0  0
 55 49  1  0  0  0  0
M  END
>  <MODEL>
1

>  <REMARK>
 VINA RESULT:      -8.3      0.000      0.000
  Name = 
  16 active torsions:
  status: ('A' for Active; 'I' for Inactive)
    1  A    between atoms: C_1  and  O_4
    2  A    between atoms: C_2  and  C_26
    3  A    between atoms: C_2  and  C_34
    4  A    between atoms: C_3  and  C_25
    5  A    between atoms: C_3  and  C_37
    6  A    between atoms: C_6  and  C_30
    7  A    between atoms: C_7  and  C_25
    8  A    between atoms: C_7  and  C_39
    9  A    between atoms: C_8  and  N_28
   10  A    between atoms: N_12  and  C_15
   11  A    between atoms: C_23  and  C_53
   12  A    between atoms: C_24  and  N_32
   13  A    between atoms: C_25  and  C_34
   14  A    between atoms: C_26  and  N_28
   15  A    between atoms: C_30  and  N_32
   16  A    between atoms: C_39  and  C_49
                            x       y       z     vdW  Elec       q    Type
                         _______ _______ _______ _____ _____    ______ ____

>  <TORSDO>
F 16

$$$$
=
 OpenBabel10232408453D

 55 59  0  0  1  0  0  0  0  0999 V2000
  188.2440  176.4220  137.6580 C   0  0  2  0  0  3  0  0  0  0  0  0
  187.8880  177.7150  138.2890 N   0  0  2  0  0  0  0  0  0  0  0  0
  188.7900  178.1110  139.3960 C   0  0  0  0  0  2  0  0  0  0  0  0
  190.7940  176.9070  137.8790 C   0  0  2  0  0  3  0  0  0  0  0  0
  190.7580  176.4550  139.3510 C   0  0  0  0  0  2  0  0  0  0  0  0
  189.6270  176.4380  136.9810 C   0  0  0  0  0  2  0  0  0  0  0  0
  187.3020  176.0780  136.6970 F   0  0  0  0  0  0  0  0  0  0  0  0
  189.4710  176.8990  140.0630 C   0  0  1  0  0  3  0  0  0  0  0  0
  187.9760  177.5060  146.4130 C   0  0  0  0  0  0  0  0  0  0  0  0
  191.4360  177.4630  143.2230 C   0  0  0  0  0  3  0  0  0  0  0  0
  190.8170  176.5330  144.2140 C   0  0  0  0  0  2  0  0  0  0  0  0
  189.6470  177.0890  141.5300 C   0  0  0  0  0  0  0  0  0  0  0  0
  189.2140  177.1970  145.9440 N   0  0  0  0  0  0  0  0  0  0  0  0
  188.4190  177.1480  143.6830 C   0  0  0  0  0  0  0  0  0  0  0  0
  187.1380  177.4560  144.1530 C   0  0  0  0  0  3  0  0  0  0  0  0
  189.4640  177.0110  144.6190 C   0  0  0  0  0  0  0  0  0  0  0  0
  188.5810  176.9380  142.2720 N   0  0  0  0  0  0  0  0  0  0  0  0
  190.9120  177.6700  142.0160 C   0  0  0  0  0  3  0  0  0  0  0  0
  186.9100  177.6450  145.5160 C   0  0  0  0  0  3  0  0  0  0  0  0
  187.7810  177.6690  147.7840 O   0  0  0  0  0  0  0  0  0  0  0  0
  188.6510  178.3600  148.5300 O   0  0  0  0  0  1  0  0  0  0  0  0
  186.4940  177.6510  138.7660 C   0  0  1  0  0  3  0  0  0  0  0  0
  185.3510  179.5640  141.6310 O   0  0  0  0  0  0  0  0  0  0  0  0
  186.3390  178.1670  140.1020 O   0  0  0  0  0  0  0  0  0  0  0  0
  185.3290  179.0670  140.4770 C   0  0  0  0  0  0  0  0  0  0  0  0
  183.0690  179.6930  140.1350 F   0  0  0  0  0  0  0  0  0  0  0  0
  184.2860  179.5130  139.5010 C   0  0  2  0  0  3  0  0  0  0  0  0
  184.1660  178.5260  138.3380 C   0  0  1  0  0  3  0  0  0  0  0  0
  185.5590  178.3060  137.7460 C   0  0  0  0  0  2  0  0  0  0  0  0
  183.5390  177.1900  138.7580 C   0  0  0  0  0  2  0  0  0  0  0  0
  182.2780  176.8620  137.9640 C   0  0  0  0  0  2  0  0  0  0  0  0
  182.4030  175.5630  137.1770 C   0  0  2  0  0  3  0  0  0  0  0  0
  183.5060  175.7310  136.1450 C   0  0  0  0  0  2  0  0  0  0  0  0
  184.4340  174.5300  136.1410 C   0  0  0  0  0  2  0  0  0  0  0  0
  184.5990  174.0220  137.5620 C   0  0  0  0  0  2  0  0  0  0  0  0
  185.0570  172.6400  137.5390 N   0  0  0  0  0  0  0  0  0  0  0  0
  183.9660  171.8410  137.0080 C   0  0  0  0  0  1  0  0  0  0  0  0
  186.1480  172.5620  136.5770 C   0  0  0  0  0  2  0  0  0  0  0  0
  187.3610  172.4300  137.2510 O   0  0  0  0  0  1  0  0  0  0  0  0
  181.0900  175.2150  136.4860 C   0  0  0  0  0  2  0  0  0  0  0  0
  180.7080  172.9690  135.7820 O   0  0  0  0  0  0  0  0  0  0  0  0
  180.4880  173.3510  138.0350 O   0  0  0  0  0  1  0  0  0  0  0  0
  180.7430  173.7870  136.7400 C   0  0  0  0  0  0  0  0  0  0  0  0
  192.1050  176.6770  137.2670 N   0  0  0  0  0  2  0  0  0  0  0  0
  192.6500  175.3850  137.6820 C   0  0  0  0  0  2  0  0  0  0  0  0
  195.1760  174.2340  138.9440 O   0  0  0  0  0  0  0  0  0  0  0  0
  194.1240  175.2690  137.2920 C   0  0  1  0  0  3  0  0  0  0  0  0
  193.5290  173.8670  135.2470 C   0  0  0  0  0  1  0  0  0  0  0  0
  196.5120  173.8870  138.6530 C   0  0  0  0  0  2  0  0  0  0  0  0
  195.9140  173.7740  136.1200 C   0  0  1  0  0  3  0  0  0  0  0  0
  197.3340  175.5050  137.0740 O   0  0  0  0  0  1  0  0  0  0  0  0
  194.9590  175.4370  138.4270 O   0  0  0  0  0  0  0  0  0  0  0  0
  194.4220  173.9840  136.4780 C   0  0  1  0  0  3  0  0  0  0  0  0
  196.2320  174.3830  134.9010 O   0  0  0  0  0  1  0  0  0  0  0  0
  196.9450  174.1660  137.2020 C   0  0  1  0  0  3  0  0  0  0  0  0
  1  7  1  6  0  0  0
  1  2  1  0  0  0  0
  2 22  1  0  0  0  0
  2  3  1  1  0  0  0
  3  8  1  0  0  0  0
  4 44  1  6  0  0  0
  4  5  1  0  0  0  0
  5  8  1  0  0  0  0
  6  1  1  0  0  0  0
  6  4  1  0  0  0  0
  8 12  1  1  0  0  0
  9 20  1  0  0  0  0
 10 11  1  0  0  0  0
 11 16  1  0  0  0  0
 12 18  1  0  0  0  0
 12 17  2  0  0  0  0
 13  9  2  0  0  0  0
 14 15  1  0  0  0  0
 14 16  2  0  0  0  0
 15 19  2  0  0  0  0
 16 13  1  0  0  0  0
 17 14  1  0  0  0  0
 18 10  2  0  0  0  0
 19  9  1  0  0  0  0
 20 21  1  0  0  0  0
 22 29  1  6  0  0  0
 22 24  1  0  0  0  0
 24 25  1  0  0  0  0
 25 23  2  0  0  0  0
 27 26  1  1  0  0  0
 27 25  1  0  0  0  0
 28 30  1  1  0  0  0
 28 27  1  0  0  0  0
 29 28  1  0  0  0  0
 31 30  1  0  0  0  0
 32 33  1  6  0  0  0
 32 31  1  0  0  0  0
 34 33  1  0  0  0  0
 34 35  1  0  0  0  0
 36 35  1  0  0  0  0
 37 36  1  0  0  0  0
 38 39  1  0  0  0  0
 38 36  1  0  0  0  0
 40 43  1  0  0  0  0
 40 32  1  0  0  0  0
 41 43  2  0  0  0  0
 43 42  1  0  0  0  0
 44 45  1  0  0  0  0
 47 45  1  1  0  0  0
 47 52  1  0  0  0  0
 49 46  1  0  0  0  0
 50 54  1  6  0  0  0
 50 53  1  0  0  0  0
 50 55  1  0  0  0  0
 52 46  1  0  0  0  0
 53 48  1  6  0  0  0
 53 47  1  0  0  0  0
 55 51  1  1  0  0  0
 55 49  1  0  0  0  0
M  END
>  <MODEL>
2

>  <REMARK>
 VINA RESULT:      -8.2      2.633      8.026
  Name = 
  16 active torsions:
  status: ('A' for Active; 'I' for Inactive)
    1  A    between atoms: C_1  and  O_4
    2  A    between atoms: C_2  and  C_26
    3  A    between atoms: C_2  and  C_34
    4  A    between atoms: C_3  and  C_25
    5  A    between atoms: C_3  and  C_37
    6  A    between atoms: C_6  and  C_30
    7  A    between atoms: C_7  and  C_25
    8  A    between atoms: C_7  and  C_39
    9  A    between atoms: C_8  and  N_28
   10  A    between atoms: N_12  and  C_15
   11  A    between atoms: C_23  and  C_53
   12  A    between atoms: C_24  and  N_32
   13  A    between atoms: C_25  and  C_34
   14  A    between atoms: C_26  and  N_28
   15  A    between atoms: C_30  and  N_32
   16  A    between atoms: C_39  and  C_49
                            x       y       z     vdW  Elec       q    Type
                         _______ _______ _______ _____ _____    ______ ____

>  <TORSDO>
F 16

$$$$
=
 OpenBabel10232408453D

 55 59  0  0  1  0  0  0  0  0999 V2000
  188.3090  176.3450  137.6740 C   0  0  2  0  0  3  0  0  0  0  0  0
  187.9580  177.6530  138.2760 N   0  0  2  0  0  0  0  0  0  0  0  0
  188.8680  178.0760  139.3660 C   0  0  0  0  0  2  0  0  0  0  0  0
  190.8610  176.8340  137.8640 C   0  0  2  0  0  3  0  0  0  0  0  0
  190.8350  176.4180  139.3470 C   0  0  0  0  0  2  0  0  0  0  0  0
  189.6870  176.3440  136.9860 C   0  0  0  0  0  2  0  0  0  0  0  0
  187.3600  175.9780  136.7280 F   0  0  0  0  0  0  0  0  0  0  0  0
  189.5540  176.8800  140.0570 C   0  0  1  0  0  3  0  0  0  0  0  0
  188.1050  177.6730  146.3970 C   0  0  0  0  0  0  0  0  0  0  0  0
  191.5450  177.4980  143.1900 C   0  0  0  0  0  3  0  0  0  0  0  0
  190.9200  176.6030  144.2090 C   0  0  0  0  0  2  0  0  0  0  0  0
  189.7410  177.1050  141.5180 C   0  0  0  0  0  0  0  0  0  0  0  0
  189.3350  177.3340  145.9300 N   0  0  0  0  0  0  0  0  0  0  0  0
  188.5260  177.2370  143.6740 C   0  0  0  0  0  0  0  0  0  0  0  0
  187.2530  177.5760  144.1440 C   0  0  0  0  0  3  0  0  0  0  0  0
  189.5750  177.1110  144.6080 C   0  0  0  0  0  0  0  0  0  0  0  0
  188.6780  176.9880  142.2690 N   0  0  0  0  0  0  0  0  0  0  0  0
  191.0180  177.6810  141.9820 C   0  0  0  0  0  3  0  0  0  0  0  0
  187.0350  177.8030  145.5020 C   0  0  0  0  0  3  0  0  0  0  0  0
  187.9200  177.8750  147.7640 O   0  0  0  0  0  0  0  0  0  0  0  0
  188.9580  177.8870  148.6090 O   0  0  0  0  0  1  0  0  0  0  0  0
  186.5680  177.6020  138.7640 C   0  0  1  0  0  3  0  0  0  0  0  0
  185.4590  179.5510  141.6180 O   0  0  0  0  0  0  0  0  0  0  0  0
  186.4260  178.1330  140.0970 O   0  0  0  0  0  0  0  0  0  0  0  0
  185.4250  179.0420  140.4700 C   0  0  0  0  0  0  0  0  0  0  0  0
  183.1650  179.6770  140.1400 F   0  0  0  0  0  0  0  0  0  0  0  0
  184.3760  179.4840  139.4970 C   0  0  2  0  0  3  0  0  0  0  0  0
  184.2410  178.4850  138.3460 C   0  0  1  0  0  3  0  0  0  0  0  0
  185.6280  178.2520  137.7450 C   0  0  0  0  0  2  0  0  0  0  0  0
  183.6100  177.1570  138.7850 C   0  0  0  0  0  2  0  0  0  0  0  0
  182.2370  176.9290  138.1610 C   0  0  0  0  0  2  0  0  0  0  0  0
  181.2390  176.3280  139.1440 C   0  0  2  0  0  3  0  0  0  0  0  0
  180.8820  174.9290  138.6720 C   0  0  0  0  0  2  0  0  0  0  0  0
  181.2660  174.7320  137.2170 C   0  0  0  0  0  2  0  0  0  0  0  0
  181.4950  173.2540  136.9570 C   0  0  0  0  0  2  0  0  0  0  0  0
  182.6430  173.0830  136.0770 N   0  0  0  0  0  0  0  0  0  0  0  0
  183.8070  173.5570  136.8040 C   0  0  0  0  0  1  0  0  0  0  0  0
  182.8220  171.6520  135.8750 C   0  0  0  0  0  2  0  0  0  0  0  0
  183.6190  171.1280  136.8910 O   0  0  0  0  0  1  0  0  0  0  0  0
  179.9820  177.1850  139.2370 C   0  0  0  0  0  2  0  0  0  0  0  0
  180.1390  179.5250  139.6680 O   0  0  0  0  0  0  0  0  0  0  0  0
  180.5240  178.1580  141.4720 O   0  0  0  0  0  1  0  0  0  0  0  0
  180.2270  178.3550  140.1280 C   0  0  0  0  0  0  0  0  0  0  0  0
  192.1670  176.5870  137.2480 N   0  0  0  0  0  2  0  0  0  0  0  0
  192.7570  175.3520  137.7630 C   0  0  0  0  0  2  0  0  0  0  0  0
  195.3140  174.2500  139.0050 O   0  0  0  0  0  0  0  0  0  0  0  0
  194.2260  175.2430  137.3500 C   0  0  1  0  0  3  0  0  0  0  0  0
  193.6100  173.7950  135.3440 C   0  0  0  0  0  1  0  0  0  0  0  0
  196.6490  173.9100  138.6990 C   0  0  0  0  0  2  0  0  0  0  0  0
  196.0110  173.7410  136.1790 C   0  0  1  0  0  3  0  0  0  0  0  0
  197.4300  175.5030  137.0750 O   0  0  0  0  0  1  0  0  0  0  0  0
  195.0780  175.4400  138.4680 O   0  0  0  0  0  0  0  0  0  0  0  0
  194.5230  173.9440  136.5570 C   0  0  1  0  0  3  0  0  0  0  0  0
  196.3030  174.3280  134.9430 O   0  0  0  0  0  1  0  0  0  0  0  0
  197.0550  174.1640  137.2360 C   0  0  1  0  0  3  0  0  0  0  0  0
  1  7  1  6  0  0  0
  1  2  1  0  0  0  0
  2 22  1  0  0  0  0
  2  3  1  1  0  0  0
  3  8  1  0  0  0  0
  4 44  1  6  0  0  0
  4  5  1  0  0  0  0
  5  8  1  0  0  0  0
  6  1  1  0  0  0  0
  6  4  1  0  0  0  0
  8 12  1  1  0  0  0
  9 20  1  0  0  0  0
 10 11  1  0  0  0  0
 11 16  1  0  0  0  0
 12 18  1  0  0  0  0
 12 17  2  0  0  0  0
 13  9  2  0  0  0  0
 14 15  1  0  0  0  0
 14 16  2  0  0  0  0
 15 19  2  0  0  0  0
 16 13  1  0  0  0  0
 17 14  1  0  0  0  0
 18 10  2  0  0  0  0
 19  9  1  0  0  0  0
 20 21  1  0  0  0  0
 22 29  1  6  0  0  0
 22 24  1  0  0  0  0
 24 25  1  0  0  0  0
 25 23  2  0  0  0  0
 27 26  1  1  0  0  0
 27 25  1  0  0  0  0
 28 30  1  1  0  0  0
 28 27  1  0  0  0  0
 29 28  1  0  0  0  0
 31 30  1  0  0  0  0
 32 31  1  6  0  0  0
 32 40  1  0  0  0  0
 33 32  1  0  0  0  0
 34 33  1  0  0  0  0
 35 34  1  0  0  0  0
 36 37  1  0  0  0  0
 36 35  1  0  0  0  0
 38 36  1  0  0  0  0
 38 39  1  0  0  0  0
 40 43  1  0  0  0  0
 41 43  2  0  0  0  0
 43 42  1  0  0  0  0
 44 45  1  0  0  0  0
 47 45  1  1  0  0  0
 47 52  1  0  0  0  0
 49 46  1  0  0  0  0
 50 54  1  6  0  0  0
 50 53  1  0  0  0  0
 50 55  1  0  0  0  0
 52 46  1  0  0  0  0
 53 48  1  6  0  0  0
 53 47  1  0  0  0  0
 55 51  1  1  0  0  0
 55 49  1  0  0  0  0
M  END
>  <MODEL>
3

>  <REMARK>
 VINA RESULT:      -7.9      3.065      7.941
  Name = 
  16 active torsions:
  status: ('A' for Active; 'I' for Inactive)
    1  A    between atoms: C_1  and  O_4
    2  A    between atoms: C_2  and  C_26
    3  A    between atoms: C_2  and  C_34
    4  A    between atoms: C_3  and  C_25
    5  A    between atoms: C_3  and  C_37
    6  A    between atoms: C_6  and  C_30
    7  A    between atoms: C_7  and  C_25
    8  A    between atoms: C_7  and  C_39
    9  A    between atoms: C_8  and  N_28
   10  A    between atoms: N_12  and  C_15
   11  A    between atoms: C_23  and  C_53
   12  A    between atoms: C_24  and  N_32
   13  A    between atoms: C_25  and  C_34
   14  A    between atoms: C_26  and  N_28
   15  A    between atoms: C_30  and  N_32
   16  A    between atoms: C_39  and  C_49
                            x       y       z     vdW  Elec       q    Type
                         _______ _______ _______ _____ _____    ______ ____

>  <TORSDO>
F 16

$$$$
=
 OpenBabel10232408453D

 55 59  0  0  1  0  0  0  0  0999 V2000
  188.6180  176.4080  137.7800 C   0  0  2  0  0  3  0  0  0  0  0  0
  188.2180  177.7170  138.3490 N   0  0  2  0  0  0  0  0  0  0  0  0
  189.0340  178.1420  139.5100 C   0  0  0  0  0  2  0  0  0  0  0  0
  191.1450  176.9010  138.1790 C   0  0  2  0  0  3  0  0  0  0  0  0
  190.9980  176.4870  139.6560 C   0  0  0  0  0  2  0  0  0  0  0  0
  190.0490  176.4080  137.2080 C   0  0  0  0  0  2  0  0  0  0  0  0
  187.7510  176.0390  136.7600 F   0  0  0  0  0  0  0  0  0  0  0  0
  189.6620  176.9480  140.2570 C   0  0  1  0  0  3  0  0  0  0  0  0
  187.7150  177.5610  146.4830 C   0  0  0  0  0  0  0  0  0  0  0  0
  191.3720  177.7040  143.5230 C   0  0  0  0  0  3  0  0  0  0  0  0
  190.7550  176.7510  144.4930 C   0  0  0  0  0  2  0  0  0  0  0  0
  189.7270  177.1750  141.7280 C   0  0  0  0  0  0  0  0  0  0  0  0
  188.9990  177.3310  146.1010 N   0  0  0  0  0  0  0  0  0  0  0  0
  188.3590  177.1860  143.7950 C   0  0  0  0  0  0  0  0  0  0  0  0
  187.0330  177.4130  144.1750 C   0  0  0  0  0  3  0  0  0  0  0  0
  189.3480  177.1400  144.7990 C   0  0  0  0  0  0  0  0  0  0  0  0
  188.6280  176.9630  142.4020 N   0  0  0  0  0  0  0  0  0  0  0  0
  190.9160  177.8530  142.2810 C   0  0  0  0  0  3  0  0  0  0  0  0
  186.7020  177.6090  145.5160 C   0  0  0  0  0  3  0  0  0  0  0  0
  187.4190  177.7350  147.8340 O   0  0  0  0  0  0  0  0  0  0  0  0
  188.3530  178.1460  148.7010 O   0  0  0  0  0  1  0  0  0  0  0  0
  186.7910  177.6640  138.7210 C   0  0  1  0  0  3  0  0  0  0  0  0
  185.4710  179.5240  141.5440 O   0  0  0  0  0  0  0  0  0  0  0  0
  186.5470  178.1490  140.0560 O   0  0  0  0  0  0  0  0  0  0  0  0
  185.5260  179.0560  140.3800 C   0  0  0  0  0  0  0  0  0  0  0  0
  183.3060  179.7290  139.8910 F   0  0  0  0  0  0  0  0  0  0  0  0
  184.5640  179.5440  139.3420 C   0  0  2  0  0  3  0  0  0  0  0  0
  184.5140  178.5890  138.1480 C   0  0  1  0  0  3  0  0  0  0  0  0
  185.9430  178.3610  137.6530 C   0  0  0  0  0  2  0  0  0  0  0  0
  183.8380  177.2530  138.4870 C   0  0  0  0  0  2  0  0  0  0  0  0
  183.0220  176.7000  137.3230 C   0  0  0  0  0  2  0  0  0  0  0  0
  181.5200  176.8190  137.5520 C   0  0  2  0  0  3  0  0  0  0  0  0
  180.9830  177.9240  136.6580 C   0  0  0  0  0  2  0  0  0  0  0  0
  180.8040  179.2140  137.4380 C   0  0  0  0  0  2  0  0  0  0  0  0
  180.5010  180.3440  136.4710 C   0  0  0  0  0  2  0  0  0  0  0  0
  180.2320  181.5670  137.2140 N   0  0  0  0  0  0  0  0  0  0  0  0
  181.3600  181.7790  138.1040 C   0  0  0  0  0  1  0  0  0  0  0  0
  180.2330  182.6640  136.2570 C   0  0  0  0  0  2  0  0  0  0  0  0
  180.7900  182.2370  135.0520 O   0  0  0  0  0  1  0  0  0  0  0  0
  181.2140  177.1330  139.0120 C   0  0  0  0  0  2  0  0  0  0  0  0
  179.9830  176.1010  140.7740 O   0  0  0  0  0  1  0  0  0  0  0  0
  180.5090  174.7370  139.0040 O   0  0  0  0  0  0  0  0  0  0  0  0
  180.5430  175.9660  139.6540 C   0  0  0  0  0  0  0  0  0  0  0  0
  192.4980  176.6560  137.6730 N   0  0  0  0  0  2  0  0  0  0  0  0
  192.5930  175.3250  137.0730 C   0  0  0  0  0  2  0  0  0  0  0  0
  194.9170  174.9500  139.0110 O   0  0  0  0  0  0  0  0  0  0  0  0
  194.0530  174.8810  136.9720 C   0  0  1  0  0  3  0  0  0  0  0  0
  193.3520  172.5930  136.0930 C   0  0  0  0  0  1  0  0  0  0  0  0
  196.2090  174.3910  139.1120 C   0  0  0  0  0  2  0  0  0  0  0  0
  195.6800  172.8430  137.0840 C   0  0  1  0  0  3  0  0  0  0  0  0
  197.2730  174.6800  136.9740 O   0  0  0  0  0  1  0  0  0  0  0  0
  194.8670  175.6220  137.8680 O   0  0  0  0  0  0  0  0  0  0  0  0
  194.2150  173.3450  137.1020 C   0  0  1  0  0  3  0  0  0  0  0  0
  196.1080  172.5810  135.7780 O   0  0  0  0  0  1  0  0  0  0  0  0
  196.7170  173.7160  137.8240 C   0  0  1  0  0  3  0  0  0  0  0  0
  1  7  1  6  0  0  0
  1  2  1  0  0  0  0
  2 22  1  0  0  0  0
  2  3  1  1  0  0  0
  3  8  1  0  0  0  0
  4 44  1  6  0  0  0
  4  5  1  0  0  0  0
  5  8  1  0  0  0  0
  6  1  1  0  0  0  0
  6  4  1  0  0  0  0
  8 12  1  1  0  0  0
  9 20  1  0  0  0  0
 10 11  1  0  0  0  0
 11 16  1  0  0  0  0
 12 18  1  0  0  0  0
 12 17  2  0  0  0  0
 13  9  2  0  0  0  0
 14 15  1  0  0  0  0
 14 16  2  0  0  0  0
 15 19  2  0  0  0  0
 16 13  1  0  0  0  0
 17 14  1  0  0  0  0
 18 10  2  0  0  0  0
 19  9  1  0  0  0  0
 20 21  1  0  0  0  0
 22 29  1  6  0  0  0
 22 24  1  0  0  0  0
 24 25  1  0  0  0  0
 25 23  2  0  0  0  0
 27 26  1  1  0  0  0
 27 25  1  0  0  0  0
 28 30  1  1  0  0  0
 28 27  1  0  0  0  0
 29 28  1  0  0  0  0
 31 32  1  0  0  0  0
 31 30  1  0  0  0  0
 32 33  1  6  0  0  0
 32 40  1  0  0  0  0
 33 34  1  0  0  0  0
 35 36  1  0  0  0  0
 35 34  1  0  0  0  0
 36 37  1  0  0  0  0
 38 36  1  0  0  0  0
 39 38  1  0  0  0  0
 40 43  1  0  0  0  0
 42 43  2  0  0  0  0
 43 41  1  0  0  0  0
 45 44  1  0  0  0  0
 46 49  1  0  0  0  0
 47 45  1  1  0  0  0
 47 53  1  0  0  0  0
 47 52  1  0  0  0  0
 50 54  1  6  0  0  0
 50 53  1  0  0  0  0
 50 55  1  0  0  0  0
 52 46  1  0  0  0  0
 53 48  1  6  0  0  0
 55 51  1  6  0  0  0
 55 49  1  0  0  0  0
M  END
>  <MODEL>
4

>  <REMARK>
 VINA RESULT:      -7.8      3.551      7.859
  Name = 
  16 active torsions:
  status: ('A' for Active; 'I' for Inactive)
    1  A    between atoms: C_1  and  O_4
    2  A    between atoms: C_2  and  C_26
    3  A    between atoms: C_2  and  C_34
    4  A    between atoms: C_3  and  C_25
    5  A    between atoms: C_3  and  C_37
    6  A    between atoms: C_6  and  C_30
    7  A    between atoms: C_7  and  C_25
    8  A    between atoms: C_7  and  C_39
    9  A    between atoms: C_8  and  N_28
   10  A    between atoms: N_12  and  C_15
   11  A    between atoms: C_23  and  C_53
   12  A    between atoms: C_24  and  N_32
   13  A    between atoms: C_25  and  C_34
   14  A    between atoms: C_26  and  N_28
   15  A    between atoms: C_30  and  N_32
   16  A    between atoms: C_39  and  C_49
                            x       y       z     vdW  Elec       q    Type
                         _______ _______ _______ _____ _____    ______ ____

>  <TORSDO>
F 16

$$$$
=
 OpenBabel10232408453D

 55 59  0  0  1  0  0  0  0  0999 V2000
  189.0180  177.5940  136.4580 C   0  0  2  0  0  3  0  0  0  0  0  0
  189.3090  176.2580  137.0320 N   0  0  2  0  0  0  0  0  0  0  0  0
  189.0600  176.1640  138.4900 C   0  0  0  0  0  2  0  0  0  0  0  0
  186.9420  177.9090  138.0010 C   0  0  2  0  0  3  0  0  0  0  0  0
  187.8620  178.3400  139.1590 C   0  0  0  0  0  2  0  0  0  0  0  0
  187.5350  177.9940  136.5760 C   0  0  0  0  0  2  0  0  0  0  0  0
  189.3640  177.6270  135.1140 F   0  0  0  0  0  0  0  0  0  0  0  0
  189.1670  177.5300  139.1950 C   0  0  1  0  0  3  0  0  0  0  0  0
  189.5040  177.0950  145.7240 C   0  0  0  0  0  0  0  0  0  0  0  0
  191.9530  177.2430  141.7080 C   0  0  0  0  0  3  0  0  0  0  0  0
  191.4680  176.2230  142.6850 C   0  0  0  0  0  2  0  0  0  0  0  0
  189.7480  177.4150  140.5620 C   0  0  0  0  0  0  0  0  0  0  0  0
  190.5060  176.7340  144.8800 N   0  0  0  0  0  0  0  0  0  0  0  0
  189.1520  177.2110  142.9600 C   0  0  0  0  0  0  0  0  0  0  0  0
  188.1090  177.5760  143.8170 C   0  0  0  0  0  3  0  0  0  0  0  0
  190.3670  176.7750  143.5270 C   0  0  0  0  0  0  0  0  0  0  0  0
  188.9030  177.2550  141.5460 N   0  0  0  0  0  0  0  0  0  0  0  0
  191.1760  177.7370  140.7470 C   0  0  0  0  0  3  0  0  0  0  0  0
  188.2790  177.5290  145.2010 C   0  0  0  0  0  3  0  0  0  0  0  0
  189.7030  177.0170  147.1020 O   0  0  0  0  0  0  0  0  0  0  0  0
  190.8110  176.4660  147.6120 O   0  0  0  0  0  1  0  0  0  0  0  0
  190.7080  175.8990  136.7310 C   0  0  1  0  0  3  0  0  0  0  0  0
  193.5000  177.3650  138.5270 O   0  0  0  0  0  0  0  0  0  0  0  0
  191.6530  176.8430  137.2700 O   0  0  0  0  0  0  0  0  0  0  0  0
  192.8040  176.4720  137.9820 C   0  0  0  0  0  0  0  0  0  0  0  0
  194.5380  174.8650  138.1590 F   0  0  0  0  0  0  0  0  0  0  0  0
  193.1640  175.0320  138.1800 C   0  0  2  0  0  3  0  0  0  0  0  0
  192.4800  174.1480  137.1350 C   0  0  1  0  0  3  0  0  0  0  0  0
  190.9810  174.4520  137.1530 C   0  0  0  0  0  2  0  0  0  0  0  0
  193.0560  174.3430  135.7270 C   0  0  0  0  0  2  0  0  0  0  0  0
  193.5530  173.0370  135.1140 C   0  0  0  0  0  2  0  0  0  0  0  0
  194.8400  172.5390  135.7600 C   0  0  2  0  0  3  0  0  0  0  0  0
  195.8780  172.3340  134.6690 C   0  0  0  0  0  2  0  0  0  0  0  0
  196.8840  173.4710  134.6550 C   0  0  0  0  0  2  0  0  0  0  0  0
  196.8920  174.1470  136.0140 C   0  0  0  0  0  2  0  0  0  0  0  0
  197.6990  175.3580  135.9550 N   0  0  0  0  0  0  0  0  0  0  0  0
  198.8850  175.0380  135.1800 C   0  0  0  0  0  1  0  0  0  0  0  0
  196.9450  176.3430  135.1910 C   0  0  0  0  0  2  0  0  0  0  0  0
  195.7510  176.6350  135.8480 O   0  0  0  0  0  1  0  0  0  0  0  0
  194.6050  171.2330  136.5080 C   0  0  0  0  0  2  0  0  0  0  0  0
  196.3790  170.2820  137.7870 O   0  0  0  0  0  0  0  0  0  0  0  0
  195.3450  172.1020  138.7290 O   0  0  0  0  0  1  0  0  0  0  0  0
  195.4860  171.1680  137.7100 C   0  0  0  0  0  0  0  0  0  0  0  0
  185.6160  178.5230  138.0970 N   0  0  0  0  0  2  0  0  0  0  0  0
  185.2120  178.6680  139.4950 C   0  0  0  0  0  2  0  0  0  0  0  0
  182.7580  177.1670  138.4850 O   0  0  0  0  0  0  0  0  0  0  0  0
  183.6960  178.8320  139.6060 C   0  0  1  0  0  3  0  0  0  0  0  0
  183.8020  178.5990  142.1430 C   0  0  0  0  0  1  0  0  0  0  0  0
  181.3590  177.0760  138.6480 C   0  0  0  0  0  2  0  0  0  0  0  0
  181.5730  178.2020  140.9870 C   0  0  1  0  0  3  0  0  0  0  0  0
  180.5490  179.3000  139.0720 O   0  0  0  0  0  1  0  0  0  0  0  0
  183.0600  178.4560  138.3940 O   0  0  0  0  0  0  0  0  0  0  0  0
  183.1150  178.1340  140.8620 C   0  0  1  0  0  3  0  0  0  0  0  0
  181.1720  179.3480  141.6810 O   0  0  0  0  0  1  0  0  0  0  0  0
  180.7680  178.0560  139.6770 C   0  0  1  0  0  3  0  0  0  0  0  0
  1  7  1  6  0  0  0
  1  6  1  0  0  0  0
  1  2  1  0  0  0  0
  2  3  1  1  0  0  0
  3  8  1  0  0  0  0
  4 44  1  6  0  0  0
  4  5  1  0  0  0  0
  5  8  1  0  0  0  0
  6  4  1  0  0  0  0
  8 12  1  1  0  0  0
  9 20  1  0  0  0  0
 10 11  1  0  0  0  0
 11 16  1  0  0  0  0
 12 18  1  0  0  0  0
 12 17  2  0  0  0  0
 13  9  2  0  0  0  0
 14 16  2  0  0  0  0
 14 15  1  0  0  0  0
 15 19  2  0  0  0  0
 16 13  1  0  0  0  0
 17 14  1  0  0  0  0
 18 10  2  0  0  0  0
 19  9  1  0  0  0  0
 20 21  1  0  0  0  0
 22  2  1  0  0  0  0
 22 29  1  1  0  0  0
 22 24  1  0  0  0  0
 24 25  1  0  0  0  0
 25 27  1  0  0  0  0
 25 23  2  0  0  0  0
 27 26  1  6  0  0  0
 28 30  1  6  0  0  0
 28 29  1  0  0  0  0
 28 27  1  0  0  0  0
 31 30  1  0  0  0  0
 31 32  1  0  0  0  0
 32 33  1  6  0  0  0
 32 40  1  0  0  0  0
 34 33  1  0  0  0  0
 34 35  1  0  0  0  0
 36 35  1  0  0  0  0
 37 36  1  0  0  0  0
 38 39  1  0  0  0  0
 38 36  1  0  0  0  0
 40 43  1  0  0  0  0
 43 41  2  0  0  0  0
 43 42  1  0  0  0  0
 44 45  1  0  0  0  0
 46 49  1  0  0  0  0
 47 45  1  6  0  0  0
 47 53  1  0  0  0  0
 49 55  1  0  0  0  0
 50 54  1  6  0  0  0
 52 46  1  0  0  0  0
 52 47  1  0  0  0  0
 53 50  1  0  0  0  0
 53 48  1  1  0  0  0
 55 51  1  6  0  0  0
 55 50  1  0  0  0  0
M  END
>  <MODEL>
5

>  <REMARK>
 VINA RESULT:      -7.6      2.984     11.302
  Name = 
  16 active torsions:
  status: ('A' for Active; 'I' for Inactive)
    1  A    between atoms: C_1  and  O_4
    2  A    between atoms: C_2  and  C_26
    3  A    between atoms: C_2  and  C_34
    4  A    between atoms: C_3  and  C_25
    5  A    between atoms: C_3  and  C_37
    6  A    between atoms: C_6  and  C_30
    7  A    between atoms: C_7  and  C_25
    8  A    between atoms: C_7  and  C_39
    9  A    between atoms: C_8  and  N_28
   10  A    between atoms: N_12  and  C_15
   11  A    between atoms: C_23  and  C_53
   12  A    between atoms: C_24  and  N_32
   13  A    between atoms: C_25  and  C_34
   14  A    between atoms: C_26  and  N_28
   15  A    between atoms: C_30  and  N_32
   16  A    between atoms: C_39  and  C_49
                            x       y       z     vdW  Elec       q    Type
                         _______ _______ _______ _____ _____    ______ ____

>  <TORSDO>
F 16

$$$$
=
 OpenBabel10232408453D

 55 59  0  0  1  0  0  0  0  0999 V2000
  189.7810  176.5920  136.7660 C   0  0  2  0  0  3  0  0  0  0  0  0
  189.4760  177.9430  137.2950 N   0  0  2  0  0  0  0  0  0  0  0  0
  190.0620  178.2130  138.6290 C   0  0  0  0  0  2  0  0  0  0  0  0
  192.1950  176.6520  137.7450 C   0  0  2  0  0  3  0  0  0  0  0  0
  191.6490  176.2510  139.1290 C   0  0  0  0  0  2  0  0  0  0  0  0
  191.2860  176.3600  136.5300 C   0  0  0  0  0  2  0  0  0  0  0  0
  189.1230  176.3850  135.5610 F   0  0  0  0  0  0  0  0  0  0  0  0
  190.3020  176.9230  139.4380 C   0  0  1  0  0  3  0  0  0  0  0  0
  191.2110  176.6130  145.9190 C   0  0  0  0  0  0  0  0  0  0  0  0
  188.4220  178.1550  142.4560 C   0  0  0  0  0  3  0  0  0  0  0  0
  189.4830  178.6910  143.3600 C   0  0  0  0  0  2  0  0  0  0  0  0
  190.0640  177.1190  140.8950 C   0  0  0  0  0  0  0  0  0  0  0  0
  190.3950  177.5080  145.3020 N   0  0  0  0  0  0  0  0  0  0  0  0
  191.0390  176.7050  143.1370 C   0  0  0  0  0  0  0  0  0  0  0  0
  191.8900  175.7860  143.7580 C   0  0  0  0  0  3  0  0  0  0  0  0
  190.2900  177.5830  143.9470 C   0  0  0  0  0  0  0  0  0  0  0  0
  191.0190  176.7340  141.7010 N   0  0  0  0  0  0  0  0  0  0  0  0
  188.7060  177.4840  141.3420 C   0  0  0  0  0  3  0  0  0  0  0  0
  191.9760  175.7280  145.1490 C   0  0  0  0  0  3  0  0  0  0  0  0
  191.2850  176.5960  147.3110 O   0  0  0  0  0  0  0  0  0  0  0  0
  190.8510  177.6300  148.0410 O   0  0  0  0  0  1  0  0  0  0  0  0
  188.0130  178.1250  137.3350 C   0  0  1  0  0  3  0  0  0  0  0  0
  185.9640  177.9000  134.3470 O   0  0  0  0  0  0  0  0  0  0  0  0
  187.4470  178.3720  136.0330 O   0  0  0  0  0  0  0  0  0  0  0  0
  186.3080  177.7170  135.5420 C   0  0  0  0  0  0  0  0  0  0  0  0
  184.1960  176.8090  136.1210 F   0  0  0  0  0  0  0  0  0  0  0  0
  185.5530  176.7370  136.3850 C   0  0  2  0  0  3  0  0  0  0  0  0
  185.8420  176.9560  137.8720 C   0  0  1  0  0  3  0  0  0  0  0  0
  187.3580  176.9550  138.0730 C   0  0  0  0  0  2  0  0  0  0  0  0
  185.2250  178.2540  138.4100 C   0  0  0  0  0  2  0  0  0  0  0  0
  185.8360  178.6840  139.7390 C   0  0  0  0  0  2  0  0  0  0  0  0
  184.7840  179.0910  140.7630 C   0  0  2  0  0  3  0  0  0  0  0  0
  185.4930  179.5040  142.0430 C   0  0  0  0  0  2  0  0  0  0  0  0
  184.9950  178.6930  143.2250 C   0  0  0  0  0  2  0  0  0  0  0  0
  185.2300  179.4770  144.5030 C   0  0  0  0  0  2  0  0  0  0  0  0
  184.0850  179.3260  145.3890 N   0  0  0  0  0  0  0  0  0  0  0  0
  183.0330  178.6870  144.6160 C   0  0  0  0  0  1  0  0  0  0  0  0
  184.4690  178.3920  146.4380 C   0  0  0  0  0  2  0  0  0  0  0  0
  185.6690  178.8020  147.0180 O   0  0  0  0  0  1  0  0  0  0  0  0
  183.8240  177.9420  141.0460 C   0  0  0  0  0  2  0  0  0  0  0  0
  181.7440  179.0440  141.4280 O   0  0  0  0  0  1  0  0  0  0  0  0
  181.9200  177.9260  139.4300 O   0  0  0  0  0  0  0  0  0  0  0  0
  182.4370  178.3280  140.6560 C   0  0  0  0  0  0  0  0  0  0  0  0
  193.5700  176.1890  137.5450 N   0  0  0  0  0  2  0  0  0  0  0  0
  193.6120  174.7340  137.4000 C   0  0  0  0  0  2  0  0  0  0  0  0
  196.5080  174.7240  138.3530 O   0  0  0  0  0  0  0  0  0  0  0  0
  194.9590  174.2860  136.8310 C   0  0  1  0  0  3  0  0  0  0  0  0
  194.1490  171.8730  136.6720 C   0  0  0  0  0  1  0  0  0  0  0  0
  197.7830  174.1970  138.0500 C   0  0  0  0  0  2  0  0  0  0  0  0
  196.6540  172.3080  136.6570 C   0  0  1  0  0  3  0  0  0  0  0  0
  197.9570  174.1020  135.6530 O   0  0  0  0  0  1  0  0  0  0  0  0
  195.9910  175.1800  137.2190 O   0  0  0  0  0  0  0  0  0  0  0  0
  195.2670  172.7990  137.1420 C   0  0  1  0  0  3  0  0  0  0  0  0
  196.5860  171.8170  135.3490 O   0  0  0  0  0  1  0  0  0  0  0  0
  197.8250  173.3050  136.7970 C   0  0  1  0  0  3  0  0  0  0  0  0
  1  7  1  6  0  0  0
  1  2  1  0  0  0  0
  2 22  1  0  0  0  0
  2  3  1  1  0  0  0
  3  8  1  0  0  0  0
  4 44  1  6  0  0  0
  4  5  1  0  0  0  0
  5  8  1  0  0  0  0
  6  1  1  0  0  0  0
  6  4  1  0  0  0  0
  8 12  1  1  0  0  0
  9 20  1  0  0  0  0
 10 11  1  0  0  0  0
 11 16  1  0  0  0  0
 12 18  1  0  0  0  0
 12 17  2  0  0  0  0
 13  9  2  0  0  0  0
 14 15  1  0  0  0  0
 14 16  2  0  0  0  0
 15 19  2  0  0  0  0
 16 13  1  0  0  0  0
 17 14  1  0  0  0  0
 18 10  2  0  0  0  0
 19  9  1  0  0  0  0
 20 21  1  0  0  0  0
 22 29  1  6  0  0  0
 23 25  2  0  0  0  0
 24 22  1  0  0  0  0
 25 24  1  0  0  0  0
 25 27  1  0  0  0  0
 27 26  1  1  0  0  0
 27 28  1  0  0  0  0
 28 29  1  0  0  0  0
 28 30  1  6  0  0  0
 30 31  1  0  0  0  0
 32 31  1  6  0  0  0
 32 40  1  0  0  0  0
 32 33  1  0  0  0  0
 33 34  1  0  0  0  0
 34 35  1  0  0  0  0
 35 36  1  0  0  0  0
 36 38  1  0  0  0  0
 37 36  1  0  0  0  0
 38 39  1  0  0  0  0
 42 43  2  0  0  0  0
 43 40  1  0  0  0  0
 43 41  1  0  0  0  0
 45 44  1  0  0  0  0
 47 53  1  0  0  0  0
 47 52  1  0  0  0  0
 47 45  1  1  0  0  0
 49 46  1  0  0  0  0
 50 54  1  6  0  0  0
 50 55  1  0  0  0  0
 50 53  1  0  0  0  0
 52 46  1  0  0  0  0
 53 48  1  6  0  0  0
 55 51  1  6  0  0  0
 55 49  1  0  0  0  0
M  END
>  <MODEL>
6

>  <REMARK>
 VINA RESULT:      -7.3      2.630      6.509
  Name = 
  16 active torsions:
  status: ('A' for Active; 'I' for Inactive)
    1  A    between atoms: C_1  and  O_4
    2  A    between atoms: C_2  and  C_26
    3  A    between atoms: C_2  and  C_34
    4  A    between atoms: C_3  and  C_25
    5  A    between atoms: C_3  and  C_37
    6  A    between atoms: C_6  and  C_30
    7  A    between atoms: C_7  and  C_25
    8  A    between atoms: C_7  and  C_39
    9  A    between atoms: C_8  and  N_28
   10  A    between atoms: N_12  and  C_15
   11  A    between atoms: C_23  and  C_53
   12  A    between atoms: C_24  and  N_32
   13  A    between atoms: C_25  and  C_34
   14  A    between atoms: C_26  and  N_28
   15  A    between atoms: C_30  and  N_32
   16  A    between atoms: C_39  and  C_49
                            x       y       z     vdW  Elec       q    Type
                         _______ _______ _______ _____ _____    ______ ____

>  <TORSDO>
F 16

$$$$
=
 OpenBabel10232408453D

 55 59  0  0  1  0  0  0  0  0999 V2000
  191.8590  177.2060  139.1760 C   0  0  2  0  0  3  0  0  0  0  0  0
  191.0120  176.0440  139.5400 N   0  0  2  0  0  0  0  0  0  0  0  0
  190.2660  175.4650  138.3990 C   0  0  0  0  0  2  0  0  0  0  0  0
  192.5140  176.1340  136.8940 C   0  0  2  0  0  3  0  0  0  0  0  0
  191.1820  176.6070  136.2830 C   0  0  0  0  0  2  0  0  0  0  0  0
  192.9800  176.8500  138.1810 C   0  0  0  0  0  2  0  0  0  0  0  0
  192.4500  177.7460  140.3110 F   0  0  0  0  0  0  0  0  0  0  0  0
  190.0160  176.4920  137.2760 C   0  0  1  0  0  3  0  0  0  0  0  0
  184.0220  174.1300  136.0810 C   0  0  0  0  0  0  0  0  0  0  0  0
  187.3780  177.1100  134.6640 C   0  0  0  0  0  3  0  0  0  0  0  0
  186.0980  177.1510  135.4320 C   0  0  0  0  0  2  0  0  0  0  0  0
  188.6970  176.2920  136.6130 C   0  0  0  0  0  0  0  0  0  0  0  0
  184.4970  175.3020  135.5820 N   0  0  0  0  0  0  0  0  0  0  0  0
  186.5500  175.0660  136.7970 C   0  0  0  0  0  0  0  0  0  0  0  0
  186.0700  173.8630  137.3250 C   0  0  0  0  0  3  0  0  0  0  0  0
  185.7240  175.7900  135.9130 C   0  0  0  0  0  0  0  0  0  0  0  0
  187.8430  175.5180  137.2290 N   0  0  0  0  0  0  0  0  0  0  0  0
  188.5330  176.7550  135.2210 C   0  0  0  0  0  3  0  0  0  0  0  0
  184.8110  173.3840  136.9660 C   0  0  0  0  0  3  0  0  0  0  0  0
  182.7510  173.6910  135.7140 O   0  0  0  0  0  0  0  0  0  0  0  0
  181.6670  174.4430  135.9390 O   0  0  0  0  0  1  0  0  0  0  0  0
  190.0780  176.4460  140.6090 C   0  0  1  0  0  3  0  0  0  0  0  0
  190.9810  176.2630  144.1190 O   0  0  0  0  0  0  0  0  0  0  0  0
  190.4710  175.9520  141.9040 O   0  0  0  0  0  0  0  0  0  0  0  0
  190.5000  176.7430  143.0630 C   0  0  0  0  0  0  0  0  0  0  0  0
  189.4340  178.5130  144.2270 F   0  0  0  0  0  0  0  0  0  0  0  0
  190.0560  178.1730  143.0370 C   0  0  2  0  0  3  0  0  0  0  0  0
  189.1450  178.4430  141.8370 C   0  0  1  0  0  3  0  0  0  0  0  0
  189.8580  177.9600  140.5730 C   0  0  0  0  0  2  0  0  0  0  0  0
  187.7720  177.7720  141.9750 C   0  0  0  0  0  2  0  0  0  0  0  0
  186.6480  178.6170  141.3830 C   0  0  0  0  0  2  0  0  0  0  0  0
  185.4160  178.6640  142.2790 C   0  0  2  0  0  3  0  0  0  0  0  0
  185.6130  177.6790  143.4190 C   0  0  0  0  0  2  0  0  0  0  0  0
  185.9380  178.4030  144.7130 C   0  0  0  0  0  2  0  0  0  0  0  0
  186.7420  177.4830  145.6120 C   0  0  0  0  0  2  0  0  0  0  0  0
  186.3180  177.6540  146.9940 N   0  0  0  0  0  0  0  0  0  0  0  0
  187.4860  178.0810  147.7450 C   0  0  0  0  0  1  0  0  0  0  0  0
  185.3680  178.7560  147.0220 C   0  0  0  0  0  2  0  0  0  0  0  0
  185.9560  179.8700  147.6200 O   0  0  0  0  0  1  0  0  0  0  0  0
  184.1580  178.3110  141.4950 C   0  0  0  0  0  2  0  0  0  0  0  0
  184.1840  177.7940  139.1670 O   0  0  0  0  0  0  0  0  0  0  0  0
  184.6350  179.9810  139.7000 O   0  0  0  0  0  1  0  0  0  0  0  0
  184.3340  178.6720  140.0580 C   0  0  0  0  0  0  0  0  0  0  0  0
  193.5740  176.0360  135.8880 N   0  0  0  0  0  2  0  0  0  0  0  0
  194.0060  174.6490  135.7220 C   0  0  0  0  0  2  0  0  0  0  0  0
  196.0220  174.8890  137.9970 O   0  0  0  0  0  0  0  0  0  0  0  0
  195.5240  174.5340  135.8680 C   0  0  1  0  0  3  0  0  0  0  0  0
  195.4690  172.1070  135.0860 C   0  0  0  0  0  1  0  0  0  0  0  0
  197.3700  174.6340  138.3270 C   0  0  0  0  0  2  0  0  0  0  0  0
  197.5060  172.9130  136.3760 C   0  0  1  0  0  3  0  0  0  0  0  0
  198.6720  175.0480  136.3470 O   0  0  0  0  0  1  0  0  0  0  0  0
  196.0110  175.4780  136.8080 O   0  0  0  0  0  0  0  0  0  0  0  0
  195.9830  173.0790  136.1440 C   0  0  1  0  0  3  0  0  0  0  0  0
  198.1800  172.6890  135.1710 O   0  0  0  0  0  1  0  0  0  0  0  0
  198.2060  174.0280  137.1850 C   0  0  1  0  0  3  0  0  0  0  0  0
  1  2  1  0  0  0  0
  1  7  1  1  0  0  0
  2  3  1  6  0  0  0
  2 22  1  0  0  0  0
  4 44  1  6  0  0  0
  4  6  1  0  0  0  0
  5  4  1  0  0  0  0
  5  8  1  0  0  0  0
  6  1  1  0  0  0  0
  8 12  1  6  0  0  0
  8  3  1  0  0  0  0
  9 19  1  0  0  0  0
 10 18  2  0  0  0  0
 10 11  1  0  0  0  0
 11 16  1  0  0  0  0
 12 17  2  0  0  0  0
 13 16  1  0  0  0  0
 13  9  2  0  0  0  0
 14 17  1  0  0  0  0
 14 15  1  0  0  0  0
 16 14  2  0  0  0  0
 18 12  1  0  0  0  0
 19 15  2  0  0  0  0
 20 21  1  0  0  0  0
 20  9  1  0  0  0  0
 22 29  1  1  0  0  0
 22 24  1  0  0  0  0
 24 25  1  0  0  0  0
 25 23  2  0  0  0  0
 27 25  1  0  0  0  0
 27 26  1  1  0  0  0
 28 30  1  1  0  0  0
 28 27  1  0  0  0  0
 29 28  1  0  0  0  0
 31 30  1  0  0  0  0
 32 31  1  6  0  0  0
 32 33  1  0  0  0  0
 33 34  1  0  0  0  0
 34 35  1  0  0  0  0
 35 36  1  0  0  0  0
 36 38  1  0  0  0  0
 36 37  1  0  0  0  0
 38 39  1  0  0  0  0
 40 32  1  0  0  0  0
 41 43  2  0  0  0  0
 42 43  1  0  0  0  0
 43 40  1  0  0  0  0
 45 44  1  0  0  0  0
 46 49  1  0  0  0  0
 47 45  1  1  0  0  0
 47 53  1  0  0  0  0
 47 52  1  0  0  0  0
 50 54  1  6  0  0  0
 50 55  1  0  0  0  0
 52 46  1  0  0  0  0
 53 48  1  6  0  0  0
 53 50  1  0  0  0  0
 55 51  1  6  0  0  0
 55 49  1  0  0  0  0
M  END
>  <MODEL>
7

>  <REMARK>
 VINA RESULT:      -7.3      1.616      3.387
  Name = 
  16 active torsions:
  status: ('A' for Active; 'I' for Inactive)
    1  A    between atoms: C_1  and  O_4
    2  A    between atoms: C_2  and  C_26
    3  A    between atoms: C_2  and  C_34
    4  A    between atoms: C_3  and  C_25
    5  A    between atoms: C_3  and  C_37
    6  A    between atoms: C_6  and  C_30
    7  A    between atoms: C_7  and  C_25
    8  A    between atoms: C_7  and  C_39
    9  A    between atoms: C_8  and  N_28
   10  A    between atoms: N_12  and  C_15
   11  A    between atoms: C_23  and  C_53
   12  A    between atoms: C_24  and  N_32
   13  A    between atoms: C_25  and  C_34
   14  A    between atoms: C_26  and  N_28
   15  A    between atoms: C_30  and  N_32
   16  A    between atoms: C_39  and  C_49
                            x       y       z     vdW  Elec       q    Type
                         _______ _______ _______ _____ _____    ______ ____

>  <TORSDO>
F 16

$$$$
=
 OpenBabel10232408453D

 55 59  0  0  1  0  0  0  0  0999 V2000
  189.0420  177.7030  136.6200 C   0  0  2  0  0  3  0  0  0  0  0  0
  189.3440  176.3590  137.1680 N   0  0  2  0  0  0  0  0  0  0  0  0
  189.0900  176.2320  138.6220 C   0  0  0  0  0  2  0  0  0  0  0  0
  186.9580  177.9670  138.1610 C   0  0  2  0  0  3  0  0  0  0  0  0
  187.8700  178.3830  139.3320 C   0  0  0  0  0  2  0  0  0  0  0  0
  187.5550  178.0870  136.7410 C   0  0  0  0  0  2  0  0  0  0  0  0
  189.3920  177.7670  135.2780 F   0  0  0  0  0  0  0  0  0  0  0  0
  189.1820  177.5850  139.3560 C   0  0  1  0  0  3  0  0  0  0  0  0
  189.5090  177.1420  145.8850 C   0  0  0  0  0  0  0  0  0  0  0  0
  191.9580  177.1840  141.8660 C   0  0  0  0  0  3  0  0  0  0  0  0
  191.4310  176.1870  142.8440 C   0  0  0  0  0  2  0  0  0  0  0  0
  189.7600  177.4470  140.7220 C   0  0  0  0  0  0  0  0  0  0  0  0
  190.4940  176.7390  145.0400 N   0  0  0  0  0  0  0  0  0  0  0  0
  189.1590  177.2700  143.1200 C   0  0  0  0  0  0  0  0  0  0  0  0
  188.1340  177.6790  143.9790 C   0  0  0  0  0  3  0  0  0  0  0  0
  190.3560  176.7840  143.6860 C   0  0  0  0  0  0  0  0  0  0  0  0
  188.9100  177.3230  141.7070 N   0  0  0  0  0  0  0  0  0  0  0  0
  191.2000  177.7090  140.9050 C   0  0  0  0  0  3  0  0  0  0  0  0
  188.3030  177.6260  145.3620 C   0  0  0  0  0  3  0  0  0  0  0  0
  189.7070  177.0570  147.2620 O   0  0  0  0  0  0  0  0  0  0  0  0
  190.7180  176.3460  147.7750 O   0  0  0  0  0  1  0  0  0  0  0  0
  190.7460  176.0180  136.8640 C   0  0  1  0  0  3  0  0  0  0  0  0
  193.5100  177.3340  138.8140 O   0  0  0  0  0  0  0  0  0  0  0  0
  191.6850  176.9160  137.4890 O   0  0  0  0  0  0  0  0  0  0  0  0
  192.8220  176.4880  138.1900 C   0  0  0  0  0  0  0  0  0  0  0  0
  194.5490  174.8650  138.2750 F   0  0  0  0  0  0  0  0  0  0  0  0
  193.1750  175.0360  138.2850 C   0  0  2  0  0  3  0  0  0  0  0  0
  192.5070  174.2350  137.1650 C   0  0  1  0  0  3  0  0  0  0  0  0
  191.0090  174.5430  137.1800 C   0  0  0  0  0  2  0  0  0  0  0  0
  193.1080  174.5340  135.7850 C   0  0  0  0  0  2  0  0  0  0  0  0
  193.9310  173.3700  135.2420 C   0  0  0  0  0  2  0  0  0  0  0  0
  195.4180  173.6910  135.1610 C   0  0  2  0  0  3  0  0  0  0  0  0
  196.1440  172.8750  136.2180 C   0  0  0  0  0  2  0  0  0  0  0  0
  195.2010  171.8940  136.8900 C   0  0  0  0  0  2  0  0  0  0  0  0
  196.0090  170.9070  137.7120 C   0  0  0  0  0  2  0  0  0  0  0  0
  195.9250  169.5840  137.1110 N   0  0  0  0  0  0  0  0  0  0  0  0
  197.2830  169.1760  136.7950 C   0  0  0  0  0  1  0  0  0  0  0  0
  195.4360  168.6730  138.1370 C   0  0  0  0  0  2  0  0  0  0  0  0
  194.9800  169.4020  139.2350 O   0  0  0  0  0  1  0  0  0  0  0  0
  195.6690  175.1780  135.3860 C   0  0  0  0  0  2  0  0  0  0  0  0
  197.6260  175.8180  136.5880 O   0  0  0  0  0  1  0  0  0  0  0  0
  197.9600  175.2290  134.3950 O   0  0  0  0  0  0  0  0  0  0  0  0
  197.1340  175.4370  135.4930 C   0  0  0  0  0  0  0  0  0  0  0  0
  185.6260  178.5670  138.2650 N   0  0  0  0  0  2  0  0  0  0  0  0
  185.2640  178.7860  139.6650 C   0  0  0  0  0  2  0  0  0  0  0  0
  182.7030  177.6500  138.4630 O   0  0  0  0  0  0  0  0  0  0  0  0
  183.7660  179.0610  139.8000 C   0  0  1  0  0  3  0  0  0  0  0  0
  183.8260  178.4760  142.2800 C   0  0  0  0  0  1  0  0  0  0  0  0
  181.2990  177.6550  138.6140 C   0  0  0  0  0  2  0  0  0  0  0  0
  181.5830  178.4300  141.0840 C   0  0  1  0  0  3  0  0  0  0  0  0
  180.6750  179.8620  139.3390 O   0  0  0  0  0  1  0  0  0  0  0  0
  183.1130  178.9090  138.5490 O   0  0  0  0  0  0  0  0  0  0  0  0
  183.1160  178.2500  140.9490 C   0  0  1  0  0  3  0  0  0  0  0  0
  181.2730  179.5010  141.9290 O   0  0  0  0  0  1  0  0  0  0  0  0
  180.7820  178.5330  139.7680 C   0  0  1  0  0  3  0  0  0  0  0  0
  1  7  1  6  0  0  0
  1  6  1  0  0  0  0
  1  2  1  0  0  0  0
  2  3  1  1  0  0  0
  3  8  1  0  0  0  0
  4 44  1  6  0  0  0
  4  5  1  0  0  0  0
  5  8  1  0  0  0  0
  6  4  1  0  0  0  0
  8 12  1  1  0  0  0
  9 20  1  0  0  0  0
 10 11  1  0  0  0  0
 11 16  1  0  0  0  0
 12 18  1  0  0  0  0
 12 17  2  0  0  0  0
 13  9  2  0  0  0  0
 14 16  2  0  0  0  0
 14 15  1  0  0  0  0
 15 19  2  0  0  0  0
 16 13  1  0  0  0  0
 17 14  1  0  0  0  0
 18 10  2  0  0  0  0
 19  9  1  0  0  0  0
 20 21  1  0  0  0  0
 22  2  1  0  0  0  0
 22 29  1  1  0  0  0
 22 24  1  0  0  0  0
 24 25  1  0  0  0  0
 25 27  1  0  0  0  0
 25 23  2  0  0  0  0
 27 26  1  6  0  0  0
 28 30  1  6  0  0  0
 28 29  1  0  0  0  0
 28 27  1  0  0  0  0
 31 30  1  0  0  0  0
 32 31  1  1  0  0  0
 32 40  1  0  0  0  0
 32 33  1  0  0  0  0
 33 34  1  0  0  0  0
 34 35  1  0  0  0  0
 36 35  1  0  0  0  0
 36 38  1  0  0  0  0
 37 36  1  0  0  0  0
 38 39  1  0  0  0  0
 40 43  1  0  0  0  0
 42 43  2  0  0  0  0
 43 41  1  0  0  0  0
 44 45  1  0  0  0  0
 46 52  1  0  0  0  0
 46 49  1  0  0  0  0
 47 45  1  6  0  0  0
 47 53  1  0  0  0  0
 49 55  1  0  0  0  0
 50 54  1  1  0  0  0
 52 47  1  0  0  0  0
 53 50  1  0  0  0  0
 53 48  1  1  0  0  0
 55 51  1  6  0  0  0
 55 50  1  0  0  0  0
M  END
>  <MODEL>
8

>  <REMARK>
 VINA RESULT:      -7.2      3.130     11.408
  Name = 
  16 active torsions:
  status: ('A' for Active; 'I' for Inactive)
    1  A    between atoms: C_1  and  O_4
    2  A    between atoms: C_2  and  C_26
    3  A    between atoms: C_2  and  C_34
    4  A    between atoms: C_3  and  C_25
    5  A    between atoms: C_3  and  C_37
    6  A    between atoms: C_6  and  C_30
    7  A    between atoms: C_7  and  C_25
    8  A    between atoms: C_7  and  C_39
    9  A    between atoms: C_8  and  N_28
   10  A    between atoms: N_12  and  C_15
   11  A    between atoms: C_23  and  C_53
   12  A    between atoms: C_24  and  N_32
   13  A    between atoms: C_25  and  C_34
   14  A    between atoms: C_26  and  N_28
   15  A    between atoms: C_30  and  N_32
   16  A    between atoms: C_39  and  C_49
                            x       y       z     vdW  Elec       q    Type
                         _______ _______ _______ _____ _____    ______ ____

>  <TORSDO>
F 16

$$$$
=
 OpenBabel10232408453D

 55 59  0  0  1  0  0  0  0  0999 V2000
  189.2730  176.2630  137.3260 C   0  0  2  0  0  3  0  0  0  0  0  0
  188.6970  177.6000  137.6040 N   0  0  2  0  0  0  0  0  0  0  0  0
  189.0560  178.1430  138.9350 C   0  0  0  0  0  2  0  0  0  0  0  0
  191.5000  176.8660  138.5350 C   0  0  2  0  0  3  0  0  0  0  0  0
  190.8470  176.5680  139.8980 C   0  0  0  0  0  2  0  0  0  0  0  0
  190.8130  176.2620  137.2900 C   0  0  0  0  0  2  0  0  0  0  0  0
  188.8170  175.7860  136.1040 F   0  0  0  0  0  0  0  0  0  0  0  0
  189.3850  177.0340  139.9550 C   0  0  1  0  0  3  0  0  0  0  0  0
  185.4310  178.8050  144.8700 C   0  0  0  0  0  0  0  0  0  0  0  0
  189.8130  177.5970  143.6510 C   0  0  0  0  0  3  0  0  0  0  0  0
  188.6090  176.9630  144.2640 C   0  0  0  0  0  2  0  0  0  0  0  0
  188.9320  177.3810  141.3310 C   0  0  0  0  0  0  0  0  0  0  0  0
  186.6270  178.1800  145.0360 N   0  0  0  0  0  0  0  0  0  0  0  0
  186.9340  177.9910  142.6660 C   0  0  0  0  0  0  0  0  0  0  0  0
  185.7010  178.6240  142.4810 C   0  0  0  0  0  3  0  0  0  0  0  0
  187.3840  177.7670  143.9830 C   0  0  0  0  0  0  0  0  0  0  0  0
  187.6480  177.5600  141.4970 N   0  0  0  0  0  0  0  0  0  0  0  0
  189.9500  177.7430  142.3350 C   0  0  0  0  0  3  0  0  0  0  0  0
  184.9460  179.0410  143.5770 C   0  0  0  0  0  3  0  0  0  0  0  0
  184.6950  179.1910  145.9900 O   0  0  0  0  0  0  0  0  0  0  0  0
  184.4680  178.3400  146.9970 O   0  0  0  0  0  1  0  0  0  0  0  0
  187.2300  177.5330  137.4610 C   0  0  1  0  0  3  0  0  0  0  0  0
  185.5620  178.3910  134.3540 O   0  0  0  0  0  0  0  0  0  0  0  0
  186.7500  178.2580  136.3110 O   0  0  0  0  0  0  0  0  0  0  0  0
  185.8220  177.7390  135.3960 C   0  0  0  0  0  0  0  0  0  0  0  0
  183.8980  176.3760  135.1510 F   0  0  0  0  0  0  0  0  0  0  0  0
  185.2100  176.3870  135.5930 C   0  0  2  0  0  3  0  0  0  0  0  0
  185.3070  175.9490  137.0560 C   0  0  1  0  0  3  0  0  0  0  0  0
  186.7650  176.0740  137.5010 C   0  0  0  0  0  2  0  0  0  0  0  0
  184.3880  176.7600  137.9780 C   0  0  0  0  0  2  0  0  0  0  0  0
  183.3350  175.8940  138.6610 C   0  0  0  0  0  2  0  0  0  0  0  0
  181.9950  175.9180  137.9360 C   0  0  2  0  0  3  0  0  0  0  0  0
  181.0170  176.7390  138.7600 C   0  0  0  0  0  2  0  0  0  0  0  0
  181.6140  178.0830  139.1330 C   0  0  0  0  0  2  0  0  0  0  0  0
  181.6370  178.9780  137.9080 C   0  0  0  0  0  2  0  0  0  0  0  0
  182.2760  180.2440  138.2360 N   0  0  0  0  0  0  0  0  0  0  0  0
  181.2170  181.1690  138.6030 C   0  0  0  0  0  1  0  0  0  0  0  0
  183.0820  180.0250  139.4290 C   0  0  0  0  0  2  0  0  0  0  0  0
  184.4360  180.0910  139.1010 O   0  0  0  0  0  1  0  0  0  0  0  0
  181.4560  174.5060  137.7380 C   0  0  0  0  0  2  0  0  0  0  0  0
  181.9790  174.2870  135.4220 O   0  0  0  0  0  0  0  0  0  0  0  0
  183.0080  172.7810  136.8150 O   0  0  0  0  0  1  0  0  0  0  0  0
  182.1490  173.8520  136.5920 C   0  0  0  0  0  0  0  0  0  0  0  0
  192.9450  176.6230  138.5550 N   0  0  0  0  0  2  0  0  0  0  0  0
  193.2650  175.3510  137.9090 C   0  0  0  0  0  2  0  0  0  0  0  0
  195.1510  172.9550  137.8650 O   0  0  0  0  0  0  0  0  0  0  0  0
  194.7790  175.1390  137.8530 C   0  0  1  0  0  3  0  0  0  0  0  0
  194.9140  176.3180  135.5970 C   0  0  0  0  0  1  0  0  0  0  0  0
  196.4950  172.5950  137.6310 C   0  0  0  0  0  2  0  0  0  0  0  0
  196.8320  174.7950  136.2780 C   0  0  1  0  0  3  0  0  0  0  0  0
  197.8620  174.3980  138.4470 O   0  0  0  0  0  1  0  0  0  0  0  0
  195.1600  174.0270  138.6480 O   0  0  0  0  0  0  0  0  0  0  0  0
  195.3150  175.0850  136.4000 C   0  0  1  0  0  3  0  0  0  0  0  0
  197.5760  175.9800  136.3000 O   0  0  0  0  0  1  0  0  0  0  0  0
  197.4210  173.7720  137.2750 C   0  0  1  0  0  3  0  0  0  0  0  0
  1  7  1  6  0  0  0
  1  2  1  0  0  0  0
  2  3  1  1  0  0  0
  3  8  1  0  0  0  0
  4 44  1  1  0  0  0
  4  5  1  0  0  0  0
  5  8  1  0  0  0  0
  6  1  1  0  0  0  0
  6  4  1  0  0  0  0
  8 12  1  1  0  0  0
  9 13  2  0  0  0  0
  9 20  1  0  0  0  0
 10 11  1  0  0  0  0
 12 17  2  0  0  0  0
 12 18  1  0  0  0  0
 14 16  2  0  0  0  0
 15 14  1  0  0  0  0
 15 19  2  0  0  0  0
 16 11  1  0  0  0  0
 16 13  1  0  0  0  0
 17 14  1  0  0  0  0
 18 10  2  0  0  0  0
 19  9  1  0  0  0  0
 20 21  1  0  0  0  0
 22 29  1  6  0  0  0
 22  2  1  0  0  0  0
 23 25  2  0  0  0  0
 24 22  1  0  0  0  0
 25 27  1  0  0  0  0
 25 24  1  0  0  0  0
 27 26  1  1  0  0  0
 27 28  1  0  0  0  0
 28 29  1  0  0  0  0
 28 30  1  1  0  0  0
 30 31  1  0  0  0  0
 32 40  1  1  0  0  0
 32 31  1  0  0  0  0
 32 33  1  0  0  0  0
 33 34  1  0  0  0  0
 35 36  1  0  0  0  0
 35 34  1  0  0  0  0
 36 37  1  0  0  0  0
 36 38  1  0  0  0  0
 39 38  1  0  0  0  0
 41 43  2  0  0  0  0
 43 42  1  0  0  0  0
 43 40  1  0  0  0  0
 45 44  1  0  0  0  0
 46 52  1  0  0  0  0
 47 45  1  6  0  0  0
 47 52  1  0  0  0  0
 49 46  1  0  0  0  0
 50 54  1  1  0  0  0
 50 53  1  0  0  0  0
 50 55  1  0  0  0  0
 53 48  1  1  0  0  0
 53 47  1  0  0  0  0
 55 49  1  0  0  0  0
 55 51  1  1  0  0  0
M  END
>  <MODEL>
9

>  <REMARK>
 VINA RESULT:      -7.2      2.990      7.354
  Name = 
  16 active torsions:
  status: ('A' for Active; 'I' for Inactive)
    1  A    between atoms: C_1  and  O_4
    2  A    between atoms: C_2  and  C_26
    3  A    between atoms: C_2  and  C_34
    4  A    between atoms: C_3  and  C_25
    5  A    between atoms: C_3  and  C_37
    6  A    between atoms: C_6  and  C_30
    7  A    between atoms: C_7  and  C_25
    8  A    between atoms: C_7  and  C_39
    9  A    between atoms: C_8  and  N_28
   10  A    between atoms: N_12  and  C_15
   11  A    between atoms: C_23  and  C_53
   12  A    between atoms: C_24  and  N_32
   13  A    between atoms: C_25  and  C_34
   14  A    between atoms: C_26  and  N_28
   15  A    between atoms: C_30  and  N_32
   16  A    between atoms: C_39  and  C_49
                            x       y       z     vdW  Elec       q    Type
                         _______ _______ _______ _____ _____    ______ ____

>  <TORSDO>
F 16

$$$$
