=
 OpenBabel10232409033D

 57 62  0  0  1  0  0  0  0  0999 V2000
  191.2870  177.3120  140.0030 C   0  0  0  0  0  0  0  0  0  0  0  0
  193.3670  175.0070  137.5410 S   0  0  0  0  0  0  0  0  0  0  0  0
  191.9620  174.5140  136.5520 C   0  0  0  0  0  0  0  0  0  0  0  0
  188.3250  178.2850  140.8500 C   0  0  0  0  0  1  0  0  0  0  0  0
  192.3860  176.3790  138.0500 N   0  0  0  0  0  0  0  0  0  0  0  0
  186.6220  178.1250  138.2650 C   0  0  0  0  0  0  0  0  0  0  0  0
  185.9420  178.4160  139.2880 O   0  0  0  0  0  0  0  0  0  0  0  0
  188.7910  177.8480  139.4990 C   0  0  0  0  0  0  0  0  0  0  0  0
  191.0170  175.3900  136.4300 N   0  0  0  0  0  0  0  0  0  0  0  0
  192.3780  176.7740  139.4370 C   0  0  0  0  0  3  0  0  0  0  0  0
  190.0570  177.1020  137.8550 C   0  0  0  0  0  0  0  0  0  0  0  0
  191.8490  173.1820  136.0290 N   0  0  0  0  0  2  0  0  0  0  0  0
  190.0700  177.4340  139.1830 C   0  0  0  0  0  0  0  0  0  0  0  0
  188.0140  177.7820  138.3860 N   0  0  0  0  0  0  0  0  0  0  0  0
  191.2780  176.6400  137.1180 C   0  0  1  0  0  3  0  0  0  0  0  0
  188.7860  177.3360  137.3650 C   0  0  0  0  0  3  0  0  0  0  0  0
  189.6830  172.3070  135.5840 C   0  0  0  0  0  3  0  0  0  0  0  0
  190.8340  172.7250  135.1670 N   0  0  0  0  0  0  0  0  0  0  0  0
  188.6500  171.8290  134.6280 C   0  0  0  0  0  2  0  0  0  0  0  0
  187.4420  171.2790  135.3720 C   0  0  0  0  0  2  0  0  0  0  0  0
  186.1540  171.9470  134.9050 C   0  0  0  0  0  2  0  0  0  0  0  0
  183.3190  172.3300  135.1290 C   0  0  0  0  0  1  0  0  0  0  0  0
  185.5150  172.7400  136.0120 C   0  0  0  0  0  0  0  0  0  0  0  0
  184.2380  172.8940  136.0900 N   0  0  0  0  0  0  0  0  0  0  0  0
  186.5340  173.4550  137.2530 Cl  0  0  0  0  0  0  0  0  0  0  0  0
  185.9540  178.0980  136.9220 C   0  0  0  0  0  2  0  0  0  0  0  0
  185.0370  176.8940  136.7560 C   0  0  2  0  0  3  0  0  0  0  0  0
  185.1480  176.3850  135.3320 C   0  0  0  0  0  1  0  0  0  0  0  0
  183.5870  177.2770  137.0620 C   0  0  0  0  0  2  0  0  0  0  0  0
  181.7960  175.5400  137.0080 C   0  0  0  0  0  1  0  0  0  0  0  0
  182.8370  176.2210  137.8840 C   0  0  1  0  0  0  0  0  0  0  0  0
  183.7310  175.2560  138.3560 O   0  0  0  0  0  1  0  0  0  0  0  0
  182.1200  176.9000  139.0630 C   0  0  1  0  0  3  0  0  0  0  0  0
  182.9750  177.0830  140.1580 O   0  0  0  0  0  1  0  0  0  0  0  0
  181.3630  178.1890  138.6980 C   0  0  1  0  0  3  0  0  0  0  0  0
  179.9940  177.9580  138.8330 O   0  0  0  0  0  1  0  0  0  0  0  0
  180.6670  181.3990  139.0760 C   0  0  0  0  0  2  0  0  0  0  0  0
  182.5200  180.3210  138.7470 O   0  0  0  0  0  0  0  0  0  0  0  0
  181.6410  181.0940  138.1210 O   0  0  0  0  0  0  0  0  0  0  0  0
  180.5440  180.1870  139.9370 C   0  0  0  0  0  2  0  0  0  0  0  0
  181.7630  179.4250  139.5200 C   0  0  1  0  0  3  0  0  0  0  0  0
  191.3190  177.7450  141.4290 C   0  0  0  0  0  2  0  0  0  0  0  0
  190.9770  176.6390  142.3060 N   0  0  0  0  0  2  0  0  0  0  0  0
  191.7810  176.7990  143.5090 C   0  0  0  0  0  2  0  0  0  0  0  0
  188.7590  177.0080  145.8900 C   0  0  1  0  0  3  0  0  0  0  0  0
  190.7980  176.9280  147.1040 C   0  0  0  0  0  2  0  0  0  0  0  0
  191.5930  177.2320  145.9140 N   0  0  0  0  0  2  0  0  0  0  0  0
  190.9390  176.6110  144.7630 C   0  0  1  0  0  3  0  0  0  0  0  0
  189.5310  177.1720  144.5800 C   0  0  0  0  0  2  0  0  0  0  0  0
  189.4990  177.5920  147.0110 N   0  0  0  0  0  2  0  0  0  0  0  0
  184.7530  178.3510  143.1770 C   0  0  0  0  0  1  0  0  0  0  0  0
  184.8500  178.7690  145.6370 C   0  0  0  0  0  3  0  0  0  0  0  0
  186.7310  177.6970  144.5550 C   0  0  0  0  0  3  0  0  0  0  0  0
  185.5110  178.6910  146.8660 C   0  0  0  0  0  3  0  0  0  0  0  0
  187.3990  177.6200  145.7870 C   0  0  0  0  0  0  0  0  0  0  0  0
  185.4590  178.2720  144.4810 C   0  0  0  0  0  0  0  0  0  0  0  0
  186.7840  178.1140  146.9410 C   0  0  0  0  0  3  0  0  0  0  0  0
  1 42  1  0  0  0  0
  2  5  1  0  0  0  0
  3  2  1  0  0  0  0
  5 10  1  0  0  0  0
  6 14  1  0  0  0  0
  6  7  2  0  0  0  0
  8  4  1  0  0  0  0
  9  3  2  0  0  0  0
 10  1  2  0  0  0  0
 11 13  1  0  0  0  0
 12  3  1  0  0  0  0
 13  8  2  0  0  0  0
 13  1  1  0  0  0  0
 14  8  1  0  0  0  0
 15  9  1  1  0  0  0
 15 11  1  0  0  0  0
 15  5  1  0  0  0  0
 16 11  2  0  0  0  0
 16 14  1  0  0  0  0
 18 17  2  0  0  0  0
 18 12  1  0  0  0  0
 19 20  1  0  0  0  0
 19 17  1  0  0  0  0
 21 20  1  0  0  0  0
 21 23  1  0  0  0  0
 22 24  1  0  0  0  0
 23 24  2  0  0  0  0
 23 25  1  0  0  0  0
 26  6  1  0  0  0  0
 27 28  1  6  0  0  0
 27 26  1  0  0  0  0
 27 29  1  0  0  0  0
 29 31  1  0  0  0  0
 31 30  1  6  0  0  0
 31 32  1  0  0  0  0
 31 33  1  0  0  0  0
 33 34  1  1  0  0  0
 35 36  1  1  0  0  0
 35 33  1  0  0  0  0
 37 40  1  0  0  0  0
 38 41  1  0  0  0  0
 39 38  1  0  0  0  0
 39 37  1  0  0  0  0
 41 35  1  6  0  0  0
 41 40  1  0  0  0  0
 42 43  1  0  0  0  0
 43 44  1  0  0  0  0
 45 55  1  6  0  0  0
 45 50  1  0  0  0  0
 47 46  1  0  0  0  0
 48 44  1  6  0  0  0
 48 47  1  0  0  0  0
 49 48  1  0  0  0  0
 49 45  1  0  0  0  0
 50 46  1  0  0  0  0
 51 56  1  0  0  0  0
 52 54  1  0  0  0  0
 53 55  2  0  0  0  0
 54 57  2  0  0  0  0
 55 57  1  0  0  0  0
 56 53  1  0  0  0  0
 56 52  2  0  0  0  0
M  END
>  <MODEL>
1

>  <REMARK>
 VINA RESULT:      -8.5      0.000      0.000
  Name = 
  17 active torsions:
  status: ('A' for Active; 'I' for Inactive)
    1  A    between atoms: C_1  and  C_22
    2  A    between atoms: C_1  and  C_24
    3  A    between atoms: C_2  and  C_40
    4  A    between atoms: C_4  and  C_44
    5  A    between atoms: N_7  and  N_46
    6  A    between atoms: C_12  and  C_37
    7  A    between atoms: C_14  and  C_54
    8  A    between atoms: C_16  and  C_24
    9  A    between atoms: C_16  and  C_28
   10  A    between atoms: C_17  and  C_39
   11  A    between atoms: C_22  and  C_39
   12  A    between atoms: N_23  and  C_26
   13  A    between atoms: N_23  and  C_40
   14  A    between atoms: C_26  and  C_31
   15  A    between atoms: C_28  and  C_56
   16  A    between atoms: C_44  and  C_45
   17  A    between atoms: C_45  and  C_54
                            x       y       z     vdW  Elec       q    Type
                         _______ _______ _______ _____ _____    ______ ____

>  <TORSDO>
F 17

$$$$
=
 OpenBabel10232409033D

 57 62  0  0  1  0  0  0  0  0999 V2000
  184.5320  178.7140  142.5880 C   0  0  0  0  0  0  0  0  0  0  0  0
  188.1920  178.4200  141.1000 S   0  0  0  0  0  0  0  0  0  0  0  0
  187.6650  177.9170  139.4670 C   0  0  0  0  0  0  0  0  0  0  0  0
  181.3920  178.2120  142.0130 C   0  0  0  0  0  1  0  0  0  0  0  0
  186.5630  179.0600  141.3060 N   0  0  0  0  0  0  0  0  0  0  0  0
  181.0430  178.5260  138.9490 C   0  0  0  0  0  0  0  0  0  0  0  0
  179.9910  178.1400  139.5300 O   0  0  0  0  0  0  0  0  0  0  0  0
  182.4630  178.5310  141.0200 C   0  0  0  0  0  0  0  0  0  0  0  0
  186.5330  178.3960  139.0620 N   0  0  0  0  0  0  0  0  0  0  0  0
  185.8650  178.8460  142.5500 C   0  0  0  0  0  3  0  0  0  0  0  0
  184.4260  178.9710  140.1180 C   0  0  0  0  0  0  0  0  0  0  0  0
  188.4060  176.9480  138.7100 N   0  0  0  0  0  2  0  0  0  0  0  0
  183.7970  178.7330  141.3120 C   0  0  0  0  0  0  0  0  0  0  0  0
  182.2760  178.6540  139.6790 N   0  0  0  0  0  0  0  0  0  0  0  0
  185.8900  179.2790  140.0170 C   0  0  1  0  0  3  0  0  0  0  0  0
  183.4760  178.9370  139.1160 C   0  0  0  0  0  3  0  0  0  0  0  0
  188.8610  176.8950  136.3770 C   0  0  0  0  0  3  0  0  0  0  0  0
  188.1270  176.5570  137.3870 N   0  0  0  0  0  0  0  0  0  0  0  0
  188.5150  176.4590  134.9990 C   0  0  0  0  0  2  0  0  0  0  0  0
  189.0390  175.0560  134.7290 C   0  0  0  0  0  2  0  0  0  0  0  0
  190.5550  174.9940  134.8840 C   0  0  0  0  0  2  0  0  0  0  0  0
  193.2470  174.8680  135.8700 C   0  0  0  0  0  1  0  0  0  0  0  0
  190.9490  174.2100  136.1060 C   0  0  0  0  0  0  0  0  0  0  0  0
  192.1670  174.1720  136.5280 N   0  0  0  0  0  0  0  0  0  0  0  0
  189.7120  173.3400  137.0020 Cl  0  0  0  0  0  0  0  0  0  0  0  0
  181.0080  178.8090  137.4760 C   0  0  0  0  0  2  0  0  0  0  0  0
  181.5880  177.6670  136.6530 C   0  0  2  0  0  3  0  0  0  0  0  0
  181.7400  178.1250  135.2160 C   0  0  0  0  0  1  0  0  0  0  0  0
  180.6730  176.4410  136.7160 C   0  0  0  0  0  2  0  0  0  0  0  0
  180.6670  174.5130  138.3000 C   0  0  0  0  0  1  0  0  0  0  0  0
  181.4010  175.1570  137.1350 C   0  0  1  0  0  0  0  0  0  0  0  0
  181.4340  174.2540  136.0670 O   0  0  0  0  0  1  0  0  0  0  0  0
  182.8320  175.5000  137.5830 C   0  0  1  0  0  3  0  0  0  0  0  0
  182.9840  175.3910  138.9720 O   0  0  0  0  0  1  0  0  0  0  0  0
  183.9400  174.7540  136.8190 C   0  0  1  0  0  3  0  0  0  0  0  0
  184.8630  175.6860  136.3450 O   0  0  0  0  0  1  0  0  0  0  0  0
  186.1490  172.3130  136.5160 C   0  0  0  0  0  2  0  0  0  0  0  0
  184.1510  172.3970  137.3550 O   0  0  0  0  0  0  0  0  0  0  0  0
  184.8150  171.9600  136.2920 O   0  0  0  0  0  0  0  0  0  0  0  0
  186.1120  173.6150  137.2440 C   0  0  0  0  0  2  0  0  0  0  0  0
  184.6680  173.6730  137.6340 C   0  0  1  0  0  3  0  0  0  0  0  0
  183.8330  178.5310  143.8920 C   0  0  0  0  0  2  0  0  0  0  0  0
  184.4980  179.2880  144.9380 N   0  0  0  0  0  2  0  0  0  0  0  0
  184.8000  178.3440  146.0040 C   0  0  0  0  0  2  0  0  0  0  0  0
  188.6250  178.0800  146.3830 C   0  0  1  0  0  3  0  0  0  0  0  0
  187.5870  178.4920  148.4780 C   0  0  0  0  0  2  0  0  0  0  0  0
  186.2620  178.1480  147.9610 N   0  0  0  0  0  2  0  0  0  0  0  0
  186.1960  178.5760  146.5650 C   0  0  1  0  0  3  0  0  0  0  0  0
  187.2580  177.8590  145.7350 C   0  0  0  0  0  2  0  0  0  0  0  0
  188.6040  177.6950  147.7960 N   0  0  0  0  0  2  0  0  0  0  0  0
  190.4430  176.0430  142.1680 C   0  0  0  0  0  1  0  0  0  0  0  0
  191.7070  175.9160  144.3180 C   0  0  0  0  0  3  0  0  0  0  0  0
  189.5670  177.0440  144.2830 C   0  0  0  0  0  3  0  0  0  0  0  0
  191.8340  176.1970  145.6810 C   0  0  0  0  0  3  0  0  0  0  0  0
  189.6890  177.3260  145.6520 C   0  0  0  0  0  0  0  0  0  0  0  0
  190.5740  176.3380  143.6170 C   0  0  0  0  0  0  0  0  0  0  0  0
  190.8260  176.9050  146.3470 C   0  0  0  0  0  3  0  0  0  0  0  0
  1 42  1  0  0  0  0
  2  5  1  0  0  0  0
  3  2  1  0  0  0  0
  5 10  1  0  0  0  0
  6  7  2  0  0  0  0
  6 14  1  0  0  0  0
  8 13  2  0  0  0  0
  8  4  1  0  0  0  0
  9  3  2  0  0  0  0
 10  1  2  0  0  0  0
 11 13  1  0  0  0  0
 12  3  1  0  0  0  0
 13  1  1  0  0  0  0
 14  8  1  0  0  0  0
 15  9  1  6  0  0  0
 15 11  1  0  0  0  0
 15  5  1  0  0  0  0
 16 14  1  0  0  0  0
 16 11  2  0  0  0  0
 17 18  2  0  0  0  0
 18 12  1  0  0  0  0
 19 17  1  0  0  0  0
 20 21  1  0  0  0  0
 20 19  1  0  0  0  0
 21 23  1  0  0  0  0
 22 24  1  0  0  0  0
 23 24  2  0  0  0  0
 23 25  1  0  0  0  0
 26  6  1  0  0  0  0
 27 28  1  6  0  0  0
 27 29  1  0  0  0  0
 27 26  1  0  0  0  0
 29 31  1  0  0  0  0
 31 33  1  0  0  0  0
 31 30  1  1  0  0  0
 32 31  1  0  0  0  0
 33 34  1  1  0  0  0
 35 36  1  1  0  0  0
 35 33  1  0  0  0  0
 37 40  1  0  0  0  0
 38 41  1  0  0  0  0
 39 37  1  0  0  0  0
 39 38  1  0  0  0  0
 40 41  1  0  0  0  0
 41 35  1  6  0  0  0
 42 43  1  0  0  0  0
 43 44  1  0  0  0  0
 45 55  1  6  0  0  0
 45 50  1  0  0  0  0
 47 46  1  0  0  0  0
 48 44  1  6  0  0  0
 48 47  1  0  0  0  0
 49 45  1  0  0  0  0
 49 48  1  0  0  0  0
 50 46  1  0  0  0  0
 51 56  1  0  0  0  0
 52 54  1  0  0  0  0
 53 55  2  0  0  0  0
 54 57  2  0  0  0  0
 55 57  1  0  0  0  0
 56 53  1  0  0  0  0
 56 52  2  0  0  0  0
M  END
>  <MODEL>
2

>  <REMARK>
 VINA RESULT:      -7.3      2.397      5.976
  Name = 
  17 active torsions:
  status: ('A' for Active; 'I' for Inactive)
    1  A    between atoms: C_1  and  C_22
    2  A    between atoms: C_1  and  C_24
    3  A    between atoms: C_2  and  C_40
    4  A    between atoms: C_4  and  C_44
    5  A    between atoms: N_7  and  N_46
    6  A    between atoms: C_12  and  C_37
    7  A    between atoms: C_14  and  C_54
    8  A    between atoms: C_16  and  C_24
    9  A    between atoms: C_16  and  C_28
   10  A    between atoms: C_17  and  C_39
   11  A    between atoms: C_22  and  C_39
   12  A    between atoms: N_23  and  C_26
   13  A    between atoms: N_23  and  C_40
   14  A    between atoms: C_26  and  C_31
   15  A    between atoms: C_28  and  C_56
   16  A    between atoms: C_44  and  C_45
   17  A    between atoms: C_45  and  C_54
                            x       y       z     vdW  Elec       q    Type
                         _______ _______ _______ _____ _____    ______ ____

>  <TORSDO>
F 17

$$$$
=
 OpenBabel10232409033D

 57 62  0  0  1  0  0  0  0  0999 V2000
  186.3010  175.4620  135.5900 C   0  0  0  0  0  0  0  0  0  0  0  0
  187.9340  172.0220  134.4940 S   0  0  0  0  0  0  0  0  0  0  0  0
  189.5500  172.3870  135.1640 C   0  0  0  0  0  0  0  0  0  0  0  0
  186.8670  178.3660  136.8880 C   0  0  0  0  0  1  0  0  0  0  0  0
  187.3230  173.2610  135.5890 N   0  0  0  0  0  0  0  0  0  0  0  0
  189.2730  177.9710  138.8010 C   0  0  0  0  0  0  0  0  0  0  0  0
  188.9240  179.1790  138.6890 O   0  0  0  0  0  0  0  0  0  0  0  0
  187.6030  177.0910  137.1470 C   0  0  0  0  0  0  0  0  0  0  0  0
  189.5720  173.1310  136.2230 N   0  0  0  0  0  0  0  0  0  0  0  0
  186.3430  174.2070  135.1180 C   0  0  0  0  0  3  0  0  0  0  0  0
  188.2490  174.9850  137.0570 C   0  0  0  0  0  0  0  0  0  0  0  0
  190.7480  171.9710  134.4900 N   0  0  0  0  0  2  0  0  0  0  0  0
  187.3280  175.8700  136.5640 C   0  0  0  0  0  0  0  0  0  0  0  0
  188.6610  176.9550  137.9890 N   0  0  0  0  0  0  0  0  0  0  0  0
  188.2590  173.5310  136.6910 C   0  0  1  0  0  3  0  0  0  0  0  0
  189.0590  175.6600  137.9510 C   0  0  0  0  0  3  0  0  0  0  0  0
  193.0400  171.3570  134.6420 C   0  0  0  0  0  3  0  0  0  0  0  0
  192.0580  172.1280  134.9800 N   0  0  0  0  0  0  0  0  0  0  0  0
  194.4030  171.5650  135.1970 C   0  0  0  0  0  2  0  0  0  0  0  0
  194.9200  172.9540  134.8520 C   0  0  0  0  0  2  0  0  0  0  0  0
  195.9730  173.4160  135.8530 C   0  0  0  0  0  2  0  0  0  0  0  0
  195.4940  173.6710  138.6710 C   0  0  0  0  0  1  0  0  0  0  0  0
  195.5770  174.7110  136.5080 C   0  0  0  0  0  0  0  0  0  0  0  0
  195.3700  174.7970  137.7770 N   0  0  0  0  0  0  0  0  0  0  0  0
  195.4170  176.1560  135.5200 Cl  0  0  0  0  0  0  0  0  0  0  0  0
  190.3680  177.6090  139.7610 C   0  0  0  0  0  2  0  0  0  0  0  0
  189.8550  177.4230  141.1830 C   0  0  2  0  0  3  0  0  0  0  0  0
  188.8500  178.5160  141.4890 C   0  0  0  0  0  1  0  0  0  0  0  0
  191.0120  177.4830  142.1840 C   0  0  0  0  0  2  0  0  0  0  0  0
  189.3860  176.0220  143.3890 C   0  0  0  0  0  1  0  0  0  0  0  0
  190.7850  176.6170  143.4300 C   0  0  1  0  0  0  0  0  0  0  0  0
  191.7180  175.5760  143.4680 O   0  0  0  0  0  1  0  0  0  0  0  0
  190.9120  177.4880  144.6920 C   0  0  1  0  0  3  0  0  0  0  0  0
  190.8030  178.8540  144.3960 O   0  0  0  0  0  1  0  0  0  0  0  0
  189.9930  177.0730  145.8540 C   0  0  1  0  0  3  0  0  0  0  0  0
  190.7810  176.5640  146.8880 O   0  0  0  0  0  1  0  0  0  0  0  0
  187.6120  177.6550  148.0720 C   0  0  0  0  0  2  0  0  0  0  0  0
  187.7700  178.0380  145.9440 O   0  0  0  0  0  0  0  0  0  0  0  0
  187.1810  177.2260  146.8140 O   0  0  0  0  0  0  0  0  0  0  0  0
  189.0160  178.1250  147.8870 C   0  0  0  0  0  2  0  0  0  0  0  0
  189.0910  178.1930  146.3940 C   0  0  1  0  0  3  0  0  0  0  0  0
  185.2530  176.4090  135.1120 C   0  0  0  0  0  2  0  0  0  0  0  0
  183.9370  175.8020  135.2060 N   0  0  0  0  0  2  0  0  0  0  0  0
  183.6050  175.7490  136.6220 C   0  0  0  0  0  2  0  0  0  0  0  0
  183.4840  178.6470  139.1580 C   0  0  1  0  0  3  0  0  0  0  0  0
  181.7920  178.8850  137.5090 C   0  0  0  0  0  2  0  0  0  0  0  0
  181.9490  177.5030  137.0570 N   0  0  0  0  0  2  0  0  0  0  0  0
  183.3610  177.1430  137.1830 C   0  0  1  0  0  3  0  0  0  0  0  0
  183.8110  177.2470  138.6380 C   0  0  0  0  0  2  0  0  0  0  0  0
  182.0710  178.9700  138.9400 N   0  0  0  0  0  2  0  0  0  0  0  0
  182.1320  178.7450  143.9930 C   0  0  0  0  0  1  0  0  0  0  0  0
  184.5210  179.0020  143.3110 C   0  0  0  0  0  3  0  0  0  0  0  0
  182.8380  178.7030  141.5970 C   0  0  0  0  0  3  0  0  0  0  0  0
  185.5120  179.0680  142.3280 C   0  0  0  0  0  3  0  0  0  0  0  0
  183.8300  178.7710  140.6070 C   0  0  0  0  0  0  0  0  0  0  0  0
  183.1830  178.8200  142.9470 C   0  0  0  0  0  0  0  0  0  0  0  0
  185.1660  178.9490  140.9760 C   0  0  0  0  0  3  0  0  0  0  0  0
  1 13  1  0  0  0  0
  2  3  1  0  0  0  0
  2  5  1  0  0  0  0
  3  9  2  0  0  0  0
  4  8  1  0  0  0  0
  5 15  1  0  0  0  0
  6 26  1  0  0  0  0
  7  6  2  0  0  0  0
  8 14  1  0  0  0  0
 10  5  1  0  0  0  0
 10  1  2  0  0  0  0
 11 16  2  0  0  0  0
 12 18  1  0  0  0  0
 12  3  1  0  0  0  0
 13 11  1  0  0  0  0
 13  8  2  0  0  0  0
 14  6  1  0  0  0  0
 15  9  1  6  0  0  0
 15 11  1  0  0  0  0
 16 14  1  0  0  0  0
 17 18  2  0  0  0  0
 17 19  1  0  0  0  0
 20 19  1  0  0  0  0
 20 21  1  0  0  0  0
 21 23  1  0  0  0  0
 23 24  2  0  0  0  0
 24 22  1  0  0  0  0
 25 23  1  0  0  0  0
 26 27  1  0  0  0  0
 27 28  1  1  0  0  0
 27 29  1  0  0  0  0
 29 31  1  0  0  0  0
 31 30  1  6  0  0  0
 31 32  1  0  0  0  0
 31 33  1  0  0  0  0
 33 34  1  6  0  0  0
 33 35  1  0  0  0  0
 35 36  1  1  0  0  0
 38 41  1  0  0  0  0
 38 39  1  0  0  0  0
 39 37  1  0  0  0  0
 40 37  1  0  0  0  0
 41 35  1  6  0  0  0
 41 40  1  0  0  0  0
 42 43  1  0  0  0  0
 42  1  1  0  0  0  0
 43 44  1  0  0  0  0
 45 55  1  1  0  0  0
 46 50  1  0  0  0  0
 47 48  1  0  0  0  0
 47 46  1  0  0  0  0
 48 44  1  1  0  0  0
 48 49  1  0  0  0  0
 49 45  1  0  0  0  0
 50 45  1  0  0  0  0
 53 56  2  0  0  0  0
 54 52  2  0  0  0  0
 55 57  2  0  0  0  0
 55 53  1  0  0  0  0
 56 52  1  0  0  0  0
 56 51  1  0  0  0  0
 57 54  1  0  0  0  0
M  END
>  <MODEL>
3

>  <REMARK>
 VINA RESULT:      -7.2      3.647      8.125
  Name = 
  17 active torsions:
  status: ('A' for Active; 'I' for Inactive)
    1  A    between atoms: C_1  and  C_22
    2  A    between atoms: C_1  and  C_24
    3  A    between atoms: C_2  and  C_40
    4  A    between atoms: C_4  and  C_44
    5  A    between atoms: N_7  and  N_46
    6  A    between atoms: C_12  and  C_37
    7  A    between atoms: C_14  and  C_54
    8  A    between atoms: C_16  and  C_24
    9  A    between atoms: C_16  and  C_28
   10  A    between atoms: C_17  and  C_39
   11  A    between atoms: C_22  and  C_39
   12  A    between atoms: N_23  and  C_26
   13  A    between atoms: N_23  and  C_40
   14  A    between atoms: C_26  and  C_31
   15  A    between atoms: C_28  and  C_56
   16  A    between atoms: C_44  and  C_45
   17  A    between atoms: C_45  and  C_54
                            x       y       z     vdW  Elec       q    Type
                         _______ _______ _______ _____ _____    ______ ____

>  <TORSDO>
F 17

$$$$
=
 OpenBabel10232409033D

 57 62  0  0  1  0  0  0  0  0999 V2000
  192.0350  177.2440  140.2340 C   0  0  0  0  0  0  0  0  0  0  0  0
  195.1140  175.0960  138.9670 S   0  0  0  0  0  0  0  0  0  0  0  0
  194.1840  174.1800  137.7460 C   0  0  0  0  0  0  0  0  0  0  0  0
  188.8420  177.6840  140.0080 C   0  0  0  0  0  1  0  0  0  0  0  0
  193.8200  176.2900  138.8950 N   0  0  0  0  0  0  0  0  0  0  0  0
  188.0790  176.7970  137.1380 C   0  0  0  0  0  0  0  0  0  0  0  0
  187.0770  177.0830  137.8500 O   0  0  0  0  0  0  0  0  0  0  0  0
  189.7690  177.1630  138.9570 C   0  0  0  0  0  0  0  0  0  0  0  0
  193.1990  174.8110  137.1910 N   0  0  0  0  0  0  0  0  0  0  0  0
  193.3180  176.8710  140.1150 C   0  0  0  0  0  3  0  0  0  0  0  0
  191.5850  176.4700  137.9160 C   0  0  0  0  0  0  0  0  0  0  0  0
  194.4510  172.7930  137.4920 N   0  0  0  0  0  2  0  0  0  0  0  0
  191.1310  176.9870  139.1010 C   0  0  0  0  0  0  0  0  0  0  0  0
  189.3990  176.7750  137.7090 N   0  0  0  0  0  0  0  0  0  0  0  0
  193.0320  176.1740  137.6580 C   0  0  1  0  0  3  0  0  0  0  0  0
  190.5100  176.3580  137.0550 C   0  0  0  0  0  3  0  0  0  0  0  0
  194.4160  171.7150  135.3730 C   0  0  0  0  0  3  0  0  0  0  0  0
  193.8400  172.0130  136.4910 N   0  0  0  0  0  0  0  0  0  0  0  0
  193.7210  170.8920  134.3480 C   0  0  0  0  0  2  0  0  0  0  0  0
  193.1860  169.6060  134.9610 C   0  0  0  0  0  2  0  0  0  0  0  0
  194.3060  168.5980  135.1940 C   0  0  0  0  0  2  0  0  0  0  0  0
  196.8800  169.0080  136.3960 C   0  0  0  0  0  1  0  0  0  0  0  0
  194.5710  168.4010  136.6610 C   0  0  0  0  0  0  0  0  0  0  0  0
  195.7370  168.5940  137.1750 N   0  0  0  0  0  0  0  0  0  0  0  0
  193.2480  167.9200  137.7130 Cl  0  0  0  0  0  0  0  0  0  0  0  0
  187.8760  176.4350  135.6960 C   0  0  0  0  0  2  0  0  0  0  0  0
  187.4210  174.9920  135.5190 C   0  0  2  0  0  3  0  0  0  0  0  0
  188.3490  174.3010  134.5400 C   0  0  0  0  0  1  0  0  0  0  0  0
  185.9820  174.9430  134.9980 C   0  0  0  0  0  2  0  0  0  0  0  0
  184.7680  172.8120  135.4600 C   0  0  0  0  0  1  0  0  0  0  0  0
  185.0120  174.2310  135.9500 C   0  0  1  0  0  0  0  0  0  0  0  0
  185.5560  174.1770  137.2370 O   0  0  0  0  0  1  0  0  0  0  0  0
  183.6690  174.9820  135.9730 C   0  0  1  0  0  3  0  0  0  0  0  0
  182.6820  174.2630  136.6600 O   0  0  0  0  0  1  0  0  0  0  0  0
  183.7590  176.4420  136.4490 C   0  0  1  0  0  3  0  0  0  0  0  0
  183.4350  177.2810  135.3820 O   0  0  0  0  0  1  0  0  0  0  0  0
  182.8570  178.9630  138.3880 C   0  0  0  0  0  2  0  0  0  0  0  0
  183.6550  176.9910  138.8090 O   0  0  0  0  0  0  0  0  0  0  0  0
  184.0050  178.2710  138.7820 O   0  0  0  0  0  0  0  0  0  0  0  0
  182.1480  178.0670  137.4280 C   0  0  0  0  0  2  0  0  0  0  0  0
  182.8760  176.7800  137.6600 C   0  0  1  0  0  3  0  0  0  0  0  0
  191.5520  177.8760  141.4950 C   0  0  0  0  0  2  0  0  0  0  0  0
  190.8280  176.9120  142.3040 N   0  0  0  0  0  2  0  0  0  0  0  0
  191.7010  176.5660  143.4170 C   0  0  0  0  0  2  0  0  0  0  0  0
  188.8090  177.0180  145.9220 C   0  0  1  0  0  3  0  0  0  0  0  0
  190.9080  177.0320  147.0310 C   0  0  0  0  0  2  0  0  0  0  0  0
  191.6400  177.2180  145.7790 N   0  0  0  0  0  2  0  0  0  0  0  0
  190.9250  176.5010  144.7250 C   0  0  1  0  0  3  0  0  0  0  0  0
  189.5110  177.0560  144.5650 C   0  0  0  0  0  2  0  0  0  0  0  0
  189.6090  177.6950  146.9460 N   0  0  0  0  0  2  0  0  0  0  0  0
  184.7910  178.4030  143.2460 C   0  0  0  0  0  1  0  0  0  0  0  0
  184.8970  178.7800  145.7130 C   0  0  0  0  0  3  0  0  0  0  0  0
  186.7750  177.7280  144.6070 C   0  0  0  0  0  3  0  0  0  0  0  0
  185.5620  178.6820  146.9380 C   0  0  0  0  0  3  0  0  0  0  0  0
  187.4480  177.6310  145.8340 C   0  0  0  0  0  0  0  0  0  0  0  0
  185.5020  178.3030  144.5460 C   0  0  0  0  0  0  0  0  0  0  0  0
  186.8360  178.1050  146.9990 C   0  0  0  0  0  3  0  0  0  0  0  0
  1 42  1  0  0  0  0
  3  2  1  0  0  0  0
  5  2  1  0  0  0  0
  5 10  1  0  0  0  0
  6 14  1  0  0  0  0
  6  7  2  0  0  0  0
  8 13  2  0  0  0  0
  8  4  1  0  0  0  0
  9  3  2  0  0  0  0
 10  1  2  0  0  0  0
 11 13  1  0  0  0  0
 12  3  1  0  0  0  0
 13  1  1  0  0  0  0
 14  8  1  0  0  0  0
 15  9  1  1  0  0  0
 15 11  1  0  0  0  0
 15  5  1  0  0  0  0
 16 14  1  0  0  0  0
 16 11  2  0  0  0  0
 17 18  2  0  0  0  0
 18 12  1  0  0  0  0
 19 20  1  0  0  0  0
 19 17  1  0  0  0  0
 20 21  1  0  0  0  0
 21 23  1  0  0  0  0
 22 24  1  0  0  0  0
 23 24  2  0  0  0  0
 23 25  1  0  0  0  0
 26  6  1  0  0  0  0
 27 28  1  6  0  0  0
 27 26  1  0  0  0  0
 29 27  1  0  0  0  0
 29 31  1  0  0  0  0
 31 30  1  6  0  0  0
 31 33  1  0  0  0  0
 31 32  1  0  0  0  0
 33 35  1  0  0  0  0
 33 34  1  1  0  0  0
 35 36  1  6  0  0  0
 37 39  1  0  0  0  0
 39 38  1  0  0  0  0
 40 41  1  0  0  0  0
 40 37  1  0  0  0  0
 41 35  1  6  0  0  0
 41 38  1  0  0  0  0
 42 43  1  0  0  0  0
 43 44  1  0  0  0  0
 45 55  1  6  0  0  0
 45 50  1  0  0  0  0
 47 46  1  0  0  0  0
 48 44  1  6  0  0  0
 48 47  1  0  0  0  0
 49 48  1  0  0  0  0
 49 45  1  0  0  0  0
 50 46  1  0  0  0  0
 51 56  1  0  0  0  0
 52 54  1  0  0  0  0
 53 55  2  0  0  0  0
 54 57  2  0  0  0  0
 55 57  1  0  0  0  0
 56 53  1  0  0  0  0
 56 52  2  0  0  0  0
M  END
>  <MODEL>
4

>  <REMARK>
 VINA RESULT:      -6.8      2.697      4.153
  Name = 
  17 active torsions:
  status: ('A' for Active; 'I' for Inactive)
    1  A    between atoms: C_1  and  C_22
    2  A    between atoms: C_1  and  C_24
    3  A    between atoms: C_2  and  C_40
    4  A    between atoms: C_4  and  C_44
    5  A    between atoms: N_7  and  N_46
    6  A    between atoms: C_12  and  C_37
    7  A    between atoms: C_14  and  C_54
    8  A    between atoms: C_16  and  C_24
    9  A    between atoms: C_16  and  C_28
   10  A    between atoms: C_17  and  C_39
   11  A    between atoms: C_22  and  C_39
   12  A    between atoms: N_23  and  C_26
   13  A    between atoms: N_23  and  C_40
   14  A    between atoms: C_26  and  C_31
   15  A    between atoms: C_28  and  C_56
   16  A    between atoms: C_44  and  C_45
   17  A    between atoms: C_45  and  C_54
                            x       y       z     vdW  Elec       q    Type
                         _______ _______ _______ _____ _____    ______ ____

>  <TORSDO>
F 17

$$$$
=
 OpenBabel10232409033D

 57 62  0  0  1  0  0  0  0  0999 V2000
  183.7660  179.2240  143.1120 C   0  0  0  0  0  0  0  0  0  0  0  0
  180.1230  179.9300  141.7240 S   0  0  0  0  0  0  0  0  0  0  0  0
  180.6310  180.1270  140.0220 C   0  0  0  0  0  0  0  0  0  0  0  0
  186.9090  179.1200  142.3680 C   0  0  0  0  0  1  0  0  0  0  0  0
  181.6370  179.0600  141.9590 N   0  0  0  0  0  0  0  0  0  0  0  0
  187.0310  178.3650  139.3640 C   0  0  0  0  0  0  0  0  0  0  0  0
  188.1620  178.6420  139.8510 O   0  0  0  0  0  0  0  0  0  0  0  0
  185.7470  178.8600  141.4640 C   0  0  0  0  0  0  0  0  0  0  0  0
  181.6480  179.4190  139.6460 N   0  0  0  0  0  0  0  0  0  0  0  0
  182.4280  179.3110  143.1380 C   0  0  0  0  0  3  0  0  0  0  0  0
  183.6910  178.6410  140.6980 C   0  0  0  0  0  0  0  0  0  0  0  0
  180.0140  181.1010  139.1670 N   0  0  0  0  0  2  0  0  0  0  0  0
  184.4160  178.9210  141.8260 C   0  0  0  0  0  0  0  0  0  0  0  0
  185.8360  178.5380  140.1470 N   0  0  0  0  0  0  0  0  0  0  0  0
  182.1940  178.5700  140.6890 C   0  0  1  0  0  3  0  0  0  0  0  0
  184.5770  178.3890  139.6680 C   0  0  0  0  0  3  0  0  0  0  0  0
  179.9840  180.3820  136.9010 C   0  0  0  0  0  3  0  0  0  0  0  0
  180.2780  181.2690  137.7940 N   0  0  0  0  0  0  0  0  0  0  0  0
  180.2920  180.6090  135.4650 C   0  0  0  0  0  2  0  0  0  0  0  0
  180.3380  179.2900  134.7080 C   0  0  0  0  0  2  0  0  0  0  0  0
  180.0240  178.1150  135.6270 C   0  0  0  0  0  2  0  0  0  0  0  0
  180.0000  175.3060  135.0360 C   0  0  0  0  0  1  0  0  0  0  0  0
  181.2220  177.2240  135.8080 C   0  0  0  0  0  0  0  0  0  0  0  0
  181.1840  175.9660  135.5330 N   0  0  0  0  0  0  0  0  0  0  0  0
  182.7280  177.9220  136.3860 Cl  0  0  0  0  0  0  0  0  0  0  0  0
  186.9380  177.8950  137.9420 C   0  0  0  0  0  2  0  0  0  0  0  0
  188.2030  177.1820  137.4840 C   0  0  2  0  0  3  0  0  0  0  0  0
  189.3530  178.1690  137.4910 C   0  0  0  0  0  1  0  0  0  0  0  0
  188.0150  176.6070  136.0770 C   0  0  0  0  0  2  0  0  0  0  0  0
  187.6510  174.4860  134.8150 C   0  0  0  0  0  1  0  0  0  0  0  0
  187.2650  175.2690  136.0590 C   0  0  1  0  0  0  0  0  0  0  0  0
  187.5990  174.5170  137.1890 O   0  0  0  0  0  1  0  0  0  0  0  0
  185.7490  175.5300  136.0270 C   0  0  1  0  0  3  0  0  0  0  0  0
  185.2730  175.6760  134.7170 O   0  0  0  0  0  1  0  0  0  0  0  0
  184.9080  174.5310  136.8400 C   0  0  1  0  0  3  0  0  0  0  0  0
  184.1140  175.2420  137.7400 O   0  0  0  0  0  1  0  0  0  0  0  0
  183.2960  171.6480  136.9810 C   0  0  0  0  0  2  0  0  0  0  0  0
  184.7440  172.4610  135.5860 O   0  0  0  0  0  0  0  0  0  0  0  0
  184.6310  171.5800  136.5740 O   0  0  0  0  0  0  0  0  0  0  0  0
  182.8890  173.0740  136.8200 C   0  0  0  0  0  2  0  0  0  0  0  0
  184.0270  173.5960  135.9970 C   0  0  1  0  0  3  0  0  0  0  0  0
  184.5570  179.4530  144.3550 C   0  0  0  0  0  2  0  0  0  0  0  0
  183.8510  178.9310  145.5120 N   0  0  0  0  0  2  0  0  0  0  0  0
  184.6310  177.8030  146.0000 C   0  0  0  0  0  2  0  0  0  0  0  0
  188.4770  178.0380  145.9820 C   0  0  1  0  0  3  0  0  0  0  0  0
  187.6080  178.4280  148.1570 C   0  0  0  0  0  2  0  0  0  0  0  0
  186.2940  177.8950  147.7980 N   0  0  0  0  0  2  0  0  0  0  0  0
  186.0340  178.2370  146.4000 C   0  0  1  0  0  3  0  0  0  0  0  0
  187.0920  177.6140  145.4920 C   0  0  0  0  0  2  0  0  0  0  0  0
  188.6460  177.7280  147.4040 N   0  0  0  0  0  2  0  0  0  0  0  0
  190.3050  176.4690  141.5760 C   0  0  0  0  0  1  0  0  0  0  0  0
  191.5890  176.1580  143.6950 C   0  0  0  0  0  3  0  0  0  0  0  0
  189.4240  177.2350  143.7840 C   0  0  0  0  0  3  0  0  0  0  0  0
  191.7210  176.3060  145.0790 C   0  0  0  0  0  3  0  0  0  0  0  0
  189.5510  177.3830  145.1740 C   0  0  0  0  0  0  0  0  0  0  0  0
  190.4410  176.6220  143.0470 C   0  0  0  0  0  0  0  0  0  0  0  0
  190.7030  176.9210  145.8170 C   0  0  0  0  0  3  0  0  0  0  0  0
  1 10  2  0  0  0  0
  1 42  1  0  0  0  0
  2  5  1  0  0  0  0
  3  2  1  0  0  0  0
  5 10  1  0  0  0  0
  6  7  2  0  0  0  0
  6 14  1  0  0  0  0
  8 13  2  0  0  0  0
  8  4  1  0  0  0  0
  9  3  2  0  0  0  0
 11 13  1  0  0  0  0
 12  3  1  0  0  0  0
 13  1  1  0  0  0  0
 14  8  1  0  0  0  0
 15  9  1  6  0  0  0
 15 11  1  0  0  0  0
 15  5  1  0  0  0  0
 16 14  1  0  0  0  0
 16 11  2  0  0  0  0
 17 18  2  0  0  0  0
 18 12  1  0  0  0  0
 19 17  1  0  0  0  0
 20 19  1  0  0  0  0
 20 21  1  0  0  0  0
 21 23  1  0  0  0  0
 22 24  1  0  0  0  0
 23 25  1  0  0  0  0
 24 23  2  0  0  0  0
 26  6  1  0  0  0  0
 27 28  1  6  0  0  0
 27 26  1  0  0  0  0
 29 27  1  0  0  0  0
 31 30  1  6  0  0  0
 31 29  1  0  0  0  0
 31 32  1  0  0  0  0
 33 34  1  6  0  0  0
 33 31  1  0  0  0  0
 33 35  1  0  0  0  0
 35 36  1  1  0  0  0
 38 41  1  0  0  0  0
 38 39  1  0  0  0  0
 39 37  1  0  0  0  0
 40 37  1  0  0  0  0
 41 40  1  0  0  0  0
 41 35  1  1  0  0  0
 42 43  1  0  0  0  0
 43 44  1  0  0  0  0
 45 55  1  6  0  0  0
 45 50  1  0  0  0  0
 47 46  1  0  0  0  0
 48 44  1  6  0  0  0
 48 47  1  0  0  0  0
 49 45  1  0  0  0  0
 49 48  1  0  0  0  0
 50 46  1  0  0  0  0
 51 56  1  0  0  0  0
 52 54  1  0  0  0  0
 53 55  2  0  0  0  0
 54 57  2  0  0  0  0
 55 57  1  0  0  0  0
 56 52  2  0  0  0  0
 56 53  1  0  0  0  0
M  END
>  <MODEL>
5

>  <REMARK>
 VINA RESULT:      -6.6      3.875      7.519
  Name = 
  17 active torsions:
  status: ('A' for Active; 'I' for Inactive)
    1  A    between atoms: C_1  and  C_22
    2  A    between atoms: C_1  and  C_24
    3  A    between atoms: C_2  and  C_40
    4  A    between atoms: C_4  and  C_44
    5  A    between atoms: N_7  and  N_46
    6  A    between atoms: C_12  and  C_37
    7  A    between atoms: C_14  and  C_54
    8  A    between atoms: C_16  and  C_24
    9  A    between atoms: C_16  and  C_28
   10  A    between atoms: C_17  and  C_39
   11  A    between atoms: C_22  and  C_39
   12  A    between atoms: N_23  and  C_26
   13  A    between atoms: N_23  and  C_40
   14  A    between atoms: C_26  and  C_31
   15  A    between atoms: C_28  and  C_56
   16  A    between atoms: C_44  and  C_45
   17  A    between atoms: C_45  and  C_54
                            x       y       z     vdW  Elec       q    Type
                         _______ _______ _______ _____ _____    ______ ____

>  <TORSDO>
F 17

$$$$
=
 OpenBabel10232409033D

 57 62  0  0  1  0  0  0  0  0999 V2000
  191.1260  177.2300  140.1270 C   0  0  0  0  0  0  0  0  0  0  0  0
  191.2410  176.5740  144.0330 S   0  0  0  0  0  0  0  0  0  0  0  0
  189.6300  177.2750  144.3640 C   0  0  0  0  0  0  0  0  0  0  0  0
  189.4600  178.6000  137.7200 C   0  0  0  0  0  1  0  0  0  0  0  0
  190.6980  176.3980  142.3660 N   0  0  0  0  0  0  0  0  0  0  0  0
  186.4940  178.5310  138.6130 C   0  0  0  0  0  0  0  0  0  0  0  0
  186.6710  179.1650  137.5360 O   0  0  0  0  0  0  0  0  0  0  0  0
  188.9250  178.0450  139.0010 C   0  0  0  0  0  0  0  0  0  0  0  0
  188.7490  177.1440  143.4250 N   0  0  0  0  0  0  0  0  0  0  0  0
  191.5890  176.7390  141.2850 C   0  0  0  0  0  3  0  0  0  0  0  0
  188.8020  177.1230  141.0000 C   0  0  0  0  0  0  0  0  0  0  0  0
  189.3790  178.0360  145.5550 N   0  0  0  0  0  2  0  0  0  0  0  0
  189.6780  177.4710  140.0060 C   0  0  0  0  0  0  0  0  0  0  0  0
  187.6160  178.0380  139.3650 N   0  0  0  0  0  0  0  0  0  0  0  0
  189.2310  176.4300  142.2580 C   0  0  1  0  0  3  0  0  0  0  0  0
  187.5270  177.4620  140.5880 C   0  0  0  0  0  3  0  0  0  0  0  0
  187.1950  177.8190  146.4700 C   0  0  0  0  0  3  0  0  0  0  0  0
  188.1280  178.5480  145.9500 N   0  0  0  0  0  0  0  0  0  0  0  0
  185.8890  178.4110  146.8620 C   0  0  0  0  0  2  0  0  0  0  0  0
  184.7870  177.9620  145.9140 C   0  0  0  0  0  2  0  0  0  0  0  0
  184.1400  179.1530  145.2170 C   0  0  0  0  0  2  0  0  0  0  0  0
  181.6770  178.7900  143.7870 C   0  0  0  0  0  1  0  0  0  0  0  0
  184.0730  178.9480  143.7280 C   0  0  0  0  0  0  0  0  0  0  0  0
  182.9530  178.7890  143.1110 N   0  0  0  0  0  0  0  0  0  0  0  0
  185.5640  178.9510  142.7960 Cl  0  0  0  0  0  0  0  0  0  0  0  0
  185.0980  178.3350  139.1280 C   0  0  0  0  0  2  0  0  0  0  0  0
  184.1240  177.9380  138.0270 C   0  0  2  0  0  3  0  0  0  0  0  0
  182.7680  178.5450  138.3280 C   0  0  0  0  0  1  0  0  0  0  0  0
  184.0060  176.4140  137.9380 C   0  0  0  0  0  2  0  0  0  0  0  0
  183.3510  176.2830  135.5330 C   0  0  0  0  0  1  0  0  0  0  0  0
  184.3850  175.8520  136.5610 C   0  0  1  0  0  0  0  0  0  0  0  0
  185.6380  176.3370  136.1740 O   0  0  0  0  0  1  0  0  0  0  0  0
  184.4090  174.3150  136.6220 C   0  0  1  0  0  3  0  0  0  0  0  0
  183.8680  173.7390  135.4640 O   0  0  0  0  0  1  0  0  0  0  0  0
  185.7740  173.7080  136.9870 C   0  0  1  0  0  3  0  0  0  0  0  0
  185.6140  172.8800  138.0980 O   0  0  0  0  0  1  0  0  0  0  0  0
  188.7470  172.7350  135.9160 C   0  0  0  0  0  2  0  0  0  0  0  0
  187.1110  173.7940  134.9640 O   0  0  0  0  0  0  0  0  0  0  0  0
  188.3210  173.9900  135.4740 O   0  0  0  0  0  0  0  0  0  0  0  0
  187.5230  172.0340  136.4050 C   0  0  0  0  0  2  0  0  0  0  0  0
  186.4550  172.9260  135.8520 C   0  0  1  0  0  3  0  0  0  0  0  0
  192.0680  177.5400  139.0130 C   0  0  0  0  0  2  0  0  0  0  0  0
  193.1950  176.6250  139.0290 N   0  0  0  0  0  2  0  0  0  0  0  0
  193.3500  176.1350  137.6670 C   0  0  0  0  0  2  0  0  0  0  0  0
  195.0410  172.7010  137.2270 C   0  0  1  0  0  3  0  0  0  0  0  0
  196.3170  174.1040  138.6560 C   0  0  0  0  0  2  0  0  0  0  0  0
  195.2080  175.0410  138.8320 N   0  0  0  0  0  2  0  0  0  0  0  0
  194.4540  175.0910  137.5810 C   0  0  1  0  0  3  0  0  0  0  0  0
  193.8940  173.7120  137.2380 C   0  0  0  0  0  2  0  0  0  0  0  0
  195.7950  172.7500  138.4820 N   0  0  0  0  0  2  0  0  0  0  0  0
  192.1040  169.5030  134.7040 C   0  0  0  0  0  1  0  0  0  0  0  0
  193.6000  168.7130  136.5420 C   0  0  0  0  0  3  0  0  0  0  0  0
  193.5760  171.0670  135.9800 C   0  0  0  0  0  3  0  0  0  0  0  0
  194.5520  168.9590  137.5350 C   0  0  0  0  0  3  0  0  0  0  0  0
  194.5290  171.3180  136.9790 C   0  0  0  0  0  0  0  0  0  0  0  0
  193.1110  169.7660  135.7630 C   0  0  0  0  0  0  0  0  0  0  0  0
  195.0180  170.2610  137.7520 C   0  0  0  0  0  3  0  0  0  0  0  0
  1 10  2  0  0  0  0
  2  3  1  0  0  0  0
  3 12  1  0  0  0  0
  4  8  1  0  0  0  0
  5  2  1  0  0  0  0
  6 26  1  0  0  0  0
  6 14  1  0  0  0  0
  7  6  2  0  0  0  0
  8 14  1  0  0  0  0
  8 13  2  0  0  0  0
  9  3  2  0  0  0  0
 10  5  1  0  0  0  0
 12 18  1  0  0  0  0
 13  1  1  0  0  0  0
 13 11  1  0  0  0  0
 14 16  1  0  0  0  0
 15 11  1  6  0  0  0
 15  5  1  0  0  0  0
 15  9  1  0  0  0  0
 16 11  2  0  0  0  0
 17 19  1  0  0  0  0
 18 17  2  0  0  0  0
 20 19  1  0  0  0  0
 21 20  1  0  0  0  0
 23 21  1  0  0  0  0
 24 23  2  0  0  0  0
 24 22  1  0  0  0  0
 25 23  1  0  0  0  0
 27 28  1  1  0  0  0
 27 26  1  0  0  0  0
 29 27  1  0  0  0  0
 31 30  1  6  0  0  0
 31 33  1  0  0  0  0
 31 29  1  0  0  0  0
 32 31  1  0  0  0  0
 33 34  1  6  0  0  0
 33 35  1  0  0  0  0
 35 36  1  1  0  0  0
 37 40  1  0  0  0  0
 38 39  1  0  0  0  0
 38 41  1  0  0  0  0
 39 37  1  0  0  0  0
 41 40  1  0  0  0  0
 41 35  1  1  0  0  0
 42 43  1  0  0  0  0
 42  1  1  0  0  0  0
 44 43  1  0  0  0  0
 45 55  1  1  0  0  0
 45 49  1  0  0  0  0
 45 50  1  0  0  0  0
 46 47  1  0  0  0  0
 48 44  1  1  0  0  0
 48 47  1  0  0  0  0
 49 48  1  0  0  0  0
 50 46  1  0  0  0  0
 51 56  1  0  0  0  0
 52 54  1  0  0  0  0
 53 55  2  0  0  0  0
 54 57  2  0  0  0  0
 55 57  1  0  0  0  0
 56 53  1  0  0  0  0
 56 52  2  0  0  0  0
M  END
>  <MODEL>
6

>  <REMARK>
 VINA RESULT:      -6.4      3.143      8.865
  Name = 
  17 active torsions:
  status: ('A' for Active; 'I' for Inactive)
    1  A    between atoms: C_1  and  C_22
    2  A    between atoms: C_1  and  C_24
    3  A    between atoms: C_2  and  C_40
    4  A    between atoms: C_4  and  C_44
    5  A    between atoms: N_7  and  N_46
    6  A    between atoms: C_12  and  C_37
    7  A    between atoms: C_14  and  C_54
    8  A    between atoms: C_16  and  C_24
    9  A    between atoms: C_16  and  C_28
   10  A    between atoms: C_17  and  C_39
   11  A    between atoms: C_22  and  C_39
   12  A    between atoms: N_23  and  C_26
   13  A    between atoms: N_23  and  C_40
   14  A    between atoms: C_26  and  C_31
   15  A    between atoms: C_28  and  C_56
   16  A    between atoms: C_44  and  C_45
   17  A    between atoms: C_45  and  C_54
                            x       y       z     vdW  Elec       q    Type
                         _______ _______ _______ _____ _____    ______ ____

>  <TORSDO>
F 17

$$$$
=
 OpenBabel10232409033D

 57 62  0  0  1  0  0  0  0  0999 V2000
  184.5060  178.9640  143.4110 C   0  0  0  0  0  0  0  0  0  0  0  0
  180.7000  179.5440  142.4770 S   0  0  0  0  0  0  0  0  0  0  0  0
  181.0010  179.8460  140.7410 C   0  0  0  0  0  0  0  0  0  0  0  0
  187.5450  179.0590  142.3150 C   0  0  0  0  0  1  0  0  0  0  0  0
  182.2690  178.7440  142.4960 N   0  0  0  0  0  0  0  0  0  0  0  0
  187.3580  178.4520  139.2820 C   0  0  0  0  0  0  0  0  0  0  0  0
  188.5240  178.7640  139.6530 O   0  0  0  0  0  0  0  0  0  0  0  0
  186.3010  178.7810  141.5350 C   0  0  0  0  0  0  0  0  0  0  0  0
  182.0000  179.2100  140.2180 N   0  0  0  0  0  0  0  0  0  0  0  0
  183.1770  178.9810  143.5900 C   0  0  0  0  0  3  0  0  0  0  0  0
  184.1830  178.4910  140.9930 C   0  0  0  0  0  0  0  0  0  0  0  0
  180.2450  180.8260  140.0130 N   0  0  0  0  0  2  0  0  0  0  0  0
  185.0180  178.7560  142.0460 C   0  0  0  0  0  0  0  0  0  0  0  0
  186.2540  178.5260  140.2010 N   0  0  0  0  0  0  0  0  0  0  0  0
  182.7000  178.3430  141.1480 C   0  0  1  0  0  3  0  0  0  0  0  0
  184.9570  178.3340  139.8590 C   0  0  0  0  0  3  0  0  0  0  0  0
  179.9940  180.2100  137.7300 C   0  0  0  0  0  3  0  0  0  0  0  0
  180.3430  181.0710  138.6300 N   0  0  0  0  0  0  0  0  0  0  0  0
  180.1250  180.5200  136.2820 C   0  0  0  0  0  2  0  0  0  0  0  0
  180.4390  179.2600  135.4880 C   0  0  0  0  0  2  0  0  0  0  0  0
  180.4200  178.0250  136.3810 C   0  0  0  0  0  2  0  0  0  0  0  0
  183.1010  177.0890  136.7970 C   0  0  0  0  0  1  0  0  0  0  0  0
  180.9940  176.8280  135.6740 C   0  0  0  0  0  0  0  0  0  0  0  0
  182.2010  176.4280  135.8810 N   0  0  0  0  0  0  0  0  0  0  0  0
  179.9820  175.9290  134.5520 Cl  0  0  0  0  0  0  0  0  0  0  0  0
  187.1250  178.0440  137.8570 C   0  0  0  0  0  2  0  0  0  0  0  0
  188.3830  177.4910  137.1990 C   0  0  2  0  0  3  0  0  0  0  0  0
  189.3010  178.6450  136.8480 C   0  0  0  0  0  1  0  0  0  0  0  0
  188.0260  176.7040  135.9350 C   0  0  0  0  0  2  0  0  0  0  0  0
  187.3690  174.4510  136.7810 C   0  0  0  0  0  1  0  0  0  0  0  0
  188.4240  175.2240  136.0060 C   0  0  1  0  0  0  0  0  0  0  0  0
  188.5200  174.6910  134.7170 O   0  0  0  0  0  1  0  0  0  0  0  0
  189.7710  175.0880  136.7370 C   0  0  1  0  0  3  0  0  0  0  0  0
  189.7380  174.0770  137.7070 O   0  0  0  0  0  1  0  0  0  0  0  0
  190.9930  174.9620  135.8120 C   0  0  1  0  0  3  0  0  0  0  0  0
  191.2650  176.2120  135.2550 O   0  0  0  0  0  1  0  0  0  0  0  0
  193.9980  175.8740  136.8460 C   0  0  0  0  0  2  0  0  0  0  0  0
  193.3050  174.2700  135.5610 O   0  0  0  0  0  0  0  0  0  0  0  0
  193.9140  175.4490  135.5170 O   0  0  0  0  0  0  0  0  0  0  0  0
  192.7610  175.3770  137.5150 C   0  0  0  0  0  2  0  0  0  0  0  0
  192.2590  174.4110  136.4880 C   0  0  1  0  0  3  0  0  0  0  0  0
  185.4220  179.1760  144.5680 C   0  0  0  0  0  2  0  0  0  0  0  0
  184.6740  179.2050  145.8120 N   0  0  0  0  0  2  0  0  0  0  0  0
  185.2170  178.1440  146.6470 C   0  0  0  0  0  2  0  0  0  0  0  0
  189.0490  177.9080  146.3190 C   0  0  1  0  0  3  0  0  0  0  0  0
  188.4070  178.2810  148.5740 C   0  0  0  0  0  2  0  0  0  0  0  0
  187.0120  177.9330  148.3020 N   0  0  0  0  0  2  0  0  0  0  0  0
  186.6910  178.3800  146.9480 C   0  0  1  0  0  3  0  0  0  0  0  0
  187.5880  177.6830  145.9270 C   0  0  0  0  0  2  0  0  0  0  0  0
  189.2870  177.5020  147.7070 N   0  0  0  0  0  2  0  0  0  0  0  0
  190.3140  176.3650  141.7110 C   0  0  0  0  0  1  0  0  0  0  0  0
  191.7130  175.7910  143.6980 C   0  0  0  0  0  3  0  0  0  0  0  0
  189.7120  177.1140  144.0170 C   0  0  0  0  0  3  0  0  0  0  0  0
  191.9720  175.8500  145.0710 C   0  0  0  0  0  3  0  0  0  0  0  0
  189.9670  177.1730  145.3960 C   0  0  0  0  0  0  0  0  0  0  0  0
  190.5840  176.4230  143.1700 C   0  0  0  0  0  0  0  0  0  0  0  0
  191.1000  176.5430  145.9180 C   0  0  0  0  0  3  0  0  0  0  0  0
  1 10  2  0  0  0  0
  1 42  1  0  0  0  0
  2  5  1  0  0  0  0
  3  2  1  0  0  0  0
  5 10  1  0  0  0  0
  6  7  2  0  0  0  0
  6 14  1  0  0  0  0
  8 13  2  0  0  0  0
  8  4  1  0  0  0  0
  9  3  2  0  0  0  0
 11 15  1  0  0  0  0
 11 13  1  0  0  0  0
 12  3  1  0  0  0  0
 13  1  1  0  0  0  0
 14  8  1  0  0  0  0
 15  9  1  6  0  0  0
 15  5  1  0  0  0  0
 16 14  1  0  0  0  0
 16 11  2  0  0  0  0
 17 18  2  0  0  0  0
 18 12  1  0  0  0  0
 19 17  1  0  0  0  0
 20 19  1  0  0  0  0
 20 21  1  0  0  0  0
 23 24  2  0  0  0  0
 23 21  1  0  0  0  0
 24 22  1  0  0  0  0
 25 23  1  0  0  0  0
 26  6  1  0  0  0  0
 27 28  1  6  0  0  0
 27 26  1  0  0  0  0
 29 31  1  0  0  0  0
 29 27  1  0  0  0  0
 31 33  1  0  0  0  0
 31 30  1  1  0  0  0
 32 31  1  0  0  0  0
 33 34  1  1  0  0  0
 35 36  1  1  0  0  0
 35 33  1  0  0  0  0
 37 40  1  0  0  0  0
 38 41  1  0  0  0  0
 39 38  1  0  0  0  0
 39 37  1  0  0  0  0
 41 35  1  6  0  0  0
 41 40  1  0  0  0  0
 42 43  1  0  0  0  0
 43 44  1  0  0  0  0
 45 55  1  6  0  0  0
 45 50  1  0  0  0  0
 47 46  1  0  0  0  0
 48 44  1  6  0  0  0
 48 47  1  0  0  0  0
 49 45  1  0  0  0  0
 49 48  1  0  0  0  0
 50 46  1  0  0  0  0
 51 56  1  0  0  0  0
 52 54  1  0  0  0  0
 53 55  2  0  0  0  0
 54 57  2  0  0  0  0
 55 57  1  0  0  0  0
 56 52  2  0  0  0  0
 56 53  1  0  0  0  0
M  END
>  <MODEL>
7

>  <REMARK>
 VINA RESULT:      -6.4      4.150      8.294
  Name = 
  17 active torsions:
  status: ('A' for Active; 'I' for Inactive)
    1  A    between atoms: C_1  and  C_22
    2  A    between atoms: C_1  and  C_24
    3  A    between atoms: C_2  and  C_40
    4  A    between atoms: C_4  and  C_44
    5  A    between atoms: N_7  and  N_46
    6  A    between atoms: C_12  and  C_37
    7  A    between atoms: C_14  and  C_54
    8  A    between atoms: C_16  and  C_24
    9  A    between atoms: C_16  and  C_28
   10  A    between atoms: C_17  and  C_39
   11  A    between atoms: C_22  and  C_39
   12  A    between atoms: N_23  and  C_26
   13  A    between atoms: N_23  and  C_40
   14  A    between atoms: C_26  and  C_31
   15  A    between atoms: C_28  and  C_56
   16  A    between atoms: C_44  and  C_45
   17  A    between atoms: C_45  and  C_54
                            x       y       z     vdW  Elec       q    Type
                         _______ _______ _______ _____ _____    ______ ____

>  <TORSDO>
F 17

$$$$
=
 OpenBabel10232409033D

 57 62  0  0  1  0  0  0  0  0999 V2000
  190.3290  176.6950  137.2790 C   0  0  0  0  0  0  0  0  0  0  0  0
  187.9490  175.2960  134.4370 S   0  0  0  0  0  0  0  0  0  0  0  0
  186.4540  175.3950  135.4130 C   0  0  0  0  0  0  0  0  0  0  0  0
  190.5050  177.6060  140.3750 C   0  0  0  0  0  1  0  0  0  0  0  0
  188.6280  176.4690  135.5640 N   0  0  0  0  0  0  0  0  0  0  0  0
  187.6830  178.6630  141.0960 C   0  0  0  0  0  0  0  0  0  0  0  0
  188.4610  178.6120  142.0890 O   0  0  0  0  0  0  0  0  0  0  0  0
  189.3190  177.6750  139.4680 C   0  0  0  0  0  0  0  0  0  0  0  0
  186.4030  176.3550  136.2790 N   0  0  0  0  0  0  0  0  0  0  0  0
  189.9740  176.2940  136.0500 C   0  0  0  0  0  3  0  0  0  0  0  0
  188.0110  177.4810  137.7040 C   0  0  0  0  0  0  0  0  0  0  0  0
  185.4310  174.3930  135.3120 N   0  0  0  0  0  2  0  0  0  0  0  0
  189.2880  177.2680  138.1490 C   0  0  0  0  0  0  0  0  0  0  0  0
  188.0910  178.1380  139.8200 N   0  0  0  0  0  0  0  0  0  0  0  0
  187.5820  177.2000  136.2950 C   0  0  1  0  0  3  0  0  0  0  0  0
  187.2810  178.0350  138.7380 C   0  0  0  0  0  3  0  0  0  0  0  0
  183.0910  174.8110  135.3870 C   0  0  0  0  0  3  0  0  0  0  0  0
  184.1840  174.4290  135.9640 N   0  0  0  0  0  0  0  0  0  0  0  0
  181.8030  174.8360  136.1270 C   0  0  0  0  0  2  0  0  0  0  0  0
  181.9470  175.6020  137.4340 C   0  0  0  0  0  2  0  0  0  0  0  0
  181.2790  176.9700  137.3480 C   0  0  0  0  0  2  0  0  0  0  0  0
  180.4830  179.7200  137.5630 C   0  0  0  0  0  1  0  0  0  0  0  0
  182.2030  178.0620  137.8170 C   0  0  0  0  0  0  0  0  0  0  0  0
  181.8180  179.2880  137.9060 N   0  0  0  0  0  0  0  0  0  0  0  0
  183.8460  177.6510  138.2840 Cl  0  0  0  0  0  0  0  0  0  0  0  0
  186.3070  179.2370  141.2680 C   0  0  0  0  0  2  0  0  0  0  0  0
  185.5050  178.5090  142.3380 C   0  0  2  0  0  3  0  0  0  0  0  0
  184.1000  178.2720  141.8230 C   0  0  0  0  0  1  0  0  0  0  0  0
  185.4570  179.3340  143.6270 C   0  0  0  0  0  2  0  0  0  0  0  0
  183.8010  178.7780  145.4100 C   0  0  0  0  0  1  0  0  0  0  0  0
  185.1980  178.4900  144.8820 C   0  0  1  0  0  0  0  0  0  0  0  0
  185.2930  177.1290  144.5740 O   0  0  0  0  0  1  0  0  0  0  0  0
  186.2210  178.8590  145.9710 C   0  0  1  0  0  3  0  0  0  0  0  0
  185.5960  179.2410  147.1660 O   0  0  0  0  0  1  0  0  0  0  0  0
  187.3180  177.8060  146.2020 C   0  0  1  0  0  3  0  0  0  0  0  0
  188.3510  178.0270  145.2900 O   0  0  0  0  0  1  0  0  0  0  0  0
  190.1560  177.4690  147.8660 C   0  0  0  0  0  2  0  0  0  0  0  0
  188.2390  176.4650  148.0020 O   0  0  0  0  0  0  0  0  0  0  0  0
  189.4800  176.2830  147.5660 O   0  0  0  0  0  0  0  0  0  0  0  0
  189.1560  178.5640  147.7020 C   0  0  0  0  0  2  0  0  0  0  0  0
  187.8870  177.7720  147.6300 C   0  0  1  0  0  3  0  0  0  0  0  0
  191.7380  176.5340  137.7430 C   0  0  0  0  0  2  0  0  0  0  0  0
  192.3790  175.4300  137.0520 N   0  0  0  0  0  2  0  0  0  0  0  0
  193.7130  175.8860  136.6900 C   0  0  0  0  0  2  0  0  0  0  0  0
  195.2690  172.3960  137.1840 C   0  0  1  0  0  3  0  0  0  0  0  0
  196.3600  174.0160  138.5340 C   0  0  0  0  0  2  0  0  0  0  0  0
  195.2890  174.9930  138.3410 N   0  0  0  0  0  2  0  0  0  0  0  0
  194.7590  174.8210  136.9890 C   0  0  1  0  0  3  0  0  0  0  0  0
  194.1910  173.4150  136.8110 C   0  0  0  0  0  2  0  0  0  0  0  0
  195.8040  172.6650  138.5210 N   0  0  0  0  0  2  0  0  0  0  0  0
  192.4300  168.9110  134.9460 C   0  0  0  0  0  1  0  0  0  0  0  0
  193.7570  168.3800  136.9940 C   0  0  0  0  0  3  0  0  0  0  0  0
  193.8500  170.6210  136.0850 C   0  0  0  0  0  3  0  0  0  0  0  0
  194.6390  168.7550  138.0120 C   0  0  0  0  0  3  0  0  0  0  0  0
  194.7330  171.0020  137.1070 C   0  0  0  0  0  0  0  0  0  0  0  0
  193.3620  169.3120  136.0300 C   0  0  0  0  0  0  0  0  0  0  0  0
  195.1280  170.0650  138.0660 C   0  0  0  0  0  3  0  0  0  0  0  0
  1 42  1  0  0  0  0
  1 13  1  0  0  0  0
  2  3  1  0  0  0  0
  2  5  1  0  0  0  0
  3  9  2  0  0  0  0
  5 10  1  0  0  0  0
  5 15  1  0  0  0  0
  6 26  1  0  0  0  0
  6  7  2  0  0  0  0
  8 14  1  0  0  0  0
  8  4  1  0  0  0  0
 10  1  2  0  0  0  0
 11 13  1  0  0  0  0
 11 16  2  0  0  0  0
 12  3  1  0  0  0  0
 12 18  1  0  0  0  0
 13  8  2  0  0  0  0
 14  6  1  0  0  0  0
 15  9  1  1  0  0  0
 15 11  1  0  0  0  0
 16 14  1  0  0  0  0
 17 18  2  0  0  0  0
 17 19  1  0  0  0  0
 19 20  1  0  0  0  0
 21 20  1  0  0  0  0
 21 23  1  0  0  0  0
 22 24  1  0  0  0  0
 23 24  2  0  0  0  0
 23 25  1  0  0  0  0
 26 27  1  0  0  0  0
 27 28  1  6  0  0  0
 27 29  1  0  0  0  0
 29 31  1  0  0  0  0
 31 30  1  1  0  0  0
 31 33  1  0  0  0  0
 32 31  1  0  0  0  0
 33 35  1  0  0  0  0
 33 34  1  1  0  0  0
 35 36  1  6  0  0  0
 39 37  1  0  0  0  0
 39 38  1  0  0  0  0
 40 37  1  0  0  0  0
 41 35  1  6  0  0  0
 41 40  1  0  0  0  0
 41 38  1  0  0  0  0
 43 42  1  0  0  0  0
 44 43  1  0  0  0  0
 45 55  1  1  0  0  0
 45 50  1  0  0  0  0
 47 46  1  0  0  0  0
 48 44  1  1  0  0  0
 48 47  1  0  0  0  0
 49 48  1  0  0  0  0
 49 45  1  0  0  0  0
 50 46  1  0  0  0  0
 51 56  1  0  0  0  0
 52 54  1  0  0  0  0
 53 55  2  0  0  0  0
 54 57  2  0  0  0  0
 55 57  1  0  0  0  0
 56 53  1  0  0  0  0
 56 52  2  0  0  0  0
M  END
>  <MODEL>
8

>  <REMARK>
 VINA RESULT:      -6.3      3.692      8.731
  Name = 
  17 active torsions:
  status: ('A' for Active; 'I' for Inactive)
    1  A    between atoms: C_1  and  C_22
    2  A    between atoms: C_1  and  C_24
    3  A    between atoms: C_2  and  C_40
    4  A    between atoms: C_4  and  C_44
    5  A    between atoms: N_7  and  N_46
    6  A    between atoms: C_12  and  C_37
    7  A    between atoms: C_14  and  C_54
    8  A    between atoms: C_16  and  C_24
    9  A    between atoms: C_16  and  C_28
   10  A    between atoms: C_17  and  C_39
   11  A    between atoms: C_22  and  C_39
   12  A    between atoms: N_23  and  C_26
   13  A    between atoms: N_23  and  C_40
   14  A    between atoms: C_26  and  C_31
   15  A    between atoms: C_28  and  C_56
   16  A    between atoms: C_44  and  C_45
   17  A    between atoms: C_45  and  C_54
                            x       y       z     vdW  Elec       q    Type
                         _______ _______ _______ _____ _____    ______ ____

>  <TORSDO>
F 17

$$$$
=
 OpenBabel10232409033D

 57 62  0  0  1  0  0  0  0  0999 V2000
  190.6320  176.3710  137.6800 C   0  0  0  0  0  0  0  0  0  0  0  0
  191.8790  173.1700  135.7060 S   0  0  0  0  0  0  0  0  0  0  0  0
  190.2570  172.6940  135.1240 C   0  0  0  0  0  0  0  0  0  0  0  0
  188.0410  178.0440  138.6450 C   0  0  0  0  0  1  0  0  0  0  0  0
  191.2010  174.7800  135.9390 N   0  0  0  0  0  0  0  0  0  0  0  0
  185.8640  177.5210  136.5020 C   0  0  0  0  0  0  0  0  0  0  0  0
  185.4390  178.1850  137.4870 O   0  0  0  0  0  0  0  0  0  0  0  0
  188.1760  177.1930  137.4230 C   0  0  0  0  0  0  0  0  0  0  0  0
  189.4280  173.6620  134.8970 N   0  0  0  0  0  0  0  0  0  0  0  0
  191.5130  175.5180  137.1370 C   0  0  0  0  0  3  0  0  0  0  0  0
  188.9920  175.8300  135.8940 C   0  0  0  0  0  0  0  0  0  0  0  0
  189.8740  171.3140  135.0310 N   0  0  0  0  0  2  0  0  0  0  0  0
  189.3050  176.4900  137.0520 C   0  0  0  0  0  0  0  0  0  0  0  0
  187.1960  176.9780  136.5070 N   0  0  0  0  0  0  0  0  0  0  0  0
  189.9770  174.9810  135.1480 C   0  0  1  0  0  3  0  0  0  0  0  0
  187.6910  176.1500  135.5540 C   0  0  0  0  0  3  0  0  0  0  0  0
  187.5020  171.1410  134.9890 C   0  0  0  0  0  3  0  0  0  0  0  0
  188.6600  170.8360  134.5010 N   0  0  0  0  0  0  0  0  0  0  0  0
  186.2520  170.6020  134.3930 C   0  0  0  0  0  2  0  0  0  0  0  0
  185.3500  170.0170  135.4690 C   0  0  0  0  0  2  0  0  0  0  0  0
  184.2270  170.9810  135.8330 C   0  0  0  0  0  2  0  0  0  0  0  0
  181.7740  172.1520  136.7540 C   0  0  0  0  0  1  0  0  0  0  0  0
  182.8760  170.3680  135.5820 C   0  0  0  0  0  0  0  0  0  0  0  0
  181.7900  170.9170  136.0060 N   0  0  0  0  0  0  0  0  0  0  0  0
  182.7700  168.8750  134.6620 Cl  0  0  0  0  0  0  0  0  0  0  0  0
  184.9500  177.2620  135.3400 C   0  0  0  0  0  2  0  0  0  0  0  0
  183.6280  176.6420  135.7700 C   0  0  2  0  0  3  0  0  0  0  0  0
  183.5550  175.2240  135.2410 C   0  0  0  0  0  1  0  0  0  0  0  0
  182.4510  177.4610  135.2320 C   0  0  0  0  0  2  0  0  0  0  0  0
  179.9970  177.7460  135.5850 C   0  0  0  0  0  1  0  0  0  0  0  0
  181.3520  177.7070  136.2740 C   0  0  1  0  0  0  0  0  0  0  0  0
  181.3490  176.6770  137.2200 O   0  0  0  0  0  1  0  0  0  0  0  0
  181.5920  179.0600  136.9660 C   0  0  1  0  0  3  0  0  0  0  0  0
  180.6050  179.9980  136.6340 O   0  0  0  0  0  1  0  0  0  0  0  0
  181.8200  178.9730  138.4850 C   0  0  1  0  0  3  0  0  0  0  0  0
  182.6940  179.9920  138.8660 O   0  0  0  0  0  1  0  0  0  0  0  0
  180.7750  179.4660  141.5830 C   0  0  0  0  0  2  0  0  0  0  0  0
  180.3990  177.8980  140.1320 O   0  0  0  0  0  0  0  0  0  0  0  0
  181.0800  178.1440  141.2450 O   0  0  0  0  0  0  0  0  0  0  0  0
  180.6150  180.1940  140.2900 C   0  0  0  0  0  2  0  0  0  0  0  0
  180.5400  179.0450  139.3330 C   0  0  1  0  0  3  0  0  0  0  0  0
  190.9950  177.1490  138.8990 C   0  0  0  0  0  2  0  0  0  0  0  0
  190.4370  176.5270  140.0870 N   0  0  0  0  0  2  0  0  0  0  0  0
  191.3030  176.8990  141.1960 C   0  0  0  0  0  2  0  0  0  0  0  0
  188.7650  176.7610  144.0910 C   0  0  1  0  0  3  0  0  0  0  0  0
  190.9770  176.4040  144.8770 C   0  0  0  0  0  2  0  0  0  0  0  0
  191.5670  176.8940  143.6320 N   0  0  0  0  0  2  0  0  0  0  0  0
  190.6850  176.5110  142.5310 C   0  0  1  0  0  3  0  0  0  0  0  0
  189.3040  177.1380  142.7100 C   0  0  0  0  0  2  0  0  0  0  0  0
  189.7260  177.1100  145.1410 N   0  0  0  0  0  2  0  0  0  0  0  0
  184.4350  178.6890  142.4340 C   0  0  0  0  0  1  0  0  0  0  0  0
  184.9880  178.6530  144.8690 C   0  0  0  0  0  3  0  0  0  0  0  0
  186.5800  177.7400  143.2920 C   0  0  0  0  0  3  0  0  0  0  0  0
  185.8490  178.3350  145.9240 C   0  0  0  0  0  3  0  0  0  0  0  0
  187.4490  177.4220  144.3470 C   0  0  0  0  0  0  0  0  0  0  0  0
  185.3530  178.3560  143.5530 C   0  0  0  0  0  0  0  0  0  0  0  0
  187.0780  177.7170  145.6620 C   0  0  0  0  0  3  0  0  0  0  0  0
  1 42  1  0  0  0  0
  2  5  1  0  0  0  0
  3  2  1  0  0  0  0
  5 10  1  0  0  0  0
  6 14  1  0  0  0  0
  6  7  2  0  0  0  0
  8  4  1  0  0  0  0
  9  3  2  0  0  0  0
 10  1  2  0  0  0  0
 11 13  1  0  0  0  0
 12  3  1  0  0  0  0
 13  8  2  0  0  0  0
 13  1  1  0  0  0  0
 14  8  1  0  0  0  0
 15  9  1  1  0  0  0
 15 11  1  0  0  0  0
 15  5  1  0  0  0  0
 16 11  2  0  0  0  0
 16 14  1  0  0  0  0
 18 17  2  0  0  0  0
 18 12  1  0  0  0  0
 19 17  1  0  0  0  0
 19 20  1  0  0  0  0
 20 21  1  0  0  0  0
 23 21  1  0  0  0  0
 23 24  2  0  0  0  0
 24 22  1  0  0  0  0
 25 23  1  0  0  0  0
 26 27  1  0  0  0  0
 26  6  1  0  0  0  0
 27 28  1  6  0  0  0
 29 27  1  0  0  0  0
 29 31  1  0  0  0  0
 31 30  1  6  0  0  0
 31 33  1  0  0  0  0
 31 32  1  0  0  0  0
 33 34  1  1  0  0  0
 33 35  1  0  0  0  0
 35 36  1  1  0  0  0
 38 39  1  0  0  0  0
 39 37  1  0  0  0  0
 40 37  1  0  0  0  0
 41 35  1  1  0  0  0
 41 38  1  0  0  0  0
 41 40  1  0  0  0  0
 42 43  1  0  0  0  0
 43 44  1  0  0  0  0
 45 55  1  1  0  0  0
 45 50  1  0  0  0  0
 46 50  1  0  0  0  0
 47 46  1  0  0  0  0
 48 44  1  6  0  0  0
 48 49  1  0  0  0  0
 48 47  1  0  0  0  0
 49 45  1  0  0  0  0
 51 56  1  0  0  0  0
 52 54  1  0  0  0  0
 53 56  1  0  0  0  0
 53 55  2  0  0  0  0
 55 57  1  0  0  0  0
 56 52  2  0  0  0  0
 57 54  2  0  0  0  0
M  END
>  <MODEL>
9

>  <REMARK>
 VINA RESULT:      -6.2      1.904      2.633
  Name = 
  17 active torsions:
  status: ('A' for Active; 'I' for Inactive)
    1  A    between atoms: C_1  and  C_22
    2  A    between atoms: C_1  and  C_24
    3  A    between atoms: C_2  and  C_40
    4  A    between atoms: C_4  and  C_44
    5  A    between atoms: N_7  and  N_46
    6  A    between atoms: C_12  and  C_37
    7  A    between atoms: C_14  and  C_54
    8  A    between atoms: C_16  and  C_24
    9  A    between atoms: C_16  and  C_28
   10  A    between atoms: C_17  and  C_39
   11  A    between atoms: C_22  and  C_39
   12  A    between atoms: N_23  and  C_26
   13  A    between atoms: N_23  and  C_40
   14  A    between atoms: C_26  and  C_31
   15  A    between atoms: C_28  and  C_56
   16  A    between atoms: C_44  and  C_45
   17  A    between atoms: C_45  and  C_54
                            x       y       z     vdW  Elec       q    Type
                         _______ _______ _______ _____ _____    ______ ____

>  <TORSDO>
F 17

$$$$
