=
 OpenBabel10232411163D

 33 37  0  0  1  0  0  0  0  0999 V2000
  184.1480  178.5870  143.7610 N   0  0  0  0  0  0  0  0  0  0  0  0
  188.9810  178.7240  139.4100 C   0  0  0  0  0  2  0  0  0  0  0  0
  186.1640  178.0250  142.5810 C   0  0  1  0  0  3  0  0  0  0  0  0
  190.1360  177.9980  140.0860 C   0  0  1  0  0  3  0  0  0  0  0  0
  186.2790  178.2730  139.7540 S   0  0  0  0  0  0  0  0  0  0  0  0
  189.6490  177.6560  141.4380 N   0  0  1  0  0  0  0  0  0  0  0  0
  187.6590  177.7020  142.6240 C   0  0  1  0  0  3  0  0  0  0  0  0
  185.4420  178.1730  143.7840 C   0  0  0  0  0  0  0  0  0  0  0  0
  185.9830  177.9280  144.8940 O   0  0  0  0  0  0  0  0  0  0  0  0
  187.9300  176.4090  143.3990 C   0  0  0  0  0  2  0  0  0  0  0  0
  189.5330  174.6970  143.5030 O   0  0  0  0  0  0  0  0  0  0  0  0
  189.2510  175.7820  143.0240 C   0  0  0  0  0  0  0  0  0  0  0  0
  187.8920  178.6660  140.4500 C   0  0  1  0  0  3  0  0  0  0  0  0
  183.5250  178.8800  142.5970 C   0  0  0  0  0  3  0  0  0  0  0  0
  188.2540  177.5570  141.3000 N   0  0  1  0  0  0  0  0  0  0  0  0
  185.4910  178.3590  141.3770 C   0  0  0  0  0  0  0  0  0  0  0  0
  184.1950  178.7700  141.4240 N   0  0  0  0  0  0  0  0  0  0  0  0
  190.1860  176.4000  141.9980 C   0  0  2  0  0  3  0  0  0  0  0  0
  190.5290  176.7730  139.2450 C   0  0  0  0  0  2  0  0  0  0  0  0
  190.5150  177.0700  137.7510 C   0  0  0  0  0  2  0  0  0  0  0  0
  191.5750  176.4230  137.1110 O   0  0  0  0  0  0  0  0  0  0  0  0
  193.8200  176.7560  137.3560 O   0  0  0  0  0  1  0  0  0  0  0  0
  192.6300  176.4600  138.0250 C   0  0  0  0  0  2  0  0  0  0  0  0
  191.5430  176.6630  142.6490 C   0  0  0  0  0  2  0  0  0  0  0  0
  190.9620  176.5980  147.1630 C   0  0  0  0  0  3  0  0  0  0  0  0
  191.9200  176.0290  146.4370 C   0  0  0  0  0  0  0  0  0  0  0  0
  191.0360  179.4280  143.7150 C   0  0  0  0  0  1  0  0  0  0  0  0
  190.8500  178.2180  144.5660 C   0  0  0  0  0  0  0  0  0  0  0  0
  189.7450  177.2270  146.5710 C   0  0  0  0  0  2  0  0  0  0  0  0
  191.4280  176.9210  144.1210 C   0  0  0  0  0  0  0  0  0  0  0  0
  192.9270  175.3950  147.0880 F   0  0  0  0  0  0  0  0  0  0  0  0
  190.1090  178.3590  145.6670 C   0  0  0  0  0  3  0  0  0  0  0  0
  191.9120  175.9870  144.9590 C   0  0  0  0  0  3  0  0  0  0  0  0
  1  8  1  0  0  0  0
  2  4  1  0  0  0  0
  2 13  1  0  0  0  0
  3 16  1  1  0  0  0
  3  7  1  0  0  0  0
  3  8  1  0  0  0  0
  4 19  1  6  0  0  0
  4  6  1  0  0  0  0
  5 13  1  0  0  0  0
  5 16  1  0  0  0  0
  6 18  1  0  0  0  0
  7 10  1  0  0  0  0
  8  9  2  0  0  0  0
 12 10  1  0  0  0  0
 12 11  2  0  0  0  0
 13 15  1  0  0  0  0
 14  1  2  0  0  0  0
 15  6  1  0  0  0  0
 15  7  1  0  0  0  0
 16 17  2  0  0  0  0
 17 14  1  0  0  0  0
 18 24  1  0  0  0  0
 18 12  1  0  0  0  0
 20 19  1  0  0  0  0
 21 20  1  0  0  0  0
 21 23  1  0  0  0  0
 22 23  1  0  0  0  0
 24 30  1  0  0  0  0
 26 31  1  0  0  0  0
 26 25  2  0  0  0  0
 27 28  1  0  0  0  0
 28 32  2  0  0  0  0
 29 25  1  0  0  0  0
 30 28  1  0  0  0  0
 30 33  2  0  0  0  0
 32 29  1  0  0  0  0
 33 26  1  0  0  0  0
M  END
>  <MODEL>
1

>  <REMARK>
 VINA RESULT:      -8.0      0.000      0.000
  Name = 
  6 active torsions:
  status: ('A' for Active; 'I' for Inactive)
    1  A    between atoms: C_2  and  C_6
    2  A    between atoms: C_2  and  C_32
    3  A    between atoms: C_16  and  C_30
    4  A    between atoms: C_27  and  O_29
    5  A    between atoms: O_29  and  C_32
    6  A    between atoms: C_30  and  C_33
                            x       y       z     vdW  Elec       q    Type
                         _______ _______ _______ _____ _____    ______ ____

>  <TORSDO>
F 6

$$$$
=
 OpenBabel10232411163D

 33 37  0  0  1  0  0  0  0  0999 V2000
  182.3770  178.7990  142.7910 N   0  0  0  0  0  2  0  0  0  0  0  0
  187.7680  177.2350  146.0770 C   0  0  0  0  0  2  0  0  0  0  0  0
  184.6900  178.4310  143.3240 C   0  0  0  0  0  0  0  0  0  0  0  0
  188.8050  176.9310  145.0050 C   0  0  1  0  0  3  0  0  0  0  0  0
  185.6650  179.0170  145.9270 S   0  0  0  0  0  0  0  0  0  0  0  0
  188.0920  177.0680  143.7170 N   0  0  1  0  0  0  0  0  0  0  0  0
  186.0390  177.8130  142.9470 C   0  0  1  0  0  3  0  0  0  0  0  0
  183.6110  178.3710  142.4180 C   0  0  0  0  0  0  0  0  0  0  0  0
  183.7730  177.9190  141.2540 O   0  0  0  0  0  0  0  0  0  0  0  0
  186.5880  178.4180  141.6520 C   0  0  0  0  0  2  0  0  0  0  0  0
  188.6500  178.7840  140.5910 O   0  0  0  0  0  0  0  0  0  0  0  0
  188.0840  178.2570  141.5330 C   0  0  0  0  0  0  0  0  0  0  0  0
  186.5450  177.5900  145.2720 C   0  0  1  0  0  3  0  0  0  0  0  0
  182.1450  179.2760  144.0350 C   0  0  0  0  0  3  0  0  0  0  0  0
  187.0560  177.9800  143.9790 N   0  0  1  0  0  0  0  0  0  0  0  0
  184.4140  178.9180  144.6290 C   0  0  0  0  0  0  0  0  0  0  0  0
  183.1540  179.3280  144.9390 N   0  0  0  0  0  0  0  0  0  0  0  0
  188.9160  177.5560  142.5950 C   0  0  2  0  0  3  0  0  0  0  0  0
  189.9920  177.8960  145.1560 C   0  0  0  0  0  2  0  0  0  0  0  0
  191.2900  177.1670  145.4790 C   0  0  0  0  0  2  0  0  0  0  0  0
  191.4540  177.0420  146.8600 O   0  0  0  0  0  0  0  0  0  0  0  0
  192.9540  175.8910  148.1410 O   0  0  0  0  0  1  0  0  0  0  0  0
  192.0950  175.8140  147.0420 C   0  0  0  0  0  2  0  0  0  0  0  0
  189.6640  176.3880  141.9560 C   0  0  0  0  0  2  0  0  0  0  0  0
  191.8420  176.9180  137.9940 C   0  0  0  0  0  3  0  0  0  0  0  0
  190.5370  176.9800  138.2440 C   0  0  0  0  0  0  0  0  0  0  0  0
  191.9790  178.2860  142.2380 C   0  0  0  0  0  1  0  0  0  0  0  0
  191.7870  177.4680  141.0070 C   0  0  0  0  0  0  0  0  0  0  0  0
  192.8490  176.4510  138.9910 C   0  0  0  0  0  2  0  0  0  0  0  0
  190.4730  176.8120  140.7680 C   0  0  0  0  0  0  0  0  0  0  0  0
  189.7050  177.3180  137.2270 F   0  0  0  0  0  0  0  0  0  0  0  0
  192.8450  177.3180  140.2070 C   0  0  0  0  0  3  0  0  0  0  0  0
  189.9350  176.6300  139.5480 C   0  0  0  0  0  3  0  0  0  0  0  0
  1 14  1  0  0  0  0
  3 16  2  0  0  0  0
  4 19  1  6  0  0  0
  4  2  1  0  0  0  0
  6 15  1  0  0  0  0
  6  4  1  0  0  0  0
  7  3  1  0  0  0  0
  7 15  1  0  0  0  0
  8  1  1  0  0  0  0
  8  3  1  0  0  0  0
  9  8  2  0  0  0  0
 10  7  1  0  0  0  0
 11 12  2  0  0  0  0
 12 10  1  0  0  0  0
 12 18  1  0  0  0  0
 13  5  1  0  0  0  0
 13  2  1  0  0  0  0
 14 17  2  0  0  0  0
 15 13  1  0  0  0  0
 16 17  1  0  0  0  0
 16  5  1  0  0  0  0
 18  6  1  0  0  0  0
 19 20  1  0  0  0  0
 20 21  1  0  0  0  0
 21 23  1  0  0  0  0
 23 22  1  0  0  0  0
 24 18  1  0  0  0  0
 25 26  2  0  0  0  0
 25 29  1  0  0  0  0
 26 33  1  0  0  0  0
 28 27  1  0  0  0  0
 29 32  1  0  0  0  0
 30 28  1  0  0  0  0
 30 24  1  0  0  0  0
 31 26  1  0  0  0  0
 32 28  2  0  0  0  0
 33 30  2  0  0  0  0
M  END
>  <MODEL>
2

>  <REMARK>
 VINA RESULT:      -7.7      3.094      5.776
  Name = 
  6 active torsions:
  status: ('A' for Active; 'I' for Inactive)
    1  A    between atoms: C_2  and  C_6
    2  A    between atoms: C_2  and  C_32
    3  A    between atoms: C_16  and  C_30
    4  A    between atoms: C_27  and  O_29
    5  A    between atoms: O_29  and  C_32
    6  A    between atoms: C_30  and  C_33
                            x       y       z     vdW  Elec       q    Type
                         _______ _______ _______ _____ _____    ______ ____

>  <TORSDO>
F 6

$$$$
=
 OpenBabel10232411163D

 33 37  0  0  1  0  0  0  0  0999 V2000
  189.4320  177.6250  147.9580 N   0  0  0  0  0  2  0  0  0  0  0  0
  185.0260  179.2910  143.4730 C   0  0  0  0  0  2  0  0  0  0  0  0
  188.2560  177.7720  145.8680 C   0  0  0  0  0  0  0  0  0  0  0  0
  185.7200  179.0590  142.1380 C   0  0  1  0  0  3  0  0  0  0  0  0
  185.4190  177.9160  145.8340 S   0  0  0  0  0  0  0  0  0  0  0  0
  187.0920  178.6270  142.4770 N   0  0  1  0  0  0  0  0  0  0  0  0
  188.2960  178.0100  144.3570 C   0  0  1  0  0  3  0  0  0  0  0  0
  189.4590  177.7050  146.6020 C   0  0  0  0  0  0  0  0  0  0  0  0
  190.5730  177.7220  146.0150 O   0  0  0  0  0  0  0  0  0  0  0  0
  189.1250  176.9380  143.6440 C   0  0  0  0  0  2  0  0  0  0  0  0
  189.2880  175.9210  141.5340 O   0  0  0  0  0  0  0  0  0  0  0  0
  188.7640  176.8100  142.1840 C   0  0  0  0  0  0  0  0  0  0  0  0
  186.0790  178.8930  144.4740 C   0  0  1  0  0  3  0  0  0  0  0  0
  188.2630  177.6220  148.6380 C   0  0  0  0  0  3  0  0  0  0  0  0
  186.9740  178.0280  143.7420 N   0  0  1  0  0  0  0  0  0  0  0  0
  187.0450  177.7860  146.6090 C   0  0  0  0  0  0  0  0  0  0  0  0
  187.0880  177.7060  147.9670 N   0  0  0  0  0  0  0  0  0  0  0  0
  187.7010  177.6760  141.5280 C   0  0  2  0  0  3  0  0  0  0  0  0
  184.9300  178.0200  141.3260 C   0  0  0  0  0  2  0  0  0  0  0  0
  183.6080  178.5750  140.8100 C   0  0  0  0  0  2  0  0  0  0  0  0
  183.4570  178.2990  139.4490 O   0  0  0  0  0  0  0  0  0  0  0  0
  184.2270  180.4080  139.0360 O   0  0  0  0  0  1  0  0  0  0  0  0
  183.1570  179.5290  138.8590 C   0  0  0  0  0  2  0  0  0  0  0  0
  188.3240  178.4370  140.3600 C   0  0  0  0  0  2  0  0  0  0  0  0
  186.6370  176.2860  136.7200 C   0  0  0  0  0  3  0  0  0  0  0  0
  186.2720  177.4540  137.2430 C   0  0  0  0  0  0  0  0  0  0  0  0
  190.5240  177.5200  138.5270 C   0  0  0  0  0  1  0  0  0  0  0  0
  189.1150  177.0710  138.3400 C   0  0  0  0  0  0  0  0  0  0  0  0
  187.5850  175.3470  137.3870 C   0  0  0  0  0  2  0  0  0  0  0  0
  188.0210  177.7990  139.0380 C   0  0  0  0  0  0  0  0  0  0  0  0
  185.3220  178.1760  136.5980 F   0  0  0  0  0  0  0  0  0  0  0  0
  188.9200  175.9830  137.5910 C   0  0  0  0  0  3  0  0  0  0  0  0
  186.7890  177.9730  138.5270 C   0  0  0  0  0  3  0  0  0  0  0  0
  1 14  1  0  0  0  0
  2 13  1  0  0  0  0
  3  8  1  0  0  0  0
  3 16  2  0  0  0  0
  4 19  1  1  0  0  0
  4  6  1  0  0  0  0
  4  2  1  0  0  0  0
  5 16  1  0  0  0  0
  6 15  1  0  0  0  0
  7  3  1  0  0  0  0
  8  1  1  0  0  0  0
  9  8  2  0  0  0  0
 10  7  1  0  0  0  0
 11 12  2  0  0  0  0
 12 10  1  0  0  0  0
 13  5  1  0  0  0  0
 15  7  1  0  0  0  0
 15 13  1  0  0  0  0
 16 17  1  0  0  0  0
 17 14  2  0  0  0  0
 18 12  1  0  0  0  0
 18  6  1  0  0  0  0
 20 19  1  0  0  0  0
 21 20  1  0  0  0  0
 23 22  1  0  0  0  0
 23 21  1  0  0  0  0
 24 18  1  0  0  0  0
 25 26  2  0  0  0  0
 25 29  1  0  0  0  0
 26 33  1  0  0  0  0
 28 27  1  0  0  0  0
 28 30  1  0  0  0  0
 29 32  1  0  0  0  0
 30 24  1  0  0  0  0
 31 26  1  0  0  0  0
 32 28  2  0  0  0  0
 33 30  2  0  0  0  0
M  END
>  <MODEL>
3

>  <REMARK>
 VINA RESULT:      -7.5      3.892      6.901
  Name = 
  6 active torsions:
  status: ('A' for Active; 'I' for Inactive)
    1  A    between atoms: C_2  and  C_6
    2  A    between atoms: C_2  and  C_32
    3  A    between atoms: C_16  and  C_30
    4  A    between atoms: C_27  and  O_29
    5  A    between atoms: O_29  and  C_32
    6  A    between atoms: C_30  and  C_33
                            x       y       z     vdW  Elec       q    Type
                         _______ _______ _______ _____ _____    ______ ____

>  <TORSDO>
F 6

$$$$
=
 OpenBabel10232411163D

 33 37  0  0  1  0  0  0  0  0999 V2000
  190.6110  177.3440  146.0010 N   0  0  0  0  0  2  0  0  0  0  0  0
  186.1220  178.9630  141.5810 C   0  0  0  0  0  2  0  0  0  0  0  0
  189.4180  177.4990  143.9220 C   0  0  0  0  0  0  0  0  0  0  0  0
  186.8160  178.7870  140.2380 C   0  0  1  0  0  3  0  0  0  0  0  0
  186.5780  177.5470  143.9070 S   0  0  0  0  0  0  0  0  0  0  0  0
  188.2040  178.3940  140.5590 N   0  0  1  0  0  0  0  0  0  0  0  0
  189.4400  177.7740  142.4170 C   0  0  1  0  0  3  0  0  0  0  0  0
  190.6270  177.4570  144.6470 C   0  0  0  0  0  0  0  0  0  0  0  0
  191.7360  177.5260  144.0550 O   0  0  0  0  0  0  0  0  0  0  0  0
  190.3010  176.7480  141.6740 C   0  0  0  0  0  2  0  0  0  0  0  0
  190.4840  175.7880  139.5390 O   0  0  0  0  0  0  0  0  0  0  0  0
  189.9350  176.6420  140.2130 C   0  0  0  0  0  0  0  0  0  0  0  0
  187.1950  178.5780  142.5670 C   0  0  1  0  0  3  0  0  0  0  0  0
  189.4470  177.2850  146.6880 C   0  0  0  0  0  3  0  0  0  0  0  0
  188.1140  177.7610  141.8100 N   0  0  1  0  0  0  0  0  0  0  0  0
  188.2120  177.4550  144.6700 C   0  0  0  0  0  0  0  0  0  0  0  0
  188.2670  177.3440  146.0250 N   0  0  0  0  0  0  0  0  0  0  0  0
  188.8380  177.4860  139.5840 C   0  0  2  0  0  3  0  0  0  0  0  0
  186.0570  177.7410  139.4050 C   0  0  0  0  0  2  0  0  0  0  0  0
  185.0320  178.3770  138.4740 C   0  0  0  0  0  2  0  0  0  0  0  0
  183.7420  178.2280  138.9870 O   0  0  0  0  0  0  0  0  0  0  0  0
  184.1090  180.4770  138.8480 O   0  0  0  0  0  1  0  0  0  0  0  0
  183.1370  179.4750  138.8210 C   0  0  0  0  0  2  0  0  0  0  0  0
  189.4280  178.2960  138.4310 C   0  0  0  0  0  2  0  0  0  0  0  0
  187.2900  176.8070  134.6970 C   0  0  0  0  0  3  0  0  0  0  0  0
  187.3270  178.0370  135.2040 C   0  0  0  0  0  0  0  0  0  0  0  0
  191.2640  176.6420  136.7180 C   0  0  0  0  0  1  0  0  0  0  0  0
  189.7990  176.7080  136.4530 C   0  0  0  0  0  0  0  0  0  0  0  0
  187.8160  175.6080  135.4120 C   0  0  0  0  0  2  0  0  0  0  0  0
  188.9910  177.7820  137.0920 C   0  0  0  0  0  0  0  0  0  0  0  0
  186.7230  179.0350  134.5100 F   0  0  0  0  0  0  0  0  0  0  0  0
  189.2760  175.7440  135.6910 C   0  0  0  0  0  3  0  0  0  0  0  0
  187.9250  178.3650  136.5150 C   0  0  0  0  0  3  0  0  0  0  0  0
  1 14  1  0  0  0  0
  2 13  1  0  0  0  0
  3  8  1  0  0  0  0
  3 16  2  0  0  0  0
  4 19  1  6  0  0  0
  4  6  1  0  0  0  0
  4  2  1  0  0  0  0
  5 16  1  0  0  0  0
  6 15  1  0  0  0  0
  7  3  1  0  0  0  0
  8  1  1  0  0  0  0
  9  8  2  0  0  0  0
 10  7  1  0  0  0  0
 11 12  2  0  0  0  0
 12 10  1  0  0  0  0
 13  5  1  0  0  0  0
 15  7  1  0  0  0  0
 15 13  1  0  0  0  0
 16 17  1  0  0  0  0
 17 14  2  0  0  0  0
 18 12  1  0  0  0  0
 18  6  1  0  0  0  0
 20 21  1  0  0  0  0
 20 19  1  0  0  0  0
 23 22  1  0  0  0  0
 23 21  1  0  0  0  0
 24 18  1  0  0  0  0
 25 26  2  0  0  0  0
 25 29  1  0  0  0  0
 26 33  1  0  0  0  0
 28 27  1  0  0  0  0
 28 30  1  0  0  0  0
 29 32  1  0  0  0  0
 30 24  1  0  0  0  0
 31 26  1  0  0  0  0
 32 28  2  0  0  0  0
 33 30  2  0  0  0  0
M  END
>  <MODEL>
4

>  <REMARK>
 VINA RESULT:      -7.2      3.896      7.250
  Name = 
  6 active torsions:
  status: ('A' for Active; 'I' for Inactive)
    1  A    between atoms: C_2  and  C_6
    2  A    between atoms: C_2  and  C_32
    3  A    between atoms: C_16  and  C_30
    4  A    between atoms: C_27  and  O_29
    5  A    between atoms: O_29  and  C_32
    6  A    between atoms: C_30  and  C_33
                            x       y       z     vdW  Elec       q    Type
                         _______ _______ _______ _____ _____    ______ ____

>  <TORSDO>
F 6

$$$$
=
 OpenBabel10232411163D

 33 37  0  0  1  0  0  0  0  0999 V2000
  182.8520  179.2930  139.8860 N   0  0  0  0  0  0  0  0  0  0  0  0
  189.1600  178.3640  138.5990 C   0  0  0  0  0  2  0  0  0  0  0  0
  185.1490  178.6290  140.1230 C   0  0  1  0  0  3  0  0  0  0  0  0
  189.8170  178.2040  139.9630 C   0  0  1  0  0  3  0  0  0  0  0  0
  186.5910  177.6570  137.8770 S   0  0  0  0  0  0  0  0  0  0  0  0
  188.7340  178.3980  140.9480 N   0  0  1  0  0  0  0  0  0  0  0  0
  186.4270  178.6120  140.9640 C   0  0  1  0  0  3  0  0  0  0  0  0
  183.9570  179.1540  140.6650 C   0  0  0  0  0  0  0  0  0  0  0  0
  183.8990  179.5040  141.8730 O   0  0  0  0  0  0  0  0  0  0  0  0
  186.2260  177.8420  142.2720 C   0  0  0  0  0  2  0  0  0  0  0  0
  187.4880  176.6370  143.8420 O   0  0  0  0  0  0  0  0  0  0  0  0
  187.5280  177.3470  142.8530 C   0  0  0  0  0  0  0  0  0  0  0  0
  187.7090  178.5750  138.9480 C   0  0  1  0  0  3  0  0  0  0  0  0
  182.8670  178.9500  138.5780 C   0  0  0  0  0  3  0  0  0  0  0  0
  187.5640  178.0160  140.2700 N   0  0  1  0  0  0  0  0  0  0  0  0
  185.1400  178.2950  138.7430 C   0  0  0  0  0  0  0  0  0  0  0  0
  184.0010  178.4620  138.0190 N   0  0  0  0  0  0  0  0  0  0  0  0
  188.8700  177.6140  142.1910 C   0  0  2  0  0  3  0  0  0  0  0  0
  190.4860  176.8220  140.0460 C   0  0  0  0  0  2  0  0  0  0  0  0
  191.2480  176.4710  138.7740 C   0  0  0  0  0  2  0  0  0  0  0  0
  191.1890  175.0980  138.5290 O   0  0  0  0  0  0  0  0  0  0  0  0
  189.8290  173.7010  137.3400 O   0  0  0  0  0  1  0  0  0  0  0  0
  190.4210  174.9660  137.3700 C   0  0  0  0  0  2  0  0  0  0  0  0
  189.7760  178.3540  143.1720 C   0  0  0  0  0  2  0  0  0  0  0  0
  190.2000  176.9160  147.4710 C   0  0  0  0  0  3  0  0  0  0  0  0
  189.1270  177.4080  146.8570 C   0  0  0  0  0  0  0  0  0  0  0  0
  191.1180  175.6660  143.2880 C   0  0  0  0  0  1  0  0  0  0  0  0
  190.8860  176.4750  144.5180 C   0  0  0  0  0  0  0  0  0  0  0  0
  191.5670  176.9320  146.8740 C   0  0  0  0  0  2  0  0  0  0  0  0
  189.9340  177.6170  144.4680 C   0  0  0  0  0  0  0  0  0  0  0  0
  187.9550  177.4370  147.5400 F   0  0  0  0  0  0  0  0  0  0  0  0
  191.6070  176.1600  145.5970 C   0  0  0  0  0  3  0  0  0  0  0  0
  189.1560  177.9930  145.5000 C   0  0  0  0  0  3  0  0  0  0  0  0
  1  8  1  0  0  0  0
  2 13  1  0  0  0  0
  2  4  1  0  0  0  0
  3 16  1  6  0  0  0
  3  8  1  0  0  0  0
  3  7  1  0  0  0  0
  4 19  1  6  0  0  0
  4  6  1  0  0  0  0
  5 16  1  0  0  0  0
  5 13  1  0  0  0  0
  6 18  1  0  0  0  0
  7 10  1  0  0  0  0
  8  9  2  0  0  0  0
 10 12  1  0  0  0  0
 12 11  2  0  0  0  0
 13 15  1  0  0  0  0
 14  1  2  0  0  0  0
 15  6  1  0  0  0  0
 15  7  1  0  0  0  0
 17 14  1  0  0  0  0
 17 16  2  0  0  0  0
 18 12  1  0  0  0  0
 18 24  1  0  0  0  0
 20 19  1  0  0  0  0
 21 20  1  0  0  0  0
 22 23  1  0  0  0  0
 23 21  1  0  0  0  0
 24 30  1  0  0  0  0
 26 25  2  0  0  0  0
 26 31  1  0  0  0  0
 27 28  1  0  0  0  0
 28 32  2  0  0  0  0
 29 25  1  0  0  0  0
 30 28  1  0  0  0  0
 30 33  2  0  0  0  0
 32 29  1  0  0  0  0
 33 26  1  0  0  0  0
M  END
>  <MODEL>
5

>  <REMARK>
 VINA RESULT:      -7.2      2.036      2.783
  Name = 
  6 active torsions:
  status: ('A' for Active; 'I' for Inactive)
    1  A    between atoms: C_2  and  C_6
    2  A    between atoms: C_2  and  C_32
    3  A    between atoms: C_16  and  C_30
    4  A    between atoms: C_27  and  O_29
    5  A    between atoms: O_29  and  C_32
    6  A    between atoms: C_30  and  C_33
                            x       y       z     vdW  Elec       q    Type
                         _______ _______ _______ _____ _____    ______ ____

>  <TORSDO>
F 6

$$$$
=
 OpenBabel10232411163D

 33 37  0  0  1  0  0  0  0  0999 V2000
  181.3340  179.3480  143.1490 N   0  0  0  0  0  0  0  0  0  0  0  0
  186.7570  178.7830  139.6030 C   0  0  0  0  0  2  0  0  0  0  0  0
  183.5640  178.7550  142.4820 C   0  0  1  0  0  3  0  0  0  0  0  0
  187.8630  178.5290  140.6180 C   0  0  1  0  0  3  0  0  0  0  0  0
  184.1040  178.0420  139.7860 S   0  0  0  0  0  0  0  0  0  0  0  0
  187.2070  178.5930  141.9410 N   0  0  1  0  0  0  0  0  0  0  0  0
  185.0600  178.7150  142.8030 C   0  0  1  0  0  3  0  0  0  0  0  0
  182.6460  179.1840  143.4630 C   0  0  0  0  0  0  0  0  0  0  0  0
  183.0260  179.4240  144.6390 O   0  0  0  0  0  0  0  0  0  0  0  0
  185.3470  177.8260  144.0160 C   0  0  0  0  0  2  0  0  0  0  0  0
  187.0960  176.5370  144.9060 O   0  0  0  0  0  0  0  0  0  0  0  0
  186.7740  177.3330  144.0400 C   0  0  0  0  0  0  0  0  0  0  0  0
  185.5290  178.9050  140.4670 C   0  0  1  0  0  3  0  0  0  0  0  0
  180.8770  179.1220  141.8970 C   0  0  0  0  0  3  0  0  0  0  0  0
  185.8730  178.2270  141.6940 N   0  0  1  0  0  0  0  0  0  0  0  0
  183.0600  178.5440  141.1710 C   0  0  0  0  0  0  0  0  0  0  0  0
  181.7350  178.7300  140.9240 N   0  0  0  0  0  0  0  0  0  0  0  0
  187.7860  177.7090  142.9700 C   0  0  2  0  0  3  0  0  0  0  0  0
  188.5230  177.1720  140.3240 C   0  0  0  0  0  2  0  0  0  0  0  0
  189.6700  177.2920  139.3280 C   0  0  0  0  0  2  0  0  0  0  0  0
  190.5640  176.2300  139.4770 O   0  0  0  0  0  0  0  0  0  0  0  0
  190.9910  174.5220  138.0230 O   0  0  0  0  0  1  0  0  0  0  0  0
  190.9700  175.9100  138.1790 C   0  0  0  0  0  2  0  0  0  0  0  0
  188.9810  178.3950  143.6280 C   0  0  0  0  0  2  0  0  0  0  0  0
  190.9080  176.6000  147.3420 C   0  0  0  0  0  3  0  0  0  0  0  0
  189.6760  177.0770  147.1880 C   0  0  0  0  0  0  0  0  0  0  0  0
  190.3540  175.7970  142.9880 C   0  0  0  0  0  1  0  0  0  0  0  0
  190.5410  176.4750  144.3030 C   0  0  0  0  0  0  0  0  0  0  0  0
  191.9830  176.7560  146.3190 C   0  0  0  0  0  2  0  0  0  0  0  0
  189.5980  177.5540  144.7050 C   0  0  0  0  0  0  0  0  0  0  0  0
  188.8120  176.9690  148.2290 F   0  0  0  0  0  0  0  0  0  0  0  0
  191.5990  176.1080  145.0300 C   0  0  0  0  0  3  0  0  0  0  0  0
  189.2160  177.7840  145.9740 C   0  0  0  0  0  3  0  0  0  0  0  0
  1  8  1  0  0  0  0
  2 13  1  0  0  0  0
  2  4  1  0  0  0  0
  3 16  1  6  0  0  0
  3  7  1  0  0  0  0
  3  8  1  0  0  0  0
  4 19  1  6  0  0  0
  4  6  1  0  0  0  0
  5 13  1  0  0  0  0
  5 16  1  0  0  0  0
  6 18  1  0  0  0  0
  7 10  1  0  0  0  0
  8  9  2  0  0  0  0
 10 12  1  0  0  0  0
 12 11  2  0  0  0  0
 13 15  1  0  0  0  0
 14  1  2  0  0  0  0
 15  6  1  0  0  0  0
 15  7  1  0  0  0  0
 17 16  2  0  0  0  0
 17 14  1  0  0  0  0
 18 24  1  0  0  0  0
 18 12  1  0  0  0  0
 20 21  1  0  0  0  0
 20 19  1  0  0  0  0
 22 23  1  0  0  0  0
 23 21  1  0  0  0  0
 24 30  1  0  0  0  0
 26 25  2  0  0  0  0
 26 31  1  0  0  0  0
 27 28  1  0  0  0  0
 28 30  1  0  0  0  0
 28 32  2  0  0  0  0
 29 25  1  0  0  0  0
 30 33  2  0  0  0  0
 32 29  1  0  0  0  0
 33 26  1  0  0  0  0
M  END
>  <MODEL>
6

>  <REMARK>
 VINA RESULT:      -7.2      1.816      2.766
  Name = 
  6 active torsions:
  status: ('A' for Active; 'I' for Inactive)
    1  A    between atoms: C_2  and  C_6
    2  A    between atoms: C_2  and  C_32
    3  A    between atoms: C_16  and  C_30
    4  A    between atoms: C_27  and  O_29
    5  A    between atoms: O_29  and  C_32
    6  A    between atoms: C_30  and  C_33
                            x       y       z     vdW  Elec       q    Type
                         _______ _______ _______ _____ _____    ______ ____

>  <TORSDO>
F 6

$$$$
=
 OpenBabel10232411163D

 33 37  0  0  1  0  0  0  0  0999 V2000
  191.6040  177.1800  146.4050 N   0  0  0  0  0  2  0  0  0  0  0  0
  185.6930  178.7110  144.1650 C   0  0  0  0  0  2  0  0  0  0  0  0
  189.7230  177.4250  144.9320 C   0  0  0  0  0  0  0  0  0  0  0  0
  185.8570  178.7900  142.6530 C   0  0  1  0  0  3  0  0  0  0  0  0
  187.0810  177.0990  145.9240 S   0  0  0  0  0  0  0  0  0  0  0  0
  187.2920  178.5480  142.3990 N   0  0  1  0  0  0  0  0  0  0  0  0
  189.1690  177.8790  143.5790 C   0  0  1  0  0  3  0  0  0  0  0  0
  191.1130  177.4560  145.1690 C   0  0  0  0  0  0  0  0  0  0  0  0
  191.9170  177.7400  144.2430 O   0  0  0  0  0  0  0  0  0  0  0  0
  189.7750  177.0710  142.4280 C   0  0  0  0  0  2  0  0  0  0  0  0
  189.2390  176.4070  140.2410 O   0  0  0  0  0  0  0  0  0  0  0  0
  188.9090  177.0940  141.1920 C   0  0  0  0  0  0  0  0  0  0  0  0
  187.0800  178.3550  144.6350 C   0  0  1  0  0  3  0  0  0  0  0  0
  190.7820  176.8860  147.4380 C   0  0  0  0  0  3  0  0  0  0  0  0
  187.7190  177.7640  143.4830 N   0  0  1  0  0  0  0  0  0  0  0  0
  188.8830  177.1320  146.0390 C   0  0  0  0  0  0  0  0  0  0  0  0
  189.4400  176.8680  147.2520 N   0  0  0  0  0  0  0  0  0  0  0  0
  187.5950  177.8560  141.1310 C   0  0  2  0  0  3  0  0  0  0  0  0
  184.9310  177.7610  141.9860 C   0  0  0  0  0  2  0  0  0  0  0  0
  183.5870  178.3620  141.5920 C   0  0  0  0  0  2  0  0  0  0  0  0
  182.9280  177.5380  140.6780 O   0  0  0  0  0  0  0  0  0  0  0  0
  180.8540  177.4320  139.7280 O   0  0  0  0  0  1  0  0  0  0  0  0
  181.8370  178.2880  140.2310 C   0  0  0  0  0  2  0  0  0  0  0  0
  187.6530  178.8690  139.9900 C   0  0  0  0  0  2  0  0  0  0  0  0
  185.3420  176.7590  136.6830 C   0  0  0  0  0  3  0  0  0  0  0  0
  184.9160  177.6830  137.5410 C   0  0  0  0  0  0  0  0  0  0  0  0
  189.1840  178.9110  137.4020 C   0  0  0  0  0  1  0  0  0  0  0  0
  187.9630  178.0720  137.5730 C   0  0  0  0  0  0  0  0  0  0  0  0
  186.6700  176.0870  136.7910 C   0  0  0  0  0  2  0  0  0  0  0  0
  187.0570  178.3340  138.7230 C   0  0  0  0  0  0  0  0  0  0  0  0
  183.6490  178.1470  137.4060 F   0  0  0  0  0  0  0  0  0  0  0  0
  187.7840  177.0770  136.7010 C   0  0  0  0  0  3  0  0  0  0  0  0
  185.7210  178.1770  138.6780 C   0  0  0  0  0  3  0  0  0  0  0  0
  1 14  1  0  0  0  0
  2 13  1  0  0  0  0
  3  8  1  0  0  0  0
  3 16  2  0  0  0  0
  4 19  1  6  0  0  0
  4  2  1  0  0  0  0
  5 16  1  0  0  0  0
  6  4  1  0  0  0  0
  6 15  1  0  0  0  0
  7  3  1  0  0  0  0
  8  1  1  0  0  0  0
  9  8  2  0  0  0  0
 10  7  1  0  0  0  0
 11 12  2  0  0  0  0
 12 10  1  0  0  0  0
 13  5  1  0  0  0  0
 15  7  1  0  0  0  0
 15 13  1  0  0  0  0
 16 17  1  0  0  0  0
 17 14  2  0  0  0  0
 18 12  1  0  0  0  0
 18  6  1  0  0  0  0
 20 19  1  0  0  0  0
 21 20  1  0  0  0  0
 22 23  1  0  0  0  0
 23 21  1  0  0  0  0
 24 18  1  0  0  0  0
 25 29  1  0  0  0  0
 25 26  2  0  0  0  0
 26 33  1  0  0  0  0
 27 28  1  0  0  0  0
 28 30  1  0  0  0  0
 30 24  1  0  0  0  0
 31 26  1  0  0  0  0
 32 29  1  0  0  0  0
 32 28  2  0  0  0  0
 33 30  2  0  0  0  0
M  END
>  <MODEL>
7

>  <REMARK>
 VINA RESULT:      -6.9      3.975      7.599
  Name = 
  6 active torsions:
  status: ('A' for Active; 'I' for Inactive)
    1  A    between atoms: C_2  and  C_6
    2  A    between atoms: C_2  and  C_32
    3  A    between atoms: C_16  and  C_30
    4  A    between atoms: C_27  and  O_29
    5  A    between atoms: O_29  and  C_32
    6  A    between atoms: C_30  and  C_33
                            x       y       z     vdW  Elec       q    Type
                         _______ _______ _______ _____ _____    ______ ____

>  <TORSDO>
F 6

$$$$
=
 OpenBabel10232411163D

 33 37  0  0  1  0  0  0  0  0999 V2000
  186.8430  178.1190  147.1310 N   0  0  0  0  0  0  0  0  0  0  0  0
  185.7300  179.1640  140.8080 C   0  0  0  0  0  2  0  0  0  0  0  0
  187.0250  177.9980  144.7380 C   0  0  1  0  0  3  0  0  0  0  0  0
  187.0340  178.7920  140.1150 C   0  0  1  0  0  3  0  0  0  0  0  0
  184.6890  178.0820  143.1240 S   0  0  0  0  0  0  0  0  0  0  0  0
  187.9680  178.4300  141.2010 N   0  0  1  0  0  0  0  0  0  0  0  0
  187.9040  178.0590  143.4870 C   0  0  1  0  0  3  0  0  0  0  0  0
  187.6180  178.0420  146.0170 C   0  0  0  0  0  0  0  0  0  0  0  0
  188.8700  178.0120  146.1470 O   0  0  0  0  0  0  0  0  0  0  0  0
  188.9350  176.9280  143.4730 C   0  0  0  0  0  2  0  0  0  0  0  0
  190.1860  175.6770  141.9290 O   0  0  0  0  0  0  0  0  0  0  0  0
  189.4340  176.6240  142.0810 C   0  0  0  0  0  0  0  0  0  0  0  0
  186.0360  178.9060  142.2610 C   0  0  1  0  0  3  0  0  0  0  0  0
  185.4940  178.1730  147.0450 C   0  0  0  0  0  3  0  0  0  0  0  0
  187.1430  177.9800  142.2450 N   0  0  1  0  0  0  0  0  0  0  0  0
  185.6080  178.0750  144.6780 C   0  0  0  0  0  0  0  0  0  0  0  0
  184.8910  178.1550  145.8320 N   0  0  0  0  0  0  0  0  0  0  0  0
  188.9530  177.3860  140.8570 C   0  0  2  0  0  3  0  0  0  0  0  0
  186.7740  177.6500  139.1190 C   0  0  0  0  0  2  0  0  0  0  0  0
  185.7590  178.0360  138.0510 C   0  0  0  0  0  2  0  0  0  0  0  0
  186.3730  178.1330  136.8010 O   0  0  0  0  0  0  0  0  0  0  0  0
  186.4290  175.9350  136.1830 O   0  0  0  0  0  1  0  0  0  0  0  0
  185.7630  177.1510  136.0170 C   0  0  0  0  0  2  0  0  0  0  0  0
  190.1530  178.0190  140.1550 C   0  0  0  0  0  2  0  0  0  0  0  0
  190.2670  175.8040  136.1800 C   0  0  0  0  0  3  0  0  0  0  0  0
  189.7720  177.0080  136.4500 C   0  0  0  0  0  0  0  0  0  0  0  0
  192.8970  176.9180  139.6080 C   0  0  0  0  0  1  0  0  0  0  0  0
  191.7210  176.5320  138.7760 C   0  0  0  0  0  0  0  0  0  0  0  0
  190.7220  174.8470  137.2310 C   0  0  0  0  0  2  0  0  0  0  0  0
  190.4760  177.3420  138.8580 C   0  0  0  0  0  0  0  0  0  0  0  0
  189.2920  177.7500  135.4210 F   0  0  0  0  0  0  0  0  0  0  0  0
  191.8370  175.4250  138.0400 C   0  0  0  0  0  3  0  0  0  0  0  0
  189.6490  177.5550  137.8180 C   0  0  0  0  0  3  0  0  0  0  0  0
  2 13  1  0  0  0  0
  3 16  1  6  0  0  0
  3  8  1  0  0  0  0
  4 19  1  6  0  0  0
  4  2  1  0  0  0  0
  4  6  1  0  0  0  0
  5 16  1  0  0  0  0
  6 15  1  0  0  0  0
  7  3  1  0  0  0  0
  8  9  2  0  0  0  0
  8  1  1  0  0  0  0
 10  7  1  0  0  0  0
 11 12  2  0  0  0  0
 12 10  1  0  0  0  0
 13  5  1  0  0  0  0
 14  1  2  0  0  0  0
 15 13  1  0  0  0  0
 15  7  1  0  0  0  0
 16 17  2  0  0  0  0
 17 14  1  0  0  0  0
 18  6  1  0  0  0  0
 18 12  1  0  0  0  0
 20 19  1  0  0  0  0
 21 20  1  0  0  0  0
 23 22  1  0  0  0  0
 23 21  1  0  0  0  0
 24 18  1  0  0  0  0
 25 26  2  0  0  0  0
 25 29  1  0  0  0  0
 26 33  1  0  0  0  0
 28 30  1  0  0  0  0
 28 27  1  0  0  0  0
 29 32  1  0  0  0  0
 30 24  1  0  0  0  0
 31 26  1  0  0  0  0
 32 28  2  0  0  0  0
 33 30  2  0  0  0  0
M  END
>  <MODEL>
8

>  <REMARK>
 VINA RESULT:      -6.9      3.341      5.625
  Name = 
  6 active torsions:
  status: ('A' for Active; 'I' for Inactive)
    1  A    between atoms: C_2  and  C_6
    2  A    between atoms: C_2  and  C_32
    3  A    between atoms: C_16  and  C_30
    4  A    between atoms: C_27  and  O_29
    5  A    between atoms: O_29  and  C_32
    6  A    between atoms: C_30  and  C_33
                            x       y       z     vdW  Elec       q    Type
                         _______ _______ _______ _____ _____    ______ ____

>  <TORSDO>
F 6

$$$$
=
 OpenBabel10232411163D

 33 37  0  0  1  0  0  0  0  0999 V2000
  184.1390  179.3810  145.1520 N   0  0  0  0  0  0  0  0  0  0  0  0
  184.5270  178.9360  138.6750 C   0  0  0  0  0  2  0  0  0  0  0  0
  184.9320  178.8270  142.9530 C   0  0  1  0  0  3  0  0  0  0  0  0
  186.0000  178.6820  138.3880 C   0  0  1  0  0  3  0  0  0  0  0  0
  183.0880  178.1570  140.8980 S   0  0  0  0  0  0  0  0  0  0  0  0
  186.6700  178.7190  139.7050 N   0  0  1  0  0  0  0  0  0  0  0  0
  186.0820  178.8010  141.9440 C   0  0  1  0  0  3  0  0  0  0  0  0
  185.1730  179.2300  144.2830 C   0  0  0  0  0  0  0  0  0  0  0  0
  186.3440  179.4580  144.6850 O   0  0  0  0  0  0  0  0  0  0  0  0
  187.2240  177.8990  142.4200 C   0  0  0  0  0  2  0  0  0  0  0  0
  188.9770  176.6210  141.5230 O   0  0  0  0  0  0  0  0  0  0  0  0
  188.0930  177.4240  141.2810 C   0  0  0  0  0  0  0  0  0  0  0  0
  184.4880  179.0300  140.1780 C   0  0  1  0  0  3  0  0  0  0  0  0
  182.8600  179.1670  144.7670 C   0  0  0  0  0  3  0  0  0  0  0  0
  185.6750  178.3390  140.6210 N   0  0  1  0  0  0  0  0  0  0  0  0
  183.5790  178.6270  142.5720 C   0  0  0  0  0  0  0  0  0  0  0  0
  182.5900  178.7990  143.4910 N   0  0  0  0  0  0  0  0  0  0  0  0
  187.8390  177.8280  139.8370 C   0  0  2  0  0  3  0  0  0  0  0  0
  186.1540  177.3380  137.6570 C   0  0  0  0  0  2  0  0  0  0  0  0
  185.6460  177.4000  136.2220 C   0  0  0  0  0  2  0  0  0  0  0  0
  184.9930  176.2150  135.8790 O   0  0  0  0  0  0  0  0  0  0  0  0
  185.4030  174.0440  136.4550 O   0  0  0  0  0  1  0  0  0  0  0  0
  185.2380  175.3430  136.9420 C   0  0  0  0  0  2  0  0  0  0  0  0
  189.0830  178.5210  139.2840 C   0  0  0  0  0  2  0  0  0  0  0  0
  190.3360  175.9120  135.7690 C   0  0  0  0  0  3  0  0  0  0  0  0
  189.8560  177.1530  135.7590 C   0  0  0  0  0  0  0  0  0  0  0  0
  191.7820  177.2860  139.7600 C   0  0  0  0  0  1  0  0  0  0  0  0
  190.9160  176.8540  138.6260 C   0  0  0  0  0  0  0  0  0  0  0  0
  190.3670  175.0530  136.9890 C   0  0  0  0  0  2  0  0  0  0  0  0
  189.7640  177.7060  138.2260 C   0  0  0  0  0  0  0  0  0  0  0  0
  189.7810  177.8010  134.5690 F   0  0  0  0  0  0  0  0  0  0  0  0
  191.1950  175.6750  138.0660 C   0  0  0  0  0  3  0  0  0  0  0  0
  189.3320  177.8390  136.9590 C   0  0  0  0  0  3  0  0  0  0  0  0
  2 13  1  0  0  0  0
  3 16  1  6  0  0  0
  3  8  1  0  0  0  0
  4 19  1  1  0  0  0
  4  2  1  0  0  0  0
  4  6  1  0  0  0  0
  5 16  1  0  0  0  0
  6 18  1  0  0  0  0
  6 15  1  0  0  0  0
  7 10  1  0  0  0  0
  7  3  1  0  0  0  0
  8  9  2  0  0  0  0
  8  1  1  0  0  0  0
 12 11  2  0  0  0  0
 12 10  1  0  0  0  0
 13 15  1  0  0  0  0
 13  5  1  0  0  0  0
 14  1  2  0  0  0  0
 15  7  1  0  0  0  0
 16 17  2  0  0  0  0
 17 14  1  0  0  0  0
 18 12  1  0  0  0  0
 20 19  1  0  0  0  0
 21 20  1  0  0  0  0
 21 23  1  0  0  0  0
 22 23  1  0  0  0  0
 24 18  1  0  0  0  0
 25 29  1  0  0  0  0
 26 25  2  0  0  0  0
 26 33  1  0  0  0  0
 28 27  1  0  0  0  0
 29 32  1  0  0  0  0
 30 28  1  0  0  0  0
 30 24  1  0  0  0  0
 31 26  1  0  0  0  0
 32 28  2  0  0  0  0
 33 30  2  0  0  0  0
M  END
>  <MODEL>
9

>  <REMARK>
 VINA RESULT:      -6.4      4.009      5.908
  Name = 
  6 active torsions:
  status: ('A' for Active; 'I' for Inactive)
    1  A    between atoms: C_2  and  C_6
    2  A    between atoms: C_2  and  C_32
    3  A    between atoms: C_16  and  C_30
    4  A    between atoms: C_27  and  O_29
    5  A    between atoms: O_29  and  C_32
    6  A    between atoms: C_30  and  C_33
                            x       y       z     vdW  Elec       q    Type
                         _______ _______ _______ _____ _____    ______ ____

>  <TORSDO>
F 6

$$$$
