=
 OpenBabel10232408503D

 25 29  0  0  1  0  0  0  0  0999 V2000
  189.4280  178.6870  137.0850 O   0  0  0  0  0  0  0  0  0  0  0  0
  186.5000  179.1530  147.3980 C   0  0  0  0  0  0  0  0  0  0  0  0
  187.9340  177.7970  146.4470 C   0  0  0  0  0  3  0  0  0  0  0  0
  189.0170  178.4330  138.2470 C   0  0  0  0  0  0  0  0  0  0  0  0
  187.0010  177.9130  142.1200 C   0  0  0  0  0  0  0  0  0  0  0  0
  184.8420  179.2190  145.6040 N   0  0  0  0  0  2  0  0  0  0  0  0
  188.1940  176.7910  143.6510 C   0  0  0  0  0  2  0  0  0  0  0  0
  186.8630  177.1320  144.2770 C   0  0  2  0  0  3  0  0  0  0  0  0
  189.7240  177.7640  139.1400 O   0  0  0  0  0  0  0  0  0  0  0  0
  186.7530  178.4990  140.8640 C   0  0  0  0  0  3  0  0  0  0  0  0
  186.2150  177.9170  143.1850 C   0  0  2  0  0  3  0  0  0  0  0  0
  185.8710  180.0120  148.3440 N   0  0  0  0  0  1  0  0  0  0  0  0
  187.7850  178.3720  139.9270 C   0  0  0  0  0  0  0  0  0  0  0  0
  186.9980  177.9590  145.5110 C   0  0  0  0  0  0  0  0  0  0  0  0
  187.6340  178.5740  147.6130 N   0  0  0  0  0  2  0  0  0  0  0  0
  188.9630  177.7200  140.2040 C   0  0  0  0  0  0  0  0  0  0  0  0
  189.2210  177.1350  141.4490 C   0  0  0  0  0  0  0  0  0  0  0  0
  185.9850  178.8290  146.0860 C   0  0  0  0  0  0  0  0  0  0  0  0
  187.8340  178.8170  138.6990 O   0  0  0  0  0  0  0  0  0  0  0  0
  184.8600  178.4730  143.2310 C   0  0  0  0  0  3  0  0  0  0  0  0
  184.2630  179.0020  144.3030 C   0  0  0  0  0  3  0  0  0  0  0  0
  188.1920  177.2530  142.4070 C   0  0  0  0  0  0  0  0  0  0  0  0
  190.4890  176.3900  141.7130 C   0  0  0  0  0  2  0  0  0  0  0  0
  191.6010  177.3240  141.7950 N   0  0  0  0  0  2  0  0  0  0  0  0
  191.7350  177.6670  143.1990 C   0  0  0  0  0  1  0  0  0  0  0  0
  1  4  2  0  0  0  0
  2 15  1  0  0  0  0
  2 12  1  0  0  0  0
  3 15  1  0  0  0  0
  4 19  1  0  0  0  0
  4  9  1  0  0  0  0
  5 22  1  0  0  0  0
  5 11  1  0  0  0  0
  6 18  1  0  0  0  0
  8  7  1  6  0  0  0
  8 14  1  0  0  0  0
  9 16  1  0  0  0  0
 10  5  2  0  0  0  0
 11 20  1  6  0  0  0
 11  8  1  0  0  0  0
 13 16  2  0  0  0  0
 13 10  1  0  0  0  0
 14 18  1  0  0  0  0
 14  3  2  0  0  0  0
 16 17  1  0  0  0  0
 17 23  1  0  0  0  0
 17 22  2  0  0  0  0
 18  2  2  0  0  0  0
 19 13  1  0  0  0  0
 20 21  2  0  0  0  0
 21  6  1  0  0  0  0
 22  7  1  0  0  0  0
 23 24  1  0  0  0  0
 24 25  1  0  0  0  0
M  END
>  <MODEL>
1

>  <REMARK>
 VINA RESULT:      -8.6      0.000      0.000
  Name = 
  2 active torsions:
  status: ('A' for Active; 'I' for Inactive)
    1  A    between atoms: N_3  and  C_17
    2  A    between atoms: C_17  and  C_19
                            x       y       z     vdW  Elec       q    Type
                         _______ _______ _______ _____ _____    ______ ____

>  <TORSDO>
F 2

$$$$
=
 OpenBabel10232408503D

 25 29  0  0  1  0  0  0  0  0999 V2000
  189.5480  176.5390  147.4680 O   0  0  0  0  0  0  0  0  0  0  0  0
  181.5790  177.5680  140.3560 C   0  0  0  0  0  0  0  0  0  0  0  0
  183.7390  177.6680  140.0080 C   0  0  0  0  0  3  0  0  0  0  0  0
  188.7600  176.9370  146.5710 C   0  0  0  0  0  0  0  0  0  0  0  0
  185.5540  178.4510  143.9690 C   0  0  0  0  0  0  0  0  0  0  0  0
  181.5190  178.7290  142.5060 N   0  0  0  0  0  0  0  0  0  0  0  0
  186.0260  178.3980  141.7790 C   0  0  0  0  0  2  0  0  0  0  0  0
  184.6490  179.0000  141.9300 C   0  0  2  0  0  3  0  0  0  0  0  0
  189.0500  176.9090  145.2820 O   0  0  0  0  0  0  0  0  0  0  0  0
  185.8050  178.2540  145.3410 C   0  0  0  0  0  3  0  0  0  0  0  0
  184.4490  178.9130  143.4070 C   0  0  2  0  0  3  0  0  0  0  0  0
  180.1910  177.2980  140.1860 N   0  0  0  0  0  1  0  0  0  0  0  0
  187.0570  177.7110  145.6510 C   0  0  0  0  0  0  0  0  0  0  0  0
  183.5960  178.2270  141.2100 C   0  0  0  0  0  0  0  0  0  0  0  0
  182.4760  177.2270  139.4930 N   0  0  0  0  0  0  0  0  0  0  0  0
  187.9870  177.3900  144.6890 C   0  0  0  0  0  0  0  0  0  0  0  0
  187.7480  177.5820  143.3240 C   0  0  0  0  0  0  0  0  0  0  0  0
  182.1710  178.2270  141.4990 C   0  0  0  0  0  0  0  0  0  0  0  0
  187.5540  177.4180  146.8240 O   0  0  0  0  0  0  0  0  0  0  0  0
  183.2750  179.4050  144.1330 C   0  0  0  0  0  3  0  0  0  0  0  0
  182.0090  179.3510  143.7090 C   0  0  0  0  0  3  0  0  0  0  0  0
  186.4900  178.1280  142.9910 C   0  0  0  0  0  0  0  0  0  0  0  0
  188.7900  177.2710  142.2990 C   0  0  0  0  0  2  0  0  0  0  0  0
  189.9110  178.1870  142.4440 N   0  0  0  0  0  2  0  0  0  0  0  0
  191.1090  177.3710  142.3680 C   0  0  0  0  0  1  0  0  0  0  0  0
  2 18  1  0  0  0  0
  3 14  2  0  0  0  0
  4 19  1  0  0  0  0
  4  1  2  0  0  0  0
  5 10  1  0  0  0  0
  6 21  1  0  0  0  0
  7 22  1  0  0  0  0
  8  7  1  1  0  0  0
  8 11  1  0  0  0  0
  9  4  1  0  0  0  0
 10 13  2  0  0  0  0
 11  5  1  0  0  0  0
 11 20  1  1  0  0  0
 12  2  1  0  0  0  0
 13 19  1  0  0  0  0
 14 18  1  0  0  0  0
 14  8  1  0  0  0  0
 15  3  1  0  0  0  0
 15  2  2  0  0  0  0
 16  9  1  0  0  0  0
 16 13  1  0  0  0  0
 17 16  2  0  0  0  0
 18  6  2  0  0  0  0
 21 20  2  0  0  0  0
 22 17  1  0  0  0  0
 22  5  2  0  0  0  0
 23 24  1  0  0  0  0
 23 17  1  0  0  0  0
 25 24  1  0  0  0  0
M  END
>  <MODEL>
2

>  <REMARK>
 VINA RESULT:      -8.5      3.819      5.842
  Name = 
  2 active torsions:
  status: ('A' for Active; 'I' for Inactive)
    1  A    between atoms: N_3  and  C_17
    2  A    between atoms: C_17  and  C_19
                            x       y       z     vdW  Elec       q    Type
                         _______ _______ _______ _____ _____    ______ ____

>  <TORSDO>
F 2

$$$$
=
 OpenBabel10232408503D

 25 29  0  0  1  0  0  0  0  0999 V2000
  188.8050  179.3480  136.9670 O   0  0  0  0  0  0  0  0  0  0  0  0
  188.9410  177.9160  147.6010 C   0  0  0  0  0  0  0  0  0  0  0  0
  190.1420  176.9050  146.0730 C   0  0  0  0  0  3  0  0  0  0  0  0
  188.7670  178.8750  138.1330 C   0  0  0  0  0  0  0  0  0  0  0  0
  187.9980  177.5410  142.2520 C   0  0  0  0  0  0  0  0  0  0  0  0
  186.8370  178.0390  146.3640 N   0  0  0  0  0  2  0  0  0  0  0  0
  189.6650  176.3630  143.1790 C   0  0  0  0  0  2  0  0  0  0  0  0
  188.5470  176.4400  144.1920 C   0  0  2  0  0  3  0  0  0  0  0  0
  189.7510  178.1750  138.6680 O   0  0  0  0  0  0  0  0  0  0  0  0
  187.3540  178.2710  141.2340 C   0  0  0  0  0  3  0  0  0  0  0  0
  187.5530  177.2900  143.4730 C   0  0  2  0  0  3  0  0  0  0  0  0
  188.5460  178.5400  148.8180 N   0  0  0  0  0  1  0  0  0  0  0  0
  188.0790  178.4130  140.0460 C   0  0  0  0  0  0  0  0  0  0  0  0
  188.9660  177.0860  145.4700 C   0  0  0  0  0  0  0  0  0  0  0  0
  190.1300  177.4580  147.3960 N   0  0  0  0  0  2  0  0  0  0  0  0
  189.3350  177.8800  139.8740 C   0  0  0  0  0  0  0  0  0  0  0  0
  189.9840  177.1540  140.8780 C   0  0  0  0  0  0  0  0  0  0  0  0
  188.0970  177.7280  146.4420 C   0  0  0  0  0  0  0  0  0  0  0  0
  187.7380  179.0370  138.9490 O   0  0  0  0  0  0  0  0  0  0  0  0
  186.2300  177.6590  143.9810 C   0  0  0  0  0  3  0  0  0  0  0  0
  185.9270  177.9460  145.2510 C   0  0  0  0  0  3  0  0  0  0  0  0
  189.2690  176.9990  142.0840 C   0  0  0  0  0  0  0  0  0  0  0  0
  191.3290  176.5420  140.6530 C   0  0  0  0  0  2  0  0  0  0  0  0
  192.3570  177.5690  140.7340 N   0  0  0  0  0  2  0  0  0  0  0  0
  193.2900  177.2880  139.6580 C   0  0  0  0  0  1  0  0  0  0  0  0
  1  4  2  0  0  0  0
  2 12  1  0  0  0  0
  3 15  1  0  0  0  0
  4  9  1  0  0  0  0
  4 19  1  0  0  0  0
  5 11  1  0  0  0  0
  6 18  1  0  0  0  0
  8  7  1  6  0  0  0
  8 14  1  0  0  0  0
  9 16  1  0  0  0  0
 10  5  2  0  0  0  0
 11 20  1  6  0  0  0
 11  8  1  0  0  0  0
 13 10  1  0  0  0  0
 14  3  2  0  0  0  0
 14 18  1  0  0  0  0
 15  2  1  0  0  0  0
 16 13  2  0  0  0  0
 16 17  1  0  0  0  0
 17 22  2  0  0  0  0
 18  2  2  0  0  0  0
 19 13  1  0  0  0  0
 20 21  2  0  0  0  0
 21  6  1  0  0  0  0
 22  5  1  0  0  0  0
 22  7  1  0  0  0  0
 23 24  1  0  0  0  0
 23 17  1  0  0  0  0
 25 24  1  0  0  0  0
M  END
>  <MODEL>
3

>  <REMARK>
 VINA RESULT:      -8.3      1.403      1.871
  Name = 
  2 active torsions:
  status: ('A' for Active; 'I' for Inactive)
    1  A    between atoms: N_3  and  C_17
    2  A    between atoms: C_17  and  C_19
                            x       y       z     vdW  Elec       q    Type
                         _______ _______ _______ _____ _____    ______ ____

>  <TORSDO>
F 2

$$$$
=
 OpenBabel10232408503D

 25 29  0  0  1  0  0  0  0  0999 V2000
  191.6050  175.4230  143.7190 O   0  0  0  0  0  0  0  0  0  0  0  0
  181.4510  178.3310  141.8250 C   0  0  0  0  0  0  0  0  0  0  0  0
  183.1900  178.5090  140.5050 C   0  0  0  0  0  3  0  0  0  0  0  0
  190.5500  176.0470  143.4360 C   0  0  0  0  0  0  0  0  0  0  0  0
  186.7320  178.2090  143.1440 C   0  0  0  0  0  0  0  0  0  0  0  0
  182.5570  178.8830  143.9330 N   0  0  0  0  0  0  0  0  0  0  0  0
  186.1130  178.7350  141.0550 C   0  0  0  0  0  2  0  0  0  0  0  0
  185.0600  179.2820  141.9890 C   0  0  2  0  0  3  0  0  0  0  0  0
  190.1970  176.3590  142.2010 O   0  0  0  0  0  0  0  0  0  0  0  0
  187.5660  177.6560  144.1340 C   0  0  0  0  0  3  0  0  0  0  0  0
  185.5640  178.8090  143.3120 C   0  0  2  0  0  3  0  0  0  0  0  0
  180.1230  178.1220  142.2930 N   0  0  0  0  0  1  0  0  0  0  0  0
  188.7330  177.0450  143.6640 C   0  0  0  0  0  0  0  0  0  0  0  0
  183.7010  178.7310  141.7170 C   0  0  0  0  0  0  0  0  0  0  0  0
  181.7870  178.2260  140.5830 N   0  0  0  0  0  0  0  0  0  0  0  0
  189.0540  176.9850  142.3280 C   0  0  0  0  0  0  0  0  0  0  0  0
  188.2330  177.5310  141.3360 C   0  0  0  0  0  0  0  0  0  0  0  0
  182.5900  178.6620  142.6520 C   0  0  0  0  0  0  0  0  0  0  0  0
  189.6780  176.4500  144.3450 O   0  0  0  0  0  0  0  0  0  0  0  0
  184.9420  179.0970  144.6070 C   0  0  0  0  0  3  0  0  0  0  0  0
  183.6300  179.1630  144.8520 C   0  0  0  0  0  3  0  0  0  0  0  0
  187.0500  178.1520  141.7910 C   0  0  0  0  0  0  0  0  0  0  0  0
  188.6230  177.4980  139.8940 C   0  0  0  0  0  2  0  0  0  0  0  0
  188.9750  178.8380  139.4480 N   0  0  0  0  0  2  0  0  0  0  0  0
  188.9840  178.7890  137.9970 C   0  0  0  0  0  1  0  0  0  0  0  0
  2 12  1  0  0  0  0
  2 18  1  0  0  0  0
  3 15  1  0  0  0  0
  3 14  2  0  0  0  0
  4  1  2  0  0  0  0
  4 19  1  0  0  0  0
  5 11  1  0  0  0  0
  5 10  1  0  0  0  0
  6 21  1  0  0  0  0
  7 22  1  0  0  0  0
  8  7  1  6  0  0  0
  8 11  1  0  0  0  0
  9 16  1  0  0  0  0
  9  4  1  0  0  0  0
 11 20  1  1  0  0  0
 13 10  2  0  0  0  0
 13 19  1  0  0  0  0
 14  8  1  0  0  0  0
 14 18  1  0  0  0  0
 15  2  2  0  0  0  0
 16 13  1  0  0  0  0
 17 22  1  0  0  0  0
 17 16  2  0  0  0  0
 18  6  2  0  0  0  0
 20 21  2  0  0  0  0
 22  5  2  0  0  0  0
 23 17  1  0  0  0  0
 24 23  1  0  0  0  0
 25 24  1  0  0  0  0
M  END
>  <MODEL>
4

>  <REMARK>
 VINA RESULT:      -8.1      2.885      4.924
  Name = 
  2 active torsions:
  status: ('A' for Active; 'I' for Inactive)
    1  A    between atoms: N_3  and  C_17
    2  A    between atoms: C_17  and  C_19
                            x       y       z     vdW  Elec       q    Type
                         _______ _______ _______ _____ _____    ______ ____

>  <TORSDO>
F 2

$$$$
=
 OpenBabel10232408503D

 25 29  0  0  1  0  0  0  0  0999 V2000
  184.1070  180.3030  138.9590 O   0  0  0  0  0  0  0  0  0  0  0  0
  190.8330  177.4900  146.8320 C   0  0  0  0  0  0  0  0  0  0  0  0
  190.9020  176.9320  144.7150 C   0  0  0  0  0  3  0  0  0  0  0  0
  184.8220  179.6780  139.7840 C   0  0  0  0  0  0  0  0  0  0  0  0
  186.8290  177.6800  143.1480 C   0  0  0  0  0  0  0  0  0  0  0  0
  188.4110  177.3940  147.1380 N   0  0  0  0  0  0  0  0  0  0  0  0
  188.7820  176.7100  142.6280 C   0  0  0  0  0  2  0  0  0  0  0  0
  188.5210  176.4430  144.0910 C   0  0  2  0  0  3  0  0  0  0  0  0
  185.9680  179.1030  139.4670 O   0  0  0  0  0  0  0  0  0  0  0  0
  185.6520  178.4100  142.8960 C   0  0  0  0  0  3  0  0  0  0  0  0
  187.2450  177.1880  144.3040 C   0  0  2  0  0  3  0  0  0  0  0  0
  191.2320  177.8610  148.1480 N   0  0  0  0  0  1  0  0  0  0  0  0
  185.4840  178.8430  141.5760 C   0  0  0  0  0  0  0  0  0  0  0  0
  189.5960  176.9750  144.9780 C   0  0  0  0  0  0  0  0  0  0  0  0
  191.6710  177.2890  145.8710 N   0  0  0  0  0  0  0  0  0  0  0  0
  186.3990  178.5760  140.5850 C   0  0  0  0  0  0  0  0  0  0  0  0
  187.5720  177.8510  140.8240 C   0  0  0  0  0  0  0  0  0  0  0  0
  189.4700  177.3100  146.3870 C   0  0  0  0  0  0  0  0  0  0  0  0
  184.5040  179.5370  141.0610 O   0  0  0  0  0  0  0  0  0  0  0  0
  186.4940  177.2370  145.5610 C   0  0  0  0  0  3  0  0  0  0  0  0
  187.0170  177.2890  146.7890 C   0  0  0  0  0  3  0  0  0  0  0  0
  187.7600  177.4060  142.1490 C   0  0  0  0  0  0  0  0  0  0  0  0
  188.5290  177.5310  139.7220 C   0  0  0  0  0  2  0  0  0  0  0  0
  189.0820  178.7620  139.1770 N   0  0  0  0  0  2  0  0  0  0  0  0
  189.0280  178.6210  137.7330 C   0  0  0  0  0  1  0  0  0  0  0  0
  1  4  2  0  0  0  0
  2 12  1  0  0  0  0
  3 14  2  0  0  0  0
  3 15  1  0  0  0  0
  4 19  1  0  0  0  0
  5 11  1  0  0  0  0
  8  7  1  6  0  0  0
  8 11  1  0  0  0  0
  8 14  1  0  0  0  0
  9  4  1  0  0  0  0
  9 16  1  0  0  0  0
 10  5  1  0  0  0  0
 11 20  1  6  0  0  0
 13 10  2  0  0  0  0
 14 18  1  0  0  0  0
 15  2  2  0  0  0  0
 16 17  2  0  0  0  0
 16 13  1  0  0  0  0
 17 22  1  0  0  0  0
 18  2  1  0  0  0  0
 18  6  2  0  0  0  0
 19 13  1  0  0  0  0
 20 21  2  0  0  0  0
 21  6  1  0  0  0  0
 22  7  1  0  0  0  0
 22  5  2  0  0  0  0
 23 17  1  0  0  0  0
 24 23  1  0  0  0  0
 25 24  1  0  0  0  0
M  END
>  <MODEL>
5

>  <REMARK>
 VINA RESULT:      -8.0      2.183      3.695
  Name = 
  2 active torsions:
  status: ('A' for Active; 'I' for Inactive)
    1  A    between atoms: N_3  and  C_17
    2  A    between atoms: C_17  and  C_19
                            x       y       z     vdW  Elec       q    Type
                         _______ _______ _______ _____ _____    ______ ____

>  <TORSDO>
F 2

$$$$
=
 OpenBabel10232408503D

 25 29  0  0  1  0  0  0  0  0999 V2000
  180.3910  179.9990  143.3410 O   0  0  0  0  0  0  0  0  0  0  0  0
  191.0100  178.6610  144.1010 C   0  0  0  0  0  0  0  0  0  0  0  0
  189.6870  178.1460  142.4330 C   0  0  0  0  0  3  0  0  0  0  0  0
  181.5610  179.5380  143.3630 C   0  0  0  0  0  0  0  0  0  0  0  0
  185.6060  178.0010  144.1460 C   0  0  0  0  0  0  0  0  0  0  0  0
  189.5180  178.0380  145.9340 N   0  0  0  0  0  0  0  0  0  0  0  0
  186.7810  177.4830  142.3080 C   0  0  0  0  0  2  0  0  0  0  0  0
  187.6440  177.1560  143.5030 C   0  0  2  0  0  3  0  0  0  0  0  0
  182.2430  179.2290  142.2750 O   0  0  0  0  0  0  0  0  0  0  0  0
  184.4870  178.4600  144.8660 C   0  0  0  0  0  3  0  0  0  0  0  0
  186.7720  177.6030  144.6290 C   0  0  2  0  0  3  0  0  0  0  0  0
  192.1420  179.1000  144.8450 N   0  0  0  0  0  1  0  0  0  0  0  0
  183.3930  178.8550  144.0890 C   0  0  0  0  0  0  0  0  0  0  0  0
  188.9350  177.9020  143.5080 C   0  0  0  0  0  0  0  0  0  0  0  0
  190.9730  178.6530  142.8110 N   0  0  0  0  0  0  0  0  0  0  0  0
  183.3990  178.8000  142.7140 C   0  0  0  0  0  0  0  0  0  0  0  0
  184.5060  178.3460  141.9890 C   0  0  0  0  0  0  0  0  0  0  0  0
  189.7650  178.1920  144.6660 C   0  0  0  0  0  0  0  0  0  0  0  0
  182.2360  179.3230  144.4800 O   0  0  0  0  0  0  0  0  0  0  0  0
  187.0970  177.4790  146.0520 C   0  0  0  0  0  3  0  0  0  0  0  0
  188.3070  177.6350  146.6000 C   0  0  0  0  0  3  0  0  0  0  0  0
  185.6200  177.9440  142.7550 C   0  0  0  0  0  0  0  0  0  0  0  0
  184.4750  178.2490  140.4980 C   0  0  0  0  0  2  0  0  0  0  0  0
  184.8140  179.5380  139.9140 N   0  0  0  0  0  2  0  0  0  0  0  0
  183.7080  179.8860  139.0400 C   0  0  0  0  0  1  0  0  0  0  0  0
  1  4  2  0  0  0  0
  2 18  1  0  0  0  0
  2 12  1  0  0  0  0
  3 15  1  0  0  0  0
  3 14  2  0  0  0  0
  4 19  1  0  0  0  0
  5 11  1  0  0  0  0
  5 10  1  0  0  0  0
  6 21  1  0  0  0  0
  7 22  1  0  0  0  0
  8  7  1  6  0  0  0
  8 14  1  0  0  0  0
  8 11  1  0  0  0  0
  9 16  1  0  0  0  0
  9  4  1  0  0  0  0
 11 20  1  1  0  0  0
 13 19  1  0  0  0  0
 13 10  2  0  0  0  0
 14 18  1  0  0  0  0
 15  2  2  0  0  0  0
 16 13  1  0  0  0  0
 17 16  2  0  0  0  0
 17 22  1  0  0  0  0
 18  6  2  0  0  0  0
 20 21  2  0  0  0  0
 22  5  2  0  0  0  0
 23 17  1  0  0  0  0
 24 23  1  0  0  0  0
 25 24  1  0  0  0  0
M  END
>  <MODEL>
6

>  <REMARK>
 VINA RESULT:      -8.0      3.487      5.950
  Name = 
  2 active torsions:
  status: ('A' for Active; 'I' for Inactive)
    1  A    between atoms: N_3  and  C_17
    2  A    between atoms: C_17  and  C_19
                            x       y       z     vdW  Elec       q    Type
                         _______ _______ _______ _____ _____    ______ ____

>  <TORSDO>
F 2

$$$$
=
 OpenBabel10232408503D

 25 29  0  0  1  0  0  0  0  0999 V2000
  189.1460  178.4180  149.8370 O   0  0  0  0  0  0  0  0  0  0  0  0
  188.5650  178.6070  139.1240 C   0  0  0  0  0  0  0  0  0  0  0  0
  186.9880  178.1280  140.5670 C   0  0  0  0  0  3  0  0  0  0  0  0
  188.9740  178.1400  148.6210 C   0  0  0  0  0  0  0  0  0  0  0  0
  189.0810  177.1390  144.3410 C   0  0  0  0  0  0  0  0  0  0  0  0
  190.4300  177.5250  140.2740 N   0  0  0  0  0  0  0  0  0  0  0  0
  187.0720  177.0580  143.3500 C   0  0  0  0  0  2  0  0  0  0  0  0
  188.1050  176.7060  142.3060 C   0  0  2  0  0  3  0  0  0  0  0  0
  187.7850  178.0870  148.0480 O   0  0  0  0  0  0  0  0  0  0  0  0
  189.9770  177.3230  145.4110 C   0  0  0  0  0  3  0  0  0  0  0  0
  189.3720  176.8610  143.0800 C   0  0  2  0  0  3  0  0  0  0  0  0
  189.2430  179.1070  137.9760 N   0  0  0  0  0  1  0  0  0  0  0  0
  189.3890  177.6500  146.6380 C   0  0  0  0  0  0  0  0  0  0  0  0
  188.0870  177.6310  141.1360 C   0  0  0  0  0  0  0  0  0  0  0  0
  187.2990  178.7680  139.3220 N   0  0  0  0  0  0  0  0  0  0  0  0
  188.0300  177.7820  146.7980 C   0  0  0  0  0  0  0  0  0  0  0  0
  187.1310  177.6020  145.7420 C   0  0  0  0  0  0  0  0  0  0  0  0
  189.1800  177.8830  140.2130 C   0  0  0  0  0  0  0  0  0  0  0  0
  189.9680  177.8800  147.7870 O   0  0  0  0  0  0  0  0  0  0  0  0
  190.7180  176.5960  142.5640 C   0  0  0  0  0  3  0  0  0  0  0  0
  191.1510  176.8570  141.3270 C   0  0  0  0  0  3  0  0  0  0  0  0
  187.7050  177.2730  144.4960 C   0  0  0  0  0  0  0  0  0  0  0  0
  185.6540  177.7040  145.9480 C   0  0  0  0  0  2  0  0  0  0  0  0
  185.2440  179.1000  145.8950 N   0  0  0  0  0  2  0  0  0  0  0  0
  184.1950  179.1720  144.8950 C   0  0  0  0  0  1  0  0  0  0  0  0
  2 15  2  0  0  0  0
  2 18  1  0  0  0  0
  3 14  2  0  0  0  0
  4  1  2  0  0  0  0
  5 22  2  0  0  0  0
  5 10  1  0  0  0  0
  6 21  1  0  0  0  0
  7 22  1  0  0  0  0
  8 11  1  0  0  0  0
  8  7  1  1  0  0  0
  9  4  1  0  0  0  0
 10 13  2  0  0  0  0
 11 20  1  1  0  0  0
 11  5  1  0  0  0  0
 12  2  1  0  0  0  0
 13 16  1  0  0  0  0
 13 19  1  0  0  0  0
 14  8  1  0  0  0  0
 15  3  1  0  0  0  0
 16  9  1  0  0  0  0
 17 23  1  0  0  0  0
 17 16  2  0  0  0  0
 18  6  2  0  0  0  0
 18 14  1  0  0  0  0
 19  4  1  0  0  0  0
 21 20  2  0  0  0  0
 22 17  1  0  0  0  0
 24 23  1  0  0  0  0
 25 24  1  0  0  0  0
M  END
>  <MODEL>
7

>  <REMARK>
 VINA RESULT:      -7.8      3.756      7.246
  Name = 
  2 active torsions:
  status: ('A' for Active; 'I' for Inactive)
    1  A    between atoms: N_3  and  C_17
    2  A    between atoms: C_17  and  C_19
                            x       y       z     vdW  Elec       q    Type
                         _______ _______ _______ _____ _____    ______ ____

>  <TORSDO>
F 2

$$$$
=
 OpenBabel10232408503D

 25 29  0  0  1  0  0  0  0  0999 V2000
  187.7610  177.5590  147.8570 O   0  0  0  0  0  0  0  0  0  0  0  0
  181.2700  176.7380  139.3520 C   0  0  0  0  0  0  0  0  0  0  0  0
  183.4310  177.0930  139.3890 C   0  0  0  0  0  3  0  0  0  0  0  0
  187.1240  177.7490  146.7880 C   0  0  0  0  0  0  0  0  0  0  0  0
  184.3370  178.5300  143.4770 C   0  0  0  0  0  0  0  0  0  0  0  0
  180.6600  178.1010  141.2860 N   0  0  0  0  0  0  0  0  0  0  0  0
  185.2300  178.3100  141.4330 C   0  0  0  0  0  2  0  0  0  0  0  0
  183.7910  178.7320  141.2540 C   0  0  2  0  0  3  0  0  0  0  0  0
  187.6610  177.6240  145.5880 O   0  0  0  0  0  0  0  0  0  0  0  0
  184.3360  178.5150  144.8850 C   0  0  0  0  0  3  0  0  0  0  0  0
  183.3180  178.7760  142.6700 C   0  0  2  0  0  3  0  0  0  0  0  0
  179.9820  176.2650  138.9700 N   0  0  0  0  0  1  0  0  0  0  0  0
  185.5560  178.1830  145.4840 C   0  0  0  0  0  0  0  0  0  0  0  0
  182.9930  177.7510  140.4630 C   0  0  0  0  0  0  0  0  0  0  0  0
  182.3510  176.4320  138.7160 N   0  0  0  0  0  0  0  0  0  0  0  0
  186.6860  177.8910  144.7560 C   0  0  0  0  0  0  0  0  0  0  0  0
  186.6980  177.9030  143.3570 C   0  0  0  0  0  0  0  0  0  0  0  0
  181.5490  177.5880  140.4870 C   0  0  0  0  0  0  0  0  0  0  0  0
  185.8450  178.0860  146.7550 O   0  0  0  0  0  0  0  0  0  0  0  0
  181.9770  179.1770  143.1020 C   0  0  0  0  0  3  0  0  0  0  0  0
  180.8320  178.9070  142.4670 C   0  0  0  0  0  3  0  0  0  0  0  0
  185.4770  178.2350  142.7340 C   0  0  0  0  0  0  0  0  0  0  0  0
  187.9490  177.6300  142.5850 C   0  0  0  0  0  2  0  0  0  0  0  0
  188.3180  178.8070  141.8130 N   0  0  0  0  0  2  0  0  0  0  0  0
  188.6690  178.3250  140.4900 C   0  0  0  0  0  1  0  0  0  0  0  0
  2 18  1  0  0  0  0
  3 14  2  0  0  0  0
  4  1  2  0  0  0  0
  5 10  1  0  0  0  0
  6 21  1  0  0  0  0
  7 22  1  0  0  0  0
  8  7  1  1  0  0  0
  8 11  1  0  0  0  0
  9  4  1  0  0  0  0
 10 13  2  0  0  0  0
 11 20  1  1  0  0  0
 11  5  1  0  0  0  0
 12  2  1  0  0  0  0
 13 19  1  0  0  0  0
 14 18  1  0  0  0  0
 14  8  1  0  0  0  0
 15  2  2  0  0  0  0
 15  3  1  0  0  0  0
 16 13  1  0  0  0  0
 16  9  1  0  0  0  0
 17 16  2  0  0  0  0
 18  6  2  0  0  0  0
 19  4  1  0  0  0  0
 21 20  2  0  0  0  0
 22 17  1  0  0  0  0
 22  5  2  0  0  0  0
 23 17  1  0  0  0  0
 24 23  1  0  0  0  0
 25 24  1  0  0  0  0
M  END
>  <MODEL>
8

>  <REMARK>
 VINA RESULT:      -7.6      4.462      6.579
  Name = 
  2 active torsions:
  status: ('A' for Active; 'I' for Inactive)
    1  A    between atoms: N_3  and  C_17
    2  A    between atoms: C_17  and  C_19
                            x       y       z     vdW  Elec       q    Type
                         _______ _______ _______ _____ _____    ______ ____

>  <TORSDO>
F 2

$$$$
=
 OpenBabel10232408503D

 25 29  0  0  1  0  0  0  0  0999 V2000
  186.8650  177.7760  147.0130 O   0  0  0  0  0  0  0  0  0  0  0  0
  190.3560  175.1870  137.2030 C   0  0  0  0  0  0  0  0  0  0  0  0
  191.5120  175.9190  138.9130 C   0  0  0  0  0  3  0  0  0  0  0  0
  187.3910  177.7700  145.8710 C   0  0  0  0  0  0  0  0  0  0  0  0
  188.5660  177.7960  141.6330 C   0  0  0  0  0  0  0  0  0  0  0  0
  188.3600  176.5620  137.5180 N   0  0  0  0  0  0  0  0  0  0  0  0
  190.7690  177.5840  141.2730 C   0  0  0  0  0  2  0  0  0  0  0  0
  190.1030  177.7310  139.9260 C   0  0  2  0  0  3  0  0  0  0  0  0
  188.6920  177.6520  145.6690 O   0  0  0  0  0  0  0  0  0  0  0  0
  187.3960  177.8870  142.4120 C   0  0  0  0  0  3  0  0  0  0  0  0
  188.6620  177.7970  140.3130 C   0  0  2  0  0  3  0  0  0  0  0  0
  189.9750  174.4670  136.0350 N   0  0  0  0  0  1  0  0  0  0  0  0
  187.5890  177.8210  143.7960 C   0  0  0  0  0  0  0  0  0  0  0  0
  190.3530  176.5690  139.0260 C   0  0  0  0  0  0  0  0  0  0  0  0
  191.4950  175.0300  137.7890 N   0  0  0  0  0  0  0  0  0  0  0  0
  188.8320  177.6800  144.3670 C   0  0  0  0  0  0  0  0  0  0  0  0
  190.0000  177.5880  143.6040 C   0  0  0  0  0  0  0  0  0  0  0  0
  189.5370  176.1550  137.8960 C   0  0  0  0  0  0  0  0  0  0  0  0
  186.6960  177.8720  144.7500 O   0  0  0  0  0  0  0  0  0  0  0  0
  187.5440  177.9870  139.3860 C   0  0  0  0  0  3  0  0  0  0  0  0
  187.4460  177.4720  138.1570 C   0  0  0  0  0  3  0  0  0  0  0  0
  189.8270  177.6520  142.2050 C   0  0  0  0  0  0  0  0  0  0  0  0
  191.3460  177.4830  144.2460 C   0  0  0  0  0  2  0  0  0  0  0  0
  191.5440  176.1350  144.7560 N   0  0  0  0  0  2  0  0  0  0  0  0
  191.8230  176.2790  146.1730 C   0  0  0  0  0  1  0  0  0  0  0  0
  2 15  2  0  0  0  0
  2 18  1  0  0  0  0
  3 14  2  0  0  0  0
  4  1  2  0  0  0  0
  5 22  2  0  0  0  0
  5 10  1  0  0  0  0
  6 18  2  0  0  0  0
  6 21  1  0  0  0  0
  7 22  1  0  0  0  0
  8 11  1  0  0  0  0
  8  7  1  1  0  0  0
  9  4  1  0  0  0  0
 10 13  2  0  0  0  0
 11 20  1  1  0  0  0
 11  5  1  0  0  0  0
 12  2  1  0  0  0  0
 13 16  1  0  0  0  0
 13 19  1  0  0  0  0
 14  8  1  0  0  0  0
 15  3  1  0  0  0  0
 16  9  1  0  0  0  0
 17 23  1  0  0  0  0
 17 16  2  0  0  0  0
 18 14  1  0  0  0  0
 19  4  1  0  0  0  0
 21 20  2  0  0  0  0
 22 17  1  0  0  0  0
 23 24  1  0  0  0  0
 24 25  1  0  0  0  0
M  END
>  <MODEL>
9

>  <REMARK>
 VINA RESULT:      -7.6      3.727      6.965
  Name = 
  2 active torsions:
  status: ('A' for Active; 'I' for Inactive)
    1  A    between atoms: N_3  and  C_17
    2  A    between atoms: C_17  and  C_19
                            x       y       z     vdW  Elec       q    Type
                         _______ _______ _______ _____ _____    ______ ____

>  <TORSDO>
F 2

$$$$
