=
 OpenBabel10232407503D

 32 34  0  0  1  0  0  0  0  0999 V2000
  191.6300  174.8250  136.0490 C   0  0  0  0  0  3  0  0  0  0  0  0
  189.7010  175.5270  137.3490 C   0  0  0  0  0  0  0  0  0  0  0  0
  188.7010  178.2210  137.8870 N   0  0  0  0  0  0  0  0  0  0  0  0
  190.5650  177.2000  141.9270 C   0  0  0  0  0  3  0  0  0  0  0  0
  187.0960  177.5370  136.3290 O   0  0  0  0  0  0  0  0  0  0  0  0
  190.5570  176.0820  138.3200 C   0  0  0  0  0  0  0  0  0  0  0  0
  187.9420  177.2060  137.2020 C   0  0  0  0  0  0  0  0  0  0  0  0
  191.9470  176.0030  138.1370 C   0  0  0  0  0  3  0  0  0  0  0  0
  192.4840  175.3730  137.0070 C   0  0  0  0  0  0  0  0  0  0  0  0
  188.2190  175.7520  137.4690 C   0  0  1  0  0  3  0  0  0  0  0  0
  189.1330  177.4010  142.3390 C   0  0  2  0  0  3  0  0  0  0  0  0
  190.2450  174.9110  136.2110 C   0  0  0  0  0  3  0  0  0  0  0  0
  189.1950  178.0720  139.2620 C   0  0  2  0  0  3  0  0  0  0  0  0
  190.9330  176.9070  140.6740 C   0  0  0  0  0  3  0  0  0  0  0  0
  189.9540  176.7510  139.5380 C   0  0  2  0  0  3  0  0  0  0  0  0
  188.9350  179.4960  137.2300 C   0  0  0  0  0  1  0  0  0  0  0  0
  188.0330  178.2320  140.2370 C   0  0  0  0  0  2  0  0  0  0  0  0
  188.5090  178.6030  141.6340 C   0  0  0  0  0  2  0  0  0  0  0  0
  194.5110  176.5300  136.5760 O   0  0  0  0  0  1  0  0  0  0  0  0
  193.9630  175.2680  136.8150 C   0  0  1  0  0  3  0  0  0  0  0  0
  194.6160  174.6330  138.0310 C   0  0  0  0  0  2  0  0  0  0  0  0
  196.0500  174.8580  137.9970 N   0  0  0  0  0  1  0  0  0  0  0  0
  189.0270  177.5470  143.8540 C   0  0  0  0  0  2  0  0  0  0  0  0
  190.1090  176.8660  144.5200 N   0  0  0  0  0  0  0  0  0  0  0  0
  190.4870  177.2500  145.6820 C   0  0  0  0  0  3  0  0  0  0  0  0
  191.6050  176.5480  146.3700 C   0  0  0  0  0  1  0  0  0  0  0  0
  187.4900  174.9000  136.5930 O   0  0  0  0  0  0  0  0  0  0  0  0
  186.5140  172.8570  137.2820 C   0  0  0  0  0  3  0  0  0  0  0  0
  186.4060  174.1610  137.0610 C   0  0  0  0  0  3  0  0  0  0  0  0
  187.7400  172.1710  137.0470 N   0  0  0  0  0  2  0  0  0  0  0  0
  187.9090  171.3940  135.8690 C   0  0  0  0  0  3  0  0  0  0  0  0
  188.8820  171.6810  135.0200 C   0  0  0  0  0  2  0  0  0  0  0  0
  1 12  2  0  0  0  0
  1  9  1  0  0  0  0
  2 10  1  0  0  0  0
  2  6  2  0  0  0  0
  3 13  1  0  0  0  0
  4 11  1  0  0  0  0
  5  7  2  0  0  0  0
  6 15  1  0  0  0  0
  7 10  1  0  0  0  0
  7  3  1  0  0  0  0
  8  6  1  0  0  0  0
  9  8  2  0  0  0  0
 10 27  1  6  0  0  0
 11 23  1  1  0  0  0
 12  2  1  0  0  0  0
 13 15  1  0  0  0  0
 13 17  1  1  0  0  0
 14  4  2  0  0  0  0
 15 14  1  1  0  0  0
 16  3  1  0  0  0  0
 17 18  1  0  0  0  0
 18 11  1  0  0  0  0
 20 19  1  1  0  0  0
 20  9  1  0  0  0  0
 20 21  1  0  0  0  0
 22 21  1  0  0  0  0
 23 24  1  0  0  0  0
 24 25  2  0  0  0  0
 25 26  1  0  0  0  0
 27 29  1  0  0  0  0
 29 28  2  0  0  0  0
 30 28  1  0  0  0  0
 31 30  1  0  0  0  0
 32 31  2  0  0  0  0
M  END
>  <MODEL>
1

>  <REMARK>
 VINA RESULT:      -6.6      0.000      0.000
  Name = 
  8 active torsions:
  status: ('A' for Active; 'I' for Inactive)
    1  A    between atoms: C_1  and  N_16
    2  A    between atoms: N_3  and  C_12
    3  A    between atoms: C_5  and  N_16
    4  A    between atoms: C_10  and  C_15
    5  A    between atoms: C_10  and  C_20
    6  A    between atoms: C_12  and  C_24
    7  A    between atoms: C_13  and  O_22
    8  A    between atoms: O_22  and  C_23
                            x       y       z     vdW  Elec       q    Type
                         _______ _______ _______ _____ _____    ______ ____

>  <TORSDO>
F 8

$$$$
=
 OpenBabel10232407503D

 32 34  0  0  1  0  0  0  0  0999 V2000
  191.4730  174.7160  136.0950 C   0  0  0  0  0  3  0  0  0  0  0  0
  189.5670  175.4760  137.3960 C   0  0  0  0  0  0  0  0  0  0  0  0
  188.6340  178.1980  137.9140 N   0  0  0  0  0  0  0  0  0  0  0  0
  190.4870  177.1660  141.9560 C   0  0  0  0  0  3  0  0  0  0  0  0
  187.0070  177.5400  136.3670 O   0  0  0  0  0  0  0  0  0  0  0  0
  190.4390  176.0180  138.3600 C   0  0  0  0  0  0  0  0  0  0  0  0
  187.8490  177.1960  137.2400 C   0  0  0  0  0  0  0  0  0  0  0  0
  191.8270  175.9040  138.1720 C   0  0  0  0  0  3  0  0  0  0  0  0
  192.3440  175.2520  137.0460 C   0  0  0  0  0  0  0  0  0  0  0  0
  188.0910  175.7380  137.5190 C   0  0  1  0  0  3  0  0  0  0  0  0
  189.0620  177.4060  142.3710 C   0  0  2  0  0  3  0  0  0  0  0  0
  190.0920  174.8370  136.2620 C   0  0  0  0  0  3  0  0  0  0  0  0
  189.1290  178.0490  139.2880 C   0  0  2  0  0  3  0  0  0  0  0  0
  190.8440  176.8540  140.7050 C   0  0  0  0  0  3  0  0  0  0  0  0
  189.8570  176.7130  139.5740 C   0  0  2  0  0  3  0  0  0  0  0  0
  188.8970  179.4610  137.2460 C   0  0  0  0  0  1  0  0  0  0  0  0
  187.9750  178.2450  140.2660 C   0  0  0  0  0  2  0  0  0  0  0  0
  188.4650  178.6160  141.6590 C   0  0  0  0  0  2  0  0  0  0  0  0
  194.4370  176.3610  136.8950 O   0  0  0  0  0  1  0  0  0  0  0  0
  193.8190  175.1090  136.8500 C   0  0  1  0  0  3  0  0  0  0  0  0
  194.4120  174.1920  137.9070 C   0  0  0  0  0  2  0  0  0  0  0  0
  195.3280  174.9380  138.7520 N   0  0  0  0  0  1  0  0  0  0  0  0
  188.9640  177.5670  143.8850 C   0  0  0  0  0  2  0  0  0  0  0  0
  187.5960  177.7280  144.3060 N   0  0  0  0  0  0  0  0  0  0  0  0
  187.3230  177.9120  145.5440 C   0  0  0  0  0  3  0  0  0  0  0  0
  185.9090  178.0770  145.9790 C   0  0  0  0  0  1  0  0  0  0  0  0
  187.3380  174.8960  136.6530 O   0  0  0  0  0  0  0  0  0  0  0  0
  185.2220  173.9880  137.1960 C   0  0  0  0  0  3  0  0  0  0  0  0
  186.5430  173.8760  137.1680 C   0  0  0  0  0  3  0  0  0  0  0  0
  184.5740  175.1560  136.7010 N   0  0  0  0  0  2  0  0  0  0  0  0
  183.8650  176.0090  137.5900 C   0  0  0  0  0  3  0  0  0  0  0  0
  183.0940  175.4900  138.5320 C   0  0  0  0  0  2  0  0  0  0  0  0
  1 12  2  0  0  0  0
  1  9  1  0  0  0  0
  2 10  1  0  0  0  0
  2  6  2  0  0  0  0
  3 13  1  0  0  0  0
  4 11  1  0  0  0  0
  5  7  2  0  0  0  0
  6 15  1  0  0  0  0
  7 10  1  0  0  0  0
  7  3  1  0  0  0  0
  8  6  1  0  0  0  0
  9  8  2  0  0  0  0
 10 27  1  6  0  0  0
 11 23  1  1  0  0  0
 12  2  1  0  0  0  0
 13 15  1  0  0  0  0
 13 17  1  1  0  0  0
 14  4  2  0  0  0  0
 15 14  1  1  0  0  0
 16  3  1  0  0  0  0
 17 18  1  0  0  0  0
 18 11  1  0  0  0  0
 20 19  1  1  0  0  0
 20  9  1  0  0  0  0
 20 21  1  0  0  0  0
 21 22  1  0  0  0  0
 23 24  1  0  0  0  0
 24 25  2  0  0  0  0
 25 26  1  0  0  0  0
 27 29  1  0  0  0  0
 29 28  2  0  0  0  0
 30 28  1  0  0  0  0
 30 31  1  0  0  0  0
 31 32  2  0  0  0  0
M  END
>  <MODEL>
2

>  <REMARK>
 VINA RESULT:      -6.5      1.531      2.355
  Name = 
  8 active torsions:
  status: ('A' for Active; 'I' for Inactive)
    1  A    between atoms: C_1  and  N_16
    2  A    between atoms: N_3  and  C_12
    3  A    between atoms: C_5  and  N_16
    4  A    between atoms: C_10  and  C_15
    5  A    between atoms: C_10  and  C_20
    6  A    between atoms: C_12  and  C_24
    7  A    between atoms: C_13  and  O_22
    8  A    between atoms: O_22  and  C_23
                            x       y       z     vdW  Elec       q    Type
                         _______ _______ _______ _____ _____    ______ ____

>  <TORSDO>
F 8

$$$$
=
 OpenBabel10232407503D

 32 34  0  0  1  0  0  0  0  0999 V2000
  186.8090  177.5960  146.0710 C   0  0  0  0  0  3  0  0  0  0  0  0
  188.9010  177.0140  144.9820 C   0  0  0  0  0  0  0  0  0  0  0  0
  190.9020  178.7530  143.7500 N   0  0  0  0  0  0  0  0  0  0  0  0
  188.9270  176.9900  140.0320 C   0  0  0  0  0  3  0  0  0  0  0  0
  192.0520  178.2010  145.7110 O   0  0  0  0  0  0  0  0  0  0  0  0
  188.3690  177.4180  143.7410 C   0  0  0  0  0  0  0  0  0  0  0  0
  191.1740  177.8820  144.8640 C   0  0  0  0  0  0  0  0  0  0  0  0
  187.0550  177.9120  143.6860 C   0  0  0  0  0  3  0  0  0  0  0  0
  186.2740  177.9980  144.8450 C   0  0  0  0  0  0  0  0  0  0  0  0
  190.3540  176.6370  145.0620 C   0  0  1  0  0  3  0  0  0  0  0  0
  190.3350  176.4980  139.8430 C   0  0  2  0  0  3  0  0  0  0  0  0
  188.1190  177.1180  146.1420 C   0  0  0  0  0  3  0  0  0  0  0  0
  190.4370  178.2730  142.4420 C   0  0  2  0  0  3  0  0  0  0  0  0
  188.4300  177.3510  141.2210 C   0  0  0  0  0  3  0  0  0  0  0  0
  189.2280  177.3080  142.4990 C   0  0  2  0  0  3  0  0  0  0  0  0
  191.1690  180.1760  143.8800 C   0  0  0  0  0  1  0  0  0  0  0  0
  191.6010  177.6250  141.6990 C   0  0  0  0  0  2  0  0  0  0  0  0
  191.3580  177.5730  140.1970 C   0  0  0  0  0  2  0  0  0  0  0  0
  184.5530  179.1840  145.9690 O   0  0  0  0  0  1  0  0  0  0  0  0
  184.8690  178.5040  144.7910 C   0  0  1  0  0  3  0  0  0  0  0  0
  184.6750  179.4160  143.5910 C   0  0  0  0  0  2  0  0  0  0  0  0
  183.7010  178.8380  142.6820 N   0  0  0  0  0  1  0  0  0  0  0  0
  190.5420  176.0030  138.4140 C   0  0  0  0  0  2  0  0  0  0  0  0
  191.5580  174.9820  138.3580 N   0  0  0  0  0  0  0  0  0  0  0  0
  192.5620  175.1210  137.5740 C   0  0  0  0  0  3  0  0  0  0  0  0
  193.6110  174.0670  137.5160 C   0  0  0  0  0  1  0  0  0  0  0  0
  190.6570  175.9880  146.2930 O   0  0  0  0  0  0  0  0  0  0  0  0
  192.6600  175.3420  147.3730 C   0  0  0  0  0  3  0  0  0  0  0  0
  191.7710  175.1620  146.4050 C   0  0  0  0  0  3  0  0  0  0  0  0
  192.5030  176.3870  148.3290 N   0  0  0  0  0  2  0  0  0  0  0  0
  193.3500  176.4440  149.4690 C   0  0  0  0  0  3  0  0  0  0  0  0
  193.5340  177.5930  150.0990 C   0  0  0  0  0  2  0  0  0  0  0  0
  1 12  1  0  0  0  0
  2 10  1  0  0  0  0
  2 12  2  0  0  0  0
  3 16  1  0  0  0  0
  3  7  1  0  0  0  0
  4 14  2  0  0  0  0
  6  2  1  0  0  0  0
  7 10  1  0  0  0  0
  7  5  2  0  0  0  0
  8  6  2  0  0  0  0
  8  9  1  0  0  0  0
  9  1  2  0  0  0  0
 10 27  1  1  0  0  0
 11 23  1  6  0  0  0
 11  4  1  0  0  0  0
 11 18  1  0  0  0  0
 13 17  1  1  0  0  0
 13 15  1  0  0  0  0
 13  3  1  0  0  0  0
 15 14  1  6  0  0  0
 15  6  1  0  0  0  0
 18 17  1  0  0  0  0
 20  9  1  0  0  0  0
 20 19  1  1  0  0  0
 21 20  1  0  0  0  0
 22 21  1  0  0  0  0
 24 23  1  0  0  0  0
 25 24  2  0  0  0  0
 26 25  1  0  0  0  0
 27 29  1  0  0  0  0
 28 30  1  0  0  0  0
 29 28  2  0  0  0  0
 30 31  1  0  0  0  0
 31 32  2  0  0  0  0
M  END
>  <MODEL>
3

>  <REMARK>
 VINA RESULT:      -5.9      4.115      9.521
  Name = 
  8 active torsions:
  status: ('A' for Active; 'I' for Inactive)
    1  A    between atoms: C_1  and  N_16
    2  A    between atoms: N_3  and  C_12
    3  A    between atoms: C_5  and  N_16
    4  A    between atoms: C_10  and  C_15
    5  A    between atoms: C_10  and  C_20
    6  A    between atoms: C_12  and  C_24
    7  A    between atoms: C_13  and  O_22
    8  A    between atoms: O_22  and  C_23
                            x       y       z     vdW  Elec       q    Type
                         _______ _______ _______ _____ _____    ______ ____

>  <TORSDO>
F 8

$$$$
=
 OpenBabel10232407503D

 32 34  0  0  1  0  0  0  0  0999 V2000
  188.7420  177.5510  141.3260 C   0  0  0  0  0  3  0  0  0  0  0  0
  189.0830  177.5270  138.9200 C   0  0  0  0  0  0  0  0  0  0  0  0
  189.1860  175.2580  137.0790 N   0  0  0  0  0  0  0  0  0  0  0  0
  193.6110  176.3530  137.3030 C   0  0  0  0  0  3  0  0  0  0  0  0
  187.0680  176.0840  136.5260 O   0  0  0  0  0  0  0  0  0  0  0  0
  190.3420  176.9220  139.1040 C   0  0  0  0  0  0  0  0  0  0  0  0
  188.2170  176.3200  136.9890 C   0  0  0  0  0  0  0  0  0  0  0  0
  190.7830  176.6350  140.4060 C   0  0  0  0  0  3  0  0  0  0  0  0
  189.9890  176.9520  141.5160 C   0  0  0  0  0  0  0  0  0  0  0  0
  188.5480  177.6860  137.5240 C   0  0  1  0  0  3  0  0  0  0  0  0
  193.3600  176.5640  135.8360 C   0  0  2  0  0  3  0  0  0  0  0  0
  188.2850  177.8260  140.0350 C   0  0  0  0  0  3  0  0  0  0  0  0
  190.6350  175.4740  136.9790 C   0  0  2  0  0  3  0  0  0  0  0  0
  192.6400  176.3690  138.2240 C   0  0  0  0  0  3  0  0  0  0  0  0
  191.1880  176.5960  137.8900 C   0  0  2  0  0  3  0  0  0  0  0  0
  188.7240  173.8850  137.1980 C   0  0  0  0  0  1  0  0  0  0  0  0
  191.0060  175.7380  135.5230 C   0  0  0  0  0  2  0  0  0  0  0  0
  192.4790  175.4630  135.2530 C   0  0  0  0  0  2  0  0  0  0  0  0
  190.6330  175.2940  143.0870 O   0  0  0  0  0  1  0  0  0  0  0  0
  190.4600  176.6680  142.9050 C   0  0  1  0  0  3  0  0  0  0  0  0
  191.7600  177.4030  143.1890 C   0  0  0  0  0  2  0  0  0  0  0  0
  191.4770  178.7120  143.7490 N   0  0  0  0  0  1  0  0  0  0  0  0
  194.6790  176.6630  135.0750 C   0  0  0  0  0  2  0  0  0  0  0  0
  195.7320  175.9580  135.7620 N   0  0  0  0  0  0  0  0  0  0  0  0
  196.8890  175.8540  135.2240 C   0  0  0  0  0  3  0  0  0  0  0  0
  197.9760  175.1250  135.9340 C   0  0  0  0  0  1  0  0  0  0  0  0
  187.4230  178.5580  137.4930 O   0  0  0  0  0  0  0  0  0  0  0  0
  185.1470  178.3490  138.1050 C   0  0  0  0  0  3  0  0  0  0  0  0
  186.1420  178.0580  137.2770 C   0  0  0  0  0  3  0  0  0  0  0  0
  185.3570  179.1810  139.2420 N   0  0  0  0  0  2  0  0  0  0  0  0
  184.6450  178.9350  140.4470 C   0  0  0  0  0  3  0  0  0  0  0  0
  185.2390  179.1130  141.6150 C   0  0  0  0  0  2  0  0  0  0  0  0
  1  9  1  0  0  0  0
  2  6  2  0  0  0  0
  2 12  1  0  0  0  0
  3 16  1  0  0  0  0
  4 14  2  0  0  0  0
  5  7  2  0  0  0  0
  6  8  1  0  0  0  0
  7  3  1  0  0  0  0
  7 10  1  0  0  0  0
  8  9  2  0  0  0  0
  9 20  1  0  0  0  0
 10 27  1  1  0  0  0
 10  2  1  0  0  0  0
 11 23  1  6  0  0  0
 11  4  1  0  0  0  0
 12  1  2  0  0  0  0
 13 17  1  6  0  0  0
 13  3  1  0  0  0  0
 13 15  1  0  0  0  0
 15 14  1  1  0  0  0
 15  6  1  0  0  0  0
 18 17  1  0  0  0  0
 18 11  1  0  0  0  0
 20 19  1  6  0  0  0
 20 21  1  0  0  0  0
 21 22  1  0  0  0  0
 23 24  1  0  0  0  0
 25 24  2  0  0  0  0
 25 26  1  0  0  0  0
 28 30  1  0  0  0  0
 29 27  1  0  0  0  0
 29 28  2  0  0  0  0
 30 31  1  0  0  0  0
 31 32  2  0  0  0  0
M  END
>  <MODEL>
4

>  <REMARK>
 VINA RESULT:      -5.4      2.397      6.738
  Name = 
  8 active torsions:
  status: ('A' for Active; 'I' for Inactive)
    1  A    between atoms: C_1  and  N_16
    2  A    between atoms: N_3  and  C_12
    3  A    between atoms: C_5  and  N_16
    4  A    between atoms: C_10  and  C_15
    5  A    between atoms: C_10  and  C_20
    6  A    between atoms: C_12  and  C_24
    7  A    between atoms: C_13  and  O_22
    8  A    between atoms: O_22  and  C_23
                            x       y       z     vdW  Elec       q    Type
                         _______ _______ _______ _____ _____    ______ ____

>  <TORSDO>
F 8

$$$$
=
 OpenBabel10232407503D

 32 34  0  0  1  0  0  0  0  0999 V2000
  180.6790  179.4850  141.2930 C   0  0  0  0  0  3  0  0  0  0  0  0
  181.6650  179.1110  139.1040 C   0  0  0  0  0  0  0  0  0  0  0  0
  182.5010  176.6090  137.8450 N   0  0  0  0  0  0  0  0  0  0  0  0
  186.5590  178.3910  138.9370 C   0  0  0  0  0  3  0  0  0  0  0  0
  180.5420  176.9970  136.6260 O   0  0  0  0  0  0  0  0  0  0  0  0
  182.8810  178.7460  139.7130 C   0  0  0  0  0  0  0  0  0  0  0  0
  181.4900  177.4800  137.3030 C   0  0  0  0  0  0  0  0  0  0  0  0
  182.9770  178.7530  141.1150 C   0  0  0  0  0  3  0  0  0  0  0  0
  181.8810  179.1250  141.9040 C   0  0  0  0  0  0  0  0  0  0  0  0
  181.5180  178.9510  137.6160 C   0  0  1  0  0  3  0  0  0  0  0  0
  186.6980  178.3130  137.4430 C   0  0  2  0  0  3  0  0  0  0  0  0
  180.5660  179.4670  139.9010 C   0  0  0  0  0  3  0  0  0  0  0  0
  183.8920  177.0250  138.0660 C   0  0  2  0  0  3  0  0  0  0  0  0
  185.3770  178.4120  139.5640 C   0  0  0  0  0  3  0  0  0  0  0  0
  184.0560  178.3550  138.8400 C   0  0  2  0  0  3  0  0  0  0  0  0
  182.1700  175.2210  138.1200 C   0  0  0  0  0  1  0  0  0  0  0  0
  184.6180  177.0950  136.7270 C   0  0  0  0  0  2  0  0  0  0  0  0
  186.1290  177.0080  136.8930 C   0  0  0  0  0  2  0  0  0  0  0  0
  180.9980  178.3390  143.9620 O   0  0  0  0  0  1  0  0  0  0  0  0
  181.9810  179.1530  143.3950 C   0  0  1  0  0  3  0  0  0  0  0  0
  183.3600  178.7040  143.8470 C   0  0  0  0  0  2  0  0  0  0  0  0
  183.5670  179.0640  145.2380 N   0  0  0  0  0  1  0  0  0  0  0  0
  188.1570  178.4830  137.0310 C   0  0  0  0  0  2  0  0  0  0  0  0
  189.0480  178.1160  138.1020 N   0  0  0  0  0  0  0  0  0  0  0  0
  189.8000  177.0860  137.9850 C   0  0  0  0  0  3  0  0  0  0  0  0
  190.7200  176.7060  139.0920 C   0  0  0  0  0  1  0  0  0  0  0  0
  180.3610  179.6230  137.1310 O   0  0  0  0  0  0  0  0  0  0  0  0
  180.5530  181.7080  136.0280 C   0  0  0  0  0  3  0  0  0  0  0  0
  180.4200  180.3890  135.9700 C   0  0  0  0  0  3  0  0  0  0  0  0
  180.6410  182.3820  137.2800 N   0  0  0  0  0  2  0  0  0  0  0  0
  180.8250  183.7910  137.3200 C   0  0  0  0  0  3  0  0  0  0  0  0
  181.1080  184.4530  136.2100 C   0  0  0  0  0  2  0  0  0  0  0  0
  1  9  1  0  0  0  0
  2  6  2  0  0  0  0
  2 12  1  0  0  0  0
  3 13  1  0  0  0  0
  3 16  1  0  0  0  0
  4 14  2  0  0  0  0
  5  7  2  0  0  0  0
  6  8  1  0  0  0  0
  7 10  1  0  0  0  0
  7  3  1  0  0  0  0
  8  9  2  0  0  0  0
  9 20  1  0  0  0  0
 10 27  1  1  0  0  0
 10  2  1  0  0  0  0
 11 23  1  1  0  0  0
 11  4  1  0  0  0  0
 12  1  2  0  0  0  0
 13 17  1  6  0  0  0
 13 15  1  0  0  0  0
 15 14  1  1  0  0  0
 15  6  1  0  0  0  0
 17 18  1  0  0  0  0
 18 11  1  0  0  0  0
 20 21  1  0  0  0  0
 20 19  1  1  0  0  0
 21 22  1  0  0  0  0
 23 24  1  0  0  0  0
 25 24  2  0  0  0  0
 25 26  1  0  0  0  0
 28 30  1  0  0  0  0
 29 28  2  0  0  0  0
 29 27  1  0  0  0  0
 30 31  1  0  0  0  0
 32 31  2  0  0  0  0
M  END
>  <MODEL>
5

>  <REMARK>
 VINA RESULT:      -5.3      6.055      9.773
  Name = 
  8 active torsions:
  status: ('A' for Active; 'I' for Inactive)
    1  A    between atoms: C_1  and  N_16
    2  A    between atoms: N_3  and  C_12
    3  A    between atoms: C_5  and  N_16
    4  A    between atoms: C_10  and  C_15
    5  A    between atoms: C_10  and  C_20
    6  A    between atoms: C_12  and  C_24
    7  A    between atoms: C_13  and  O_22
    8  A    between atoms: O_22  and  C_23
                            x       y       z     vdW  Elec       q    Type
                         _______ _______ _______ _____ _____    ______ ____

>  <TORSDO>
F 8

$$$$
=
 OpenBabel10232407503D

 32 34  0  0  1  0  0  0  0  0999 V2000
  182.3730  179.1090  141.6910 C   0  0  0  0  0  3  0  0  0  0  0  0
  182.6900  178.9320  139.2890 C   0  0  0  0  0  0  0  0  0  0  0  0
  182.8910  176.5460  137.6100 N   0  0  0  0  0  0  0  0  0  0  0  0
  187.2560  177.8790  137.6940 C   0  0  0  0  0  3  0  0  0  0  0  0
  180.7280  177.2220  137.0300 O   0  0  0  0  0  0  0  0  0  0  0  0
  183.9800  178.4070  139.4960 C   0  0  0  0  0  0  0  0  0  0  0  0
  181.8680  177.5480  137.4590 C   0  0  0  0  0  0  0  0  0  0  0  0
  184.4500  178.2360  140.8090 C   0  0  0  0  0  3  0  0  0  0  0  0
  183.6510  178.5890  141.9050 C   0  0  0  0  0  0  0  0  0  0  0  0
  182.1320  178.9640  137.8920 C   0  0  1  0  0  3  0  0  0  0  0  0
  186.9780  177.9730  136.2190 C   0  0  2  0  0  3  0  0  0  0  0  0
  181.8890  179.2680  140.3910 C   0  0  0  0  0  3  0  0  0  0  0  0
  184.3260  176.8280  137.4740 C   0  0  2  0  0  3  0  0  0  0  0  0
  186.2950  177.9100  138.6250 C   0  0  0  0  0  3  0  0  0  0  0  0
  184.8290  178.0390  138.2960 C   0  0  2  0  0  3  0  0  0  0  0  0
  182.5030  175.1630  137.8320 C   0  0  0  0  0  1  0  0  0  0  0  0
  184.6680  177.0070  135.9980 C   0  0  0  0  0  2  0  0  0  0  0  0
  186.1500  176.7890  135.7270 C   0  0  0  0  0  2  0  0  0  0  0  0
  185.3210  179.1700  143.4880 O   0  0  0  0  0  1  0  0  0  0  0  0
  184.1520  178.4290  143.3040 C   0  0  1  0  0  3  0  0  0  0  0  0
  183.0920  178.8630  144.3030 C   0  0  0  0  0  2  0  0  0  0  0  0
  183.7100  179.1530  145.5850 N   0  0  0  0  0  1  0  0  0  0  0  0
  188.2830  178.0840  135.4350 C   0  0  0  0  0  2  0  0  0  0  0  0
  189.4010  177.6150  136.2130 N   0  0  0  0  0  0  0  0  0  0  0  0
  190.0000  176.5320  135.8840 C   0  0  0  0  0  3  0  0  0  0  0  0
  191.1550  176.0470  136.6880 C   0  0  0  0  0  1  0  0  0  0  0  0
  180.9640  179.7730  137.8160 O   0  0  0  0  0  0  0  0  0  0  0  0
  180.6790  181.7200  136.5010 C   0  0  0  0  0  3  0  0  0  0  0  0
  180.6110  180.4010  136.6250 C   0  0  0  0  0  3  0  0  0  0  0  0
  181.1140  182.5370  137.5840 N   0  0  0  0  0  2  0  0  0  0  0  0
  181.5110  183.8810  137.3480 C   0  0  0  0  0  3  0  0  0  0  0  0
  181.1060  184.5090  136.2560 C   0  0  0  0  0  2  0  0  0  0  0  0
  1  9  1  0  0  0  0
  2  6  2  0  0  0  0
  2 12  1  0  0  0  0
  3 16  1  0  0  0  0
  4 14  2  0  0  0  0
  5  7  2  0  0  0  0
  6  8  1  0  0  0  0
  7  3  1  0  0  0  0
  7 10  1  0  0  0  0
  8  9  2  0  0  0  0
  9 20  1  0  0  0  0
 10 27  1  1  0  0  0
 10  2  1  0  0  0  0
 11 23  1  6  0  0  0
 11  4  1  0  0  0  0
 12  1  2  0  0  0  0
 13 17  1  6  0  0  0
 13  3  1  0  0  0  0
 13 15  1  0  0  0  0
 15 14  1  1  0  0  0
 15  6  1  0  0  0  0
 18 17  1  0  0  0  0
 18 11  1  0  0  0  0
 20 19  1  6  0  0  0
 20 21  1  0  0  0  0
 21 22  1  0  0  0  0
 23 24  1  0  0  0  0
 25 24  2  0  0  0  0
 25 26  1  0  0  0  0
 28 29  2  0  0  0  0
 28 30  1  0  0  0  0
 29 27  1  0  0  0  0
 31 30  1  0  0  0  0
 32 31  2  0  0  0  0
M  END
>  <MODEL>
6

>  <REMARK>
 VINA RESULT:      -5.2      5.495      9.455
  Name = 
  8 active torsions:
  status: ('A' for Active; 'I' for Inactive)
    1  A    between atoms: C_1  and  N_16
    2  A    between atoms: N_3  and  C_12
    3  A    between atoms: C_5  and  N_16
    4  A    between atoms: C_10  and  C_15
    5  A    between atoms: C_10  and  C_20
    6  A    between atoms: C_12  and  C_24
    7  A    between atoms: C_13  and  O_22
    8  A    between atoms: O_22  and  C_23
                            x       y       z     vdW  Elec       q    Type
                         _______ _______ _______ _____ _____    ______ ____

>  <TORSDO>
F 8

$$$$
=
 OpenBabel10232407503D

 32 34  0  0  1  0  0  0  0  0999 V2000
  182.8210  180.3820  138.8080 C   0  0  0  0  0  3  0  0  0  0  0  0
  184.4690  178.5990  138.8670 C   0  0  0  0  0  0  0  0  0  0  0  0
  186.1800  177.5760  136.7270 N   0  0  0  0  0  0  0  0  0  0  0  0
  183.1050  174.2150  137.0160 C   0  0  0  0  0  3  0  0  0  0  0  0
  187.7840  178.7680  137.9430 O   0  0  0  0  0  0  0  0  0  0  0  0
  183.6450  177.8080  138.0420 C   0  0  0  0  0  0  0  0  0  0  0  0
  186.6810  178.1580  137.9460 C   0  0  0  0  0  0  0  0  0  0  0  0
  182.4130  178.3230  137.6060 C   0  0  0  0  0  3  0  0  0  0  0  0
  181.9980  179.6050  137.9900 C   0  0  0  0  0  0  0  0  0  0  0  0
  185.8510  178.1080  139.2000 C   0  0  1  0  0  3  0  0  0  0  0  0
  184.3590  173.4570  137.3550 C   0  0  2  0  0  3  0  0  0  0  0  0
  184.0550  179.8880  139.2350 C   0  0  0  0  0  3  0  0  0  0  0  0
  185.3300  176.3790  136.6920 C   0  0  2  0  0  3  0  0  0  0  0  0
  182.9920  175.5420  137.1480 C   0  0  0  0  0  3  0  0  0  0  0  0
  184.1100  176.4220  137.6450 C   0  0  2  0  0  3  0  0  0  0  0  0
  186.5870  178.1410  135.4520 C   0  0  0  0  0  1  0  0  0  0  0  0
  186.1820  175.1460  136.9730 C   0  0  0  0  0  2  0  0  0  0  0  0
  185.5240  173.8710  136.4610 C   0  0  0  0  0  2  0  0  0  0  0  0
  180.6180  181.5250  137.7940 O   0  0  0  0  0  1  0  0  0  0  0  0
  180.6800  180.1520  137.5470 C   0  0  1  0  0  3  0  0  0  0  0  0
  180.4540  179.8730  136.0700 C   0  0  0  0  0  2  0  0  0  0  0  0
  180.7290  181.0680  135.2930 N   0  0  0  0  0  1  0  0  0  0  0  0
  184.1160  171.9530  137.2660 C   0  0  0  0  0  2  0  0  0  0  0  0
  182.7730  171.6660  136.8310 N   0  0  0  0  0  0  0  0  0  0  0  0
  182.5720  170.8420  135.8720 C   0  0  0  0  0  3  0  0  0  0  0  0
  181.1840  170.5450  135.4230 C   0  0  0  0  0  1  0  0  0  0  0  0
  186.4330  178.8650  140.2550 O   0  0  0  0  0  0  0  0  0  0  0  0
  186.1980  178.3660  142.5560 C   0  0  0  0  0  3  0  0  0  0  0  0
  186.8710  178.2410  141.4200 C   0  0  0  0  0  3  0  0  0  0  0  0
  185.0070  179.1450  142.6220 N   0  0  0  0  0  0  0  0  0  0  0  0
  184.4430  179.4800  143.8830 C   0  0  0  0  0  3  0  0  0  0  0  0
  184.8670  178.8740  144.9800 C   0  0  0  0  0  1  0  0  0  0  0  0
  1 12  1  0  0  0  0
  2 10  1  0  0  0  0
  2 12  2  0  0  0  0
  3  7  1  0  0  0  0
  4 14  2  0  0  0  0
  4 11  1  0  0  0  0
  5  7  2  0  0  0  0
  6  2  1  0  0  0  0
  7 10  1  0  0  0  0
  8  9  1  0  0  0  0
  8  6  2  0  0  0  0
  9  1  2  0  0  0  0
 10 27  1  1  0  0  0
 11 23  1  6  0  0  0
 13  3  1  0  0  0  0
 13 17  1  1  0  0  0
 13 15  1  0  0  0  0
 15 14  1  6  0  0  0
 15  6  1  0  0  0  0
 16  3  1  0  0  0  0
 18 17  1  0  0  0  0
 18 11  1  0  0  0  0
 20 19  1  6  0  0  0
 20  9  1  0  0  0  0
 21 20  1  0  0  0  0
 22 21  1  0  0  0  0
 24 23  1  0  0  0  0
 25 24  2  0  0  0  0
 26 25  1  0  0  0  0
 27 29  1  0  0  0  0
 28 30  1  0  0  0  0
 29 28  2  0  0  0  0
 30 31  2  0  0  0  0
 31 32  1  0  0  0  0
M  END
>  <MODEL>
7

>  <REMARK>
 VINA RESULT:      -5.2      4.804      9.800
  Name = 
  8 active torsions:
  status: ('A' for Active; 'I' for Inactive)
    1  A    between atoms: C_1  and  N_16
    2  A    between atoms: N_3  and  C_12
    3  A    between atoms: C_5  and  N_16
    4  A    between atoms: C_10  and  C_15
    5  A    between atoms: C_10  and  C_20
    6  A    between atoms: C_12  and  C_24
    7  A    between atoms: C_13  and  O_22
    8  A    between atoms: O_22  and  C_23
                            x       y       z     vdW  Elec       q    Type
                         _______ _______ _______ _____ _____    ______ ____

>  <TORSDO>
F 8

$$$$
=
 OpenBabel10232407503D

 32 34  0  0  1  0  0  0  0  0999 V2000
  188.5270  177.7260  140.3030 C   0  0  0  0  0  3  0  0  0  0  0  0
  189.1570  177.2330  138.0090 C   0  0  0  0  0  0  0  0  0  0  0  0
  189.7060  174.6560  136.7430 N   0  0  0  0  0  0  0  0  0  0  0  0
  193.9420  176.3080  137.1430 C   0  0  0  0  0  3  0  0  0  0  0  0
  187.6000  175.0800  135.8160 O   0  0  0  0  0  0  0  0  0  0  0  0
  190.4380  176.8410  138.4440 C   0  0  0  0  0  0  0  0  0  0  0  0
  188.6560  175.5470  136.3240 C   0  0  0  0  0  0  0  0  0  0  0  0
  190.7450  176.8930  139.8140 C   0  0  0  0  0  3  0  0  0  0  0  0
  189.7940  177.3380  140.7420 C   0  0  0  0  0  0  0  0  0  0  0  0
  188.7830  177.0260  136.5680 C   0  0  1  0  0  3  0  0  0  0  0  0
  193.8510  176.1700  135.6490 C   0  0  2  0  0  3  0  0  0  0  0  0
  188.2050  177.6630  138.9460 C   0  0  0  0  0  3  0  0  0  0  0  0
  191.1280  175.0210  136.7370 C   0  0  2  0  0  3  0  0  0  0  0  0
  192.8690  176.3990  137.9380 C   0  0  0  0  0  3  0  0  0  0  0  0
  191.4530  176.3710  137.4230 C   0  0  2  0  0  3  0  0  0  0  0  0
  189.3710  173.2930  137.1220 C   0  0  0  0  0  1  0  0  0  0  0  0
  191.6460  175.0140  135.3030 C   0  0  0  0  0  2  0  0  0  0  0  0
  193.1610  174.8710  135.2450 C   0  0  0  0  0  2  0  0  0  0  0  0
  189.2130  178.2540  142.8530 O   0  0  0  0  0  1  0  0  0  0  0  0
  190.1190  177.4160  142.1990 C   0  0  1  0  0  3  0  0  0  0  0  0
  190.0990  176.0310  142.8260 C   0  0  0  0  0  2  0  0  0  0  0  0
  191.3390  175.7960  143.5450 N   0  0  0  0  0  1  0  0  0  0  0  0
  195.2370  176.2660  135.0160 C   0  0  0  0  0  2  0  0  0  0  0  0
  196.2430  175.6950  135.8750 N   0  0  0  0  0  0  0  0  0  0  0  0
  197.3490  175.2820  135.3790 C   0  0  0  0  0  3  0  0  0  0  0  0
  198.3880  174.6920  136.2670 C   0  0  0  0  0  1  0  0  0  0  0  0
  187.5900  177.7270  136.2330 O   0  0  0  0  0  0  0  0  0  0  0  0
  186.1770  177.9390  134.3470 C   0  0  0  0  0  3  0  0  0  0  0  0
  187.3530  178.1430  134.9260 C   0  0  0  0  0  3  0  0  0  0  0  0
  185.1200  177.2880  135.0440 N   0  0  0  0  0  2  0  0  0  0  0  0
  183.8570  177.1050  134.4150 C   0  0  0  0  0  3  0  0  0  0  0  0
  182.7470  177.4380  135.0520 C   0  0  0  0  0  2  0  0  0  0  0  0
  1  9  1  0  0  0  0
  2  6  2  0  0  0  0
  2 12  1  0  0  0  0
  3 16  1  0  0  0  0
  4 14  2  0  0  0  0
  5  7  2  0  0  0  0
  6  8  1  0  0  0  0
  7 10  1  0  0  0  0
  7  3  1  0  0  0  0
  8  9  2  0  0  0  0
  9 20  1  0  0  0  0
 10 27  1  1  0  0  0
 10  2  1  0  0  0  0
 11 23  1  6  0  0  0
 11  4  1  0  0  0  0
 12  1  2  0  0  0  0
 13 17  1  6  0  0  0
 13  3  1  0  0  0  0
 13 15  1  0  0  0  0
 15 14  1  1  0  0  0
 15  6  1  0  0  0  0
 18 17  1  0  0  0  0
 18 11  1  0  0  0  0
 20 21  1  0  0  0  0
 20 19  1  1  0  0  0
 21 22  1  0  0  0  0
 23 24  1  0  0  0  0
 25 24  2  0  0  0  0
 25 26  1  0  0  0  0
 28 29  2  0  0  0  0
 28 30  1  0  0  0  0
 29 27  1  0  0  0  0
 31 30  1  0  0  0  0
 31 32  2  0  0  0  0
M  END
>  <MODEL>
8

>  <REMARK>
 VINA RESULT:      -5.1      2.625      6.624
  Name = 
  8 active torsions:
  status: ('A' for Active; 'I' for Inactive)
    1  A    between atoms: C_1  and  N_16
    2  A    between atoms: N_3  and  C_12
    3  A    between atoms: C_5  and  N_16
    4  A    between atoms: C_10  and  C_15
    5  A    between atoms: C_10  and  C_20
    6  A    between atoms: C_12  and  C_24
    7  A    between atoms: C_13  and  O_22
    8  A    between atoms: O_22  and  C_23
                            x       y       z     vdW  Elec       q    Type
                         _______ _______ _______ _____ _____    ______ ____

>  <TORSDO>
F 8

$$$$
=
 OpenBabel10232407503D

 32 34  0  0  1  0  0  0  0  0999 V2000
  183.2680  179.4780  138.8140 C   0  0  0  0  0  3  0  0  0  0  0  0
  185.2320  178.1200  138.3710 C   0  0  0  0  0  0  0  0  0  0  0  0
  186.6840  177.7100  135.8670 N   0  0  0  0  0  0  0  0  0  0  0  0
  184.4870  173.7240  136.2210 C   0  0  0  0  0  3  0  0  0  0  0  0
  188.2040  179.1230  136.9450 O   0  0  0  0  0  0  0  0  0  0  0  0
  184.4510  177.2400  137.5980 C   0  0  0  0  0  0  0  0  0  0  0  0
  187.2730  178.2790  137.0510 C   0  0  0  0  0  0  0  0  0  0  0  0
  183.0790  177.4970  137.4400 C   0  0  0  0  0  3  0  0  0  0  0  0
  182.4860  178.6110  138.0490 C   0  0  0  0  0  0  0  0  0  0  0  0
  186.7230  177.9300  138.4070 C   0  0  1  0  0  3  0  0  0  0  0  0
  185.9120  173.2450  136.2480 C   0  0  2  0  0  3  0  0  0  0  0  0
  184.6350  179.2420  138.9660 C   0  0  0  0  0  3  0  0  0  0  0  0
  186.1100  176.3590  135.8180 C   0  0  2  0  0  3  0  0  0  0  0  0
  184.1270  174.9730  136.5380 C   0  0  0  0  0  3  0  0  0  0  0  0
  185.1110  176.0370  136.9550 C   0  0  2  0  0  3  0  0  0  0  0  0
  186.7170  178.4640  134.6250 C   0  0  0  0  0  1  0  0  0  0  0  0
  187.2380  175.3320  135.7930 C   0  0  0  0  0  2  0  0  0  0  0  0
  186.7760  173.9920  135.2360 C   0  0  0  0  0  2  0  0  0  0  0  0
  180.6120  179.8370  138.8330 O   0  0  0  0  0  1  0  0  0  0  0  0
  181.0230  178.8800  137.9020 C   0  0  1  0  0  3  0  0  0  0  0  0
  180.7050  179.3480  136.4920 C   0  0  0  0  0  2  0  0  0  0  0  0
  180.6450  180.7990  136.4530 N   0  0  0  0  0  1  0  0  0  0  0  0
  185.9760  171.7400  136.0070 C   0  0  0  0  0  2  0  0  0  0  0  0
  187.0970  171.3920  135.1720 N   0  0  0  0  0  0  0  0  0  0  0  0
  187.9110  170.4740  135.5420 C   0  0  0  0  0  3  0  0  0  0  0  0
  189.0700  170.1150  134.6800 C   0  0  0  0  0  1  0  0  0  0  0  0
  187.3230  178.7020  139.4410 O   0  0  0  0  0  0  0  0  0  0  0  0
  187.6830  178.1580  141.7160 C   0  0  0  0  0  3  0  0  0  0  0  0
  188.0640  178.0880  140.4470 C   0  0  0  0  0  3  0  0  0  0  0  0
  186.5040  178.8640  142.0900 N   0  0  0  0  0  0  0  0  0  0  0  0
  185.3130  178.1510  142.3990 C   0  0  0  0  0  3  0  0  0  0  0  0
  184.2270  178.8070  142.7730 C   0  0  0  0  0  1  0  0  0  0  0  0
  1 12  1  0  0  0  0
  2 10  1  0  0  0  0
  2 12  2  0  0  0  0
  3  7  1  0  0  0  0
  4 11  1  0  0  0  0
  4 14  2  0  0  0  0
  5  7  2  0  0  0  0
  6  2  1  0  0  0  0
  7 10  1  0  0  0  0
  8  6  2  0  0  0  0
  8  9  1  0  0  0  0
  9  1  2  0  0  0  0
 10 27  1  1  0  0  0
 11 23  1  6  0  0  0
 13 17  1  1  0  0  0
 13  3  1  0  0  0  0
 13 15  1  0  0  0  0
 15 14  1  6  0  0  0
 15  6  1  0  0  0  0
 16  3  1  0  0  0  0
 18 17  1  0  0  0  0
 18 11  1  0  0  0  0
 20  9  1  0  0  0  0
 20 19  1  1  0  0  0
 21 20  1  0  0  0  0
 22 21  1  0  0  0  0
 24 25  2  0  0  0  0
 24 23  1  0  0  0  0
 26 25  1  0  0  0  0
 27 29  1  0  0  0  0
 28 30  1  0  0  0  0
 29 28  2  0  0  0  0
 30 31  2  0  0  0  0
 31 32  1  0  0  0  0
M  END
>  <MODEL>
9

>  <REMARK>
 VINA RESULT:      -5.0      4.096      9.134
  Name = 
  8 active torsions:
  status: ('A' for Active; 'I' for Inactive)
    1  A    between atoms: C_1  and  N_16
    2  A    between atoms: N_3  and  C_12
    3  A    between atoms: C_5  and  N_16
    4  A    between atoms: C_10  and  C_15
    5  A    between atoms: C_10  and  C_20
    6  A    between atoms: C_12  and  C_24
    7  A    between atoms: C_13  and  O_22
    8  A    between atoms: O_22  and  C_23
                            x       y       z     vdW  Elec       q    Type
                         _______ _______ _______ _____ _____    ______ ____

>  <TORSDO>
F 8

$$$$
