=
 OpenBabel10232408203D

 32 35  0  0  1  0  0  0  0  0999 V2000
  184.5760  178.4190  142.9270 C   0  0  0  0  0  0  0  0  0  0  0  0
  184.5820  178.8460  145.7110 C   0  0  0  0  0  3  0  0  0  0  0  0
  185.7380  178.4080  145.0670 C   0  0  0  0  0  3  0  0  0  0  0  0
  183.4220  179.0640  144.9750 C   0  0  0  0  0  3  0  0  0  0  0  0
  185.7510  178.1870  143.6840 C   0  0  0  0  0  0  0  0  0  0  0  0
  183.4210  178.8510  143.5960 C   0  0  0  0  0  3  0  0  0  0  0  0
  185.3430  178.9820  140.5960 N   0  0  0  0  0  2  0  0  0  0  0  0
  184.4930  178.2230  141.4610 C   0  0  0  0  0  0  0  0  0  0  0  0
  183.6910  177.3900  140.9620 O   0  0  0  0  0  0  0  0  0  0  0  0
  185.1750  179.0080  139.1490 C   0  0  0  0  0  2  0  0  0  0  0  0
  186.1640  178.0730  138.4750 C   0  0  0  0  0  2  0  0  0  0  0  0
  188.5410  177.8930  136.5850 C   0  0  0  0  0  2  0  0  0  0  0  0
  189.8550  177.3960  137.1970 C   0  0  0  0  0  2  0  0  0  0  0  0
  189.9040  177.6600  138.7040 C   0  0  1  0  0  3  0  0  0  0  0  0
  187.5830  178.6190  138.5560 C   0  0  1  0  0  3  0  0  0  0  0  0
  188.5030  177.6350  139.3030 C   0  0  0  0  0  2  0  0  0  0  0  0
  188.0690  179.0220  137.2830 O   0  0  0  0  0  0  0  0  0  0  0  0
  190.7870  176.6330  139.3810 C   0  0  0  0  0  3  0  0  0  0  0  0
  191.7970  177.2670  140.0760 O   0  0  0  0  0  0  0  0  0  0  0  0
  192.0680  176.7220  138.8780 O   0  0  0  0  0  0  0  0  0  0  0  0
  187.2910  177.6150  142.9640 S   0  0  0  0  0  0  0  0  0  0  0  0
  187.8910  176.9150  144.5280 C   0  0  0  0  0  2  0  0  0  0  0  0
  188.7790  177.9200  145.2430 C   0  0  0  0  0  2  0  0  0  0  0  0
  189.1750  177.4070  146.6260 C   0  0  0  0  0  0  0  0  0  0  0  0
  189.0260  178.3190  147.8280 C   0  0  0  0  0  2  0  0  0  0  0  0
  187.9730  177.2650  147.5360 C   0  0  0  0  0  2  0  0  0  0  0  0
  190.0250  176.2830  146.7400 O   0  0  0  0  0  0  0  0  0  0  0  0
  191.3910  176.6490  146.8610 C   0  0  0  0  0  0  0  0  0  0  0  0
  191.6370  177.3290  148.0570 O   0  0  0  0  0  1  0  0  0  0  0  0
  191.7090  177.5050  145.8050 O   0  0  0  0  0  1  0  0  0  0  0  0
  193.1450  175.3760  147.8950 O   0  0  0  0  0  1  0  0  0  0  0  0
  192.3050  175.4310  146.7810 C   0  0  0  0  0  2  0  0  0  0  0  0
  1  6  2  0  0  0  0
  1  5  1  0  0  0  0
  3  2  1  0  0  0  0
  4  2  2  0  0  0  0
  5  3  2  0  0  0  0
  6  4  1  0  0  0  0
  7  8  1  0  0  0  0
  8  1  1  0  0  0  0
  9  8  2  0  0  0  0
 10  7  1  0  0  0  0
 11 10  1  0  0  0  0
 12 13  1  0  0  0  0
 12 17  1  0  0  0  0
 13 14  1  0  0  0  0
 14 16  1  0  0  0  0
 14 18  1  1  0  0  0
 15 11  1  6  0  0  0
 15 16  1  0  0  0  0
 17 15  1  0  0  0  0
 18 19  1  0  0  0  0
 20 18  1  0  0  0  0
 20 19  1  0  0  0  0
 21  5  1  0  0  0  0
 21 22  1  0  0  0  0
 22 23  1  0  0  0  0
 23 24  1  0  0  0  0
 24 27  1  0  0  0  0
 24 26  1  0  0  0  0
 24 25  1  0  0  0  0
 26 25  1  0  0  0  0
 27 28  1  0  0  0  0
 28 29  1  0  0  0  0
 30 28  1  0  0  0  0
 32 28  1  0  0  0  0
 32 31  1  0  0  0  0
M  END
>  <MODEL>
1

>  <REMARK>
 VINA RESULT:      -8.0      0.000      0.000
  Name = 
  12 active torsions:
  status: ('A' for Active; 'I' for Inactive)
    1  A    between atoms: C_1  and  C_15
    2  A    between atoms: C_2  and  C_10
    3  A    between atoms: C_3  and  C_9
    4  A    between atoms: C_3  and  O_11
    5  A    between atoms: C_6  and  O_11
    6  A    between atoms: C_6  and  C_21
    7  A    between atoms: C_8  and  C_18
    8  A    between atoms: C_8  and  C_24
    9  A    between atoms: C_9  and  C_30
   10  A    between atoms: S_13  and  C_26
   11  A    between atoms: S_13  and  C_30
   12  A    between atoms: N_14  and  C_24
                            x       y       z     vdW  Elec       q    Type
                         _______ _______ _______ _____ _____    ______ ____

>  <TORSDO>
F 12

$$$$
=
 OpenBabel10232408203D

 32 35  0  0  1  0  0  0  0  0999 V2000
  189.6500  177.2560  146.5750 C   0  0  0  0  0  0  0  0  0  0  0  0
  191.9350  176.0740  145.4260 C   0  0  0  0  0  3  0  0  0  0  0  0
  190.9250  176.5830  144.6110 C   0  0  0  0  0  3  0  0  0  0  0  0
  191.8070  176.1430  146.8090 C   0  0  0  0  0  3  0  0  0  0  0  0
  189.7810  177.1700  145.1670 C   0  0  0  0  0  0  0  0  0  0  0  0
  190.6740  176.7290  147.3770 C   0  0  0  0  0  3  0  0  0  0  0  0
  187.1700  177.6550  146.7310 N   0  0  0  0  0  2  0  0  0  0  0  0
  188.4840  177.8650  147.2560 C   0  0  0  0  0  0  0  0  0  0  0  0
  188.6300  178.5570  148.2980 O   0  0  0  0  0  0  0  0  0  0  0  0
  186.0050  178.3880  147.2090 C   0  0  0  0  0  2  0  0  0  0  0  0
  184.7970  178.1110  146.3310 C   0  0  0  0  0  2  0  0  0  0  0  0
  182.6050  178.6730  144.2970 C   0  0  0  0  0  2  0  0  0  0  0  0
  183.0500  178.7760  142.8350 C   0  0  0  0  0  2  0  0  0  0  0  0
  184.5220  179.1810  142.7260 C   0  0  1  0  0  3  0  0  0  0  0  0
  184.6550  179.1620  145.2380 C   0  0  1  0  0  3  0  0  0  0  0  0
  185.3110  178.6800  143.9300 C   0  0  0  0  0  2  0  0  0  0  0  0
  183.3110  179.5970  145.0930 O   0  0  0  0  0  0  0  0  0  0  0  0
  185.1150  178.6380  141.4430 C   0  0  0  0  0  3  0  0  0  0  0  0
  185.1050  179.6170  140.4700 O   0  0  0  0  0  0  0  0  0  0  0  0
  184.1610  178.6620  140.4480 O   0  0  0  0  0  0  0  0  0  0  0  0
  188.5430  177.7830  144.0230 S   0  0  0  0  0  0  0  0  0  0  0  0
  189.7310  177.9730  142.6640 C   0  0  0  0  0  2  0  0  0  0  0  0
  188.9960  178.2580  141.3640 C   0  0  0  0  0  2  0  0  0  0  0  0
  189.6150  177.4760  140.2080 C   0  0  0  0  0  0  0  0  0  0  0  0
  191.1150  177.5260  139.9950 C   0  0  0  0  0  2  0  0  0  0  0  0
  190.4850  176.3390  140.7030 C   0  0  0  0  0  2  0  0  0  0  0  0
  188.8000  177.0510  139.1340 O   0  0  0  0  0  0  0  0  0  0  0  0
  188.8190  177.9640  138.0470 C   0  0  0  0  0  0  0  0  0  0  0  0
  189.9040  177.7310  137.1980 O   0  0  0  0  0  1  0  0  0  0  0  0
  188.9450  179.2550  138.5640 O   0  0  0  0  0  1  0  0  0  0  0  0
  186.5930  178.8090  137.7310 O   0  0  0  0  0  1  0  0  0  0  0  0
  187.5270  177.8960  137.2380 C   0  0  0  0  0  2  0  0  0  0  0  0
  1  8  1  0  0  0  0
  1  6  1  0  0  0  0
  2  4  1  0  0  0  0
  3  5  1  0  0  0  0
  3  2  2  0  0  0  0
  4  6  2  0  0  0  0
  5  1  2  0  0  0  0
  7 10  1  0  0  0  0
  7  8  1  0  0  0  0
  8  9  2  0  0  0  0
 11 10  1  0  0  0  0
 12 17  1  0  0  0  0
 13 12  1  0  0  0  0
 14 18  1  6  0  0  0
 14 13  1  0  0  0  0
 14 16  1  0  0  0  0
 15 11  1  1  0  0  0
 16 15  1  0  0  0  0
 17 15  1  0  0  0  0
 19 18  1  0  0  0  0
 20 19  1  0  0  0  0
 20 18  1  0  0  0  0
 21  5  1  0  0  0  0
 22 21  1  0  0  0  0
 23 22  1  0  0  0  0
 24 26  1  0  0  0  0
 24 23  1  0  0  0  0
 25 24  1  0  0  0  0
 25 26  1  0  0  0  0
 27 24  1  0  0  0  0
 28 30  1  0  0  0  0
 28 27  1  0  0  0  0
 29 28  1  0  0  0  0
 32 31  1  0  0  0  0
 32 28  1  0  0  0  0
M  END
>  <MODEL>
2

>  <REMARK>
 VINA RESULT:      -8.0      2.302      7.817
  Name = 
  12 active torsions:
  status: ('A' for Active; 'I' for Inactive)
    1  A    between atoms: C_1  and  C_15
    2  A    between atoms: C_2  and  C_10
    3  A    between atoms: C_3  and  C_9
    4  A    between atoms: C_3  and  O_11
    5  A    between atoms: C_6  and  O_11
    6  A    between atoms: C_6  and  C_21
    7  A    between atoms: C_8  and  C_18
    8  A    between atoms: C_8  and  C_24
    9  A    between atoms: C_9  and  C_30
   10  A    between atoms: S_13  and  C_26
   11  A    between atoms: S_13  and  C_30
   12  A    between atoms: N_14  and  C_24
                            x       y       z     vdW  Elec       q    Type
                         _______ _______ _______ _____ _____    ______ ____

>  <TORSDO>
F 12

$$$$
=
 OpenBabel10232408203D

 32 35  0  0  1  0  0  0  0  0999 V2000
  184.4700  178.4760  142.7080 C   0  0  0  0  0  0  0  0  0  0  0  0
  184.6210  178.8500  145.4950 C   0  0  0  0  0  3  0  0  0  0  0  0
  185.7570  178.4810  144.7750 C   0  0  0  0  0  3  0  0  0  0  0  0
  183.4100  179.0240  144.8340 C   0  0  0  0  0  3  0  0  0  0  0  0
  185.6970  178.2880  143.3890 C   0  0  0  0  0  0  0  0  0  0  0  0
  183.3370  178.8370  143.4530 C   0  0  0  0  0  3  0  0  0  0  0  0
  185.1010  179.0880  140.3490 N   0  0  0  0  0  2  0  0  0  0  0  0
  184.3080  178.3040  141.2450 C   0  0  0  0  0  0  0  0  0  0  0  0
  183.4910  177.4680  140.7760 O   0  0  0  0  0  0  0  0  0  0  0  0
  184.8530  179.1360  138.9140 C   0  0  0  0  0  2  0  0  0  0  0  0
  185.7430  178.1490  138.1810 C   0  0  0  0  0  2  0  0  0  0  0  0
  187.9490  178.3080  136.0920 C   0  0  0  0  0  2  0  0  0  0  0  0
  189.2540  177.5800  136.4300 C   0  0  0  0  0  2  0  0  0  0  0  0
  189.4380  177.4370  137.9430 C   0  0  1  0  0  3  0  0  0  0  0  0
  187.2070  178.5560  138.2630 C   0  0  1  0  0  3  0  0  0  0  0  0
  188.0880  177.3500  138.6450 C   0  0  0  0  0  2  0  0  0  0  0  0
  187.6330  179.2440  137.0960 O   0  0  0  0  0  0  0  0  0  0  0  0
  190.2710  176.2100  138.2490 C   0  0  0  0  0  3  0  0  0  0  0  0
  191.3310  176.5540  139.0640 O   0  0  0  0  0  0  0  0  0  0  0  0
  191.5450  176.3820  137.7490 O   0  0  0  0  0  0  0  0  0  0  0  0
  187.2170  177.8070  142.5680 S   0  0  0  0  0  0  0  0  0  0  0  0
  187.7160  176.6840  143.9050 C   0  0  0  0  0  2  0  0  0  0  0  0
  189.2280  176.5380  143.9270 C   0  0  0  0  0  2  0  0  0  0  0  0
  189.8610  177.5690  144.8600 C   0  0  0  0  0  0  0  0  0  0  0  0
  191.3710  177.6780  144.9320 C   0  0  0  0  0  2  0  0  0  0  0  0
  190.5760  178.6580  144.0870 C   0  0  0  0  0  2  0  0  0  0  0  0
  189.0980  178.1220  145.9140 O   0  0  0  0  0  0  0  0  0  0  0  0
  189.2060  177.3670  147.1120 C   0  0  0  0  0  0  0  0  0  0  0  0
  190.3180  176.5220  147.0880 O   0  0  0  0  0  1  0  0  0  0  0  0
  188.0630  176.5740  147.2320 O   0  0  0  0  0  1  0  0  0  0  0  0
  188.1350  178.1590  149.1100 O   0  0  0  0  0  1  0  0  0  0  0  0
  189.2920  178.2730  148.3360 C   0  0  0  0  0  2  0  0  0  0  0  0
  1  5  2  0  0  0  0
  1  6  1  0  0  0  0
  3  2  2  0  0  0  0
  4  2  1  0  0  0  0
  5  3  1  0  0  0  0
  6  4  2  0  0  0  0
  7  8  1  0  0  0  0
  8  1  1  0  0  0  0
  9  8  2  0  0  0  0
 10  7  1  0  0  0  0
 11 10  1  0  0  0  0
 12 13  1  0  0  0  0
 12 17  1  0  0  0  0
 13 14  1  0  0  0  0
 14 18  1  6  0  0  0
 14 16  1  0  0  0  0
 15 11  1  6  0  0  0
 15 16  1  0  0  0  0
 17 15  1  0  0  0  0
 18 19  1  0  0  0  0
 20 18  1  0  0  0  0
 20 19  1  0  0  0  0
 21  5  1  0  0  0  0
 21 22  1  0  0  0  0
 22 23  1  0  0  0  0
 23 24  1  0  0  0  0
 24 25  1  0  0  0  0
 24 27  1  0  0  0  0
 26 24  1  0  0  0  0
 26 25  1  0  0  0  0
 27 28  1  0  0  0  0
 28 30  1  0  0  0  0
 28 32  1  0  0  0  0
 29 28  1  0  0  0  0
 32 31  1  0  0  0  0
M  END
>  <MODEL>
3

>  <REMARK>
 VINA RESULT:      -7.9      1.190      2.067
  Name = 
  12 active torsions:
  status: ('A' for Active; 'I' for Inactive)
    1  A    between atoms: C_1  and  C_15
    2  A    between atoms: C_2  and  C_10
    3  A    between atoms: C_3  and  C_9
    4  A    between atoms: C_3  and  O_11
    5  A    between atoms: C_6  and  O_11
    6  A    between atoms: C_6  and  C_21
    7  A    between atoms: C_8  and  C_18
    8  A    between atoms: C_8  and  C_24
    9  A    between atoms: C_9  and  C_30
   10  A    between atoms: S_13  and  C_26
   11  A    between atoms: S_13  and  C_30
   12  A    between atoms: N_14  and  C_24
                            x       y       z     vdW  Elec       q    Type
                         _______ _______ _______ _____ _____    ______ ____

>  <TORSDO>
F 12

$$$$
=
 OpenBabel10232408203D

 32 35  0  0  1  0  0  0  0  0999 V2000
  185.0430  178.6190  143.7400 C   0  0  0  0  0  0  0  0  0  0  0  0
  185.6140  177.9800  146.4230 C   0  0  0  0  0  3  0  0  0  0  0  0
  186.5180  177.6440  145.4160 C   0  0  0  0  0  3  0  0  0  0  0  0
  184.4250  178.6240  146.0990 C   0  0  0  0  0  3  0  0  0  0  0  0
  186.2470  177.9520  144.0760 C   0  0  0  0  0  0  0  0  0  0  0  0
  184.1440  178.9390  144.7690 C   0  0  0  0  0  3  0  0  0  0  0  0
  183.4410  178.5190  141.8010 N   0  0  0  0  0  2  0  0  0  0  0  0
  184.6720  178.9940  142.3560 C   0  0  0  0  0  0  0  0  0  0  0  0
  185.4170  179.7350  141.6620 O   0  0  0  0  0  0  0  0  0  0  0  0
  183.1070  178.6610  140.3900 C   0  0  0  0  0  2  0  0  0  0  0  0
  183.8010  177.5940  139.5630 C   0  0  0  0  0  2  0  0  0  0  0  0
  185.1160  176.3550  137.1150 C   0  0  0  0  0  2  0  0  0  0  0  0
  186.5540  176.7950  136.8240 C   0  0  0  0  0  2  0  0  0  0  0  0
  186.8450  178.1760  137.4170 C   0  0  1  0  0  3  0  0  0  0  0  0
  184.5140  178.2010  138.3630 C   0  0  1  0  0  3  0  0  0  0  0  0
  186.0090  178.4150  138.6690 C   0  0  0  0  0  2  0  0  0  0  0  0
  184.2600  177.4720  137.1700 O   0  0  0  0  0  0  0  0  0  0  0  0
  188.3210  178.3020  137.7350 C   0  0  0  0  0  3  0  0  0  0  0  0
  188.7850  179.5360  137.3280 O   0  0  0  0  0  0  0  0  0  0  0  0
  189.0330  178.4580  136.5650 O   0  0  0  0  0  0  0  0  0  0  0  0
  187.4760  177.4650  142.8640 S   0  0  0  0  0  0  0  0  0  0  0  0
  188.6060  176.7910  144.1150 C   0  0  0  0  0  2  0  0  0  0  0  0
  189.6110  177.8510  144.5360 C   0  0  0  0  0  2  0  0  0  0  0  0
  191.0060  177.2480  144.6820 C   0  0  0  0  0  0  0  0  0  0  0  0
  191.3780  176.0280  143.8630 C   0  0  0  0  0  2  0  0  0  0  0  0
  191.8210  177.4090  143.4140 C   0  0  0  0  0  2  0  0  0  0  0  0
  191.7870  177.5540  145.8200 O   0  0  0  0  0  0  0  0  0  0  0  0
  191.5660  176.6430  146.8860 C   0  0  0  0  0  0  0  0  0  0  0  0
  192.2610  177.0220  148.0380 O   0  0  0  0  0  1  0  0  0  0  0  0
  192.0330  175.3880  146.4930 O   0  0  0  0  0  1  0  0  0  0  0  0
  189.6590  177.6080  147.9840 O   0  0  0  0  0  1  0  0  0  0  0  0
  190.0820  176.5200  147.2160 C   0  0  0  0  0  2  0  0  0  0  0  0
  1  5  2  0  0  0  0
  1  6  1  0  0  0  0
  3  2  2  0  0  0  0
  4  2  1  0  0  0  0
  5  3  1  0  0  0  0
  6  4  2  0  0  0  0
  7  8  1  0  0  0  0
  8  1  1  0  0  0  0
  9  8  2  0  0  0  0
 10  7  1  0  0  0  0
 11 10  1  0  0  0  0
 12 17  1  0  0  0  0
 13 12  1  0  0  0  0
 13 14  1  0  0  0  0
 14 18  1  1  0  0  0
 14 16  1  0  0  0  0
 15 16  1  0  0  0  0
 15 11  1  1  0  0  0
 17 15  1  0  0  0  0
 19 18  1  0  0  0  0
 20 19  1  0  0  0  0
 20 18  1  0  0  0  0
 21  5  1  0  0  0  0
 21 22  1  0  0  0  0
 22 23  1  0  0  0  0
 23 24  1  0  0  0  0
 24 27  1  0  0  0  0
 25 24  1  0  0  0  0
 26 25  1  0  0  0  0
 26 24  1  0  0  0  0
 27 28  1  0  0  0  0
 28 32  1  0  0  0  0
 28 29  1  0  0  0  0
 30 28  1  0  0  0  0
 32 31  1  0  0  0  0
M  END
>  <MODEL>
4

>  <REMARK>
 VINA RESULT:      -7.9      1.851      2.860
  Name = 
  12 active torsions:
  status: ('A' for Active; 'I' for Inactive)
    1  A    between atoms: C_1  and  C_15
    2  A    between atoms: C_2  and  C_10
    3  A    between atoms: C_3  and  C_9
    4  A    between atoms: C_3  and  O_11
    5  A    between atoms: C_6  and  O_11
    6  A    between atoms: C_6  and  C_21
    7  A    between atoms: C_8  and  C_18
    8  A    between atoms: C_8  and  C_24
    9  A    between atoms: C_9  and  C_30
   10  A    between atoms: S_13  and  C_26
   11  A    between atoms: S_13  and  C_30
   12  A    between atoms: N_14  and  C_24
                            x       y       z     vdW  Elec       q    Type
                         _______ _______ _______ _____ _____    ______ ____

>  <TORSDO>
F 12

$$$$
=
 OpenBabel10232408203D

 32 35  0  0  1  0  0  0  0  0999 V2000
  189.8800  177.4640  138.6070 C   0  0  0  0  0  0  0  0  0  0  0  0
  188.7320  178.1680  136.1330 C   0  0  0  0  0  3  0  0  0  0  0  0
  189.3740  176.9390  136.2830 C   0  0  0  0  0  3  0  0  0  0  0  0
  188.6680  179.0490  137.2070 C   0  0  0  0  0  3  0  0  0  0  0  0
  189.9530  176.5760  137.5060 C   0  0  0  0  0  0  0  0  0  0  0  0
  189.2370  178.6990  138.4320 C   0  0  0  0  0  3  0  0  0  0  0  0
  189.6240  176.5900  140.9540 N   0  0  0  0  0  2  0  0  0  0  0  0
  190.4530  177.1670  139.9410 C   0  0  0  0  0  0  0  0  0  0  0  0
  191.6630  177.4050  140.1940 O   0  0  0  0  0  0  0  0  0  0  0  0
  190.0470  176.4690  142.3430 C   0  0  0  0  0  2  0  0  0  0  0  0
  188.8500  176.2500  143.2530 C   0  0  0  0  0  2  0  0  0  0  0  0
  189.1360  177.2180  146.1230 C   0  0  0  0  0  2  0  0  0  0  0  0
  187.8550  177.7200  146.7970 C   0  0  0  0  0  2  0  0  0  0  0  0
  186.8360  178.2100  145.7660 C   0  0  1  0  0  3  0  0  0  0  0  0
  188.4400  177.5410  143.9460 C   0  0  1  0  0  3  0  0  0  0  0  0
  186.9880  177.4500  144.4530 C   0  0  0  0  0  2  0  0  0  0  0  0
  189.3810  177.9350  144.9360 O   0  0  0  0  0  0  0  0  0  0  0  0
  185.4310  178.0500  146.3090 C   0  0  0  0  0  3  0  0  0  0  0  0
  184.6770  179.1630  145.9960 O   0  0  0  0  0  0  0  0  0  0  0  0
  185.1800  179.0390  147.2360 O   0  0  0  0  0  0  0  0  0  0  0  0
  190.7600  174.9760  137.5820 S   0  0  0  0  0  0  0  0  0  0  0  0
  192.2960  175.5900  136.8320 C   0  0  0  0  0  2  0  0  0  0  0  0
  193.4360  175.5020  137.8330 C   0  0  0  0  0  2  0  0  0  0  0  0
  194.6040  174.7050  137.2560 C   0  0  0  0  0  0  0  0  0  0  0  0
  194.3430  173.3430  136.6430 C   0  0  0  0  0  2  0  0  0  0  0  0
  194.4960  174.5630  135.7520 C   0  0  0  0  0  2  0  0  0  0  0  0
  195.9270  175.0260  137.6350 O   0  0  0  0  0  0  0  0  0  0  0  0
  196.2540  174.5340  138.9260 C   0  0  0  0  0  0  0  0  0  0  0  0
  195.7270  173.2570  139.1380 O   0  0  0  0  0  1  0  0  0  0  0  0
  195.6980  175.3940  139.8740 O   0  0  0  0  0  1  0  0  0  0  0  0
  198.3770  175.5770  138.5100 O   0  0  0  0  0  1  0  0  0  0  0  0
  197.7630  174.4930  139.1420 C   0  0  0  0  0  2  0  0  0  0  0  0
  1  8  1  0  0  0  0
  2  3  2  0  0  0  0
  2  4  1  0  0  0  0
  3  5  1  0  0  0  0
  4  6  2  0  0  0  0
  5 21  1  0  0  0  0
  5  1  2  0  0  0  0
  6  1  1  0  0  0  0
  7 10  1  0  0  0  0
  8  9  2  0  0  0  0
  8  7  1  0  0  0  0
 10 11  1  0  0  0  0
 12 13  1  0  0  0  0
 14 18  1  1  0  0  0
 14 13  1  0  0  0  0
 15 11  1  1  0  0  0
 15 16  1  0  0  0  0
 15 17  1  0  0  0  0
 16 14  1  0  0  0  0
 17 12  1  0  0  0  0
 18 20  1  0  0  0  0
 19 18  1  0  0  0  0
 19 20  1  0  0  0  0
 22 21  1  0  0  0  0
 22 23  1  0  0  0  0
 24 27  1  0  0  0  0
 24 23  1  0  0  0  0
 25 24  1  0  0  0  0
 26 25  1  0  0  0  0
 26 24  1  0  0  0  0
 27 28  1  0  0  0  0
 28 29  1  0  0  0  0
 28 32  1  0  0  0  0
 28 30  1  0  0  0  0
 31 32  1  0  0  0  0
M  END
>  <MODEL>
5

>  <REMARK>
 VINA RESULT:      -7.8      3.790      9.019
  Name = 
  12 active torsions:
  status: ('A' for Active; 'I' for Inactive)
    1  A    between atoms: C_1  and  C_15
    2  A    between atoms: C_2  and  C_10
    3  A    between atoms: C_3  and  C_9
    4  A    between atoms: C_3  and  O_11
    5  A    between atoms: C_6  and  O_11
    6  A    between atoms: C_6  and  C_21
    7  A    between atoms: C_8  and  C_18
    8  A    between atoms: C_8  and  C_24
    9  A    between atoms: C_9  and  C_30
   10  A    between atoms: S_13  and  C_26
   11  A    between atoms: S_13  and  C_30
   12  A    between atoms: N_14  and  C_24
                            x       y       z     vdW  Elec       q    Type
                         _______ _______ _______ _____ _____    ______ ____

>  <TORSDO>
F 12

$$$$
=
 OpenBabel10232408203D

 32 35  0  0  1  0  0  0  0  0999 V2000
  186.6010  178.4290  141.5530 C   0  0  0  0  0  0  0  0  0  0  0  0
  184.7020  178.4360  143.6330 C   0  0  0  0  0  3  0  0  0  0  0  0
  185.9710  177.9010  143.8460 C   0  0  0  0  0  3  0  0  0  0  0  0
  184.3720  178.9590  142.3880 C   0  0  0  0  0  3  0  0  0  0  0  0
  186.9260  177.8870  142.8210 C   0  0  0  0  0  0  0  0  0  0  0  0
  185.3140  178.9540  141.3580 C   0  0  0  0  0  3  0  0  0  0  0  0
  187.0400  178.3630  139.0760 N   0  0  0  0  0  2  0  0  0  0  0  0
  187.5430  178.4670  140.4110 C   0  0  0  0  0  0  0  0  0  0  0  0
  188.7820  178.6000  140.5950 O   0  0  0  0  0  0  0  0  0  0  0  0
  187.9060  178.1760  137.9190 C   0  0  0  0  0  2  0  0  0  0  0  0
  188.1530  176.7000  137.6650 C   0  0  0  0  0  2  0  0  0  0  0  0
  190.0440  174.3400  137.3320 C   0  0  0  0  0  2  0  0  0  0  0  0
  191.5380  174.6430  137.4870 C   0  0  0  0  0  2  0  0  0  0  0  0
  191.8440  176.1100  137.1750 C   0  0  1  0  0  3  0  0  0  0  0  0
  189.3850  176.4860  136.7970 C   0  0  1  0  0  3  0  0  0  0  0  0
  190.6510  176.9960  137.5140 C   0  0  0  0  0  2  0  0  0  0  0  0
  189.4790  175.1480  136.3270 O   0  0  0  0  0  0  0  0  0  0  0  0
  193.0690  176.5580  137.9440 C   0  0  0  0  0  3  0  0  0  0  0  0
  194.1100  176.8010  137.0710 O   0  0  0  0  0  0  0  0  0  0  0  0
  194.0880  175.6480  137.7590 O   0  0  0  0  0  0  0  0  0  0  0  0
  188.5230  177.1660  143.2050 S   0  0  0  0  0  0  0  0  0  0  0  0
  188.1640  177.0390  144.9800 C   0  0  0  0  0  2  0  0  0  0  0  0
  189.0650  177.9800  145.7630 C   0  0  0  0  0  2  0  0  0  0  0  0
  189.3380  177.4310  147.1620 C   0  0  0  0  0  0  0  0  0  0  0  0
  189.0880  178.3140  148.3680 C   0  0  0  0  0  2  0  0  0  0  0  0
  188.0610  177.2720  147.9610 C   0  0  0  0  0  2  0  0  0  0  0  0
  190.1720  176.3010  147.3210 O   0  0  0  0  0  0  0  0  0  0  0  0
  191.5500  176.6270  147.2150 C   0  0  0  0  0  0  0  0  0  0  0  0
  191.9750  177.4150  148.2870 O   0  0  0  0  0  1  0  0  0  0  0  0
  191.7360  177.3580  146.0410 O   0  0  0  0  0  1  0  0  0  0  0  0
  193.3520  175.3650  148.1780 O   0  0  0  0  0  1  0  0  0  0  0  0
  192.4150  175.3730  147.1420 C   0  0  0  0  0  2  0  0  0  0  0  0
  1  5  1  0  0  0  0
  2  3  1  0  0  0  0
  4  2  2  0  0  0  0
  5 21  1  0  0  0  0
  5  3  2  0  0  0  0
  6  1  2  0  0  0  0
  6  4  1  0  0  0  0
  7  8  1  0  0  0  0
  8  9  2  0  0  0  0
  8  1  1  0  0  0  0
 10  7  1  0  0  0  0
 11 10  1  0  0  0  0
 12 13  1  0  0  0  0
 14 13  1  0  0  0  0
 14 16  1  0  0  0  0
 14 18  1  1  0  0  0
 15 16  1  0  0  0  0
 15 11  1  1  0  0  0
 17 15  1  0  0  0  0
 17 12  1  0  0  0  0
 19 20  1  0  0  0  0
 19 18  1  0  0  0  0
 20 18  1  0  0  0  0
 21 22  1  0  0  0  0
 22 23  1  0  0  0  0
 23 24  1  0  0  0  0
 24 27  1  0  0  0  0
 24 26  1  0  0  0  0
 24 25  1  0  0  0  0
 26 25  1  0  0  0  0
 28 27  1  0  0  0  0
 28 29  1  0  0  0  0
 30 28  1  0  0  0  0
 32 28  1  0  0  0  0
 32 31  1  0  0  0  0
M  END
>  <MODEL>
6

>  <REMARK>
 VINA RESULT:      -7.7      1.778      2.465
  Name = 
  12 active torsions:
  status: ('A' for Active; 'I' for Inactive)
    1  A    between atoms: C_1  and  C_15
    2  A    between atoms: C_2  and  C_10
    3  A    between atoms: C_3  and  C_9
    4  A    between atoms: C_3  and  O_11
    5  A    between atoms: C_6  and  O_11
    6  A    between atoms: C_6  and  C_21
    7  A    between atoms: C_8  and  C_18
    8  A    between atoms: C_8  and  C_24
    9  A    between atoms: C_9  and  C_30
   10  A    between atoms: S_13  and  C_26
   11  A    between atoms: S_13  and  C_30
   12  A    between atoms: N_14  and  C_24
                            x       y       z     vdW  Elec       q    Type
                         _______ _______ _______ _____ _____    ______ ____

>  <TORSDO>
F 12

$$$$
=
 OpenBabel10232408203D

 32 35  0  0  1  0  0  0  0  0999 V2000
  189.6930  177.2460  145.9280 C   0  0  0  0  0  0  0  0  0  0  0  0
  187.6060  177.8540  147.7180 C   0  0  0  0  0  3  0  0  0  0  0  0
  187.3170  177.4760  146.4080 C   0  0  0  0  0  3  0  0  0  0  0  0
  188.9290  177.9390  148.1370 C   0  0  0  0  0  3  0  0  0  0  0  0
  188.3440  177.1740  145.5040 C   0  0  0  0  0  0  0  0  0  0  0  0
  189.9620  177.6380  147.2480 C   0  0  0  0  0  3  0  0  0  0  0  0
  190.8850  177.4670  143.7220 N   0  0  0  0  0  2  0  0  0  0  0  0
  190.8470  176.9380  145.0500 C   0  0  0  0  0  0  0  0  0  0  0  0
  191.8010  176.2260  145.4590 O   0  0  0  0  0  0  0  0  0  0  0  0
  191.8660  177.0410  142.7320 C   0  0  0  0  0  2  0  0  0  0  0  0
  191.5550  177.6420  141.3720 C   0  0  0  0  0  2  0  0  0  0  0  0
  191.1500  176.6450  138.5260 C   0  0  0  0  0  2  0  0  0  0  0  0
  189.8530  177.0800  137.8360 C   0  0  0  0  0  2  0  0  0  0  0  0
  188.7580  177.3990  138.8560 C   0  0  1  0  0  3  0  0  0  0  0  0
  190.4040  176.9110  140.6940 C   0  0  1  0  0  3  0  0  0  0  0  0
  189.3640  177.9120  140.1570 C   0  0  0  0  0  2  0  0  0  0  0  0
  190.8650  175.9730  139.7310 O   0  0  0  0  0  0  0  0  0  0  0  0
  187.7980  178.4210  138.2820 C   0  0  0  0  0  3  0  0  0  0  0  0
  186.5300  178.2050  138.7820 O   0  0  0  0  0  0  0  0  0  0  0  0
  186.8270  177.7770  137.5440 O   0  0  0  0  0  0  0  0  0  0  0  0
  187.8550  176.7080  143.8420 S   0  0  0  0  0  0  0  0  0  0  0  0
  186.5450  177.9620  143.7560 C   0  0  0  0  0  2  0  0  0  0  0  0
  186.0680  178.1200  142.3210 C   0  0  0  0  0  2  0  0  0  0  0  0
  184.7120  178.8200  142.2740 C   0  0  0  0  0  0  0  0  0  0  0  0
  183.6260  178.4020  143.2460 C   0  0  0  0  0  2  0  0  0  0  0  0
  184.4610  179.6390  143.5230 C   0  0  0  0  0  2  0  0  0  0  0  0
  184.3340  179.5400  141.1180 O   0  0  0  0  0  0  0  0  0  0  0  0
  183.3230  178.8770  140.3740 C   0  0  0  0  0  0  0  0  0  0  0  0
  182.0710  179.0040  140.9810 O   0  0  0  0  0  1  0  0  0  0  0  0
  183.6410  177.5190  140.3210 O   0  0  0  0  0  1  0  0  0  0  0  0
  183.8750  180.6480  138.8490 O   0  0  0  0  0  1  0  0  0  0  0  0
  183.2430  179.4060  138.9460 C   0  0  0  0  0  2  0  0  0  0  0  0
  1  6  1  0  0  0  0
  2  4  1  0  0  0  0
  3  2  2  0  0  0  0
  5  1  2  0  0  0  0
  5  3  1  0  0  0  0
  6  4  2  0  0  0  0
  7  8  1  0  0  0  0
  8  9  2  0  0  0  0
  8  1  1  0  0  0  0
 10  7  1  0  0  0  0
 11 10  1  0  0  0  0
 12 17  1  0  0  0  0
 13 12  1  0  0  0  0
 13 14  1  0  0  0  0
 14 18  1  6  0  0  0
 14 16  1  0  0  0  0
 15 11  1  6  0  0  0
 16 15  1  0  0  0  0
 17 15  1  0  0  0  0
 18 19  1  0  0  0  0
 20 18  1  0  0  0  0
 20 19  1  0  0  0  0
 21  5  1  0  0  0  0
 22 21  1  0  0  0  0
 23 22  1  0  0  0  0
 24 23  1  0  0  0  0
 24 25  1  0  0  0  0
 24 26  1  0  0  0  0
 25 26  1  0  0  0  0
 27 24  1  0  0  0  0
 28 29  1  0  0  0  0
 28 27  1  0  0  0  0
 30 28  1  0  0  0  0
 31 32  1  0  0  0  0
 32 28  1  0  0  0  0
M  END
>  <MODEL>
7

>  <REMARK>
 VINA RESULT:      -7.6      1.999      6.860
  Name = 
  12 active torsions:
  status: ('A' for Active; 'I' for Inactive)
    1  A    between atoms: C_1  and  C_15
    2  A    between atoms: C_2  and  C_10
    3  A    between atoms: C_3  and  C_9
    4  A    between atoms: C_3  and  O_11
    5  A    between atoms: C_6  and  O_11
    6  A    between atoms: C_6  and  C_21
    7  A    between atoms: C_8  and  C_18
    8  A    between atoms: C_8  and  C_24
    9  A    between atoms: C_9  and  C_30
   10  A    between atoms: S_13  and  C_26
   11  A    between atoms: S_13  and  C_30
   12  A    between atoms: N_14  and  C_24
                            x       y       z     vdW  Elec       q    Type
                         _______ _______ _______ _____ _____    ______ ____

>  <TORSDO>
F 12

$$$$
=
 OpenBabel10232408203D

 32 35  0  0  1  0  0  0  0  0999 V2000
  184.6950  178.4410  143.0890 C   0  0  0  0  0  0  0  0  0  0  0  0
  184.9070  178.6090  145.8920 C   0  0  0  0  0  3  0  0  0  0  0  0
  186.0090  178.2280  145.1280 C   0  0  0  0  0  3  0  0  0  0  0  0
  183.6990  178.8980  145.2670 C   0  0  0  0  0  3  0  0  0  0  0  0
  185.9190  178.1360  143.7330 C   0  0  0  0  0  0  0  0  0  0  0  0
  183.5960  178.8130  143.8770 C   0  0  0  0  0  3  0  0  0  0  0  0
  185.2840  179.2250  140.7710 N   0  0  0  0  0  2  0  0  0  0  0  0
  184.5030  178.3810  141.6210 C   0  0  0  0  0  0  0  0  0  0  0  0
  183.6690  177.5890  141.1070 O   0  0  0  0  0  0  0  0  0  0  0  0
  185.0080  179.3830  139.3490 C   0  0  0  0  0  2  0  0  0  0  0  0
  185.5420  178.2000  138.5620 C   0  0  0  0  0  2  0  0  0  0  0  0
  187.4530  176.5810  136.8340 C   0  0  0  0  0  2  0  0  0  0  0  0
  188.8050  176.2320  137.4650 C   0  0  0  0  0  2  0  0  0  0  0  0
  189.1870  177.2360  138.5550 C   0  0  1  0  0  3  0  0  0  0  0  0
  186.9970  178.4100  138.1650 C   0  0  1  0  0  3  0  0  0  0  0  0
  187.9430  177.8090  139.2230 C   0  0  0  0  0  2  0  0  0  0  0  0
  187.2530  177.9750  136.8370 O   0  0  0  0  0  0  0  0  0  0  0  0
  190.0780  176.5690  139.5830 C   0  0  0  0  0  3  0  0  0  0  0  0
  191.3120  177.1850  139.6050 O   0  0  0  0  0  0  0  0  0  0  0  0
  191.1740  176.0180  138.9550 O   0  0  0  0  0  0  0  0  0  0  0  0
  187.3970  177.6270  142.8530 S   0  0  0  0  0  0  0  0  0  0  0  0
  188.2800  177.1710  144.3720 C   0  0  0  0  0  2  0  0  0  0  0  0
  189.4490  178.1140  144.6000 C   0  0  0  0  0  2  0  0  0  0  0  0
  190.7730  177.3530  144.5780 C   0  0  0  0  0  0  0  0  0  0  0  0
  190.9140  176.1330  143.6900 C   0  0  0  0  0  2  0  0  0  0  0  0
  191.4660  177.4730  143.2360 C   0  0  0  0  0  2  0  0  0  0  0  0
  191.6960  177.5230  145.6350 O   0  0  0  0  0  0  0  0  0  0  0  0
  191.4970  176.5850  146.6820 C   0  0  0  0  0  0  0  0  0  0  0  0
  192.2420  176.9170  147.8170 O   0  0  0  0  0  1  0  0  0  0  0  0
  191.9250  175.3340  146.2350 O   0  0  0  0  0  1  0  0  0  0  0  0
  189.6860  177.4740  147.9850 O   0  0  0  0  0  1  0  0  0  0  0  0
  190.0240  176.4800  147.0640 C   0  0  0  0  0  2  0  0  0  0  0  0
  1  5  2  0  0  0  0
  1  6  1  0  0  0  0
  3  2  2  0  0  0  0
  4  2  1  0  0  0  0
  5  3  1  0  0  0  0
  6  4  2  0  0  0  0
  7  8  1  0  0  0  0
  8  1  1  0  0  0  0
  9  8  2  0  0  0  0
 10  7  1  0  0  0  0
 11 10  1  0  0  0  0
 12 17  1  0  0  0  0
 12 13  1  0  0  0  0
 13 14  1  0  0  0  0
 14 16  1  0  0  0  0
 14 18  1  1  0  0  0
 15 11  1  1  0  0  0
 15 16  1  0  0  0  0
 17 15  1  0  0  0  0
 18 19  1  0  0  0  0
 20 18  1  0  0  0  0
 20 19  1  0  0  0  0
 21  5  1  0  0  0  0
 21 22  1  0  0  0  0
 22 23  1  0  0  0  0
 24 23  1  0  0  0  0
 24 27  1  0  0  0  0
 25 24  1  0  0  0  0
 26 25  1  0  0  0  0
 26 24  1  0  0  0  0
 27 28  1  0  0  0  0
 28 32  1  0  0  0  0
 28 29  1  0  0  0  0
 30 28  1  0  0  0  0
 32 31  1  0  0  0  0
M  END
>  <MODEL>
8

>  <REMARK>
 VINA RESULT:      -7.6      1.252      1.861
  Name = 
  12 active torsions:
  status: ('A' for Active; 'I' for Inactive)
    1  A    between atoms: C_1  and  C_15
    2  A    between atoms: C_2  and  C_10
    3  A    between atoms: C_3  and  C_9
    4  A    between atoms: C_3  and  O_11
    5  A    between atoms: C_6  and  O_11
    6  A    between atoms: C_6  and  C_21
    7  A    between atoms: C_8  and  C_18
    8  A    between atoms: C_8  and  C_24
    9  A    between atoms: C_9  and  C_30
   10  A    between atoms: S_13  and  C_26
   11  A    between atoms: S_13  and  C_30
   12  A    between atoms: N_14  and  C_24
                            x       y       z     vdW  Elec       q    Type
                         _______ _______ _______ _____ _____    ______ ____

>  <TORSDO>
F 12

$$$$
=
 OpenBabel10232408203D

 32 35  0  0  1  0  0  0  0  0999 V2000
  188.8430  177.2190  138.6050 C   0  0  0  0  0  0  0  0  0  0  0  0
  191.5620  176.8640  139.2500 C   0  0  0  0  0  3  0  0  0  0  0  0
  190.6700  177.3360  140.2120 C   0  0  0  0  0  3  0  0  0  0  0  0
  191.1070  176.5760  137.9680 C   0  0  0  0  0  3  0  0  0  0  0  0
  189.3160  177.5220  139.9060 C   0  0  0  0  0  0  0  0  0  0  0  0
  189.7590  176.7530  137.6500 C   0  0  0  0  0  3  0  0  0  0  0  0
  186.6330  178.4130  138.7640 N   0  0  0  0  0  2  0  0  0  0  0  0
  187.4300  177.3740  138.1880 C   0  0  0  0  0  0  0  0  0  0  0  0
  186.9200  176.6100  137.3260 O   0  0  0  0  0  0  0  0  0  0  0  0
  185.1910  178.4980  138.5720 C   0  0  0  0  0  2  0  0  0  0  0  0
  184.5370  179.2350  139.7280 C   0  0  0  0  0  2  0  0  0  0  0  0
  182.2410  178.7500  141.6640 C   0  0  0  0  0  2  0  0  0  0  0  0
  182.5700  178.8940  143.1530 C   0  0  0  0  0  2  0  0  0  0  0  0
  184.0580  178.6520  143.4210 C   0  0  1  0  0  3  0  0  0  0  0  0
  184.3960  178.3370  140.9480 C   0  0  1  0  0  3  0  0  0  0  0  0
  184.8980  179.0560  142.2150 C   0  0  0  0  0  2  0  0  0  0  0  0
  183.0860  177.7980  141.0620 O   0  0  0  0  0  0  0  0  0  0  0  0
  184.4940  179.4220  144.6500 C   0  0  0  0  0  3  0  0  0  0  0  0
  185.0220  178.5550  145.5850 O   0  0  0  0  0  0  0  0  0  0  0  0
  183.7640  179.0010  145.7420 O   0  0  0  0  0  0  0  0  0  0  0  0
  188.2620  178.1430  141.2180 S   0  0  0  0  0  0  0  0  0  0  0  0
  188.9650  177.0250  142.4640 C   0  0  0  0  0  2  0  0  0  0  0  0
  188.6460  177.5330  143.8600 C   0  0  0  0  0  2  0  0  0  0  0  0
  189.9250  177.8990  144.6100 C   0  0  0  0  0  0  0  0  0  0  0  0
  191.2490  177.3250  144.1450 C   0  0  0  0  0  2  0  0  0  0  0  0
  190.8540  178.7380  143.7550 C   0  0  0  0  0  2  0  0  0  0  0  0
  189.8450  178.4200  145.9210 O   0  0  0  0  0  0  0  0  0  0  0  0
  189.4150  177.4480  146.8620 C   0  0  0  0  0  0  0  0  0  0  0  0
  190.4080  176.4970  147.1100 O   0  0  0  0  0  1  0  0  0  0  0  0
  188.3070  176.7860  146.3310 O   0  0  0  0  0  1  0  0  0  0  0  0
  187.6590  178.4810  148.1360 O   0  0  0  0  0  1  0  0  0  0  0  0
  189.0010  178.0930  148.1810 C   0  0  0  0  0  2  0  0  0  0  0  0
  1  5  1  0  0  0  0
  2  3  1  0  0  0  0
  4  2  2  0  0  0  0
  5  3  2  0  0  0  0
  5 21  1  0  0  0  0
  6  4  1  0  0  0  0
  6  1  2  0  0  0  0
  8  1  1  0  0  0  0
  8  7  1  0  0  0  0
  9  8  2  0  0  0  0
 10  7  1  0  0  0  0
 10 11  1  0  0  0  0
 12 13  1  0  0  0  0
 13 14  1  0  0  0  0
 14 18  1  1  0  0  0
 15 11  1  6  0  0  0
 15 17  1  0  0  0  0
 15 16  1  0  0  0  0
 16 14  1  0  0  0  0
 17 12  1  0  0  0  0
 18 19  1  0  0  0  0
 18 20  1  0  0  0  0
 19 20  1  0  0  0  0
 21 22  1  0  0  0  0
 22 23  1  0  0  0  0
 23 24  1  0  0  0  0
 24 27  1  0  0  0  0
 25 24  1  0  0  0  0
 26 25  1  0  0  0  0
 26 24  1  0  0  0  0
 27 28  1  0  0  0  0
 28 29  1  0  0  0  0
 28 32  1  0  0  0  0
 30 28  1  0  0  0  0
 31 32  1  0  0  0  0
M  END
>  <MODEL>
9

>  <REMARK>
 VINA RESULT:      -7.5      2.074      6.057
  Name = 
  12 active torsions:
  status: ('A' for Active; 'I' for Inactive)
    1  A    between atoms: C_1  and  C_15
    2  A    between atoms: C_2  and  C_10
    3  A    between atoms: C_3  and  C_9
    4  A    between atoms: C_3  and  O_11
    5  A    between atoms: C_6  and  O_11
    6  A    between atoms: C_6  and  C_21
    7  A    between atoms: C_8  and  C_18
    8  A    between atoms: C_8  and  C_24
    9  A    between atoms: C_9  and  C_30
   10  A    between atoms: S_13  and  C_26
   11  A    between atoms: S_13  and  C_30
   12  A    between atoms: N_14  and  C_24
                            x       y       z     vdW  Elec       q    Type
                         _______ _______ _______ _____ _____    ______ ____

>  <TORSDO>
F 12

$$$$
