=
 OpenBabel10232409313D

 53 56  0  0  1  0  0  0  0  0999 V2000
  186.9640  175.0830  134.9540 C   0  0  0  0  0  2  0  0  0  0  0  0
  186.8520  176.2860  135.8880 C   0  0  2  0  0  3  0  0  0  0  0  0
  184.1970  179.3720  139.3260 C   0  0  0  0  0  2  0  0  0  0  0  0
  185.5350  176.3290  136.5610 N   0  0  2  0  0  0  0  0  0  0  0  0
  181.3270  174.5640  135.7580 C   0  0  0  0  0  3  0  0  0  0  0  0
  182.2900  177.8320  139.8890 C   0  0  2  0  0  3  0  0  0  0  0  0
  187.5860  178.5100  140.7880 C   0  0  0  0  0  0  0  0  0  0  0  0
  182.9510  175.8020  138.7420 C   0  0  0  0  0  0  0  0  0  0  0  0
  188.1290  177.6960  139.7870 C   0  0  0  0  0  3  0  0  0  0  0  0
  185.2870  177.6270  137.2240 C   0  0  0  0  0  2  0  0  0  0  0  0
  185.4280  175.2450  137.5430 C   0  0  0  0  0  2  0  0  0  0  0  0
  182.9820  176.5150  139.8340 C   0  0  0  0  0  3  0  0  0  0  0  0
  187.1970  173.7990  135.7330 C   0  0  1  0  0  3  0  0  0  0  0  0
  185.7280  171.7990  136.7750 O   0  0  0  0  0  0  0  0  0  0  0  0
  183.1590  172.9790  135.5230 C   0  0  0  0  0  2  0  0  0  0  0  0
  184.2860  173.8410  135.8560 N   0  0  1  0  0  0  0  0  0  0  0  0
  184.2090  174.3430  137.2520 C   0  0  2  0  0  3  0  0  0  0  0  0
  185.6960  172.8230  135.6740 S   0  0  0  0  0  0  0  0  0  0  0  0
  186.3030  179.0350  140.6260 C   0  0  0  0  0  3  0  0  0  0  0  0
  187.3840  177.4010  138.6430 C   0  0  0  0  0  3  0  0  0  0  0  0
  182.9050  175.0640  137.6530 C   0  0  0  0  0  0  0  0  0  0  0  0
  181.5350  174.5290  137.2430 C   0  0  1  0  0  3  0  0  0  0  0  0
  185.5440  178.7360  139.4860 C   0  0  0  0  0  0  0  0  0  0  0  0
  186.0800  177.8960  138.4880 C   0  0  0  0  0  0  0  0  0  0  0  0
  185.6370  172.1150  134.3470 O   0  0  0  0  0  0  0  0  0  0  0  0
  182.0680  173.8140  134.9490 C   0  0  0  0  0  3  0  0  0  0  0  0
  183.2300  178.9080  140.4070 C   0  0  0  0  0  2  0  0  0  0  0  0
  188.3200  178.0240  134.9880 C   0  0  0  0  0  2  0  0  0  0  0  0
  186.0620  178.1070  134.3500 O   0  0  0  0  0  1  0  0  0  0  0  0
  187.1000  177.5140  135.0600 C   0  0  0  0  0  0  0  0  0  0  0  0
  180.0060  176.5130  137.2280 C   0  0  0  0  0  1  0  0  0  0  0  0
  180.3480  175.2110  137.9290 C   0  0  0  0  0  2  0  0  0  0  0  0
  188.4390  171.7440  135.7280 O   0  0  0  0  0  1  0  0  0  0  0  0
  188.4050  173.0300  135.1850 C   0  0  2  0  0  3  0  0  0  0  0  0
  189.8830  174.5200  137.2280 C   0  0  0  0  0  1  0  0  0  0  0  0
  191.0890  172.8950  135.4660 O   0  0  0  0  0  0  0  0  0  0  0  0
  189.9420  173.8610  135.5770 S   0  0  0  0  0  0  0  0  0  0  0  0
  190.1560  174.9940  134.6140 O   0  0  0  0  0  0  0  0  0  0  0  0
  180.2270  177.6540  141.4980 N   0  0  0  0  0  0  0  0  0  0  0  0
  181.1380  177.7330  140.7880 C   0  0  0  0  0  0  0  0  0  0  0  0
  188.3270  178.8260  141.9680 N   0  0  0  0  0  2  0  0  0  0  0  0
  189.5720  178.1540  142.3230 C   0  0  0  0  0  2  0  0  0  0  0  0
  189.4000  177.2950  143.5790 C   0  0  1  0  0  0  0  0  0  0  0  0
  189.5720  175.8250  143.1750 C   0  0  0  0  0  1  0  0  0  0  0  0
  191.1880  178.8060  144.1460 F   0  0  0  0  0  0  0  0  0  0  0  0
  190.4780  177.7120  144.6110 C   0  0  2  0  0  3  0  0  0  0  0  0
  191.4560  176.5950  144.9690 C   0  0  0  0  0  2  0  0  0  0  0  0
  191.4180  176.3170  146.4580 C   0  0  0  0  0  1  0  0  0  0  0  0
  188.0950  177.5320  144.0870 O   0  0  0  0  0  0  0  0  0  0  0  0
  188.1650  177.9950  145.4160 C   0  0  0  0  0  2  0  0  0  0  0  0
  186.0910  176.9020  145.8460 O   0  0  0  0  0  1  0  0  0  0  0  0
  186.7690  178.1120  145.9960 C   0  0  1  0  0  3  0  0  0  0  0  0
  186.8630  178.4570  147.4680 C   0  0  0  0  0  1  0  0  0  0  0  0
  1 13  1  0  0  0  0
  1  2  1  0  0  0  0
  2 30  1  6  0  0  0
  2  4  1  0  0  0  0
  3 23  1  0  0  0  0
  3 27  1  0  0  0  0
  4 10  1  1  0  0  0
  4 11  1  0  0  0  0
  5 22  1  0  0  0  0
  6 27  1  0  0  0  0
  6 40  1  1  0  0  0
  7 41  1  0  0  0  0
  8 12  2  0  0  0  0
  9  7  2  0  0  0  0
 10 24  1  0  0  0  0
 12  6  1  0  0  0  0
 13 34  1  6  0  0  0
 16 15  1  1  0  0  0
 16 17  1  0  0  0  0
 17 11  1  6  0  0  0
 17 21  1  0  0  0  0
 18 13  1  0  0  0  0
 18 16  1  0  0  0  0
 18 14  2  0  0  0  0
 19  7  1  0  0  0  0
 20  9  1  0  0  0  0
 21  8  2  0  0  0  0
 22 21  1  0  0  0  0
 22 32  1  1  0  0  0
 23 19  2  0  0  0  0
 24 20  2  0  0  0  0
 24 23  1  0  0  0  0
 25 18  2  0  0  0  0
 26 15  1  0  0  0  0
 26  5  2  0  0  0  0
 28 30  2  0  0  0  0
 29 30  1  0  0  0  0
 31 32  1  0  0  0  0
 34 37  1  0  0  0  0
 34 33  1  1  0  0  0
 36 37  2  0  0  0  0
 37 35  1  0  0  0  0
 38 37  2  0  0  0  0
 40 39  3  0  0  0  0
 41 42  1  0  0  0  0
 42 43  1  0  0  0  0
 43 44  1  6  0  0  0
 43 49  1  0  0  0  0
 43 46  1  0  0  0  0
 46 45  1  6  0  0  0
 46 47  1  0  0  0  0
 47 48  1  0  0  0  0
 49 50  1  0  0  0  0
 50 52  1  0  0  0  0
 51 52  1  0  0  0  0
 52 53  1  1  0  0  0
M  END
>  <MODEL>
1

>  <REMARK>
 VINA RESULT:      -6.3      0.000      0.000
  Name = 
  13 active torsions:
  status: ('A' for Active; 'I' for Inactive)
    1  A    between atoms: C_3  and  C_38
    2  A    between atoms: C_6  and  C_43
    3  A    between atoms: C_8  and  C_38
    4  A    between atoms: C_8  and  C_42
    5  A    between atoms: C_8  and  O_49
    6  A    between atoms: C_9  and  C_27
    7  A    between atoms: C_9  and  S_28
    8  A    between atoms: C_15  and  C_44
    9  A    between atoms: C_16  and  O_49
   10  A    between atoms: C_16  and  C_50
   11  A    between atoms: N_17  and  C_19
   12  A    between atoms: N_17  and  C_42
   13  A    between atoms: C_31  and  C_41
                            x       y       z     vdW  Elec       q    Type
                         _______ _______ _______ _____ _____    ______ ____

>  <TORSDO>
F 13

$$$$
=
 OpenBabel10232409313D

 53 56  0  0  1  0  0  0  0  0999 V2000
  188.5600  176.2000  135.9740 C   0  0  0  0  0  2  0  0  0  0  0  0
  188.1510  177.1480  137.1000 C   0  0  2  0  0  3  0  0  0  0  0  0
  184.5480  179.3910  140.3210 C   0  0  0  0  0  2  0  0  0  0  0  0
  186.7020  177.0630  137.3820 N   0  0  2  0  0  0  0  0  0  0  0  0
  182.9390  175.6480  135.0790 C   0  0  0  0  0  3  0  0  0  0  0  0
  182.6240  177.8100  139.9680 C   0  0  2  0  0  3  0  0  0  0  0  0
  187.4530  178.1180  142.3970 C   0  0  0  0  0  0  0  0  0  0  0  0
  183.6520  176.0960  138.5960 C   0  0  0  0  0  0  0  0  0  0  0  0
  188.2770  177.5530  141.4170 C   0  0  0  0  0  3  0  0  0  0  0  0
  186.2320  178.1700  138.2420 C   0  0  0  0  0  2  0  0  0  0  0  0
  186.3790  175.7780  138.0140 C   0  0  0  0  0  2  0  0  0  0  0  0
  183.3590  176.5260  139.7920 C   0  0  0  0  0  3  0  0  0  0  0  0
  188.6270  174.7630  136.4600 C   0  0  1  0  0  3  0  0  0  0  0  0
  187.0150  172.6090  136.5630 O   0  0  0  0  0  0  0  0  0  0  0  0
  184.8300  174.1190  134.9790 C   0  0  0  0  0  2  0  0  0  0  0  0
  185.7900  174.8480  135.7980 N   0  0  1  0  0  0  0  0  0  0  0  0
  185.3210  175.0030  137.1990 C   0  0  2  0  0  3  0  0  0  0  0  0
  187.2380  173.8670  135.7680 S   0  0  0  0  0  0  0  0  0  0  0  0
  186.2400  178.6990  142.0240 C   0  0  0  0  0  3  0  0  0  0  0  0
  187.8800  177.5590  140.0790 C   0  0  0  0  0  3  0  0  0  0  0  0
  183.9290  175.6410  137.3910 C   0  0  0  0  0  0  0  0  0  0  0  0
  182.7430  175.2540  136.5130 C   0  0  1  0  0  3  0  0  0  0  0  0
  185.8270  178.7000  140.6840 C   0  0  0  0  0  0  0  0  0  0  0  0
  186.6450  178.1100  139.6990 C   0  0  0  0  0  0  0  0  0  0  0  0
  187.5660  173.4980  134.3460 O   0  0  0  0  0  0  0  0  0  0  0  0
  183.9000  175.0940  134.3460 C   0  0  0  0  0  3  0  0  0  0  0  0
  183.3470  178.7070  140.9600 C   0  0  0  0  0  2  0  0  0  0  0  0
  188.2590  178.9730  135.4730 C   0  0  0  0  0  2  0  0  0  0  0  0
  189.2410  179.3610  137.5690 O   0  0  0  0  0  1  0  0  0  0  0  0
  188.5620  178.5310  136.6840 C   0  0  0  0  0  0  0  0  0  0  0  0
  180.5570  174.6570  137.5800 C   0  0  0  0  0  1  0  0  0  0  0  0
  181.3880  175.7830  136.9930 C   0  0  0  0  0  2  0  0  0  0  0  0
  189.8900  172.7300  136.2490 O   0  0  0  0  0  1  0  0  0  0  0  0
  189.9680  174.1160  136.0930 C   0  0  2  0  0  3  0  0  0  0  0  0
  191.9720  176.2260  136.4240 C   0  0  0  0  0  1  0  0  0  0  0  0
  190.7820  175.0210  138.5050 O   0  0  0  0  0  0  0  0  0  0  0  0
  191.2960  174.7360  137.1210 S   0  0  0  0  0  0  0  0  0  0  0  0
  192.3870  173.7050  137.2020 O   0  0  0  0  0  0  0  0  0  0  0  0
  180.2160  177.3020  140.8700 N   0  0  0  0  0  0  0  0  0  0  0  0
  181.2790  177.5270  140.4730 C   0  0  0  0  0  0  0  0  0  0  0  0
  187.8370  178.1250  143.7740 N   0  0  0  0  0  2  0  0  0  0  0  0
  189.0160  177.4230  144.2690 C   0  0  0  0  0  2  0  0  0  0  0  0
  189.2100  177.6540  145.7690 C   0  0  1  0  0  0  0  0  0  0  0  0
  189.9250  178.9990  145.9540 C   0  0  0  0  0  1  0  0  0  0  0  0
  186.9750  178.5530  145.7850 F   0  0  0  0  0  0  0  0  0  0  0  0
  187.8160  177.6760  146.4480 C   0  0  2  0  0  3  0  0  0  0  0  0
  187.8560  178.0430  147.9300 C   0  0  0  0  0  2  0  0  0  0  0  0
  186.6380  178.8650  148.3020 C   0  0  0  0  0  1  0  0  0  0  0  0
  190.0000  176.5870  146.2720 O   0  0  0  0  0  0  0  0  0  0  0  0
  191.2080  177.0810  146.8030 C   0  0  0  0  0  2  0  0  0  0  0  0
  192.8290  176.3450  148.3890 O   0  0  0  0  0  1  0  0  0  0  0  0
  192.0620  175.9300  147.3010 C   0  0  1  0  0  3  0  0  0  0  0  0
  191.1660  174.7850  147.7250 C   0  0  0  0  0  1  0  0  0  0  0  0
  1 13  1  0  0  0  0
  1  2  1  0  0  0  0
  2 30  1  6  0  0  0
  2  4  1  0  0  0  0
  3 23  1  0  0  0  0
  3 27  1  0  0  0  0
  4 11  1  1  0  0  0
  4 10  1  0  0  0  0
  5 22  1  0  0  0  0
  6 40  1  1  0  0  0
  6 27  1  0  0  0  0
  7 41  1  0  0  0  0
  8 12  2  0  0  0  0
  9  7  2  0  0  0  0
 10 24  1  0  0  0  0
 12  6  1  0  0  0  0
 13 34  1  6  0  0  0
 16 15  1  6  0  0  0
 16 17  1  0  0  0  0
 17 21  1  0  0  0  0
 17 11  1  1  0  0  0
 18 16  1  0  0  0  0
 18 13  1  0  0  0  0
 18 14  2  0  0  0  0
 19  7  1  0  0  0  0
 20  9  1  0  0  0  0
 21  8  2  0  0  0  0
 22 32  1  1  0  0  0
 22 21  1  0  0  0  0
 23 19  2  0  0  0  0
 24 20  2  0  0  0  0
 24 23  1  0  0  0  0
 25 18  2  0  0  0  0
 26 15  1  0  0  0  0
 26  5  2  0  0  0  0
 28 30  2  0  0  0  0
 30 29  1  0  0  0  0
 32 31  1  0  0  0  0
 34 33  1  1  0  0  0
 34 37  1  0  0  0  0
 35 37  1  0  0  0  0
 37 38  2  0  0  0  0
 37 36  2  0  0  0  0
 40 39  3  0  0  0  0
 41 42  1  0  0  0  0
 42 43  1  0  0  0  0
 43 44  1  1  0  0  0
 43 49  1  0  0  0  0
 43 46  1  0  0  0  0
 46 45  1  6  0  0  0
 46 47  1  0  0  0  0
 47 48  1  0  0  0  0
 49 50  1  0  0  0  0
 50 52  1  0  0  0  0
 52 53  1  1  0  0  0
 52 51  1  0  0  0  0
M  END
>  <MODEL>
2

>  <REMARK>
 VINA RESULT:      -3.5      1.995      2.785
  Name = 
  13 active torsions:
  status: ('A' for Active; 'I' for Inactive)
    1  A    between atoms: C_3  and  C_38
    2  A    between atoms: C_6  and  C_43
    3  A    between atoms: C_8  and  C_38
    4  A    between atoms: C_8  and  C_42
    5  A    between atoms: C_8  and  O_49
    6  A    between atoms: C_9  and  C_27
    7  A    between atoms: C_9  and  S_28
    8  A    between atoms: C_15  and  C_44
    9  A    between atoms: C_16  and  O_49
   10  A    between atoms: C_16  and  C_50
   11  A    between atoms: N_17  and  C_19
   12  A    between atoms: N_17  and  C_42
   13  A    between atoms: C_31  and  C_41
                            x       y       z     vdW  Elec       q    Type
                         _______ _______ _______ _____ _____    ______ ____

>  <TORSDO>
F 13

$$$$
