=
 OpenBabel10232410073D

 65 71  0  0  1  0  0  0  0  0999 V2000
  190.1780  177.2210  147.1940 C   0  0  0  0  0  3  0  0  0  0  0  0
  188.9130  177.4590  145.2080 C   0  0  0  0  0  0  0  0  0  0  0  0
  187.6240  177.6240  147.2650 C   0  0  0  0  0  0  0  0  0  0  0  0
  187.5720  177.5830  148.6520 O   0  0  0  0  0  1  0  0  0  0  0  0
  190.3000  177.2630  144.7080 C   0  0  1  0  0  3  0  0  0  0  0  0
  188.8470  177.4360  146.5850 C   0  0  0  0  0  0  0  0  0  0  0  0
  186.5550  177.8940  145.1250 C   0  0  0  0  0  0  0  0  0  0  0  0
  186.3100  178.0250  142.9670 C   0  0  0  0  0  0  0  0  0  0  0  0
  187.5900  177.7820  143.1900 O   0  0  0  0  0  0  0  0  0  0  0  0
  186.4480  177.8590  146.5200 C   0  0  0  0  0  3  0  0  0  0  0  0
  185.5890  178.1060  144.1670 C   0  0  0  0  0  3  0  0  0  0  0  0
  187.7490  177.7020  144.4840 C   0  0  0  0  0  0  0  0  0  0  0  0
  191.1420  177.2060  145.9970 C   0  0  0  0  0  3  0  0  0  0  0  0
  185.7370  178.1480  141.5820 C   0  0  2  0  0  3  0  0  0  0  0  0
  186.8420  178.4360  140.5780 C   0  0  0  0  0  1  0  0  0  0  0  0
  184.6610  179.2250  141.4780 C   0  0  0  0  0  2  0  0  0  0  0  0
  183.5800  179.1380  139.2140 C   0  0  0  0  0  0  0  0  0  0  0  0
  183.5780  178.7710  140.6020 N   0  0  0  0  0  0  0  0  0  0  0  0
  182.6000  178.5880  138.3290 N   0  0  0  0  0  2  0  0  0  0  0  0
  184.4450  179.9430  138.7710 O   0  0  0  0  0  0  0  0  0  0  0  0
  183.6020  175.9020  137.2260 C   0  0  0  0  0  2  0  0  0  0  0  0
  183.0030  177.8350  135.9880 C   0  0  0  0  0  2  0  0  0  0  0  0
  183.3220  174.4310  137.5800 C   0  0  1  0  0  3  0  0  0  0  0  0
  180.8540  174.8660  137.1260 C   0  0  1  0  0  3  0  0  0  0  0  0
  182.4990  178.9530  136.9190 C   0  0  1  0  0  3  0  0  0  0  0  0
  182.5920  176.4570  136.3210 N   0  0  2  0  0  0  0  0  0  0  0  0
  179.9820  178.4400  136.8860 C   0  0  0  0  0  2  0  0  0  0  0  0
  181.2670  176.3340  136.9600 C   0  0  1  0  0  3  0  0  0  0  0  0
  181.0930  179.4290  136.5350 C   0  0  0  0  0  2  0  0  0  0  0  0
  180.1830  177.0930  136.2120 C   0  0  0  0  0  2  0  0  0  0  0  0
  181.7240  172.6290  137.4060 O   0  0  0  0  0  1  0  0  0  0  0  0
  182.0380  173.9020  136.9240 C   0  0  2  0  0  3  0  0  0  0  0  0
  180.2860  174.6930  138.3920 O   0  0  0  0  0  1  0  0  0  0  0  0
  184.4990  173.5820  137.2190 C   0  0  0  0  0  0  0  0  0  0  0  0
  185.7710  172.2470  135.4990 C   0  0  0  0  0  1  0  0  0  0  0  0
  184.6480  173.0850  135.8860 N   0  0  0  0  0  2  0  0  0  0  0  0
  185.3400  173.2840  138.1090 O   0  0  0  0  0  0  0  0  0  0  0  0
  181.3020  178.3930  141.3490 C   0  0  0  0  0  2  0  0  0  0  0  0
  182.5220  177.9330  141.0990 C   0  0  0  0  0  3  0  0  0  0  0  0
  191.7770  175.4850  144.0350 O   0  0  0  0  0  1  0  0  0  0  0  0
  190.4800  175.9760  143.8880 C   0  0  2  0  0  3  0  0  0  0  0  0
  190.1410  176.1500  142.4090 C   0  0  0  0  0  2  0  0  0  0  0  0
  191.2450  176.9060  141.6860 C   0  0  0  0  0  2  0  0  0  0  0  0
  191.0280  176.9220  140.1720 C   0  0  0  0  0  2  0  0  0  0  0  0
  192.2650  176.5500  139.3510 C   0  0  2  0  0  3  0  0  0  0  0  0
  193.4850  177.3370  139.7960 C   0  0  0  0  0  1  0  0  0  0  0  0
  192.0310  176.7310  137.9260 N   0  0  0  0  0  2  0  0  0  0  0  0
  191.4170  172.3260  134.5450 C   0  0  0  0  0  1  0  0  0  0  0  0
  189.7770  176.3330  136.5460 F   0  0  0  0  0  0  0  0  0  0  0  0
  191.8570  175.4110  137.3380 C   0  0  2  0  0  3  0  0  0  0  0  0
  192.6840  175.2710  136.2050 O   0  0  0  0  0  0  0  0  0  0  0  0
  190.3900  175.1630  136.9610 C   0  0  2  0  0  3  0  0  0  0  0  0
  190.2720  174.1260  135.8410 C   0  0  1  0  0  3  0  0  0  0  0  0
  191.4580  173.1540  135.8150 C   0  0  2  0  0  3  0  0  0  0  0  0
  189.0750  173.4240  135.9800 O   0  0  0  0  0  1  0  0  0  0  0  0
  192.8190  173.8860  135.9200 C   0  0  2  0  0  3  0  0  0  0  0  0
  197.3200  172.9600  136.2500 C   0  0  0  0  0  1  0  0  0  0  0  0
  194.8110  171.9570  134.9590 C   0  0  0  0  0  2  0  0  0  0  0  0
  194.2930  171.9510  136.4070 C   0  0  0  0  0  2  0  0  0  0  0  0
  197.3440  174.8510  134.6940 C   0  0  0  0  0  1  0  0  0  0  0  0
  195.5170  173.2320  134.4780 C   0  0  0  0  0  2  0  0  0  0  0  0
  193.7090  173.2110  136.8880 N   0  0  1  0  0  0  0  0  0  0  0  0
  196.4320  173.9340  135.4820 C   0  0  0  0  0  0  0  0  0  0  0  0
  195.6030  174.8160  136.4150 C   0  0  0  0  0  2  0  0  0  0  0  0
  194.7710  174.0550  137.4550 C   0  0  0  0  0  2  0  0  0  0  0  0
  2  6  1  0  0  0  0
  3  4  1  0  0  0  0
  5 41  1  1  0  0  0
  5  2  1  0  0  0  0
  5 13  1  0  0  0  0
  6  1  1  0  0  0  0
  6  3  2  0  0  0  0
  7 10  2  0  0  0  0
  8  9  1  0  0  0  0
  8 11  2  0  0  0  0
  9 12  1  0  0  0  0
 10  3  1  0  0  0  0
 11  7  1  0  0  0  0
 12  7  1  0  0  0  0
 12  2  2  0  0  0  0
 13  1  2  0  0  0  0
 14 15  1  6  0  0  0
 14  8  1  0  0  0  0
 16 14  1  0  0  0  0
 17 18  1  0  0  0  0
 18 39  1  0  0  0  0
 18 16  1  0  0  0  0
 19 17  1  0  0  0  0
 20 17  2  0  0  0  0
 21 23  1  0  0  0  0
 22 25  1  0  0  0  0
 23 34  1  6  0  0  0
 24 33  1  1  0  0  0
 25 19  1  1  0  0  0
 26 22  1  1  0  0  0
 26 28  1  0  0  0  0
 26 21  1  0  0  0  0
 28 30  1  6  0  0  0
 28 24  1  0  0  0  0
 29 27  1  0  0  0  0
 29 25  1  0  0  0  0
 30 27  1  0  0  0  0
 32 24  1  0  0  0  0
 32 31  1  1  0  0  0
 32 23  1  0  0  0  0
 34 37  2  0  0  0  0
 35 36  1  0  0  0  0
 36 34  1  0  0  0  0
 39 38  2  0  0  0  0
 41 40  1  6  0  0  0
 42 41  1  0  0  0  0
 43 42  1  0  0  0  0
 44 43  1  0  0  0  0
 45 46  1  1  0  0  0
 45 44  1  0  0  0  0
 47 45  1  0  0  0  0
 50 47  1  6  0  0  0
 51 50  1  0  0  0  0
 52 49  1  6  0  0  0
 52 50  1  0  0  0  0
 53 55  1  1  0  0  0
 53 52  1  0  0  0  0
 54 48  1  6  0  0  0
 54 53  1  0  0  0  0
 54 56  1  0  0  0  0
 56 51  1  1  0  0  0
 56 62  1  0  0  0  0
 58 59  1  0  0  0  0
 60 63  1  0  0  0  0
 61 58  1  0  0  0  0
 61 63  1  0  0  0  0
 62 59  1  6  0  0  0
 62 65  1  0  0  0  0
 63 57  1  0  0  0  0
 63 64  1  0  0  0  0
 64 65  1  0  0  0  0
M  END
>  <MODEL>
1

>  <REMARK>
 VINA RESULT:      -8.5      0.000      0.000
  Name = 
  14 active torsions:
  status: ('A' for Active; 'I' for Inactive)
    1  A    between atoms: C_3  and  C_17
    2  A    between atoms: N_11  and  C_24
    3  A    between atoms: N_11  and  C_50
    4  A    between atoms: N_13  and  C_43
    5  A    between atoms: N_19  and  C_65
    6  A    between atoms: C_23  and  C_31
    7  A    between atoms: C_23  and  C_36
    8  A    between atoms: C_24  and  C_25
    9  A    between atoms: C_25  and  C_42
   10  A    between atoms: C_28  and  N_45
   11  A    between atoms: C_29  and  C_35
   12  A    between atoms: C_29  and  C_36
   13  A    between atoms: C_31  and  C_32
   14  A    between atoms: C_35  and  N_45
                            x       y       z     vdW  Elec       q    Type
                         _______ _______ _______ _____ _____    ______ ____

>  <TORSDO>
F 14

$$$$
=
 OpenBabel10232410073D

 65 71  0  0  1  0  0  0  0  0999 V2000
  191.5590  177.2690  144.8610 C   0  0  0  0  0  3  0  0  0  0  0  0
  189.3190  177.7860  144.3010 C   0  0  0  0  0  0  0  0  0  0  0  0
  189.6820  177.2230  146.6400 C   0  0  0  0  0  0  0  0  0  0  0  0
  190.5410  176.8310  147.6580 O   0  0  0  0  0  1  0  0  0  0  0  0
  190.0390  177.9470  143.0100 C   0  0  1  0  0  3  0  0  0  0  0  0
  190.1620  177.4110  145.3250 C   0  0  0  0  0  0  0  0  0  0  0  0
  187.4920  177.8410  145.8550 C   0  0  0  0  0  0  0  0  0  0  0  0
  185.9100  178.4630  144.4970 C   0  0  0  0  0  0  0  0  0  0  0  0
  187.0170  178.3830  143.7790 O   0  0  0  0  0  0  0  0  0  0  0  0
  188.3150  177.4430  146.9150 C   0  0  0  0  0  3  0  0  0  0  0  0
  186.1440  178.1260  145.8380 C   0  0  0  0  0  3  0  0  0  0  0  0
  187.9740  178.0100  144.5850 C   0  0  0  0  0  0  0  0  0  0  0  0
  191.5130  177.7080  143.3900 C   0  0  0  0  0  3  0  0  0  0  0  0
  184.5810  178.8320  143.8990 C   0  0  2  0  0  3  0  0  0  0  0  0
  183.5640  179.1020  144.9980 C   0  0  0  0  0  1  0  0  0  0  0  0
  184.0370  177.7650  142.9540 C   0  0  0  0  0  2  0  0  0  0  0  0
  183.5400  179.1400  140.9140 C   0  0  0  0  0  0  0  0  0  0  0  0
  183.0730  178.3590  142.0250 N   0  0  0  0  0  0  0  0  0  0  0  0
  182.6120  179.6080  139.9310 N   0  0  0  0  0  2  0  0  0  0  0  0
  184.7670  179.4140  140.8010 O   0  0  0  0  0  0  0  0  0  0  0  0
  183.6120  177.3260  138.1360 C   0  0  0  0  0  2  0  0  0  0  0  0
  183.6420  179.6500  137.6630 C   0  0  0  0  0  2  0  0  0  0  0  0
  183.0790  175.9240  137.7940 C   0  0  1  0  0  3  0  0  0  0  0  0
  180.9380  177.0200  136.9560 C   0  0  1  0  0  3  0  0  0  0  0  0
  182.9960  180.4550  138.8050 C   0  0  1  0  0  3  0  0  0  0  0  0
  183.0020  178.3690  137.3070 N   0  0  2  0  0  0  0  0  0  0  0  0
  180.5760  180.5510  137.9500 C   0  0  0  0  0  2  0  0  0  0  0  0
  181.5380  178.3250  137.4950 C   0  0  1  0  0  3  0  0  0  0  0  0
  181.8400  181.3310  138.3080 C   0  0  0  0  0  2  0  0  0  0  0  0
  180.8310  179.5150  136.8690 C   0  0  0  0  0  2  0  0  0  0  0  0
  181.4310  174.6920  136.5290 O   0  0  0  0  0  1  0  0  0  0  0  0
  182.0150  175.9520  136.6870 C   0  0  2  0  0  3  0  0  0  0  0  0
  179.9880  176.5450  137.8660 O   0  0  0  0  0  1  0  0  0  0  0  0
  184.2110  175.0170  137.4290 C   0  0  0  0  0  0  0  0  0  0  0  0
  185.2680  172.7280  137.4820 C   0  0  0  0  0  1  0  0  0  0  0  0
  184.1810  173.6390  137.8080 N   0  0  0  0  0  2  0  0  0  0  0  0
  185.2040  175.4890  136.8120 O   0  0  0  0  0  0  0  0  0  0  0  0
  180.8460  179.0840  142.6520 C   0  0  0  0  0  2  0  0  0  0  0  0
  181.6600  178.1470  142.1820 C   0  0  0  0  0  3  0  0  0  0  0  0
  190.5230  175.9210  141.8030 O   0  0  0  0  0  1  0  0  0  0  0  0
  189.5910  176.9510  141.9290 C   0  0  2  0  0  3  0  0  0  0  0  0
  189.3360  177.6060  140.5740 C   0  0  0  0  0  2  0  0  0  0  0  0
  190.3550  177.1400  139.5460 C   0  0  0  0  0  2  0  0  0  0  0  0
  189.6850  176.6480  138.2610 C   0  0  0  0  0  2  0  0  0  0  0  0
  189.4080  177.7450  137.2310 C   0  0  2  0  0  3  0  0  0  0  0  0
  188.0090  178.3130  137.3870 C   0  0  0  0  0  1  0  0  0  0  0  0
  189.6170  177.2650  135.8730 N   0  0  0  0  0  2  0  0  0  0  0  0
  191.2560  172.0120  134.9050 C   0  0  0  0  0  1  0  0  0  0  0  0
  188.0250  175.5110  134.6340 F   0  0  0  0  0  0  0  0  0  0  0  0
  190.0070  175.8650  135.9570 C   0  0  2  0  0  3  0  0  0  0  0  0
  191.1010  175.6140  135.1060 O   0  0  0  0  0  0  0  0  0  0  0  0
  188.8330  174.9420  135.6040 C   0  0  2  0  0  3  0  0  0  0  0  0
  189.3280  173.5860  135.0940 C   0  0  1  0  0  3  0  0  0  0  0  0
  190.7150  173.2250  135.6370 C   0  0  2  0  0  3  0  0  0  0  0  0
  188.4040  172.5960  135.4320 O   0  0  0  0  0  1  0  0  0  0  0  0
  191.7170  174.4010  135.5160 C   0  0  2  0  0  3  0  0  0  0  0  0
  196.1360  174.9940  136.6740 C   0  0  0  0  0  1  0  0  0  0  0  0
  194.1760  172.8540  135.9280 C   0  0  0  0  0  2  0  0  0  0  0  0
  193.3730  173.4480  137.0970 C   0  0  0  0  0  2  0  0  0  0  0  0
  196.1540  175.7630  134.3480 C   0  0  0  0  0  1  0  0  0  0  0  0
  194.7310  173.8440  134.8940 C   0  0  0  0  0  2  0  0  0  0  0  0
  192.4860  174.5720  136.7670 N   0  0  1  0  0  0  0  0  0  0  0  0
  195.2730  175.1700  135.4280 C   0  0  0  0  0  0  0  0  0  0  0  0
  194.1220  176.1480  135.6590 C   0  0  0  0  0  2  0  0  0  0  0  0
  193.2370  175.8320  136.8710 C   0  0  0  0  0  2  0  0  0  0  0  0
  1  6  1  0  0  0  0
  2 12  2  0  0  0  0
  2  6  1  0  0  0  0
  3 10  1  0  0  0  0
  3  4  1  0  0  0  0
  5 41  1  6  0  0  0
  5 13  1  0  0  0  0
  5  2  1  0  0  0  0
  6  3  2  0  0  0  0
  7 10  2  0  0  0  0
  8 11  2  0  0  0  0
  9  8  1  0  0  0  0
  9 12  1  0  0  0  0
 11  7  1  0  0  0  0
 12  7  1  0  0  0  0
 13  1  2  0  0  0  0
 14  8  1  0  0  0  0
 14 15  1  1  0  0  0
 16 14  1  0  0  0  0
 17 18  1  0  0  0  0
 18 39  1  0  0  0  0
 18 16  1  0  0  0  0
 19 17  1  0  0  0  0
 20 17  2  0  0  0  0
 22 25  1  0  0  0  0
 23 34  1  6  0  0  0
 23 21  1  0  0  0  0
 24 28  1  0  0  0  0
 24 33  1  1  0  0  0
 25 19  1  1  0  0  0
 26 28  1  0  0  0  0
 26 22  1  1  0  0  0
 26 21  1  0  0  0  0
 27 29  1  0  0  0  0
 28 30  1  6  0  0  0
 29 25  1  0  0  0  0
 30 27  1  0  0  0  0
 32 31  1  1  0  0  0
 32 24  1  0  0  0  0
 32 23  1  0  0  0  0
 34 36  1  0  0  0  0
 35 36  1  0  0  0  0
 37 34  2  0  0  0  0
 39 38  2  0  0  0  0
 41 40  1  6  0  0  0
 42 41  1  0  0  0  0
 43 42  1  0  0  0  0
 44 43  1  0  0  0  0
 45 46  1  6  0  0  0
 45 44  1  0  0  0  0
 47 45  1  0  0  0  0
 50 47  1  6  0  0  0
 51 50  1  0  0  0  0
 52 49  1  6  0  0  0
 52 50  1  0  0  0  0
 53 55  1  1  0  0  0
 53 52  1  0  0  0  0
 53 54  1  0  0  0  0
 54 48  1  6  0  0  0
 56 51  1  1  0  0  0
 56 54  1  0  0  0  0
 56 62  1  0  0  0  0
 58 59  1  0  0  0  0
 60 63  1  0  0  0  0
 61 63  1  0  0  0  0
 61 58  1  0  0  0  0
 62 65  1  6  0  0  0
 62 59  1  0  0  0  0
 63 64  1  0  0  0  0
 63 57  1  0  0  0  0
 64 65  1  0  0  0  0
M  END
>  <MODEL>
2

>  <REMARK>
 VINA RESULT:      -8.0      1.669      2.291
  Name = 
  14 active torsions:
  status: ('A' for Active; 'I' for Inactive)
    1  A    between atoms: C_3  and  C_17
    2  A    between atoms: N_11  and  C_24
    3  A    between atoms: N_11  and  C_50
    4  A    between atoms: N_13  and  C_43
    5  A    between atoms: N_19  and  C_65
    6  A    between atoms: C_23  and  C_31
    7  A    between atoms: C_23  and  C_36
    8  A    between atoms: C_24  and  C_25
    9  A    between atoms: C_25  and  C_42
   10  A    between atoms: C_28  and  N_45
   11  A    between atoms: C_29  and  C_35
   12  A    between atoms: C_29  and  C_36
   13  A    between atoms: C_31  and  C_32
   14  A    between atoms: C_35  and  N_45
                            x       y       z     vdW  Elec       q    Type
                         _______ _______ _______ _____ _____    ______ ____

>  <TORSDO>
F 14

$$$$
=
 OpenBabel10232410073D

 65 71  0  0  1  0  0  0  0  0999 V2000
  189.3190  177.6960  145.6110 C   0  0  0  0  0  3  0  0  0  0  0  0
  187.8580  177.8350  143.7550 C   0  0  0  0  0  0  0  0  0  0  0  0
  186.7640  177.9450  145.9260 C   0  0  0  0  0  0  0  0  0  0  0  0
  186.8470  177.9160  147.3110 O   0  0  0  0  0  1  0  0  0  0  0  0
  189.2000  177.7170  143.1250 C   0  0  1  0  0  3  0  0  0  0  0  0
  187.9260  177.8240  145.1320 C   0  0  0  0  0  0  0  0  0  0  0  0
  185.4810  178.1260  143.8970 C   0  0  0  0  0  0  0  0  0  0  0  0
  185.0230  178.2190  141.7720 C   0  0  0  0  0  0  0  0  0  0  0  0
  186.3310  178.0560  141.8720 O   0  0  0  0  0  0  0  0  0  0  0  0
  185.5100  178.1000  145.2960 C   0  0  0  0  0  3  0  0  0  0  0  0
  184.4160  178.2700  143.0350 C   0  0  0  0  0  3  0  0  0  0  0  0
  186.6170  178.0000  143.1450 C   0  0  0  0  0  0  0  0  0  0  0  0
  190.1630  177.7260  144.3270 C   0  0  0  0  0  3  0  0  0  0  0  0
  184.3130  178.2920  140.4480 C   0  0  2  0  0  3  0  0  0  0  0  0
  184.7030  179.5620  139.7100 C   0  0  0  0  0  1  0  0  0  0  0  0
  182.7940  178.2280  140.5830 C   0  0  0  0  0  2  0  0  0  0  0  0
  182.0320  177.8750  138.2180 C   0  0  0  0  0  0  0  0  0  0  0  0
  182.2320  177.3620  139.5440 N   0  0  0  0  0  0  0  0  0  0  0  0
  181.6110  176.9980  137.1690 N   0  0  0  0  0  2  0  0  0  0  0  0
  182.2290  179.0980  137.9730 O   0  0  0  0  0  0  0  0  0  0  0  0
  184.5350  177.0370  136.2320 C   0  0  0  0  0  2  0  0  0  0  0  0
  182.6150  177.6710  134.9910 C   0  0  0  0  0  2  0  0  0  0  0  0
  185.7260  176.0800  136.4080 C   0  0  1  0  0  3  0  0  0  0  0  0
  184.3280  174.2520  135.3170 C   0  0  1  0  0  3  0  0  0  0  0  0
  181.3310  177.4500  135.8100 C   0  0  1  0  0  3  0  0  0  0  0  0
  183.6680  176.6450  135.1170 N   0  0  2  0  0  0  0  0  0  0  0  0
  180.7420  175.0670  135.0550 C   0  0  0  0  0  2  0  0  0  0  0  0
  183.1820  175.2720  135.3570 C   0  0  1  0  0  3  0  0  0  0  0  0
  180.3350  176.5390  135.0820 C   0  0  0  0  0  2  0  0  0  0  0  0
  182.0890  174.8590  134.3850 C   0  0  0  0  0  2  0  0  0  0  0  0
  186.7000  173.9870  135.6970 O   0  0  0  0  0  1  0  0  0  0  0  0
  185.7100  174.9260  135.3940 C   0  0  2  0  0  3  0  0  0  0  0  0
  184.1620  173.3410  136.3650 O   0  0  0  0  0  1  0  0  0  0  0  0
  187.0120  176.8390  136.3380 C   0  0  0  0  0  0  0  0  0  0  0  0
  189.0510  177.5460  135.0320 C   0  0  0  0  0  1  0  0  0  0  0  0
  187.7900  176.8300  135.1370 N   0  0  0  0  0  2  0  0  0  0  0  0
  187.4180  177.4600  137.3570 O   0  0  0  0  0  0  0  0  0  0  0  0
  180.6900  175.6060  140.1920 C   0  0  0  0  0  2  0  0  0  0  0  0
  181.9040  175.9900  139.8170 C   0  0  0  0  0  3  0  0  0  0  0  0
  190.5600  175.7870  142.6570 O   0  0  0  0  0  1  0  0  0  0  0  0
  189.3780  176.4340  142.2980 C   0  0  2  0  0  3  0  0  0  0  0  0
  189.3420  176.6780  140.7910 C   0  0  0  0  0  2  0  0  0  0  0  0
  190.7310  176.5470  140.1870 C   0  0  0  0  0  2  0  0  0  0  0  0
  190.7650  177.0040  138.7270 C   0  0  0  0  0  2  0  0  0  0  0  0
  191.1000  175.8980  137.7250 C   0  0  2  0  0  3  0  0  0  0  0  0
  189.9300  174.9480  137.5340 C   0  0  0  0  0  1  0  0  0  0  0  0
  192.2930  175.1650  138.1210 N   0  0  0  0  0  2  0  0  0  0  0  0
  196.5080  174.8630  134.4650 C   0  0  0  0  0  1  0  0  0  0  0  0
  193.6970  177.3300  137.4260 F   0  0  0  0  0  0  0  0  0  0  0  0
  193.1410  175.0360  136.9440 C   0  0  2  0  0  3  0  0  0  0  0  0
  194.2880  174.2780  137.2520 O   0  0  0  0  0  0  0  0  0  0  0  0
  193.5420  176.4140  136.4000 C   0  0  2  0  0  3  0  0  0  0  0  0
  194.8520  176.3380  135.6090 C   0  0  1  0  0  3  0  0  0  0  0  0
  195.0940  174.9490  135.0080 C   0  0  2  0  0  3  0  0  0  0  0  0
  194.8460  177.3060  134.6040 O   0  0  0  0  0  1  0  0  0  0  0  0
  194.8560  173.8150  136.0360 C   0  0  2  0  0  3  0  0  0  0  0  0
  195.0880  169.2170  135.8660 C   0  0  0  0  0  1  0  0  0  0  0  0
  196.2140  171.6690  134.5650 C   0  0  0  0  0  2  0  0  0  0  0  0
  194.7290  172.0030  134.3460 C   0  0  0  0  0  2  0  0  0  0  0  0
  196.4310  169.6800  137.8610 C   0  0  0  0  0  1  0  0  0  0  0  0
  196.6270  171.2380  135.9780 C   0  0  0  0  0  2  0  0  0  0  0  0
  194.0600  172.7200  135.4410 N   0  0  1  0  0  0  0  0  0  0  0  0
  195.6550  170.3330  136.7370 C   0  0  0  0  0  0  0  0  0  0  0  0
  194.5540  171.1770  137.3800 C   0  0  0  0  0  2  0  0  0  0  0  0
  193.5200  171.7470  136.4010 C   0  0  0  0  0  2  0  0  0  0  0  0
  2  6  1  0  0  0  0
  3  4  1  0  0  0  0
  5 41  1  1  0  0  0
  5  2  1  0  0  0  0
  5 13  1  0  0  0  0
  6  1  1  0  0  0  0
  6  3  2  0  0  0  0
  7 10  2  0  0  0  0
  8  9  1  0  0  0  0
  8 11  2  0  0  0  0
  9 12  1  0  0  0  0
 10  3  1  0  0  0  0
 11  7  1  0  0  0  0
 12  2  2  0  0  0  0
 12  7  1  0  0  0  0
 13  1  2  0  0  0  0
 14 15  1  1  0  0  0
 14 16  1  0  0  0  0
 14  8  1  0  0  0  0
 17 18  1  0  0  0  0
 18 39  1  0  0  0  0
 18 16  1  0  0  0  0
 19 17  1  0  0  0  0
 20 17  2  0  0  0  0
 21 23  1  0  0  0  0
 22 25  1  0  0  0  0
 23 34  1  6  0  0  0
 24 28  1  0  0  0  0
 24 32  1  0  0  0  0
 24 33  1  1  0  0  0
 25 19  1  1  0  0  0
 26 22  1  1  0  0  0
 26 28  1  0  0  0  0
 26 21  1  0  0  0  0
 27 29  1  0  0  0  0
 28 30  1  6  0  0  0
 29 25  1  0  0  0  0
 30 27  1  0  0  0  0
 32 31  1  1  0  0  0
 32 23  1  0  0  0  0
 34 37  2  0  0  0  0
 35 36  1  0  0  0  0
 36 34  1  0  0  0  0
 39 38  2  0  0  0  0
 41 40  1  6  0  0  0
 42 41  1  0  0  0  0
 43 42  1  0  0  0  0
 44 43  1  0  0  0  0
 45 46  1  1  0  0  0
 45 47  1  0  0  0  0
 45 44  1  0  0  0  0
 50 51  1  0  0  0  0
 50 47  1  1  0  0  0
 52 50  1  0  0  0  0
 52 49  1  1  0  0  0
 53 55  1  6  0  0  0
 53 52  1  0  0  0  0
 54 48  1  1  0  0  0
 54 53  1  0  0  0  0
 54 56  1  0  0  0  0
 56 51  1  1  0  0  0
 57 63  1  0  0  0  0
 58 61  1  0  0  0  0
 59 58  1  0  0  0  0
 61 63  1  0  0  0  0
 62 59  1  6  0  0  0
 62 56  1  0  0  0  0
 62 65  1  0  0  0  0
 63 64  1  0  0  0  0
 63 60  1  0  0  0  0
 65 64  1  0  0  0  0
M  END
>  <MODEL>
3

>  <REMARK>
 VINA RESULT:      -7.6      2.024      3.209
  Name = 
  14 active torsions:
  status: ('A' for Active; 'I' for Inactive)
    1  A    between atoms: C_3  and  C_17
    2  A    between atoms: N_11  and  C_24
    3  A    between atoms: N_11  and  C_50
    4  A    between atoms: N_13  and  C_43
    5  A    between atoms: N_19  and  C_65
    6  A    between atoms: C_23  and  C_31
    7  A    between atoms: C_23  and  C_36
    8  A    between atoms: C_24  and  C_25
    9  A    between atoms: C_25  and  C_42
   10  A    between atoms: C_28  and  N_45
   11  A    between atoms: C_29  and  C_35
   12  A    between atoms: C_29  and  C_36
   13  A    between atoms: C_31  and  C_32
   14  A    between atoms: C_35  and  N_45
                            x       y       z     vdW  Elec       q    Type
                         _______ _______ _______ _____ _____    ______ ____

>  <TORSDO>
F 14

$$$$
=
 OpenBabel10232410073D

 65 71  0  0  1  0  0  0  0  0999 V2000
  191.3140  177.6100  145.4270 C   0  0  0  0  0  3  0  0  0  0  0  0
  189.2700  178.1920  144.3860 C   0  0  0  0  0  0  0  0  0  0  0  0
  189.0400  176.8860  146.4260 C   0  0  0  0  0  0  0  0  0  0  0  0
  189.6270  176.2080  147.4850 O   0  0  0  0  0  1  0  0  0  0  0  0
  190.2920  178.8110  143.5010 C   0  0  1  0  0  3  0  0  0  0  0  0
  189.8370  177.5280  145.4520 C   0  0  0  0  0  0  0  0  0  0  0  0
  187.0920  177.6410  145.2290 C   0  0  0  0  0  0  0  0  0  0  0  0
  185.8820  178.6210  143.7100 C   0  0  0  0  0  0  0  0  0  0  0  0
  187.1460  178.8350  143.3850 O   0  0  0  0  0  0  0  0  0  0  0  0
  187.6340  176.9420  146.3140 C   0  0  0  0  0  3  0  0  0  0  0  0
  185.7770  177.8590  144.8820 C   0  0  0  0  0  3  0  0  0  0  0  0
  187.8820  178.2510  144.2920 C   0  0  0  0  0  0  0  0  0  0  0  0
  191.6190  178.5200  144.2270 C   0  0  0  0  0  3  0  0  0  0  0  0
  184.7350  179.1150  142.8730 C   0  0  2  0  0  3  0  0  0  0  0  0
  183.5460  179.4590  143.7570 C   0  0  0  0  0  1  0  0  0  0  0  0
  184.3010  178.1130  141.8060 C   0  0  0  0  0  2  0  0  0  0  0  0
  186.0740  178.1020  140.0290 C   0  0  0  0  0  0  0  0  0  0  0  0
  184.7860  178.5370  140.4900 N   0  0  0  0  0  0  0  0  0  0  0  0
  186.4930  178.4010  138.6940 N   0  0  0  0  0  2  0  0  0  0  0  0
  186.8380  177.4540  140.7970 O   0  0  0  0  0  0  0  0  0  0  0  0
  185.6950  175.6110  137.6900 C   0  0  0  0  0  2  0  0  0  0  0  0
  187.8440  176.6130  137.6080 C   0  0  0  0  0  2  0  0  0  0  0  0
  184.4760  175.0560  136.9330 C   0  0  1  0  0  3  0  0  0  0  0  0
  184.9730  176.7130  135.0630 C   0  0  1  0  0  3  0  0  0  0  0  0
  187.8070  178.0460  138.1680 C   0  0  1  0  0  3  0  0  0  0  0  0
  186.6940  176.1910  136.7860 N   0  0  2  0  0  0  0  0  0  0  0  0
  187.3760  179.3480  135.9960 C   0  0  0  0  0  2  0  0  0  0  0  0
  186.0520  177.2650  136.0020 C   0  0  1  0  0  3  0  0  0  0  0  0
  188.3310  179.0720  137.1560 C   0  0  0  0  0  2  0  0  0  0  0  0
  187.0540  178.0890  135.2100 C   0  0  0  0  0  2  0  0  0  0  0  0
  183.3850  174.9120  134.7840 O   0  0  0  0  0  1  0  0  0  0  0  0
  184.5800  175.2660  135.4150 C   0  0  2  0  0  3  0  0  0  0  0  0
  183.8560  177.5530  135.1090 O   0  0  0  0  0  1  0  0  0  0  0  0
  184.2780  173.6120  137.2640 C   0  0  0  0  0  0  0  0  0  0  0  0
  182.9230  171.4960  137.0440 C   0  0  0  0  0  1  0  0  0  0  0  0
  183.1570  172.8990  136.7360 N   0  0  0  0  0  2  0  0  0  0  0  0
  185.0920  173.0390  138.0380 O   0  0  0  0  0  0  0  0  0  0  0  0
  182.9220  178.8870  138.9790 C   0  0  0  0  0  2  0  0  0  0  0  0
  183.9790  179.3580  139.6300 C   0  0  0  0  0  3  0  0  0  0  0  0
  189.3020  178.7940  141.3060 O   0  0  0  0  0  1  0  0  0  0  0  0
  190.3120  178.2230  142.0810 C   0  0  2  0  0  3  0  0  0  0  0  0
  190.2040  176.7000  142.0570 C   0  0  0  0  0  2  0  0  0  0  0  0
  190.2760  176.1750  140.6320 C   0  0  0  0  0  2  0  0  0  0  0  0
  191.0640  177.1140  139.7160 C   0  0  0  0  0  2  0  0  0  0  0  0
  192.3760  176.5300  139.1880 C   0  0  2  0  0  3  0  0  0  0  0  0
  193.5780  177.2590  139.7610 C   0  0  0  0  0  1  0  0  0  0  0  0
  192.4160  176.5420  137.7330 N   0  0  0  0  0  2  0  0  0  0  0  0
  192.6320  171.7720  134.8330 C   0  0  0  0  0  1  0  0  0  0  0  0
  190.4530  175.8330  136.0630 F   0  0  0  0  0  0  0  0  0  0  0  0
  192.4190  175.1580  137.2820 C   0  0  2  0  0  3  0  0  0  0  0  0
  193.4320  174.9630  136.3220 O   0  0  0  0  0  0  0  0  0  0  0  0
  191.0530  174.7630  136.7050 C   0  0  2  0  0  3  0  0  0  0  0  0
  191.1850  173.6070  135.7090 C   0  0  1  0  0  3  0  0  0  0  0  0
  192.4120  172.7300  135.9880 C   0  0  2  0  0  3  0  0  0  0  0  0
  190.0230  172.8350  135.7340 O   0  0  0  0  0  1  0  0  0  0  0  0
  193.6920  173.5690  136.2250 C   0  0  2  0  0  3  0  0  0  0  0  0
  198.1130  172.8990  137.3320 C   0  0  0  0  0  1  0  0  0  0  0  0
  195.8520  171.6220  135.8390 C   0  0  0  0  0  2  0  0  0  0  0  0
  195.1240  171.7850  137.1830 C   0  0  0  0  0  2  0  0  0  0  0  0
  198.3230  174.5670  135.5500 C   0  0  0  0  0  1  0  0  0  0  0  0
  196.5900  172.8530  135.2960 C   0  0  0  0  0  2  0  0  0  0  0  0
  194.4420  173.0690  137.3970 N   0  0  1  0  0  0  0  0  0  0  0  0
  197.3270  173.7220  136.3160 C   0  0  0  0  0  0  0  0  0  0  0  0
  196.3450  174.6810  136.9880 C   0  0  0  0  0  2  0  0  0  0  0  0
  195.3860  174.0280  137.9900 C   0  0  0  0  0  2  0  0  0  0  0  0
  1  6  1  0  0  0  0
  2  6  1  0  0  0  0
  3  4  1  0  0  0  0
  5 41  1  6  0  0  0
  5 13  1  0  0  0  0
  5  2  1  0  0  0  0
  6  3  2  0  0  0  0
  7 10  2  0  0  0  0
  8 11  2  0  0  0  0
  9  8  1  0  0  0  0
  9 12  1  0  0  0  0
 10  3  1  0  0  0  0
 11  7  1  0  0  0  0
 12  2  2  0  0  0  0
 12  7  1  0  0  0  0
 13  1  2  0  0  0  0
 14  8  1  0  0  0  0
 14 15  1  1  0  0  0
 16 14  1  0  0  0  0
 17 18  1  0  0  0  0
 17 20  2  0  0  0  0
 18 16  1  0  0  0  0
 19 17  1  0  0  0  0
 22 25  1  0  0  0  0
 23 34  1  6  0  0  0
 23 21  1  0  0  0  0
 24 33  1  1  0  0  0
 24 32  1  0  0  0  0
 24 28  1  0  0  0  0
 25 19  1  6  0  0  0
 26 22  1  1  0  0  0
 26 21  1  0  0  0  0
 27 29  1  0  0  0  0
 28 30  1  6  0  0  0
 28 26  1  0  0  0  0
 29 25  1  0  0  0  0
 30 27  1  0  0  0  0
 32 31  1  6  0  0  0
 32 23  1  0  0  0  0
 34 37  2  0  0  0  0
 36 35  1  0  0  0  0
 36 34  1  0  0  0  0
 38 39  2  0  0  0  0
 39 18  1  0  0  0  0
 41 40  1  6  0  0  0
 42 41  1  0  0  0  0
 43 42  1  0  0  0  0
 44 43  1  0  0  0  0
 45 44  1  0  0  0  0
 45 46  1  1  0  0  0
 47 45  1  0  0  0  0
 50 47  1  6  0  0  0
 51 50  1  0  0  0  0
 52 49  1  6  0  0  0
 52 50  1  0  0  0  0
 53 55  1  1  0  0  0
 53 54  1  0  0  0  0
 53 52  1  0  0  0  0
 54 48  1  6  0  0  0
 54 56  1  0  0  0  0
 56 51  1  1  0  0  0
 56 62  1  0  0  0  0
 58 59  1  0  0  0  0
 60 63  1  0  0  0  0
 61 58  1  0  0  0  0
 61 63  1  0  0  0  0
 62 59  1  6  0  0  0
 62 65  1  0  0  0  0
 63 64  1  0  0  0  0
 63 57  1  0  0  0  0
 64 65  1  0  0  0  0
M  END
>  <MODEL>
4

>  <REMARK>
 VINA RESULT:      -6.7      1.959      2.871
  Name = 
  14 active torsions:
  status: ('A' for Active; 'I' for Inactive)
    1  A    between atoms: C_3  and  C_17
    2  A    between atoms: N_11  and  C_24
    3  A    between atoms: N_11  and  C_50
    4  A    between atoms: N_13  and  C_43
    5  A    between atoms: N_19  and  C_65
    6  A    between atoms: C_23  and  C_31
    7  A    between atoms: C_23  and  C_36
    8  A    between atoms: C_24  and  C_25
    9  A    between atoms: C_25  and  C_42
   10  A    between atoms: C_28  and  N_45
   11  A    between atoms: C_29  and  C_35
   12  A    between atoms: C_29  and  C_36
   13  A    between atoms: C_31  and  C_32
   14  A    between atoms: C_35  and  N_45
                            x       y       z     vdW  Elec       q    Type
                         _______ _______ _______ _____ _____    ______ ____

>  <TORSDO>
F 14

$$$$
=
 OpenBabel10232410073D

 65 71  0  0  1  0  0  0  0  0999 V2000
  187.5100  177.2770  147.4540 C   0  0  0  0  0  3  0  0  0  0  0  0
  187.9630  177.4010  145.1350 C   0  0  0  0  0  0  0  0  0  0  0  0
  189.9250  177.5440  146.5670 C   0  0  0  0  0  0  0  0  0  0  0  0
  190.4780  177.5770  147.8390 O   0  0  0  0  0  1  0  0  0  0  0  0
  186.4860  177.2410  145.1850 C   0  0  1  0  0  3  0  0  0  0  0  0
  188.5300  177.4200  146.3910 C   0  0  0  0  0  0  0  0  0  0  0  0
  190.1530  177.5890  144.1700 C   0  0  0  0  0  0  0  0  0  0  0  0
  189.6010  177.5560  142.0660 C   0  0  0  0  0  0  0  0  0  0  0  0
  188.4770  177.4580  142.7550 O   0  0  0  0  0  0  0  0  0  0  0  0
  190.7600  177.6310  145.4310 C   0  0  0  0  0  3  0  0  0  0  0  0
  190.7140  177.6460  142.9140 C   0  0  0  0  0  3  0  0  0  0  0  0
  188.7970  177.4760  144.0210 C   0  0  0  0  0  0  0  0  0  0  0  0
  186.1960  177.0600  146.6880 C   0  0  0  0  0  3  0  0  0  0  0  0
  189.6290  177.6050  140.5630 C   0  0  2  0  0  3  0  0  0  0  0  0
  188.4440  178.4000  140.0390 C   0  0  0  0  0  1  0  0  0  0  0  0
  189.6350  176.2190  139.9240 C   0  0  0  0  0  2  0  0  0  0  0  0
  190.3900  175.9870  137.5410 C   0  0  0  0  0  0  0  0  0  0  0  0
  190.7110  176.1260  138.9340 N   0  0  0  0  0  0  0  0  0  0  0  0
  191.4310  176.0310  136.5610 N   0  0  0  0  0  2  0  0  0  0  0  0
  189.1920  175.8260  137.1780 O   0  0  0  0  0  0  0  0  0  0  0  0
  194.3660  175.5220  135.8150 C   0  0  0  0  0  2  0  0  0  0  0  0
  192.5020  175.6160  134.3510 C   0  0  0  0  0  2  0  0  0  0  0  0
  195.5000  174.6940  136.4440 C   0  0  1  0  0  3  0  0  0  0  0  0
  194.0190  172.6330  136.2300 C   0  0  1  0  0  3  0  0  0  0  0  0
  191.1960  175.8400  135.1330 C   0  0  1  0  0  3  0  0  0  0  0  0
  193.4950  174.7100  134.9590 N   0  0  2  0  0  0  0  0  0  0  0  0
  190.4880  173.3970  135.4970 C   0  0  0  0  0  2  0  0  0  0  0  0
  192.9310  173.6110  135.7680 C   0  0  1  0  0  3  0  0  0  0  0  0
  190.1630  174.7430  134.8500 C   0  0  0  0  0  2  0  0  0  0  0  0
  191.8310  172.8550  135.0420 C   0  0  0  0  0  2  0  0  0  0  0  0
  196.3670  172.4650  136.7760 O   0  0  0  0  0  1  0  0  0  0  0  0
  195.4350  173.2100  136.0500 C   0  0  2  0  0  3  0  0  0  0  0  0
  193.7890  172.2940  137.5670 O   0  0  0  0  0  1  0  0  0  0  0  0
  196.8270  175.2860  136.0910 C   0  0  0  0  0  0  0  0  0  0  0  0
  198.5910  175.7920  134.3600 C   0  0  0  0  0  1  0  0  0  0  0  0
  197.3010  175.2390  134.7420 N   0  0  0  0  0  2  0  0  0  0  0  0
  197.5360  175.7980  136.9990 O   0  0  0  0  0  0  0  0  0  0  0  0
  192.6640  177.3450  139.6960 C   0  0  0  0  0  2  0  0  0  0  0  0
  192.0910  176.2060  139.3260 C   0  0  0  0  0  3  0  0  0  0  0  0
  186.4270  179.6270  144.8690 O   0  0  0  0  0  1  0  0  0  0  0  0
  185.7180  178.4500  144.6280 C   0  0  2  0  0  3  0  0  0  0  0  0
  184.2960  178.5640  145.1700 C   0  0  0  0  0  2  0  0  0  0  0  0
  183.2910  178.6870  144.0350 C   0  0  0  0  0  2  0  0  0  0  0  0
  183.9730  178.9950  142.7000 C   0  0  0  0  0  2  0  0  0  0  0  0
  183.0840  178.7900  141.4720 C   0  0  2  0  0  3  0  0  0  0  0  0
  181.7260  178.2300  141.8570 C   0  0  0  0  0  1  0  0  0  0  0  0
  183.7280  177.9360  140.4860 N   0  0  0  0  0  2  0  0  0  0  0  0
  181.6470  178.2640  135.3110 C   0  0  0  0  0  1  0  0  0  0  0  0
  183.4350  180.2850  139.2450 F   0  0  0  0  0  0  0  0  0  0  0  0
  182.8950  177.9370  139.2920 C   0  0  2  0  0  3  0  0  0  0  0  0
  183.5890  177.3500  138.2150 O   0  0  0  0  0  0  0  0  0  0  0  0
  182.4530  179.3610  138.9290 C   0  0  2  0  0  3  0  0  0  0  0  0
  182.1320  179.4790  137.4370 C   0  0  1  0  0  3  0  0  0  0  0  0
  181.6990  178.1430  136.8220 C   0  0  2  0  0  3  0  0  0  0  0  0
  181.1390  180.4420  137.2480 O   0  0  0  0  0  1  0  0  0  0  0  0
  182.6410  176.9800  137.2230 C   0  0  2  0  0  3  0  0  0  0  0  0
  182.9200  172.4310  136.5530 C   0  0  0  0  0  1  0  0  0  0  0  0
  181.9810  174.9430  135.2170 C   0  0  0  0  0  2  0  0  0  0  0  0
  181.1770  175.1070  136.5170 C   0  0  0  0  0  2  0  0  0  0  0  0
  185.2400  173.1070  136.1520 C   0  0  0  0  0  1  0  0  0  0  0  0
  183.4720  174.6090  135.3620 C   0  0  0  0  0  2  0  0  0  0  0  0
  181.8670  175.7860  137.6230 N   0  0  1  0  0  0  0  0  0  0  0  0
  183.8570  173.6320  136.4740 C   0  0  0  0  0  0  0  0  0  0  0  0
  183.9550  174.3740  137.8060 C   0  0  0  0  0  2  0  0  0  0  0  0
  182.6110  174.7950  138.4140 C   0  0  0  0  0  2  0  0  0  0  0  0
  2  5  1  0  0  0  0
  2  6  1  0  0  0  0
  3  4  1  0  0  0  0
  5 41  1  1  0  0  0
  5 13  1  0  0  0  0
  6  3  2  0  0  0  0
  6  1  1  0  0  0  0
  7 10  2  0  0  0  0
  8  9  1  0  0  0  0
  8 11  2  0  0  0  0
  9 12  1  0  0  0  0
 10  3  1  0  0  0  0
 11  7  1  0  0  0  0
 12  7  1  0  0  0  0
 12  2  2  0  0  0  0
 13  1  2  0  0  0  0
 14 15  1  6  0  0  0
 14  8  1  0  0  0  0
 16 14  1  0  0  0  0
 17 18  1  0  0  0  0
 18 39  1  0  0  0  0
 18 16  1  0  0  0  0
 19 17  1  0  0  0  0
 20 17  2  0  0  0  0
 21 23  1  0  0  0  0
 22 25  1  0  0  0  0
 23 34  1  6  0  0  0
 24 33  1  1  0  0  0
 25 19  1  1  0  0  0
 26 22  1  1  0  0  0
 26 28  1  0  0  0  0
 26 21  1  0  0  0  0
 28 30  1  6  0  0  0
 28 24  1  0  0  0  0
 29 25  1  0  0  0  0
 29 27  1  0  0  0  0
 30 27  1  0  0  0  0
 32 24  1  0  0  0  0
 32 23  1  0  0  0  0
 32 31  1  1  0  0  0
 34 37  2  0  0  0  0
 35 36  1  0  0  0  0
 36 34  1  0  0  0  0
 39 38  2  0  0  0  0
 41 40  1  1  0  0  0
 41 42  1  0  0  0  0
 43 42  1  0  0  0  0
 44 43  1  0  0  0  0
 45 46  1  1  0  0  0
 45 44  1  0  0  0  0
 47 45  1  0  0  0  0
 50 47  1  1  0  0  0
 51 50  1  0  0  0  0
 52 49  1  6  0  0  0
 52 50  1  0  0  0  0
 53 55  1  1  0  0  0
 53 52  1  0  0  0  0
 54 48  1  6  0  0  0
 54 56  1  0  0  0  0
 54 53  1  0  0  0  0
 56 62  1  0  0  0  0
 56 51  1  1  0  0  0
 58 61  1  0  0  0  0
 58 59  1  0  0  0  0
 60 63  1  0  0  0  0
 61 63  1  0  0  0  0
 62 59  1  6  0  0  0
 62 65  1  0  0  0  0
 63 57  1  0  0  0  0
 63 64  1  0  0  0  0
 64 65  1  0  0  0  0
M  END
>  <MODEL>
5

>  <REMARK>
 VINA RESULT:      -6.3      2.119      9.728
  Name = 
  14 active torsions:
  status: ('A' for Active; 'I' for Inactive)
    1  A    between atoms: C_3  and  C_17
    2  A    between atoms: N_11  and  C_24
    3  A    between atoms: N_11  and  C_50
    4  A    between atoms: N_13  and  C_43
    5  A    between atoms: N_19  and  C_65
    6  A    between atoms: C_23  and  C_31
    7  A    between atoms: C_23  and  C_36
    8  A    between atoms: C_24  and  C_25
    9  A    between atoms: C_25  and  C_42
   10  A    between atoms: C_28  and  N_45
   11  A    between atoms: C_29  and  C_35
   12  A    between atoms: C_29  and  C_36
   13  A    between atoms: C_31  and  C_32
   14  A    between atoms: C_35  and  N_45
                            x       y       z     vdW  Elec       q    Type
                         _______ _______ _______ _____ _____    ______ ____

>  <TORSDO>
F 14

$$$$
=
 OpenBabel10232410073D

 65 71  0  0  1  0  0  0  0  0999 V2000
  190.3500  176.9680  146.4910 C   0  0  0  0  0  3  0  0  0  0  0  0
  188.7600  177.6210  144.8650 C   0  0  0  0  0  0  0  0  0  0  0  0
  187.9100  177.5270  147.1430 C   0  0  0  0  0  0  0  0  0  0  0  0
  188.1190  177.2580  148.4880 O   0  0  0  0  0  1  0  0  0  0  0  0
  189.9990  177.4170  144.0680 C   0  0  1  0  0  3  0  0  0  0  0  0
  188.9560  177.3730  146.2060 C   0  0  0  0  0  0  0  0  0  0  0  0
  186.4850  178.2230  145.3320 C   0  0  0  0  0  0  0  0  0  0  0  0
  185.8470  178.7300  143.3140 C   0  0  0  0  0  0  0  0  0  0  0  0
  187.1150  178.3670  143.2320 O   0  0  0  0  0  0  0  0  0  0  0  0
  186.6430  177.9630  146.6980 C   0  0  0  0  0  3  0  0  0  0  0  0
  185.3800  178.6590  144.6340 C   0  0  0  0  0  3  0  0  0  0  0  0
  187.5090  178.0610  144.4380 C   0  0  0  0  0  0  0  0  0  0  0  0
  191.0610  177.0880  145.1340 C   0  0  0  0  0  3  0  0  0  0  0  0
  185.0350  179.1220  142.1100 C   0  0  2  0  0  3  0  0  0  0  0  0
  183.9940  178.0560  141.8070 C   0  0  0  0  0  1  0  0  0  0  0  0
  185.8910  179.3650  140.8700 C   0  0  0  0  0  2  0  0  0  0  0  0
  186.1560  177.8940  138.8530 C   0  0  0  0  0  0  0  0  0  0  0  0
  185.3130  178.6730  139.7160 N   0  0  0  0  0  0  0  0  0  0  0  0
  185.5770  177.1100  137.8070 N   0  0  0  0  0  2  0  0  0  0  0  0
  187.4080  177.8980  139.0160 O   0  0  0  0  0  0  0  0  0  0  0  0
  183.3860  175.0580  137.1570 C   0  0  0  0  0  2  0  0  0  0  0  0
  185.6050  175.1110  136.3200 C   0  0  0  0  0  2  0  0  0  0  0  0
  181.8760  175.1590  136.8810 C   0  0  1  0  0  3  0  0  0  0  0  0
  182.4080  176.7320  134.9490 C   0  0  1  0  0  3  0  0  0  0  0  0
  186.3670  176.3370  136.8530 C   0  0  1  0  0  3  0  0  0  0  0  0
  184.1890  175.3130  135.9580 N   0  0  2  0  0  0  0  0  0  0  0  0
  185.8660  178.0080  134.9670 C   0  0  0  0  0  2  0  0  0  0  0  0
  183.8570  176.6580  135.4460 C   0  0  1  0  0  3  0  0  0  0  0  0
  186.9260  177.2030  135.7170 C   0  0  0  0  0  2  0  0  0  0  0  0
  184.8030  177.1160  134.3490 C   0  0  0  0  0  2  0  0  0  0  0  0
  180.2050  175.7860  135.2530 O   0  0  0  0  0  1  0  0  0  0  0  0
  181.5680  175.5310  135.4220 C   0  0  2  0  0  3  0  0  0  0  0  0
  181.8390  177.9340  135.3820 O   0  0  0  0  0  1  0  0  0  0  0  0
  181.1950  173.8840  137.2650 C   0  0  0  0  0  0  0  0  0  0  0  0
  180.7940  171.4270  136.8660 C   0  0  0  0  0  1  0  0  0  0  0  0
  181.4460  172.6830  136.5300 N   0  0  0  0  0  2  0  0  0  0  0  0
  180.3750  173.8880  138.2230 O   0  0  0  0  0  0  0  0  0  0  0  0
  183.3700  179.6140  138.6110 C   0  0  0  0  0  2  0  0  0  0  0  0
  183.9020  178.7290  139.4450 C   0  0  0  0  0  3  0  0  0  0  0  0
  190.7420  175.2290  143.3930 O   0  0  0  0  0  1  0  0  0  0  0  0
  189.8890  176.2760  143.0440 C   0  0  2  0  0  3  0  0  0  0  0  0
  190.1560  176.7250  141.6090 C   0  0  0  0  0  2  0  0  0  0  0  0
  191.5270  177.3710  141.4900 C   0  0  0  0  0  2  0  0  0  0  0  0
  191.8510  177.7600  140.0460 C   0  0  0  0  0  2  0  0  0  0  0  0
  192.1090  176.5740  139.1140 C   0  0  2  0  0  3  0  0  0  0  0  0
  193.1470  176.9120  138.0590 C   0  0  0  0  0  1  0  0  0  0  0  0
  190.8780  176.1110  138.4900 N   0  0  0  0  0  2  0  0  0  0  0  0
  192.0300  172.0290  134.8530 C   0  0  0  0  0  1  0  0  0  0  0  0
  189.0540  175.2450  136.7390 F   0  0  0  0  0  0  0  0  0  0  0  0
  191.1710  174.8520  137.8200 C   0  0  2  0  0  3  0  0  0  0  0  0
  192.1600  175.0450  136.8350 O   0  0  0  0  0  0  0  0  0  0  0  0
  189.9050  174.2520  137.1950 C   0  0  2  0  0  3  0  0  0  0  0  0
  190.2490  173.3270  136.0240 C   0  0  1  0  0  3  0  0  0  0  0  0
  191.6510  172.7190  136.1490 C   0  0  2  0  0  3  0  0  0  0  0  0
  189.2910  172.3170  135.9310 O   0  0  0  0  0  1  0  0  0  0  0  0
  192.7200  173.7790  136.5120 C   0  0  2  0  0  3  0  0  0  0  0  0
  197.2640  173.4350  137.1890 C   0  0  0  0  0  1  0  0  0  0  0  0
  194.9860  172.0460  135.8250 C   0  0  0  0  0  2  0  0  0  0  0  0
  194.3730  172.0770  137.2350 C   0  0  0  0  0  2  0  0  0  0  0  0
  197.1750  175.2030  135.4960 C   0  0  0  0  0  1  0  0  0  0  0  0
  195.5700  173.3620  135.2940 C   0  0  0  0  0  2  0  0  0  0  0  0
  193.6130  173.2860  137.5820 N   0  0  1  0  0  0  0  0  0  0  0  0
  196.3240  174.2380  136.2950 C   0  0  0  0  0  0  0  0  0  0  0  0
  195.3340  175.0730  137.1050 C   0  0  0  0  0  2  0  0  0  0  0  0
  194.5260  174.2900  138.1470 C   0  0  0  0  0  2  0  0  0  0  0  0
  2  6  1  0  0  0  0
  3  4  1  0  0  0  0
  5 41  1  6  0  0  0
  5  2  1  0  0  0  0
  5 13  1  0  0  0  0
  6  1  1  0  0  0  0
  6  3  2  0  0  0  0
  7 10  2  0  0  0  0
  8 11  2  0  0  0  0
  9  8  1  0  0  0  0
  9 12  1  0  0  0  0
 10  3  1  0  0  0  0
 11  7  1  0  0  0  0
 12  2  2  0  0  0  0
 12  7  1  0  0  0  0
 13  1  2  0  0  0  0
 14 15  1  6  0  0  0
 14  8  1  0  0  0  0
 16 14  1  0  0  0  0
 17 20  2  0  0  0  0
 17 18  1  0  0  0  0
 18 16  1  0  0  0  0
 19 17  1  0  0  0  0
 22 25  1  0  0  0  0
 23 21  1  0  0  0  0
 23 34  1  6  0  0  0
 24 33  1  1  0  0  0
 24 32  1  0  0  0  0
 24 28  1  0  0  0  0
 25 19  1  6  0  0  0
 26 22  1  1  0  0  0
 26 21  1  0  0  0  0
 27 29  1  0  0  0  0
 28 30  1  6  0  0  0
 28 26  1  0  0  0  0
 29 25  1  0  0  0  0
 30 27  1  0  0  0  0
 32 31  1  1  0  0  0
 32 23  1  0  0  0  0
 34 37  2  0  0  0  0
 36 35  1  0  0  0  0
 36 34  1  0  0  0  0
 38 39  2  0  0  0  0
 39 18  1  0  0  0  0
 41 40  1  1  0  0  0
 42 41  1  0  0  0  0
 43 42  1  0  0  0  0
 44 43  1  0  0  0  0
 45 46  1  6  0  0  0
 45 44  1  0  0  0  0
 47 45  1  0  0  0  0
 50 47  1  6  0  0  0
 51 50  1  0  0  0  0
 52 49  1  6  0  0  0
 52 50  1  0  0  0  0
 53 55  1  1  0  0  0
 53 54  1  0  0  0  0
 53 52  1  0  0  0  0
 54 48  1  6  0  0  0
 54 56  1  0  0  0  0
 56 51  1  1  0  0  0
 56 62  1  0  0  0  0
 58 59  1  0  0  0  0
 60 63  1  0  0  0  0
 61 58  1  0  0  0  0
 61 63  1  0  0  0  0
 62 59  1  6  0  0  0
 62 65  1  0  0  0  0
 63 64  1  0  0  0  0
 63 57  1  0  0  0  0
 64 65  1  0  0  0  0
M  END
>  <MODEL>
6

>  <REMARK>
 VINA RESULT:      -6.1      1.646      2.429
  Name = 
  14 active torsions:
  status: ('A' for Active; 'I' for Inactive)
    1  A    between atoms: C_3  and  C_17
    2  A    between atoms: N_11  and  C_24
    3  A    between atoms: N_11  and  C_50
    4  A    between atoms: N_13  and  C_43
    5  A    between atoms: N_19  and  C_65
    6  A    between atoms: C_23  and  C_31
    7  A    between atoms: C_23  and  C_36
    8  A    between atoms: C_24  and  C_25
    9  A    between atoms: C_25  and  C_42
   10  A    between atoms: C_28  and  N_45
   11  A    between atoms: C_29  and  C_35
   12  A    between atoms: C_29  and  C_36
   13  A    between atoms: C_31  and  C_32
   14  A    between atoms: C_35  and  N_45
                            x       y       z     vdW  Elec       q    Type
                         _______ _______ _______ _____ _____    ______ ____

>  <TORSDO>
F 14

$$$$
=
 OpenBabel10232410073D

 65 71  0  0  1  0  0  0  0  0999 V2000
  194.1410  173.0020  136.7950 C   0  0  0  0  0  3  0  0  0  0  0  0
  191.8730  173.6530  136.6210 C   0  0  0  0  0  0  0  0  0  0  0  0
  192.5520  171.8990  135.0780 C   0  0  0  0  0  0  0  0  0  0  0  0
  193.5430  171.0730  134.5660 O   0  0  0  0  0  1  0  0  0  0  0  0
  192.3930  174.5160  137.7150 C   0  0  1  0  0  3  0  0  0  0  0  0
  192.8420  172.8150  136.1120 C   0  0  0  0  0  0  0  0  0  0  0  0
  190.2750  172.6790  135.1200 C   0  0  0  0  0  0  0  0  0  0  0  0
  188.5180  173.8180  135.7080 C   0  0  0  0  0  0  0  0  0  0  0  0
  189.5170  174.2440  136.4620 O   0  0  0  0  0  0  0  0  0  0  0  0
  191.2380  171.8260  134.5670 C   0  0  0  0  0  3  0  0  0  0  0  0
  188.9370  172.8150  134.8230 C   0  0  0  0  0  3  0  0  0  0  0  0
  190.5780  173.5660  136.1170 C   0  0  0  0  0  0  0  0  0  0  0  0
  193.8420  174.0270  137.9000 C   0  0  0  0  0  3  0  0  0  0  0  0
  187.1320  174.3960  135.7950 C   0  0  2  0  0  3  0  0  0  0  0  0
  187.0090  175.6100  134.8880 C   0  0  0  0  0  1  0  0  0  0  0  0
  186.7370  174.7830  137.2180 C   0  0  0  0  0  2  0  0  0  0  0  0
  184.2470  174.5430  137.4280 C   0  0  0  0  0  0  0  0  0  0  0  0
  185.3990  175.3770  137.2250 N   0  0  0  0  0  0  0  0  0  0  0  0
  182.9530  175.1350  137.5700 N   0  0  0  0  0  2  0  0  0  0  0  0
  184.3740  173.2880  137.4830 O   0  0  0  0  0  0  0  0  0  0  0  0
  181.3930  177.2820  139.1140 C   0  0  0  0  0  2  0  0  0  0  0  0
  180.6620  175.0970  138.5470 C   0  0  0  0  0  2  0  0  0  0  0  0
  181.2280  178.8030  138.9570 C   0  0  1  0  0  3  0  0  0  0  0  0
  180.3440  178.3920  136.6040 C   0  0  1  0  0  3  0  0  0  0  0  0
  181.7280  174.3560  137.7210 C   0  0  1  0  0  3  0  0  0  0  0  0
  180.4730  176.5320  138.2540 N   0  0  2  0  0  0  0  0  0  0  0  0
  180.9480  174.9770  135.3530 C   0  0  0  0  0  2  0  0  0  0  0  0
  180.7140  176.9240  136.8510 C   0  0  1  0  0  3  0  0  0  0  0  0
  181.1740  173.8660  136.3770 C   0  0  0  0  0  2  0  0  0  0  0  0
  179.9820  176.0330  135.8610 C   0  0  0  0  0  2  0  0  0  0  0  0
  180.1640  180.5510  137.6740 O   0  0  0  0  0  1  0  0  0  0  0  0
  180.1600  179.1750  137.9160 C   0  0  2  0  0  3  0  0  0  0  0  0
  181.3320  178.9820  135.8090 O   0  0  0  0  0  1  0  0  0  0  0  0
  180.9290  179.4290  140.2810 C   0  0  0  0  0  0  0  0  0  0  0  0
  180.9880  179.3210  142.8000 C   0  0  0  0  0  1  0  0  0  0  0  0
  181.2730  178.7510  141.4930 N   0  0  0  0  0  2  0  0  0  0  0  0
  180.3410  180.5440  140.3180 O   0  0  0  0  0  0  0  0  0  0  0  0
  185.6810  177.6780  137.9380 C   0  0  0  0  0  2  0  0  0  0  0  0
  185.2130  176.7930  137.0660 C   0  0  0  0  0  3  0  0  0  0  0  0
  193.4530  176.6630  137.9680 O   0  0  0  0  0  1  0  0  0  0  0  0
  192.3660  176.0150  137.3800 C   0  0  2  0  0  3  0  0  0  0  0  0
  191.0600  176.7000  137.7770 C   0  0  0  0  0  2  0  0  0  0  0  0
  190.8740  176.6780  139.2860 C   0  0  0  0  0  2  0  0  0  0  0  0
  189.9840  177.8260  139.7680 C   0  0  0  0  0  2  0  0  0  0  0  0
  189.5000  177.6880  141.2130 C   0  0  2  0  0  3  0  0  0  0  0  0
  189.9160  178.8810  142.0540 C   0  0  0  0  0  1  0  0  0  0  0  0
  189.9710  176.4490  141.8150 N   0  0  0  0  0  2  0  0  0  0  0  0
  189.3710  178.0370  147.1370 C   0  0  0  0  0  1  0  0  0  0  0  0
  192.0820  177.0460  143.3410 F   0  0  0  0  0  0  0  0  0  0  0  0
  189.7290  176.5370  143.2470 C   0  0  2  0  0  3  0  0  0  0  0  0
  189.0530  177.7340  143.5530 O   0  0  0  0  0  0  0  0  0  0  0  0
  191.0430  176.4500  144.0350 C   0  0  2  0  0  3  0  0  0  0  0  0
  190.9170  177.1280  145.4030 C   0  0  1  0  0  3  0  0  0  0  0  0
  189.4740  177.1380  145.9210 C   0  0  2  0  0  3  0  0  0  0  0  0
  191.7550  176.4900  146.3180 O   0  0  0  0  0  1  0  0  0  0  0  0
  188.4650  177.5990  144.8400 C   0  0  2  0  0  3  0  0  0  0  0  0
  183.8890  178.1320  144.8680 C   0  0  0  0  0  1  0  0  0  0  0  0
  186.2530  178.0780  146.7080 C   0  0  0  0  0  2  0  0  0  0  0  0
  186.4920  176.7080  146.0510 C   0  0  0  0  0  2  0  0  0  0  0  0
  184.6110  180.3200  144.0350 C   0  0  0  0  0  1  0  0  0  0  0  0
  185.9830  179.2600  145.7670 C   0  0  0  0  0  2  0  0  0  0  0  0
  187.2800  176.7150  144.8100 N   0  0  1  0  0  0  0  0  0  0  0  0
  185.1120  178.9830  144.5410 C   0  0  0  0  0  0  0  0  0  0  0  0
  185.9600  178.3690  143.4290 C   0  0  0  0  0  2  0  0  0  0  0  0
  186.3810  176.9130  143.6640 C   0  0  0  0  0  2  0  0  0  0  0  0
  1 13  2  0  0  0  0
  2  5  1  0  0  0  0
  3  6  1  0  0  0  0
  4  3  1  0  0  0  0
  5 41  1  6  0  0  0
  5 13  1  0  0  0  0
  6  2  2  0  0  0  0
  6  1  1  0  0  0  0
  7 12  2  0  0  0  0
  8 14  1  0  0  0  0
  8  9  1  0  0  0  0
 10  3  2  0  0  0  0
 10  7  1  0  0  0  0
 11  7  1  0  0  0  0
 11  8  2  0  0  0  0
 12  9  1  0  0  0  0
 12  2  1  0  0  0  0
 14 15  1  6  0  0  0
 14 16  1  0  0  0  0
 16 18  1  0  0  0  0
 17 20  2  0  0  0  0
 17 19  1  0  0  0  0
 18 17  1  0  0  0  0
 23 21  1  0  0  0  0
 23 34  1  1  0  0  0
 24 33  1  6  0  0  0
 24 28  1  0  0  0  0
 24 32  1  0  0  0  0
 25 19  1  6  0  0  0
 25 22  1  0  0  0  0
 26 22  1  6  0  0  0
 26 21  1  0  0  0  0
 27 30  1  0  0  0  0
 27 29  1  0  0  0  0
 28 30  1  6  0  0  0
 28 26  1  0  0  0  0
 29 25  1  0  0  0  0
 32 31  1  6  0  0  0
 32 23  1  0  0  0  0
 34 37  2  0  0  0  0
 34 36  1  0  0  0  0
 36 35  1  0  0  0  0
 39 18  1  0  0  0  0
 39 38  2  0  0  0  0
 41 42  1  0  0  0  0
 41 40  1  1  0  0  0
 42 43  1  0  0  0  0
 43 44  1  0  0  0  0
 44 45  1  0  0  0  0
 45 47  1  0  0  0  0
 45 46  1  1  0  0  0
 50 47  1  6  0  0  0
 50 51  1  0  0  0  0
 50 52  1  0  0  0  0
 52 49  1  6  0  0  0
 52 53  1  0  0  0  0
 53 54  1  0  0  0  0
 53 55  1  1  0  0  0
 54 48  1  1  0  0  0
 56 51  1  6  0  0  0
 56 54  1  0  0  0  0
 59 58  1  0  0  0  0
 60 63  1  0  0  0  0
 61 58  1  0  0  0  0
 62 65  1  6  0  0  0
 62 56  1  0  0  0  0
 62 59  1  0  0  0  0
 63 57  1  0  0  0  0
 63 61  1  0  0  0  0
 64 65  1  0  0  0  0
 64 63  1  0  0  0  0
M  END
>  <MODEL>
7

>  <REMARK>
 VINA RESULT:      -6.0      2.425      9.222
  Name = 
  14 active torsions:
  status: ('A' for Active; 'I' for Inactive)
    1  A    between atoms: C_3  and  C_17
    2  A    between atoms: N_11  and  C_24
    3  A    between atoms: N_11  and  C_50
    4  A    between atoms: N_13  and  C_43
    5  A    between atoms: N_19  and  C_65
    6  A    between atoms: C_23  and  C_31
    7  A    between atoms: C_23  and  C_36
    8  A    between atoms: C_24  and  C_25
    9  A    between atoms: C_25  and  C_42
   10  A    between atoms: C_28  and  N_45
   11  A    between atoms: C_29  and  C_35
   12  A    between atoms: C_29  and  C_36
   13  A    between atoms: C_31  and  C_32
   14  A    between atoms: C_35  and  N_45
                            x       y       z     vdW  Elec       q    Type
                         _______ _______ _______ _____ _____    ______ ____

>  <TORSDO>
F 14

$$$$
=
 OpenBabel10232410073D

 65 71  0  0  1  0  0  0  0  0999 V2000
  191.6260  177.7140  145.2950 C   0  0  0  0  0  3  0  0  0  0  0  0
  189.3780  178.1570  144.7040 C   0  0  0  0  0  0  0  0  0  0  0  0
  189.6620  176.9130  146.7760 C   0  0  0  0  0  0  0  0  0  0  0  0
  190.4990  176.3030  147.7010 O   0  0  0  0  0  1  0  0  0  0  0  0
  190.1520  178.7940  143.6050 C   0  0  1  0  0  3  0  0  0  0  0  0
  190.1960  177.5600  145.6390 C   0  0  0  0  0  0  0  0  0  0  0  0
  187.4650  177.5280  146.0080 C   0  0  0  0  0  0  0  0  0  0  0  0
  185.9050  178.3910  144.7600 C   0  0  0  0  0  0  0  0  0  0  0  0
  187.0570  178.6560  144.1670 O   0  0  0  0  0  0  0  0  0  0  0  0
  188.2640  176.8950  146.9680 C   0  0  0  0  0  3  0  0  0  0  0  0
  186.0960  177.6670  145.9460 C   0  0  0  0  0  3  0  0  0  0  0  0
  188.0010  178.1420  144.9080 C   0  0  0  0  0  0  0  0  0  0  0  0
  191.6180  178.5950  144.0360 C   0  0  0  0  0  3  0  0  0  0  0  0
  184.5800  178.7970  144.1780 C   0  0  2  0  0  3  0  0  0  0  0  0
  183.6140  179.1850  145.2850 C   0  0  0  0  0  1  0  0  0  0  0  0
  183.9510  177.7080  143.3130 C   0  0  0  0  0  2  0  0  0  0  0  0
  183.8310  179.0440  141.1910 C   0  0  0  0  0  0  0  0  0  0  0  0
  183.1670  178.3120  142.2330 N   0  0  0  0  0  0  0  0  0  0  0  0
  183.0850  179.5190  140.0670 N   0  0  0  0  0  2  0  0  0  0  0  0
  185.0710  179.2680  141.2630 O   0  0  0  0  0  0  0  0  0  0  0  0
  183.7810  177.1510  138.2390 C   0  0  0  0  0  2  0  0  0  0  0  0
  184.2350  179.4480  137.8580 C   0  0  0  0  0  2  0  0  0  0  0  0
  183.0360  175.8730  137.8170 C   0  0  1  0  0  3  0  0  0  0  0  0
  181.1660  177.3470  136.9130 C   0  0  1  0  0  3  0  0  0  0  0  0
  183.6730  180.3190  138.9960 C   0  0  1  0  0  3  0  0  0  0  0  0
  183.4070  178.3080  137.4210 N   0  0  2  0  0  0  0  0  0  0  0  0
  181.3580  180.8570  138.0220 C   0  0  0  0  0  2  0  0  0  0  0  0
  181.9480  178.5120  137.5320 C   0  0  1  0  0  3  0  0  0  0  0  0
  182.7140  181.3960  138.4740 C   0  0  0  0  0  2  0  0  0  0  0  0
  181.4930  179.8250  136.9160 C   0  0  0  0  0  2  0  0  0  0  0  0
  181.2760  174.9830  136.4230 O   0  0  0  0  0  1  0  0  0  0  0  0
  182.0570  176.1170  136.6580 C   0  0  2  0  0  3  0  0  0  0  0  0
  180.0980  177.0190  137.7540 O   0  0  0  0  0  1  0  0  0  0  0  0
  184.0150  174.7950  137.4760 C   0  0  0  0  0  0  0  0  0  0  0  0
  186.1060  174.0590  136.2730 C   0  0  0  0  0  1  0  0  0  0  0  0
  185.1380  175.0820  136.6380 N   0  0  0  0  0  2  0  0  0  0  0  0
  183.8210  173.6270  137.9070 O   0  0  0  0  0  0  0  0  0  0  0  0
  180.9560  178.3670  143.2270 C   0  0  0  0  0  2  0  0  0  0  0  0
  181.7390  178.1590  142.1760 C   0  0  0  0  0  3  0  0  0  0  0  0
  188.5650  178.3100  141.8610 O   0  0  0  0  0  1  0  0  0  0  0  0
  189.9020  178.1580  142.2290 C   0  0  2  0  0  3  0  0  0  0  0  0
  190.3090  176.6880  142.1600 C   0  0  0  0  0  2  0  0  0  0  0  0
  190.5480  176.2590  140.7210 C   0  0  0  0  0  2  0  0  0  0  0  0
  191.4180  177.2630  139.9630 C   0  0  0  0  0  2  0  0  0  0  0  0
  192.8070  176.7410  139.5880 C   0  0  2  0  0  3  0  0  0  0  0  0
  193.9010  177.5010  140.3160 C   0  0  0  0  0  1  0  0  0  0  0  0
  193.0220  176.7880  138.1490 N   0  0  0  0  0  2  0  0  0  0  0  0
  192.5560  172.1830  135.0200 C   0  0  0  0  0  1  0  0  0  0  0  0
  190.9140  176.3900  136.5550 F   0  0  0  0  0  0  0  0  0  0  0  0
  192.8460  175.4390  137.6340 C   0  0  2  0  0  3  0  0  0  0  0  0
  193.7830  175.1820  136.6130 O   0  0  0  0  0  0  0  0  0  0  0  0
  191.4180  175.2280  137.1120 C   0  0  2  0  0  3  0  0  0  0  0  0
  191.3700  174.1190  136.0580 C   0  0  1  0  0  3  0  0  0  0  0  0
  192.5010  173.0970  136.2290 C   0  0  2  0  0  3  0  0  0  0  0  0
  190.1310  173.4810  136.1090 O   0  0  0  0  0  1  0  0  0  0  0  0
  193.8780  173.7760  136.4370 C   0  0  2  0  0  3  0  0  0  0  0  0
  198.2840  172.8540  137.4160 C   0  0  0  0  0  1  0  0  0  0  0  0
  195.9690  171.8090  135.8270 C   0  0  0  0  0  2  0  0  0  0  0  0
  195.2580  171.8570  137.1900 C   0  0  0  0  0  2  0  0  0  0  0  0
  198.5340  174.6880  135.8110 C   0  0  0  0  0  1  0  0  0  0  0  0
  196.7430  173.0650  135.4040 C   0  0  0  0  0  2  0  0  0  0  0  0
  194.6220  173.1340  137.5420 N   0  0  1  0  0  0  0  0  0  0  0  0
  197.5170  173.8010  136.4990 C   0  0  0  0  0  0  0  0  0  0  0  0
  196.5730  174.7170  137.2770 C   0  0  0  0  0  2  0  0  0  0  0  0
  195.6020  173.9960  138.2190 C   0  0  0  0  0  2  0  0  0  0  0  0
  1  6  1  0  0  0  0
  2 12  2  0  0  0  0
  2  6  1  0  0  0  0
  3 10  1  0  0  0  0
  3  4  1  0  0  0  0
  5 41  1  6  0  0  0
  5 13  1  0  0  0  0
  5  2  1  0  0  0  0
  6  3  2  0  0  0  0
  7 10  2  0  0  0  0
  8 11  2  0  0  0  0
  9  8  1  0  0  0  0
  9 12  1  0  0  0  0
 11  7  1  0  0  0  0
 12  7  1  0  0  0  0
 13  1  2  0  0  0  0
 14  8  1  0  0  0  0
 14 15  1  1  0  0  0
 16 14  1  0  0  0  0
 17 20  2  0  0  0  0
 17 18  1  0  0  0  0
 18 16  1  0  0  0  0
 19 17  1  0  0  0  0
 22 25  1  0  0  0  0
 23 34  1  6  0  0  0
 23 21  1  0  0  0  0
 24 28  1  0  0  0  0
 24 33  1  1  0  0  0
 25 19  1  1  0  0  0
 26 28  1  0  0  0  0
 26 22  1  1  0  0  0
 26 21  1  0  0  0  0
 27 29  1  0  0  0  0
 28 30  1  6  0  0  0
 29 25  1  0  0  0  0
 30 27  1  0  0  0  0
 32 31  1  1  0  0  0
 32 24  1  0  0  0  0
 32 23  1  0  0  0  0
 34 37  2  0  0  0  0
 35 36  1  0  0  0  0
 36 34  1  0  0  0  0
 39 18  1  0  0  0  0
 39 38  2  0  0  0  0
 41 40  1  1  0  0  0
 42 41  1  0  0  0  0
 43 42  1  0  0  0  0
 44 43  1  0  0  0  0
 45 44  1  0  0  0  0
 45 46  1  1  0  0  0
 47 45  1  0  0  0  0
 50 47  1  6  0  0  0
 51 50  1  0  0  0  0
 52 49  1  6  0  0  0
 52 50  1  0  0  0  0
 53 55  1  1  0  0  0
 53 54  1  0  0  0  0
 53 52  1  0  0  0  0
 54 48  1  6  0  0  0
 54 56  1  0  0  0  0
 56 51  1  1  0  0  0
 56 62  1  0  0  0  0
 58 59  1  0  0  0  0
 60 63  1  0  0  0  0
 61 58  1  0  0  0  0
 61 63  1  0  0  0  0
 62 59  1  6  0  0  0
 62 65  1  0  0  0  0
 63 64  1  0  0  0  0
 63 57  1  0  0  0  0
 64 65  1  0  0  0  0
M  END
>  <MODEL>
8

>  <REMARK>
 VINA RESULT:      -5.9      1.515      2.088
  Name = 
  14 active torsions:
  status: ('A' for Active; 'I' for Inactive)
    1  A    between atoms: C_3  and  C_17
    2  A    between atoms: N_11  and  C_24
    3  A    between atoms: N_11  and  C_50
    4  A    between atoms: N_13  and  C_43
    5  A    between atoms: N_19  and  C_65
    6  A    between atoms: C_23  and  C_31
    7  A    between atoms: C_23  and  C_36
    8  A    between atoms: C_24  and  C_25
    9  A    between atoms: C_25  and  C_42
   10  A    between atoms: C_28  and  N_45
   11  A    between atoms: C_29  and  C_35
   12  A    between atoms: C_29  and  C_36
   13  A    between atoms: C_31  and  C_32
   14  A    between atoms: C_35  and  N_45
                            x       y       z     vdW  Elec       q    Type
                         _______ _______ _______ _____ _____    ______ ____

>  <TORSDO>
F 14

$$$$
=
 OpenBabel10232410073D

 65 71  0  0  1  0  0  0  0  0999 V2000
  191.7190  177.7130  145.1810 C   0  0  0  0  0  3  0  0  0  0  0  0
  189.4720  178.1320  144.5670 C   0  0  0  0  0  0  0  0  0  0  0  0
  189.7470  176.7400  146.5440 C   0  0  0  0  0  0  0  0  0  0  0  0
  190.5800  176.0860  147.4410 O   0  0  0  0  0  1  0  0  0  0  0  0
  190.2510  178.8750  143.5410 C   0  0  1  0  0  3  0  0  0  0  0  0
  190.2860  177.4890  145.4740 C   0  0  0  0  0  0  0  0  0  0  0  0
  187.5490  177.3460  145.7680 C   0  0  0  0  0  0  0  0  0  0  0  0
  185.9930  178.2560  144.5500 C   0  0  0  0  0  0  0  0  0  0  0  0
  187.1490  178.6010  144.0100 O   0  0  0  0  0  0  0  0  0  0  0  0
  188.3450  176.6650  146.6970 C   0  0  0  0  0  3  0  0  0  0  0  0
  186.1790  177.4480  145.6820 C   0  0  0  0  0  3  0  0  0  0  0  0
  188.0920  178.0600  144.7340 C   0  0  0  0  0  0  0  0  0  0  0  0
  191.7110  178.6880  143.9940 C   0  0  0  0  0  3  0  0  0  0  0  0
  184.6700  178.6660  143.9660 C   0  0  2  0  0  3  0  0  0  0  0  0
  183.6560  178.9070  145.0740 C   0  0  0  0  0  1  0  0  0  0  0  0
  184.1120  177.6430  142.9800 C   0  0  0  0  0  2  0  0  0  0  0  0
  183.7430  179.0710  140.9480 C   0  0  0  0  0  0  0  0  0  0  0  0
  183.2060  178.2980  142.0340 N   0  0  0  0  0  0  0  0  0  0  0  0
  182.8690  179.5990  139.9470 N   0  0  0  0  0  2  0  0  0  0  0  0
  184.9850  179.2840  140.8740 O   0  0  0  0  0  0  0  0  0  0  0  0
  183.6740  177.2900  138.0890 C   0  0  0  0  0  2  0  0  0  0  0  0
  183.9040  179.6160  137.6820 C   0  0  0  0  0  2  0  0  0  0  0  0
  183.0240  175.9490  137.7080 C   0  0  1  0  0  3  0  0  0  0  0  0
  180.9870  177.2480  136.9010 C   0  0  1  0  0  3  0  0  0  0  0  0
  183.3270  180.4410  138.8460 C   0  0  1  0  0  3  0  0  0  0  0  0
  183.1570  178.4050  137.2900 N   0  0  2  0  0  0  0  0  0  0  0  0
  180.9250  180.7680  137.9940 C   0  0  0  0  0  2  0  0  0  0  0  0
  181.6940  178.4810  137.4770 C   0  0  1  0  0  3  0  0  0  0  0  0
  182.2510  181.4260  138.3730 C   0  0  0  0  0  2  0  0  0  0  0  0
  181.0930  179.7450  136.8840 C   0  0  0  0  0  2  0  0  0  0  0  0
  181.2790  174.9000  136.4090 O   0  0  0  0  0  1  0  0  0  0  0  0
  181.9680  176.1000  136.6020 C   0  0  2  0  0  3  0  0  0  0  0  0
  179.9970  176.8320  137.7970 O   0  0  0  0  0  1  0  0  0  0  0  0
  184.0750  174.9600  137.3170 C   0  0  0  0  0  0  0  0  0  0  0  0
  185.2950  172.7970  137.7560 C   0  0  0  0  0  1  0  0  0  0  0  0
  184.2760  173.7770  138.0960 N   0  0  0  0  0  2  0  0  0  0  0  0
  184.8010  175.1960  136.3150 O   0  0  0  0  0  0  0  0  0  0  0  0
  181.1090  178.5470  143.2250 C   0  0  0  0  0  2  0  0  0  0  0  0
  181.7810  178.1560  142.1490 C   0  0  0  0  0  3  0  0  0  0  0  0
  188.7950  178.6990  141.6320 O   0  0  0  0  0  1  0  0  0  0  0  0
  190.0540  178.3410  142.1140 C   0  0  2  0  0  3  0  0  0  0  0  0
  190.2580  176.8320  142.0010 C   0  0  0  0  0  2  0  0  0  0  0  0
  190.3100  176.4000  140.5440 C   0  0  0  0  0  2  0  0  0  0  0  0
  191.1980  177.3230  139.7060 C   0  0  0  0  0  2  0  0  0  0  0  0
  192.6150  176.7960  139.4720 C   0  0  2  0  0  3  0  0  0  0  0  0
  193.5710  177.2710  140.5510 C   0  0  0  0  0  1  0  0  0  0  0  0
  193.1080  177.1660  138.1530 N   0  0  0  0  0  2  0  0  0  0  0  0
  191.5670  172.3510  135.7750 C   0  0  0  0  0  1  0  0  0  0  0  0
  194.4040  174.8830  138.6550 F   0  0  0  0  0  0  0  0  0  0  0  0
  192.8340  176.0560  137.2530 C   0  0  2  0  0  3  0  0  0  0  0  0
  191.5670  175.5060  137.5320 O   0  0  0  0  0  0  0  0  0  0  0  0
  193.9200  174.9760  137.3620 C   0  0  2  0  0  3  0  0  0  0  0  0
  193.3840  173.6050  136.9400 C   0  0  1  0  0  3  0  0  0  0  0  0
  192.2160  173.7110  135.9520 C   0  0  2  0  0  3  0  0  0  0  0  0
  194.4180  172.8500  136.3870 O   0  0  0  0  0  1  0  0  0  0  0  0
  191.1540  174.7430  136.4070 C   0  0  2  0  0  3  0  0  0  0  0  0
  187.4720  177.2870  135.3140 C   0  0  0  0  0  1  0  0  0  0  0  0
  188.4620  174.4600  135.2730 C   0  0  0  0  0  2  0  0  0  0  0  0
  189.6260  175.0800  134.4820 C   0  0  0  0  0  2  0  0  0  0  0  0
  187.2430  177.1520  137.7490 C   0  0  0  0  0  1  0  0  0  0  0  0
  188.0590  175.1600  136.5780 C   0  0  0  0  0  2  0  0  0  0  0  0
  190.7410  175.6080  135.2810 N   0  0  1  0  0  0  0  0  0  0  0  0
  188.0830  176.6890  136.5770 C   0  0  0  0  0  0  0  0  0  0  0  0
  189.5070  177.1870  136.8190 C   0  0  0  0  0  2  0  0  0  0  0  0
  190.4660  177.0070  135.6360 C   0  0  0  0  0  2  0  0  0  0  0  0
  1  6  1  0  0  0  0
  2 12  2  0  0  0  0
  2  6  1  0  0  0  0
  3 10  1  0  0  0  0
  3  4  1  0  0  0  0
  5 41  1  6  0  0  0
  5 13  1  0  0  0  0
  5  2  1  0  0  0  0
  6  3  2  0  0  0  0
  7 10  2  0  0  0  0
  8 11  2  0  0  0  0
  9  8  1  0  0  0  0
  9 12  1  0  0  0  0
 11  7  1  0  0  0  0
 12  7  1  0  0  0  0
 13  1  2  0  0  0  0
 14  8  1  0  0  0  0
 14 15  1  1  0  0  0
 16 14  1  0  0  0  0
 17 18  1  0  0  0  0
 18 39  1  0  0  0  0
 18 16  1  0  0  0  0
 19 17  1  0  0  0  0
 20 17  2  0  0  0  0
 22 25  1  0  0  0  0
 23 34  1  6  0  0  0
 23 21  1  0  0  0  0
 24 28  1  0  0  0  0
 24 33  1  1  0  0  0
 25 19  1  1  0  0  0
 26 28  1  0  0  0  0
 26 22  1  1  0  0  0
 26 21  1  0  0  0  0
 27 29  1  0  0  0  0
 28 30  1  6  0  0  0
 29 25  1  0  0  0  0
 30 27  1  0  0  0  0
 32 31  1  1  0  0  0
 32 24  1  0  0  0  0
 32 23  1  0  0  0  0
 34 36  1  0  0  0  0
 35 36  1  0  0  0  0
 37 34  2  0  0  0  0
 39 38  2  0  0  0  0
 41 40  1  1  0  0  0
 42 41  1  0  0  0  0
 43 42  1  0  0  0  0
 44 43  1  0  0  0  0
 45 44  1  0  0  0  0
 45 46  1  1  0  0  0
 47 45  1  0  0  0  0
 50 52  1  0  0  0  0
 50 51  1  0  0  0  0
 50 47  1  1  0  0  0
 52 49  1  1  0  0  0
 53 55  1  6  0  0  0
 53 52  1  0  0  0  0
 54 48  1  1  0  0  0
 54 56  1  0  0  0  0
 54 53  1  0  0  0  0
 56 51  1  1  0  0  0
 57 63  1  0  0  0  0
 58 61  1  0  0  0  0
 59 58  1  0  0  0  0
 62 59  1  1  0  0  0
 62 65  1  0  0  0  0
 62 56  1  0  0  0  0
 63 61  1  0  0  0  0
 63 64  1  0  0  0  0
 63 60  1  0  0  0  0
 65 64  1  0  0  0  0
M  END
>  <MODEL>
9

>  <REMARK>
 VINA RESULT:      -5.8      2.054      3.704
  Name = 
  14 active torsions:
  status: ('A' for Active; 'I' for Inactive)
    1  A    between atoms: C_3  and  C_17
    2  A    between atoms: N_11  and  C_24
    3  A    between atoms: N_11  and  C_50
    4  A    between atoms: N_13  and  C_43
    5  A    between atoms: N_19  and  C_65
    6  A    between atoms: C_23  and  C_31
    7  A    between atoms: C_23  and  C_36
    8  A    between atoms: C_24  and  C_25
    9  A    between atoms: C_25  and  C_42
   10  A    between atoms: C_28  and  N_45
   11  A    between atoms: C_29  and  C_35
   12  A    between atoms: C_29  and  C_36
   13  A    between atoms: C_31  and  C_32
   14  A    between atoms: C_35  and  N_45
                            x       y       z     vdW  Elec       q    Type
                         _______ _______ _______ _____ _____    ______ ____

>  <TORSDO>
F 14

$$$$
