=
 OpenBabel10232412213D

 51 54  0  0  1  0  0  0  0  0999 V2000
  188.6140  177.0880  137.3670 C   0  0  2  0  0  0  0  0  0  0  0  0
  188.3650  175.8580  138.2430 C   0  0  0  0  0  1  0  0  0  0  0  0
  187.5190  177.2060  136.2620 C   0  0  1  0  0  3  0  0  0  0  0  0
  186.8500  175.9510  135.8980 C   0  0  0  0  0  0  0  0  0  0  0  0
  185.2250  177.1620  137.0180 O   0  0  0  0  0  0  0  0  0  0  0  0
  187.3520  175.0730  135.2150 O   0  0  0  0  0  0  0  0  0  0  0  0
  186.3150  178.0200  136.7260 C   0  0  0  0  0  2  0  0  0  0  0  0
  185.4390  175.9540  136.3240 C   0  0  1  0  0  3  0  0  0  0  0  0
  184.6040  175.9020  135.2060 O   0  0  0  0  0  0  0  0  0  0  0  0
  183.5620  175.0530  135.5790 C   0  0  0  0  0  2  0  0  0  0  0  0
  184.1270  173.8400  136.2850 C   0  0  0  0  0  2  0  0  0  0  0  0
  182.9920  173.0000  136.8280 C   0  0  0  0  0  1  0  0  0  0  0  0
  190.0360  177.0010  136.7320 C   0  0  2  0  0  3  0  0  0  0  0  0
  190.0120  177.2270  135.3510 O   0  0  0  0  0  1  0  0  0  0  0  0
  190.8200  175.7170  137.0320 C   0  0  0  0  0  2  0  0  0  0  0  0
  190.7370  174.7000  135.9010 C   0  0  0  0  0  2  0  0  0  0  0  0
  192.1230  174.3340  135.3830 C   0  0  0  0  0  2  0  0  0  0  0  0
  193.1640  176.2230  134.3530 O   0  0  0  0  0  1  0  0  0  0  0  0
  193.1460  175.4650  135.5280 C   0  0  2  0  0  3  0  0  0  0  0  0
  195.9090  174.2420  137.8550 C   0  0  0  0  0  2  0  0  0  0  0  0
  195.0490  175.3560  137.2820 C   0  0  2  0  0  3  0  0  0  0  0  0
  193.9960  175.6010  138.1640 O   0  0  0  0  0  1  0  0  0  0  0  0
  197.6280  174.4620  137.4290 S   0  0  0  0  0  0  0  0  0  0  0  0
  198.2680  175.3730  138.4360 O   0  0  0  0  0  0  0  0  0  0  0  0
  195.5630  175.4230  134.8250 C   0  0  0  0  0  2  0  0  0  0  0  0
  197.8420  175.1600  135.8040 C   0  0  0  0  0  2  0  0  0  0  0  0
  194.5580  174.9480  135.8770 C   0  0  2  0  0  3  0  0  0  0  0  0
  196.8320  174.5850  134.8250 C   0  0  0  0  0  2  0  0  0  0  0  0
  198.3110  173.1250  137.4760 O   0  0  0  0  0  0  0  0  0  0  0  0
  188.5140  178.3200  138.2890 C   0  0  0  0  0  2  0  0  0  0  0  0
  188.0800  177.9780  139.7160 C   0  0  2  0  0  3  0  0  0  0  0  0
  186.7170  178.5660  140.0650 C   0  0  0  0  0  1  0  0  0  0  0  0
  189.1120  178.1740  140.6770 O   0  0  0  0  0  0  0  0  0  0  0  0
  189.1840  177.1580  141.6760 C   0  0  2  0  0  3  0  0  0  0  0  0
  185.3070  178.5040  143.4330 C   0  0  0  0  0  3  0  0  0  0  0  0
  190.0600  177.3530  146.7320 C   0  0  0  0  0  1  0  0  0  0  0  0
  187.7140  177.3340  146.0440 C   0  0  0  0  0  2  0  0  0  0  0  0
  189.1070  177.7910  145.6310 C   0  0  2  0  0  3  0  0  0  0  0  0
  187.2550  177.0360  143.2330 C   0  0  0  0  0  2  0  0  0  0  0  0
  185.3590  178.1380  146.2860 C   0  0  0  0  0  2  0  0  0  0  0  0
  188.6500  177.6340  143.0510 C   0  0  1  0  0  3  0  0  0  0  0  0
  189.5740  177.2550  144.2490 C   0  0  1  0  0  3  0  0  0  0  0  0
  184.4210  179.4100  144.2390 C   0  0  0  0  0  2  0  0  0  0  0  0
  184.1310  178.7950  145.6160 C   0  0  0  0  0  2  0  0  0  0  0  0
  186.6520  178.2580  145.4690 C   0  0  2  0  0  3  0  0  0  0  0  0
  186.3820  177.9610  144.0150 C   0  0  0  0  0  0  0  0  0  0  0  0
  191.0310  177.6770  144.0070 C   0  0  0  0  0  2  0  0  0  0  0  0
  191.1810  179.1880  143.8940 C   0  0  0  0  0  1  0  0  0  0  0  0
  190.4560  176.5700  141.7500 O   0  0  0  0  0  0  0  0  0  0  0  0
  191.0840  176.9110  140.5470 C   0  0  0  0  0  2  0  0  0  0  0  0
  192.3260  177.4890  140.8090 O   0  0  0  0  0  1  0  0  0  0  0  0
  1  2  1  1  0  0  0
  1 30  1  0  0  0  0
  3  7  1  0  0  0  0
  3  1  1  1  0  0  0
  4  3  1  0  0  0  0
  4  8  1  0  0  0  0
  6  4  2  0  0  0  0
  7  5  1  0  0  0  0
  8  9  1  6  0  0  0
  8  5  1  0  0  0  0
  9 10  1  0  0  0  0
 10 11  1  0  0  0  0
 11 12  1  0  0  0  0
 13 14  1  6  0  0  0
 13 15  1  0  0  0  0
 13  1  1  0  0  0  0
 16 15  1  0  0  0  0
 17 19  1  0  0  0  0
 17 16  1  0  0  0  0
 19 18  1  6  0  0  0
 21 20  1  0  0  0  0
 21 22  1  1  0  0  0
 23 29  2  0  0  0  0
 23 20  1  0  0  0  0
 23 24  2  0  0  0  0
 25 27  1  0  0  0  0
 26 23  1  0  0  0  0
 27 19  1  6  0  0  0
 27 21  1  0  0  0  0
 28 25  1  0  0  0  0
 28 26  1  0  0  0  0
 30 31  1  0  0  0  0
 31 32  1  1  0  0  0
 31 33  1  0  0  0  0
 34 33  1  6  0  0  0
 34 49  1  0  0  0  0
 35 46  2  0  0  0  0
 35 43  1  0  0  0  0
 38 37  1  0  0  0  0
 38 36  1  1  0  0  0
 39 46  1  0  0  0  0
 41 34  1  6  0  0  0
 41 39  1  0  0  0  0
 41 42  1  0  0  0  0
 42 47  1  6  0  0  0
 42 38  1  0  0  0  0
 43 44  1  0  0  0  0
 44 40  1  0  0  0  0
 45 37  1  1  0  0  0
 45 40  1  0  0  0  0
 46 45  1  0  0  0  0
 48 47  1  0  0  0  0
 50 51  1  0  0  0  0
 50 49  1  0  0  0  0
M  END
>  <MODEL>
1

>  <REMARK>
 VINA RESULT:      -7.7      0.000      0.000
  Name = 
  18 active torsions:
  status: ('A' for Active; 'I' for Inactive)
    1  A    between atoms: C_1  and  C_4
    2  A    between atoms: C_1  and  C_10
    3  A    between atoms: C_4  and  C_9
    4  A    between atoms: C_5  and  C_9
    5  A    between atoms: C_9  and  C_38
    6  A    between atoms: C_10  and  C_43
    7  A    between atoms: C_11  and  O_15
    8  A    between atoms: C_11  and  C_38
    9  A    between atoms: O_15  and  C_26
   10  A    between atoms: O_18  and  C_19
   11  A    between atoms: O_18  and  C_45
   12  A    between atoms: C_19  and  C_21
   13  A    between atoms: C_22  and  O_47
   14  A    between atoms: C_26  and  C_34
   15  A    between atoms: C_26  and  O_47
   16  A    between atoms: C_29  and  C_35
   17  A    between atoms: C_37  and  C_50
   18  A    between atoms: C_43  and  C_50
                            x       y       z     vdW  Elec       q    Type
                         _______ _______ _______ _____ _____    ______ ____

>  <TORSDO>
F 18

$$$$
=
 OpenBabel10232412213D

 51 54  0  0  1  0  0  0  0  0999 V2000
  189.2540  177.2080  137.9050 C   0  0  2  0  0  0  0  0  0  0  0  0
  189.5790  177.8560  136.5570 C   0  0  0  0  0  1  0  0  0  0  0  0
  190.3020  176.1050  138.2510 C   0  0  1  0  0  3  0  0  0  0  0  0
  190.9650  175.4790  137.1000 C   0  0  0  0  0  0  0  0  0  0  0  0
  192.6250  176.7480  138.0980 O   0  0  0  0  0  0  0  0  0  0  0  0
  190.4420  174.6590  136.3640 O   0  0  0  0  0  0  0  0  0  0  0  0
  191.5170  176.6700  138.9780 C   0  0  0  0  0  2  0  0  0  0  0  0
  192.3920  175.8420  137.0440 C   0  0  1  0  0  3  0  0  0  0  0  0
  193.1810  174.7040  137.2220 O   0  0  0  0  0  0  0  0  0  0  0  0
  194.4630  175.0940  136.8340 C   0  0  0  0  0  2  0  0  0  0  0  0
  195.4570  174.0210  137.2220 C   0  0  0  0  0  2  0  0  0  0  0  0
  195.4430  173.8440  138.7240 C   0  0  0  0  0  1  0  0  0  0  0  0
  187.8140  176.6120  137.8660 C   0  0  2  0  0  3  0  0  0  0  0  0
  187.8200  175.2280  137.6540 O   0  0  0  0  0  1  0  0  0  0  0  0
  186.8440  177.2800  136.8830 C   0  0  0  0  0  2  0  0  0  0  0  0
  185.7280  176.3470  136.4330 C   0  0  0  0  0  2  0  0  0  0  0  0
  184.6600  177.1010  135.6470 C   0  0  0  0  0  2  0  0  0  0  0  0
  182.3720  177.0000  134.9640 O   0  0  0  0  0  1  0  0  0  0  0  0
  183.2300  176.7080  136.0290 C   0  0  2  0  0  3  0  0  0  0  0  0
  182.4290  176.8850  139.7540 C   0  0  0  0  0  2  0  0  0  0  0  0
  182.0990  176.4280  138.3420 C   0  0  2  0  0  3  0  0  0  0  0  0
  182.5390  175.1120  138.1890 O   0  0  0  0  0  1  0  0  0  0  0  0
  181.2020  178.0240  140.3710 S   0  0  0  0  0  0  0  0  0  0  0  0
  180.0680  177.2420  140.9700 O   0  0  0  0  0  0  0  0  0  0  0  0
  181.7840  178.5250  136.9990 C   0  0  0  0  0  2  0  0  0  0  0  0
  180.5570  179.0880  139.0960 C   0  0  0  0  0  2  0  0  0  0  0  0
  182.7550  177.3890  137.3300 C   0  0  2  0  0  3  0  0  0  0  0  0
  181.6560  179.5210  138.1410 C   0  0  0  0  0  2  0  0  0  0  0  0
  181.8280  178.8720  141.4410 O   0  0  0  0  0  0  0  0  0  0  0  0
  189.3450  178.3210  138.9680 C   0  0  0  0  0  2  0  0  0  0  0  0
  188.6780  177.9520  140.2950 C   0  0  2  0  0  3  0  0  0  0  0  0
  187.2640  178.5110  140.4080 C   0  0  0  0  0  1  0  0  0  0  0  0
  189.5240  178.1540  141.4220 O   0  0  0  0  0  0  0  0  0  0  0  0
  189.3740  177.1760  142.4500 C   0  0  2  0  0  3  0  0  0  0  0  0
  185.2310  178.4940  143.4600 C   0  0  0  0  0  3  0  0  0  0  0  0
  189.4070  177.7230  147.5550 C   0  0  0  0  0  1  0  0  0  0  0  0
  187.2070  177.5780  146.5000 C   0  0  0  0  0  2  0  0  0  0  0  0
  188.6360  178.0560  146.2870 C   0  0  2  0  0  3  0  0  0  0  0  0
  187.2200  177.0850  143.6800 C   0  0  0  0  0  2  0  0  0  0  0  0
  184.8250  178.3120  146.3030 C   0  0  0  0  0  2  0  0  0  0  0  0
  188.6110  177.7190  143.6850 C   0  0  1  0  0  3  0  0  0  0  0  0
  189.3360  177.4500  145.0390 C   0  0  1  0  0  3  0  0  0  0  0  0
  184.2030  179.4180  144.0490 C   0  0  0  0  0  2  0  0  0  0  0  0
  183.7070  178.8820  145.3990 C   0  0  0  0  0  2  0  0  0  0  0  0
  186.2300  178.4250  145.6990 C   0  0  2  0  0  3  0  0  0  0  0  0
  186.2090  178.0270  144.2440 C   0  0  0  0  0  0  0  0  0  0  0  0
  190.8020  177.9070  145.0070 C   0  0  0  0  0  2  0  0  0  0  0  0
  190.9530  179.3200  144.4600 C   0  0  0  0  0  1  0  0  0  0  0  0
  190.5900  176.5560  142.7790 O   0  0  0  0  0  0  0  0  0  0  0  0
  190.2790  175.2010  142.9260 C   0  0  0  0  0  2  0  0  0  0  0  0
  191.2690  174.5660  143.6760 O   0  0  0  0  0  1  0  0  0  0  0  0
  1  2  1  6  0  0  0
  1 30  1  0  0  0  0
  3  1  1  6  0  0  0
  3  7  1  0  0  0  0
  4  3  1  0  0  0  0
  5  7  1  0  0  0  0
  6  4  2  0  0  0  0
  8  4  1  0  0  0  0
  8  9  1  1  0  0  0
  8  5  1  0  0  0  0
 10  9  1  0  0  0  0
 10 11  1  0  0  0  0
 11 12  1  0  0  0  0
 13 14  1  6  0  0  0
 13  1  1  0  0  0  0
 15 13  1  0  0  0  0
 16 15  1  0  0  0  0
 17 19  1  0  0  0  0
 17 16  1  0  0  0  0
 19 18  1  6  0  0  0
 20 23  1  0  0  0  0
 21 22  1  6  0  0  0
 21 20  1  0  0  0  0
 23 24  2  0  0  0  0
 23 29  2  0  0  0  0
 25 27  1  0  0  0  0
 25 28  1  0  0  0  0
 26 23  1  0  0  0  0
 27 19  1  6  0  0  0
 27 21  1  0  0  0  0
 28 26  1  0  0  0  0
 30 31  1  0  0  0  0
 31 32  1  1  0  0  0
 31 33  1  0  0  0  0
 34 33  1  6  0  0  0
 34 49  1  0  0  0  0
 35 43  1  0  0  0  0
 35 46  2  0  0  0  0
 38 37  1  0  0  0  0
 38 36  1  1  0  0  0
 39 41  1  0  0  0  0
 39 46  1  0  0  0  0
 41 34  1  6  0  0  0
 41 42  1  0  0  0  0
 42 47  1  6  0  0  0
 42 38  1  0  0  0  0
 43 44  1  0  0  0  0
 44 40  1  0  0  0  0
 45 40  1  1  0  0  0
 45 37  1  0  0  0  0
 46 45  1  0  0  0  0
 48 47  1  0  0  0  0
 49 50  1  0  0  0  0
 50 51  1  0  0  0  0
M  END
>  <MODEL>
2

>  <REMARK>
 VINA RESULT:      -7.5      3.353      8.229
  Name = 
  18 active torsions:
  status: ('A' for Active; 'I' for Inactive)
    1  A    between atoms: C_1  and  C_4
    2  A    between atoms: C_1  and  C_10
    3  A    between atoms: C_4  and  C_9
    4  A    between atoms: C_5  and  C_9
    5  A    between atoms: C_9  and  C_38
    6  A    between atoms: C_10  and  C_43
    7  A    between atoms: C_11  and  O_15
    8  A    between atoms: C_11  and  C_38
    9  A    between atoms: O_15  and  C_26
   10  A    between atoms: O_18  and  C_19
   11  A    between atoms: O_18  and  C_45
   12  A    between atoms: C_19  and  C_21
   13  A    between atoms: C_22  and  O_47
   14  A    between atoms: C_26  and  C_34
   15  A    between atoms: C_26  and  O_47
   16  A    between atoms: C_29  and  C_35
   17  A    between atoms: C_37  and  C_50
   18  A    between atoms: C_43  and  C_50
                            x       y       z     vdW  Elec       q    Type
                         _______ _______ _______ _____ _____    ______ ____

>  <TORSDO>
F 18

$$$$
=
 OpenBabel10232412213D

 51 54  0  0  1  0  0  0  0  0999 V2000
  190.7020  175.8740  137.5130 C   0  0  2  0  0  0  0  0  0  0  0  0
  190.4580  176.9430  136.4440 C   0  0  0  0  0  1  0  0  0  0  0  0
  192.1160  175.2370  137.3390 C   0  0  1  0  0  3  0  0  0  0  0  0
  192.6690  175.2850  135.9800 C   0  0  0  0  0  0  0  0  0  0  0  0
  193.9720  176.7750  137.1820 O   0  0  0  0  0  0  0  0  0  0  0  0
  192.3060  174.5710  135.0600 O   0  0  0  0  0  0  0  0  0  0  0  0
  193.1950  176.0120  138.0880 C   0  0  0  0  0  2  0  0  0  0  0  0
  193.8290  176.1920  135.9060 C   0  0  1  0  0  3  0  0  0  0  0  0
  194.9800  175.4680  135.5910 O   0  0  0  0  0  0  0  0  0  0  0  0
  195.8750  176.4180  135.0960 C   0  0  0  0  0  2  0  0  0  0  0  0
  197.2540  175.8040  134.9890 C   0  0  0  0  0  2  0  0  0  0  0  0
  197.5790  175.0730  136.2730 C   0  0  0  0  0  1  0  0  0  0  0  0
  189.5890  174.7860  137.4300 C   0  0  2  0  0  3  0  0  0  0  0  0
  190.1130  173.4890  137.4960 O   0  0  0  0  0  1  0  0  0  0  0  0
  188.6370  174.8980  136.2320 C   0  0  0  0  0  2  0  0  0  0  0  0
  188.6700  173.6660  135.3380 C   0  0  0  0  0  2  0  0  0  0  0  0
  187.2640  173.2370  134.9350 C   0  0  0  0  0  2  0  0  0  0  0  0
  187.2170  170.9870  135.7390 O   0  0  0  0  0  1  0  0  0  0  0  0
  186.6270  172.2420  135.9110 C   0  0  2  0  0  3  0  0  0  0  0  0
  183.0140  173.1610  136.7170 C   0  0  0  0  0  2  0  0  0  0  0  0
  184.3150  172.4540  137.0600 C   0  0  2  0  0  3  0  0  0  0  0  0
  185.0360  173.2590  137.9430 O   0  0  0  0  0  1  0  0  0  0  0  0
  181.6920  171.9930  136.4460 S   0  0  0  0  0  0  0  0  0  0  0  0
  181.0690  171.6460  137.7670 O   0  0  0  0  0  0  0  0  0  0  0  0
  184.6930  170.7860  135.2220 C   0  0  0  0  0  2  0  0  0  0  0  0
  182.2560  170.4940  135.6650 C   0  0  0  0  0  2  0  0  0  0  0  0
  185.0930  172.1620  135.7600 C   0  0  2  0  0  3  0  0  0  0  0  0
  183.3030  170.7920  134.6060 C   0  0  0  0  0  2  0  0  0  0  0  0
  180.6550  172.6350  135.5700 O   0  0  0  0  0  0  0  0  0  0  0  0
  190.6520  176.5890  138.8780 C   0  0  0  0  0  2  0  0  0  0  0  0
  189.3000  177.2400  139.1760 C   0  0  2  0  0  3  0  0  0  0  0  0
  189.2360  178.6880  138.7020 C   0  0  0  0  0  1  0  0  0  0  0  0
  188.8390  176.9920  140.4990 O   0  0  0  0  0  0  0  0  0  0  0  0
  188.0460  178.0430  141.0500 C   0  0  2  0  0  3  0  0  0  0  0  0
  185.3700  178.4170  144.6040 C   0  0  0  0  0  3  0  0  0  0  0  0
  191.1590  177.3870  145.0800 C   0  0  0  0  0  1  0  0  0  0  0  0
  188.7660  177.1450  145.5160 C   0  0  0  0  0  2  0  0  0  0  0  0
  189.7850  177.8800  144.6550 C   0  0  2  0  0  3  0  0  0  0  0  0
  187.0680  177.3290  143.2170 C   0  0  0  0  0  2  0  0  0  0  0  0
  186.7580  177.5190  146.9580 C   0  0  0  0  0  2  0  0  0  0  0  0
  188.1900  178.1560  142.5890 C   0  0  1  0  0  3  0  0  0  0  0  0
  189.5810  177.6980  143.1250 C   0  0  1  0  0  3  0  0  0  0  0  0
  184.9180  179.0050  145.9100 C   0  0  0  0  0  2  0  0  0  0  0  0
  185.3300  178.0980  147.0800 C   0  0  0  0  0  2  0  0  0  0  0  0
  187.5160  177.9900  145.7110 C   0  0  2  0  0  3  0  0  0  0  0  0
  186.6160  177.9420  144.5010 C   0  0  0  0  0  0  0  0  0  0  0  0
  190.7370  178.3760  142.3750 C   0  0  0  0  0  2  0  0  0  0  0  0
  191.8860  177.4150  142.0990 C   0  0  0  0  0  1  0  0  0  0  0  0
  186.7090  177.9840  140.6230 O   0  0  0  0  0  0  0  0  0  0  0  0
  186.1440  179.1960  141.0330 C   0  0  0  0  0  2  0  0  0  0  0  0
  185.1180  179.5590  140.1600 O   0  0  0  0  0  1  0  0  0  0  0  0
  1  2  1  6  0  0  0
  1 30  1  0  0  0  0
  3  1  1  6  0  0  0
  3  7  1  0  0  0  0
  4  3  1  0  0  0  0
  5  7  1  0  0  0  0
  6  4  2  0  0  0  0
  8  9  1  1  0  0  0
  8  4  1  0  0  0  0
  8  5  1  0  0  0  0
 10  9  1  0  0  0  0
 11 10  1  0  0  0  0
 11 12  1  0  0  0  0
 13 14  1  6  0  0  0
 13  1  1  0  0  0  0
 15 13  1  0  0  0  0
 16 15  1  0  0  0  0
 17 16  1  0  0  0  0
 17 19  1  0  0  0  0
 19 18  1  6  0  0  0
 20 21  1  0  0  0  0
 21 22  1  1  0  0  0
 23 20  1  0  0  0  0
 23 24  2  0  0  0  0
 25 27  1  0  0  0  0
 26 23  1  0  0  0  0
 27 19  1  1  0  0  0
 27 21  1  0  0  0  0
 28 25  1  0  0  0  0
 28 26  1  0  0  0  0
 29 23  2  0  0  0  0
 30 31  1  0  0  0  0
 31 32  1  1  0  0  0
 31 33  1  0  0  0  0
 34 33  1  1  0  0  0
 35 43  1  0  0  0  0
 38 36  1  1  0  0  0
 38 37  1  0  0  0  0
 39 46  1  0  0  0  0
 40 44  1  0  0  0  0
 41 34  1  6  0  0  0
 41 42  1  0  0  0  0
 41 39  1  0  0  0  0
 42 47  1  6  0  0  0
 42 38  1  0  0  0  0
 43 44  1  0  0  0  0
 45 37  1  6  0  0  0
 45 40  1  0  0  0  0
 46 35  2  0  0  0  0
 46 45  1  0  0  0  0
 48 47  1  0  0  0  0
 49 50  1  0  0  0  0
 49 34  1  0  0  0  0
 51 50  1  0  0  0  0
M  END
>  <MODEL>
3

>  <REMARK>
 VINA RESULT:      -7.2      3.156      7.993
  Name = 
  18 active torsions:
  status: ('A' for Active; 'I' for Inactive)
    1  A    between atoms: C_1  and  C_4
    2  A    between atoms: C_1  and  C_10
    3  A    between atoms: C_4  and  C_9
    4  A    between atoms: C_5  and  C_9
    5  A    between atoms: C_9  and  C_38
    6  A    between atoms: C_10  and  C_43
    7  A    between atoms: C_11  and  O_15
    8  A    between atoms: C_11  and  C_38
    9  A    between atoms: O_15  and  C_26
   10  A    between atoms: O_18  and  C_19
   11  A    between atoms: O_18  and  C_45
   12  A    between atoms: C_19  and  C_21
   13  A    between atoms: C_22  and  O_47
   14  A    between atoms: C_26  and  C_34
   15  A    between atoms: C_26  and  O_47
   16  A    between atoms: C_29  and  C_35
   17  A    between atoms: C_37  and  C_50
   18  A    between atoms: C_43  and  C_50
                            x       y       z     vdW  Elec       q    Type
                         _______ _______ _______ _____ _____    ______ ____

>  <TORSDO>
F 18

$$$$
=
 OpenBabel10232412213D

 51 54  0  0  1  0  0  0  0  0999 V2000
  187.7900  177.5950  138.3440 C   0  0  2  0  0  0  0  0  0  0  0  0
  187.6650  176.1120  137.9850 C   0  0  0  0  0  1  0  0  0  0  0  0
  186.4700  178.3550  138.0060 C   0  0  1  0  0  3  0  0  0  0  0  0
  185.5280  177.6330  137.1410 C   0  0  0  0  0  0  0  0  0  0  0  0
  184.4950  177.6630  139.2130 O   0  0  0  0  0  0  0  0  0  0  0  0
  185.6720  177.4810  135.9390 O   0  0  0  0  0  0  0  0  0  0  0  0
  185.5900  178.5620  139.2350 C   0  0  0  0  0  2  0  0  0  0  0  0
  184.3080  177.2560  137.8760 C   0  0  1  0  0  3  0  0  0  0  0  0
  183.2020  177.9170  137.3360 O   0  0  0  0  0  0  0  0  0  0  0  0
  182.2680  177.9540  138.3720 C   0  0  0  0  0  2  0  0  0  0  0  0
  181.2310  176.8740  138.1560 C   0  0  0  0  0  2  0  0  0  0  0  0
  181.1250  176.0230  139.4030 C   0  0  0  0  0  1  0  0  0  0  0  0
  188.9990  178.2190  137.5830 C   0  0  2  0  0  3  0  0  0  0  0  0
  188.8810  179.6070  137.4500 O   0  0  0  0  0  1  0  0  0  0  0  0
  189.3200  177.5940  136.2190 C   0  0  0  0  0  2  0  0  0  0  0  0
  190.5300  176.6710  136.2650 C   0  0  0  0  0  2  0  0  0  0  0  0
  190.2700  175.3790  135.4990 C   0  0  0  0  0  2  0  0  0  0  0  0
  190.1840  174.0200  137.4640 O   0  0  0  0  0  1  0  0  0  0  0  0
  190.7980  174.1300  136.2130 C   0  0  2  0  0  3  0  0  0  0  0  0
  194.3480  173.0360  135.3480 C   0  0  0  0  0  2  0  0  0  0  0  0
  192.9970  172.7790  135.9960 C   0  0  2  0  0  3  0  0  0  0  0  0
  192.2230  172.0180  135.1180 O   0  0  0  0  0  1  0  0  0  0  0  0
  195.6490  173.1090  136.5680 S   0  0  0  0  0  0  0  0  0  0  0  0
  196.1330  171.7160  136.8490 O   0  0  0  0  0  0  0  0  0  0  0  0
  192.7370  174.5430  137.7630 C   0  0  0  0  0  2  0  0  0  0  0  0
  195.1100  173.8510  138.0950 C   0  0  0  0  0  2  0  0  0  0  0  0
  192.3350  174.1280  136.3460 C   0  0  2  0  0  3  0  0  0  0  0  0
  194.1790  175.0220  137.8340 C   0  0  0  0  0  2  0  0  0  0  0  0
  196.7860  173.9170  136.0100 O   0  0  0  0  0  0  0  0  0  0  0  0
  188.0190  177.6680  139.8680 C   0  0  0  0  0  2  0  0  0  0  0  0
  189.4900  177.8380  140.2540 C   0  0  2  0  0  3  0  0  0  0  0  0
  190.3410  176.6420  139.8390 C   0  0  0  0  0  1  0  0  0  0  0  0
  189.6680  178.3020  141.5880 O   0  0  0  0  0  0  0  0  0  0  0  0
  189.4360  177.3120  142.5890 C   0  0  2  0  0  3  0  0  0  0  0  0
  185.1860  178.5700  143.1280 C   0  0  0  0  0  3  0  0  0  0  0  0
  188.8610  177.7620  147.6720 C   0  0  0  0  0  1  0  0  0  0  0  0
  186.8020  177.6160  146.3620 C   0  0  0  0  0  2  0  0  0  0  0  0
  188.2410  178.1120  146.3280 C   0  0  2  0  0  3  0  0  0  0  0  0
  187.1530  177.1770  143.5550 C   0  0  0  0  0  2  0  0  0  0  0  0
  184.4510  178.3300  145.8990 C   0  0  0  0  0  2  0  0  0  0  0  0
  188.5260  177.8240  143.7350 C   0  0  1  0  0  3  0  0  0  0  0  0
  189.0890  177.5360  145.1600 C   0  0  1  0  0  3  0  0  0  0  0  0
  184.0850  179.4720  143.6070 C   0  0  0  0  0  2  0  0  0  0  0  0
  183.4400  178.9050  144.8800 C   0  0  0  0  0  2  0  0  0  0  0  0
  185.9160  178.4680  145.4670 C   0  0  2  0  0  3  0  0  0  0  0  0
  186.0710  178.0980  144.0130 C   0  0  0  0  0  0  0  0  0  0  0  0
  190.5440  178.0080  145.3100 C   0  0  0  0  0  2  0  0  0  0  0  0
  191.4010  177.0020  146.0660 C   0  0  0  0  0  1  0  0  0  0  0  0
  190.6260  176.7260  143.0480 O   0  0  0  0  0  0  0  0  0  0  0  0
  190.4070  175.3470  142.9620 C   0  0  0  0  0  2  0  0  0  0  0  0
  191.3660  174.6680  143.7150 O   0  0  0  0  0  1  0  0  0  0  0  0
  1  2  1  6  0  0  0
  1 30  1  0  0  0  0
  3  1  1  1  0  0  0
  3  7  1  0  0  0  0
  4  8  1  0  0  0  0
  4  3  1  0  0  0  0
  5  7  1  0  0  0  0
  6  4  2  0  0  0  0
  8  9  1  6  0  0  0
  8  5  1  0  0  0  0
  9 10  1  0  0  0  0
 11 10  1  0  0  0  0
 11 12  1  0  0  0  0
 13 14  1  6  0  0  0
 13  1  1  0  0  0  0
 15 16  1  0  0  0  0
 15 13  1  0  0  0  0
 17 19  1  0  0  0  0
 17 16  1  0  0  0  0
 19 18  1  1  0  0  0
 20 21  1  0  0  0  0
 20 23  1  0  0  0  0
 21 22  1  6  0  0  0
 21 27  1  0  0  0  0
 23 24  2  0  0  0  0
 23 26  1  0  0  0  0
 25 28  1  0  0  0  0
 27 19  1  1  0  0  0
 27 25  1  0  0  0  0
 28 26  1  0  0  0  0
 29 23  2  0  0  0  0
 30 31  1  0  0  0  0
 31 32  1  1  0  0  0
 31 33  1  0  0  0  0
 34 33  1  6  0  0  0
 34 49  1  0  0  0  0
 35 43  1  0  0  0  0
 35 46  2  0  0  0  0
 38 37  1  0  0  0  0
 38 36  1  1  0  0  0
 39 41  1  0  0  0  0
 39 46  1  0  0  0  0
 41 34  1  6  0  0  0
 41 42  1  0  0  0  0
 42 47  1  6  0  0  0
 42 38  1  0  0  0  0
 43 44  1  0  0  0  0
 44 40  1  0  0  0  0
 45 40  1  1  0  0  0
 45 37  1  0  0  0  0
 46 45  1  0  0  0  0
 47 48  1  0  0  0  0
 50 49  1  0  0  0  0
 50 51  1  0  0  0  0
M  END
>  <MODEL>
4

>  <REMARK>
 VINA RESULT:      -7.1      2.053      2.725
  Name = 
  18 active torsions:
  status: ('A' for Active; 'I' for Inactive)
    1  A    between atoms: C_1  and  C_4
    2  A    between atoms: C_1  and  C_10
    3  A    between atoms: C_4  and  C_9
    4  A    between atoms: C_5  and  C_9
    5  A    between atoms: C_9  and  C_38
    6  A    between atoms: C_10  and  C_43
    7  A    between atoms: C_11  and  O_15
    8  A    between atoms: C_11  and  C_38
    9  A    between atoms: O_15  and  C_26
   10  A    between atoms: O_18  and  C_19
   11  A    between atoms: O_18  and  C_45
   12  A    between atoms: C_19  and  C_21
   13  A    between atoms: C_22  and  O_47
   14  A    between atoms: C_26  and  C_34
   15  A    between atoms: C_26  and  O_47
   16  A    between atoms: C_29  and  C_35
   17  A    between atoms: C_37  and  C_50
   18  A    between atoms: C_43  and  C_50
                            x       y       z     vdW  Elec       q    Type
                         _______ _______ _______ _____ _____    ______ ____

>  <TORSDO>
F 18

$$$$
=
 OpenBabel10232412213D

 51 54  0  0  1  0  0  0  0  0999 V2000
  190.8590  175.7450  137.7910 C   0  0  2  0  0  0  0  0  0  0  0  0
  190.8480  177.2490  137.5080 C   0  0  0  0  0  1  0  0  0  0  0  0
  191.9880  175.0410  136.9750 C   0  0  1  0  0  3  0  0  0  0  0  0
  192.5160  175.8040  135.8370 C   0  0  0  0  0  0  0  0  0  0  0  0
  194.2420  175.8100  137.3810 O   0  0  0  0  0  0  0  0  0  0  0  0
  191.9330  175.9550  134.7760 O   0  0  0  0  0  0  0  0  0  0  0  0
  193.2660  174.8660  137.7890 C   0  0  0  0  0  2  0  0  0  0  0  0
  193.9060  176.2290  136.0770 C   0  0  1  0  0  3  0  0  0  0  0  0
  194.7580  175.6160  135.1560 O   0  0  0  0  0  0  0  0  0  0  0  0
  195.9060  176.4100  135.1480 C   0  0  0  0  0  2  0  0  0  0  0  0
  197.1100  175.5590  135.4880 C   0  0  0  0  0  2  0  0  0  0  0  0
  196.9660  174.2010  134.8350 C   0  0  0  0  0  1  0  0  0  0  0  0
  189.4650  175.1370  137.4470 C   0  0  2  0  0  3  0  0  0  0  0  0
  189.5180  173.7460  137.2930 O   0  0  0  0  0  1  0  0  0  0  0  0
  188.7450  175.7620  136.2450 C   0  0  0  0  0  2  0  0  0  0  0  0
  187.3260  175.2380  136.0730 C   0  0  0  0  0  2  0  0  0  0  0  0
  186.2970  176.2850  136.4840 C   0  0  0  0  0  2  0  0  0  0  0  0
  184.1310  175.4230  135.9560 O   0  0  0  0  0  1  0  0  0  0  0  0
  184.9960  175.6820  137.0240 C   0  0  2  0  0  3  0  0  0  0  0  0
  182.4920  176.5020  139.7820 C   0  0  0  0  0  2  0  0  0  0  0  0
  182.8290  176.2610  138.3190 C   0  0  2  0  0  3  0  0  0  0  0  0
  182.5090  174.9400  138.0020 O   0  0  0  0  0  1  0  0  0  0  0  0
  181.9520  178.1800  140.0570 S   0  0  0  0  0  0  0  0  0  0  0  0
  180.4790  178.2710  139.7800 O   0  0  0  0  0  0  0  0  0  0  0  0
  184.4730  178.0520  137.6920 C   0  0  0  0  0  2  0  0  0  0  0  0
  182.8070  179.3490  139.0190 C   0  0  0  0  0  2  0  0  0  0  0  0
  184.3200  176.5800  138.0820 C   0  0  2  0  0  3  0  0  0  0  0  0
  184.2740  178.9830  138.8780 C   0  0  0  0  0  2  0  0  0  0  0  0
  182.2020  178.5360  141.4950 O   0  0  0  0  0  0  0  0  0  0  0  0
  191.1630  175.5750  139.2930 C   0  0  0  0  0  2  0  0  0  0  0  0
  191.1970  176.8980  140.0600 C   0  0  2  0  0  3  0  0  0  0  0  0
  192.6060  177.4720  140.1640 C   0  0  0  0  0  1  0  0  0  0  0  0
  190.4430  176.8650  141.2670 O   0  0  0  0  0  0  0  0  0  0  0  0
  189.2940  177.7120  141.2640 C   0  0  2  0  0  3  0  0  0  0  0  0
  185.3740  178.6340  143.1910 C   0  0  0  0  0  3  0  0  0  0  0  0
  190.2150  177.3340  146.3020 C   0  0  0  0  0  1  0  0  0  0  0  0
  187.8660  177.2790  145.6280 C   0  0  0  0  0  2  0  0  0  0  0  0
  189.2290  177.8540  145.2670 C   0  0  2  0  0  3  0  0  0  0  0  0
  187.3910  177.3020  142.8040 C   0  0  0  0  0  2  0  0  0  0  0  0
  185.4760  177.9260  145.9770 C   0  0  0  0  0  2  0  0  0  0  0  0
  188.7520  177.9880  142.6900 C   0  0  1  0  0  3  0  0  0  0  0  0
  189.7070  177.5140  143.8270 C   0  0  1  0  0  3  0  0  0  0  0  0
  184.4520  179.3880  144.1060 C   0  0  0  0  0  2  0  0  0  0  0  0
  184.2090  178.5960  145.3980 C   0  0  0  0  0  2  0  0  0  0  0  0
  186.7520  178.2100  145.1750 C   0  0  2  0  0  3  0  0  0  0  0  0
  186.4820  178.0800  143.6970 C   0  0  0  0  0  0  0  0  0  0  0  0
  191.1380  178.0370  143.6320 C   0  0  0  0  0  2  0  0  0  0  0  0
  191.2510  179.5290  143.9160 C   0  0  0  0  0  1  0  0  0  0  0  0
  188.3040  177.2680  140.3730 O   0  0  0  0  0  0  0  0  0  0  0  0
  187.7580  178.4340  139.8280 C   0  0  0  0  0  2  0  0  0  0  0  0
  188.6470  178.9860  138.9050 O   0  0  0  0  0  1  0  0  0  0  0  0
  1  2  1  6  0  0  0
  1 30  1  0  0  0  0
  3  7  1  0  0  0  0
  3  1  1  1  0  0  0
  4  8  1  0  0  0  0
  4  3  1  0  0  0  0
  5  7  1  0  0  0  0
  6  4  2  0  0  0  0
  8  9  1  6  0  0  0
  8  5  1  0  0  0  0
 10  9  1  0  0  0  0
 10 11  1  0  0  0  0
 12 11  1  0  0  0  0
 13 14  1  6  0  0  0
 13  1  1  0  0  0  0
 15 13  1  0  0  0  0
 16 15  1  0  0  0  0
 16 17  1  0  0  0  0
 17 19  1  0  0  0  0
 19 18  1  6  0  0  0
 20 23  1  0  0  0  0
 21 22  1  1  0  0  0
 21 20  1  0  0  0  0
 23 29  2  0  0  0  0
 24 23  2  0  0  0  0
 25 27  1  0  0  0  0
 25 28  1  0  0  0  0
 26 23  1  0  0  0  0
 27 19  1  6  0  0  0
 27 21  1  0  0  0  0
 28 26  1  0  0  0  0
 30 31  1  0  0  0  0
 31 32  1  1  0  0  0
 31 33  1  0  0  0  0
 34 49  1  6  0  0  0
 34 33  1  0  0  0  0
 35 46  2  0  0  0  0
 35 43  1  0  0  0  0
 38 37  1  0  0  0  0
 38 36  1  1  0  0  0
 39 46  1  0  0  0  0
 41 34  1  6  0  0  0
 41 39  1  0  0  0  0
 41 42  1  0  0  0  0
 42 47  1  6  0  0  0
 42 38  1  0  0  0  0
 43 44  1  0  0  0  0
 44 40  1  0  0  0  0
 45 37  1  1  0  0  0
 45 40  1  0  0  0  0
 46 45  1  0  0  0  0
 47 48  1  0  0  0  0
 50 49  1  0  0  0  0
 51 50  1  0  0  0  0
M  END
>  <MODEL>
5

>  <REMARK>
 VINA RESULT:      -7.1      2.999      8.102
  Name = 
  18 active torsions:
  status: ('A' for Active; 'I' for Inactive)
    1  A    between atoms: C_1  and  C_4
    2  A    between atoms: C_1  and  C_10
    3  A    between atoms: C_4  and  C_9
    4  A    between atoms: C_5  and  C_9
    5  A    between atoms: C_9  and  C_38
    6  A    between atoms: C_10  and  C_43
    7  A    between atoms: C_11  and  O_15
    8  A    between atoms: C_11  and  C_38
    9  A    between atoms: O_15  and  C_26
   10  A    between atoms: O_18  and  C_19
   11  A    between atoms: O_18  and  C_45
   12  A    between atoms: C_19  and  C_21
   13  A    between atoms: C_22  and  O_47
   14  A    between atoms: C_26  and  C_34
   15  A    between atoms: C_26  and  O_47
   16  A    between atoms: C_29  and  C_35
   17  A    between atoms: C_37  and  C_50
   18  A    between atoms: C_43  and  C_50
                            x       y       z     vdW  Elec       q    Type
                         _______ _______ _______ _____ _____    ______ ____

>  <TORSDO>
F 18

$$$$
=
 OpenBabel10232412213D

 51 54  0  0  1  0  0  0  0  0999 V2000
  189.1220  176.8620  137.7860 C   0  0  2  0  0  0  0  0  0  0  0  0
  189.3390  178.1010  136.9120 C   0  0  0  0  0  1  0  0  0  0  0  0
  189.8780  175.6330  137.1920 C   0  0  1  0  0  3  0  0  0  0  0  0
  190.5610  175.8680  135.9140 C   0  0  0  0  0  0  0  0  0  0  0  0
  192.2800  175.6270  137.4470 O   0  0  0  0  0  0  0  0  0  0  0  0
  189.9980  175.9590  134.8350 O   0  0  0  0  0  0  0  0  0  0  0  0
  191.0670  175.2150  138.0520 C   0  0  0  0  0  2  0  0  0  0  0  0
  192.0250  175.8160  136.0730 C   0  0  1  0  0  3  0  0  0  0  0  0
  192.5470  174.7430  135.3490 O   0  0  0  0  0  0  0  0  0  0  0  0
  193.7940  174.4960  135.9230 C   0  0  0  0  0  2  0  0  0  0  0  0
  194.8710  175.1670  135.0980 C   0  0  0  0  0  2  0  0  0  0  0  0
  196.0050  174.1920  134.8660 C   0  0  0  0  0  1  0  0  0  0  0  0
  187.5960  176.5680  137.9090 C   0  0  2  0  0  3  0  0  0  0  0  0
  187.2650  175.2900  137.4430 O   0  0  0  0  0  1  0  0  0  0  0  0
  186.6650  177.6070  137.2710 C   0  0  0  0  0  2  0  0  0  0  0  0
  185.5920  176.9750  136.3940 C   0  0  0  0  0  2  0  0  0  0  0  0
  184.1970  177.4180  136.8220 C   0  0  0  0  0  2  0  0  0  0  0  0
  183.0080  176.1840  138.4880 O   0  0  0  0  0  1  0  0  0  0  0  0
  183.2490  176.2510  137.1130 C   0  0  2  0  0  3  0  0  0  0  0  0
  183.8280  173.5590  134.4730 C   0  0  0  0  0  2  0  0  0  0  0  0
  182.9230  174.2900  135.4520 C   0  0  2  0  0  3  0  0  0  0  0  0
  182.1960  175.2520  134.7490 O   0  0  0  0  0  1  0  0  0  0  0  0
  184.0470  171.8510  134.9420 S   0  0  0  0  0  0  0  0  0  0  0  0
  182.9120  171.0420  134.3820 O   0  0  0  0  0  0  0  0  0  0  0  0
  183.9170  173.9020  137.7240 C   0  0  0  0  0  2  0  0  0  0  0  0
  184.0940  171.6310  136.7090 C   0  0  0  0  0  2  0  0  0  0  0  0
  183.7820  174.9050  136.5760 C   0  0  2  0  0  3  0  0  0  0  0  0
  184.8590  172.7590  137.3790 C   0  0  0  0  0  2  0  0  0  0  0  0
  185.3370  171.3530  134.3560 O   0  0  0  0  0  0  0  0  0  0  0  0
  189.7200  177.1820  139.1700 C   0  0  0  0  0  2  0  0  0  0  0  0
  188.6700  177.2840  140.2780 C   0  0  2  0  0  3  0  0  0  0  0  0
  188.3510  178.7300  140.6450 C   0  0  0  0  0  1  0  0  0  0  0  0
  188.9180  176.4020  141.3670 O   0  0  0  0  0  0  0  0  0  0  0  0
  189.7960  176.9270  142.3610 C   0  0  2  0  0  3  0  0  0  0  0  0
  185.7160  178.4570  143.3310 C   0  0  0  0  0  3  0  0  0  0  0  0
  189.7470  177.3050  147.4820 C   0  0  0  0  0  1  0  0  0  0  0  0
  187.5660  177.3270  146.3780 C   0  0  0  0  0  2  0  0  0  0  0  0
  189.0260  177.7250  146.2100 C   0  0  2  0  0  3  0  0  0  0  0  0
  187.6130  176.9250  143.5430 C   0  0  0  0  0  2  0  0  0  0  0  0
  185.2360  178.2080  146.1570 C   0  0  0  0  0  2  0  0  0  0  0  0
  189.0390  177.4750  143.5980 C   0  0  1  0  0  3  0  0  0  0  0  0
  189.7160  177.1190  144.9560 C   0  0  1  0  0  3  0  0  0  0  0  0
  184.7310  179.4210  143.9290 C   0  0  0  0  0  2  0  0  0  0  0  0
  184.1740  178.8720  145.2510 C   0  0  0  0  0  2  0  0  0  0  0  0
  186.6590  178.2560  145.5860 C   0  0  2  0  0  3  0  0  0  0  0  0
  186.6470  177.9080  144.1190 C   0  0  0  0  0  0  0  0  0  0  0  0
  191.2070  177.4880  144.9700 C   0  0  0  0  0  2  0  0  0  0  0  0
  191.4330  178.9780  144.7500 C   0  0  0  0  0  1  0  0  0  0  0  0
  190.7200  177.8410  141.8290 O   0  0  0  0  0  0  0  0  0  0  0  0
  191.9170  177.1270  141.7260 C   0  0  0  0  0  2  0  0  0  0  0  0
  192.6120  177.5300  140.5840 O   0  0  0  0  0  1  0  0  0  0  0  0
  1  2  1  6  0  0  0
  1 13  1  0  0  0  0
  1 30  1  0  0  0  0
  3  1  1  1  0  0  0
  3  7  1  0  0  0  0
  4  8  1  0  0  0  0
  4  3  1  0  0  0  0
  5  7  1  0  0  0  0
  6  4  2  0  0  0  0
  8  9  1  6  0  0  0
  8  5  1  0  0  0  0
  9 10  1  0  0  0  0
 11 10  1  0  0  0  0
 12 11  1  0  0  0  0
 13 14  1  6  0  0  0
 15 13  1  0  0  0  0
 16 17  1  0  0  0  0
 16 15  1  0  0  0  0
 17 19  1  0  0  0  0
 19 18  1  1  0  0  0
 20 23  1  0  0  0  0
 20 21  1  0  0  0  0
 21 22  1  6  0  0  0
 21 27  1  0  0  0  0
 23 26  1  0  0  0  0
 24 23  2  0  0  0  0
 26 28  1  0  0  0  0
 27 19  1  1  0  0  0
 27 25  1  0  0  0  0
 28 25  1  0  0  0  0
 29 23  2  0  0  0  0
 30 31  1  0  0  0  0
 31 32  1  1  0  0  0
 31 33  1  0  0  0  0
 34 33  1  6  0  0  0
 35 43  1  0  0  0  0
 35 46  2  0  0  0  0
 38 37  1  0  0  0  0
 38 36  1  1  0  0  0
 39 41  1  0  0  0  0
 39 46  1  0  0  0  0
 41 34  1  6  0  0  0
 41 42  1  0  0  0  0
 42 47  1  6  0  0  0
 42 38  1  0  0  0  0
 43 44  1  0  0  0  0
 44 40  1  0  0  0  0
 45 40  1  1  0  0  0
 45 37  1  0  0  0  0
 46 45  1  0  0  0  0
 48 47  1  0  0  0  0
 49 34  1  0  0  0  0
 50 49  1  0  0  0  0
 51 50  1  0  0  0  0
M  END
>  <MODEL>
6

>  <REMARK>
 VINA RESULT:      -7.0      2.672      7.344
  Name = 
  18 active torsions:
  status: ('A' for Active; 'I' for Inactive)
    1  A    between atoms: C_1  and  C_4
    2  A    between atoms: C_1  and  C_10
    3  A    between atoms: C_4  and  C_9
    4  A    between atoms: C_5  and  C_9
    5  A    between atoms: C_9  and  C_38
    6  A    between atoms: C_10  and  C_43
    7  A    between atoms: C_11  and  O_15
    8  A    between atoms: C_11  and  C_38
    9  A    between atoms: O_15  and  C_26
   10  A    between atoms: O_18  and  C_19
   11  A    between atoms: O_18  and  C_45
   12  A    between atoms: C_19  and  C_21
   13  A    between atoms: C_22  and  O_47
   14  A    between atoms: C_26  and  C_34
   15  A    between atoms: C_26  and  O_47
   16  A    between atoms: C_29  and  C_35
   17  A    between atoms: C_37  and  C_50
   18  A    between atoms: C_43  and  C_50
                            x       y       z     vdW  Elec       q    Type
                         _______ _______ _______ _____ _____    ______ ____

>  <TORSDO>
F 18

$$$$
=
 OpenBabel10232412213D

 51 54  0  0  1  0  0  0  0  0999 V2000
  188.1430  177.3390  137.0640 C   0  0  2  0  0  0  0  0  0  0  0  0
  188.0670  175.9440  137.6900 C   0  0  0  0  0  1  0  0  0  0  0  0
  189.3520  177.4350  136.0840 C   0  0  1  0  0  3  0  0  0  0  0  0
  190.5230  176.6230  136.4410 C   0  0  0  0  0  0  0  0  0  0  0  0
  189.6520  175.5800  134.5650 O   0  0  0  0  0  0  0  0  0  0  0  0
  191.3080  176.8980  137.3330 O   0  0  0  0  0  0  0  0  0  0  0  0
  189.0340  176.8470  134.7130 C   0  0  0  0  0  2  0  0  0  0  0  0
  190.7210  175.5220  135.4810 C   0  0  1  0  0  3  0  0  0  0  0  0
  191.9290  175.6940  134.8020 O   0  0  0  0  0  0  0  0  0  0  0  0
  192.5430  174.4420  134.8430 C   0  0  0  0  0  2  0  0  0  0  0  0
  194.0160  174.6110  135.1470 C   0  0  0  0  0  2  0  0  0  0  0  0
  194.2860  176.0500  135.5310 C   0  0  0  0  0  1  0  0  0  0  0  0
  188.2540  178.4130  138.1890 C   0  0  2  0  0  3  0  0  0  0  0  0
  188.9500  179.5520  137.7660 O   0  0  0  0  0  1  0  0  0  0  0  0
  188.8310  177.9210  139.5230 C   0  0  0  0  0  2  0  0  0  0  0  0
  188.1500  178.5570  140.7280 C   0  0  0  0  0  2  0  0  0  0  0  0
  188.9960  178.4010  141.9870 C   0  0  0  0  0  2  0  0  0  0  0  0
  187.0920  177.4400  143.0660 O   0  0  0  0  0  1  0  0  0  0  0  0
  188.4790  177.3180  142.9380 C   0  0  2  0  0  3  0  0  0  0  0  0
  191.3870  176.9010  145.3710 C   0  0  0  0  0  2  0  0  0  0  0  0
  190.2910  176.3160  144.4950 C   0  0  2  0  0  3  0  0  0  0  0  0
  190.8560  175.9290  143.2780 O   0  0  0  0  0  1  0  0  0  0  0  0
  191.0930  176.5560  147.0970 S   0  0  0  0  0  0  0  0  0  0  0  0
  191.6530  175.2030  147.4270 O   0  0  0  0  0  0  0  0  0  0  0  0
  188.1300  177.1890  145.4280 C   0  0  0  0  0  2  0  0  0  0  0  0
  189.3600  176.5770  147.5090 C   0  0  0  0  0  2  0  0  0  0  0  0
  189.1700  177.3610  144.3180 C   0  0  2  0  0  3  0  0  0  0  0  0
  188.6370  177.6910  146.7710 C   0  0  0  0  0  2  0  0  0  0  0  0
  191.8000  177.5920  147.9220 O   0  0  0  0  0  0  0  0  0  0  0  0
  186.8430  177.5380  136.2590 C   0  0  0  0  0  2  0  0  0  0  0  0
  185.8070  176.4370  136.4920 C   0  0  2  0  0  3  0  0  0  0  0  0
  185.2550  175.8740  135.1870 C   0  0  0  0  0  1  0  0  0  0  0  0
  184.8460  176.7730  137.4870 O   0  0  0  0  0  0  0  0  0  0  0  0
  183.5560  176.2050  137.2710 C   0  0  2  0  0  3  0  0  0  0  0  0
  181.4150  178.0960  140.7020 C   0  0  0  0  0  3  0  0  0  0  0  0
  180.7020  179.8970  135.1290 C   0  0  0  0  0  1  0  0  0  0  0  0
  181.0470  180.0650  137.5440 C   0  0  0  0  0  2  0  0  0  0  0  0
  180.9050  179.0770  136.3940 C   0  0  2  0  0  3  0  0  0  0  0  0
  182.7940  178.1020  138.6800 C   0  0  0  0  0  2  0  0  0  0  0  0
  180.1990  180.5590  139.8440 C   0  0  0  0  0  2  0  0  0  0  0  0
  182.4100  177.2260  137.4870 C   0  0  1  0  0  3  0  0  0  0  0  0
  182.1050  178.1020  136.2340 C   0  0  1  0  0  3  0  0  0  0  0  0
  180.2030  178.5460  141.4680 C   0  0  0  0  0  2  0  0  0  0  0  0
  179.9820  180.0550  141.2890 C   0  0  0  0  0  2  0  0  0  0  0  0
  180.5560  179.4500  138.8450 C   0  0  2  0  0  3  0  0  0  0  0  0
  181.5800  178.5170  139.4430 C   0  0  0  0  0  0  0  0  0  0  0  0
  181.9020  177.2500  134.9720 C   0  0  0  0  0  2  0  0  0  0  0  0
  180.6270  176.4190  135.0370 C   0  0  0  0  0  1  0  0  0  0  0  0
  183.3720  175.0090  137.9830 O   0  0  0  0  0  0  0  0  0  0  0  0
  182.6940  174.1620  137.1010 C   0  0  0  0  0  2  0  0  0  0  0  0
  183.1420  172.8510  137.2650 O   0  0  0  0  0  1  0  0  0  0  0  0
  1  2  1  1  0  0  0
  1 13  1  0  0  0  0
  3  4  1  0  0  0  0
  3  1  1  1  0  0  0
  4  6  2  0  0  0  0
  5  7  1  0  0  0  0
  5  8  1  0  0  0  0
  7  3  1  0  0  0  0
  8  9  1  6  0  0  0
  8  4  1  0  0  0  0
  9 10  1  0  0  0  0
 10 11  1  0  0  0  0
 11 12  1  0  0  0  0
 13 14  1  6  0  0  0
 13 15  1  0  0  0  0
 15 16  1  0  0  0  0
 16 17  1  0  0  0  0
 17 19  1  0  0  0  0
 19 18  1  1  0  0  0
 20 23  1  0  0  0  0
 21 22  1  6  0  0  0
 21 20  1  0  0  0  0
 23 24  2  0  0  0  0
 23 26  1  0  0  0  0
 23 29  2  0  0  0  0
 25 28  1  0  0  0  0
 27 19  1  6  0  0  0
 27 21  1  0  0  0  0
 27 25  1  0  0  0  0
 28 26  1  0  0  0  0
 30 31  1  0  0  0  0
 30  1  1  0  0  0  0
 31 32  1  6  0  0  0
 31 33  1  0  0  0  0
 34 33  1  1  0  0  0
 34 49  1  0  0  0  0
 35 43  1  0  0  0  0
 38 36  1  6  0  0  0
 38 37  1  0  0  0  0
 39 46  1  0  0  0  0
 40 44  1  0  0  0  0
 41 34  1  6  0  0  0
 41 39  1  0  0  0  0
 42 47  1  6  0  0  0
 42 38  1  0  0  0  0
 42 41  1  0  0  0  0
 44 43  1  0  0  0  0
 45 37  1  6  0  0  0
 45 46  1  0  0  0  0
 45 40  1  0  0  0  0
 46 35  2  0  0  0  0
 47 48  1  0  0  0  0
 50 51  1  0  0  0  0
 50 49  1  0  0  0  0
M  END
>  <MODEL>
7

>  <REMARK>
 VINA RESULT:      -6.8      3.528      8.828
  Name = 
  18 active torsions:
  status: ('A' for Active; 'I' for Inactive)
    1  A    between atoms: C_1  and  C_4
    2  A    between atoms: C_1  and  C_10
    3  A    between atoms: C_4  and  C_9
    4  A    between atoms: C_5  and  C_9
    5  A    between atoms: C_9  and  C_38
    6  A    between atoms: C_10  and  C_43
    7  A    between atoms: C_11  and  O_15
    8  A    between atoms: C_11  and  C_38
    9  A    between atoms: O_15  and  C_26
   10  A    between atoms: O_18  and  C_19
   11  A    between atoms: O_18  and  C_45
   12  A    between atoms: C_19  and  C_21
   13  A    between atoms: C_22  and  O_47
   14  A    between atoms: C_26  and  C_34
   15  A    between atoms: C_26  and  O_47
   16  A    between atoms: C_29  and  C_35
   17  A    between atoms: C_37  and  C_50
   18  A    between atoms: C_43  and  C_50
                            x       y       z     vdW  Elec       q    Type
                         _______ _______ _______ _____ _____    ______ ____

>  <TORSDO>
F 18

$$$$
=
 OpenBabel10232412213D

 51 54  0  0  1  0  0  0  0  0999 V2000
  188.9620  177.4660  137.7520 C   0  0  2  0  0  0  0  0  0  0  0  0
  189.3500  178.2120  136.4720 C   0  0  0  0  0  1  0  0  0  0  0  0
  189.9250  176.2640  137.9990 C   0  0  1  0  0  3  0  0  0  0  0  0
  190.8810  175.9860  136.9210 C   0  0  0  0  0  0  0  0  0  0  0  0
  192.1860  176.8160  138.6440 O   0  0  0  0  0  0  0  0  0  0  0  0
  190.5940  175.4530  135.8620 O   0  0  0  0  0  0  0  0  0  0  0  0
  190.8940  176.5260  139.1480 C   0  0  0  0  0  2  0  0  0  0  0  0
  192.2620  176.2840  137.3410 C   0  0  1  0  0  3  0  0  0  0  0  0
  193.0190  175.1110  137.3580 O   0  0  0  0  0  0  0  0  0  0  0  0
  193.7470  175.1380  136.1680 C   0  0  0  0  0  2  0  0  0  0  0  0
  193.8250  173.7410  135.5920 C   0  0  0  0  0  2  0  0  0  0  0  0
  194.9770  172.9980  136.2330 C   0  0  0  0  0  1  0  0  0  0  0  0
  187.4840  176.9810  137.6480 C   0  0  2  0  0  3  0  0  0  0  0  0
  187.3940  175.5980  137.4520 O   0  0  0  0  0  1  0  0  0  0  0  0
  186.6170  177.7070  136.6120 C   0  0  0  0  0  2  0  0  0  0  0  0
  185.1270  177.4840  136.8320 C   0  0  0  0  0  2  0  0  0  0  0  0
  184.8350  177.0840  138.2740 C   0  0  0  0  0  2  0  0  0  0  0  0
  182.7260  175.9740  138.0920 O   0  0  0  0  0  1  0  0  0  0  0  0
  183.3440  177.1090  138.6240 C   0  0  2  0  0  3  0  0  0  0  0  0
  182.3890  180.7980  138.7910 C   0  0  0  0  0  2  0  0  0  0  0  0
  182.2580  179.3660  139.2840 C   0  0  2  0  0  3  0  0  0  0  0  0
  183.0650  179.2110  140.4130 O   0  0  0  0  0  1  0  0  0  0  0  0
  180.8620  181.3800  138.0740 S   0  0  0  0  0  0  0  0  0  0  0  0
  179.9820  181.9160  139.1660 O   0  0  0  0  0  0  0  0  0  0  0  0
  181.3980  178.0450  137.3310 C   0  0  0  0  0  2  0  0  0  0  0  0
  179.9840  180.0950  137.2060 C   0  0  0  0  0  2  0  0  0  0  0  0
  182.6440  178.3990  138.1460 C   0  0  2  0  0  3  0  0  0  0  0  0
  180.9450  179.1960  136.4470 C   0  0  0  0  0  2  0  0  0  0  0  0
  181.1750  182.4900  137.1110 O   0  0  0  0  0  0  0  0  0  0  0  0
  189.1180  178.4660  138.9150 C   0  0  0  0  0  2  0  0  0  0  0  0
  188.4520  178.0000  140.2120 C   0  0  2  0  0  3  0  0  0  0  0  0
  186.9810  178.3970  140.2830 C   0  0  0  0  0  1  0  0  0  0  0  0
  189.2320  178.2720  141.3710 O   0  0  0  0  0  0  0  0  0  0  0  0
  189.0990  177.3020  142.4080 C   0  0  2  0  0  3  0  0  0  0  0  0
  184.9670  178.7020  143.3510 C   0  0  0  0  0  3  0  0  0  0  0  0
  189.0310  177.7600  147.5220 C   0  0  0  0  0  1  0  0  0  0  0  0
  186.8510  177.6860  146.4160 C   0  0  0  0  0  2  0  0  0  0  0  0
  188.2970  178.1340  146.2440 C   0  0  2  0  0  3  0  0  0  0  0  0
  186.9170  177.2420  143.5890 C   0  0  0  0  0  2  0  0  0  0  0  0
  184.4930  178.4810  146.1800 C   0  0  0  0  0  2  0  0  0  0  0  0
  188.3220  177.8420  143.6350 C   0  0  1  0  0  3  0  0  0  0  0  0
  189.0090  177.5320  145.0000 C   0  0  1  0  0  3  0  0  0  0  0  0
  183.9480  179.6400  143.9320 C   0  0  0  0  0  2  0  0  0  0  0  0
  183.4090  179.0930  145.2620 C   0  0  0  0  0  2  0  0  0  0  0  0
  185.9140  178.5710  145.6090 C   0  0  2  0  0  3  0  0  0  0  0  0
  185.9160  178.1990  144.1480 C   0  0  0  0  0  0  0  0  0  0  0  0
  190.4860  177.9540  145.0090 C   0  0  0  0  0  2  0  0  0  0  0  0
  190.6940  179.3360  144.4030 C   0  0  0  0  0  1  0  0  0  0  0  0
  190.3270  176.7100  142.7470 O   0  0  0  0  0  0  0  0  0  0  0  0
  190.0670  175.3370  142.7900 C   0  0  0  0  0  2  0  0  0  0  0  0
  191.1630  174.6650  143.3350 O   0  0  0  0  0  1  0  0  0  0  0  0
  1  2  1  6  0  0  0
  1 30  1  0  0  0  0
  3  1  1  6  0  0  0
  3  7  1  0  0  0  0
  4  8  1  0  0  0  0
  4  3  1  0  0  0  0
  5  7  1  0  0  0  0
  6  4  2  0  0  0  0
  8  9  1  1  0  0  0
  8  5  1  0  0  0  0
 10  9  1  0  0  0  0
 11 10  1  0  0  0  0
 11 12  1  0  0  0  0
 13 14  1  6  0  0  0
 13  1  1  0  0  0  0
 15 16  1  0  0  0  0
 15 13  1  0  0  0  0
 16 17  1  0  0  0  0
 17 19  1  0  0  0  0
 19 18  1  6  0  0  0
 20 21  1  0  0  0  0
 21 22  1  1  0  0  0
 23 20  1  0  0  0  0
 23 24  2  0  0  0  0
 25 27  1  0  0  0  0
 26 23  1  0  0  0  0
 27 19  1  1  0  0  0
 27 21  1  0  0  0  0
 28 26  1  0  0  0  0
 28 25  1  0  0  0  0
 29 23  2  0  0  0  0
 30 31  1  0  0  0  0
 31 32  1  1  0  0  0
 31 33  1  0  0  0  0
 34 33  1  6  0  0  0
 34 49  1  0  0  0  0
 35 43  1  0  0  0  0
 35 46  2  0  0  0  0
 38 37  1  0  0  0  0
 38 36  1  1  0  0  0
 39 41  1  0  0  0  0
 39 46  1  0  0  0  0
 41 34  1  6  0  0  0
 41 42  1  0  0  0  0
 42 47  1  6  0  0  0
 42 38  1  0  0  0  0
 43 44  1  0  0  0  0
 44 40  1  0  0  0  0
 45 40  1  1  0  0  0
 45 37  1  0  0  0  0
 46 45  1  0  0  0  0
 48 47  1  0  0  0  0
 49 50  1  0  0  0  0
 50 51  1  0  0  0  0
M  END
>  <MODEL>
8

>  <REMARK>
 VINA RESULT:      -6.7      3.650      8.457
  Name = 
  18 active torsions:
  status: ('A' for Active; 'I' for Inactive)
    1  A    between atoms: C_1  and  C_4
    2  A    between atoms: C_1  and  C_10
    3  A    between atoms: C_4  and  C_9
    4  A    between atoms: C_5  and  C_9
    5  A    between atoms: C_9  and  C_38
    6  A    between atoms: C_10  and  C_43
    7  A    between atoms: C_11  and  O_15
    8  A    between atoms: C_11  and  C_38
    9  A    between atoms: O_15  and  C_26
   10  A    between atoms: O_18  and  C_19
   11  A    between atoms: O_18  and  C_45
   12  A    between atoms: C_19  and  C_21
   13  A    between atoms: C_22  and  O_47
   14  A    between atoms: C_26  and  C_34
   15  A    between atoms: C_26  and  O_47
   16  A    between atoms: C_29  and  C_35
   17  A    between atoms: C_37  and  C_50
   18  A    between atoms: C_43  and  C_50
                            x       y       z     vdW  Elec       q    Type
                         _______ _______ _______ _____ _____    ______ ____

>  <TORSDO>
F 18

$$$$
=
 OpenBabel10232412213D

 51 54  0  0  1  0  0  0  0  0999 V2000
  187.7060  178.2240  141.3110 C   0  0  2  0  0  0  0  0  0  0  0  0
  188.0590  179.6480  141.7490 C   0  0  0  0  0  1  0  0  0  0  0  0
  188.5160  177.1790  142.1380 C   0  0  1  0  0  3  0  0  0  0  0  0
  189.6470  177.7170  142.9030 C   0  0  0  0  0  0  0  0  0  0  0  0
  188.0920  177.1310  144.5160 O   0  0  0  0  0  0  0  0  0  0  0  0
  190.7120  178.0580  142.4150 O   0  0  0  0  0  0  0  0  0  0  0  0
  187.6940  176.5770  143.2730 C   0  0  0  0  0  2  0  0  0  0  0  0
  189.3960  177.6410  144.3540 C   0  0  1  0  0  3  0  0  0  0  0  0
  190.3140  176.7750  144.9520 O   0  0  0  0  0  0  0  0  0  0  0  0
  190.3690  177.1800  146.2860 C   0  0  0  0  0  2  0  0  0  0  0  0
  188.9710  177.4870  146.7780 C   0  0  0  0  0  2  0  0  0  0  0  0
  189.0400  177.9870  148.2050 C   0  0  0  0  0  1  0  0  0  0  0  0
  187.9830  178.0610  139.7860 C   0  0  2  0  0  3  0  0  0  0  0  0
  189.0760  178.8270  139.3620 O   0  0  0  0  0  1  0  0  0  0  0  0
  186.7850  178.3130  138.8610 C   0  0  0  0  0  2  0  0  0  0  0  0
  186.6540  177.2600  137.7690 C   0  0  0  0  0  2  0  0  0  0  0  0
  187.7550  177.4070  136.7240 C   0  0  0  0  0  2  0  0  0  0  0  0
  187.9670  175.0800  137.2290 O   0  0  0  0  0  1  0  0  0  0  0  0
  188.4820  176.0940  136.4160 C   0  0  2  0  0  3  0  0  0  0  0  0
  192.1050  176.0100  135.2280 C   0  0  0  0  0  2  0  0  0  0  0  0
  190.8170  175.3050  135.6210 C   0  0  2  0  0  3  0  0  0  0  0  0
  190.1100  174.9940  134.4590 O   0  0  0  0  0  1  0  0  0  0  0  0
  193.4300  175.6240  136.3600 S   0  0  0  0  0  0  0  0  0  0  0  0
  194.0850  174.3450  135.9260 O   0  0  0  0  0  0  0  0  0  0  0  0
  190.4110  175.9120  138.0230 C   0  0  0  0  0  2  0  0  0  0  0  0
  192.8590  175.4380  138.0370 C   0  0  0  0  0  2  0  0  0  0  0  0
  190.0120  176.2110  136.5760 C   0  0  2  0  0  3  0  0  0  0  0  0
  191.7860  176.4620  138.3650 C   0  0  0  0  0  2  0  0  0  0  0  0
  194.4420  176.7320  136.3120 O   0  0  0  0  0  0  0  0  0  0  0  0
  186.2050  178.0270  141.6080 C   0  0  0  0  0  2  0  0  0  0  0  0
  185.4650  179.3330  141.8980 C   0  0  2  0  0  3  0  0  0  0  0  0
  185.1350  179.4970  143.3780 C   0  0  0  0  0  1  0  0  0  0  0  0
  184.4010  179.5880  140.9870 O   0  0  0  0  0  0  0  0  0  0  0  0
  183.4420  178.5370  140.8960 C   0  0  2  0  0  3  0  0  0  0  0  0
  181.2940  181.7390  138.6460 C   0  0  0  0  0  3  0  0  0  0  0  0
  181.8990  176.2520  136.5640 C   0  0  0  0  0  1  0  0  0  0  0  0
  181.8930  178.6970  136.5550 C   0  0  0  0  0  2  0  0  0  0  0  0
  181.7050  177.4760  137.4460 C   0  0  2  0  0  3  0  0  0  0  0  0
  182.9340  179.9420  138.9140 C   0  0  0  0  0  2  0  0  0  0  0  0
  180.8360  180.8780  135.9390 C   0  0  0  0  0  2  0  0  0  0  0  0
  182.5470  178.6510  139.6360 C   0  0  1  0  0  3  0  0  0  0  0  0
  182.6540  177.4280  138.6760 C   0  0  1  0  0  3  0  0  0  0  0  0
  180.1170  182.3500  137.9410 C   0  0  0  0  0  2  0  0  0  0  0  0
  180.2850  182.2400  136.4180 C   0  0  0  0  0  2  0  0  0  0  0  0
  181.0760  179.8710  137.0720 C   0  0  2  0  0  3  0  0  0  0  0  0
  181.7470  180.5470  138.2410 C   0  0  0  0  0  0  0  0  0  0  0  0
  182.4560  176.0970  139.4170 C   0  0  0  0  0  2  0  0  0  0  0  0
  181.0370  175.9370  139.9450 C   0  0  0  0  0  1  0  0  0  0  0  0
  182.7080  178.3780  142.0830 O   0  0  0  0  0  0  0  0  0  0  0  0
  181.5540  179.1470  141.9020 C   0  0  0  0  0  2  0  0  0  0  0  0
  181.2230  179.7900  143.0950 O   0  0  0  0  0  1  0  0  0  0  0  0
  1 30  1  0  0  0  0
  1  2  1  1  0  0  0
  3  1  1  1  0  0  0
  3  4  1  0  0  0  0
  3  7  1  0  0  0  0
  4  8  1  0  0  0  0
  6  4  2  0  0  0  0
  7  5  1  0  0  0  0
  8  5  1  0  0  0  0
  8  9  1  1  0  0  0
  9 10  1  0  0  0  0
 10 11  1  0  0  0  0
 11 12  1  0  0  0  0
 13 14  1  6  0  0  0
 13  1  1  0  0  0  0
 15 13  1  0  0  0  0
 16 15  1  0  0  0  0
 17 16  1  0  0  0  0
 19 17  1  0  0  0  0
 19 18  1  1  0  0  0
 20 21  1  0  0  0  0
 20 23  1  0  0  0  0
 21 22  1  6  0  0  0
 21 27  1  0  0  0  0
 23 26  1  0  0  0  0
 24 23  2  0  0  0  0
 25 28  1  0  0  0  0
 26 28  1  0  0  0  0
 27 19  1  1  0  0  0
 27 25  1  0  0  0  0
 29 23  2  0  0  0  0
 30 31  1  0  0  0  0
 31 32  1  1  0  0  0
 33 31  1  0  0  0  0
 34 33  1  1  0  0  0
 34 49  1  0  0  0  0
 37 45  1  0  0  0  0
 37 38  1  0  0  0  0
 38 36  1  6  0  0  0
 38 42  1  0  0  0  0
 39 41  1  0  0  0  0
 40 44  1  0  0  0  0
 41 34  1  1  0  0  0
 42 47  1  1  0  0  0
 42 41  1  0  0  0  0
 43 35  1  0  0  0  0
 44 43  1  0  0  0  0
 45 40  1  6  0  0  0
 45 46  1  0  0  0  0
 46 35  2  0  0  0  0
 46 39  1  0  0  0  0
 47 48  1  0  0  0  0
 50 49  1  0  0  0  0
 50 51  1  0  0  0  0
M  END
>  <MODEL>
9

>  <REMARK>
 VINA RESULT:      -6.5      3.511      7.973
  Name = 
  18 active torsions:
  status: ('A' for Active; 'I' for Inactive)
    1  A    between atoms: C_1  and  C_4
    2  A    between atoms: C_1  and  C_10
    3  A    between atoms: C_4  and  C_9
    4  A    between atoms: C_5  and  C_9
    5  A    between atoms: C_9  and  C_38
    6  A    between atoms: C_10  and  C_43
    7  A    between atoms: C_11  and  O_15
    8  A    between atoms: C_11  and  C_38
    9  A    between atoms: O_15  and  C_26
   10  A    between atoms: O_18  and  C_19
   11  A    between atoms: O_18  and  C_45
   12  A    between atoms: C_19  and  C_21
   13  A    between atoms: C_22  and  O_47
   14  A    between atoms: C_26  and  C_34
   15  A    between atoms: C_26  and  O_47
   16  A    between atoms: C_29  and  C_35
   17  A    between atoms: C_37  and  C_50
   18  A    between atoms: C_43  and  C_50
                            x       y       z     vdW  Elec       q    Type
                         _______ _______ _______ _____ _____    ______ ____

>  <TORSDO>
F 18

$$$$
