=
 OpenBabel10232409273D

 52 57  0  0  1  0  0  0  0  0999 V2000
  190.3810  175.8090  135.9780 C   0  0  0  0  0  0  0  0  0  0  0  0
  193.9750  173.9360  134.8000 O   0  0  0  0  0  0  0  0  0  0  0  0
  189.3920  176.8170  136.4600 C   0  0  0  0  0  2  0  0  0  0  0  0
  192.0520  172.6380  135.5960 C   0  0  1  0  0  3  0  0  0  0  0  0
  187.5990  173.9840  135.6460 S   0  0  0  0  0  0  0  0  0  0  0  0
  192.6710  174.0160  135.3190 C   0  0  1  0  0  3  0  0  0  0  0  0
  194.5820  175.1520  135.1490 C   0  0  1  0  0  3  0  0  0  0  0  0
  188.7180  171.6120  135.1440 N   0  0  0  0  0  2  0  0  0  0  0  0
  190.1440  174.9330  134.9210 O   0  0  0  0  0  0  0  0  0  0  0  0
  189.6850  172.6050  134.8470 C   0  0  0  0  0  0  0  0  0  0  0  0
  189.2840  173.8440  135.0660 C   0  0  0  0  0  0  0  0  0  0  0  0
  192.6820  174.8800  136.5680 C   0  0  2  0  0  3  0  0  0  0  0  0
  192.3690  177.0300  138.7850 C   0  0  0  0  0  1  0  0  0  0  0  0
  191.4970  175.8270  136.6990 C   0  0  0  0  0  0  0  0  0  0  0  0
  193.9710  175.6440  136.4470 C   0  0  0  0  0  2  0  0  0  0  0  0
  190.0530  177.3910  137.7240 C   0  0  2  0  0  3  0  0  0  0  0  0
  186.3120  171.7030  134.8120 C   0  0  0  0  0  1  0  0  0  0  0  0
  187.4760  172.1520  135.6730 C   0  0  2  0  0  3  0  0  0  0  0  0
  191.3650  176.7600  137.7640 N   0  0  0  0  0  0  0  0  0  0  0  0
  191.0920  172.2420  134.4800 C   0  0  0  0  0  2  0  0  0  0  0  0
  199.9920  174.3800  136.5070 C   0  0  0  0  0  2  0  0  0  0  0  0
  198.8820  174.7820  135.5200 C   0  0  0  0  0  2  0  0  0  0  0  0
  198.7590  172.3450  134.8060 C   0  0  0  0  0  2  0  0  0  0  0  0
  199.8540  172.1030  137.0620 C   0  0  0  0  0  2  0  0  0  0  0  0
  196.0140  174.9460  135.3160 N   0  0  0  0  0  2  0  0  0  0  0  0
  199.4820  173.4450  137.5020 N   0  0  0  0  0  2  0  0  0  0  0  0
  198.8210  171.5280  136.0900 C   0  0  0  0  0  2  0  0  0  0  0  0
  198.1030  173.6270  135.0630 N   0  0  0  0  0  0  0  0  0  0  0  0
  196.0190  172.8000  134.4020 O   0  0  0  0  0  0  0  0  0  0  0  0
  196.6820  173.7480  134.9020 C   0  0  0  0  0  0  0  0  0  0  0  0
  193.0500  171.5600  135.8900 C   0  0  0  0  0  0  0  0  0  0  0  0
  193.8460  171.6600  136.8630 O   0  0  0  0  0  0  0  0  0  0  0  0
  193.1120  170.4010  135.0370 C   0  0  0  0  0  0  0  0  0  0  0  0
  193.1730  169.4680  134.3580 N   0  0  0  0  0  0  0  0  0  0  0  0
  189.2470  176.9880  138.9500 C   0  0  0  0  0  2  0  0  0  0  0  0
  188.5540  178.1880  139.5760 C   0  0  0  0  0  2  0  0  0  0  0  0
  188.0950  178.2970  142.0650 C   0  0  0  0  0  0  0  0  0  0  0  0
  188.9940  178.3810  140.9520 N   0  0  0  0  0  2  0  0  0  0  0  0
  186.8780  178.0400  141.8840 O   0  0  0  0  0  0  0  0  0  0  0  0
  191.0210  177.5320  143.2960 C   0  0  2  0  0  3  0  0  0  0  0  0
  190.4650  179.4640  144.6650 F   0  0  0  0  0  0  0  0  0  0  0  0
  191.9070  176.1810  146.6180 C   0  0  0  0  0  1  0  0  0  0  0  0
  188.5970  178.5020  143.4590 C   0  0  1  0  0  3  0  0  0  0  0  0
  190.8320  176.3920  144.3030 C   0  0  1  0  0  3  0  0  0  0  0  0
  188.4770  177.7490  145.9330 C   0  0  0  0  0  2  0  0  0  0  0  0
  191.7400  175.3560  144.0510 O   0  0  0  0  0  1  0  0  0  0  0  0
  190.8570  176.8740  145.7640 C   0  0  1  0  0  3  0  0  0  0  0  0
  192.3560  177.9430  143.2720 O   0  0  0  0  0  1  0  0  0  0  0  0
  187.9340  176.2220  144.1010 O   0  0  0  0  0  1  0  0  0  0  0  0
  187.9500  177.5650  144.5030 C   0  0  2  0  0  3  0  0  0  0  0  0
  189.4810  176.6780  146.3860 C   0  0  0  0  0  2  0  0  0  0  0  0
  190.1160  178.7500  143.5270 C   0  0  2  0  0  3  0  0  0  0  0  0
  1  3  1  0  0  0  0
  1 14  2  0  0  0  0
  2  7  1  0  0  0  0
  3 16  1  0  0  0  0
  4 31  1  6  0  0  0
  5 18  1  0  0  0  0
  6  2  1  1  0  0  0
  6  4  1  0  0  0  0
  6 12  1  0  0  0  0
  7 25  1  1  0  0  0
  7 15  1  0  0  0  0
  8 18  1  0  0  0  0
  9 11  1  0  0  0  0
  9  1  1  0  0  0  0
 10 11  2  0  0  0  0
 10  8  1  0  0  0  0
 11  5  1  0  0  0  0
 12 15  1  6  0  0  0
 12 14  1  0  0  0  0
 14 19  1  0  0  0  0
 16 19  1  0  0  0  0
 16 35  1  1  0  0  0
 18 17  1  6  0  0  0
 19 13  1  0  0  0  0
 20 10  1  0  0  0  0
 20  4  1  0  0  0  0
 21 26  1  0  0  0  0
 22 21  1  0  0  0  0
 23 28  1  0  0  0  0
 23 27  1  0  0  0  0
 24 26  1  0  0  0  0
 27 24  1  0  0  0  0
 28 22  1  0  0  0  0
 29 30  2  0  0  0  0
 30 28  1  0  0  0  0
 30 25  1  0  0  0  0
 31 32  2  0  0  0  0
 33 31  1  0  0  0  0
 34 33  3  0  0  0  0
 35 36  1  0  0  0  0
 36 38  1  0  0  0  0
 38 37  1  0  0  0  0
 39 37  2  0  0  0  0
 40 48  1  1  0  0  0
 40 52  1  0  0  0  0
 40 44  1  0  0  0  0
 43 37  1  6  0  0  0
 43 52  1  0  0  0  0
 43 50  1  0  0  0  0
 44 46  1  1  0  0  0
 44 47  1  0  0  0  0
 45 51  1  0  0  0  0
 47 51  1  0  0  0  0
 47 42  1  1  0  0  0
 50 49  1  6  0  0  0
 50 45  1  0  0  0  0
 52 41  1  1  0  0  0
M  END
>  <MODEL>
1

>  <REMARK>
 VINA RESULT:      -7.8      0.000      0.000
  Name = 
  7 active torsions:
  status: ('A' for Active; 'I' for Inactive)
    1  A    between atoms: C_1  and  C_14
    2  A    between atoms: C_11  and  C_24
    3  A    between atoms: C_15  and  C_43
    4  A    between atoms: C_15  and  C_45
    5  A    between atoms: N_20  and  C_45
    6  A    between atoms: C_22  and  N_28
    7  A    between atoms: C_24  and  C_27
                            x       y       z     vdW  Elec       q    Type
                         _______ _______ _______ _____ _____    ______ ____

>  <TORSDO>
F 7

$$$$
=
 OpenBabel10232409273D

 52 57  0  0  1  0  0  0  0  0999 V2000
  188.7500  176.7410  135.8560 C   0  0  0  0  0  0  0  0  0  0  0  0
  189.9980  172.7750  135.1280 O   0  0  0  0  0  0  0  0  0  0  0  0
  188.7540  178.2030  136.1540 C   0  0  0  0  0  2  0  0  0  0  0  0
  187.7470  173.2800  135.9620 C   0  0  1  0  0  3  0  0  0  0  0  0
  185.4680  177.3190  135.5870 S   0  0  0  0  0  0  0  0  0  0  0  0
  189.1340  173.7990  135.5560 C   0  0  1  0  0  3  0  0  0  0  0  0
  191.2910  173.2670  135.3610 C   0  0  1  0  0  3  0  0  0  0  0  0
  184.6140  174.7930  135.4440 N   0  0  0  0  0  2  0  0  0  0  0  0
  187.9290  176.1450  134.9020 O   0  0  0  0  0  0  0  0  0  0  0  0
  185.9850  174.7940  135.0850 C   0  0  0  0  0  0  0  0  0  0  0  0
  186.5620  175.9810  135.1280 C   0  0  0  0  0  0  0  0  0  0  0  0
  189.7920  174.5670  136.6890 C   0  0  2  0  0  3  0  0  0  0  0  0
  191.1470  176.5980  138.6050 C   0  0  0  0  0  1  0  0  0  0  0  0
  189.5980  176.0760  136.6340 C   0  0  0  0  0  0  0  0  0  0  0  0
  191.2460  174.2060  136.5510 C   0  0  0  0  0  2  0  0  0  0  0  0
  189.6810  178.3170  137.3750 C   0  0  2  0  0  3  0  0  0  0  0  0
  182.9270  176.4750  134.9640 C   0  0  0  0  0  1  0  0  0  0  0  0
  184.1140  176.1020  135.8300 C   0  0  2  0  0  3  0  0  0  0  0  0
  190.1930  176.9670  137.5680 N   0  0  0  0  0  0  0  0  0  0  0  0
  186.7340  173.5180  134.8480 C   0  0  0  0  0  2  0  0  0  0  0  0
  194.6990  168.7990  135.7200 C   0  0  0  0  0  2  0  0  0  0  0  0
  193.7650  169.8500  136.3450 C   0  0  0  0  0  2  0  0  0  0  0  0
  195.7910  171.3620  136.6100 C   0  0  0  0  0  2  0  0  0  0  0  0
  196.6220  169.7980  134.8180 C   0  0  0  0  0  2  0  0  0  0  0  0
  192.1880  172.1530  135.6350 N   0  0  0  0  0  2  0  0  0  0  0  0
  195.2890  169.3030  134.4860 N   0  0  0  0  0  2  0  0  0  0  0  0
  196.5730  171.2470  135.3080 C   0  0  0  0  0  2  0  0  0  0  0  0
  194.3620  171.1890  136.3490 N   0  0  0  0  0  0  0  0  0  0  0  0
  194.0190  173.4940  136.1720 O   0  0  0  0  0  0  0  0  0  0  0  0
  193.5450  172.3320  136.0600 C   0  0  0  0  0  0  0  0  0  0  0  0
  187.7340  171.8610  136.4420 C   0  0  0  0  0  0  0  0  0  0  0  0
  187.9420  171.5850  137.6550 O   0  0  0  0  0  0  0  0  0  0  0  0
  187.4980  170.7970  135.5010 C   0  0  0  0  0  0  0  0  0  0  0  0
  187.3200  169.9440  134.7420 N   0  0  0  0  0  0  0  0  0  0  0  0
  188.8730  178.7440  138.5910 C   0  0  0  0  0  2  0  0  0  0  0  0
  188.5580  177.5590  139.4900 C   0  0  0  0  0  2  0  0  0  0  0  0
  188.1280  178.2680  141.8840 C   0  0  0  0  0  0  0  0  0  0  0  0
  189.0100  177.8070  140.8530 N   0  0  0  0  0  2  0  0  0  0  0  0
  186.9110  178.4660  141.6400 O   0  0  0  0  0  0  0  0  0  0  0  0
  191.0470  177.4870  143.1220 C   0  0  2  0  0  3  0  0  0  0  0  0
  190.5350  179.4710  144.4330 F   0  0  0  0  0  0  0  0  0  0  0  0
  191.9290  176.2250  146.4800 C   0  0  0  0  0  1  0  0  0  0  0  0
  188.6420  178.5070  143.2680 C   0  0  1  0  0  3  0  0  0  0  0  0
  190.8440  176.3840  144.1650 C   0  0  1  0  0  3  0  0  0  0  0  0
  188.5230  177.8330  145.7650 C   0  0  0  0  0  2  0  0  0  0  0  0
  191.7310  175.3240  143.9400 O   0  0  0  0  0  1  0  0  0  0  0  0
  190.8870  176.9100  145.6100 C   0  0  1  0  0  3  0  0  0  0  0  0
  192.3890  177.8730  143.0780 O   0  0  0  0  0  1  0  0  0  0  0  0
  187.9420  176.2610  143.9850 O   0  0  0  0  0  1  0  0  0  0  0  0
  187.9840  177.6140  144.3450 C   0  0  2  0  0  3  0  0  0  0  0  0
  189.5100  176.7590  146.2450 C   0  0  0  0  0  2  0  0  0  0  0  0
  190.1650  178.7290  143.3200 C   0  0  2  0  0  3  0  0  0  0  0  0
  1  3  1  0  0  0  0
  1 14  2  0  0  0  0
  2  7  1  0  0  0  0
  3 16  1  0  0  0  0
  4 31  1  6  0  0  0
  5 18  1  0  0  0  0
  6  2  1  1  0  0  0
  6  4  1  0  0  0  0
  6 12  1  0  0  0  0
  7 25  1  1  0  0  0
  7 15  1  0  0  0  0
  8 18  1  0  0  0  0
  9 11  1  0  0  0  0
  9  1  1  0  0  0  0
 10 11  2  0  0  0  0
 10  8  1  0  0  0  0
 11  5  1  0  0  0  0
 12 15  1  6  0  0  0
 14 12  1  0  0  0  0
 14 19  1  0  0  0  0
 16 19  1  0  0  0  0
 16 35  1  1  0  0  0
 18 17  1  6  0  0  0
 19 13  1  0  0  0  0
 20 10  1  0  0  0  0
 20  4  1  0  0  0  0
 21 22  1  0  0  0  0
 22 28  1  0  0  0  0
 24 27  1  0  0  0  0
 25 30  1  0  0  0  0
 26 24  1  0  0  0  0
 26 21  1  0  0  0  0
 27 23  1  0  0  0  0
 28 23  1  0  0  0  0
 30 29  2  0  0  0  0
 30 28  1  0  0  0  0
 31 32  2  0  0  0  0
 33 31  1  0  0  0  0
 34 33  3  0  0  0  0
 35 36  1  0  0  0  0
 36 38  1  0  0  0  0
 38 37  1  0  0  0  0
 39 37  2  0  0  0  0
 40 48  1  1  0  0  0
 40 52  1  0  0  0  0
 40 44  1  0  0  0  0
 43 37  1  6  0  0  0
 43 52  1  0  0  0  0
 43 50  1  0  0  0  0
 44 46  1  1  0  0  0
 44 47  1  0  0  0  0
 45 51  1  0  0  0  0
 47 51  1  0  0  0  0
 47 42  1  1  0  0  0
 50 49  1  6  0  0  0
 50 45  1  0  0  0  0
 52 41  1  1  0  0  0
M  END
>  <MODEL>
2

>  <REMARK>
 VINA RESULT:      -7.7      2.161      3.540
  Name = 
  7 active torsions:
  status: ('A' for Active; 'I' for Inactive)
    1  A    between atoms: C_1  and  C_14
    2  A    between atoms: C_11  and  C_24
    3  A    between atoms: C_15  and  C_43
    4  A    between atoms: C_15  and  C_45
    5  A    between atoms: N_20  and  C_45
    6  A    between atoms: C_22  and  N_28
    7  A    between atoms: C_24  and  C_27
                            x       y       z     vdW  Elec       q    Type
                         _______ _______ _______ _____ _____    ______ ____

>  <TORSDO>
F 7

$$$$
=
 OpenBabel10232409273D

 52 57  0  0  1  0  0  0  0  0999 V2000
  188.1640  177.2150  136.7630 C   0  0  0  0  0  0  0  0  0  0  0  0
  191.3590  175.0050  135.1150 O   0  0  0  0  0  0  0  0  0  0  0  0
  187.3770  178.2440  137.5050 C   0  0  0  0  0  2  0  0  0  0  0  0
  189.1680  173.9820  135.5260 C   0  0  1  0  0  3  0  0  0  0  0  0
  185.0910  176.1830  135.9470 S   0  0  0  0  0  0  0  0  0  0  0  0
  190.0720  175.2190  135.6370 C   0  0  1  0  0  3  0  0  0  0  0  0
  192.1820  175.9250  135.7840 C   0  0  1  0  0  3  0  0  0  0  0  0
  185.7260  173.8500  134.8130 N   0  0  0  0  0  0  0  0  0  0  0  0
  187.8140  176.7260  135.5080 O   0  0  0  0  0  0  0  0  0  0  0  0
  186.8920  174.6570  134.7990 C   0  0  0  0  0  0  0  0  0  0  0  0
  186.7420  175.8470  135.3490 C   0  0  1  0  0  3  0  0  0  0  0  0
  190.1880  175.6940  137.0750 C   0  0  2  0  0  3  0  0  0  0  0  0
  190.1950  177.1870  139.7960 C   0  0  0  0  0  1  0  0  0  0  0  0
  189.2170  176.8010  137.4610 C   0  0  0  0  0  0  0  0  0  0  0  0
  191.6110  176.1700  137.1670 C   0  0  0  0  0  2  0  0  0  0  0  0
  188.0680  178.3040  138.8770 C   0  0  2  0  0  3  0  0  0  0  0  0
  183.4130  174.5370  134.5210 C   0  0  0  0  0  1  0  0  0  0  0  0
  184.5930  174.4810  135.4710 C   0  0  2  0  0  3  0  0  0  0  0  0
  189.2180  177.4200  138.7410 N   0  0  0  0  0  0  0  0  0  0  0  0
  188.2130  174.1140  134.3460 C   0  0  0  0  0  2  0  0  0  0  0  0
  197.6080  174.5040  136.2740 C   0  0  0  0  0  2  0  0  0  0  0  0
  196.1640  174.2190  135.8280 C   0  0  0  0  0  2  0  0  0  0  0  0
  195.7420  173.2320  138.1320 C   0  0  0  0  0  2  0  0  0  0  0  0
  197.7630  174.6590  138.6110 C   0  0  0  0  0  2  0  0  0  0  0  0
  193.5290  175.3810  135.8870 N   0  0  0  0  0  2  0  0  0  0  0  0
  197.6270  175.4450  137.3880 N   0  0  0  0  0  2  0  0  0  0  0  0
  196.4010  174.1830  139.1230 C   0  0  0  0  0  2  0  0  0  0  0  0
  195.2710  173.9770  136.9650 N   0  0  0  0  0  0  0  0  0  0  0  0
  193.1250  174.2110  137.8630 O   0  0  0  0  0  0  0  0  0  0  0  0
  193.9370  174.5070  136.9460 C   0  0  0  0  0  0  0  0  0  0  0  0
  189.9050  172.6780  135.5130 C   0  0  0  0  0  0  0  0  0  0  0  0
  191.1020  172.6050  135.9040 O   0  0  0  0  0  0  0  0  0  0  0  0
  189.2410  171.4950  135.0290 C   0  0  0  0  0  0  0  0  0  0  0  0
  188.7190  170.5430  134.6340 N   0  0  0  0  0  0  0  0  0  0  0  0
  187.1270  177.7690  139.9460 C   0  0  0  0  0  2  0  0  0  0  0  0
  186.7140  178.8630  140.9180 C   0  0  0  0  0  2  0  0  0  0  0  0
  187.3660  178.3930  143.3200 C   0  0  0  0  0  0  0  0  0  0  0  0
  187.6510  178.9490  142.0300 N   0  0  0  0  0  2  0  0  0  0  0  0
  186.2820  177.7930  143.5310 O   0  0  0  0  0  0  0  0  0  0  0  0
  190.4410  177.2960  143.4000 C   0  0  2  0  0  3  0  0  0  0  0  0
  190.6340  179.2380  144.8520 F   0  0  0  0  0  0  0  0  0  0  0  0
  192.3350  175.7730  146.1820 C   0  0  0  0  0  1  0  0  0  0  0  0
  188.3630  178.5080  144.4290 C   0  0  1  0  0  3  0  0  0  0  0  0
  190.5150  176.1560  144.4200 C   0  0  1  0  0  3  0  0  0  0  0  0
  189.0790  177.7050  146.7840 C   0  0  0  0  0  2  0  0  0  0  0  0
  191.1520  175.0390  143.8660 O   0  0  0  0  0  1  0  0  0  0  0  0
  191.1250  176.5930  145.7640 C   0  0  1  0  0  3  0  0  0  0  0  0
  191.7100  177.5680  142.8820 O   0  0  0  0  0  1  0  0  0  0  0  0
  187.7440  176.2920  145.3000 O   0  0  0  0  0  1  0  0  0  0  0  0
  188.0480  177.6150  145.6500 C   0  0  2  0  0  3  0  0  0  0  0  0
  190.0600  176.5240  146.8500 C   0  0  0  0  0  2  0  0  0  0  0  0
  189.8180  178.5960  143.9310 C   0  0  2  0  0  3  0  0  0  0  0  0
  1 14  2  0  0  0  0
  1  3  1  0  0  0  0
  2  7  1  0  0  0  0
  3 16  1  0  0  0  0
  4 31  1  6  0  0  0
  4  6  1  0  0  0  0
  6  2  1  1  0  0  0
  6 12  1  0  0  0  0
  7 25  1  1  0  0  0
  7 15  1  0  0  0  0
  8 18  1  0  0  0  0
  9  1  1  0  0  0  0
 10  8  2  0  0  0  0
 11 10  1  1  0  0  0
 11  9  1  0  0  0  0
 11  5  1  0  0  0  0
 12 15  1  6  0  0  0
 12 14  1  0  0  0  0
 14 19  1  0  0  0  0
 16 35  1  1  0  0  0
 18 17  1  6  0  0  0
 18  5  1  0  0  0  0
 19 16  1  0  0  0  0
 19 13  1  0  0  0  0
 20 10  1  0  0  0  0
 20  4  1  0  0  0  0
 21 26  1  0  0  0  0
 22 21  1  0  0  0  0
 22 28  1  0  0  0  0
 23 27  1  0  0  0  0
 24 27  1  0  0  0  0
 25 30  1  0  0  0  0
 26 24  1  0  0  0  0
 28 23  1  0  0  0  0
 30 28  1  0  0  0  0
 30 29  2  0  0  0  0
 31 32  2  0  0  0  0
 33 31  1  0  0  0  0
 34 33  3  0  0  0  0
 35 36  1  0  0  0  0
 36 38  1  0  0  0  0
 37 39  2  0  0  0  0
 38 37  1  0  0  0  0
 40 48  1  1  0  0  0
 40 52  1  0  0  0  0
 40 44  1  0  0  0  0
 43 37  1  6  0  0  0
 43 50  1  0  0  0  0
 44 46  1  6  0  0  0
 44 47  1  0  0  0  0
 45 51  1  0  0  0  0
 47 42  1  1  0  0  0
 47 51  1  0  0  0  0
 50 49  1  6  0  0  0
 50 45  1  0  0  0  0
 52 43  1  0  0  0  0
 52 41  1  1  0  0  0
M  END
>  <MODEL>
3

>  <REMARK>
 VINA RESULT:      -6.5      2.071      2.780
  Name = 
  7 active torsions:
  status: ('A' for Active; 'I' for Inactive)
    1  A    between atoms: C_1  and  C_14
    2  A    between atoms: C_11  and  C_24
    3  A    between atoms: C_15  and  C_43
    4  A    between atoms: C_15  and  C_45
    5  A    between atoms: N_20  and  C_45
    6  A    between atoms: C_22  and  N_28
    7  A    between atoms: C_24  and  C_27
                            x       y       z     vdW  Elec       q    Type
                         _______ _______ _______ _____ _____    ______ ____

>  <TORSDO>
F 7

$$$$
=
 OpenBabel10232409273D

 52 57  0  0  1  0  0  0  0  0999 V2000
  189.2000  177.8150  139.6410 C   0  0  0  0  0  0  0  0  0  0  0  0
  185.4890  179.6460  140.4690 O   0  0  0  0  0  0  0  0  0  0  0  0
  190.3860  177.2590  138.9250 C   0  0  0  0  0  2  0  0  0  0  0  0
  186.5170  178.0620  142.0340 C   0  0  1  0  0  3  0  0  0  0  0  0
  191.0180  176.9150  142.2990 S   0  0  0  0  0  0  0  0  0  0  0  0
  186.5760  178.7790  140.6780 C   0  0  1  0  0  3  0  0  0  0  0  0
  185.3630  179.7440  139.0750 C   0  0  1  0  0  3  0  0  0  0  0  0
  189.1720  177.2620  144.1980 N   0  0  0  0  0  2  0  0  0  0  0  0
  189.2800  178.5550  140.8170 O   0  0  0  0  0  0  0  0  0  0  0  0
  188.7710  178.0280  143.0760 C   0  0  0  0  0  0  0  0  0  0  0  0
  189.5790  177.9440  142.0360 C   0  0  0  0  0  0  0  0  0  0  0  0
  186.6520  177.7870  139.5300 C   0  0  2  0  0  3  0  0  0  0  0  0
  187.3320  176.0470  137.0510 C   0  0  0  0  0  1  0  0  0  0  0  0
  188.0610  177.4880  139.0380 C   0  0  0  0  0  0  0  0  0  0  0  0
  185.8350  178.4440  138.4520 C   0  0  0  0  0  2  0  0  0  0  0  0
  189.7630  176.3970  137.8150 C   0  0  2  0  0  3  0  0  0  0  0  0
  191.4230  176.8510  145.0170 C   0  0  0  0  0  1  0  0  0  0  0  0
  190.3860  176.4930  143.9710 C   0  0  2  0  0  3  0  0  0  0  0  0
  188.3310  176.6380  137.9310 N   0  0  0  0  0  0  0  0  0  0  0  0
  187.4470  178.7300  143.0400 C   0  0  0  0  0  2  0  0  0  0  0  0
  180.2190  180.9430  137.1250 C   0  0  0  0  0  2  0  0  0  0  0  0
  181.2030  180.6440  138.2690 C   0  0  0  0  0  2  0  0  0  0  0  0
  180.7100  178.1730  137.9270 C   0  0  0  0  0  2  0  0  0  0  0  0
  179.9870  179.0950  135.6960 C   0  0  0  0  0  2  0  0  0  0  0  0
  183.9680  179.9870  138.7320 N   0  0  0  0  0  2  0  0  0  0  0  0
  180.6910  180.3620  135.8740 N   0  0  0  0  0  2  0  0  0  0  0  0
  180.7020  177.9520  136.4190 C   0  0  0  0  0  2  0  0  0  0  0  0
  181.6440  179.2460  138.2680 N   0  0  0  0  0  0  0  0  0  0  0  0
  183.3760  177.7320  138.6820 O   0  0  0  0  0  0  0  0  0  0  0  0
  183.0120  178.9330  138.5690 C   0  0  0  0  0  0  0  0  0  0  0  0
  185.1320  177.8830  142.5790 C   0  0  0  0  0  0  0  0  0  0  0  0
  184.2000  177.4470  141.8500 O   0  0  0  0  0  0  0  0  0  0  0  0
  184.8600  178.2310  143.9500 C   0  0  0  0  0  0  0  0  0  0  0  0
  184.6320  178.5160  145.0460 N   0  0  0  0  0  0  0  0  0  0  0  0
  190.0650  174.9290  138.0800 C   0  0  0  0  0  2  0  0  0  0  0  0
  190.2690  174.1630  136.7820 C   0  0  0  0  0  2  0  0  0  0  0  0
  192.5350  174.5360  135.7130 C   0  0  0  0  0  0  0  0  0  0  0  0
  191.6730  173.8150  136.6020 N   0  0  0  0  0  2  0  0  0  0  0  0
  192.1000  175.5160  135.0570 O   0  0  0  0  0  0  0  0  0  0  0  0
  194.6370  173.6300  138.0410 C   0  0  2  0  0  3  0  0  0  0  0  0
  195.5020  172.3580  136.1560 F   0  0  0  0  0  0  0  0  0  0  0  0
  198.2330  174.3940  138.4070 C   0  0  0  0  0  1  0  0  0  0  0  0
  193.9700  174.1390  135.5630 C   0  0  1  0  0  3  0  0  0  0  0  0
  195.7030  174.7220  138.1750 C   0  0  1  0  0  3  0  0  0  0  0  0
  196.3920  174.9210  135.0870 C   0  0  0  0  0  2  0  0  0  0  0  0
  195.8690  175.0880  139.5160 O   0  0  0  0  0  1  0  0  0  0  0  0
  197.0270  174.3550  137.4820 C   0  0  1  0  0  3  0  0  0  0  0  0
  194.9310  172.5580  138.8880 O   0  0  0  0  0  1  0  0  0  0  0  0
  194.7200  176.4330  136.0360 O   0  0  0  0  0  1  0  0  0  0  0  0
  194.9130  175.3130  135.2160 C   0  0  2  0  0  3  0  0  0  0  0  0
  197.2570  175.2890  136.3010 C   0  0  0  0  0  2  0  0  0  0  0  0
  194.4270  173.1070  136.6120 C   0  0  2  0  0  3  0  0  0  0  0  0
  1  9  1  0  0  0  0
  3  1  1  0  0  0  0
  4 31  1  1  0  0  0
  4 20  1  0  0  0  0
  5 18  1  0  0  0  0
  6  2  1  6  0  0  0
  6  4  1  0  0  0  0
  7 25  1  1  0  0  0
  7  2  1  0  0  0  0
  9 11  1  0  0  0  0
 10  8  1  0  0  0  0
 11  5  1  0  0  0  0
 11 10  2  0  0  0  0
 12 15  1  6  0  0  0
 12  6  1  0  0  0  0
 13 19  1  0  0  0  0
 14 12  1  0  0  0  0
 14  1  2  0  0  0  0
 15  7  1  0  0  0  0
 16 19  1  0  0  0  0
 16 35  1  1  0  0  0
 16  3  1  0  0  0  0
 18  8  1  0  0  0  0
 18 17  1  1  0  0  0
 19 14  1  0  0  0  0
 20 10  1  0  0  0  0
 21 22  1  0  0  0  0
 23 28  1  0  0  0  0
 24 26  1  0  0  0  0
 24 27  1  0  0  0  0
 26 21  1  0  0  0  0
 27 23  1  0  0  0  0
 28 22  1  0  0  0  0
 28 30  1  0  0  0  0
 30 29  2  0  0  0  0
 30 25  1  0  0  0  0
 31 33  1  0  0  0  0
 32 31  2  0  0  0  0
 33 34  3  0  0  0  0
 36 35  1  0  0  0  0
 37 38  1  0  0  0  0
 38 36  1  0  0  0  0
 39 37  2  0  0  0  0
 40 44  1  0  0  0  0
 40 48  1  1  0  0  0
 43 37  1  1  0  0  0
 43 52  1  0  0  0  0
 44 46  1  1  0  0  0
 45 50  1  0  0  0  0
 45 51  1  0  0  0  0
 47 44  1  0  0  0  0
 47 42  1  1  0  0  0
 50 43  1  0  0  0  0
 50 49  1  1  0  0  0
 51 47  1  0  0  0  0
 52 41  1  6  0  0  0
 52 40  1  0  0  0  0
M  END
>  <MODEL>
4

>  <REMARK>
 VINA RESULT:      -6.4      4.547     11.723
  Name = 
  7 active torsions:
  status: ('A' for Active; 'I' for Inactive)
    1  A    between atoms: C_1  and  C_14
    2  A    between atoms: C_11  and  C_24
    3  A    between atoms: C_15  and  C_43
    4  A    between atoms: C_15  and  C_45
    5  A    between atoms: N_20  and  C_45
    6  A    between atoms: C_22  and  N_28
    7  A    between atoms: C_24  and  C_27
                            x       y       z     vdW  Elec       q    Type
                         _______ _______ _______ _____ _____    ______ ____

>  <TORSDO>
F 7

$$$$
=
 OpenBabel10232409273D

 52 57  0  0  1  0  0  0  0  0999 V2000
  186.7400  177.1820  143.9890 C   0  0  0  0  0  0  0  0  0  0  0  0
  190.4390  176.4900  142.0790 O   0  0  0  0  0  0  0  0  0  0  0  0
  185.2780  177.3220  144.2540 C   0  0  0  0  0  2  0  0  0  0  0  0
  190.2660  177.9240  144.0610 C   0  0  1  0  0  3  0  0  0  0  0  0
  186.8840  177.8820  147.2560 S   0  0  0  0  0  0  0  0  0  0  0  0
  189.5540  177.0620  143.0090 C   0  0  1  0  0  3  0  0  0  0  0  0
  189.6660  176.2650  140.9290 C   0  0  1  0  0  3  0  0  0  0  0  0
  189.5190  178.2520  147.4830 N   0  0  0  0  0  2  0  0  0  0  0  0
  187.6360  176.5890  144.8750 O   0  0  0  0  0  0  0  0  0  0  0  0
  189.3010  177.4910  146.3080 C   0  0  0  0  0  0  0  0  0  0  0  0
  188.0320  177.2400  146.0450 C   0  0  0  0  0  0  0  0  0  0  0  0
  188.4950  177.8590  142.2660 C   0  0  2  0  0  3  0  0  0  0  0  0
  185.9470  179.0600  140.9620 C   0  0  0  0  0  1  0  0  0  0  0  0
  187.0850  177.7220  142.8250 C   0  0  0  0  0  0  0  0  0  0  0  0
  188.5740  177.3160  140.8660 C   0  0  0  0  0  2  0  0  0  0  0  0
  184.7820  178.1820  143.0800 C   0  0  2  0  0  3  0  0  0  0  0  0
  188.3110  178.1550  149.5900 C   0  0  0  0  0  1  0  0  0  0  0  0
  188.2910  178.6460  148.1550 C   0  0  2  0  0  3  0  0  0  0  0  0
  185.9520  178.3370  142.2260 N   0  0  0  0  0  0  0  0  0  0  0  0
  190.4220  177.1590  145.3710 C   0  0  0  0  0  2  0  0  0  0  0  0
  193.2420  175.9880  136.5890 C   0  0  0  0  0  2  0  0  0  0  0  0
  192.3090  176.7650  137.5330 C   0  0  0  0  0  2  0  0  0  0  0  0
  190.4010  176.2320  135.9390 C   0  0  0  0  0  2  0  0  0  0  0  0
  192.0470  174.4350  135.2970 C   0  0  0  0  0  2  0  0  0  0  0  0
  190.5170  176.3560  139.7510 N   0  0  0  0  0  2  0  0  0  0  0  0
  192.8450  174.5870  136.5090 N   0  0  0  0  0  2  0  0  0  0  0  0
  190.5750  174.7690  135.5520 C   0  0  0  0  0  2  0  0  0  0  0  0
  190.8960  176.4490  137.2990 N   0  0  0  0  0  0  0  0  0  0  0  0
  188.7680  176.1570  138.2210 O   0  0  0  0  0  0  0  0  0  0  0  0
  190.0030  176.3160  138.4140 C   0  0  0  0  0  0  0  0  0  0  0  0
  191.5620  178.5190  143.5990 C   0  0  0  0  0  0  0  0  0  0  0  0
  192.1190  179.4440  144.2510 O   0  0  0  0  0  0  0  0  0  0  0  0
  192.1680  178.0390  142.3840 C   0  0  0  0  0  0  0  0  0  0  0  0
  192.6650  177.6620  141.4120 N   0  0  0  0  0  0  0  0  0  0  0  0
  184.3330  179.5410  143.5960 C   0  0  0  0  0  2  0  0  0  0  0  0
  182.8200  179.6820  143.5400 C   0  0  0  0  0  2  0  0  0  0  0  0
  181.0110  179.5100  141.7750 C   0  0  0  0  0  0  0  0  0  0  0  0
  182.2950  179.1410  142.2930 N   0  0  0  0  0  2  0  0  0  0  0  0
  180.2900  180.3380  142.3870 O   0  0  0  0  0  0  0  0  0  0  0  0
  182.5300  177.4070  139.7920 C   0  0  2  0  0  3  0  0  0  0  0  0
  180.2120  176.7910  139.3860 F   0  0  0  0  0  0  0  0  0  0  0  0
  182.5920  177.2610  136.1020 C   0  0  0  0  0  1  0  0  0  0  0  0
  180.5180  178.9270  140.4890 C   0  0  1  0  0  3  0  0  0  0  0  0
  182.8730  178.1390  138.4910 C   0  0  1  0  0  3  0  0  0  0  0  0
  179.9830  179.3410  137.9900 C   0  0  0  0  0  2  0  0  0  0  0  0
  184.2170  177.9370  138.1510 O   0  0  0  0  0  1  0  0  0  0  0  0
  181.9050  177.8070  137.3430 C   0  0  1  0  0  3  0  0  0  0  0  0
  182.8950  176.0610  139.7030 O   0  0  0  0  0  1  0  0  0  0  0  0
  181.6420  180.6830  139.1850 O   0  0  0  0  0  1  0  0  0  0  0  0
  180.4640  179.9360  139.3210 C   0  0  2  0  0  3  0  0  0  0  0  0
  181.1040  179.0500  136.9800 C   0  0  0  0  0  2  0  0  0  0  0  0
  181.0590  177.5090  140.2190 C   0  0  2  0  0  3  0  0  0  0  0  0
  1  3  1  0  0  0  0
  1  9  1  0  0  0  0
  4 31  1  6  0  0  0
  4 20  1  0  0  0  0
  5 18  1  0  0  0  0
  6  2  1  6  0  0  0
  6  4  1  0  0  0  0
  7 25  1  6  0  0  0
  7  2  1  0  0  0  0
  8 18  1  0  0  0  0
  9 11  1  0  0  0  0
 10  8  1  0  0  0  0
 11 10  2  0  0  0  0
 11  5  1  0  0  0  0
 12 15  1  6  0  0  0
 12 14  1  0  0  0  0
 12  6  1  0  0  0  0
 13 19  1  0  0  0  0
 14  1  2  0  0  0  0
 15  7  1  0  0  0  0
 16 35  1  1  0  0  0
 16  3  1  0  0  0  0
 18 17  1  1  0  0  0
 19 14  1  0  0  0  0
 19 16  1  0  0  0  0
 20 10  1  0  0  0  0
 21 22  1  0  0  0  0
 23 28  1  0  0  0  0
 24 27  1  0  0  0  0
 24 26  1  0  0  0  0
 26 21  1  0  0  0  0
 27 23  1  0  0  0  0
 28 22  1  0  0  0  0
 28 30  1  0  0  0  0
 29 30  2  0  0  0  0
 30 25  1  0  0  0  0
 31 32  2  0  0  0  0
 33 31  1  0  0  0  0
 34 33  3  0  0  0  0
 36 35  1  0  0  0  0
 37 38  1  0  0  0  0
 37 39  2  0  0  0  0
 38 36  1  0  0  0  0
 40 48  1  6  0  0  0
 40 52  1  0  0  0  0
 43 37  1  1  0  0  0
 44 46  1  6  0  0  0
 44 40  1  0  0  0  0
 45 50  1  0  0  0  0
 47 42  1  6  0  0  0
 47 44  1  0  0  0  0
 50 49  1  6  0  0  0
 50 43  1  0  0  0  0
 51 47  1  0  0  0  0
 51 45  1  0  0  0  0
 52 41  1  6  0  0  0
 52 43  1  0  0  0  0
M  END
>  <MODEL>
5

>  <REMARK>
 VINA RESULT:      -6.2      4.887      9.825
  Name = 
  7 active torsions:
  status: ('A' for Active; 'I' for Inactive)
    1  A    between atoms: C_1  and  C_14
    2  A    between atoms: C_11  and  C_24
    3  A    between atoms: C_15  and  C_43
    4  A    between atoms: C_15  and  C_45
    5  A    between atoms: N_20  and  C_45
    6  A    between atoms: C_22  and  N_28
    7  A    between atoms: C_24  and  C_27
                            x       y       z     vdW  Elec       q    Type
                         _______ _______ _______ _____ _____    ______ ____

>  <TORSDO>
F 7

$$$$
=
 OpenBabel10232409273D

 52 57  0  0  1  0  0  0  0  0999 V2000
  185.0430  178.5020  138.4480 C   0  0  0  0  0  0  0  0  0  0  0  0
  187.8010  176.8900  135.6910 O   0  0  0  0  0  0  0  0  0  0  0  0
  184.4290  179.3150  139.5390 C   0  0  0  0  0  2  0  0  0  0  0  0
  185.8220  175.6330  136.4110 C   0  0  1  0  0  3  0  0  0  0  0  0
  181.9020  177.3790  138.2080 S   0  0  0  0  0  0  0  0  0  0  0  0
  186.6790  176.9010  136.5370 C   0  0  1  0  0  3  0  0  0  0  0  0
  188.7310  177.7420  136.3060 C   0  0  1  0  0  3  0  0  0  0  0  0
  182.3190  175.3440  136.5300 N   0  0  0  0  0  2  0  0  0  0  0  0
  184.4070  178.2150  137.2430 O   0  0  0  0  0  0  0  0  0  0  0  0
  183.4130  176.2340  136.3920 C   0  0  0  0  0  0  0  0  0  0  0  0
  183.3620  177.2920  137.1800 C   0  0  0  0  0  0  0  0  0  0  0  0
  187.1340  177.1230  137.9690 C   0  0  2  0  0  3  0  0  0  0  0  0
  187.7690  178.1080  140.8430 C   0  0  0  0  0  1  0  0  0  0  0  0
  186.2510  178.0600  138.7810 C   0  0  0  0  0  0  0  0  0  0  0  0
  188.5170  177.6910  137.8070 C   0  0  0  0  0  2  0  0  0  0  0  0
  185.4390  179.1890  140.6910 C   0  0  2  0  0  3  0  0  0  0  0  0
  179.9830  175.8770  136.9380 C   0  0  0  0  0  1  0  0  0  0  0  0
  181.3650  175.7520  137.5490 C   0  0  2  0  0  3  0  0  0  0  0  0
  186.5500  178.4420  140.1170 N   0  0  0  0  0  0  0  0  0  0  0  0
  184.5980  175.8910  135.5410 C   0  0  0  0  0  2  0  0  0  0  0  0
  194.1720  176.5260  135.5230 C   0  0  0  0  0  2  0  0  0  0  0  0
  192.7020  176.5280  135.0710 C   0  0  0  0  0  2  0  0  0  0  0  0
  192.4230  174.3060  136.2740 C   0  0  0  0  0  2  0  0  0  0  0  0
  194.4750  175.1970  137.4340 C   0  0  0  0  0  2  0  0  0  0  0  0
  190.0800  177.3030  135.9780 N   0  0  0  0  0  2  0  0  0  0  0  0
  194.2650  176.5680  136.9770 N   0  0  0  0  0  2  0  0  0  0  0  0
  193.1460  174.4560  137.6060 C   0  0  0  0  0  2  0  0  0  0  0  0
  191.8810  175.5980  135.8530 N   0  0  0  0  0  0  0  0  0  0  0  0
  189.7980  175.1430  136.8100 O   0  0  0  0  0  0  0  0  0  0  0  0
  190.5510  175.9750  136.2370 C   0  0  0  0  0  0  0  0  0  0  0  0
  186.5800  174.4170  135.9710 C   0  0  0  0  0  0  0  0  0  0  0  0
  187.0630  174.3390  134.8090 O   0  0  0  0  0  0  0  0  0  0  0  0
  186.7420  173.3150  136.8850 C   0  0  0  0  0  0  0  0  0  0  0  0
  186.8670  172.4390  137.6270 N   0  0  0  0  0  0  0  0  0  0  0  0
  184.8160  178.3970  141.8310 C   0  0  0  0  0  2  0  0  0  0  0  0
  185.3260  178.8770  143.1810 C   0  0  0  0  0  2  0  0  0  0  0  0
  186.8280  178.0340  145.0390 C   0  0  0  0  0  0  0  0  0  0  0  0
  186.3800  178.0030  143.6780 N   0  0  0  0  0  2  0  0  0  0  0  0
  186.3060  178.8260  145.8640 O   0  0  0  0  0  0  0  0  0  0  0  0
  188.3600  177.9970  147.9210 C   0  0  2  0  0  3  0  0  0  0  0  0
  188.4770  175.6390  147.3370 F   0  0  0  0  0  0  0  0  0  0  0  0
  191.9160  177.3660  148.7000 C   0  0  0  0  0  1  0  0  0  0  0  0
  187.9140  177.1150  145.4990 C   0  0  1  0  0  3  0  0  0  0  0  0
  189.8130  178.4290  147.6970 C   0  0  1  0  0  3  0  0  0  0  0  0
  190.4060  176.4400  145.3010 C   0  0  0  0  0  2  0  0  0  0  0  0
  190.1760  179.4310  148.6060 O   0  0  0  0  0  1  0  0  0  0  0  0
  190.7950  177.2450  147.6810 C   0  0  1  0  0  3  0  0  0  0  0  0
  188.1600  177.6470  149.2590 O   0  0  0  0  0  1  0  0  0  0  0  0
  189.6500  178.7120  144.8050 O   0  0  0  0  0  1  0  0  0  0  0  0
  189.2780  177.3610  144.8160 C   0  0  2  0  0  3  0  0  0  0  0  0
  191.3860  177.0950  146.2850 C   0  0  0  0  0  2  0  0  0  0  0  0
  187.8830  176.8510  147.0170 C   0  0  2  0  0  3  0  0  0  0  0  0
  1 14  2  0  0  0  0
  1  3  1  0  0  0  0
  2  7  1  0  0  0  0
  3 16  1  0  0  0  0
  4 31  1  6  0  0  0
  4  6  1  0  0  0  0
  6  2  1  6  0  0  0
  6 12  1  0  0  0  0
  7 25  1  1  0  0  0
  7 15  1  0  0  0  0
  8 18  1  0  0  0  0
  9  1  1  0  0  0  0
 10  8  1  0  0  0  0
 10 11  2  0  0  0  0
 11  9  1  0  0  0  0
 11  5  1  0  0  0  0
 12 15  1  6  0  0  0
 12 14  1  0  0  0  0
 14 19  1  0  0  0  0
 16 35  1  1  0  0  0
 18 17  1  6  0  0  0
 18  5  1  0  0  0  0
 19 16  1  0  0  0  0
 19 13  1  0  0  0  0
 20 10  1  0  0  0  0
 20  4  1  0  0  0  0
 21 26  1  0  0  0  0
 22 21  1  0  0  0  0
 22 28  1  0  0  0  0
 23 27  1  0  0  0  0
 24 27  1  0  0  0  0
 25 30  1  0  0  0  0
 26 24  1  0  0  0  0
 28 30  1  0  0  0  0
 28 23  1  0  0  0  0
 30 29  2  0  0  0  0
 31 33  1  0  0  0  0
 32 31  2  0  0  0  0
 33 34  3  0  0  0  0
 35 36  1  0  0  0  0
 36 38  1  0  0  0  0
 37 39  2  0  0  0  0
 38 37  1  0  0  0  0
 40 48  1  1  0  0  0
 43 37  1  1  0  0  0
 43 52  1  0  0  0  0
 44 40  1  0  0  0  0
 44 46  1  1  0  0  0
 45 51  1  0  0  0  0
 47 44  1  0  0  0  0
 47 42  1  1  0  0  0
 50 49  1  1  0  0  0
 50 45  1  0  0  0  0
 50 43  1  0  0  0  0
 51 47  1  0  0  0  0
 52 41  1  6  0  0  0
 52 40  1  0  0  0  0
M  END
>  <MODEL>
6

>  <REMARK>
 VINA RESULT:      -5.6      3.568      5.989
  Name = 
  7 active torsions:
  status: ('A' for Active; 'I' for Inactive)
    1  A    between atoms: C_1  and  C_14
    2  A    between atoms: C_11  and  C_24
    3  A    between atoms: C_15  and  C_43
    4  A    between atoms: C_15  and  C_45
    5  A    between atoms: N_20  and  C_45
    6  A    between atoms: C_22  and  N_28
    7  A    between atoms: C_24  and  C_27
                            x       y       z     vdW  Elec       q    Type
                         _______ _______ _______ _____ _____    ______ ____

>  <TORSDO>
F 7

$$$$
=
 OpenBabel10232409273D

 52 57  0  0  1  0  0  0  0  0999 V2000
  185.3730  178.0190  138.0570 C   0  0  0  0  0  0  0  0  0  0  0  0
  188.0550  176.4340  135.2110 O   0  0  0  0  0  0  0  0  0  0  0  0
  184.7810  178.8410  139.1540 C   0  0  0  0  0  2  0  0  0  0  0  0
  186.1700  175.1210  136.0690 C   0  0  1  0  0  3  0  0  0  0  0  0
  182.2750  176.7620  138.0140 S   0  0  0  0  0  0  0  0  0  0  0  0
  186.9770  176.4260  136.1130 C   0  0  1  0  0  3  0  0  0  0  0  0
  188.9780  177.3420  135.7520 C   0  0  1  0  0  3  0  0  0  0  0  0
  182.6920  174.6930  136.3770 N   0  0  0  0  0  0  0  0  0  0  0  0
  184.6900  177.6680  136.8960 O   0  0  0  0  0  0  0  0  0  0  0  0
  183.7390  175.6220  136.1560 C   0  0  0  0  0  0  0  0  0  0  0  0
  183.6840  176.7020  136.9140 C   0  0  1  0  0  3  0  0  0  0  0  0
  187.4940  176.7110  137.5120 C   0  0  2  0  0  3  0  0  0  0  0  0
  188.2300  177.8120  140.3200 C   0  0  0  0  0  1  0  0  0  0  0  0
  186.6140  177.6370  138.3410 C   0  0  0  0  0  0  0  0  0  0  0  0
  188.8410  177.3300  137.2630 C   0  0  0  0  0  2  0  0  0  0  0  0
  185.8520  178.7920  140.2560 C   0  0  2  0  0  3  0  0  0  0  0  0
  180.3590  175.1440  136.8880 C   0  0  0  0  0  1  0  0  0  0  0  0
  181.7740  175.0950  137.4310 C   0  0  2  0  0  3  0  0  0  0  0  0
  186.9640  178.0730  139.6480 N   0  0  0  0  0  0  0  0  0  0  0  0
  184.8930  175.3010  135.2560 C   0  0  0  0  0  2  0  0  0  0  0  0
  194.4170  176.3670  134.6740 C   0  0  0  0  0  2  0  0  0  0  0  0
  192.9210  176.2280  134.3460 C   0  0  0  0  0  2  0  0  0  0  0  0
  192.8830  174.1510  135.8120 C   0  0  0  0  0  2  0  0  0  0  0  0
  194.9490  175.2940  136.6930 C   0  0  0  0  0  2  0  0  0  0  0  0
  190.3260  176.9470  135.3670 N   0  0  0  0  0  2  0  0  0  0  0  0
  194.6130  176.5860  136.1020 N   0  0  0  0  0  2  0  0  0  0  0  0
  193.6910  174.5020  137.0560 C   0  0  0  0  0  2  0  0  0  0  0  0
  192.2250  175.3500  135.2920 N   0  0  0  0  0  0  0  0  0  0  0  0
  190.2540  174.8890  136.4600 O   0  0  0  0  0  0  0  0  0  0  0  0
  190.9040  175.6900  135.7370 C   0  0  0  0  0  0  0  0  0  0  0  0
  186.9540  173.9230  135.6270 C   0  0  0  0  0  0  0  0  0  0  0  0
  187.1870  173.7150  134.4050 O   0  0  0  0  0  0  0  0  0  0  0  0
  187.4340  172.9880  136.6120 C   0  0  0  0  0  0  0  0  0  0  0  0
  187.8300  172.2450  137.4030 N   0  0  0  0  0  0  0  0  0  0  0  0
  185.3210  178.0120  141.4500 C   0  0  0  0  0  2  0  0  0  0  0  0
  185.1350  178.9130  142.6600 C   0  0  0  0  0  2  0  0  0  0  0  0
  186.6290  178.2690  144.6020 C   0  0  0  0  0  0  0  0  0  0  0  0
  186.3750  179.0310  143.4150 N   0  0  0  0  0  2  0  0  0  0  0  0
  185.7750  177.4510  145.0290 O   0  0  0  0  0  0  0  0  0  0  0  0
  189.6090  177.2860  143.7000 C   0  0  2  0  0  3  0  0  0  0  0  0
  190.1800  179.2420  145.0290 F   0  0  0  0  0  0  0  0  0  0  0  0
  192.3390  175.8490  145.7320 C   0  0  0  0  0  1  0  0  0  0  0  0
  187.9200  178.4260  145.3400 C   0  0  1  0  0  3  0  0  0  0  0  0
  190.0440  176.1550  144.6380 C   0  0  1  0  0  3  0  0  0  0  0  0
  189.3720  177.6630  147.3440 C   0  0  0  0  0  2  0  0  0  0  0  0
  190.5130  175.0590  143.9040 O   0  0  0  0  0  1  0  0  0  0  0  0
  191.0300  176.6220  145.7220 C   0  0  1  0  0  3  0  0  0  0  0  0
  190.6390  177.6010  142.8090 O   0  0  0  0  0  1  0  0  0  0  0  0
  187.6900  176.1940  146.3480 O   0  0  0  0  0  1  0  0  0  0  0  0
  188.0400  177.5290  146.5930 C   0  0  2  0  0  3  0  0  0  0  0  0
  190.3660  176.5200  147.0890 C   0  0  0  0  0  2  0  0  0  0  0  0
  189.1390  178.5650  144.4090 C   0  0  2  0  0  3  0  0  0  0  0  0
  1 14  2  0  0  0  0
  1  3  1  0  0  0  0
  2  7  1  0  0  0  0
  3 16  1  0  0  0  0
  4 31  1  6  0  0  0
  4  6  1  0  0  0  0
  6  2  1  6  0  0  0
  6 12  1  0  0  0  0
  7 25  1  1  0  0  0
  7 15  1  0  0  0  0
  8 18  1  0  0  0  0
  9 11  1  0  0  0  0
  9  1  1  0  0  0  0
 10  8  2  0  0  0  0
 11 10  1  1  0  0  0
 11  5  1  0  0  0  0
 12 15  1  6  0  0  0
 12 14  1  0  0  0  0
 14 19  1  0  0  0  0
 16 35  1  1  0  0  0
 18 17  1  6  0  0  0
 18  5  1  0  0  0  0
 19 16  1  0  0  0  0
 19 13  1  0  0  0  0
 20  4  1  0  0  0  0
 20 10  1  0  0  0  0
 21 26  1  0  0  0  0
 22 21  1  0  0  0  0
 22 28  1  0  0  0  0
 23 27  1  0  0  0  0
 24 27  1  0  0  0  0
 25 30  1  0  0  0  0
 26 24  1  0  0  0  0
 28 30  1  0  0  0  0
 28 23  1  0  0  0  0
 30 29  2  0  0  0  0
 31 33  1  0  0  0  0
 32 31  2  0  0  0  0
 33 34  3  0  0  0  0
 35 36  1  0  0  0  0
 36 38  1  0  0  0  0
 37 39  2  0  0  0  0
 38 37  1  0  0  0  0
 40 48  1  6  0  0  0
 40 52  1  0  0  0  0
 40 44  1  0  0  0  0
 43 37  1  6  0  0  0
 43 50  1  0  0  0  0
 44 46  1  6  0  0  0
 44 47  1  0  0  0  0
 47 42  1  1  0  0  0
 47 51  1  0  0  0  0
 50 49  1  6  0  0  0
 50 45  1  0  0  0  0
 51 45  1  0  0  0  0
 52 41  1  1  0  0  0
 52 43  1  0  0  0  0
M  END
>  <MODEL>
7

>  <REMARK>
 VINA RESULT:      -5.5      3.107      5.219
  Name = 
  7 active torsions:
  status: ('A' for Active; 'I' for Inactive)
    1  A    between atoms: C_1  and  C_14
    2  A    between atoms: C_11  and  C_24
    3  A    between atoms: C_15  and  C_43
    4  A    between atoms: C_15  and  C_45
    5  A    between atoms: N_20  and  C_45
    6  A    between atoms: C_22  and  N_28
    7  A    between atoms: C_24  and  C_27
                            x       y       z     vdW  Elec       q    Type
                         _______ _______ _______ _____ _____    ______ ____

>  <TORSDO>
F 7

$$$$
