=
 OpenBabel10232409263D

 52 55  0  0  1  0  0  0  0  0999 V2000
  189.8490  176.9970  145.4270 C   0  0  0  0  0  0  0  0  0  0  0  0
  187.9540  178.0130  147.2480 C   0  0  0  0  0  3  0  0  0  0  0  0
  190.2140  177.0960  146.8100 C   0  0  0  0  0  0  0  0  0  0  0  0
  191.0080  176.4110  144.7750 C   0  0  0  0  0  0  0  0  0  0  0  0
  192.1880  176.5360  148.1240 N   0  0  0  0  0  1  0  0  0  0  0  0
  187.6630  177.9240  145.9280 C   0  0  0  0  0  0  0  0  0  0  0  0
  188.6640  177.3780  144.9620 C   0  0  0  0  0  3  0  0  0  0  0  0
  191.4510  176.6340  146.9080 C   0  0  0  0  0  0  0  0  0  0  0  0
  191.9590  176.2040  145.6370 N   0  0  0  0  0  0  0  0  0  0  0  0
  189.2780  177.5950  147.8660 C   0  0  0  0  0  2  0  0  0  0  0  0
  185.2430  178.3230  146.5620 C   0  0  0  0  0  1  0  0  0  0  0  0
  186.3090  178.3950  145.4720 C   0  0  2  0  0  3  0  0  0  0  0  0
  185.8580  177.6200  144.2390 C   0  0  0  0  0  2  0  0  0  0  0  0
  185.1230  178.4990  143.2830 C   0  0  0  0  0  3  0  0  0  0  0  0
  185.6070  178.7250  142.0640 C   0  0  0  0  0  3  0  0  0  0  0  0
  184.9590  179.5240  141.1170 O   0  0  0  0  0  0  0  0  0  0  0  0
  184.8040  179.1680  139.7410 C   0  0  2  0  0  3  0  0  0  0  0  0
  182.6600  178.3340  140.3820 O   0  0  0  0  0  0  0  0  0  0  0  0
  183.3910  178.7610  139.4480 C   0  0  0  0  0  0  0  0  0  0  0  0
  182.9040  178.8520  138.1420 O   0  0  0  0  0  0  0  0  0  0  0  0
  183.2910  177.3440  136.4600 O   0  0  0  0  0  1  0  0  0  0  0  0
  182.3950  177.7190  137.4550 C   0  0  0  0  0  2  0  0  0  0  0  0
  185.7210  178.1680  139.3540 O   0  0  0  0  0  0  0  0  0  0  0  0
  186.6740  178.7650  138.6620 O   0  0  0  0  0  0  0  0  0  0  0  0
  186.5870  178.2140  137.3800 C   0  0  0  0  0  2  0  0  0  0  0  0
  188.9900  178.7810  137.6830 C   0  0  0  0  0  1  0  0  0  0  0  0
  187.9770  178.1130  136.7740 C   0  0  1  0  0  3  0  0  0  0  0  0
  187.8580  175.6470  137.2030 C   0  0  0  0  0  3  0  0  0  0  0  0
  189.0790  176.2490  135.5210 C   0  0  0  0  0  0  0  0  0  0  0  0
  188.3300  176.7140  136.5350 N   0  0  0  0  0  0  0  0  0  0  0  0
  189.7410  177.1040  134.4960 C   0  0  0  0  0  1  0  0  0  0  0  0
  189.1300  174.8740  135.5420 C   0  0  0  0  0  3  0  0  0  0  0  0
  188.3460  174.4890  136.6190 C   0  0  0  0  0  3  0  0  0  0  0  0
  191.1300  176.0720  143.3270 C   0  0  0  0  0  2  0  0  0  0  0  0
  191.7390  178.3110  142.8910 O   0  0  0  0  0  0  0  0  0  0  0  0
  191.1950  177.3000  142.4750 C   0  0  0  0  0  0  0  0  0  0  0  0
  190.6580  177.2740  141.0770 C   0  0  0  0  0  2  0  0  0  0  0  0
  191.7790  177.4660  140.0660 C   0  0  0  0  0  2  0  0  0  0  0  0
  192.6460  175.9460  138.2490 C   0  0  0  0  0  0  0  0  0  0  0  0
  193.8360  176.1210  138.6300 O   0  0  0  0  0  0  0  0  0  0  0  0
  191.5660  176.6100  138.9090 N   0  0  0  0  0  2  0  0  0  0  0  0
  192.3570  175.0120  137.1190 C   0  0  0  0  0  2  0  0  0  0  0  0
  192.9380  172.4540  135.8900 C   0  0  0  0  0  1  0  0  0  0  0  0
  194.6790  174.0330  136.6750 C   0  0  2  0  0  3  0  0  0  0  0  0
  193.8540  173.5930  135.4700 C   0  0  2  0  0  3  0  0  0  0  0  0
  193.5460  174.9230  136.1570 C   0  0  1  0  0  0  0  0  0  0  0  0
  193.9340  176.1650  135.4030 C   0  0  0  0  0  0  0  0  0  0  0  0
  194.9520  176.9790  135.8840 O   0  0  0  0  0  1  0  0  0  0  0  0
  193.3120  176.4940  134.3600 O   0  0  0  0  0  0  0  0  0  0  0  0
  196.0690  174.4380  136.1930 C   0  0  0  0  0  2  0  0  0  0  0  0
  196.5630  173.6300  138.3810 O   0  0  0  0  0  1  0  0  0  0  0  0
  197.0460  174.4380  137.3510 C   0  0  0  0  0  2  0  0  0  0  0  0
  1  3  1  0  0  0  0
  2 10  1  0  0  0  0
  3  8  2  0  0  0  0
  3 10  1  0  0  0  0
  4  1  1  0  0  0  0
  4  9  2  0  0  0  0
  6  2  2  0  0  0  0
  7  1  2  0  0  0  0
  7  6  1  0  0  0  0
  8  5  1  0  0  0  0
  9  8  1  0  0  0  0
 12  6  1  0  0  0  0
 12 11  1  1  0  0  0
 13 12  1  0  0  0  0
 14 13  1  0  0  0  0
 15 14  2  0  0  0  0
 16 15  1  0  0  0  0
 17 23  1  1  0  0  0
 17 16  1  0  0  0  0
 19 17  1  0  0  0  0
 19 18  2  0  0  0  0
 20 19  1  0  0  0  0
 21 22  1  0  0  0  0
 22 20  1  0  0  0  0
 24 23  1  0  0  0  0
 25 24  1  0  0  0  0
 27 25  1  0  0  0  0
 27 26  1  1  0  0  0
 29 32  2  0  0  0  0
 29 30  1  0  0  0  0
 30 27  1  0  0  0  0
 30 28  1  0  0  0  0
 31 29  1  0  0  0  0
 32 33  1  0  0  0  0
 33 28  2  0  0  0  0
 34  4  1  0  0  0  0
 36 35  2  0  0  0  0
 36 34  1  0  0  0  0
 37 36  1  0  0  0  0
 38 37  1  0  0  0  0
 39 40  2  0  0  0  0
 39 41  1  0  0  0  0
 41 38  1  0  0  0  0
 42 39  1  0  0  0  0
 44 50  1  6  0  0  0
 45 43  1  1  0  0  0
 45 46  1  0  0  0  0
 45 44  1  0  0  0  0
 46 44  1  0  0  0  0
 46 42  1  1  0  0  0
 47 48  1  0  0  0  0
 47 46  1  0  0  0  0
 49 47  2  0  0  0  0
 50 52  1  0  0  0  0
 52 51  1  0  0  0  0
M  END
>  <MODEL>
1

>  <REMARK>
 VINA RESULT:      -7.7      0.000      0.000
  Name = 
  23 active torsions:
  status: ('A' for Active; 'I' for Inactive)
    1  A    between atoms: C_2  and  O_23
    2  A    between atoms: C_2  and  C_28
    3  A    between atoms: C_4  and  C_9
    4  A    between atoms: C_4  and  C_52
    5  A    between atoms: O_5  and  C_40
    6  A    between atoms: O_5  and  C_49
    7  A    between atoms: C_6  and  C_15
    8  A    between atoms: C_6  and  C_37
    9  A    between atoms: C_8  and  C_11
   10  A    between atoms: C_8  and  C_22
   11  A    between atoms: C_10  and  C_22
   12  A    between atoms: C_13  and  O_27
   13  A    between atoms: C_13  and  O_35
   14  A    between atoms: C_13  and  C_49
   15  A    between atoms: C_14  and  C_33
   16  A    between atoms: C_14  and  C_43
   17  A    between atoms: C_16  and  C_25
   18  A    between atoms: C_16  and  N_46
   19  A    between atoms: O_23  and  O_27
   20  A    between atoms: C_25  and  C_43
   21  A    between atoms: N_26  and  C_28
   22  A    between atoms: O_35  and  C_44
   23  A    between atoms: C_37  and  C_38
                            x       y       z     vdW  Elec       q    Type
                         _______ _______ _______ _____ _____    ______ ____

>  <TORSDO>
F 23

$$$$
=
 OpenBabel10232409263D

 52 55  0  0  1  0  0  0  0  0999 V2000
  189.7530  177.0160  145.3940 C   0  0  0  0  0  0  0  0  0  0  0  0
  187.8820  178.1010  147.2010 C   0  0  0  0  0  3  0  0  0  0  0  0
  190.1310  177.1530  146.7700 C   0  0  0  0  0  0  0  0  0  0  0  0
  190.9010  176.4020  144.7490 C   0  0  0  0  0  0  0  0  0  0  0  0
  192.1120  176.6150  148.0830 N   0  0  0  0  0  1  0  0  0  0  0  0
  187.5790  177.9760  145.8870 C   0  0  0  0  0  0  0  0  0  0  0  0
  188.5660  177.3940  144.9280 C   0  0  0  0  0  3  0  0  0  0  0  0
  191.3650  176.6840  146.8700 C   0  0  0  0  0  0  0  0  0  0  0  0
  191.8570  176.2120  145.6090 N   0  0  0  0  0  0  0  0  0  0  0  0
  189.2080  177.6900  147.8190 C   0  0  0  0  0  2  0  0  0  0  0  0
  185.1250  178.2230  146.4640 C   0  0  0  0  0  1  0  0  0  0  0  0
  186.2240  178.4450  145.4290 C   0  0  2  0  0  3  0  0  0  0  0  0
  185.8470  177.7860  144.1060 C   0  0  0  0  0  2  0  0  0  0  0  0
  184.8250  178.5880  143.3720 C   0  0  0  0  0  3  0  0  0  0  0  0
  184.3720  178.1840  142.1880 C   0  0  0  0  0  3  0  0  0  0  0  0
  183.4030  178.8800  141.4590 O   0  0  0  0  0  0  0  0  0  0  0  0
  182.9860  178.5240  140.1390 C   0  0  2  0  0  3  0  0  0  0  0  0
  180.8540  178.2270  141.1720 O   0  0  0  0  0  0  0  0  0  0  0  0
  181.5450  178.1130  140.1230 C   0  0  0  0  0  0  0  0  0  0  0  0
  180.9850  177.6010  138.9500 O   0  0  0  0  0  0  0  0  0  0  0  0
  181.2600  175.3410  138.6880 O   0  0  0  0  0  1  0  0  0  0  0  0
  180.3260  176.3440  138.9250 C   0  0  0  0  0  2  0  0  0  0  0  0
  183.8140  177.5270  139.5810 O   0  0  0  0  0  0  0  0  0  0  0  0
  184.1080  177.9120  138.3520 O   0  0  0  0  0  0  0  0  0  0  0  0
  185.4620  178.2610  138.3990 C   0  0  0  0  0  2  0  0  0  0  0  0
  187.5640  178.4090  137.0770 C   0  0  0  0  0  1  0  0  0  0  0  0
  186.0910  178.0480  137.0330 C   0  0  1  0  0  3  0  0  0  0  0  0
  186.4940  175.5760  137.1180 C   0  0  0  0  0  3  0  0  0  0  0  0
  185.0120  176.2360  135.6870 C   0  0  0  0  0  0  0  0  0  0  0  0
  185.9050  176.6650  136.5940 N   0  0  0  0  0  0  0  0  0  0  0  0
  184.0970  177.1230  134.9150 C   0  0  0  0  0  1  0  0  0  0  0  0
  185.0380  174.8640  135.5860 C   0  0  0  0  0  3  0  0  0  0  0  0
  185.9860  174.4420  136.5050 C   0  0  0  0  0  3  0  0  0  0  0  0
  191.0070  176.0190  143.3100 C   0  0  0  0  0  2  0  0  0  0  0  0
  191.5430  178.1620  142.4770 O   0  0  0  0  0  0  0  0  0  0  0  0
  190.8010  177.1960  142.4100 C   0  0  0  0  0  0  0  0  0  0  0  0
  189.7270  177.1630  141.3660 C   0  0  0  0  0  2  0  0  0  0  0  0
  190.3150  177.3870  139.9810 C   0  0  0  0  0  2  0  0  0  0  0  0
  190.9510  175.9440  138.0120 C   0  0  0  0  0  0  0  0  0  0  0  0
  190.6700  176.8710  137.2040 O   0  0  0  0  0  0  0  0  0  0  0  0
  190.7730  176.1260  139.4180 N   0  0  0  0  0  2  0  0  0  0  0  0
  191.5060  174.6550  137.4990 C   0  0  0  0  0  2  0  0  0  0  0  0
  191.3370  174.5540  134.6090 C   0  0  0  0  0  1  0  0  0  0  0  0
  193.2410  173.6490  135.9110 C   0  0  2  0  0  3  0  0  0  0  0  0
  192.7180  174.8710  135.1630 C   0  0  2  0  0  3  0  0  0  0  0  0
  192.7860  174.8860  136.6900 C   0  0  1  0  0  0  0  0  0  0  0  0
  193.8540  175.7520  137.2980 C   0  0  0  0  0  0  0  0  0  0  0  0
  194.3440  176.8450  136.5950 O   0  0  0  0  0  0  0  0  0  0  0  0
  194.3380  175.4670  138.4240 O   0  0  0  0  0  1  0  0  0  0  0  0
  194.7500  173.5580  135.7010 C   0  0  0  0  0  2  0  0  0  0  0  0
  196.5040  172.0410  135.1460 O   0  0  0  0  0  1  0  0  0  0  0  0
  195.1730  172.1100  135.5580 C   0  0  0  0  0  2  0  0  0  0  0  0
  1  3  1  0  0  0  0
  2 10  1  0  0  0  0
  3  8  2  0  0  0  0
  3 10  1  0  0  0  0
  4  1  1  0  0  0  0
  4  9  2  0  0  0  0
  6  2  2  0  0  0  0
  7  1  2  0  0  0  0
  7  6  1  0  0  0  0
  8  5  1  0  0  0  0
  9  8  1  0  0  0  0
 12  6  1  0  0  0  0
 12 11  1  1  0  0  0
 13 12  1  0  0  0  0
 14 13  1  0  0  0  0
 15 14  2  0  0  0  0
 16 15  1  0  0  0  0
 17 23  1  1  0  0  0
 17 16  1  0  0  0  0
 19 17  1  0  0  0  0
 19 18  2  0  0  0  0
 20 19  1  0  0  0  0
 21 22  1  0  0  0  0
 22 20  1  0  0  0  0
 24 25  1  0  0  0  0
 24 23  1  0  0  0  0
 27 26  1  1  0  0  0
 27 25  1  0  0  0  0
 29 30  1  0  0  0  0
 30 27  1  0  0  0  0
 30 28  1  0  0  0  0
 31 29  1  0  0  0  0
 32 29  2  0  0  0  0
 32 33  1  0  0  0  0
 33 28  2  0  0  0  0
 34  4  1  0  0  0  0
 36 35  2  0  0  0  0
 36 34  1  0  0  0  0
 37 36  1  0  0  0  0
 38 37  1  0  0  0  0
 39 41  1  0  0  0  0
 40 39  2  0  0  0  0
 41 38  1  0  0  0  0
 42 39  1  0  0  0  0
 44 50  1  6  0  0  0
 44 46  1  0  0  0  0
 45 43  1  1  0  0  0
 45 44  1  0  0  0  0
 45 46  1  0  0  0  0
 46 47  1  0  0  0  0
 46 42  1  1  0  0  0
 47 49  1  0  0  0  0
 48 47  2  0  0  0  0
 51 52  1  0  0  0  0
 52 50  1  0  0  0  0
M  END
>  <MODEL>
2

>  <REMARK>
 VINA RESULT:      -7.6      1.650      2.107
  Name = 
  23 active torsions:
  status: ('A' for Active; 'I' for Inactive)
    1  A    between atoms: C_2  and  O_23
    2  A    between atoms: C_2  and  C_28
    3  A    between atoms: C_4  and  C_9
    4  A    between atoms: C_4  and  C_52
    5  A    between atoms: O_5  and  C_40
    6  A    between atoms: O_5  and  C_49
    7  A    between atoms: C_6  and  C_15
    8  A    between atoms: C_6  and  C_37
    9  A    between atoms: C_8  and  C_11
   10  A    between atoms: C_8  and  C_22
   11  A    between atoms: C_10  and  C_22
   12  A    between atoms: C_13  and  O_27
   13  A    between atoms: C_13  and  O_35
   14  A    between atoms: C_13  and  C_49
   15  A    between atoms: C_14  and  C_33
   16  A    between atoms: C_14  and  C_43
   17  A    between atoms: C_16  and  C_25
   18  A    between atoms: C_16  and  N_46
   19  A    between atoms: O_23  and  O_27
   20  A    between atoms: C_25  and  C_43
   21  A    between atoms: N_26  and  C_28
   22  A    between atoms: O_35  and  C_44
   23  A    between atoms: C_37  and  C_38
                            x       y       z     vdW  Elec       q    Type
                         _______ _______ _______ _____ _____    ______ ____

>  <TORSDO>
F 23

$$$$
=
 OpenBabel10232409263D

 52 55  0  0  1  0  0  0  0  0999 V2000
  189.4730  177.0740  145.1070 C   0  0  0  0  0  0  0  0  0  0  0  0
  187.7050  178.1360  147.0270 C   0  0  0  0  0  3  0  0  0  0  0  0
  189.9240  177.1860  146.4640 C   0  0  0  0  0  0  0  0  0  0  0  0
  190.5840  176.4670  144.3930 C   0  0  0  0  0  0  0  0  0  0  0  0
  191.9670  176.6180  147.6620 N   0  0  0  0  0  1  0  0  0  0  0  0
  187.3330  178.0340  145.7290 C   0  0  0  0  0  0  0  0  0  0  0  0
  188.2660  177.4650  144.7100 C   0  0  0  0  0  3  0  0  0  0  0  0
  191.1590  176.7100  146.4910 C   0  0  0  0  0  0  0  0  0  0  0  0
  191.5830  176.2580  145.1980 N   0  0  0  0  0  0  0  0  0  0  0  0
  189.0600  177.7090  147.5680 C   0  0  0  0  0  2  0  0  0  0  0  0
  184.9240  178.3230  146.4540 C   0  0  0  0  0  1  0  0  0  0  0  0
  185.9590  178.5170  145.3500 C   0  0  2  0  0  3  0  0  0  0  0  0
  185.4910  177.8480  144.0620 C   0  0  0  0  0  2  0  0  0  0  0  0
  184.9730  178.8500  143.0860 C   0  0  0  0  0  3  0  0  0  0  0  0
  184.9280  178.5680  141.7870 C   0  0  0  0  0  3  0  0  0  0  0  0
  184.4380  179.4560  140.8240 O   0  0  0  0  0  0  0  0  0  0  0  0
  183.3870  179.1430  139.9070 C   0  0  2  0  0  3  0  0  0  0  0  0
  181.5220  179.1140  141.3970 O   0  0  0  0  0  0  0  0  0  0  0  0
  182.2510  178.4580  140.6050 C   0  0  0  0  0  0  0  0  0  0  0  0
  182.0190  177.1000  140.3770 O   0  0  0  0  0  0  0  0  0  0  0  0
  180.7030  175.2640  139.9870 O   0  0  0  0  0  1  0  0  0  0  0  0
  180.8110  176.6370  139.7920 C   0  0  0  0  0  2  0  0  0  0  0  0
  183.8570  178.3820  138.8150 O   0  0  0  0  0  0  0  0  0  0  0  0
  183.0370  178.6090  137.8050 O   0  0  0  0  0  0  0  0  0  0  0  0
  183.1520  177.4800  136.9880 C   0  0  0  0  0  2  0  0  0  0  0  0
  184.2580  175.2730  137.2890 C   0  0  0  0  0  1  0  0  0  0  0  0
  184.4670  176.7750  137.2740 C   0  0  1  0  0  3  0  0  0  0  0  0
  185.3300  177.1340  134.9500 C   0  0  0  0  0  3  0  0  0  0  0  0
  186.6680  177.7140  136.5470 C   0  0  0  0  0  0  0  0  0  0  0  0
  185.4760  177.1540  136.2860 N   0  0  0  0  0  0  0  0  0  0  0  0
  187.1960  177.9820  137.9140 C   0  0  0  0  0  1  0  0  0  0  0  0
  187.3260  178.0310  135.3810 C   0  0  0  0  0  3  0  0  0  0  0  0
  186.4670  177.6600  134.3580 C   0  0  0  0  0  3  0  0  0  0  0  0
  190.6130  176.1080  142.9440 C   0  0  0  0  0  2  0  0  0  0  0  0
  191.9880  177.9300  142.3420 O   0  0  0  0  0  0  0  0  0  0  0  0
  190.9860  177.2800  142.0930 C   0  0  0  0  0  0  0  0  0  0  0  0
  190.1700  177.6180  140.8830 C   0  0  0  0  0  2  0  0  0  0  0  0
  190.2520  176.5040  139.8500 C   0  0  0  0  0  2  0  0  0  0  0  0
  191.8070  175.7290  138.0220 C   0  0  0  0  0  0  0  0  0  0  0  0
  191.2130  174.6190  137.9460 O   0  0  0  0  0  0  0  0  0  0  0  0
  191.3930  176.7110  138.9720 N   0  0  0  0  0  2  0  0  0  0  0  0
  192.9340  176.0330  137.0880 C   0  0  0  0  0  2  0  0  0  0  0  0
  194.7560  175.2230  139.1900 C   0  0  0  0  0  1  0  0  0  0  0  0
  195.3020  175.1170  136.7750 C   0  0  2  0  0  3  0  0  0  0  0  0
  194.7530  174.3280  137.9590 C   0  0  2  0  0  3  0  0  0  0  0  0
  193.8070  174.7970  136.8540 C   0  0  1  0  0  0  0  0  0  0  0  0
  193.2810  173.7300  135.9350 C   0  0  0  0  0  0  0  0  0  0  0  0
  193.3270  172.3970  136.3230 O   0  0  0  0  0  1  0  0  0  0  0  0
  192.8360  174.0330  134.7980 O   0  0  0  0  0  0  0  0  0  0  0  0
  196.1040  174.1690  135.8870 C   0  0  0  0  0  2  0  0  0  0  0  0
  197.5540  176.0510  136.0870 O   0  0  0  0  0  1  0  0  0  0  0  0
  197.4870  174.7330  135.6350 C   0  0  0  0  0  2  0  0  0  0  0  0
  1  3  1  0  0  0  0
  2 10  1  0  0  0  0
  3  8  2  0  0  0  0
  3 10  1  0  0  0  0
  4  1  1  0  0  0  0
  4  9  2  0  0  0  0
  6  2  2  0  0  0  0
  7  1  2  0  0  0  0
  7  6  1  0  0  0  0
  8  5  1  0  0  0  0
  9  8  1  0  0  0  0
 12  6  1  0  0  0  0
 12 11  1  1  0  0  0
 13 12  1  0  0  0  0
 14 13  1  0  0  0  0
 15 14  2  0  0  0  0
 16 15  1  0  0  0  0
 17 23  1  6  0  0  0
 17 19  1  0  0  0  0
 17 16  1  0  0  0  0
 19 18  2  0  0  0  0
 20 19  1  0  0  0  0
 22 21  1  0  0  0  0
 22 20  1  0  0  0  0
 24 23  1  0  0  0  0
 25 27  1  0  0  0  0
 25 24  1  0  0  0  0
 27 26  1  6  0  0  0
 28 30  1  0  0  0  0
 29 31  1  0  0  0  0
 30 29  1  0  0  0  0
 30 27  1  0  0  0  0
 32 29  2  0  0  0  0
 33 28  2  0  0  0  0
 33 32  1  0  0  0  0
 34  4  1  0  0  0  0
 36 35  2  0  0  0  0
 36 34  1  0  0  0  0
 37 36  1  0  0  0  0
 38 37  1  0  0  0  0
 39 41  1  0  0  0  0
 40 39  2  0  0  0  0
 41 38  1  0  0  0  0
 42 39  1  0  0  0  0
 44 50  1  6  0  0  0
 44 46  1  0  0  0  0
 44 45  1  0  0  0  0
 45 43  1  1  0  0  0
 46 42  1  1  0  0  0
 46 45  1  0  0  0  0
 47 48  1  0  0  0  0
 47 46  1  0  0  0  0
 49 47  2  0  0  0  0
 52 50  1  0  0  0  0
 52 51  1  0  0  0  0
M  END
>  <MODEL>
3

>  <REMARK>
 VINA RESULT:      -7.5      1.642      2.462
  Name = 
  23 active torsions:
  status: ('A' for Active; 'I' for Inactive)
    1  A    between atoms: C_2  and  O_23
    2  A    between atoms: C_2  and  C_28
    3  A    between atoms: C_4  and  C_9
    4  A    between atoms: C_4  and  C_52
    5  A    between atoms: O_5  and  C_40
    6  A    between atoms: O_5  and  C_49
    7  A    between atoms: C_6  and  C_15
    8  A    between atoms: C_6  and  C_37
    9  A    between atoms: C_8  and  C_11
   10  A    between atoms: C_8  and  C_22
   11  A    between atoms: C_10  and  C_22
   12  A    between atoms: C_13  and  O_27
   13  A    between atoms: C_13  and  O_35
   14  A    between atoms: C_13  and  C_49
   15  A    between atoms: C_14  and  C_33
   16  A    between atoms: C_14  and  C_43
   17  A    between atoms: C_16  and  C_25
   18  A    between atoms: C_16  and  N_46
   19  A    between atoms: O_23  and  O_27
   20  A    between atoms: C_25  and  C_43
   21  A    between atoms: N_26  and  C_28
   22  A    between atoms: O_35  and  C_44
   23  A    between atoms: C_37  and  C_38
                            x       y       z     vdW  Elec       q    Type
                         _______ _______ _______ _____ _____    ______ ____

>  <TORSDO>
F 23

$$$$
=
 OpenBabel10232409263D

 52 55  0  0  1  0  0  0  0  0999 V2000
  186.9670  177.7170  144.8080 C   0  0  0  0  0  0  0  0  0  0  0  0
  184.5300  178.8880  145.6030 C   0  0  0  0  0  3  0  0  0  0  0  0
  186.7660  178.0010  146.1990 C   0  0  0  0  0  0  0  0  0  0  0  0
  188.2780  177.0940  144.7380 C   0  0  0  0  0  0  0  0  0  0  0  0
  188.0610  177.6770  148.2370 N   0  0  0  0  0  1  0  0  0  0  0  0
  184.7750  178.6250  144.2970 C   0  0  0  0  0  0  0  0  0  0  0  0
  186.0640  177.9970  143.8740 C   0  0  0  0  0  3  0  0  0  0  0  0
  187.8590  177.5970  146.8280 C   0  0  0  0  0  0  0  0  0  0  0  0
  188.8140  177.0290  145.9210 N   0  0  0  0  0  0  0  0  0  0  0  0
  185.5020  178.5960  146.7340 C   0  0  0  0  0  2  0  0  0  0  0  0
  182.4210  179.4860  143.9340 C   0  0  0  0  0  1  0  0  0  0  0  0
  183.7140  178.9900  143.2940 C   0  0  2  0  0  3  0  0  0  0  0  0
  183.4280  177.8150  142.3640 C   0  0  0  0  0  2  0  0  0  0  0  0
  183.8380  178.1200  140.9630 C   0  0  0  0  0  3  0  0  0  0  0  0
  183.1790  177.5890  139.9360 C   0  0  0  0  0  3  0  0  0  0  0  0
  183.5020  177.8490  138.6000 O   0  0  0  0  0  0  0  0  0  0  0  0
  184.4740  177.1120  137.8540 C   0  0  2  0  0  3  0  0  0  0  0  0
  185.9020  178.9520  138.3780 O   0  0  0  0  0  0  0  0  0  0  0  0
  185.7490  177.8890  137.7180 C   0  0  0  0  0  0  0  0  0  0  0  0
  186.7480  177.4310  136.8560 O   0  0  0  0  0  0  0  0  0  0  0  0
  187.5910  179.5600  136.7550 O   0  0  0  0  0  1  0  0  0  0  0  0
  187.5610  178.3260  136.1130 C   0  0  0  0  0  2  0  0  0  0  0  0
  183.9740  176.7140  136.5950 O   0  0  0  0  0  0  0  0  0  0  0  0
  182.6590  176.6710  136.6980 O   0  0  0  0  0  0  0  0  0  0  0  0
  182.3020  175.4030  136.2290 C   0  0  0  0  0  2  0  0  0  0  0  0
  180.7530  174.4820  137.9440 C   0  0  0  0  0  1  0  0  0  0  0  0
  182.1700  174.4450  137.4010 C   0  0  1  0  0  3  0  0  0  0  0  0
  181.7650  172.2160  136.3300 C   0  0  0  0  0  3  0  0  0  0  0  0
  183.7590  172.5370  137.1040 C   0  0  0  0  0  0  0  0  0  0  0  0
  182.5390  173.0890  136.9980 N   0  0  0  0  0  0  0  0  0  0  0  0
  184.9380  173.2030  137.7250 C   0  0  0  0  0  1  0  0  0  0  0  0
  183.7790  171.2820  136.5380 C   0  0  0  0  0  3  0  0  0  0  0  0
  182.5010  171.0790  136.0410 C   0  0  0  0  0  3  0  0  0  0  0  0
  188.9490  176.5800  143.5080 C   0  0  0  0  0  2  0  0  0  0  0  0
  190.9020  177.7900  142.9620 O   0  0  0  0  0  0  0  0  0  0  0  0
  189.7000  177.6610  142.7960 C   0  0  0  0  0  0  0  0  0  0  0  0
  188.9910  178.5470  141.8180 C   0  0  0  0  0  2  0  0  0  0  0  0
  188.3080  177.7200  140.7390 C   0  0  0  0  0  2  0  0  0  0  0  0
  190.0100  176.9570  139.0400 C   0  0  0  0  0  0  0  0  0  0  0  0
  190.3630  175.9990  139.7790 O   0  0  0  0  0  0  0  0  0  0  0  0
  189.0020  177.8740  139.4690 N   0  0  0  0  0  2  0  0  0  0  0  0
  190.6260  177.1190  137.6880 C   0  0  0  0  0  2  0  0  0  0  0  0
  193.3380  176.2400  138.2060 C   0  0  0  0  0  1  0  0  0  0  0  0
  192.1630  175.8920  136.0520 C   0  0  2  0  0  3  0  0  0  0  0  0
  192.4860  175.2660  137.4040 C   0  0  2  0  0  3  0  0  0  0  0  0
  191.0720  175.7680  137.1180 C   0  0  1  0  0  0  0  0  0  0  0  0
  190.0220  174.7130  136.9130 C   0  0  0  0  0  0  0  0  0  0  0  0
  188.8880  174.9990  136.1640 O   0  0  0  0  0  0  0  0  0  0  0  0
  190.1440  173.5820  137.4510 O   0  0  0  0  0  1  0  0  0  0  0  0
  192.1410  174.7890  134.9970 C   0  0  0  0  0  2  0  0  0  0  0  0
  192.8590  172.5340  135.2870 O   0  0  0  0  0  1  0  0  0  0  0  0
  193.3130  173.8500  135.1960 C   0  0  0  0  0  2  0  0  0  0  0  0
  1  3  1  0  0  0  0
  2 10  1  0  0  0  0
  3 10  1  0  0  0  0
  3  8  2  0  0  0  0
  4  1  1  0  0  0  0
  4  9  2  0  0  0  0
  6  2  2  0  0  0  0
  7  6  1  0  0  0  0
  7  1  2  0  0  0  0
  8  5  1  0  0  0  0
  9  8  1  0  0  0  0
 12 11  1  1  0  0  0
 12  6  1  0  0  0  0
 13 12  1  0  0  0  0
 14 13  1  0  0  0  0
 15 14  2  0  0  0  0
 16 15  1  0  0  0  0
 17 23  1  6  0  0  0
 17 16  1  0  0  0  0
 19 17  1  0  0  0  0
 19 18  2  0  0  0  0
 20 19  1  0  0  0  0
 22 21  1  0  0  0  0
 22 20  1  0  0  0  0
 23 24  1  0  0  0  0
 25 24  1  0  0  0  0
 25 27  1  0  0  0  0
 27 26  1  6  0  0  0
 28 30  1  0  0  0  0
 29 31  1  0  0  0  0
 30 29  1  0  0  0  0
 30 27  1  0  0  0  0
 32 29  2  0  0  0  0
 33 28  2  0  0  0  0
 33 32  1  0  0  0  0
 34  4  1  0  0  0  0
 36 35  2  0  0  0  0
 36 34  1  0  0  0  0
 37 36  1  0  0  0  0
 38 37  1  0  0  0  0
 39 41  1  0  0  0  0
 39 40  2  0  0  0  0
 41 38  1  0  0  0  0
 42 39  1  0  0  0  0
 44 50  1  6  0  0  0
 44 46  1  0  0  0  0
 44 45  1  0  0  0  0
 45 43  1  1  0  0  0
 46 45  1  0  0  0  0
 46 42  1  1  0  0  0
 47 46  1  0  0  0  0
 47 49  1  0  0  0  0
 48 47  2  0  0  0  0
 50 52  1  0  0  0  0
 52 51  1  0  0  0  0
M  END
>  <MODEL>
4

>  <REMARK>
 VINA RESULT:      -7.4      2.861      4.454
  Name = 
  23 active torsions:
  status: ('A' for Active; 'I' for Inactive)
    1  A    between atoms: C_2  and  O_23
    2  A    between atoms: C_2  and  C_28
    3  A    between atoms: C_4  and  C_9
    4  A    between atoms: C_4  and  C_52
    5  A    between atoms: O_5  and  C_40
    6  A    between atoms: O_5  and  C_49
    7  A    between atoms: C_6  and  C_15
    8  A    between atoms: C_6  and  C_37
    9  A    between atoms: C_8  and  C_11
   10  A    between atoms: C_8  and  C_22
   11  A    between atoms: C_10  and  C_22
   12  A    between atoms: C_13  and  O_27
   13  A    between atoms: C_13  and  O_35
   14  A    between atoms: C_13  and  C_49
   15  A    between atoms: C_14  and  C_33
   16  A    between atoms: C_14  and  C_43
   17  A    between atoms: C_16  and  C_25
   18  A    between atoms: C_16  and  N_46
   19  A    between atoms: O_23  and  O_27
   20  A    between atoms: C_25  and  C_43
   21  A    between atoms: N_26  and  C_28
   22  A    between atoms: O_35  and  C_44
   23  A    between atoms: C_37  and  C_38
                            x       y       z     vdW  Elec       q    Type
                         _______ _______ _______ _____ _____    ______ ____

>  <TORSDO>
F 23

$$$$
=
 OpenBabel10232409263D

 52 55  0  0  1  0  0  0  0  0999 V2000
  188.5250  177.5240  144.8520 C   0  0  0  0  0  0  0  0  0  0  0  0
  190.9230  177.9080  143.4220 C   0  0  0  0  0  3  0  0  0  0  0  0
  189.7590  177.5560  145.5820 C   0  0  0  0  0  0  0  0  0  0  0  0
  187.4960  177.3540  145.8640 C   0  0  0  0  0  0  0  0  0  0  0  0
  190.3860  177.3950  147.9300 N   0  0  0  0  0  1  0  0  0  0  0  0
  189.7360  177.8450  142.7730 C   0  0  0  0  0  0  0  0  0  0  0  0
  188.4620  177.6490  143.5300 C   0  0  0  0  0  3  0  0  0  0  0  0
  189.4460  177.4000  146.8590 C   0  0  0  0  0  0  0  0  0  0  0  0
  188.0300  177.2710  147.0460 N   0  0  0  0  0  0  0  0  0  0  0  0
  191.0860  177.7810  144.9270 C   0  0  0  0  0  2  0  0  0  0  0  0
  188.4470  178.5390  140.7060 C   0  0  0  0  0  1  0  0  0  0  0  0
  189.7450  177.9730  141.2740 C   0  0  2  0  0  3  0  0  0  0  0  0
  190.0680  176.6320  140.6230 C   0  0  0  0  0  2  0  0  0  0  0  0
  190.5040  176.8080  139.2070 C   0  0  0  0  0  3  0  0  0  0  0  0
  191.7580  176.5410  138.8490 C   0  0  0  0  0  3  0  0  0  0  0  0
  192.2250  176.6680  137.5360 O   0  0  0  0  0  0  0  0  0  0  0  0
  193.4810  176.1600  137.0810 C   0  0  2  0  0  3  0  0  0  0  0  0
  192.5970  174.5550  135.5490 O   0  0  0  0  0  0  0  0  0  0  0  0
  193.3510  175.5520  135.7170 C   0  0  0  0  0  0  0  0  0  0  0  0
  194.0730  176.0900  134.6500 O   0  0  0  0  0  0  0  0  0  0  0  0
  195.2630  178.0470  134.7460 O   0  0  0  0  0  1  0  0  0  0  0  0
  195.3600  176.6620  134.8320 C   0  0  0  0  0  2  0  0  0  0  0  0
  194.0400  175.2490  138.0020 O   0  0  0  0  0  0  0  0  0  0  0  0
  195.3440  175.2390  137.7920 O   0  0  0  0  0  0  0  0  0  0  0  0
  195.8700  174.4630  138.8300 C   0  0  0  0  0  2  0  0  0  0  0  0
  195.3600  172.2030  137.9220 C   0  0  0  0  0  1  0  0  0  0  0  0
  196.4650  173.1860  138.2610 C   0  0  1  0  0  3  0  0  0  0  0  0
  196.8760  173.4370  135.8020 C   0  0  0  0  0  3  0  0  0  0  0  0
  198.5270  173.9820  137.0890 C   0  0  0  0  0  0  0  0  0  0  0  0
  197.2800  173.4830  137.0830 N   0  0  0  0  0  0  0  0  0  0  0  0
  199.3240  174.2540  138.3180 C   0  0  0  0  0  1  0  0  0  0  0  0
  198.9600  174.2320  135.8070 C   0  0  0  0  0  3  0  0  0  0  0  0
  197.9000  173.8850  134.9830 C   0  0  0  0  0  3  0  0  0  0  0  0
  186.0240  177.2890  145.6260 C   0  0  0  0  0  2  0  0  0  0  0  0
  185.9080  179.4280  146.6200 O   0  0  0  0  0  0  0  0  0  0  0  0
  185.3610  178.6010  145.9080 C   0  0  0  0  0  0  0  0  0  0  0  0
  184.0540  178.9370  145.2590 C   0  0  0  0  0  2  0  0  0  0  0  0
  184.2770  179.7320  143.9810 C   0  0  0  0  0  2  0  0  0  0  0  0
  184.1880  178.2890  141.9140 C   0  0  0  0  0  0  0  0  0  0  0  0
  185.4310  178.0820  141.9690 O   0  0  0  0  0  0  0  0  0  0  0  0
  183.5470  179.1270  142.8770 N   0  0  0  0  0  2  0  0  0  0  0  0
  183.3720  177.6270  140.8510 C   0  0  0  0  0  2  0  0  0  0  0  0
  180.7300  178.8120  140.7480 C   0  0  0  0  0  1  0  0  0  0  0  0
  181.9890  178.0750  138.7460 C   0  0  2  0  0  3  0  0  0  0  0  0
  181.6820  179.2630  139.6510 C   0  0  2  0  0  3  0  0  0  0  0  0
  183.0570  178.5990  139.7090 C   0  0  1  0  0  0  0  0  0  0  0  0
  184.1970  179.3800  139.1190 C   0  0  0  0  0  0  0  0  0  0  0  0
  185.3420  178.7200  138.6910 O   0  0  0  0  0  0  0  0  0  0  0  0
  184.1370  180.6350  139.0470 O   0  0  0  0  0  1  0  0  0  0  0  0
  182.1330  178.5780  137.3120 C   0  0  0  0  0  2  0  0  0  0  0  0
  180.0910  177.3810  137.0250 O   0  0  0  0  0  1  0  0  0  0  0  0
  181.2700  177.7540  136.3780 C   0  0  0  0  0  2  0  0  0  0  0  0
  1  3  1  0  0  0  0
  1  4  1  0  0  0  0
  2 10  1  0  0  0  0
  3  8  2  0  0  0  0
  4  9  2  0  0  0  0
  6  2  2  0  0  0  0
  6  7  1  0  0  0  0
  7  1  2  0  0  0  0
  8  9  1  0  0  0  0
  8  5  1  0  0  0  0
 10  3  1  0  0  0  0
 12 11  1  6  0  0  0
 12  6  1  0  0  0  0
 13 12  1  0  0  0  0
 14 13  1  0  0  0  0
 15 14  2  0  0  0  0
 16 15  1  0  0  0  0
 17 19  1  6  0  0  0
 17 16  1  0  0  0  0
 17 23  1  0  0  0  0
 18 19  2  0  0  0  0
 20 22  1  0  0  0  0
 20 19  1  0  0  0  0
 21 22  1  0  0  0  0
 24 23  1  0  0  0  0
 24 25  1  0  0  0  0
 27 26  1  6  0  0  0
 27 25  1  0  0  0  0
 28 30  1  0  0  0  0
 29 31  1  0  0  0  0
 30 29  1  0  0  0  0
 30 27  1  0  0  0  0
 32 29  2  0  0  0  0
 33 28  2  0  0  0  0
 33 32  1  0  0  0  0
 34  4  1  0  0  0  0
 34 36  1  0  0  0  0
 36 35  2  0  0  0  0
 37 36  1  0  0  0  0
 38 37  1  0  0  0  0
 39 40  2  0  0  0  0
 39 41  1  0  0  0  0
 41 38  1  0  0  0  0
 42 39  1  0  0  0  0
 44 50  1  6  0  0  0
 44 45  1  0  0  0  0
 44 46  1  0  0  0  0
 45 46  1  0  0  0  0
 45 43  1  1  0  0  0
 46 42  1  1  0  0  0
 47 46  1  0  0  0  0
 48 47  2  0  0  0  0
 49 47  1  0  0  0  0
 52 51  1  0  0  0  0
 52 50  1  0  0  0  0
M  END
>  <MODEL>
5

>  <REMARK>
 VINA RESULT:      -7.2      2.672      9.508
  Name = 
  23 active torsions:
  status: ('A' for Active; 'I' for Inactive)
    1  A    between atoms: C_2  and  O_23
    2  A    between atoms: C_2  and  C_28
    3  A    between atoms: C_4  and  C_9
    4  A    between atoms: C_4  and  C_52
    5  A    between atoms: O_5  and  C_40
    6  A    between atoms: O_5  and  C_49
    7  A    between atoms: C_6  and  C_15
    8  A    between atoms: C_6  and  C_37
    9  A    between atoms: C_8  and  C_11
   10  A    between atoms: C_8  and  C_22
   11  A    between atoms: C_10  and  C_22
   12  A    between atoms: C_13  and  O_27
   13  A    between atoms: C_13  and  O_35
   14  A    between atoms: C_13  and  C_49
   15  A    between atoms: C_14  and  C_33
   16  A    between atoms: C_14  and  C_43
   17  A    between atoms: C_16  and  C_25
   18  A    between atoms: C_16  and  N_46
   19  A    between atoms: O_23  and  O_27
   20  A    between atoms: C_25  and  C_43
   21  A    between atoms: N_26  and  C_28
   22  A    between atoms: O_35  and  C_44
   23  A    between atoms: C_37  and  C_38
                            x       y       z     vdW  Elec       q    Type
                         _______ _______ _______ _____ _____    ______ ____

>  <TORSDO>
F 23

$$$$
=
 OpenBabel10232409263D

 52 55  0  0  1  0  0  0  0  0999 V2000
  189.8560  177.0520  145.2950 C   0  0  0  0  0  0  0  0  0  0  0  0
  188.0420  177.8940  147.2810 C   0  0  0  0  0  3  0  0  0  0  0  0
  190.2760  177.0140  146.6660 C   0  0  0  0  0  0  0  0  0  0  0  0
  190.9830  176.5270  144.5430 C   0  0  0  0  0  0  0  0  0  0  0  0
  192.2940  176.3200  147.8390 N   0  0  0  0  0  1  0  0  0  0  0  0
  187.6990  177.9360  145.9710 C   0  0  0  0  0  0  0  0  0  0  0  0
  188.6560  177.4820  144.9170 C   0  0  0  0  0  3  0  0  0  0  0  0
  191.5120  176.5390  146.6680 C   0  0  0  0  0  0  0  0  0  0  0  0
  191.9650  176.2330  145.3430 N   0  0  0  0  0  0  0  0  0  0  0  0
  189.3860  177.4120  147.8010 C   0  0  0  0  0  2  0  0  0  0  0  0
  185.3400  178.3880  146.7750 C   0  0  0  0  0  1  0  0  0  0  0  0
  186.3320  178.4560  145.6170 C   0  0  2  0  0  3  0  0  0  0  0  0
  185.7770  177.7210  144.4010 C   0  0  0  0  0  2  0  0  0  0  0  0
  185.2350  178.6770  143.3910 C   0  0  0  0  0  3  0  0  0  0  0  0
  184.6520  178.2280  142.2820 C   0  0  0  0  0  3  0  0  0  0  0  0
  184.1100  179.0700  141.3060 O   0  0  0  0  0  0  0  0  0  0  0  0
  183.1850  178.6420  140.3040 C   0  0  2  0  0  3  0  0  0  0  0  0
  181.1380  179.8270  139.9790 O   0  0  0  0  0  0  0  0  0  0  0  0
  181.7790  179.0010  140.6820 C   0  0  0  0  0  0  0  0  0  0  0  0
  181.2000  178.4230  141.8140 O   0  0  0  0  0  0  0  0  0  0  0  0
  180.7180  178.4120  144.0550 O   0  0  0  0  0  1  0  0  0  0  0  0
  180.7710  179.2080  142.9160 C   0  0  0  0  0  2  0  0  0  0  0  0
  183.3110  177.2630  140.0320 O   0  0  0  0  0  0  0  0  0  0  0  0
  183.9020  177.1530  138.8560 O   0  0  0  0  0  0  0  0  0  0  0  0
  183.2280  176.1110  138.2110 C   0  0  0  0  0  2  0  0  0  0  0  0
  183.2070  176.8150  135.8250 C   0  0  0  0  0  1  0  0  0  0  0  0
  183.8400  175.8810  136.8390 C   0  0  1  0  0  3  0  0  0  0  0  0
  185.9460  177.2390  136.8380 C   0  0  0  0  0  3  0  0  0  0  0  0
  186.2020  175.1110  137.1300 C   0  0  0  0  0  0  0  0  0  0  0  0
  185.2890  176.0670  136.8880 N   0  0  0  0  0  0  0  0  0  0  0  0
  185.8860  173.6680  137.3210 C   0  0  0  0  0  1  0  0  0  0  0  0
  187.4670  175.6500  137.2020 C   0  0  0  0  0  3  0  0  0  0  0  0
  187.3010  177.0140  137.0170 C   0  0  0  0  0  3  0  0  0  0  0  0
  191.0460  176.3290  143.0650 C   0  0  0  0  0  2  0  0  0  0  0  0
  191.9430  178.5130  143.0040 O   0  0  0  0  0  0  0  0  0  0  0  0
  191.5270  177.5600  142.3640 C   0  0  0  0  0  0  0  0  0  0  0  0
  191.5700  177.6030  140.8670 C   0  0  0  0  0  2  0  0  0  0  0  0
  192.9090  177.0950  140.3530 C   0  0  0  0  0  2  0  0  0  0  0  0
  191.9310  176.0700  138.2650 C   0  0  0  0  0  0  0  0  0  0  0  0
  191.1310  175.3720  138.9470 O   0  0  0  0  0  0  0  0  0  0  0  0
  192.8670  176.9370  138.9070 N   0  0  0  0  0  2  0  0  0  0  0  0
  191.8790  176.0140  136.7730 C   0  0  0  0  0  2  0  0  0  0  0  0
  191.6500  173.2660  135.8850 C   0  0  0  0  0  1  0  0  0  0  0  0
  193.6320  174.1720  137.0650 C   0  0  2  0  0  3  0  0  0  0  0  0
  193.0240  173.8920  135.6950 C   0  0  2  0  0  3  0  0  0  0  0  0
  193.1250  175.3310  136.2010 C   0  0  1  0  0  0  0  0  0  0  0  0
  194.1570  176.1970  135.5340 C   0  0  0  0  0  0  0  0  0  0  0  0
  194.6940  177.2840  136.2140 O   0  0  0  0  0  1  0  0  0  0  0  0
  194.5060  175.9700  134.3470 O   0  0  0  0  0  0  0  0  0  0  0  0
  195.1380  173.9410  136.9860 C   0  0  0  0  0  2  0  0  0  0  0  0
  195.1390  173.1330  139.2300 O   0  0  0  0  0  1  0  0  0  0  0  0
  195.7560  174.0390  138.3660 C   0  0  0  0  0  2  0  0  0  0  0  0
  1  3  1  0  0  0  0
  2 10  1  0  0  0  0
  3  8  2  0  0  0  0
  3 10  1  0  0  0  0
  4  1  1  0  0  0  0
  4  9  2  0  0  0  0
  6  2  2  0  0  0  0
  7  1  2  0  0  0  0
  7  6  1  0  0  0  0
  8  5  1  0  0  0  0
  9  8  1  0  0  0  0
 12  6  1  0  0  0  0
 12 11  1  1  0  0  0
 13 12  1  0  0  0  0
 14 13  1  0  0  0  0
 15 14  2  0  0  0  0
 16 15  1  0  0  0  0
 17 23  1  1  0  0  0
 17 19  1  0  0  0  0
 17 16  1  0  0  0  0
 18 19  2  0  0  0  0
 19 20  1  0  0  0  0
 20 22  1  0  0  0  0
 22 21  1  0  0  0  0
 24 23  1  0  0  0  0
 25 24  1  0  0  0  0
 27 26  1  6  0  0  0
 27 30  1  0  0  0  0
 27 25  1  0  0  0  0
 28 30  1  0  0  0  0
 28 33  2  0  0  0  0
 29 32  2  0  0  0  0
 29 31  1  0  0  0  0
 30 29  1  0  0  0  0
 33 32  1  0  0  0  0
 34  4  1  0  0  0  0
 36 35  2  0  0  0  0
 36 34  1  0  0  0  0
 37 36  1  0  0  0  0
 38 37  1  0  0  0  0
 39 41  1  0  0  0  0
 39 40  2  0  0  0  0
 41 38  1  0  0  0  0
 42 39  1  0  0  0  0
 44 50  1  6  0  0  0
 45 43  1  1  0  0  0
 45 46  1  0  0  0  0
 45 44  1  0  0  0  0
 46 42  1  1  0  0  0
 46 44  1  0  0  0  0
 47 46  1  0  0  0  0
 47 48  1  0  0  0  0
 49 47  2  0  0  0  0
 50 52  1  0  0  0  0
 52 51  1  0  0  0  0
M  END
>  <MODEL>
6

>  <REMARK>
 VINA RESULT:      -7.2      1.543      2.534
  Name = 
  23 active torsions:
  status: ('A' for Active; 'I' for Inactive)
    1  A    between atoms: C_2  and  O_23
    2  A    between atoms: C_2  and  C_28
    3  A    between atoms: C_4  and  C_9
    4  A    between atoms: C_4  and  C_52
    5  A    between atoms: O_5  and  C_40
    6  A    between atoms: O_5  and  C_49
    7  A    between atoms: C_6  and  C_15
    8  A    between atoms: C_6  and  C_37
    9  A    between atoms: C_8  and  C_11
   10  A    between atoms: C_8  and  C_22
   11  A    between atoms: C_10  and  C_22
   12  A    between atoms: C_13  and  O_27
   13  A    between atoms: C_13  and  O_35
   14  A    between atoms: C_13  and  C_49
   15  A    between atoms: C_14  and  C_33
   16  A    between atoms: C_14  and  C_43
   17  A    between atoms: C_16  and  C_25
   18  A    between atoms: C_16  and  N_46
   19  A    between atoms: O_23  and  O_27
   20  A    between atoms: C_25  and  C_43
   21  A    between atoms: N_26  and  C_28
   22  A    between atoms: O_35  and  C_44
   23  A    between atoms: C_37  and  C_38
                            x       y       z     vdW  Elec       q    Type
                         _______ _______ _______ _____ _____    ______ ____

>  <TORSDO>
F 23

$$$$
=
 OpenBabel10232409263D

 52 55  0  0  1  0  0  0  0  0999 V2000
  189.5060  177.1090  145.0720 C   0  0  0  0  0  0  0  0  0  0  0  0
  187.7080  177.9830  147.0580 C   0  0  0  0  0  3  0  0  0  0  0  0
  189.9190  177.0480  146.4440 C   0  0  0  0  0  0  0  0  0  0  0  0
  190.6220  176.5600  144.3200 C   0  0  0  0  0  0  0  0  0  0  0  0
  191.9130  176.2880  147.6190 N   0  0  0  0  0  1  0  0  0  0  0  0
  187.3710  178.0460  145.7470 C   0  0  0  0  0  0  0  0  0  0  0  0
  188.3200  177.5750  144.6930 C   0  0  0  0  0  3  0  0  0  0  0  0
  191.1420  176.5390  146.4470 C   0  0  0  0  0  0  0  0  0  0  0  0
  191.5920  176.2310  145.1210 N   0  0  0  0  0  0  0  0  0  0  0  0
  189.0360  177.4600  147.5790 C   0  0  0  0  0  2  0  0  0  0  0  0
  184.8600  177.7600  145.9080 C   0  0  0  0  0  1  0  0  0  0  0  0
  186.0210  178.6060  145.3930 C   0  0  2  0  0  3  0  0  0  0  0  0
  185.9020  178.8070  143.8860 C   0  0  0  0  0  2  0  0  0  0  0  0
  184.4740  178.8560  143.4550 C   0  0  0  0  0  3  0  0  0  0  0  0
  184.1160  178.4160  142.2520 C   0  0  0  0  0  3  0  0  0  0  0  0
  182.7940  178.4180  141.7950 O   0  0  0  0  0  0  0  0  0  0  0  0
  182.3670  179.0450  140.5840 C   0  0  2  0  0  3  0  0  0  0  0  0
  180.5320  177.5170  140.5560 O   0  0  0  0  0  0  0  0  0  0  0  0
  181.3400  178.2090  139.8800 C   0  0  0  0  0  0  0  0  0  0  0  0
  181.2970  178.2010  138.4840 O   0  0  0  0  0  0  0  0  0  0  0  0
  181.2420  180.0460  137.1260 O   0  0  0  0  0  1  0  0  0  0  0  0
  180.4580  179.0870  137.7580 C   0  0  0  0  0  2  0  0  0  0  0  0
  183.4560  179.3460  139.7390 O   0  0  0  0  0  0  0  0  0  0  0  0
  184.0570  178.2030  139.4620 O   0  0  0  0  0  0  0  0  0  0  0  0
  184.9210  178.4990  138.4020 C   0  0  0  0  0  2  0  0  0  0  0  0
  185.4630  176.4410  137.1150 C   0  0  0  0  0  1  0  0  0  0  0  0
  185.9180  177.3670  138.2270 C   0  0  1  0  0  3  0  0  0  0  0  0
  187.7310  178.2690  136.7520 C   0  0  0  0  0  3  0  0  0  0  0  0
  188.1750  178.2350  138.8690 C   0  0  0  0  0  0  0  0  0  0  0  0
  187.2520  177.8980  137.9520 N   0  0  0  0  0  0  0  0  0  0  0  0
  188.0130  178.0520  140.3390 C   0  0  0  0  0  1  0  0  0  0  0  0
  189.2790  178.7950  138.2690 C   0  0  0  0  0  3  0  0  0  0  0  0
  188.9930  178.8180  136.9120 C   0  0  0  0  0  3  0  0  0  0  0  0
  190.6850  176.3740  142.8400 C   0  0  0  0  0  2  0  0  0  0  0  0
  191.9380  178.3740  142.8360 O   0  0  0  0  0  0  0  0  0  0  0  0
  191.3920  177.5100  142.1710 C   0  0  0  0  0  0  0  0  0  0  0  0
  191.4960  177.5530  140.6770 C   0  0  0  0  0  2  0  0  0  0  0  0
  192.9150  177.2400  140.2280 C   0  0  0  0  0  2  0  0  0  0  0  0
  192.0430  176.0770  138.1660 C   0  0  0  0  0  0  0  0  0  0  0  0
  191.2090  175.4250  138.8510 O   0  0  0  0  0  0  0  0  0  0  0  0
  192.9470  176.9870  138.7950 N   0  0  0  0  0  2  0  0  0  0  0  0
  192.0670  175.9220  136.6800 C   0  0  0  0  0  2  0  0  0  0  0  0
  192.0730  173.0930  136.0580 C   0  0  0  0  0  1  0  0  0  0  0  0
  193.9400  174.2570  137.1960 C   0  0  2  0  0  3  0  0  0  0  0  0
  193.4010  173.8020  135.8440 C   0  0  2  0  0  3  0  0  0  0  0  0
  193.3790  175.2860  136.2110 C   0  0  1  0  0  0  0  0  0  0  0  0
  194.3650  176.1620  135.4900 C   0  0  0  0  0  0  0  0  0  0  0  0
  194.7860  177.3530  136.0690 O   0  0  0  0  0  1  0  0  0  0  0  0
  194.7810  175.8440  134.3460 O   0  0  0  0  0  0  0  0  0  0  0  0
  195.4610  174.1360  137.1810 C   0  0  0  0  0  2  0  0  0  0  0  0
  195.3060  172.2030  138.5680 O   0  0  0  0  0  1  0  0  0  0  0  0
  195.8730  172.6930  137.3920 C   0  0  0  0  0  2  0  0  0  0  0  0
  1  3  1  0  0  0  0
  2 10  1  0  0  0  0
  3  8  2  0  0  0  0
  3 10  1  0  0  0  0
  4  1  1  0  0  0  0
  4  9  2  0  0  0  0
  6  2  2  0  0  0  0
  7  1  2  0  0  0  0
  7  6  1  0  0  0  0
  8  5  1  0  0  0  0
  9  8  1  0  0  0  0
 12  6  1  0  0  0  0
 12 11  1  6  0  0  0
 13 12  1  0  0  0  0
 14 13  1  0  0  0  0
 15 14  2  0  0  0  0
 16 15  1  0  0  0  0
 17 23  1  6  0  0  0
 17 16  1  0  0  0  0
 19 18  2  0  0  0  0
 19 17  1  0  0  0  0
 20 19  1  0  0  0  0
 21 22  1  0  0  0  0
 22 20  1  0  0  0  0
 24 23  1  0  0  0  0
 25 24  1  0  0  0  0
 27 26  1  6  0  0  0
 27 25  1  0  0  0  0
 28 33  2  0  0  0  0
 28 30  1  0  0  0  0
 29 31  1  0  0  0  0
 30 27  1  0  0  0  0
 30 29  1  0  0  0  0
 32 29  2  0  0  0  0
 33 32  1  0  0  0  0
 34  4  1  0  0  0  0
 36 35  2  0  0  0  0
 36 34  1  0  0  0  0
 37 36  1  0  0  0  0
 38 37  1  0  0  0  0
 39 41  1  0  0  0  0
 39 40  2  0  0  0  0
 41 38  1  0  0  0  0
 42 39  1  0  0  0  0
 44 50  1  6  0  0  0
 45 43  1  1  0  0  0
 45 46  1  0  0  0  0
 45 44  1  0  0  0  0
 46 42  1  1  0  0  0
 46 44  1  0  0  0  0
 47 48  1  0  0  0  0
 47 46  1  0  0  0  0
 49 47  2  0  0  0  0
 50 52  1  0  0  0  0
 52 51  1  0  0  0  0
M  END
>  <MODEL>
7

>  <REMARK>
 VINA RESULT:      -6.8      1.562      2.113
  Name = 
  23 active torsions:
  status: ('A' for Active; 'I' for Inactive)
    1  A    between atoms: C_2  and  O_23
    2  A    between atoms: C_2  and  C_28
    3  A    between atoms: C_4  and  C_9
    4  A    between atoms: C_4  and  C_52
    5  A    between atoms: O_5  and  C_40
    6  A    between atoms: O_5  and  C_49
    7  A    between atoms: C_6  and  C_15
    8  A    between atoms: C_6  and  C_37
    9  A    between atoms: C_8  and  C_11
   10  A    between atoms: C_8  and  C_22
   11  A    between atoms: C_10  and  C_22
   12  A    between atoms: C_13  and  O_27
   13  A    between atoms: C_13  and  O_35
   14  A    between atoms: C_13  and  C_49
   15  A    between atoms: C_14  and  C_33
   16  A    between atoms: C_14  and  C_43
   17  A    between atoms: C_16  and  C_25
   18  A    between atoms: C_16  and  N_46
   19  A    between atoms: O_23  and  O_27
   20  A    between atoms: C_25  and  C_43
   21  A    between atoms: N_26  and  C_28
   22  A    between atoms: O_35  and  C_44
   23  A    between atoms: C_37  and  C_38
                            x       y       z     vdW  Elec       q    Type
                         _______ _______ _______ _____ _____    ______ ____

>  <TORSDO>
F 23

$$$$
=
 OpenBabel10232409263D

 52 55  0  0  1  0  0  0  0  0999 V2000
  188.4670  177.6190  144.9410 C   0  0  0  0  0  0  0  0  0  0  0  0
  190.9300  178.0030  143.6270 C   0  0  0  0  0  3  0  0  0  0  0  0
  189.6580  177.7120  145.7340 C   0  0  0  0  0  0  0  0  0  0  0  0
  187.3880  177.4650  145.9030 C   0  0  0  0  0  0  0  0  0  0  0  0
  190.1590  177.6630  148.1180 N   0  0  0  0  0  1  0  0  0  0  0  0
  189.7810  177.8840  142.9190 C   0  0  0  0  0  0  0  0  0  0  0  0
  188.4730  177.6880  143.6140 C   0  0  0  0  0  3  0  0  0  0  0  0
  189.2790  177.6010  146.9980 C   0  0  0  0  0  0  0  0  0  0  0  0
  187.8590  177.4440  147.1140 N   0  0  0  0  0  0  0  0  0  0  0  0
  191.0130  177.9430  145.1430 C   0  0  0  0  0  2  0  0  0  0  0  0
  188.5980  177.4850  140.7150 C   0  0  0  0  0  1  0  0  0  0  0  0
  189.8700  177.9510  141.4180 C   0  0  2  0  0  3  0  0  0  0  0  0
  191.0730  177.1590  140.9160 C   0  0  0  0  0  2  0  0  0  0  0  0
  191.2830  177.3600  139.4530 C   0  0  0  0  0  3  0  0  0  0  0  0
  191.7210  176.3620  138.6900 C   0  0  0  0  0  3  0  0  0  0  0  0
  191.9210  176.4800  137.3110 O   0  0  0  0  0  0  0  0  0  0  0  0
  191.3580  175.5940  136.3410 C   0  0  2  0  0  3  0  0  0  0  0  0
  190.5190  173.5630  137.2760 O   0  0  0  0  0  0  0  0  0  0  0  0
  190.2730  174.7550  136.9470 C   0  0  0  0  0  0  0  0  0  0  0  0
  189.0010  175.3000  137.1330 O   0  0  0  0  0  0  0  0  0  0  0  0
  188.5760  177.5520  137.1580 O   0  0  0  0  0  1  0  0  0  0  0  0
  188.5450  176.4070  136.3690 C   0  0  0  0  0  2  0  0  0  0  0  0
  192.3460  174.7960  135.7260 O   0  0  0  0  0  0  0  0  0  0  0  0
  193.5100  175.1700  136.2250 O   0  0  0  0  0  0  0  0  0  0  0  0
  194.0560  174.0060  136.7750 C   0  0  0  0  0  2  0  0  0  0  0  0
  195.4060  174.3010  138.8440 C   0  0  0  0  0  1  0  0  0  0  0  0
  195.4400  174.3040  137.3270 C   0  0  1  0  0  3  0  0  0  0  0  0
  196.2770  171.9960  136.8250 C   0  0  0  0  0  3  0  0  0  0  0  0
  197.5390  173.6190  136.1510 C   0  0  0  0  0  0  0  0  0  0  0  0
  196.4110  173.3340  136.8240 N   0  0  0  0  0  0  0  0  0  0  0  0
  198.0280  174.9960  135.8650 C   0  0  0  0  0  1  0  0  0  0  0  0
  198.1680  172.4660  135.7400 C   0  0  0  0  0  3  0  0  0  0  0  0
  197.3570  171.4260  136.1710 C   0  0  0  0  0  3  0  0  0  0  0  0
  185.9330  177.3530  145.5890 C   0  0  0  0  0  2  0  0  0  0  0  0
  185.4240  178.8350  147.3560 O   0  0  0  0  0  0  0  0  0  0  0  0
  185.1440  178.4510  146.2320 C   0  0  0  0  0  0  0  0  0  0  0  0
  184.0530  179.1360  145.4690 C   0  0  0  0  0  2  0  0  0  0  0  0
  184.5370  179.5430  144.0850 C   0  0  0  0  0  2  0  0  0  0  0  0
  184.2770  178.3700  141.8670 C   0  0  0  0  0  0  0  0  0  0  0  0
  185.5160  178.4480  141.6460 O   0  0  0  0  0  0  0  0  0  0  0  0
  183.7140  178.9200  143.0590 N   0  0  0  0  0  2  0  0  0  0  0  0
  183.3920  177.6670  140.8890 C   0  0  0  0  0  2  0  0  0  0  0  0
  180.7930  178.9480  140.9310 C   0  0  0  0  0  1  0  0  0  0  0  0
  181.8550  178.0520  138.8800 C   0  0  2  0  0  3  0  0  0  0  0  0
  181.6660  179.3000  139.7360 C   0  0  2  0  0  3  0  0  0  0  0  0
  183.0170  178.5860  139.7220 C   0  0  1  0  0  0  0  0  0  0  0  0
  184.1310  179.2880  138.9960 C   0  0  0  0  0  0  0  0  0  0  0  0
  184.0980  180.6690  138.8460 O   0  0  0  0  0  1  0  0  0  0  0  0
  185.0730  178.6270  138.4870 O   0  0  0  0  0  0  0  0  0  0  0  0
  181.8980  178.4700  137.4120 C   0  0  0  0  0  2  0  0  0  0  0  0
  180.6540  179.7810  135.8580 O   0  0  0  0  0  1  0  0  0  0  0  0
  181.0460  179.7040  137.1940 C   0  0  0  0  0  2  0  0  0  0  0  0
  1  3  1  0  0  0  0
  1  4  1  0  0  0  0
  2 10  1  0  0  0  0
  3  8  2  0  0  0  0
  4  9  2  0  0  0  0
  6  7  1  0  0  0  0
  6  2  2  0  0  0  0
  7  1  2  0  0  0  0
  8  9  1  0  0  0  0
  8  5  1  0  0  0  0
 10  3  1  0  0  0  0
 12 11  1  6  0  0  0
 12  6  1  0  0  0  0
 13 12  1  0  0  0  0
 14 13  1  0  0  0  0
 15 14  2  0  0  0  0
 16 15  1  0  0  0  0
 17 23  1  1  0  0  0
 17 19  1  0  0  0  0
 17 16  1  0  0  0  0
 19 20  1  0  0  0  0
 19 18  2  0  0  0  0
 22 20  1  0  0  0  0
 22 21  1  0  0  0  0
 23 24  1  0  0  0  0
 24 25  1  0  0  0  0
 25 27  1  0  0  0  0
 27 26  1  1  0  0  0
 29 30  1  0  0  0  0
 30 28  1  0  0  0  0
 30 27  1  0  0  0  0
 31 29  1  0  0  0  0
 32 29  2  0  0  0  0
 32 33  1  0  0  0  0
 33 28  2  0  0  0  0
 34  4  1  0  0  0  0
 34 36  1  0  0  0  0
 36 35  2  0  0  0  0
 37 36  1  0  0  0  0
 38 37  1  0  0  0  0
 39 41  1  0  0  0  0
 40 39  2  0  0  0  0
 41 38  1  0  0  0  0
 42 39  1  0  0  0  0
 44 50  1  6  0  0  0
 44 46  1  0  0  0  0
 44 45  1  0  0  0  0
 45 43  1  1  0  0  0
 46 45  1  0  0  0  0
 46 42  1  1  0  0  0
 47 46  1  0  0  0  0
 48 47  1  0  0  0  0
 49 47  2  0  0  0  0
 51 52  1  0  0  0  0
 52 50  1  0  0  0  0
M  END
>  <MODEL>
8

>  <REMARK>
 VINA RESULT:      -6.8      2.599      8.888
  Name = 
  23 active torsions:
  status: ('A' for Active; 'I' for Inactive)
    1  A    between atoms: C_2  and  O_23
    2  A    between atoms: C_2  and  C_28
    3  A    between atoms: C_4  and  C_9
    4  A    between atoms: C_4  and  C_52
    5  A    between atoms: O_5  and  C_40
    6  A    between atoms: O_5  and  C_49
    7  A    between atoms: C_6  and  C_15
    8  A    between atoms: C_6  and  C_37
    9  A    between atoms: C_8  and  C_11
   10  A    between atoms: C_8  and  C_22
   11  A    between atoms: C_10  and  C_22
   12  A    between atoms: C_13  and  O_27
   13  A    between atoms: C_13  and  O_35
   14  A    between atoms: C_13  and  C_49
   15  A    between atoms: C_14  and  C_33
   16  A    between atoms: C_14  and  C_43
   17  A    between atoms: C_16  and  C_25
   18  A    between atoms: C_16  and  N_46
   19  A    between atoms: O_23  and  O_27
   20  A    between atoms: C_25  and  C_43
   21  A    between atoms: N_26  and  C_28
   22  A    between atoms: O_35  and  C_44
   23  A    between atoms: C_37  and  C_38
                            x       y       z     vdW  Elec       q    Type
                         _______ _______ _______ _____ _____    ______ ____

>  <TORSDO>
F 23

$$$$
=
 OpenBabel10232409263D

 52 55  0  0  1  0  0  0  0  0999 V2000
  188.2500  177.5490  145.2240 C   0  0  0  0  0  0  0  0  0  0  0  0
  185.5830  178.4540  145.3160 C   0  0  0  0  0  3  0  0  0  0  0  0
  187.7030  177.9380  146.4920 C   0  0  0  0  0  0  0  0  0  0  0  0
  189.6010  177.1040  145.5210 C   0  0  0  0  0  0  0  0  0  0  0  0
  188.5180  177.9920  148.7870 N   0  0  0  0  0  1  0  0  0  0  0  0
  186.1510  178.1000  144.1380 C   0  0  0  0  0  0  0  0  0  0  0  0
  187.5630  177.6130  144.0890 C   0  0  0  0  0  3  0  0  0  0  0  0
  188.6570  177.7480  147.3890 C   0  0  0  0  0  0  0  0  0  0  0  0
  189.8520  177.2270  146.7910 N   0  0  0  0  0  0  0  0  0  0  0  0
  186.2910  178.4070  146.6590 C   0  0  0  0  0  2  0  0  0  0  0  0
  186.0500  178.8970  141.7360 C   0  0  0  0  0  1  0  0  0  0  0  0
  185.3180  178.2190  142.8910 C   0  0  2  0  0  3  0  0  0  0  0  0
  184.0090  178.9450  143.1870 C   0  0  0  0  0  2  0  0  0  0  0  0
  182.9980  178.6970  142.1190 C   0  0  0  0  0  3  0  0  0  0  0  0
  183.3350  178.7880  140.8350 C   0  0  0  0  0  3  0  0  0  0  0  0
  182.4390  178.5510  139.7870 O   0  0  0  0  0  0  0  0  0  0  0  0
  182.8260  178.0750  138.4960 C   0  0  2  0  0  3  0  0  0  0  0  0
  181.8700  175.9650  139.0740 O   0  0  0  0  0  0  0  0  0  0  0  0
  182.1170  176.7980  138.1600 C   0  0  0  0  0  0  0  0  0  0  0  0
  181.7460  176.5410  136.8380 O   0  0  0  0  0  0  0  0  0  0  0  0
  182.1330  177.2630  134.6980 O   0  0  0  0  0  1  0  0  0  0  0  0
  181.5290  177.5900  135.9060 C   0  0  0  0  0  2  0  0  0  0  0  0
  184.2250  177.9330  138.3890 O   0  0  0  0  0  0  0  0  0  0  0  0
  184.4660  176.6590  138.1390 O   0  0  0  0  0  0  0  0  0  0  0  0
  185.2400  176.6620  136.9740 C   0  0  0  0  0  2  0  0  0  0  0  0
  186.6080  174.6290  136.5420 C   0  0  0  0  0  1  0  0  0  0  0  0
  186.5680  175.9740  137.2430 C   0  0  1  0  0  3  0  0  0  0  0  0
  188.1710  176.9180  135.5640 C   0  0  0  0  0  3  0  0  0  0  0  0
  188.3050  177.7460  137.5580 C   0  0  0  0  0  0  0  0  0  0  0  0
  187.6790  176.8210  136.8110 N   0  0  0  0  0  0  0  0  0  0  0  0
  188.0120  178.0160  138.9930 C   0  0  0  0  0  1  0  0  0  0  0  0
  189.2370  178.4290  136.8100 C   0  0  0  0  0  3  0  0  0  0  0  0
  189.1490  177.8990  135.5320 C   0  0  0  0  0  3  0  0  0  0  0  0
  190.5900  176.5670  144.5410 C   0  0  0  0  0  2  0  0  0  0  0  0
  191.4030  178.6200  143.7050 O   0  0  0  0  0  0  0  0  0  0  0  0
  190.8750  177.5500  143.4500 C   0  0  0  0  0  0  0  0  0  0  0  0
  190.5810  177.1960  142.0240 C   0  0  0  0  0  2  0  0  0  0  0  0
  191.7690  177.5230  141.1320 C   0  0  0  0  0  2  0  0  0  0  0  0
  192.4720  176.9200  138.7860 C   0  0  0  0  0  0  0  0  0  0  0  0
  193.6900  176.9490  139.1110 O   0  0  0  0  0  0  0  0  0  0  0  0
  191.4560  177.2220  139.7430 N   0  0  0  0  0  2  0  0  0  0  0  0
  192.0840  176.5350  137.3950 C   0  0  0  0  0  2  0  0  0  0  0  0
  190.9440  173.9070  136.9640 C   0  0  0  0  0  1  0  0  0  0  0  0
  193.2260  174.2910  137.8480 C   0  0  2  0  0  3  0  0  0  0  0  0
  192.4110  174.0430  136.5840 C   0  0  2  0  0  3  0  0  0  0  0  0
  192.9950  175.4300  136.8520 C   0  0  1  0  0  0  0  0  0  0  0  0
  194.1560  175.8390  135.9890 C   0  0  0  0  0  0  0  0  0  0  0  0
  194.6760  174.9470  135.0590 O   0  0  0  0  0  0  0  0  0  0  0  0
  194.6870  176.9700  136.1320 O   0  0  0  0  0  1  0  0  0  0  0  0
  194.5750  173.5910  137.7030 C   0  0  0  0  0  2  0  0  0  0  0  0
  196.4850  174.7570  138.5260 O   0  0  0  0  0  1  0  0  0  0  0  0
  195.4530  173.8950  138.9000 C   0  0  0  0  0  2  0  0  0  0  0  0
  1  4  1  0  0  0  0
  1  3  1  0  0  0  0
  2 10  1  0  0  0  0
  3 10  1  0  0  0  0
  3  8  2  0  0  0  0
  4  9  2  0  0  0  0
  6  2  2  0  0  0  0
  7  6  1  0  0  0  0
  7  1  2  0  0  0  0
  8  5  1  0  0  0  0
  9  8  1  0  0  0  0
 12 11  1  6  0  0  0
 12 13  1  0  0  0  0
 12  6  1  0  0  0  0
 14 13  1  0  0  0  0
 15 14  2  0  0  0  0
 16 15  1  0  0  0  0
 17 19  1  1  0  0  0
 17 16  1  0  0  0  0
 19 18  2  0  0  0  0
 20 19  1  0  0  0  0
 21 22  1  0  0  0  0
 22 20  1  0  0  0  0
 23 17  1  0  0  0  0
 24 23  1  0  0  0  0
 25 27  1  0  0  0  0
 25 24  1  0  0  0  0
 27 26  1  6  0  0  0
 28 30  1  0  0  0  0
 29 31  1  0  0  0  0
 30 27  1  0  0  0  0
 30 29  1  0  0  0  0
 32 29  2  0  0  0  0
 33 28  2  0  0  0  0
 33 32  1  0  0  0  0
 34  4  1  0  0  0  0
 36 35  2  0  0  0  0
 36 34  1  0  0  0  0
 37 36  1  0  0  0  0
 38 37  1  0  0  0  0
 39 40  2  0  0  0  0
 39 41  1  0  0  0  0
 41 38  1  0  0  0  0
 42 39  1  0  0  0  0
 44 50  1  6  0  0  0
 45 46  1  0  0  0  0
 45 43  1  1  0  0  0
 45 44  1  0  0  0  0
 46 42  1  1  0  0  0
 46 44  1  0  0  0  0
 47 49  1  0  0  0  0
 47 46  1  0  0  0  0
 48 47  2  0  0  0  0
 50 52  1  0  0  0  0
 51 52  1  0  0  0  0
M  END
>  <MODEL>
9

>  <REMARK>
 VINA RESULT:      -6.8      1.482      2.528
  Name = 
  23 active torsions:
  status: ('A' for Active; 'I' for Inactive)
    1  A    between atoms: C_2  and  O_23
    2  A    between atoms: C_2  and  C_28
    3  A    between atoms: C_4  and  C_9
    4  A    between atoms: C_4  and  C_52
    5  A    between atoms: O_5  and  C_40
    6  A    between atoms: O_5  and  C_49
    7  A    between atoms: C_6  and  C_15
    8  A    between atoms: C_6  and  C_37
    9  A    between atoms: C_8  and  C_11
   10  A    between atoms: C_8  and  C_22
   11  A    between atoms: C_10  and  C_22
   12  A    between atoms: C_13  and  O_27
   13  A    between atoms: C_13  and  O_35
   14  A    between atoms: C_13  and  C_49
   15  A    between atoms: C_14  and  C_33
   16  A    between atoms: C_14  and  C_43
   17  A    between atoms: C_16  and  C_25
   18  A    between atoms: C_16  and  N_46
   19  A    between atoms: O_23  and  O_27
   20  A    between atoms: C_25  and  C_43
   21  A    between atoms: N_26  and  C_28
   22  A    between atoms: O_35  and  C_44
   23  A    between atoms: C_37  and  C_38
                            x       y       z     vdW  Elec       q    Type
                         _______ _______ _______ _____ _____    ______ ____

>  <TORSDO>
F 23

$$$$
