=
 OpenBabel10232411253D

 36 39  0  0  0  0  0  0  0  0999 V2000
  190.4860  176.6490  141.7750 C   0  0  0  0  0  3  0  0  0  0  0  0
  190.2630  177.0020  140.5070 C   0  0  0  0  0  0  0  0  0  0  0  0
  191.7200  175.5230  137.3270 C   0  0  0  0  0  3  0  0  0  0  0  0
  193.4790  176.6460  138.5440 C   0  0  0  0  0  3  0  0  0  0  0  0
  191.2200  176.6200  139.4420 C   0  0  0  0  0  0  0  0  0  0  0  0
  190.8060  175.8760  138.3240 C   0  0  0  0  0  3  0  0  0  0  0  0
  193.0600  175.9050  137.4290 C   0  0  0  0  0  0  0  0  0  0  0  0
  192.5660  176.9990  139.5400 C   0  0  0  0  0  3  0  0  0  0  0  0
  193.9480  175.5410  136.4140 O   0  0  0  0  0  0  0  0  0  0  0  0
  195.0420  177.2080  135.0830 C   0  0  0  0  0  1  0  0  0  0  0  0
  193.9470  176.1620  135.1360 C   0  0  0  0  0  2  0  0  0  0  0  0
  185.8890  178.9150  142.2860 C   0  0  0  0  0  3  0  0  0  0  0  0
  187.7490  178.3860  140.5440 C   0  0  0  0  0  0  0  0  0  0  0  0
  188.2950  178.4580  139.2720 C   0  0  0  0  0  2  0  0  0  0  0  0
  186.8170  178.6520  141.4120 C   0  0  0  0  0  0  0  0  0  0  0  0
  189.0890  177.7480  140.1710 N   0  0  0  0  0  0  0  0  0  0  0  0
  184.8870  177.8730  142.6430 C   0  0  0  0  0  2  0  0  0  0  0  0
  180.7250  179.3410  140.5390 O   0  0  0  0  0  0  0  0  0  0  0  0
  181.4900  179.1550  143.9970 C   0  0  0  0  0  3  0  0  0  0  0  0
  182.7920  178.5900  141.4830 C   0  0  0  0  0  0  0  0  0  0  0  0
  182.9740  178.9200  143.9630 C   0  0  0  0  0  2  0  0  0  0  0  0
  180.7680  179.2680  142.8870 C   0  0  0  0  0  3  0  0  0  0  0  0
  181.3950  179.0890  141.5760 C   0  0  0  0  0  0  0  0  0  0  0  0
  183.5070  178.4490  142.6270 C   0  0  0  0  0  0  0  0  0  0  0  0
  183.3300  178.2060  140.1500 C   0  0  0  0  0  0  0  0  0  0  0  0
  183.9300  179.1710  139.2900 N   0  0  0  0  0  1  0  0  0  0  0  0
  183.2210  177.0190  139.7460 O   0  0  0  0  0  0  0  0  0  0  0  0
  191.1140  176.6410  144.5300 O   0  0  0  0  0  0  0  0  0  0  0  0
  189.9430  176.9750  144.1950 C   0  0  0  0  0  0  0  0  0  0  0  0
  189.5730  176.9980  142.8150 N   0  0  0  0  0  2  0  0  0  0  0  0
  189.3620  177.6030  146.5400 C   0  0  0  0  0  3  0  0  0  0  0  0
  187.5900  177.3930  144.9070 C   0  0  0  0  0  3  0  0  0  0  0  0
  187.0630  177.9970  147.1920 C   0  0  0  0  0  3  0  0  0  0  0  0
  188.9530  177.3290  145.2270 C   0  0  0  0  0  0  0  0  0  0  0  0
  186.6480  177.7260  145.8860 C   0  0  0  0  0  3  0  0  0  0  0  0
  188.4200  177.9350  147.5190 C   0  0  0  0  0  3  0  0  0  0  0  0
  1 30  1  0  0  0  0
  2  1  2  0  0  0  0
  3  7  2  0  0  0  0
  3  6  1  0  0  0  0
  4  8  2  0  0  0  0
  5  8  1  0  0  0  0
  5  2  1  0  0  0  0
  6  5  2  0  0  0  0
  7  4  1  0  0  0  0
  9  7  1  0  0  0  0
 10 11  1  0  0  0  0
 11  9  1  0  0  0  0
 12 17  1  0  0  0  0
 13 15  2  0  0  0  0
 14 16  1  0  0  0  0
 14 13  1  0  0  0  0
 15 12  2  0  0  0  0
 16  2  1  0  0  0  0
 16 13  1  0  0  0  0
 18 23  2  0  0  0  0
 20 23  1  0  0  0  0
 20 24  2  0  0  0  0
 21 19  1  0  0  0  0
 22 19  2  0  0  0  0
 23 22  1  0  0  0  0
 24 17  1  0  0  0  0
 24 21  1  0  0  0  0
 25 20  1  0  0  0  0
 26 25  1  0  0  0  0
 27 25  2  0  0  0  0
 29 28  2  0  0  0  0
 29 34  1  0  0  0  0
 30 29  1  0  0  0  0
 31 36  1  0  0  0  0
 32 34  1  0  0  0  0
 32 35  2  0  0  0  0
 33 36  2  0  0  0  0
 34 31  2  0  0  0  0
 35 33  1  0  0  0  0
M  END
>  <MODEL>
1

>  <REMARK>
 VINA RESULT:      -8.9      0.000      0.000
  Name = 
  9 active torsions:
  status: ('A' for Active; 'I' for Inactive)
    1  A    between atoms: C_3  and  C_33
    2  A    between atoms: C_7  and  C_12
    3  A    between atoms: C_13  and  N_30
    4  A    between atoms: C_14  and  O_15
    5  A    between atoms: O_15  and  C_22
    6  A    between atoms: C_16  and  C_31
    7  A    between atoms: C_19  and  C_24
    8  A    between atoms: C_31  and  N_32
    9  A    between atoms: C_33  and  C_34
                            x       y       z     vdW  Elec       q    Type
                         _______ _______ _______ _____ _____    ______ ____

>  <TORSDO>
F 9

$$$$
=
 OpenBabel10232411253D

 36 39  0  0  0  0  0  0  0  0999 V2000
  190.1030  176.9790  137.7650 C   0  0  0  0  0  3  0  0  0  0  0  0
  189.9890  177.4010  139.0260 C   0  0  0  0  0  0  0  0  0  0  0  0
  186.3400  178.4400  139.2050 C   0  0  0  0  0  3  0  0  0  0  0  0
  187.3240  178.6600  141.4010 C   0  0  0  0  0  3  0  0  0  0  0  0
  188.6830  177.8730  139.5440 C   0  0  0  0  0  0  0  0  0  0  0  0
  187.5650  177.9930  138.7010 C   0  0  0  0  0  3  0  0  0  0  0  0
  186.2110  178.7750  140.5550 C   0  0  0  0  0  0  0  0  0  0  0  0
  188.5480  178.2130  140.8970 C   0  0  0  0  0  3  0  0  0  0  0  0
  184.9720  179.2150  141.0280 O   0  0  0  0  0  0  0  0  0  0  0  0
  184.3460  178.9290  143.3250 C   0  0  0  0  0  1  0  0  0  0  0  0
  184.1670  178.4380  141.9030 C   0  0  0  0  0  2  0  0  0  0  0  0
  191.5810  176.8940  143.8390 C   0  0  0  0  0  3  0  0  0  0  0  0
  191.7720  177.2620  141.2690 C   0  0  0  0  0  0  0  0  0  0  0  0
  192.5040  177.4820  140.1130 C   0  0  0  0  0  2  0  0  0  0  0  0
  191.6800  177.0780  142.5540 C   0  0  0  0  0  0  0  0  0  0  0  0
  191.1320  177.3930  139.8860 N   0  0  0  0  0  0  0  0  0  0  0  0
  191.1670  178.0190  144.7220 C   0  0  0  0  0  2  0  0  0  0  0  0
  188.3820  176.3970  148.3980 O   0  0  0  0  0  0  0  0  0  0  0  0
  187.3500  177.9590  145.3870 C   0  0  0  0  0  3  0  0  0  0  0  0
  189.8230  177.1780  146.6540 C   0  0  0  0  0  0  0  0  0  0  0  0
  188.6230  177.9400  144.5870 C   0  0  0  0  0  2  0  0  0  0  0  0
  187.2860  177.4790  146.6240 C   0  0  0  0  0  3  0  0  0  0  0  0
  188.4920  176.9770  147.2850 C   0  0  0  0  0  0  0  0  0  0  0  0
  189.8750  177.6990  145.4030 C   0  0  0  0  0  0  0  0  0  0  0  0
  191.0460  176.8610  147.4410 C   0  0  0  0  0  0  0  0  0  0  0  0
  191.7190  175.6140  147.2880 N   0  0  0  0  0  1  0  0  0  0  0  0
  191.4780  177.6830  148.2910 O   0  0  0  0  0  0  0  0  0  0  0  0
  190.9200  174.2740  137.7500 O   0  0  0  0  0  0  0  0  0  0  0  0
  191.7130  175.1290  137.2660 C   0  0  0  0  0  0  0  0  0  0  0  0
  191.3480  176.5100  137.2470 N   0  0  0  0  0  2  0  0  0  0  0  0
  193.9150  175.6540  136.2170 C   0  0  0  0  0  3  0  0  0  0  0  0
  193.3780  173.3520  136.7300 C   0  0  0  0  0  3  0  0  0  0  0  0
  195.5050  173.8990  135.7090 C   0  0  0  0  0  3  0  0  0  0  0  0
  193.0190  174.7070  136.7320 C   0  0  0  0  0  0  0  0  0  0  0  0
  194.6170  172.9500  136.2200 C   0  0  0  0  0  3  0  0  0  0  0  0
  195.1540  175.2510  135.7060 C   0  0  0  0  0  3  0  0  0  0  0  0
  1  2  2  0  0  0  0
  2  5  1  0  0  0  0
  2 16  1  0  0  0  0
  3  7  1  0  0  0  0
  5  8  2  0  0  0  0
  6  3  2  0  0  0  0
  6  5  1  0  0  0  0
  7  9  1  0  0  0  0
  7  4  2  0  0  0  0
  8  4  1  0  0  0  0
  9 11  1  0  0  0  0
 11 10  1  0  0  0  0
 12 17  1  0  0  0  0
 13 15  2  0  0  0  0
 14 13  1  0  0  0  0
 15 12  2  0  0  0  0
 16 14  1  0  0  0  0
 16 13  1  0  0  0  0
 17 24  1  0  0  0  0
 19 22  2  0  0  0  0
 20 23  1  0  0  0  0
 20 25  1  0  0  0  0
 21 19  1  0  0  0  0
 21 24  1  0  0  0  0
 22 23  1  0  0  0  0
 23 18  2  0  0  0  0
 24 20  2  0  0  0  0
 25 27  2  0  0  0  0
 26 25  1  0  0  0  0
 29 28  2  0  0  0  0
 30 29  1  0  0  0  0
 30  1  1  0  0  0  0
 31 34  1  0  0  0  0
 32 34  2  0  0  0  0
 33 35  2  0  0  0  0
 34 29  1  0  0  0  0
 35 32  1  0  0  0  0
 36 33  1  0  0  0  0
 36 31  2  0  0  0  0
M  END
>  <MODEL>
2

>  <REMARK>
 VINA RESULT:      -8.7      2.354      8.755
  Name = 
  9 active torsions:
  status: ('A' for Active; 'I' for Inactive)
    1  A    between atoms: C_3  and  C_33
    2  A    between atoms: C_7  and  C_12
    3  A    between atoms: C_13  and  N_30
    4  A    between atoms: C_14  and  O_15
    5  A    between atoms: O_15  and  C_22
    6  A    between atoms: C_16  and  C_31
    7  A    between atoms: C_19  and  C_24
    8  A    between atoms: C_31  and  N_32
    9  A    between atoms: C_33  and  C_34
                            x       y       z     vdW  Elec       q    Type
                         _______ _______ _______ _____ _____    ______ ____

>  <TORSDO>
F 9

$$$$
=
 OpenBabel10232411253D

 36 39  0  0  0  0  0  0  0  0999 V2000
  188.7180  175.5080  137.1920 C   0  0  0  0  0  3  0  0  0  0  0  0
  189.5860  176.1780  137.9530 C   0  0  0  0  0  0  0  0  0  0  0  0
  192.8540  174.3320  137.3720 C   0  0  0  0  0  3  0  0  0  0  0  0
  193.3390  176.5000  138.3250 C   0  0  0  0  0  3  0  0  0  0  0  0
  191.0320  175.8560  137.9060 C   0  0  0  0  0  0  0  0  0  0  0  0
  191.4870  174.6220  137.4110 C   0  0  0  0  0  3  0  0  0  0  0  0
  193.7880  175.2670  137.8270 C   0  0  0  0  0  0  0  0  0  0  0  0
  191.9730  176.7890  138.3630 C   0  0  0  0  0  3  0  0  0  0  0  0
  195.1470  174.9490  137.7720 O   0  0  0  0  0  0  0  0  0  0  0  0
  197.2950  174.2630  138.5860 C   0  0  0  0  0  1  0  0  0  0  0  0
  195.7950  174.1780  138.7750 C   0  0  0  0  0  2  0  0  0  0  0  0
  188.6210  177.4640  142.7880 C   0  0  0  0  0  3  0  0  0  0  0  0
  188.7820  177.7620  140.2070 C   0  0  0  0  0  0  0  0  0  0  0  0
  188.6420  178.5070  139.0470 C   0  0  0  0  0  2  0  0  0  0  0  0
  188.7000  177.6160  141.4980 C   0  0  0  0  0  0  0  0  0  0  0  0
  189.1200  177.2190  138.8170 N   0  0  0  0  0  0  0  0  0  0  0  0
  187.4720  176.7250  143.3800 C   0  0  0  0  0  2  0  0  0  0  0  0
  184.0990  179.9430  144.8560 O   0  0  0  0  0  0  0  0  0  0  0  0
  186.4110  178.1230  146.8350 C   0  0  0  0  0  3  0  0  0  0  0  0
  185.7100  178.3690  144.0460 C   0  0  0  0  0  0  0  0  0  0  0  0
  187.3270  177.5590  145.7850 C   0  0  0  0  0  2  0  0  0  0  0  0
  185.3590  178.8730  146.5260 C   0  0  0  0  0  3  0  0  0  0  0  0
  185.0100  179.1150  145.1240 C   0  0  0  0  0  0  0  0  0  0  0  0
  186.7620  177.5810  144.3810 C   0  0  0  0  0  0  0  0  0  0  0  0
  185.1910  178.4640  142.6540 C   0  0  0  0  0  0  0  0  0  0  0  0
  185.6740  179.4560  141.7530 N   0  0  0  0  0  1  0  0  0  0  0  0
  184.2790  177.6860  142.2690 O   0  0  0  0  0  0  0  0  0  0  0  0
  187.4460  177.3580  135.4770 O   0  0  0  0  0  0  0  0  0  0  0  0
  186.7300  176.7540  136.3240 C   0  0  0  0  0  0  0  0  0  0  0  0
  187.3230  175.8070  137.2140 N   0  0  0  0  0  2  0  0  0  0  0  0
  184.4490  176.7690  135.3120 C   0  0  0  0  0  3  0  0  0  0  0  0
  184.7350  177.5720  137.5760 C   0  0  0  0  0  3  0  0  0  0  0  0
  182.5370  177.5750  136.5590 C   0  0  0  0  0  3  0  0  0  0  0  0
  185.2860  177.0350  136.4050 C   0  0  0  0  0  0  0  0  0  0  0  0
  183.3640  177.8410  137.6520 C   0  0  0  0  0  3  0  0  0  0  0  0
  183.0790  177.0400  135.3880 C   0  0  0  0  0  3  0  0  0  0  0  0
  1 30  1  0  0  0  0
  1  2  2  0  0  0  0
  2 16  1  0  0  0  0
  3  6  2  0  0  0  0
  3  7  1  0  0  0  0
  4  8  1  0  0  0  0
  5  2  1  0  0  0  0
  5  8  2  0  0  0  0
  6  5  1  0  0  0  0
  7  4  2  0  0  0  0
  9  7  1  0  0  0  0
  9 11  1  0  0  0  0
 10 11  1  0  0  0  0
 12 17  1  0  0  0  0
 13 15  2  0  0  0  0
 14 13  1  0  0  0  0
 15 12  2  0  0  0  0
 16 14  1  0  0  0  0
 16 13  1  0  0  0  0
 17 24  1  0  0  0  0
 18 23  2  0  0  0  0
 20 24  2  0  0  0  0
 20 23  1  0  0  0  0
 21 19  1  0  0  0  0
 22 19  2  0  0  0  0
 23 22  1  0  0  0  0
 24 21  1  0  0  0  0
 25 20  1  0  0  0  0
 26 25  1  0  0  0  0
 27 25  2  0  0  0  0
 28 29  2  0  0  0  0
 29 34  1  0  0  0  0
 29 30  1  0  0  0  0
 31 36  2  0  0  0  0
 31 34  1  0  0  0  0
 32 35  1  0  0  0  0
 33 35  2  0  0  0  0
 34 32  2  0  0  0  0
 36 33  1  0  0  0  0
M  END
>  <MODEL>
3

>  <REMARK>
 VINA RESULT:      -8.3      2.834      5.834
  Name = 
  9 active torsions:
  status: ('A' for Active; 'I' for Inactive)
    1  A    between atoms: C_3  and  C_33
    2  A    between atoms: C_7  and  C_12
    3  A    between atoms: C_13  and  N_30
    4  A    between atoms: C_14  and  O_15
    5  A    between atoms: O_15  and  C_22
    6  A    between atoms: C_16  and  C_31
    7  A    between atoms: C_19  and  C_24
    8  A    between atoms: C_31  and  N_32
    9  A    between atoms: C_33  and  C_34
                            x       y       z     vdW  Elec       q    Type
                         _______ _______ _______ _____ _____    ______ ____

>  <TORSDO>
F 9

$$$$
=
 OpenBabel10232411253D

 36 39  0  0  0  0  0  0  0  0999 V2000
  188.5270  175.6060  137.2890 C   0  0  0  0  0  3  0  0  0  0  0  0
  189.4260  176.2190  138.0620 C   0  0  0  0  0  0  0  0  0  0  0  0
  192.6480  174.3180  137.4090 C   0  0  0  0  0  3  0  0  0  0  0  0
  193.1950  176.5350  138.1990 C   0  0  0  0  0  3  0  0  0  0  0  0
  190.8650  175.8840  137.9520 C   0  0  0  0  0  0  0  0  0  0  0  0
  191.2870  174.6190  137.5070 C   0  0  0  0  0  3  0  0  0  0  0  0
  193.6100  175.2710  137.7520 C   0  0  0  0  0  0  0  0  0  0  0  0
  191.8350  176.8360  138.2980 C   0  0  0  0  0  3  0  0  0  0  0  0
  194.9620  174.9400  137.6390 O   0  0  0  0  0  0  0  0  0  0  0  0
  196.2140  174.5890  139.6540 C   0  0  0  0  0  1  0  0  0  0  0  0
  195.5760  173.9410  138.4420 C   0  0  0  0  0  2  0  0  0  0  0  0
  188.9680  177.3550  143.0080 C   0  0  0  0  0  3  0  0  0  0  0  0
  188.7960  177.7060  140.4350 C   0  0  0  0  0  0  0  0  0  0  0  0
  188.4670  178.4590  139.3180 C   0  0  0  0  0  2  0  0  0  0  0  0
  188.8810  177.5340  141.7220 C   0  0  0  0  0  0  0  0  0  0  0  0
  188.9990  177.2110  139.0010 N   0  0  0  0  0  0  0  0  0  0  0  0
  187.9510  176.5280  143.7150 C   0  0  0  0  0  2  0  0  0  0  0  0
  185.8090  179.2080  147.1980 O   0  0  0  0  0  0  0  0  0  0  0  0
  184.8170  178.8050  143.8180 C   0  0  0  0  0  3  0  0  0  0  0  0
  186.9320  177.8840  145.5520 C   0  0  0  0  0  0  0  0  0  0  0  0
  185.6920  177.6640  143.3820 C   0  0  0  0  0  2  0  0  0  0  0  0
  184.8750  179.3120  145.0450 C   0  0  0  0  0  3  0  0  0  0  0  0
  185.8660  178.8160  146.0030 C   0  0  0  0  0  0  0  0  0  0  0  0
  186.8770  177.4000  144.2860 C   0  0  0  0  0  0  0  0  0  0  0  0
  188.0510  177.5700  146.4810 C   0  0  0  0  0  0  0  0  0  0  0  0
  189.3510  178.1200  146.2850 N   0  0  0  0  0  1  0  0  0  0  0  0
  187.8690  176.7710  147.4370 O   0  0  0  0  0  0  0  0  0  0  0  0
  187.2400  177.6070  135.7630 O   0  0  0  0  0  0  0  0  0  0  0  0
  186.5370  176.9440  136.5760 C   0  0  0  0  0  0  0  0  0  0  0  0
  187.1380  175.9200  137.3710 N   0  0  0  0  0  2  0  0  0  0  0  0
  184.2040  176.8960  135.6920 C   0  0  0  0  0  3  0  0  0  0  0  0
  184.6130  177.8540  137.8750 C   0  0  0  0  0  3  0  0  0  0  0  0
  182.3620  177.7930  136.9840 C   0  0  0  0  0  3  0  0  0  0  0  0
  185.0990  177.2340  136.7160 C   0  0  0  0  0  0  0  0  0  0  0  0
  183.2480  178.1320  138.0080 C   0  0  0  0  0  3  0  0  0  0  0  0
  182.8390  177.1760  135.8250 C   0  0  0  0  0  3  0  0  0  0  0  0
  1 30  1  0  0  0  0
  1  2  2  0  0  0  0
  2 16  1  0  0  0  0
  3  6  2  0  0  0  0
  3  7  1  0  0  0  0
  4  8  1  0  0  0  0
  5  2  1  0  0  0  0
  5  8  2  0  0  0  0
  6  5  1  0  0  0  0
  7  4  2  0  0  0  0
  9  7  1  0  0  0  0
  9 11  1  0  0  0  0
 11 10  1  0  0  0  0
 12 17  1  0  0  0  0
 13 15  2  0  0  0  0
 14 13  1  0  0  0  0
 15 12  2  0  0  0  0
 16 14  1  0  0  0  0
 16 13  1  0  0  0  0
 17 24  1  0  0  0  0
 19 22  2  0  0  0  0
 20 23  1  0  0  0  0
 20 25  1  0  0  0  0
 21 19  1  0  0  0  0
 21 24  1  0  0  0  0
 22 23  1  0  0  0  0
 23 18  2  0  0  0  0
 24 20  2  0  0  0  0
 25 27  2  0  0  0  0
 26 25  1  0  0  0  0
 28 29  2  0  0  0  0
 29 34  1  0  0  0  0
 29 30  1  0  0  0  0
 31 36  2  0  0  0  0
 31 34  1  0  0  0  0
 32 35  1  0  0  0  0
 33 35  2  0  0  0  0
 34 32  2  0  0  0  0
 36 33  1  0  0  0  0
M  END
>  <MODEL>
4

>  <REMARK>
 VINA RESULT:      -8.2      2.805      6.258
  Name = 
  9 active torsions:
  status: ('A' for Active; 'I' for Inactive)
    1  A    between atoms: C_3  and  C_33
    2  A    between atoms: C_7  and  C_12
    3  A    between atoms: C_13  and  N_30
    4  A    between atoms: C_14  and  O_15
    5  A    between atoms: O_15  and  C_22
    6  A    between atoms: C_16  and  C_31
    7  A    between atoms: C_19  and  C_24
    8  A    between atoms: C_31  and  N_32
    9  A    between atoms: C_33  and  C_34
                            x       y       z     vdW  Elec       q    Type
                         _______ _______ _______ _____ _____    ______ ____

>  <TORSDO>
F 9

$$$$
=
 OpenBabel10232411253D

 36 39  0  0  0  0  0  0  0  0999 V2000
  186.7630  178.1520  142.5050 C   0  0  0  0  0  3  0  0  0  0  0  0
  188.0320  177.9340  142.1530 C   0  0  0  0  0  0  0  0  0  0  0  0
  189.7780  177.3760  145.4790 C   0  0  0  0  0  3  0  0  0  0  0  0
  191.1690  176.4990  143.7090 C   0  0  0  0  0  3  0  0  0  0  0  0
  189.0330  177.5260  143.1660 C   0  0  0  0  0  0  0  0  0  0  0  0
  188.8240  177.7670  144.5350 C   0  0  0  0  0  3  0  0  0  0  0  0
  190.9540  176.7400  145.0750 C   0  0  0  0  0  0  0  0  0  0  0  0
  190.2160  176.8890  142.7660 C   0  0  0  0  0  3  0  0  0  0  0  0
  191.8850  176.3580  146.0430 O   0  0  0  0  0  0  0  0  0  0  0  0
  192.7320  175.7880  148.2130 C   0  0  0  0  0  1  0  0  0  0  0  0
  191.6450  176.5030  147.4360 C   0  0  0  0  0  2  0  0  0  0  0  0
  186.5390  177.4890  137.3020 C   0  0  0  0  0  3  0  0  0  0  0  0
  188.1400  178.0120  139.2860 C   0  0  0  0  0  0  0  0  0  0  0  0
  189.3560  178.4310  139.8040 C   0  0  0  0  0  2  0  0  0  0  0  0
  187.3420  177.7520  138.2920 C   0  0  0  0  0  0  0  0  0  0  0  0
  188.4290  178.0880  140.7870 N   0  0  0  0  0  0  0  0  0  0  0  0
  186.3200  176.0790  136.8760 C   0  0  0  0  0  2  0  0  0  0  0  0
  182.4950  173.0450  137.1360 O   0  0  0  0  0  0  0  0  0  0  0  0
  182.5010  176.5880  137.2880 C   0  0  0  0  0  3  0  0  0  0  0  0
  184.4260  174.4540  137.0170 C   0  0  0  0  0  0  0  0  0  0  0  0
  183.9080  176.9040  136.8650 C   0  0  0  0  0  2  0  0  0  0  0  0
  182.0590  175.3390  137.3940 C   0  0  0  0  0  3  0  0  0  0  0  0
  182.9680  174.2120  137.1710 C   0  0  0  0  0  0  0  0  0  0  0  0
  184.8660  175.7340  136.9420 C   0  0  0  0  0  0  0  0  0  0  0  0
  185.3510  173.2880  137.0150 C   0  0  0  0  0  0  0  0  0  0  0  0
  185.7810  172.6900  135.7950 N   0  0  0  0  0  1  0  0  0  0  0  0
  185.7320  172.7850  138.1040 O   0  0  0  0  0  0  0  0  0  0  0  0
  183.9760  178.1430  142.9690 O   0  0  0  0  0  0  0  0  0  0  0  0
  184.3810  178.5120  141.8310 C   0  0  0  0  0  0  0  0  0  0  0  0
  185.7810  178.5370  141.5440 N   0  0  0  0  0  2  0  0  0  0  0  0
  183.8450  179.5370  139.6190 C   0  0  0  0  0  3  0  0  0  0  0  0
  182.0440  178.6520  140.9710 C   0  0  0  0  0  3  0  0  0  0  0  0
  181.5620  179.6570  138.8210 C   0  0  0  0  0  3  0  0  0  0  0  0
  183.4120  178.9050  140.7930 C   0  0  0  0  0  0  0  0  0  0  0  0
  181.1230  179.0270  139.9880 C   0  0  0  0  0  3  0  0  0  0  0  0
  182.9230  179.9120  138.6370 C   0  0  0  0  0  3  0  0  0  0  0  0
  2  1  2  0  0  0  0
  2  5  1  0  0  0  0
  4  7  2  0  0  0  0
  5  6  1  0  0  0  0
  6  3  2  0  0  0  0
  7  3  1  0  0  0  0
  7  9  1  0  0  0  0
  8  5  2  0  0  0  0
  8  4  1  0  0  0  0
  9 11  1  0  0  0  0
 11 10  1  0  0  0  0
 12 15  2  0  0  0  0
 13 14  1  0  0  0  0
 13 16  1  0  0  0  0
 14 16  1  0  0  0  0
 15 13  2  0  0  0  0
 16  2  1  0  0  0  0
 17 24  1  0  0  0  0
 17 12  1  0  0  0  0
 18 23  2  0  0  0  0
 19 22  2  0  0  0  0
 20 23  1  0  0  0  0
 21 24  1  0  0  0  0
 21 19  1  0  0  0  0
 23 22  1  0  0  0  0
 24 20  2  0  0  0  0
 25 20  1  0  0  0  0
 25 27  2  0  0  0  0
 26 25  1  0  0  0  0
 29 28  2  0  0  0  0
 30 29  1  0  0  0  0
 30  1  1  0  0  0  0
 31 34  1  0  0  0  0
 33 35  2  0  0  0  0
 34 32  2  0  0  0  0
 34 29  1  0  0  0  0
 35 32  1  0  0  0  0
 36 33  1  0  0  0  0
 36 31  2  0  0  0  0
M  END
>  <MODEL>
5

>  <REMARK>
 VINA RESULT:      -8.0      3.313      7.128
  Name = 
  9 active torsions:
  status: ('A' for Active; 'I' for Inactive)
    1  A    between atoms: C_3  and  C_33
    2  A    between atoms: C_7  and  C_12
    3  A    between atoms: C_13  and  N_30
    4  A    between atoms: C_14  and  O_15
    5  A    between atoms: O_15  and  C_22
    6  A    between atoms: C_16  and  C_31
    7  A    between atoms: C_19  and  C_24
    8  A    between atoms: C_31  and  N_32
    9  A    between atoms: C_33  and  C_34
                            x       y       z     vdW  Elec       q    Type
                         _______ _______ _______ _____ _____    ______ ____

>  <TORSDO>
F 9

$$$$
=
 OpenBabel10232411253D

 36 39  0  0  0  0  0  0  0  0999 V2000
  185.2400  178.1640  143.2780 C   0  0  0  0  0  3  0  0  0  0  0  0
  185.4470  178.4460  141.9900 C   0  0  0  0  0  0  0  0  0  0  0  0
  183.4200  179.4230  138.9310 C   0  0  0  0  0  3  0  0  0  0  0  0
  181.9040  178.8100  140.7100 C   0  0  0  0  0  3  0  0  0  0  0  0
  184.3050  178.7240  141.0890 C   0  0  0  0  0  0  0  0  0  0  0  0
  184.5080  179.1640  139.7700 C   0  0  0  0  0  3  0  0  0  0  0  0
  182.1140  179.2470  139.3940 C   0  0  0  0  0  0  0  0  0  0  0  0
  182.9910  178.5520  141.5480 C   0  0  0  0  0  3  0  0  0  0  0  0
  181.0480  179.5100  138.5300 O   0  0  0  0  0  0  0  0  0  0  0  0
  180.8830  181.8840  138.2410 C   0  0  0  0  0  1  0  0  0  0  0  0
  181.0860  180.5470  137.5590 C   0  0  0  0  0  2  0  0  0  0  0  0
  188.3480  177.7460  137.8600 C   0  0  0  0  0  3  0  0  0  0  0  0
  187.7890  178.3230  140.3360 C   0  0  0  0  0  0  0  0  0  0  0  0
  188.1500  178.7160  141.6160 C   0  0  0  0  0  2  0  0  0  0  0  0
  188.0720  178.0350  139.0990 C   0  0  0  0  0  0  0  0  0  0  0  0
  186.7820  178.4870  141.4760 N   0  0  0  0  0  0  0  0  0  0  0  0
  188.4340  176.3220  137.4310 C   0  0  0  0  0  2  0  0  0  0  0  0
  192.0780  173.1710  136.5960 O   0  0  0  0  0  0  0  0  0  0  0  0
  192.2840  176.4860  137.8390 C   0  0  0  0  0  3  0  0  0  0  0  0
  190.2350  174.6540  136.9580 C   0  0  0  0  0  0  0  0  0  0  0  0
  190.8410  176.7870  138.1310 C   0  0  0  0  0  2  0  0  0  0  0  0
  192.6730  175.3240  137.3230 C   0  0  0  0  0  3  0  0  0  0  0  0
  191.6810  174.3140  136.9470 C   0  0  0  0  0  0  0  0  0  0  0  0
  189.8550  175.8560  137.4580 C   0  0  0  0  0  0  0  0  0  0  0  0
  189.2670  173.6920  136.3650 C   0  0  0  0  0  0  0  0  0  0  0  0
  188.9320  173.7410  134.9800 N   0  0  0  0  0  1  0  0  0  0  0  0
  188.6940  172.8430  137.0970 O   0  0  0  0  0  0  0  0  0  0  0  0
  185.3150  178.9420  145.9940 O   0  0  0  0  0  0  0  0  0  0  0  0
  186.3130  178.3210  145.5330 C   0  0  0  0  0  0  0  0  0  0  0  0
  186.3260  177.9030  144.1670 N   0  0  0  0  0  2  0  0  0  0  0  0
  187.4110  178.3040  147.7740 C   0  0  0  0  0  3  0  0  0  0  0  0
  188.6450  177.4990  145.8560 C   0  0  0  0  0  3  0  0  0  0  0  0
  189.6790  177.5000  148.0460 C   0  0  0  0  0  3  0  0  0  0  0  0
  187.4700  178.0370  146.3990 C   0  0  0  0  0  0  0  0  0  0  0  0
  189.7460  177.2320  146.6760 C   0  0  0  0  0  3  0  0  0  0  0  0
  188.5120  178.0370  148.5950 C   0  0  0  0  0  3  0  0  0  0  0  0
  1 30  1  0  0  0  0
  2  1  2  0  0  0  0
  3  7  2  0  0  0  0
  3  6  1  0  0  0  0
  4  8  2  0  0  0  0
  5  8  1  0  0  0  0
  5  2  1  0  0  0  0
  6  5  2  0  0  0  0
  7  4  1  0  0  0  0
  9  7  1  0  0  0  0
 11 10  1  0  0  0  0
 11  9  1  0  0  0  0
 12 15  2  0  0  0  0
 13 16  1  0  0  0  0
 13 14  1  0  0  0  0
 15 13  2  0  0  0  0
 16 14  1  0  0  0  0
 16  2  1  0  0  0  0
 17 24  1  0  0  0  0
 17 12  1  0  0  0  0
 18 23  2  0  0  0  0
 19 21  1  0  0  0  0
 20 24  2  0  0  0  0
 22 19  2  0  0  0  0
 23 20  1  0  0  0  0
 23 22  1  0  0  0  0
 24 21  1  0  0  0  0
 25 20  1  0  0  0  0
 25 27  2  0  0  0  0
 26 25  1  0  0  0  0
 29 28  2  0  0  0  0
 29 34  1  0  0  0  0
 30 29  1  0  0  0  0
 31 36  1  0  0  0  0
 32 34  1  0  0  0  0
 32 35  2  0  0  0  0
 33 36  2  0  0  0  0
 34 31  2  0  0  0  0
 35 33  1  0  0  0  0
M  END
>  <MODEL>
6

>  <REMARK>
 VINA RESULT:      -7.9      2.576      8.461
  Name = 
  9 active torsions:
  status: ('A' for Active; 'I' for Inactive)
    1  A    between atoms: C_3  and  C_33
    2  A    between atoms: C_7  and  C_12
    3  A    between atoms: C_13  and  N_30
    4  A    between atoms: C_14  and  O_15
    5  A    between atoms: O_15  and  C_22
    6  A    between atoms: C_16  and  C_31
    7  A    between atoms: C_19  and  C_24
    8  A    between atoms: C_31  and  N_32
    9  A    between atoms: C_33  and  C_34
                            x       y       z     vdW  Elec       q    Type
                         _______ _______ _______ _____ _____    ______ ____

>  <TORSDO>
F 9

$$$$
=
 OpenBabel10232411253D

 36 39  0  0  0  0  0  0  0  0999 V2000
  185.2750  178.3640  143.3080 C   0  0  0  0  0  3  0  0  0  0  0  0
  185.4310  178.5030  141.9900 C   0  0  0  0  0  0  0  0  0  0  0  0
  181.8610  178.7110  140.7110 C   0  0  0  0  0  3  0  0  0  0  0  0
  183.3540  179.5420  139.0020 C   0  0  0  0  0  3  0  0  0  0  0  0
  184.2610  178.7580  141.1170 C   0  0  0  0  0  0  0  0  0  0  0  0
  182.9550  178.4660  141.5460 C   0  0  0  0  0  3  0  0  0  0  0  0
  182.0520  179.2510  139.4370 C   0  0  0  0  0  0  0  0  0  0  0  0
  184.4470  179.2970  139.8370 C   0  0  0  0  0  3  0  0  0  0  0  0
  180.9380  179.4880  138.6280 O   0  0  0  0  0  0  0  0  0  0  0  0
  180.5020  177.5040  137.3550 C   0  0  0  0  0  1  0  0  0  0  0  0
  180.8310  178.9810  137.3040 C   0  0  0  0  0  2  0  0  0  0  0  0
  188.0490  177.8260  137.6720 C   0  0  0  0  0  3  0  0  0  0  0  0
  187.6700  178.2280  140.2150 C   0  0  0  0  0  0  0  0  0  0  0  0
  188.1290  178.4400  141.5060 C   0  0  0  0  0  2  0  0  0  0  0  0
  187.8630  178.0270  138.9440 C   0  0  0  0  0  0  0  0  0  0  0  0
  186.7390  178.4140  141.4150 N   0  0  0  0  0  0  0  0  0  0  0  0
  187.9200  176.4530  137.1090 C   0  0  0  0  0  2  0  0  0  0  0  0
  184.1120  173.6480  135.8740 O   0  0  0  0  0  0  0  0  0  0  0  0
  184.1820  177.1580  136.3680 C   0  0  0  0  0  3  0  0  0  0  0  0
  186.0260  174.9410  136.4970 C   0  0  0  0  0  0  0  0  0  0  0  0
  185.6600  177.4220  136.4340 C   0  0  0  0  0  2  0  0  0  0  0  0
  183.6900  175.9340  136.2090 C   0  0  0  0  0  3  0  0  0  0  0  0
  184.5860  174.7760  136.1680 C   0  0  0  0  0  0  0  0  0  0  0  0
  186.5080  176.1940  136.6890 C   0  0  0  0  0  0  0  0  0  0  0  0
  186.8670  173.7250  136.6660 C   0  0  0  0  0  0  0  0  0  0  0  0
  187.7380  173.2800  135.6290 N   0  0  0  0  0  1  0  0  0  0  0  0
  186.7850  173.0440  137.7220 O   0  0  0  0  0  0  0  0  0  0  0  0
  185.1880  178.5330  146.1270 O   0  0  0  0  0  0  0  0  0  0  0  0
  186.2890  178.2280  145.5910 C   0  0  0  0  0  0  0  0  0  0  0  0
  186.3880  178.1270  144.1690 N   0  0  0  0  0  2  0  0  0  0  0  0
  187.4440  178.2620  147.8030 C   0  0  0  0  0  3  0  0  0  0  0  0
  188.6560  177.4880  145.8580 C   0  0  0  0  0  3  0  0  0  0  0  0
  189.7450  177.5380  148.0200 C   0  0  0  0  0  3  0  0  0  0  0  0
  187.4780  177.9890  146.4280 C   0  0  0  0  0  0  0  0  0  0  0  0
  189.7850  177.2640  146.6510 C   0  0  0  0  0  3  0  0  0  0  0  0
  188.5740  178.0380  148.5960 C   0  0  0  0  0  3  0  0  0  0  0  0
  1 30  1  0  0  0  0
  2  1  2  0  0  0  0
  3  6  1  0  0  0  0
  4  7  1  0  0  0  0
  4  8  2  0  0  0  0
  5  6  2  0  0  0  0
  5  2  1  0  0  0  0
  7  3  2  0  0  0  0
  8  5  1  0  0  0  0
  9  7  1  0  0  0  0
 11 10  1  0  0  0  0
 11  9  1  0  0  0  0
 12 15  2  0  0  0  0
 13 16  1  0  0  0  0
 13 14  1  0  0  0  0
 15 13  2  0  0  0  0
 16 14  1  0  0  0  0
 16  2  1  0  0  0  0
 17 12  1  0  0  0  0
 18 23  2  0  0  0  0
 19 21  1  0  0  0  0
 20 25  1  0  0  0  0
 20 24  2  0  0  0  0
 21 24  1  0  0  0  0
 22 19  2  0  0  0  0
 23 22  1  0  0  0  0
 23 20  1  0  0  0  0
 24 17  1  0  0  0  0
 25 27  2  0  0  0  0
 26 25  1  0  0  0  0
 29 28  2  0  0  0  0
 29 34  1  0  0  0  0
 30 29  1  0  0  0  0
 31 36  1  0  0  0  0
 32 34  1  0  0  0  0
 32 35  2  0  0  0  0
 33 36  2  0  0  0  0
 34 31  2  0  0  0  0
 35 33  1  0  0  0  0
M  END
>  <MODEL>
7

>  <REMARK>
 VINA RESULT:      -7.9      3.422      7.411
  Name = 
  9 active torsions:
  status: ('A' for Active; 'I' for Inactive)
    1  A    between atoms: C_3  and  C_33
    2  A    between atoms: C_7  and  C_12
    3  A    between atoms: C_13  and  N_30
    4  A    between atoms: C_14  and  O_15
    5  A    between atoms: O_15  and  C_22
    6  A    between atoms: C_16  and  C_31
    7  A    between atoms: C_19  and  C_24
    8  A    between atoms: C_31  and  N_32
    9  A    between atoms: C_33  and  C_34
                            x       y       z     vdW  Elec       q    Type
                         _______ _______ _______ _____ _____    ______ ____

>  <TORSDO>
F 9

$$$$
=
 OpenBabel10232411253D

 36 39  0  0  0  0  0  0  0  0999 V2000
  185.6640  177.9620  144.5580 C   0  0  0  0  0  3  0  0  0  0  0  0
  186.9130  177.8900  144.0940 C   0  0  0  0  0  0  0  0  0  0  0  0
  190.3710  177.0360  145.4120 C   0  0  0  0  0  3  0  0  0  0  0  0
  188.9130  177.4990  147.2830 C   0  0  0  0  0  3  0  0  0  0  0  0
  188.0440  177.6320  145.0160 C   0  0  0  0  0  0  0  0  0  0  0  0
  189.3140  177.2760  144.5300 C   0  0  0  0  0  3  0  0  0  0  0  0
  190.1800  177.1460  146.7910 C   0  0  0  0  0  0  0  0  0  0  0  0
  187.8570  177.7390  146.4010 C   0  0  0  0  0  3  0  0  0  0  0  0
  191.2570  176.9040  147.6470 O   0  0  0  0  0  0  0  0  0  0  0  0
  193.1250  175.7620  148.6230 C   0  0  0  0  0  1  0  0  0  0  0  0
  192.1390  175.8020  147.4750 C   0  0  0  0  0  2  0  0  0  0  0  0
  184.8510  179.1610  139.6120 C   0  0  0  0  0  3  0  0  0  0  0  0
  186.7020  178.4100  141.2790 C   0  0  0  0  0  0  0  0  0  0  0  0
  188.0020  178.0340  141.5810 C   0  0  0  0  0  2  0  0  0  0  0  0
  185.7790  178.7860  140.4430 C   0  0  0  0  0  0  0  0  0  0  0  0
  187.1630  178.0550  142.6940 N   0  0  0  0  0  0  0  0  0  0  0  0
  183.8510  178.1740  139.1180 C   0  0  0  0  0  2  0  0  0  0  0  0
  180.2210  178.4680  135.8560 O   0  0  0  0  0  0  0  0  0  0  0  0
  181.3150  180.9400  138.1500 C   0  0  0  0  0  3  0  0  0  0  0  0
  182.0030  178.2300  137.4350 C   0  0  0  0  0  0  0  0  0  0  0  0
  182.6080  180.3480  138.6360 C   0  0  0  0  0  2  0  0  0  0  0  0
  180.5400  180.3180  137.2700 C   0  0  0  0  0  3  0  0  0  0  0  0
  180.8900  178.9770  136.7940 C   0  0  0  0  0  0  0  0  0  0  0  0
  182.7660  178.8680  138.3560 C   0  0  0  0  0  0  0  0  0  0  0  0
  182.1970  176.7950  137.0900 C   0  0  0  0  0  0  0  0  0  0  0  0
  181.5180  175.7660  137.8040 N   0  0  0  0  0  1  0  0  0  0  0  0
  183.0060  176.4710  136.1810 O   0  0  0  0  0  0  0  0  0  0  0  0
  183.1880  179.0550  145.3690 O   0  0  0  0  0  0  0  0  0  0  0  0
  183.3260  178.7540  144.1510 C   0  0  0  0  0  0  0  0  0  0  0  0
  184.5590  178.1990  143.6870 N   0  0  0  0  0  2  0  0  0  0  0  0
  181.2120  179.9020  143.4860 C   0  0  0  0  0  3  0  0  0  0  0  0
  182.1440  178.2170  142.0220 C   0  0  0  0  0  3  0  0  0  0  0  0
  180.0920  179.3500  141.4110 C   0  0  0  0  0  3  0  0  0  0  0  0
  182.2140  178.9610  143.2070 C   0  0  0  0  0  0  0  0  0  0  0  0
  181.0860  178.4110  141.1270 C   0  0  0  0  0  3  0  0  0  0  0  0
  180.1550  180.0950  142.5910 C   0  0  0  0  0  3  0  0  0  0  0  0
  2  1  2  0  0  0  0
  2  5  1  0  0  0  0
  3  7  1  0  0  0  0
  5  8  2  0  0  0  0
  6  5  1  0  0  0  0
  6  3  2  0  0  0  0
  7  4  2  0  0  0  0
  7  9  1  0  0  0  0
  8  4  1  0  0  0  0
 11  9  1  0  0  0  0
 11 10  1  0  0  0  0
 12 15  2  0  0  0  0
 13 14  1  0  0  0  0
 13 16  1  0  0  0  0
 14 16  1  0  0  0  0
 15 13  2  0  0  0  0
 16  2  1  0  0  0  0
 17 12  1  0  0  0  0
 18 23  2  0  0  0  0
 19 21  1  0  0  0  0
 20 24  2  0  0  0  0
 22 19  2  0  0  0  0
 23 22  1  0  0  0  0
 23 20  1  0  0  0  0
 24 21  1  0  0  0  0
 24 17  1  0  0  0  0
 25 20  1  0  0  0  0
 25 26  1  0  0  0  0
 27 25  2  0  0  0  0
 29 28  2  0  0  0  0
 30 29  1  0  0  0  0
 30  1  1  0  0  0  0
 32 34  2  0  0  0  0
 33 36  1  0  0  0  0
 34 31  1  0  0  0  0
 34 29  1  0  0  0  0
 35 33  2  0  0  0  0
 35 32  1  0  0  0  0
 36 31  2  0  0  0  0
M  END
>  <MODEL>
8

>  <REMARK>
 VINA RESULT:      -7.9      4.118      7.026
  Name = 
  9 active torsions:
  status: ('A' for Active; 'I' for Inactive)
    1  A    between atoms: C_3  and  C_33
    2  A    between atoms: C_7  and  C_12
    3  A    between atoms: C_13  and  N_30
    4  A    between atoms: C_14  and  O_15
    5  A    between atoms: O_15  and  C_22
    6  A    between atoms: C_16  and  C_31
    7  A    between atoms: C_19  and  C_24
    8  A    between atoms: C_31  and  N_32
    9  A    between atoms: C_33  and  C_34
                            x       y       z     vdW  Elec       q    Type
                         _______ _______ _______ _____ _____    ______ ____

>  <TORSDO>
F 9

$$$$
=
 OpenBabel10232411253D

 36 39  0  0  0  0  0  0  0  0999 V2000
  186.0140  177.7900  144.1490 C   0  0  0  0  0  3  0  0  0  0  0  0
  187.2060  177.9070  143.5610 C   0  0  0  0  0  0  0  0  0  0  0  0
  190.8140  177.0820  144.4100 C   0  0  0  0  0  3  0  0  0  0  0  0
  189.6070  177.5100  146.4590 C   0  0  0  0  0  3  0  0  0  0  0  0
  188.4490  177.6540  144.3260 C   0  0  0  0  0  0  0  0  0  0  0  0
  189.6490  177.3180  143.6750 C   0  0  0  0  0  3  0  0  0  0  0  0
  190.8020  177.1770  145.8040 C   0  0  0  0  0  0  0  0  0  0  0  0
  188.4430  177.7460  145.7250 C   0  0  0  0  0  3  0  0  0  0  0  0
  191.9840  176.9390  146.5100 O   0  0  0  0  0  0  0  0  0  0  0  0
  192.7260  175.7820  148.4740 C   0  0  0  0  0  1  0  0  0  0  0  0
  192.3270  175.6570  147.0180 C   0  0  0  0  0  2  0  0  0  0  0  0
  189.1770  176.6750  139.0270 C   0  0  0  0  0  3  0  0  0  0  0  0
  187.7920  178.0430  140.7550 C   0  0  0  0  0  0  0  0  0  0  0  0
  186.9580  179.0940  141.1020 C   0  0  0  0  0  2  0  0  0  0  0  0
  188.4830  177.3620  139.8880 C   0  0  0  0  0  0  0  0  0  0  0  0
  187.2850  178.2740  142.1800 N   0  0  0  0  0  0  0  0  0  0  0  0
  190.6540  176.8470  138.9560 C   0  0  0  0  0  2  0  0  0  0  0  0
  194.0500  175.7910  135.6010 O   0  0  0  0  0  0  0  0  0  0  0  0
  190.5300  175.9290  135.1930 C   0  0  0  0  0  3  0  0  0  0  0  0
  192.4560  176.3020  137.3100 C   0  0  0  0  0  0  0  0  0  0  0  0
  190.1040  176.5760  136.4810 C   0  0  0  0  0  2  0  0  0  0  0  0
  191.8030  175.6600  134.9260 C   0  0  0  0  0  3  0  0  0  0  0  0
  192.8400  175.9190  135.9270 C   0  0  0  0  0  0  0  0  0  0  0  0
  191.1480  176.5430  137.5770 C   0  0  0  0  0  0  0  0  0  0  0  0
  193.5080  176.3430  138.3620 C   0  0  0  0  0  0  0  0  0  0  0  0
  194.3420  175.2160  138.6170 N   0  0  0  0  0  1  0  0  0  0  0  0
  193.6440  177.3720  139.0760 O   0  0  0  0  0  0  0  0  0  0  0  0
  183.7520  179.1200  145.1970 O   0  0  0  0  0  0  0  0  0  0  0  0
  183.6860  178.6970  144.0090 C   0  0  0  0  0  0  0  0  0  0  0  0
  184.8030  178.0190  143.4300 N   0  0  0  0  0  2  0  0  0  0  0  0
  181.2400  179.1720  143.8630 C   0  0  0  0  0  3  0  0  0  0  0  0
  182.4870  178.7930  141.8250 C   0  0  0  0  0  3  0  0  0  0  0  0
  180.1120  179.2520  141.7220 C   0  0  0  0  0  3  0  0  0  0  0  0
  182.4560  178.8910  143.2220 C   0  0  0  0  0  0  0  0  0  0  0  0
  181.3190  178.9730  141.0770 C   0  0  0  0  0  3  0  0  0  0  0  0
  180.0720  179.3510  143.1150 C   0  0  0  0  0  3  0  0  0  0  0  0
  2  1  2  0  0  0  0
  2  5  1  0  0  0  0
  3  7  1  0  0  0  0
  5  8  2  0  0  0  0
  6  5  1  0  0  0  0
  6  3  2  0  0  0  0
  7  4  2  0  0  0  0
  7  9  1  0  0  0  0
  8  4  1  0  0  0  0
  9 11  1  0  0  0  0
 11 10  1  0  0  0  0
 12 15  2  0  0  0  0
 13 14  1  0  0  0  0
 13 16  1  0  0  0  0
 14 16  1  0  0  0  0
 15 13  2  0  0  0  0
 16  2  1  0  0  0  0
 17 12  1  0  0  0  0
 18 23  2  0  0  0  0
 19 21  1  0  0  0  0
 20 24  2  0  0  0  0
 20 25  1  0  0  0  0
 21 24  1  0  0  0  0
 22 19  2  0  0  0  0
 22 23  1  0  0  0  0
 23 20  1  0  0  0  0
 24 17  1  0  0  0  0
 25 26  1  0  0  0  0
 25 27  2  0  0  0  0
 29 28  2  0  0  0  0
 30 29  1  0  0  0  0
 30  1  1  0  0  0  0
 32 34  2  0  0  0  0
 33 36  1  0  0  0  0
 34 31  1  0  0  0  0
 34 29  1  0  0  0  0
 35 33  2  0  0  0  0
 35 32  1  0  0  0  0
 36 31  2  0  0  0  0
M  END
>  <MODEL>
9

>  <REMARK>
 VINA RESULT:      -7.8      2.248      8.876
  Name = 
  9 active torsions:
  status: ('A' for Active; 'I' for Inactive)
    1  A    between atoms: C_3  and  C_33
    2  A    between atoms: C_7  and  C_12
    3  A    between atoms: C_13  and  N_30
    4  A    between atoms: C_14  and  O_15
    5  A    between atoms: O_15  and  C_22
    6  A    between atoms: C_16  and  C_31
    7  A    between atoms: C_19  and  C_24
    8  A    between atoms: C_31  and  N_32
    9  A    between atoms: C_33  and  C_34
                            x       y       z     vdW  Elec       q    Type
                         _______ _______ _______ _____ _____    ______ ____

>  <TORSDO>
F 9

$$$$
