=
 OpenBabel10222421273D

 69 73  0  0  1  0  0  0  0  0999 V2000
  188.3860  174.9130  137.1500 C   0  0  0  0  0  0  0  0  0  0  0  0
  188.2750  176.2960  137.3960 C   0  0  0  0  0  3  0  0  0  0  0  0
  185.9620  174.8000  136.9190 C   0  0  0  0  0  3  0  0  0  0  0  0
  187.2170  174.1680  136.9060 C   0  0  0  0  0  3  0  0  0  0  0  0
  185.8550  176.1600  137.1770 C   0  0  0  0  0  0  0  0  0  0  0  0
  187.0200  176.9110  137.4190 C   0  0  0  0  0  0  0  0  0  0  0  0
  186.9720  178.4040  137.6400 C   0  0  0  0  0  1  0  0  0  0  0  0
  190.6390  174.5930  137.9130 O   0  0  0  0  0  1  0  0  0  0  0  0
  189.7320  174.2580  136.9000 C   0  0  2  0  0  3  0  0  0  0  0  0
  190.7360  173.5150  134.8030 C   0  0  0  0  0  2  0  0  0  0  0  0
  190.3350  174.5330  135.5470 C   0  0  0  0  0  0  0  0  0  0  0  0
  190.9570  175.8010  135.3030 N   0  0  0  0  0  2  0  0  0  0  0  0
  194.3540  174.5400  135.0420 N   0  0  0  0  0  0  0  0  0  0  0  0
  192.4280  175.8900  135.2220 C   0  0  1  0  0  3  0  0  0  0  0  0
  194.3980  175.2110  136.3540 C   0  0  0  0  0  2  0  0  0  0  0  0
  193.0290  175.7900  136.6090 C   0  0  0  0  0  2  0  0  0  0  0  0
  193.0170  174.7110  134.4930 C   0  0  0  0  0  2  0  0  0  0  0  0
  194.6060  173.0960  135.1510 C   0  0  2  0  0  3  0  0  0  0  0  0
  193.4420  172.3320  134.8770 O   0  0  0  0  0  0  0  0  0  0  0  0
  193.3550  171.2790  135.8170 C   0  0  0  0  0  2  0  0  0  0  0  0
  191.9910  169.3650  135.0040 C   0  0  0  0  0  1  0  0  0  0  0  0
  193.3910  169.9300  135.0980 C   0  0  2  0  0  3  0  0  0  0  0  0
  193.6250  168.4090  137.0660 C   0  0  0  0  0  1  0  0  0  0  0  0
  194.3160  168.9400  135.8170 C   0  0  0  0  0  2  0  0  0  0  0  0
  195.2700  172.7960  136.5080 C   0  0  0  0  0  2  0  0  0  0  0  0
  197.6520  172.8390  136.9450 C   0  0  0  0  0  0  0  0  0  0  0  0
  197.4870  173.8990  137.9860 C   0  0  0  0  0  1  0  0  0  0  0  0
  196.6400  172.3560  136.2900 N   0  0  0  0  0  0  0  0  0  0  0  0
  199.0170  172.3000  136.6660 C   0  0  0  0  0  2  0  0  0  0  0  0
  198.9340  170.8810  136.3640 N   0  0  0  0  0  0  0  0  0  0  0  0
  199.5660  168.6470  137.2330 C   0  0  0  0  0  2  0  0  0  0  0  0
  199.8560  169.1740  134.7840 C   0  0  0  0  0  2  0  0  0  0  0  0
  199.6750  170.6740  135.1250 C   0  0  0  0  0  2  0  0  0  0  0  0
  199.6020  170.1690  137.4630 C   0  0  0  0  0  2  0  0  0  0  0  0
  199.1460  168.2740  135.8060 C   0  0  0  0  0  2  0  0  0  0  0  0
  184.5210  177.8560  136.1080 O   0  0  0  0  0  1  0  0  0  0  0  0
  184.5150  176.8500  137.0690 C   0  0  2  0  0  3  0  0  0  0  0  0
  183.4840  176.4940  139.1700 O   0  0  0  0  0  0  0  0  0  0  0  0
  183.9440  177.3090  138.3810 C   0  0  0  0  0  0  0  0  0  0  0  0
  183.6170  178.7520  138.5600 C   0  0  0  0  0  2  0  0  0  0  0  0
  184.2310  179.2390  139.8690 C   0  0  0  0  0  3  0  0  0  0  0  0
  183.7040  178.5710  141.1410 C   0  0  0  0  0  3  0  0  0  0  0  0
  184.4400  178.7940  142.4670 C   0  0  2  0  0  0  0  0  0  0  0  0
  183.4710  179.0650  143.6060 C   0  0  0  0  0  1  0  0  0  0  0  0
  185.3040  179.8950  142.3000 O   0  0  0  0  0  1  0  0  0  0  0  0
  185.1840  177.5500  142.7790 N   0  0  0  0  0  2  0  0  0  0  0  0
  186.0640  177.6720  143.9520 C   0  0  1  0  0  3  0  0  0  0  0  0
  185.4610  177.0300  145.0610 O   0  0  0  0  0  0  0  0  0  0  0  0
  185.5690  177.8620  146.2050 C   0  0  1  0  0  3  0  0  0  0  0  0
  186.5520  177.2980  147.2620 C   0  0  0  0  0  2  0  0  0  0  0  0
  185.8100  179.3440  145.8210 C   0  0  0  0  0  2  0  0  0  0  0  0
  188.3570  177.7500  148.6980 C   0  0  0  0  0  1  0  0  0  0  0  0
  187.5410  178.3090  147.6390 N   0  0  0  0  0  0  0  0  0  0  0  0
  186.7980  179.4380  148.1710 C   0  0  0  0  0  2  0  0  0  0  0  0
  186.1100  180.2190  147.0480 C   0  0  0  0  0  2  0  0  0  0  0  0
  187.3950  176.9880  143.6360 C   0  0  0  0  0  2  0  0  0  0  0  0
  187.5130  178.3870  141.6610 O   0  0  0  0  0  1  0  0  0  0  0  0
  188.2890  177.8680  142.7260 C   0  0  2  0  0  3  0  0  0  0  0  0
  189.4060  177.1300  142.2590 O   0  0  0  0  0  0  0  0  0  0  0  0
  190.4960  178.0060  142.1100 C   0  0  2  0  0  3  0  0  0  0  0  0
  190.6650  177.7420  139.7490 C   0  0  0  0  0  2  0  0  0  0  0  0
  191.3710  177.4920  141.0300 N   0  0  0  0  0  0  0  0  0  0  0  0
  190.6260  176.4150  140.3560 C   0  0  0  0  0  2  0  0  0  0  0  0
  191.2840  178.1830  143.4210 C   0  0  0  0  0  2  0  0  0  0  0  0
  191.9830  175.9200  143.7320 O   0  0  0  0  0  0  0  0  0  0  0  0
  191.4230  176.9000  144.1970 C   0  0  0  0  0  0  0  0  0  0  0  0
  190.1750  178.0690  145.8230 O   0  0  0  0  0  1  0  0  0  0  0  0
  190.8500  176.8660  145.5780 C   0  0  2  0  0  3  0  0  0  0  0  0
  191.9060  176.6720  146.5660 N   0  0  0  0  0  1  0  0  0  0  0  0
  1  2  1  0  0  0  0
  2  6  2  0  0  0  0
  3  5  2  0  0  0  0
  4  3  1  0  0  0  0
  4  1  2  0  0  0  0
  5  6  1  0  0  0  0
  6  7  1  0  0  0  0
  9  1  1  0  0  0  0
  9  8  1  1  0  0  0
 10 11  2  0  0  0  0
 11  9  1  0  0  0  0
 12 11  1  0  0  0  0
 13 18  1  0  0  0  0
 13 15  1  0  0  0  0
 14 12  1  1  0  0  0
 14 16  1  0  0  0  0
 15 16  1  0  0  0  0
 17 13  1  0  0  0  0
 17 14  1  0  0  0  0
 18 25  1  1  0  0  0
 19 18  1  0  0  0  0
 19 20  1  0  0  0  0
 22 21  1  1  0  0  0
 22 24  1  0  0  0  0
 22 20  1  0  0  0  0
 24 23  1  0  0  0  0
 26 27  1  0  0  0  0
 28 25  1  0  0  0  0
 28 26  2  0  0  0  0
 29 26  1  0  0  0  0
 30 29  1  0  0  0  0
 30 34  1  0  0  0  0
 31 34  1  0  0  0  0
 32 33  1  0  0  0  0
 32 35  1  0  0  0  0
 33 30  1  0  0  0  0
 35 31  1  0  0  0  0
 37 36  1  6  0  0  0
 37  5  1  0  0  0  0
 37 39  1  0  0  0  0
 39 40  1  0  0  0  0
 39 38  2  0  0  0  0
 40 41  1  0  0  0  0
 41 42  2  0  0  0  0
 42 43  1  0  0  0  0
 43 46  1  0  0  0  0
 43 44  1  1  0  0  0
 45 43  1  0  0  0  0
 46 47  1  0  0  0  0
 47 56  1  6  0  0  0
 47 48  1  0  0  0  0
 49 48  1  6  0  0  0
 49 50  1  0  0  0  0
 50 53  1  0  0  0  0
 51 49  1  0  0  0  0
 51 55  1  0  0  0  0
 53 54  1  0  0  0  0
 53 52  1  0  0  0  0
 55 54  1  0  0  0  0
 58 57  1  6  0  0  0
 58 56  1  0  0  0  0
 59 58  1  0  0  0  0
 60 59  1  0  0  0  0
 60 64  1  1  0  0  0
 61 63  1  0  0  0  0
 61 62  1  0  0  0  0
 62 60  1  0  0  0  0
 63 62  1  0  0  0  0
 64 66  1  0  0  0  0
 65 66  2  0  0  0  0
 66 68  1  0  0  0  0
 68 67  1  1  0  0  0
 68 69  1  0  0  0  0
M  END
>  <MODEL>
1

>  <REMARK>
 VINA RESULT:      -4.6      0.000      0.000
  Name = 
  31 active torsions:
  status: ('A' for Active; 'I' for Inactive)
    1  A    between atoms: C_2  and  C_11
    2  A    between atoms: C_2  and  C_42
    3  A    between atoms: N_3  and  C_30
    4  A    between atoms: C_5  and  C_39
    5  A    between atoms: C_5  and  C_48
    6  A    between atoms: C_6  and  C_29
    7  A    between atoms: C_6  and  N_60
    8  A    between atoms: C_7  and  O_19
    9  A    between atoms: N_9  and  C_29
   10  A    between atoms: C_11  and  C_55
   11  A    between atoms: O_12  and  C_48
   12  A    between atoms: O_12  and  C_54
   13  A    between atoms: C_14  and  N_15
   14  A    between atoms: N_15  and  C_31
   15  A    between atoms: N_17  and  C_20
   16  A    between atoms: N_17  and  C_39
   17  A    between atoms: C_18  and  C_40
   18  A    between atoms: O_19  and  C_39
   19  A    between atoms: C_20  and  C_55
   20  A    between atoms: C_21  and  C_37
   21  A    between atoms: C_21  and  C_42
   22  A    between atoms: C_27  and  C_54
   23  A    between atoms: C_27  and  C_68
   24  A    between atoms: C_29  and  O_57
   25  A    between atoms: C_30  and  C_41
   26  A    between atoms: C_31  and  C_40
   27  A    between atoms: C_34  and  C_68
   28  A    between atoms: N_38  and  C_54
   29  A    between atoms: C_43  and  C_56
   30  A    between atoms: C_56  and  C_69
   31  A    between atoms: O_57  and  C_69
                            x       y       z     vdW  Elec       q    Type
                         _______ _______ _______ _____ _____    ______ ____

>  <TORSDO>
F 31

$$$$
=
 OpenBabel10222421273D

 69 73  0  0  1  0  0  0  0  0999 V2000
  185.5390  178.7670  143.2340 C   0  0  0  0  0  0  0  0  0  0  0  0
  185.6710  178.7800  141.8320 C   0  0  0  0  0  3  0  0  0  0  0  0
  187.7530  177.7600  143.3940 C   0  0  0  0  0  3  0  0  0  0  0  0
  186.5940  178.2560  144.0150 C   0  0  0  0  0  3  0  0  0  0  0  0
  187.8740  177.7600  142.0110 C   0  0  0  0  0  0  0  0  0  0  0  0
  186.8240  178.2730  141.2260 C   0  0  0  0  0  0  0  0  0  0  0  0
  186.9250  178.3590  139.7220 C   0  0  0  0  0  1  0  0  0  0  0  0
  184.2170  179.0010  145.2240 O   0  0  0  0  0  1  0  0  0  0  0  0
  184.4100  179.5040  143.9310 C   0  0  2  0  0  3  0  0  0  0  0  0
  182.0800  180.1930  143.6930 C   0  0  0  0  0  1  0  0  0  0  0  0
  183.1040  179.5300  143.1800 C   0  0  0  0  0  0  0  0  0  0  0  0
  182.7980  178.4630  142.2720 N   0  0  0  0  0  0  0  0  0  0  0  0
  180.2660  177.5570  139.8300 N   0  0  0  0  0  0  0  0  0  0  0  0
  181.4330  178.3370  141.7260 C   0  0  1  0  0  3  0  0  0  0  0  0
  180.0920  179.0200  139.8940 C   0  0  0  0  0  2  0  0  0  0  0  0
  181.1000  179.5500  140.8830 C   0  0  0  0  0  2  0  0  0  0  0  0
  181.3260  177.1890  140.7580 C   0  0  0  0  0  2  0  0  0  0  0  0
  180.6730  177.1060  138.4920 C   0  0  2  0  0  3  0  0  0  0  0  0
  181.1840  175.7830  138.5110 O   0  0  0  0  0  0  0  0  0  0  0  0
  180.2870  174.9370  137.8170 C   0  0  0  0  0  2  0  0  0  0  0  0
  179.9900  174.1610  135.4740 C   0  0  0  0  0  1  0  0  0  0  0  0
  180.9820  174.3170  136.6040 C   0  0  2  0  0  3  0  0  0  0  0  0
  180.9760  171.8710  136.0980 C   0  0  0  0  0  1  0  0  0  0  0  0
  181.6070  172.9610  136.9540 C   0  0  0  0  0  2  0  0  0  0  0  0
  181.6130  178.1530  137.8660 C   0  0  0  0  0  2  0  0  0  0  0  0
  183.6220  177.1570  136.9510 C   0  0  0  0  0  0  0  0  0  0  0  0
  184.3500  177.3290  138.2440 C   0  0  0  0  0  1  0  0  0  0  0  0
  182.3880  177.5350  136.8020 N   0  0  0  0  0  0  0  0  0  0  0  0
  184.3220  176.5070  135.8030 C   0  0  0  0  0  2  0  0  0  0  0  0
  185.3330  175.5880  136.2980 N   0  0  0  0  0  0  0  0  0  0  0  0
  187.5870  174.6890  135.7930 C   0  0  0  0  0  2  0  0  0  0  0  0
  185.7610  173.1390  136.5790 C   0  0  0  0  0  2  0  0  0  0  0  0
  184.7340  174.2580  136.2770 C   0  0  0  0  0  2  0  0  0  0  0  0
  186.4570  175.6370  135.3520 C   0  0  0  0  0  2  0  0  0  0  0  0
  187.1480  173.7170  136.8950 C   0  0  0  0  0  2  0  0  0  0  0  0
  189.1710  175.9890  141.0210 O   0  0  0  0  0  1  0  0  0  0  0  0
  189.1710  177.3380  141.3620 C   0  0  2  0  0  3  0  0  0  0  0  0
  190.3600  178.6610  142.9240 O   0  0  0  0  0  0  0  0  0  0  0  0
  190.4060  177.7420  142.1180 C   0  0  0  0  0  0  0  0  0  0  0  0
  191.7340  177.2740  141.6310 C   0  0  0  0  0  2  0  0  0  0  0  0
  191.5320  176.4350  140.3730 C   0  0  0  0  0  3  0  0  0  0  0  0
  191.1920  177.2140  139.1000 C   0  0  0  0  0  3  0  0  0  0  0  0
  190.6640  176.4580  137.8750 C   0  0  2  0  0  0  0  0  0  0  0  0
  189.9700  177.3920  136.8970 C   0  0  0  0  0  1  0  0  0  0  0  0
  189.7560  175.4800  138.3300 O   0  0  0  0  0  1  0  0  0  0  0  0
  191.8290  175.8510  137.1870 N   0  0  0  0  0  2  0  0  0  0  0  0
  192.7870  175.2170  138.1060 C   0  0  1  0  0  3  0  0  0  0  0  0
  192.6640  173.8100  138.0160 O   0  0  0  0  0  0  0  0  0  0  0  0
  192.5770  173.4290  136.6530 C   0  0  1  0  0  3  0  0  0  0  0  0
  193.5540  172.2820  136.2900 C   0  0  0  0  0  2  0  0  0  0  0  0
  191.1100  173.1950  136.2110 C   0  0  0  0  0  2  0  0  0  0  0  0
  193.8270  170.2010  135.2310 C   0  0  0  0  0  1  0  0  0  0  0  0
  192.8420  171.1860  135.6310 N   0  0  0  0  0  0  0  0  0  0  0  0
  192.2330  171.7450  134.4370 C   0  0  0  0  0  2  0  0  0  0  0  0
  191.0180  172.6060  134.7940 C   0  0  0  0  0  2  0  0  0  0  0  0
  194.2020  175.6270  137.6930 C   0  0  0  0  0  2  0  0  0  0  0  0
  196.0480  175.3930  139.2460 O   0  0  0  0  0  1  0  0  0  0  0  0
  195.2710  174.6820  138.2990 C   0  0  2  0  0  3  0  0  0  0  0  0
  196.0710  174.1130  137.2760 O   0  0  0  0  0  0  0  0  0  0  0  0
  197.1780  174.9500  137.0480 C   0  0  2  0  0  3  0  0  0  0  0  0
  196.4260  176.2240  135.1820 C   0  0  0  0  0  2  0  0  0  0  0  0
  197.3420  175.1290  135.5870 N   0  0  0  0  0  0  0  0  0  0  0  0
  196.0360  174.8330  134.9730 C   0  0  0  0  0  2  0  0  0  0  0  0
  198.4660  174.3970  137.6840 C   0  0  0  0  0  2  0  0  0  0  0  0
  200.2070  175.0920  136.2040 O   0  0  0  0  0  0  0  0  0  0  0  0
  199.5640  174.1700  136.6790 C   0  0  0  0  0  0  0  0  0  0  0  0
  199.3520  172.5360  134.9890 O   0  0  0  0  0  1  0  0  0  0  0  0
  199.8490  172.7560  136.2800 C   0  0  2  0  0  3  0  0  0  0  0  0
  199.2370  171.8250  137.2210 N   0  0  0  0  0  1  0  0  0  0  0  0
  1  9  1  0  0  0  0
  1  4  1  0  0  0  0
  2  1  2  0  0  0  0
  3  4  2  0  0  0  0
  5  3  1  0  0  0  0
  6  2  1  0  0  0  0
  6  5  2  0  0  0  0
  7  6  1  0  0  0  0
  9  8  1  1  0  0  0
 11 10  1  0  0  0  0
 11  9  1  0  0  0  0
 12 11  2  0  0  0  0
 13 15  1  0  0  0  0
 13 17  1  0  0  0  0
 14 12  1  6  0  0  0
 15 16  1  0  0  0  0
 16 14  1  0  0  0  0
 17 14  1  0  0  0  0
 18 25  1  1  0  0  0
 18 19  1  0  0  0  0
 18 13  1  0  0  0  0
 20 19  1  0  0  0  0
 22 21  1  6  0  0  0
 22 24  1  0  0  0  0
 22 20  1  0  0  0  0
 23 24  1  0  0  0  0
 26 27  1  0  0  0  0
 28 26  2  0  0  0  0
 28 25  1  0  0  0  0
 29 30  1  0  0  0  0
 29 26  1  0  0  0  0
 31 35  1  0  0  0  0
 32 35  1  0  0  0  0
 33 30  1  0  0  0  0
 33 32  1  0  0  0  0
 34 31  1  0  0  0  0
 34 30  1  0  0  0  0
 37 36  1  1  0  0  0
 37  5  1  0  0  0  0
 37 39  1  0  0  0  0
 39 38  2  0  0  0  0
 40 39  1  0  0  0  0
 41 40  1  0  0  0  0
 42 41  2  0  0  0  0
 43 44  1  6  0  0  0
 43 45  1  0  0  0  0
 43 42  1  0  0  0  0
 46 43  1  0  0  0  0
 46 47  1  0  0  0  0
 47 56  1  6  0  0  0
 48 47  1  0  0  0  0
 49 48  1  1  0  0  0
 50 49  1  0  0  0  0
 51 49  1  0  0  0  0
 52 53  1  0  0  0  0
 53 50  1  0  0  0  0
 54 55  1  0  0  0  0
 54 53  1  0  0  0  0
 55 51  1  0  0  0  0
 56 58  1  0  0  0  0
 58 57  1  1  0  0  0
 59 58  1  0  0  0  0
 60 59  1  0  0  0  0
 60 64  1  6  0  0  0
 61 62  1  0  0  0  0
 62 60  1  0  0  0  0
 63 61  1  0  0  0  0
 63 62  1  0  0  0  0
 65 66  2  0  0  0  0
 66 64  1  0  0  0  0
 68 67  1  6  0  0  0
 68 66  1  0  0  0  0
 68 69  1  0  0  0  0
M  END
>  <MODEL>
2

>  <REMARK>
 VINA RESULT:      -3.1      2.887     11.708
  Name = 
  31 active torsions:
  status: ('A' for Active; 'I' for Inactive)
    1  A    between atoms: C_2  and  C_11
    2  A    between atoms: C_2  and  C_42
    3  A    between atoms: N_3  and  C_30
    4  A    between atoms: C_5  and  C_39
    5  A    between atoms: C_5  and  C_48
    6  A    between atoms: C_6  and  C_29
    7  A    between atoms: C_6  and  N_60
    8  A    between atoms: C_7  and  O_19
    9  A    between atoms: N_9  and  C_29
   10  A    between atoms: C_11  and  C_55
   11  A    between atoms: O_12  and  C_48
   12  A    between atoms: O_12  and  C_54
   13  A    between atoms: C_14  and  N_15
   14  A    between atoms: N_15  and  C_31
   15  A    between atoms: N_17  and  C_20
   16  A    between atoms: N_17  and  C_39
   17  A    between atoms: C_18  and  C_40
   18  A    between atoms: O_19  and  C_39
   19  A    between atoms: C_20  and  C_55
   20  A    between atoms: C_21  and  C_37
   21  A    between atoms: C_21  and  C_42
   22  A    between atoms: C_27  and  C_54
   23  A    between atoms: C_27  and  C_68
   24  A    between atoms: C_29  and  O_57
   25  A    between atoms: C_30  and  C_41
   26  A    between atoms: C_31  and  C_40
   27  A    between atoms: C_34  and  C_68
   28  A    between atoms: N_38  and  C_54
   29  A    between atoms: C_43  and  C_56
   30  A    between atoms: C_56  and  C_69
   31  A    between atoms: O_57  and  C_69
                            x       y       z     vdW  Elec       q    Type
                         _______ _______ _______ _____ _____    ______ ____

>  <TORSDO>
F 31

$$$$
=
 OpenBabel10222421273D

 69 73  0  0  1  0  0  0  0  0999 V2000
  185.8160  172.8010  137.1050 C   0  0  0  0  0  0  0  0  0  0  0  0
  185.7760  173.6250  135.9630 C   0  0  0  0  0  3  0  0  0  0  0  0
  183.5890  173.5920  137.7050 C   0  0  0  0  0  3  0  0  0  0  0  0
  184.7080  172.7860  137.9750 C   0  0  0  0  0  3  0  0  0  0  0  0
  183.5590  174.4140  136.5870 C   0  0  0  0  0  0  0  0  0  0  0  0
  184.6620  174.4310  135.7120 C   0  0  0  0  0  0  0  0  0  0  0  0
  184.6600  175.2550  134.4460 C   0  0  0  0  0  1  0  0  0  0  0  0
  187.0440  171.4310  138.6470 O   0  0  0  0  0  1  0  0  0  0  0  0
  186.9020  171.7570  137.2920 C   0  0  2  0  0  3  0  0  0  0  0  0
  188.6390  173.3740  136.7200 C   0  0  0  0  0  2  0  0  0  0  0  0
  188.2390  172.1130  136.6970 C   0  0  0  0  0  0  0  0  0  0  0  0
  188.7970  171.2730  135.6780 N   0  0  0  0  0  2  0  0  0  0  0  0
  192.0680  172.1200  134.3460 N   0  0  0  0  0  0  0  0  0  0  0  0
  189.7550  171.8380  134.7080 C   0  0  1  0  0  3  0  0  0  0  0  0
  191.4760  173.4590  134.5230 C   0  0  0  0  0  2  0  0  0  0  0  0
  190.0910  173.2660  135.0870 C   0  0  0  0  0  2  0  0  0  0  0  0
  191.0840  171.1330  134.7640 C   0  0  0  0  0  2  0  0  0  0  0  0
  193.2660  171.9310  135.1780 C   0  0  2  0  0  3  0  0  0  0  0  0
  193.3770  170.5980  135.6510 O   0  0  0  0  0  0  0  0  0  0  0  0
  194.7480  170.2710  135.7750 C   0  0  0  0  0  2  0  0  0  0  0  0
  193.7440  168.4520  137.1410 C   0  0  0  0  0  1  0  0  0  0  0  0
  194.9010  168.8220  136.2410 C   0  0  2  0  0  3  0  0  0  0  0  0
  197.0740  169.8780  136.8780 C   0  0  0  0  0  1  0  0  0  0  0  0
  196.2330  168.6110  136.9720 C   0  0  0  0  0  2  0  0  0  0  0  0
  193.2980  173.0110  136.2750 C   0  0  0  0  0  2  0  0  0  0  0  0
  195.4670  173.6140  137.1680 C   0  0  0  0  0  0  0  0  0  0  0  0
  195.2520  172.7700  138.3820 C   0  0  0  0  0  1  0  0  0  0  0  0
  194.5740  173.7090  136.2300 N   0  0  0  0  0  0  0  0  0  0  0  0
  196.7580  174.3510  137.0150 C   0  0  0  0  0  2  0  0  0  0  0  0
  197.8720  173.4410  137.2170 N   0  0  0  0  0  0  0  0  0  0  0  0
  199.9710  173.1620  138.5060 C   0  0  0  0  0  2  0  0  0  0  0  0
  199.9130  172.5800  136.0530 C   0  0  0  0  0  2  0  0  0  0  0  0
  198.5740  173.3510  135.9420 C   0  0  0  0  0  2  0  0  0  0  0  0
  198.7520  174.0570  138.2210 C   0  0  0  0  0  2  0  0  0  0  0  0
  200.1360  172.0400  137.4740 C   0  0  0  0  0  2  0  0  0  0  0  0
  182.5460  176.1870  135.3110 O   0  0  0  0  0  1  0  0  0  0  0  0
  182.3050  175.1820  136.2420 C   0  0  2  0  0  3  0  0  0  0  0  0
  181.3460  174.9350  138.3920 O   0  0  0  0  0  0  0  0  0  0  0  0
  181.5280  175.6710  137.4320 C   0  0  0  0  0  0  0  0  0  0  0  0
  180.6920  176.8970  137.2920 C   0  0  0  0  0  2  0  0  0  0  0  0
  181.6070  178.0940  137.0550 C   0  0  0  0  0  2  0  0  0  0  0  0
  182.9350  178.0790  137.8160 C   0  0  0  0  0  2  0  0  0  0  0  0
  182.9730  178.5660  139.2700 C   0  0  2  0  0  0  0  0  0  0  0  0
  183.2060  177.4180  140.2380 C   0  0  0  0  0  1  0  0  0  0  0  0
  181.7380  179.1860  139.5490 O   0  0  0  0  0  1  0  0  0  0  0  0
  184.1070  179.5130  139.3940 N   0  0  0  0  0  2  0  0  0  0  0  0
  185.3120  178.9100  139.9850 C   0  0  1  0  0  3  0  0  0  0  0  0
  186.4550  179.3500  139.2750 O   0  0  0  0  0  0  0  0  0  0  0  0
  187.0400  178.2520  138.5940 C   0  0  1  0  0  3  0  0  0  0  0  0
  186.5250  178.1090  137.1390 C   0  0  0  0  0  2  0  0  0  0  0  0
  188.5820  178.2370  138.7410 C   0  0  0  0  0  2  0  0  0  0  0  0
  187.0970  177.7990  134.8800 C   0  0  0  0  0  1  0  0  0  0  0  0
  187.6460  178.0330  136.2010 N   0  0  0  0  0  0  0  0  0  0  0  0
  188.4340  176.8760  136.5880 C   0  0  0  0  0  2  0  0  0  0  0  0
  189.2380  177.1620  137.8590 C   0  0  0  0  0  2  0  0  0  0  0  0
  185.4180  179.3640  141.4420 C   0  0  0  0  0  2  0  0  0  0  0  0
  184.7700  177.4610  142.7960 O   0  0  0  0  0  1  0  0  0  0  0  0
  185.8900  178.2130  142.3670 C   0  0  2  0  0  3  0  0  0  0  0  0
  186.6360  178.7240  143.4590 O   0  0  0  0  0  0  0  0  0  0  0  0
  186.7840  177.7080  144.4200 C   0  0  2  0  0  3  0  0  0  0  0  0
  185.9290  177.5890  146.6400 C   0  0  0  0  0  2  0  0  0  0  0  0
  186.8640  178.3340  145.7610 N   0  0  0  0  0  0  0  0  0  0  0  0
  185.5240  178.8660  146.0620 C   0  0  0  0  0  2  0  0  0  0  0  0
  188.0160  176.8260  144.1490 C   0  0  0  0  0  2  0  0  0  0  0  0
  188.7930  178.1190  142.2970 O   0  0  0  0  0  0  0  0  0  0  0  0
  189.0670  177.5260  143.3280 C   0  0  0  0  0  0  0  0  0  0  0  0
  190.4860  177.7570  145.1990 O   0  0  0  0  0  1  0  0  0  0  0  0
  190.4760  177.4750  143.8270 C   0  0  2  0  0  3  0  0  0  0  0  0
  191.3080  178.4360  143.1100 N   0  0  0  0  0  1  0  0  0  0  0  0
  1  9  1  0  0  0  0
  1  4  1  0  0  0  0
  2  1  2  0  0  0  0
  3  4  2  0  0  0  0
  5  3  1  0  0  0  0
  6  2  1  0  0  0  0
  6  5  2  0  0  0  0
  7  6  1  0  0  0  0
  9  8  1  1  0  0  0
 11 10  2  0  0  0  0
 11  9  1  0  0  0  0
 12 11  1  0  0  0  0
 13 15  1  0  0  0  0
 13 17  1  0  0  0  0
 13 18  1  0  0  0  0
 14 17  1  0  0  0  0
 14 16  1  0  0  0  0
 14 12  1  1  0  0  0
 15 16  1  0  0  0  0
 18 19  1  0  0  0  0
 18 25  1  1  0  0  0
 19 20  1  0  0  0  0
 20 22  1  0  0  0  0
 22 24  1  0  0  0  0
 22 21  1  1  0  0  0
 23 24  1  0  0  0  0
 26 27  1  0  0  0  0
 28 25  1  0  0  0  0
 28 26  2  0  0  0  0
 29 26  1  0  0  0  0
 29 30  1  0  0  0  0
 30 34  1  0  0  0  0
 32 35  1  0  0  0  0
 33 32  1  0  0  0  0
 33 30  1  0  0  0  0
 34 31  1  0  0  0  0
 35 31  1  0  0  0  0
 37 36  1  6  0  0  0
 37  5  1  0  0  0  0
 37 39  1  0  0  0  0
 39 38  2  0  0  0  0
 40 39  1  0  0  0  0
 41 40  1  0  0  0  0
 41 42  1  0  0  0  0
 42 43  1  0  0  0  0
 43 46  1  0  0  0  0
 43 45  1  0  0  0  0
 43 44  1  1  0  0  0
 46 47  1  0  0  0  0
 47 56  1  1  0  0  0
 48 47  1  0  0  0  0
 49 51  1  0  0  0  0
 49 48  1  6  0  0  0
 50 49  1  0  0  0  0
 52 53  1  0  0  0  0
 53 54  1  0  0  0  0
 53 50  1  0  0  0  0
 54 55  1  0  0  0  0
 55 51  1  0  0  0  0
 56 58  1  0  0  0  0
 58 57  1  1  0  0  0
 58 59  1  0  0  0  0
 59 60  1  0  0  0  0
 60 64  1  6  0  0  0
 60 62  1  0  0  0  0
 62 63  1  0  0  0  0
 62 61  1  0  0  0  0
 63 61  1  0  0  0  0
 65 66  2  0  0  0  0
 66 68  1  0  0  0  0
 66 64  1  0  0  0  0
 68 69  1  6  0  0  0
 68 67  1  0  0  0  0
M  END
>  <MODEL>
3

>  <REMARK>
 VINA RESULT:      -2.2      2.157      4.970
  Name = 
  31 active torsions:
  status: ('A' for Active; 'I' for Inactive)
    1  A    between atoms: C_2  and  C_11
    2  A    between atoms: C_2  and  C_42
    3  A    between atoms: N_3  and  C_30
    4  A    between atoms: C_5  and  C_39
    5  A    between atoms: C_5  and  C_48
    6  A    between atoms: C_6  and  C_29
    7  A    between atoms: C_6  and  N_60
    8  A    between atoms: C_7  and  O_19
    9  A    between atoms: N_9  and  C_29
   10  A    between atoms: C_11  and  C_55
   11  A    between atoms: O_12  and  C_48
   12  A    between atoms: O_12  and  C_54
   13  A    between atoms: C_14  and  N_15
   14  A    between atoms: N_15  and  C_31
   15  A    between atoms: N_17  and  C_20
   16  A    between atoms: N_17  and  C_39
   17  A    between atoms: C_18  and  C_40
   18  A    between atoms: O_19  and  C_39
   19  A    between atoms: C_20  and  C_55
   20  A    between atoms: C_21  and  C_37
   21  A    between atoms: C_21  and  C_42
   22  A    between atoms: C_27  and  C_54
   23  A    between atoms: C_27  and  C_68
   24  A    between atoms: C_29  and  O_57
   25  A    between atoms: C_30  and  C_41
   26  A    between atoms: C_31  and  C_40
   27  A    between atoms: C_34  and  C_68
   28  A    between atoms: N_38  and  C_54
   29  A    between atoms: C_43  and  C_56
   30  A    between atoms: C_56  and  C_69
   31  A    between atoms: O_57  and  C_69
                            x       y       z     vdW  Elec       q    Type
                         _______ _______ _______ _____ _____    ______ ____

>  <TORSDO>
F 31

$$$$
