=
 OpenBabel10232409233D

 52 56  0  0  1  0  0  0  0  0999 V2000
  193.3060  177.3060  139.3930 O   0  0  0  0  0  0  0  0  0  0  0  0
  192.4280  177.4470  140.4890 C   0  0  0  0  0  2  0  0  0  0  0  0
  191.1050  176.9280  140.0730 C   0  0  0  0  0  0  0  0  0  0  0  0
  192.5940  176.6200  138.3840 C   0  0  2  0  0  3  0  0  0  0  0  0
  191.2000  176.4540  138.8560 C   0  0  0  0  0  0  0  0  0  0  0  0
  190.0580  174.6030  137.8630 O   0  0  0  0  0  0  0  0  0  0  0  0
  189.1610  176.7180  137.4280 N   0  0  0  0  0  2  0  0  0  0  0  0
  190.1210  175.8550  138.0420 C   0  0  0  0  0  0  0  0  0  0  0  0
  188.0930  176.2150  136.5790 C   0  0  0  0  0  2  0  0  0  0  0  0
  187.0380  178.8410  136.8750 O   0  0  0  0  0  0  0  0  0  0  0  0
  186.8080  176.5330  137.1820 N   0  0  0  0  0  2  0  0  0  0  0  0
  186.3480  177.8800  137.3210 C   0  0  0  0  0  0  0  0  0  0  0  0
  185.2070  178.6220  139.3730 C   0  0  0  0  0  2  0  0  0  0  0  0
  185.0180  178.1420  137.9510 C   0  0  2  0  0  3  0  0  0  0  0  0
  184.1640  176.8780  137.9800 C   0  0  0  0  0  2  0  0  0  0  0  0
  183.1720  176.8450  139.5070 S   0  0  0  0  0  0  0  0  0  0  0  0
  183.8820  178.4200  140.0700 C   0  0  1  0  0  3  0  0  0  0  0  0
  183.1100  178.8700  143.7860 C   0  0  0  0  0  3  0  0  0  0  0  0
  185.2770  178.2250  142.1510 C   0  0  0  0  0  3  0  0  0  0  0  0
  184.0210  178.4660  141.5670 C   0  0  0  0  0  0  0  0  0  0  0  0
  185.4470  178.3020  143.5330 C   0  0  0  0  0  3  0  0  0  0  0  0
  184.3640  178.6300  144.3510 C   0  0  0  0  0  3  0  0  0  0  0  0
  182.9140  178.7750  142.3970 C   0  0  0  0  0  0  0  0  0  0  0  0
  180.7540  179.7410  142.7220 F   0  0  0  0  0  0  0  0  0  0  0  0
  181.5410  179.0520  141.8050 C   0  0  0  0  0  0  0  0  0  0  0  0
  180.9330  177.8330  141.5650 F   0  0  0  0  0  0  0  0  0  0  0  0
  180.3600  180.3160  140.2900 C   0  0  0  0  0  1  0  0  0  0  0  0
  181.6130  179.7440  140.5720 O   0  0  0  0  0  0  0  0  0  0  0  0
  189.8670  176.9330  140.9220 C   0  0  0  0  0  2  0  0  0  0  0  0
  190.1960  177.1180  142.3250 N   0  0  0  0  0  2  0  0  0  0  0  0
  189.0720  176.6020  143.0930 C   0  0  0  0  0  2  0  0  0  0  0  0
  189.3000  176.7980  144.5950 C   0  0  2  0  0  3  0  0  0  0  0  0
  188.1890  177.6370  145.2140 C   0  0  0  0  0  2  0  0  0  0  0  0
  187.7980  177.0840  146.4220 F   0  0  0  0  0  0  0  0  0  0  0  0
  190.6610  177.4230  144.8880 C   0  0  0  0  0  2  0  0  0  0  0  0
  191.6500  176.3890  145.4070 C   0  0  0  0  0  2  0  0  0  0  0  0
  192.6500  175.6530  147.5700 O   0  0  0  0  0  1  0  0  0  0  0  0
  191.6940  176.4000  146.8960 C   0  0  0  0  0  0  0  0  0  0  0  0
  190.8750  177.1060  147.5430 O   0  0  0  0  0  0  0  0  0  0  0  0
  193.1990  175.3130  138.1610 N   0  0  0  0  0  2  0  0  0  0  0  0
  194.0350  174.9260  137.0560 C   0  0  0  0  0  0  0  0  0  0  0  0
  196.1900  174.1880  136.2150 C   0  0  0  0  0  0  0  0  0  0  0  0
  197.3890  174.4280  138.7540 O   0  0  0  0  0  0  0  0  0  0  0  0
  193.5570  174.8480  135.7290 C   0  0  0  0  0  0  0  0  0  0  0  0
  197.6060  173.7410  136.4350 C   0  0  0  0  0  2  0  0  0  0  0  0
  196.0080  174.5890  138.6450 C   0  0  0  0  0  0  0  0  0  0  0  0
  195.6650  174.1340  134.9680 N   0  0  0  0  0  0  0  0  0  0  0  0
  195.3790  174.5730  137.2960 C   0  0  0  0  0  0  0  0  0  0  0  0
  192.2160  175.1900  135.3920 N   0  0  0  0  0  1  0  0  0  0  0  0
  195.3200  174.7120  139.6910 O   0  0  0  0  0  0  0  0  0  0  0  0
  198.2290  174.5030  137.6030 C   0  0  0  0  0  2  0  0  0  0  0  0
  194.3960  174.4570  134.7350 N   0  0  0  0  0  0  0  0  0  0  0  0
  1  2  1  0  0  0  0
  3  2  1  0  0  0  0
  3 29  1  0  0  0  0
  4 40  1  1  0  0  0
  4  5  1  0  0  0  0
  4  1  1  0  0  0  0
  5  3  2  0  0  0  0
  6  8  2  0  0  0  0
  7  8  1  0  0  0  0
  8  5  1  0  0  0  0
  9 11  1  0  0  0  0
  9  7  1  0  0  0  0
 10 12  2  0  0  0  0
 11 12  1  0  0  0  0
 13 17  1  0  0  0  0
 14 12  1  1  0  0  0
 14 15  1  0  0  0  0
 14 13  1  0  0  0  0
 15 16  1  0  0  0  0
 16 17  1  0  0  0  0
 17 20  1  1  0  0  0
 18 22  1  0  0  0  0
 19 21  1  0  0  0  0
 20 19  2  0  0  0  0
 20 23  1  0  0  0  0
 21 22  2  0  0  0  0
 23 18  2  0  0  0  0
 25 23  1  0  0  0  0
 25 24  1  0  0  0  0
 26 25  1  0  0  0  0
 27 28  1  0  0  0  0
 28 25  1  0  0  0  0
 29 30  1  0  0  0  0
 30 31  1  0  0  0  0
 32 31  1  6  0  0  0
 32 35  1  0  0  0  0
 32 33  1  0  0  0  0
 33 34  1  0  0  0  0
 35 36  1  0  0  0  0
 36 38  1  0  0  0  0
 38 39  2  0  0  0  0
 38 37  1  0  0  0  0
 41 48  1  0  0  0  0
 41 40  1  0  0  0  0
 42 45  1  0  0  0  0
 42 48  2  0  0  0  0
 44 41  2  0  0  0  0
 45 51  1  0  0  0  0
 46 43  1  0  0  0  0
 46 50  2  0  0  0  0
 47 42  1  0  0  0  0
 48 46  1  0  0  0  0
 49 44  1  0  0  0  0
 51 43  1  0  0  0  0
 52 47  2  0  0  0  0
 52 44  1  0  0  0  0
M  END
>  <MODEL>
1

>  <REMARK>
 VINA RESULT:      -8.3      0.000      0.000
  Name = 
  17 active torsions:
  status: ('A' for Active; 'I' for Inactive)
    1  A    between atoms: C_2  and  N_42
    2  A    between atoms: C_4  and  O_28
    3  A    between atoms: C_4  and  C_48
    4  A    between atoms: C_8  and  C_32
    5  A    between atoms: C_9  and  C_32
    6  A    between atoms: C_9  and  N_39
    7  A    between atoms: C_10  and  N_39
    8  A    between atoms: C_10  and  C_44
    9  A    between atoms: N_12  and  C_33
   10  A    between atoms: C_16  and  C_25
   11  A    between atoms: C_20  and  C_52
   12  A    between atoms: C_23  and  C_31
   13  A    between atoms: C_23  and  C_34
   14  A    between atoms: C_32  and  C_34
   15  A    between atoms: C_33  and  N_37
   16  A    between atoms: N_42  and  C_45
   17  A    between atoms: C_43  and  C_47
                            x       y       z     vdW  Elec       q    Type
                         _______ _______ _______ _____ _____    ______ ____

>  <TORSDO>
F 17

$$$$
=
 OpenBabel10232409233D

 52 56  0  0  1  0  0  0  0  0999 V2000
  186.5390  177.0230  144.2720 O   0  0  0  0  0  0  0  0  0  0  0  0
  187.8780  177.1460  144.6980 C   0  0  0  0  0  2  0  0  0  0  0  0
  188.6750  177.6210  143.5440 C   0  0  0  0  0  0  0  0  0  0  0  0
  186.4840  177.5160  142.9480 C   0  0  2  0  0  3  0  0  0  0  0  0
  187.8700  177.8310  142.5320 C   0  0  0  0  0  0  0  0  0  0  0  0
  188.2080  179.5240  140.8780 O   0  0  0  0  0  0  0  0  0  0  0  0
  188.5990  177.3240  140.1920 N   0  0  0  0  0  2  0  0  0  0  0  0
  188.2380  178.2940  141.1780 C   0  0  0  0  0  0  0  0  0  0  0  0
  188.9330  177.6890  138.8260 C   0  0  0  0  0  2  0  0  0  0  0  0
  191.6420  176.9570  139.2960 O   0  0  0  0  0  0  0  0  0  0  0  0
  189.6200  176.5790  138.1830 N   0  0  0  0  0  2  0  0  0  0  0  0
  190.9930  176.2810  138.4490 C   0  0  0  0  0  0  0  0  0  0  0  0
  193.1440  175.3040  137.7550 C   0  0  0  0  0  2  0  0  0  0  0  0
  191.6420  175.1270  137.7540 C   0  0  2  0  0  3  0  0  0  0  0  0
  191.1720  175.0210  136.3060 C   0  0  0  0  0  2  0  0  0  0  0  0
  192.5490  174.4570  135.2550 S   0  0  0  0  0  0  0  0  0  0  0  0
  193.6820  174.3930  136.6760 C   0  0  1  0  0  3  0  0  0  0  0  0
  197.4950  174.4290  136.4280 C   0  0  0  0  0  3  0  0  0  0  0  0
  195.3100  175.8590  135.4460 C   0  0  0  0  0  3  0  0  0  0  0  0
  195.0890  174.7530  136.2840 C   0  0  0  0  0  0  0  0  0  0  0  0
  196.6050  176.2430  135.0990 C   0  0  0  0  0  3  0  0  0  0  0  0
  197.6990  175.5310  135.5950 C   0  0  0  0  0  3  0  0  0  0  0  0
  196.1960  174.0130  136.7690 C   0  0  0  0  0  0  0  0  0  0  0  0
  195.5000  173.2310  138.9170 F   0  0  0  0  0  0  0  0  0  0  0  0
  196.0000  172.8160  137.6860 C   0  0  0  0  0  0  0  0  0  0  0  0
  197.2420  172.2490  137.9100 F   0  0  0  0  0  0  0  0  0  0  0  0
  195.3940  170.5990  137.7680 C   0  0  0  0  0  1  0  0  0  0  0  0
  195.1740  171.8220  137.1100 O   0  0  0  0  0  0  0  0  0  0  0  0
  190.1600  177.8410  143.5480 C   0  0  0  0  0  2  0  0  0  0  0  0
  190.6310  178.1990  144.8750 N   0  0  0  0  0  2  0  0  0  0  0  0
  191.4650  177.0990  145.3370 C   0  0  0  0  0  2  0  0  0  0  0  0
  191.3540  176.9280  146.8550 C   0  0  2  0  0  3  0  0  0  0  0  0
  192.1560  175.7240  147.3320 C   0  0  0  0  0  2  0  0  0  0  0  0
  192.4400  174.8920  146.2610 F   0  0  0  0  0  0  0  0  0  0  0  0
  189.9020  176.8110  147.3100 C   0  0  0  0  0  2  0  0  0  0  0  0
  189.5020  177.9770  148.2040 C   0  0  0  0  0  2  0  0  0  0  0  0
  187.5330  177.5020  149.6590 O   0  0  0  0  0  1  0  0  0  0  0  0
  188.0340  177.9720  148.4520 C   0  0  0  0  0  0  0  0  0  0  0  0
  187.2470  178.4140  147.5730 O   0  0  0  0  0  0  0  0  0  0  0  0
  185.6700  178.7240  142.9100 N   0  0  0  0  0  2  0  0  0  0  0  0
  184.2420  178.8060  143.0650 C   0  0  0  0  0  0  0  0  0  0  0  0
  182.0250  178.8530  142.0750 C   0  0  0  0  0  0  0  0  0  0  0  0
  183.0710  178.8810  139.4590 O   0  0  0  0  0  0  0  0  0  0  0  0
  183.6140  178.8750  144.3280 C   0  0  0  0  0  0  0  0  0  0  0  0
  181.1110  178.7630  140.8870 C   0  0  0  0  0  2  0  0  0  0  0  0
  183.9440  178.6880  140.5300 C   0  0  0  0  0  0  0  0  0  0  0  0
  181.4910  178.9170  143.3170 N   0  0  0  0  0  0  0  0  0  0  0  0
  183.4190  178.7810  141.9190 C   0  0  0  0  0  0  0  0  0  0  0  0
  184.3640  178.9110  145.5380 N   0  0  0  0  0  1  0  0  0  0  0  0
  185.1480  178.4090  140.2960 O   0  0  0  0  0  0  0  0  0  0  0  0
  181.7610  179.4080  139.6650 C   0  0  0  0  0  2  0  0  0  0  0  0
  182.2590  178.9320  144.4030 N   0  0  0  0  0  0  0  0  0  0  0  0
  1  2  1  0  0  0  0
  3 29  1  0  0  0  0
  3  2  1  0  0  0  0
  4 40  1  1  0  0  0
  4  1  1  0  0  0  0
  5  4  1  0  0  0  0
  5  3  2  0  0  0  0
  6  8  2  0  0  0  0
  7  8  1  0  0  0  0
  8  5  1  0  0  0  0
  9  7  1  0  0  0  0
 11 12  1  0  0  0  0
 11  9  1  0  0  0  0
 12 10  2  0  0  0  0
 14 13  1  0  0  0  0
 14 12  1  6  0  0  0
 15 14  1  0  0  0  0
 16 15  1  0  0  0  0
 16 17  1  0  0  0  0
 17 20  1  6  0  0  0
 17 13  1  0  0  0  0
 18 23  1  0  0  0  0
 19 20  1  0  0  0  0
 20 23  2  0  0  0  0
 21 19  2  0  0  0  0
 21 22  1  0  0  0  0
 22 18  2  0  0  0  0
 23 25  1  0  0  0  0
 25 26  1  0  0  0  0
 25 24  1  0  0  0  0
 28 25  1  0  0  0  0
 28 27  1  0  0  0  0
 29 30  1  0  0  0  0
 30 31  1  0  0  0  0
 32 31  1  6  0  0  0
 32 35  1  0  0  0  0
 32 33  1  0  0  0  0
 34 33  1  0  0  0  0
 35 36  1  0  0  0  0
 36 38  1  0  0  0  0
 38 37  1  0  0  0  0
 39 38  2  0  0  0  0
 40 41  1  0  0  0  0
 41 44  1  0  0  0  0
 42 47  2  0  0  0  0
 43 51  1  0  0  0  0
 43 46  1  0  0  0  0
 44 52  2  0  0  0  0
 44 49  1  0  0  0  0
 45 42  1  0  0  0  0
 46 48  1  0  0  0  0
 47 52  1  0  0  0  0
 48 42  1  0  0  0  0
 48 41  2  0  0  0  0
 50 46  2  0  0  0  0
 51 45  1  0  0  0  0
M  END
>  <MODEL>
2

>  <REMARK>
 VINA RESULT:      -8.1      4.146     11.090
  Name = 
  17 active torsions:
  status: ('A' for Active; 'I' for Inactive)
    1  A    between atoms: C_2  and  N_42
    2  A    between atoms: C_4  and  O_28
    3  A    between atoms: C_4  and  C_48
    4  A    between atoms: C_8  and  C_32
    5  A    between atoms: C_9  and  C_32
    6  A    between atoms: C_9  and  N_39
    7  A    between atoms: C_10  and  N_39
    8  A    between atoms: C_10  and  C_44
    9  A    between atoms: N_12  and  C_33
   10  A    between atoms: C_16  and  C_25
   11  A    between atoms: C_20  and  C_52
   12  A    between atoms: C_23  and  C_31
   13  A    between atoms: C_23  and  C_34
   14  A    between atoms: C_32  and  C_34
   15  A    between atoms: C_33  and  N_37
   16  A    between atoms: N_42  and  C_45
   17  A    between atoms: C_43  and  C_47
                            x       y       z     vdW  Elec       q    Type
                         _______ _______ _______ _____ _____    ______ ____

>  <TORSDO>
F 17

$$$$
=
 OpenBabel10232409233D

 52 56  0  0  1  0  0  0  0  0999 V2000
  184.1230  176.6960  135.8170 O   0  0  0  0  0  0  0  0  0  0  0  0
  185.0830  175.9700  135.0800 C   0  0  0  0  0  2  0  0  0  0  0  0
  186.4170  176.5180  135.4190 C   0  0  0  0  0  0  0  0  0  0  0  0
  184.8350  177.5720  136.6660 C   0  0  2  0  0  3  0  0  0  0  0  0
  186.2730  177.4450  136.3330 C   0  0  0  0  0  0  0  0  0  0  0  0
  187.5660  179.4440  136.5500 O   0  0  0  0  0  0  0  0  0  0  0  0
  188.1320  177.6930  137.9920 N   0  0  0  0  0  2  0  0  0  0  0  0
  187.3370  178.2650  136.9500 C   0  0  0  0  0  0  0  0  0  0  0  0
  189.2240  178.4140  138.6230 C   0  0  0  0  0  2  0  0  0  0  0  0
  190.7190  176.3030  139.8080 O   0  0  0  0  0  0  0  0  0  0  0  0
  189.2470  178.1060  140.0450 N   0  0  0  0  0  2  0  0  0  0  0  0
  190.0040  177.0130  140.5710 C   0  0  0  0  0  0  0  0  0  0  0  0
  188.5760  176.8820  142.5720 C   0  0  0  0  0  2  0  0  0  0  0  0
  189.9850  176.7460  142.0420 C   0  0  2  0  0  3  0  0  0  0  0  0
  190.8780  177.7310  142.7920 C   0  0  0  0  0  2  0  0  0  0  0  0
  190.1270  178.1350  144.4010 S   0  0  0  0  0  0  0  0  0  0  0  0
  188.6980  177.0610  144.0680 C   0  0  1  0  0  3  0  0  0  0  0  0
  186.0470  178.1410  146.6000 C   0  0  0  0  0  3  0  0  0  0  0  0
  186.3910  178.0270  143.8330 C   0  0  0  0  0  3  0  0  0  0  0  0
  187.4350  177.6080  144.6750 C   0  0  0  0  0  0  0  0  0  0  0  0
  185.1910  178.5000  144.3660 C   0  0  0  0  0  3  0  0  0  0  0  0
  185.0170  178.5510  145.7500 C   0  0  0  0  0  3  0  0  0  0  0  0
  187.2710  177.6830  146.0800 C   0  0  0  0  0  0  0  0  0  0  0  0
  189.2060  176.3160  146.3890 F   0  0  0  0  0  0  0  0  0  0  0  0
  188.3730  177.2320  147.0260 C   0  0  0  0  0  0  0  0  0  0  0  0
  187.7750  176.5820  148.0910 F   0  0  0  0  0  0  0  0  0  0  0  0
  188.9590  178.3520  148.9470 C   0  0  0  0  0  1  0  0  0  0  0  0
  189.1150  178.3170  147.5500 O   0  0  0  0  0  0  0  0  0  0  0  0
  187.7170  176.0650  134.8220 C   0  0  0  0  0  2  0  0  0  0  0  0
  188.5030  175.3160  135.7880 N   0  0  0  0  0  2  0  0  0  0  0  0
  189.8860  175.7410  135.6260 C   0  0  0  0  0  2  0  0  0  0  0  0
  190.8530  174.6460  136.0860 C   0  0  2  0  0  3  0  0  0  0  0  0
  190.1380  173.6040  136.9370 C   0  0  0  0  0  2  0  0  0  0  0  0
  189.4020  172.7570  136.1250 F   0  0  0  0  0  0  0  0  0  0  0  0
  192.0450  175.2210  136.8450 C   0  0  0  0  0  2  0  0  0  0  0  0
  193.3380  175.0580  136.0580 C   0  0  0  0  0  2  0  0  0  0  0  0
  194.3990  174.2360  138.1590 O   0  0  0  0  0  1  0  0  0  0  0  0
  194.5060  174.9530  136.9760 C   0  0  0  0  0  0  0  0  0  0  0  0
  195.5990  175.5000  136.6670 O   0  0  0  0  0  0  0  0  0  0  0  0
  184.6160  177.1910  138.0560 N   0  0  0  0  0  2  0  0  0  0  0  0
  183.5480  177.6340  138.9130 C   0  0  0  0  0  0  0  0  0  0  0  0
  181.4370  177.1960  140.0300 C   0  0  0  0  0  0  0  0  0  0  0  0
  181.1670  174.6860  138.7780 O   0  0  0  0  0  0  0  0  0  0  0  0
  183.5430  178.9040  139.5310 C   0  0  0  0  0  0  0  0  0  0  0  0
  180.3080  176.2770  140.3990 C   0  0  0  0  0  2  0  0  0  0  0  0
  182.3610  175.3910  138.6210 C   0  0  0  0  0  0  0  0  0  0  0  0
  181.4980  178.4270  140.5890 N   0  0  0  0  0  0  0  0  0  0  0  0
  182.4730  176.7630  139.1860 C   0  0  0  0  0  0  0  0  0  0  0  0
  184.5840  179.8520  139.3090 N   0  0  0  0  0  1  0  0  0  0  0  0
  183.3260  174.8370  138.0340 O   0  0  0  0  0  0  0  0  0  0  0  0
  179.9840  175.3390  139.2380 C   0  0  0  0  0  2  0  0  0  0  0  0
  182.5120  179.2520  140.3440 N   0  0  0  0  0  0  0  0  0  0  0  0
  1  4  1  0  0  0  0
  2  3  1  0  0  0  0
  2  1  1  0  0  0  0
  3  5  2  0  0  0  0
  4 40  1  1  0  0  0
  5  4  1  0  0  0  0
  5  8  1  0  0  0  0
  6  8  2  0  0  0  0
  7  9  1  0  0  0  0
  8  7  1  0  0  0  0
  9 11  1  0  0  0  0
 10 12  2  0  0  0  0
 11 12  1  0  0  0  0
 13 17  1  0  0  0  0
 14 12  1  6  0  0  0
 14 13  1  0  0  0  0
 14 15  1  0  0  0  0
 15 16  1  0  0  0  0
 17 16  1  0  0  0  0
 17 20  1  6  0  0  0
 19 21  2  0  0  0  0
 19 20  1  0  0  0  0
 20 23  2  0  0  0  0
 21 22  1  0  0  0  0
 22 18  2  0  0  0  0
 23 18  1  0  0  0  0
 23 25  1  0  0  0  0
 24 25  1  0  0  0  0
 25 28  1  0  0  0  0
 25 26  1  0  0  0  0
 28 27  1  0  0  0  0
 29  3  1  0  0  0  0
 29 30  1  0  0  0  0
 31 30  1  0  0  0  0
 32 31  1  1  0  0  0
 32 35  1  0  0  0  0
 32 33  1  0  0  0  0
 34 33  1  0  0  0  0
 36 35  1  0  0  0  0
 36 38  1  0  0  0  0
 38 37  1  0  0  0  0
 39 38  2  0  0  0  0
 40 41  1  0  0  0  0
 41 48  2  0  0  0  0
 41 44  1  0  0  0  0
 42 45  1  0  0  0  0
 42 47  2  0  0  0  0
 43 51  1  0  0  0  0
 44 52  2  0  0  0  0
 46 43  1  0  0  0  0
 46 48  1  0  0  0  0
 48 42  1  0  0  0  0
 49 44  1  0  0  0  0
 50 46  2  0  0  0  0
 51 45  1  0  0  0  0
 52 47  1  0  0  0  0
M  END
>  <MODEL>
3

>  <REMARK>
 VINA RESULT:      -8.0      3.454      9.609
  Name = 
  17 active torsions:
  status: ('A' for Active; 'I' for Inactive)
    1  A    between atoms: C_2  and  N_42
    2  A    between atoms: C_4  and  O_28
    3  A    between atoms: C_4  and  C_48
    4  A    between atoms: C_8  and  C_32
    5  A    between atoms: C_9  and  C_32
    6  A    between atoms: C_9  and  N_39
    7  A    between atoms: C_10  and  N_39
    8  A    between atoms: C_10  and  C_44
    9  A    between atoms: N_12  and  C_33
   10  A    between atoms: C_16  and  C_25
   11  A    between atoms: C_20  and  C_52
   12  A    between atoms: C_23  and  C_31
   13  A    between atoms: C_23  and  C_34
   14  A    between atoms: C_32  and  C_34
   15  A    between atoms: C_33  and  N_37
   16  A    between atoms: N_42  and  C_45
   17  A    between atoms: C_43  and  C_47
                            x       y       z     vdW  Elec       q    Type
                         _______ _______ _______ _____ _____    ______ ____

>  <TORSDO>
F 17

$$$$
=
 OpenBabel10232409233D

 52 56  0  0  1  0  0  0  0  0999 V2000
  186.9810  177.3390  144.2980 O   0  0  0  0  0  0  0  0  0  0  0  0
  188.3270  177.6040  144.6320 C   0  0  0  0  0  2  0  0  0  0  0  0
  189.0510  177.9010  143.3750 C   0  0  0  0  0  0  0  0  0  0  0  0
  186.8480  177.5800  142.9120 C   0  0  2  0  0  3  0  0  0  0  0  0
  188.1970  177.8830  142.3810 C   0  0  0  0  0  0  0  0  0  0  0  0
  188.3020  179.2450  140.4180 O   0  0  0  0  0  0  0  0  0  0  0  0
  188.9500  177.0140  140.1580 N   0  0  0  0  0  2  0  0  0  0  0  0
  188.4870  178.1110  140.9490 C   0  0  0  0  0  0  0  0  0  0  0  0
  189.2190  177.1400  138.7350 C   0  0  0  0  0  2  0  0  0  0  0  0
  187.7950  179.0740  137.2090 O   0  0  0  0  0  0  0  0  0  0  0  0
  187.9970  176.8780  137.9880 N   0  0  0  0  0  2  0  0  0  0  0  0
  187.3190  177.9050  137.2610 C   0  0  0  0  0  0  0  0  0  0  0  0
  185.4330  176.3300  137.1000 C   0  0  0  0  0  2  0  0  0  0  0  0
  186.0660  177.5730  136.5160 C   0  0  2  0  0  3  0  0  0  0  0  0
  186.3550  177.3160  135.0390 C   0  0  0  0  0  2  0  0  0  0  0  0
  185.2560  176.0020  134.4200 S   0  0  0  0  0  0  0  0  0  0  0  0
  184.4800  175.8040  136.0520 C   0  0  1  0  0  3  0  0  0  0  0  0
  182.4600  172.6950  136.9780 C   0  0  0  0  0  3  0  0  0  0  0  0
  185.0600  173.3650  136.2200 C   0  0  0  0  0  3  0  0  0  0  0  0
  184.0880  174.3760  136.3130 C   0  0  0  0  0  0  0  0  0  0  0  0
  184.7370  172.0370  136.4980 C   0  0  0  0  0  3  0  0  0  0  0  0
  183.4370  171.7030  136.8830 C   0  0  0  0  0  3  0  0  0  0  0  0
  182.7620  174.0360  136.6800 C   0  0  0  0  0  0  0  0  0  0  0  0
  180.4470  174.5050  137.0380 F   0  0  0  0  0  0  0  0  0  0  0  0
  181.6820  175.1000  136.8010 C   0  0  0  0  0  0  0  0  0  0  0  0
  181.6020  175.7600  135.5880 F   0  0  0  0  0  0  0  0  0  0  0  0
  181.5960  175.5690  139.0510 C   0  0  0  0  0  1  0  0  0  0  0  0
  181.9820  176.0650  137.7930 O   0  0  0  0  0  0  0  0  0  0  0  0
  190.5190  178.1910  143.2690 C   0  0  0  0  0  2  0  0  0  0  0  0
  191.1700  178.0680  144.5620 N   0  0  0  0  0  2  0  0  0  0  0  0
  191.2300  176.6470  144.8710 C   0  0  0  0  0  2  0  0  0  0  0  0
  191.9140  176.4080  146.2200 C   0  0  2  0  0  3  0  0  0  0  0  0
  192.0770  174.9190  146.4980 C   0  0  0  0  0  2  0  0  0  0  0  0
  192.7110  174.3080  145.4290 F   0  0  0  0  0  0  0  0  0  0  0  0
  191.1640  177.0810  147.3670 C   0  0  0  0  0  2  0  0  0  0  0  0
  189.7180  176.6100  147.4390 C   0  0  0  0  0  2  0  0  0  0  0  0
  187.5470  177.3160  148.4450 O   0  0  0  0  0  0  0  0  0  0  0  0
  188.8740  177.6060  148.1570 C   0  0  0  0  0  0  0  0  0  0  0  0
  189.3710  178.7050  148.5210 O   0  0  0  0  0  1  0  0  0  0  0  0
  185.9650  178.7200  142.6960 N   0  0  0  0  0  2  0  0  0  0  0  0
  184.5550  178.7820  142.9740 C   0  0  0  0  0  0  0  0  0  0  0  0
  182.2600  178.7820  142.1810 C   0  0  0  0  0  0  0  0  0  0  0  0
  183.0740  178.7930  139.4840 O   0  0  0  0  0  0  0  0  0  0  0  0
  184.0390  178.8570  144.2870 C   0  0  0  0  0  0  0  0  0  0  0  0
  181.2480  178.6630  141.0780 C   0  0  0  0  0  2  0  0  0  0  0  0
  184.0390  178.6280  140.4760 C   0  0  0  0  0  0  0  0  0  0  0  0
  181.8350  178.8530  143.4650 N   0  0  0  0  0  0  0  0  0  0  0  0
  183.6370  178.7300  141.9050 C   0  0  0  0  0  0  0  0  0  0  0  0
  184.8910  178.9200  145.4270 N   0  0  0  0  0  1  0  0  0  0  0  0
  185.2230  178.3640  140.1420 O   0  0  0  0  0  0  0  0  0  0  0  0
  181.7780  179.3030  139.7980 C   0  0  0  0  0  2  0  0  0  0  0  0
  182.6950  178.8940  144.4790 N   0  0  0  0  0  0  0  0  0  0  0  0
  1  2  1  0  0  0  0
  3  2  1  0  0  0  0
  4 40  1  1  0  0  0
  4  1  1  0  0  0  0
  5  4  1  0  0  0  0
  5  3  2  0  0  0  0
  6  8  2  0  0  0  0
  7  8  1  0  0  0  0
  8  5  1  0  0  0  0
  9  7  1  0  0  0  0
 10 12  2  0  0  0  0
 11  9  1  0  0  0  0
 12 11  1  0  0  0  0
 14 13  1  0  0  0  0
 14 12  1  1  0  0  0
 15 14  1  0  0  0  0
 16 15  1  0  0  0  0
 16 17  1  0  0  0  0
 17 20  1  1  0  0  0
 17 13  1  0  0  0  0
 19 20  2  0  0  0  0
 19 21  1  0  0  0  0
 20 23  1  0  0  0  0
 21 22  2  0  0  0  0
 22 18  1  0  0  0  0
 23 25  1  0  0  0  0
 23 18  2  0  0  0  0
 25 24  1  0  0  0  0
 25 28  1  0  0  0  0
 26 25  1  0  0  0  0
 28 27  1  0  0  0  0
 29  3  1  0  0  0  0
 29 30  1  0  0  0  0
 30 31  1  0  0  0  0
 32 31  1  6  0  0  0
 32 33  1  0  0  0  0
 32 35  1  0  0  0  0
 34 33  1  0  0  0  0
 35 36  1  0  0  0  0
 36 38  1  0  0  0  0
 38 37  2  0  0  0  0
 38 39  1  0  0  0  0
 40 41  1  0  0  0  0
 41 44  1  0  0  0  0
 42 47  2  0  0  0  0
 43 51  1  0  0  0  0
 43 46  1  0  0  0  0
 44 52  2  0  0  0  0
 44 49  1  0  0  0  0
 45 42  1  0  0  0  0
 46 48  1  0  0  0  0
 47 52  1  0  0  0  0
 48 42  1  0  0  0  0
 48 41  2  0  0  0  0
 50 46  2  0  0  0  0
 51 45  1  0  0  0  0
M  END
>  <MODEL>
4

>  <REMARK>
 VINA RESULT:      -8.0      4.575      8.510
  Name = 
  17 active torsions:
  status: ('A' for Active; 'I' for Inactive)
    1  A    between atoms: C_2  and  N_42
    2  A    between atoms: C_4  and  O_28
    3  A    between atoms: C_4  and  C_48
    4  A    between atoms: C_8  and  C_32
    5  A    between atoms: C_9  and  C_32
    6  A    between atoms: C_9  and  N_39
    7  A    between atoms: C_10  and  N_39
    8  A    between atoms: C_10  and  C_44
    9  A    between atoms: N_12  and  C_33
   10  A    between atoms: C_16  and  C_25
   11  A    between atoms: C_20  and  C_52
   12  A    between atoms: C_23  and  C_31
   13  A    between atoms: C_23  and  C_34
   14  A    between atoms: C_32  and  C_34
   15  A    between atoms: C_33  and  N_37
   16  A    between atoms: N_42  and  C_45
   17  A    between atoms: C_43  and  C_47
                            x       y       z     vdW  Elec       q    Type
                         _______ _______ _______ _____ _____    ______ ____

>  <TORSDO>
F 17

$$$$
=
 OpenBabel10232409233D

 52 56  0  0  1  0  0  0  0  0999 V2000
  190.0000  176.4590  141.7310 O   0  0  0  0  0  0  0  0  0  0  0  0
  190.4820  176.8830  140.4740 C   0  0  0  0  0  2  0  0  0  0  0  0
  189.4170  177.6910  139.8350 C   0  0  0  0  0  0  0  0  0  0  0  0
  188.7420  177.0750  141.9170 C   0  0  2  0  0  3  0  0  0  0  0  0
  188.4110  177.7980  140.6680 C   0  0  0  0  0  0  0  0  0  0  0  0
  186.6930  179.3460  141.2740 O   0  0  0  0  0  0  0  0  0  0  0  0
  186.3750  178.1940  139.2650 N   0  0  0  0  0  2  0  0  0  0  0  0
  187.1320  178.5040  140.4380 C   0  0  0  0  0  0  0  0  0  0  0  0
  185.0890  178.8100  138.9840 C   0  0  0  0  0  2  0  0  0  0  0  0
  183.1060  177.0300  139.9810 O   0  0  0  0  0  0  0  0  0  0  0  0
  184.2920  177.9090  138.1660 N   0  0  0  0  0  2  0  0  0  0  0  0
  183.3270  177.0210  138.7370 C   0  0  0  0  0  0  0  0  0  0  0  0
  183.1910  174.7530  137.7880 C   0  0  0  0  0  2  0  0  0  0  0  0
  182.5400  176.1170  137.8430 C   0  0  2  0  0  3  0  0  0  0  0  0
  182.4680  176.6730  136.4230 C   0  0  0  0  0  2  0  0  0  0  0  0
  182.5140  175.3010  135.2260 S   0  0  0  0  0  0  0  0  0  0  0  0
  182.6430  174.0690  136.5560 C   0  0  1  0  0  3  0  0  0  0  0  0
  183.7420  170.5280  135.6310 C   0  0  0  0  0  3  0  0  0  0  0  0
  184.8690  173.0560  135.9820 C   0  0  0  0  0  3  0  0  0  0  0  0
  183.4830  172.8910  136.1460 C   0  0  0  0  0  0  0  0  0  0  0  0
  185.6810  171.9740  135.6440 C   0  0  0  0  0  3  0  0  0  0  0  0
  185.1180  170.7080  135.4730 C   0  0  0  0  0  3  0  0  0  0  0  0
  182.9050  171.6120  135.9500 C   0  0  0  0  0  0  0  0  0  0  0  0
  180.6960  172.3580  135.4290 F   0  0  0  0  0  0  0  0  0  0  0  0
  181.4120  171.3890  136.1260 C   0  0  0  0  0  0  0  0  0  0  0  0
  181.1190  171.5390  137.4700 F   0  0  0  0  0  0  0  0  0  0  0  0
  179.9820  170.1810  134.7900 C   0  0  0  0  0  1  0  0  0  0  0  0
  181.0100  170.0860  135.7450 O   0  0  0  0  0  0  0  0  0  0  0  0
  189.4950  178.2980  138.4650 C   0  0  0  0  0  2  0  0  0  0  0  0
  189.1310  177.3310  137.4440 N   0  0  0  0  0  2  0  0  0  0  0  0
  190.3720  176.8710  136.8380 C   0  0  0  0  0  2  0  0  0  0  0  0
  190.2450  175.4210  136.3610 C   0  0  2  0  0  3  0  0  0  0  0  0
  189.2050  174.6640  137.1780 C   0  0  0  0  0  2  0  0  0  0  0  0
  189.4580  173.3030  137.1170 F   0  0  0  0  0  0  0  0  0  0  0  0
  191.5830  174.6890  136.3980 C   0  0  0  0  0  2  0  0  0  0  0  0
  192.3170  174.9330  137.7100 C   0  0  0  0  0  2  0  0  0  0  0  0
  194.0920  173.2820  137.1270 O   0  0  0  0  0  0  0  0  0  0  0  0
  193.7490  174.5430  137.5940 C   0  0  0  0  0  0  0  0  0  0  0  0
  194.6510  175.3680  137.9010 O   0  0  0  0  0  1  0  0  0  0  0  0
  188.8180  178.0160  143.0270 N   0  0  0  0  0  2  0  0  0  0  0  0
  188.4890  177.7550  144.4030 C   0  0  0  0  0  0  0  0  0  0  0  0
  189.2030  177.3170  146.6820 C   0  0  0  0  0  0  0  0  0  0  0  0
  191.9150  177.1920  145.9280 O   0  0  0  0  0  0  0  0  0  0  0  0
  187.1590  177.7170  144.8750 C   0  0  0  0  0  0  0  0  0  0  0  0
  190.2780  177.1720  147.7210 C   0  0  0  0  0  2  0  0  0  0  0  0
  190.9730  177.5990  144.9840 C   0  0  0  0  0  0  0  0  0  0  0  0
  187.9050  177.2940  147.0660 N   0  0  0  0  0  0  0  0  0  0  0  0
  189.5270  177.5630  145.3380 C   0  0  0  0  0  0  0  0  0  0  0  0
  186.0460  177.8940  144.0040 N   0  0  0  0  0  1  0  0  0  0  0  0
  191.3670  178.0170  143.8650 O   0  0  0  0  0  0  0  0  0  0  0  0
  191.5150  176.5130  147.1180 C   0  0  0  0  0  2  0  0  0  0  0  0
  186.9190  177.4830  146.1920 N   0  0  0  0  0  0  0  0  0  0  0  0
  1  4  1  0  0  0  0
  2  1  1  0  0  0  0
  3  2  1  0  0  0  0
  3  5  2  0  0  0  0
  4 40  1  1  0  0  0
  5  4  1  0  0  0  0
  7  8  1  0  0  0  0
  8  5  1  0  0  0  0
  8  6  2  0  0  0  0
  9  7  1  0  0  0  0
 11 12  1  0  0  0  0
 11  9  1  0  0  0  0
 12 10  2  0  0  0  0
 13 14  1  0  0  0  0
 14 12  1  1  0  0  0
 15 14  1  0  0  0  0
 16 15  1  0  0  0  0
 16 17  1  0  0  0  0
 17 20  1  6  0  0  0
 17 13  1  0  0  0  0
 18 23  1  0  0  0  0
 19 20  1  0  0  0  0
 21 19  2  0  0  0  0
 22 18  2  0  0  0  0
 22 21  1  0  0  0  0
 23 25  1  0  0  0  0
 23 20  2  0  0  0  0
 24 25  1  0  0  0  0
 25 26  1  0  0  0  0
 27 28  1  0  0  0  0
 28 25  1  0  0  0  0
 29  3  1  0  0  0  0
 30 29  1  0  0  0  0
 31 30  1  0  0  0  0
 32 35  1  1  0  0  0
 32 31  1  0  0  0  0
 32 33  1  0  0  0  0
 34 33  1  0  0  0  0
 35 36  1  0  0  0  0
 37 38  2  0  0  0  0
 38 36  1  0  0  0  0
 38 39  1  0  0  0  0
 40 41  1  0  0  0  0
 41 44  2  0  0  0  0
 41 48  1  0  0  0  0
 42 47  1  0  0  0  0
 42 45  1  0  0  0  0
 43 51  1  0  0  0  0
 44 52  1  0  0  0  0
 46 48  1  0  0  0  0
 46 43  1  0  0  0  0
 48 42  2  0  0  0  0
 49 44  1  0  0  0  0
 50 46  2  0  0  0  0
 51 45  1  0  0  0  0
 52 47  2  0  0  0  0
M  END
>  <MODEL>
5

>  <REMARK>
 VINA RESULT:      -7.7      4.158      8.574
  Name = 
  17 active torsions:
  status: ('A' for Active; 'I' for Inactive)
    1  A    between atoms: C_2  and  N_42
    2  A    between atoms: C_4  and  O_28
    3  A    between atoms: C_4  and  C_48
    4  A    between atoms: C_8  and  C_32
    5  A    between atoms: C_9  and  C_32
    6  A    between atoms: C_9  and  N_39
    7  A    between atoms: C_10  and  N_39
    8  A    between atoms: C_10  and  C_44
    9  A    between atoms: N_12  and  C_33
   10  A    between atoms: C_16  and  C_25
   11  A    between atoms: C_20  and  C_52
   12  A    between atoms: C_23  and  C_31
   13  A    between atoms: C_23  and  C_34
   14  A    between atoms: C_32  and  C_34
   15  A    between atoms: C_33  and  N_37
   16  A    between atoms: N_42  and  C_45
   17  A    between atoms: C_43  and  C_47
                            x       y       z     vdW  Elec       q    Type
                         _______ _______ _______ _____ _____    ______ ____

>  <TORSDO>
F 17

$$$$
=
 OpenBabel10232409233D

 52 56  0  0  1  0  0  0  0  0999 V2000
  186.5060  177.4350  144.0640 O   0  0  0  0  0  0  0  0  0  0  0  0
  187.7660  177.6990  144.6440 C   0  0  0  0  0  2  0  0  0  0  0  0
  188.7120  178.0010  143.5450 C   0  0  0  0  0  0  0  0  0  0  0  0
  186.6350  177.6800  142.6780 C   0  0  2  0  0  3  0  0  0  0  0  0
  188.0590  177.9860  142.4100 C   0  0  0  0  0  0  0  0  0  0  0  0
  188.5840  179.3690  140.5310 O   0  0  0  0  0  0  0  0  0  0  0  0
  189.1490  177.1090  140.3340 N   0  0  0  0  0  2  0  0  0  0  0  0
  188.6100  178.2180  141.0580 C   0  0  0  0  0  0  0  0  0  0  0  0
  189.6720  177.2410  138.9850 C   0  0  0  0  0  2  0  0  0  0  0  0
  189.7800  175.4670  136.7630 O   0  0  0  0  0  0  0  0  0  0  0  0
  190.7050  176.2400  138.7680 N   0  0  0  0  0  2  0  0  0  0  0  0
  190.6850  175.3620  137.6390 C   0  0  0  0  0  0  0  0  0  0  0  0
  193.1030  175.0510  137.2940 C   0  0  0  0  0  2  0  0  0  0  0  0
  191.7740  174.3520  137.4740 C   0  0  2  0  0  3  0  0  0  0  0  0
  191.5260  173.4690  136.2530 C   0  0  0  0  0  2  0  0  0  0  0  0
  193.1150  173.0600  135.4610 S   0  0  0  0  0  0  0  0  0  0  0  0
  194.0410  174.0330  136.6850 C   0  0  1  0  0  3  0  0  0  0  0  0
  197.6570  175.0690  136.0080 C   0  0  0  0  0  3  0  0  0  0  0  0
  195.0970  175.6090  135.0370 C   0  0  0  0  0  3  0  0  0  0  0  0
  195.2570  174.6800  136.0800 C   0  0  0  0  0  0  0  0  0  0  0  0
  196.2020  176.2570  134.4840 C   0  0  0  0  0  3  0  0  0  0  0  0
  197.4820  175.9910  134.9740 C   0  0  0  0  0  3  0  0  0  0  0  0
  196.5570  174.3900  136.5630 C   0  0  0  0  0  0  0  0  0  0  0  0
  198.1070  173.4040  138.0900 F   0  0  0  0  0  0  0  0  0  0  0  0
  196.7720  173.3990  137.6960 C   0  0  0  0  0  0  0  0  0  0  0  0
  196.4850  172.1360  137.2110 F   0  0  0  0  0  0  0  0  0  0  0  0
  196.4660  174.6550  139.5980 C   0  0  0  0  0  1  0  0  0  0  0  0
  195.9150  173.6400  138.7960 O   0  0  0  0  0  0  0  0  0  0  0  0
  190.1740  178.2930  143.7170 C   0  0  0  0  0  2  0  0  0  0  0  0
  190.9370  177.0650  143.8660 N   0  0  0  0  0  2  0  0  0  0  0  0
  190.4450  176.4060  145.0670 C   0  0  0  0  0  2  0  0  0  0  0  0
  191.3650  176.6850  146.2590 C   0  0  2  0  0  3  0  0  0  0  0  0
  192.0700  175.4150  146.7190 C   0  0  0  0  0  2  0  0  0  0  0  0
  193.0980  175.7350  147.5900 F   0  0  0  0  0  0  0  0  0  0  0  0
  190.6120  177.3230  147.4240 C   0  0  0  0  0  2  0  0  0  0  0  0
  189.1600  176.8660  147.4660 C   0  0  0  0  0  2  0  0  0  0  0  0
  187.0130  178.0700  147.8640 O   0  0  0  0  0  0  0  0  0  0  0  0
  188.3270  177.8270  148.2400 C   0  0  0  0  0  0  0  0  0  0  0  0
  188.8100  178.4050  149.2500 O   0  0  0  0  0  1  0  0  0  0  0  0
  185.8060  178.8190  142.3050 N   0  0  0  0  0  2  0  0  0  0  0  0
  184.5510  178.7790  141.6020 C   0  0  0  0  0  0  0  0  0  0  0  0
  182.1240  178.8170  141.6420 C   0  0  0  0  0  0  0  0  0  0  0  0
  182.0580  178.7950  144.4590 O   0  0  0  0  0  0  0  0  0  0  0  0
  184.4680  178.7110  140.1940 C   0  0  0  0  0  0  0  0  0  0  0  0
  180.8210  178.9530  142.3750 C   0  0  0  0  0  2  0  0  0  0  0  0
  183.2870  178.9450  143.8160 C   0  0  0  0  0  0  0  0  0  0  0  0
  182.1180  178.7500  140.2900 N   0  0  0  0  0  0  0  0  0  0  0  0
  183.3470  178.8470  142.3320 C   0  0  0  0  0  0  0  0  0  0  0  0
  185.6310  178.6330  139.3750 N   0  0  0  0  0  1  0  0  0  0  0  0
  184.3120  179.1900  144.5030 O   0  0  0  0  0  0  0  0  0  0  0  0
  180.9160  178.3060  143.7550 C   0  0  0  0  0  2  0  0  0  0  0  0
  183.2500  178.6950  139.5920 N   0  0  0  0  0  0  0  0  0  0  0  0
  1  2  1  0  0  0  0
  3 29  1  0  0  0  0
  3  2  1  0  0  0  0
  4 40  1  1  0  0  0
  4  1  1  0  0  0  0
  5  4  1  0  0  0  0
  5  3  2  0  0  0  0
  6  8  2  0  0  0  0
  7  8  1  0  0  0  0
  8  5  1  0  0  0  0
  9  7  1  0  0  0  0
 10 12  2  0  0  0  0
 11  9  1  0  0  0  0
 12 11  1  0  0  0  0
 13 14  1  0  0  0  0
 14 12  1  6  0  0  0
 15 14  1  0  0  0  0
 16 15  1  0  0  0  0
 16 17  1  0  0  0  0
 17 20  1  6  0  0  0
 17 13  1  0  0  0  0
 18 23  1  0  0  0  0
 19 20  1  0  0  0  0
 20 23  2  0  0  0  0
 21 22  1  0  0  0  0
 21 19  2  0  0  0  0
 22 18  2  0  0  0  0
 23 25  1  0  0  0  0
 25 24  1  0  0  0  0
 25 28  1  0  0  0  0
 26 25  1  0  0  0  0
 28 27  1  0  0  0  0
 29 30  1  0  0  0  0
 30 31  1  0  0  0  0
 32 31  1  6  0  0  0
 32 33  1  0  0  0  0
 32 35  1  0  0  0  0
 33 34  1  0  0  0  0
 35 36  1  0  0  0  0
 36 38  1  0  0  0  0
 37 38  2  0  0  0  0
 38 39  1  0  0  0  0
 41 40  1  0  0  0  0
 41 48  1  0  0  0  0
 42 48  2  0  0  0  0
 42 45  1  0  0  0  0
 44 41  2  0  0  0  0
 45 51  1  0  0  0  0
 46 43  1  0  0  0  0
 46 50  2  0  0  0  0
 47 42  1  0  0  0  0
 48 46  1  0  0  0  0
 49 44  1  0  0  0  0
 51 43  1  0  0  0  0
 52 44  1  0  0  0  0
 52 47  2  0  0  0  0
M  END
>  <MODEL>
6

>  <REMARK>
 VINA RESULT:      -7.6      4.027     11.048
  Name = 
  17 active torsions:
  status: ('A' for Active; 'I' for Inactive)
    1  A    between atoms: C_2  and  N_42
    2  A    between atoms: C_4  and  O_28
    3  A    between atoms: C_4  and  C_48
    4  A    between atoms: C_8  and  C_32
    5  A    between atoms: C_9  and  C_32
    6  A    between atoms: C_9  and  N_39
    7  A    between atoms: C_10  and  N_39
    8  A    between atoms: C_10  and  C_44
    9  A    between atoms: N_12  and  C_33
   10  A    between atoms: C_16  and  C_25
   11  A    between atoms: C_20  and  C_52
   12  A    between atoms: C_23  and  C_31
   13  A    between atoms: C_23  and  C_34
   14  A    between atoms: C_32  and  C_34
   15  A    between atoms: C_33  and  N_37
   16  A    between atoms: N_42  and  C_45
   17  A    between atoms: C_43  and  C_47
                            x       y       z     vdW  Elec       q    Type
                         _______ _______ _______ _____ _____    ______ ____

>  <TORSDO>
F 17

$$$$
=
 OpenBabel10232409233D

 52 56  0  0  1  0  0  0  0  0999 V2000
  183.5150  177.6120  136.2860 O   0  0  0  0  0  0  0  0  0  0  0  0
  184.1120  176.9190  135.2110 C   0  0  0  0  0  2  0  0  0  0  0  0
  185.5480  176.7470  135.5300 C   0  0  0  0  0  0  0  0  0  0  0  0
  184.5080  177.7570  137.2810 C   0  0  2  0  0  3  0  0  0  0  0  0
  185.7770  177.2340  136.7240 C   0  0  0  0  0  0  0  0  0  0  0  0
  187.5830  176.2450  137.9390 O   0  0  0  0  0  0  0  0  0  0  0  0
  187.7300  178.5490  137.5750 N   0  0  0  0  0  2  0  0  0  0  0  0
  187.0720  177.2870  137.4350 C   0  0  0  0  0  0  0  0  0  0  0  0
  188.9840  178.6970  138.2940 C   0  0  0  0  0  2  0  0  0  0  0  0
  189.8370  176.9070  140.3360 O   0  0  0  0  0  0  0  0  0  0  0  0
  188.7100  178.8600  139.7140 N   0  0  0  0  0  2  0  0  0  0  0  0
  189.1490  177.9080  140.6860 C   0  0  0  0  0  0  0  0  0  0  0  0
  190.0220  177.7490  142.9830 C   0  0  0  0  0  2  0  0  0  0  0  0
  188.8330  178.1310  142.1300 C   0  0  2  0  0  3  0  0  0  0  0  0
  187.6370  177.2910  142.5680 C   0  0  0  0  0  2  0  0  0  0  0  0
  187.8800  176.7280  144.2830 S   0  0  0  0  0  0  0  0  0  0  0  0
  189.4950  177.5560  144.3860 C   0  0  1  0  0  3  0  0  0  0  0  0
  191.4010  176.2290  147.4210 C   0  0  0  0  0  3  0  0  0  0  0  0
  191.4210  175.9640  144.6440 C   0  0  0  0  0  3  0  0  0  0  0  0
  190.4600  176.7910  145.2500 C   0  0  0  0  0  0  0  0  0  0  0  0
  192.3570  175.2740  145.4150 C   0  0  0  0  0  3  0  0  0  0  0  0
  192.3500  175.4120  146.8040 C   0  0  0  0  0  3  0  0  0  0  0  0
  190.4360  176.9130  146.6610 C   0  0  0  0  0  0  0  0  0  0  0  0
  189.1350  178.9150  146.5640 F   0  0  0  0  0  0  0  0  0  0  0  0
  189.4190  177.8060  147.3550 C   0  0  0  0  0  0  0  0  0  0  0  0
  189.9920  178.2650  148.5280 F   0  0  0  0  0  0  0  0  0  0  0  0
  187.4740  177.9020  148.5790 C   0  0  0  0  0  1  0  0  0  0  0  0
  188.2350  177.1100  147.7020 O   0  0  0  0  0  0  0  0  0  0  0  0
  186.5630  176.1010  134.6330 C   0  0  0  0  0  2  0  0  0  0  0  0
  186.3620  174.6640  134.5660 N   0  0  0  0  0  2  0  0  0  0  0  0
  187.3850  174.0560  135.4050 C   0  0  0  0  0  2  0  0  0  0  0  0
  186.8610  172.7790  136.0680 C   0  0  2  0  0  3  0  0  0  0  0  0
  187.6850  171.5660  135.6530 C   0  0  0  0  0  2  0  0  0  0  0  0
  188.8490  171.9790  135.0280 F   0  0  0  0  0  0  0  0  0  0  0  0
  185.3840  172.5440  135.7660 C   0  0  0  0  0  2  0  0  0  0  0  0
  184.4940  173.0890  136.8750 C   0  0  0  0  0  2  0  0  0  0  0  0
  182.0670  173.0520  136.3060 O   0  0  0  0  0  0  0  0  0  0  0  0
  183.1660  172.4150  136.8650 C   0  0  0  0  0  0  0  0  0  0  0  0
  183.0450  171.2580  137.3480 O   0  0  0  0  0  1  0  0  0  0  0  0
  184.1330  176.9880  138.4610 N   0  0  0  0  0  2  0  0  0  0  0  0
  182.9910  177.2100  139.3080 C   0  0  0  0  0  0  0  0  0  0  0  0
  182.0180  178.2090  141.2950 C   0  0  0  0  0  0  0  0  0  0  0  0
  184.5180  179.1620  142.1780 O   0  0  0  0  0  0  0  0  0  0  0  0
  181.7060  176.7110  139.0010 C   0  0  0  0  0  0  0  0  0  0  0  0
  182.1150  179.0830  142.5120 C   0  0  0  0  0  2  0  0  0  0  0  0
  184.4260  178.5910  140.9090 C   0  0  0  0  0  0  0  0  0  0  0  0
  180.8150  177.7000  140.9400 N   0  0  0  0  0  0  0  0  0  0  0  0
  183.1370  177.9860  140.4760 C   0  0  0  0  0  0  0  0  0  0  0  0
  181.4660  175.9140  137.8460 N   0  0  0  0  0  1  0  0  0  0  0  0
  185.4260  178.6300  140.1450 O   0  0  0  0  0  0  0  0  0  0  0  0
  183.4950  178.9550  143.1520 C   0  0  0  0  0  2  0  0  0  0  0  0
  180.6660  176.9750  139.8350 N   0  0  0  0  0  0  0  0  0  0  0  0
  1  4  1  0  0  0  0
  2  3  1  0  0  0  0
  2  1  1  0  0  0  0
  3  5  2  0  0  0  0
  4 40  1  1  0  0  0
  5  4  1  0  0  0  0
  5  8  1  0  0  0  0
  7  9  1  0  0  0  0
  8  7  1  0  0  0  0
  8  6  2  0  0  0  0
  9 11  1  0  0  0  0
 10 12  2  0  0  0  0
 11 12  1  0  0  0  0
 13 17  1  0  0  0  0
 14 12  1  6  0  0  0
 14 15  1  0  0  0  0
 14 13  1  0  0  0  0
 15 16  1  0  0  0  0
 16 17  1  0  0  0  0
 17 20  1  1  0  0  0
 19 20  2  0  0  0  0
 19 21  1  0  0  0  0
 20 23  1  0  0  0  0
 21 22  2  0  0  0  0
 22 18  1  0  0  0  0
 23 25  1  0  0  0  0
 23 18  2  0  0  0  0
 24 25  1  0  0  0  0
 25 28  1  0  0  0  0
 25 26  1  0  0  0  0
 28 27  1  0  0  0  0
 29  3  1  0  0  0  0
 30 29  1  0  0  0  0
 30 31  1  0  0  0  0
 32 31  1  6  0  0  0
 33 32  1  0  0  0  0
 34 33  1  0  0  0  0
 35 32  1  0  0  0  0
 35 36  1  0  0  0  0
 37 38  2  0  0  0  0
 38 36  1  0  0  0  0
 38 39  1  0  0  0  0
 40 41  1  0  0  0  0
 41 48  1  0  0  0  0
 42 45  1  0  0  0  0
 43 51  1  0  0  0  0
 44 41  2  0  0  0  0
 44 52  1  0  0  0  0
 45 51  1  0  0  0  0
 46 43  1  0  0  0  0
 47 42  1  0  0  0  0
 48 46  1  0  0  0  0
 48 42  2  0  0  0  0
 49 44  1  0  0  0  0
 50 46  2  0  0  0  0
 52 47  2  0  0  0  0
M  END
>  <MODEL>
7

>  <REMARK>
 VINA RESULT:      -7.5      4.822     10.309
  Name = 
  17 active torsions:
  status: ('A' for Active; 'I' for Inactive)
    1  A    between atoms: C_2  and  N_42
    2  A    between atoms: C_4  and  O_28
    3  A    between atoms: C_4  and  C_48
    4  A    between atoms: C_8  and  C_32
    5  A    between atoms: C_9  and  C_32
    6  A    between atoms: C_9  and  N_39
    7  A    between atoms: C_10  and  N_39
    8  A    between atoms: C_10  and  C_44
    9  A    between atoms: N_12  and  C_33
   10  A    between atoms: C_16  and  C_25
   11  A    between atoms: C_20  and  C_52
   12  A    between atoms: C_23  and  C_31
   13  A    between atoms: C_23  and  C_34
   14  A    between atoms: C_32  and  C_34
   15  A    between atoms: C_33  and  N_37
   16  A    between atoms: N_42  and  C_45
   17  A    between atoms: C_43  and  C_47
                            x       y       z     vdW  Elec       q    Type
                         _______ _______ _______ _____ _____    ______ ____

>  <TORSDO>
F 17

$$$$
=
 OpenBabel10232409233D

 52 56  0  0  1  0  0  0  0  0999 V2000
  189.0590  172.7130  135.6410 O   0  0  0  0  0  0  0  0  0  0  0  0
  187.9620  173.2430  134.9290 C   0  0  0  0  0  2  0  0  0  0  0  0
  187.8740  174.6870  135.2490 C   0  0  0  0  0  0  0  0  0  0  0  0
  189.6970  173.8010  136.2790 C   0  0  2  0  0  3  0  0  0  0  0  0
  188.8740  175.0080  136.0310 C   0  0  0  0  0  0  0  0  0  0  0  0
  189.6710  177.2580  135.9000 O   0  0  0  0  0  0  0  0  0  0  0  0
  188.9040  176.5600  137.9950 N   0  0  0  0  0  2  0  0  0  0  0  0
  189.1680  176.3370  136.6080 C   0  0  0  0  0  0  0  0  0  0  0  0
  189.2020  177.8230  138.6500 C   0  0  0  0  0  2  0  0  0  0  0  0
  191.5710  177.1580  140.0780 O   0  0  0  0  0  0  0  0  0  0  0  0
  189.2770  177.6140  140.0880 N   0  0  0  0  0  2  0  0  0  0  0  0
  190.4990  177.2580  140.7390 C   0  0  0  0  0  0  0  0  0  0  0  0
  189.0950  177.0390  142.7500 C   0  0  0  0  0  2  0  0  0  0  0  0
  190.5110  177.0540  142.2210 C   0  0  2  0  0  3  0  0  0  0  0  0
  191.2750  178.1730  142.9240 C   0  0  0  0  0  2  0  0  0  0  0  0
  190.4770  178.5500  144.5180 S   0  0  0  0  0  0  0  0  0  0  0  0
  189.1920  177.2950  144.2360 C   0  0  1  0  0  3  0  0  0  0  0  0
  186.3870  178.0380  146.7230 C   0  0  0  0  0  3  0  0  0  0  0  0
  186.8200  178.0770  143.9670 C   0  0  0  0  0  3  0  0  0  0  0  0
  187.8710  177.7090  144.8240 C   0  0  0  0  0  0  0  0  0  0  0  0
  185.5700  178.4250  144.4790 C   0  0  0  0  0  3  0  0  0  0  0  0
  185.3520  178.4000  145.8580 C   0  0  0  0  0  3  0  0  0  0  0  0
  187.6590  177.7070  146.2250 C   0  0  0  0  0  0  0  0  0  0  0  0
  188.2510  176.5190  148.2110 F   0  0  0  0  0  0  0  0  0  0  0  0
  188.7670  177.3060  147.1860 C   0  0  0  0  0  0  0  0  0  0  0  0
  189.2680  178.4610  147.7580 F   0  0  0  0  0  0  0  0  0  0  0  0
  190.8270  176.3260  147.4800 C   0  0  0  0  0  1  0  0  0  0  0  0
  189.8400  176.6530  146.5340 O   0  0  0  0  0  0  0  0  0  0  0  0
  186.8180  175.6240  134.7390 C   0  0  0  0  0  2  0  0  0  0  0  0
  185.5180  175.3020  135.3030 N   0  0  0  0  0  2  0  0  0  0  0  0
  185.5910  175.5990  136.7260 C   0  0  0  0  0  2  0  0  0  0  0  0
  184.2950  176.2530  137.2160 C   0  0  2  0  0  3  0  0  0  0  0  0
  183.2160  176.2060  136.1410 C   0  0  0  0  0  2  0  0  0  0  0  0
  181.9630  176.2570  136.7300 F   0  0  0  0  0  0  0  0  0  0  0  0
  184.5200  177.6900  137.6770 C   0  0  0  0  0  2  0  0  0  0  0  0
  183.9840  177.9150  139.0840 C   0  0  0  0  0  2  0  0  0  0  0  0
  185.0170  179.2360  140.9290 O   0  0  0  0  0  1  0  0  0  0  0  0
  184.4930  179.1970  139.6440 C   0  0  0  0  0  0  0  0  0  0  0  0
  184.4660  180.2440  138.9430 O   0  0  0  0  0  0  0  0  0  0  0  0
  191.0270  173.9870  135.7140 N   0  0  0  0  0  2  0  0  0  0  0  0
  192.1820  173.1590  135.9390 C   0  0  0  0  0  0  0  0  0  0  0  0
  194.2890  172.7650  137.0800 C   0  0  0  0  0  0  0  0  0  0  0  0
  194.2120  175.2880  138.3320 O   0  0  0  0  0  0  0  0  0  0  0  0
  192.3610  171.9100  135.3040 C   0  0  0  0  0  0  0  0  0  0  0  0
  195.3280  173.1450  138.0950 C   0  0  0  0  0  2  0  0  0  0  0  0
  193.0970  174.8600  137.6110 C   0  0  0  0  0  0  0  0  0  0  0  0
  194.3960  171.5790  136.4350 N   0  0  0  0  0  0  0  0  0  0  0  0
  193.1670  173.5800  136.8550 C   0  0  0  0  0  0  0  0  0  0  0  0
  191.4210  171.4060  134.3590 N   0  0  0  0  0  1  0  0  0  0  0  0
  192.0460  175.5510  137.6420 O   0  0  0  0  0  0  0  0  0  0  0  0
  195.4830  174.6620  138.1560 C   0  0  0  0  0  2  0  0  0  0  0  0
  193.4670  171.1690  135.5760 N   0  0  0  0  0  0  0  0  0  0  0  0
  1  4  1  0  0  0  0
  2  3  1  0  0  0  0
  2  1  1  0  0  0  0
  3  5  2  0  0  0  0
  4 40  1  6  0  0  0
  5  4  1  0  0  0  0
  5  8  1  0  0  0  0
  6  8  2  0  0  0  0
  7  9  1  0  0  0  0
  8  7  1  0  0  0  0
  9 11  1  0  0  0  0
 10 12  2  0  0  0  0
 11 12  1  0  0  0  0
 13 17  1  0  0  0  0
 14 12  1  6  0  0  0
 14 13  1  0  0  0  0
 14 15  1  0  0  0  0
 15 16  1  0  0  0  0
 17 16  1  0  0  0  0
 17 20  1  6  0  0  0
 19 21  2  0  0  0  0
 19 20  1  0  0  0  0
 20 23  2  0  0  0  0
 21 22  1  0  0  0  0
 22 18  2  0  0  0  0
 23 18  1  0  0  0  0
 23 25  1  0  0  0  0
 25 26  1  0  0  0  0
 25 24  1  0  0  0  0
 28 25  1  0  0  0  0
 28 27  1  0  0  0  0
 29  3  1  0  0  0  0
 29 30  1  0  0  0  0
 30 31  1  0  0  0  0
 31 32  1  0  0  0  0
 32 33  1  6  0  0  0
 32 35  1  0  0  0  0
 33 34  1  0  0  0  0
 35 36  1  0  0  0  0
 36 38  1  0  0  0  0
 38 37  1  0  0  0  0
 39 38  2  0  0  0  0
 40 41  1  0  0  0  0
 41 48  1  0  0  0  0
 42 45  1  0  0  0  0
 44 52  1  0  0  0  0
 44 41  2  0  0  0  0
 45 51  1  0  0  0  0
 46 50  2  0  0  0  0
 46 43  1  0  0  0  0
 47 42  1  0  0  0  0
 48 42  2  0  0  0  0
 48 46  1  0  0  0  0
 49 44  1  0  0  0  0
 51 43  1  0  0  0  0
 52 47  2  0  0  0  0
M  END
>  <MODEL>
8

>  <REMARK>
 VINA RESULT:      -7.5      2.736      6.832
  Name = 
  17 active torsions:
  status: ('A' for Active; 'I' for Inactive)
    1  A    between atoms: C_2  and  N_42
    2  A    between atoms: C_4  and  O_28
    3  A    between atoms: C_4  and  C_48
    4  A    between atoms: C_8  and  C_32
    5  A    between atoms: C_9  and  C_32
    6  A    between atoms: C_9  and  N_39
    7  A    between atoms: C_10  and  N_39
    8  A    between atoms: C_10  and  C_44
    9  A    between atoms: N_12  and  C_33
   10  A    between atoms: C_16  and  C_25
   11  A    between atoms: C_20  and  C_52
   12  A    between atoms: C_23  and  C_31
   13  A    between atoms: C_23  and  C_34
   14  A    between atoms: C_32  and  C_34
   15  A    between atoms: C_33  and  N_37
   16  A    between atoms: N_42  and  C_45
   17  A    between atoms: C_43  and  C_47
                            x       y       z     vdW  Elec       q    Type
                         _______ _______ _______ _____ _____    ______ ____

>  <TORSDO>
F 17

$$$$
=
 OpenBabel10232409233D

 52 56  0  0  1  0  0  0  0  0999 V2000
  187.6480  173.4900  135.4610 O   0  0  0  0  0  0  0  0  0  0  0  0
  188.9630  173.0860  135.7760 C   0  0  0  0  0  2  0  0  0  0  0  0
  189.6590  174.2510  136.3710 C   0  0  0  0  0  0  0  0  0  0  0  0
  187.4950  174.8070  135.9490 C   0  0  2  0  0  3  0  0  0  0  0  0
  188.8120  175.2450  136.4680 C   0  0  0  0  0  0  0  0  0  0  0  0
  189.5210  177.5160  136.2320 O   0  0  0  0  0  0  0  0  0  0  0  0
  188.8680  176.8610  138.3790 N   0  0  0  0  0  2  0  0  0  0  0  0
  189.0810  176.6020  136.9890 C   0  0  0  0  0  0  0  0  0  0  0  0
  189.1470  178.1540  138.9810 C   0  0  0  0  0  2  0  0  0  0  0  0
  191.3320  176.9070  140.3100 O   0  0  0  0  0  0  0  0  0  0  0  0
  189.2670  177.9980  140.4230 N   0  0  0  0  0  2  0  0  0  0  0  0
  190.3840  177.3380  141.0240 C   0  0  0  0  0  0  0  0  0  0  0  0
  189.0490  177.1260  143.0830 C   0  0  0  0  0  2  0  0  0  0  0  0
  190.4470  177.2080  142.5130 C   0  0  2  0  0  3  0  0  0  0  0  0
  191.1520  178.4070  143.1410 C   0  0  0  0  0  2  0  0  0  0  0  0
  190.3730  178.8090  144.7370 S   0  0  0  0  0  0  0  0  0  0  0  0
  189.1670  177.4610  144.5520 C   0  0  1  0  0  3  0  0  0  0  0  0
  186.3500  178.0350  147.0700 C   0  0  0  0  0  3  0  0  0  0  0  0
  186.7720  178.1850  144.3160 C   0  0  0  0  0  3  0  0  0  0  0  0
  187.8360  177.8160  145.1570 C   0  0  0  0  0  0  0  0  0  0  0  0
  185.5150  178.4780  144.8440 C   0  0  0  0  0  3  0  0  0  0  0  0
  185.3030  178.3980  146.2220 C   0  0  0  0  0  3  0  0  0  0  0  0
  187.6300  177.7570  146.5580 C   0  0  0  0  0  0  0  0  0  0  0  0
  188.2260  176.9230  148.7160 F   0  0  0  0  0  0  0  0  0  0  0  0
  188.7520  177.3530  147.5010 C   0  0  0  0  0  0  0  0  0  0  0  0
  189.5170  178.4780  147.7530 F   0  0  0  0  0  0  0  0  0  0  0  0
  190.8970  176.5230  147.4750 C   0  0  0  0  0  1  0  0  0  0  0  0
  189.6060  176.3730  146.9400 O   0  0  0  0  0  0  0  0  0  0  0  0
  191.0950  174.2720  136.8060 C   0  0  0  0  0  2  0  0  0  0  0  0
  191.8360  173.1700  136.2160 N   0  0  0  0  0  2  0  0  0  0  0  0
  192.9090  173.7570  135.4280 C   0  0  0  0  0  2  0  0  0  0  0  0
  193.8700  174.5520  136.3180 C   0  0  2  0  0  3  0  0  0  0  0  0
  193.8880  176.0250  135.9290 C   0  0  0  0  0  2  0  0  0  0  0  0
  193.0410  176.7410  136.7590 F   0  0  0  0  0  0  0  0  0  0  0  0
  195.2840  173.9780  136.2840 C   0  0  0  0  0  2  0  0  0  0  0  0
  195.6590  173.3390  137.6140 C   0  0  0  0  0  2  0  0  0  0  0  0
  197.5460  174.8720  138.1660 O   0  0  0  0  0  0  0  0  0  0  0  0
  196.3150  174.3310  138.5100 C   0  0  0  0  0  0  0  0  0  0  0  0
  195.7420  174.6940  139.5720 O   0  0  0  0  0  1  0  0  0  0  0  0
  186.5130  174.8180  137.0250 N   0  0  0  0  0  2  0  0  0  0  0  0
  185.1440  175.2530  136.9380 C   0  0  0  0  0  0  0  0  0  0  0  0
  182.7720  174.7380  137.0140 C   0  0  0  0  0  0  0  0  0  0  0  0
  183.2640  171.9750  137.2560 O   0  0  0  0  0  0  0  0  0  0  0  0
  184.7840  176.6040  136.7390 C   0  0  0  0  0  0  0  0  0  0  0  0
  181.6390  173.7780  137.2370 C   0  0  0  0  0  2  0  0  0  0  0  0
  184.3410  172.8580  137.3270 C   0  0  0  0  0  0  0  0  0  0  0  0
  182.4990  176.0510  136.8220 N   0  0  0  0  0  0  0  0  0  0  0  0
  184.1070  174.3090  137.0910 C   0  0  0  0  0  0  0  0  0  0  0  0
  185.7620  177.6250  136.5690 N   0  0  0  0  0  1  0  0  0  0  0  0
  185.4810  172.4130  137.6210 O   0  0  0  0  0  0  0  0  0  0  0  0
  182.0080  172.3900  136.7200 C   0  0  0  0  0  2  0  0  0  0  0  0
  183.4710  176.9490  136.6850 N   0  0  0  0  0  0  0  0  0  0  0  0
  1  2  1  0  0  0  0
  1  4  1  0  0  0  0
  2  3  1  0  0  0  0
  3  5  2  0  0  0  0
  3 29  1  0  0  0  0
  4  5  1  0  0  0  0
  4 40  1  1  0  0  0
  5  8  1  0  0  0  0
  6  8  2  0  0  0  0
  7  9  1  0  0  0  0
  8  7  1  0  0  0  0
  9 11  1  0  0  0  0
 10 12  2  0  0  0  0
 11 12  1  0  0  0  0
 13 17  1  0  0  0  0
 14 12  1  6  0  0  0
 14 13  1  0  0  0  0
 14 15  1  0  0  0  0
 15 16  1  0  0  0  0
 17 16  1  0  0  0  0
 17 20  1  6  0  0  0
 19 21  2  0  0  0  0
 19 20  1  0  0  0  0
 20 23  2  0  0  0  0
 21 22  1  0  0  0  0
 22 18  2  0  0  0  0
 23 18  1  0  0  0  0
 23 25  1  0  0  0  0
 25 26  1  0  0  0  0
 25 24  1  0  0  0  0
 28 27  1  0  0  0  0
 28 25  1  0  0  0  0
 30 29  1  0  0  0  0
 31 30  1  0  0  0  0
 32 31  1  6  0  0  0
 33 32  1  0  0  0  0
 33 34  1  0  0  0  0
 35 32  1  0  0  0  0
 35 36  1  0  0  0  0
 36 38  1  0  0  0  0
 37 38  2  0  0  0  0
 38 39  1  0  0  0  0
 41 40  1  0  0  0  0
 41 48  1  0  0  0  0
 42 48  2  0  0  0  0
 42 45  1  0  0  0  0
 43 46  1  0  0  0  0
 44 41  2  0  0  0  0
 46 50  2  0  0  0  0
 47 42  1  0  0  0  0
 48 46  1  0  0  0  0
 49 44  1  0  0  0  0
 51 45  1  0  0  0  0
 51 43  1  0  0  0  0
 52 44  1  0  0  0  0
 52 47  2  0  0  0  0
M  END
>  <MODEL>
9

>  <REMARK>
 VINA RESULT:      -7.5      3.551      8.912
  Name = 
  17 active torsions:
  status: ('A' for Active; 'I' for Inactive)
    1  A    between atoms: C_2  and  N_42
    2  A    between atoms: C_4  and  O_28
    3  A    between atoms: C_4  and  C_48
    4  A    between atoms: C_8  and  C_32
    5  A    between atoms: C_9  and  C_32
    6  A    between atoms: C_9  and  N_39
    7  A    between atoms: C_10  and  N_39
    8  A    between atoms: C_10  and  C_44
    9  A    between atoms: N_12  and  C_33
   10  A    between atoms: C_16  and  C_25
   11  A    between atoms: C_20  and  C_52
   12  A    between atoms: C_23  and  C_31
   13  A    between atoms: C_23  and  C_34
   14  A    between atoms: C_32  and  C_34
   15  A    between atoms: C_33  and  N_37
   16  A    between atoms: N_42  and  C_45
   17  A    between atoms: C_43  and  C_47
                            x       y       z     vdW  Elec       q    Type
                         _______ _______ _______ _____ _____    ______ ____

>  <TORSDO>
F 17

$$$$
