=
 OpenBabel10232411203D

 50 53  0  0  1  0  0  0  0  0999 V2000
  190.2540  176.6210  143.7920 C   0  0  0  0  0  0  0  0  0  0  0  0
  191.1770  176.7200  144.8440 C   0  0  0  0  0  3  0  0  0  0  0  0
  188.4410  177.0680  145.3440 C   0  0  0  0  0  0  0  0  0  0  0  0
  190.7360  177.0110  146.1370 C   0  0  0  0  0  3  0  0  0  0  0  0
  189.3740  177.1870  146.3890 C   0  0  0  0  0  3  0  0  0  0  0  0
  188.8900  176.7870  144.0490 C   0  0  0  0  0  3  0  0  0  0  0  0
  187.0660  177.2200  145.5570 O   0  0  0  0  0  0  0  0  0  0  0  0
  186.3590  178.4560  145.4250 C   0  0  2  0  0  3  0  0  0  0  0  0
  184.5760  178.4120  147.0840 N   0  0  0  0  0  1  0  0  0  0  0  0
  185.8780  178.9710  146.7770 C   0  0  0  0  0  2  0  0  0  0  0  0
  185.2310  178.3130  144.4990 N   0  0  0  0  0  2  0  0  0  0  0  0
  185.0090  179.5720  143.7840 C   0  0  0  0  0  2  0  0  0  0  0  0
  184.1820  179.3630  142.5210 C   0  0  1  0  0  3  0  0  0  0  0  0
  184.6200  178.8300  140.0260 C   0  0  0  0  0  0  0  0  0  0  0  0
  186.4130  178.7840  141.3480 C   0  0  0  0  0  3  0  0  0  0  0  0
  186.7900  178.4610  140.1020 N   0  0  0  0  0  0  0  0  0  0  0  0
  188.1470  178.1530  139.6990 C   0  0  0  0  0  1  0  0  0  0  0  0
  185.7260  178.4900  139.2730 C   0  0  0  0  0  3  0  0  0  0  0  0
  185.0440  179.0110  141.3340 C   0  0  0  0  0  0  0  0  0  0  0  0
  183.2200  178.9480  139.5160 C   0  0  0  0  0  2  0  0  0  0  0  0
  182.8040  177.6820  138.7910 C   0  0  0  0  0  2  0  0  0  0  0  0
  182.7610  176.5820  139.7380 N   0  0  0  0  0  2  0  0  0  0  0  0
  181.8600  175.6370  139.2250 N   0  0  0  0  0  2  0  0  0  0  0  0
  179.9820  175.7480  140.3090 C   0  0  0  0  0  1  0  0  0  0  0  0
  180.6470  176.2370  139.1810 O   0  0  0  0  0  0  0  0  0  0  0  0
  183.0650  178.3460  142.7570 C   0  0  0  0  0  2  0  0  0  0  0  0
  180.6880  178.8720  142.3260 C   0  0  0  0  0  1  0  0  0  0  0  0
  181.8290  179.0390  143.3050 C   0  0  0  0  0  2  0  0  0  0  0  0
  190.7090  176.3270  142.4000 C   0  0  0  0  0  2  0  0  0  0  0  0
  191.3710  177.4900  141.8290 N   0  0  0  0  0  2  0  0  0  0  0  0
  191.5150  177.2560  140.3970 C   0  0  0  0  0  2  0  0  0  0  0  0
  192.9560  177.5080  139.9700 C   0  0  0  0  0  2  0  0  0  0  0  0
  193.3410  176.6040  138.8890 N   0  0  0  0  0  2  0  0  0  0  0  0
  192.1390  176.2830  138.1250 C   0  0  0  0  0  2  0  0  0  0  0  0
  194.8930  172.7330  136.2450 O   0  0  0  0  0  1  0  0  0  0  0  0
  191.1030  174.5970  136.5630 C   0  0  2  0  0  3  0  0  0  0  0  0
  191.2190  173.2180  135.8920 C   0  0  0  0  0  2  0  0  0  0  0  0
  192.1510  174.8210  137.6700 C   0  0  1  0  0  3  0  0  0  0  0  0
  193.5530  174.4610  137.1820 C   0  0  0  0  0  2  0  0  0  0  0  0
  193.5890  173.0400  136.6310 C   0  0  1  0  0  3  0  0  0  0  0  0
  192.6480  172.9360  135.4390 C   0  0  0  0  0  2  0  0  0  0  0  0
  189.6700  174.8380  137.0570 C   0  0  0  0  0  2  0  0  0  0  0  0
  188.6070  174.7790  135.9520 C   0  0  0  0  0  2  0  0  0  0  0  0
  186.9560  173.2410  137.0500 C   0  0  0  0  0  3  0  0  0  0  0  0
  184.7510  173.9970  137.6550 C   0  0  0  0  0  3  0  0  0  0  0  0
  187.2370  174.4950  136.5020 C   0  0  0  0  0  0  0  0  0  0  0  0
  186.5000  176.8750  136.0560 C   0  0  0  0  0  1  0  0  0  0  0  0
  185.7070  172.9790  137.6160 C   0  0  0  0  0  3  0  0  0  0  0  0
  185.0400  175.2230  137.1390 N   0  0  0  0  0  0  0  0  0  0  0  0
  186.2440  175.4930  136.5600 C   0  0  0  0  0  0  0  0  0  0  0  0
  1  6  2  0  0  0  0
  1  2  1  0  0  0  0
  2  4  2  0  0  0  0
  3  7  1  0  0  0  0
  3  5  2  0  0  0  0
  4  5  1  0  0  0  0
  6  3  1  0  0  0  0
  8  7  1  0  0  0  0
  8 10  1  1  0  0  0
 10  9  1  0  0  0  0
 11  8  1  0  0  0  0
 12 11  1  0  0  0  0
 13 26  1  1  0  0  0
 13 12  1  0  0  0  0
 14 19  1  0  0  0  0
 16 15  1  0  0  0  0
 17 16  1  0  0  0  0
 18 14  2  0  0  0  0
 18 16  1  0  0  0  0
 19 15  2  0  0  0  0
 19 13  1  0  0  0  0
 20 14  1  0  0  0  0
 21 20  1  0  0  0  0
 21 22  1  0  0  0  0
 23 22  1  0  0  0  0
 25 23  1  0  0  0  0
 25 24  1  0  0  0  0
 26 28  1  0  0  0  0
 27 28  1  0  0  0  0
 29  1  1  0  0  0  0
 30 29  1  0  0  0  0
 31 30  1  0  0  0  0
 32 31  1  0  0  0  0
 33 32  1  0  0  0  0
 34 33  1  0  0  0  0
 36 42  1  1  0  0  0
 36 38  1  0  0  0  0
 37 36  1  0  0  0  0
 38 34  1  6  0  0  0
 39 38  1  0  0  0  0
 40 35  1  6  0  0  0
 40 39  1  0  0  0  0
 41 37  1  0  0  0  0
 41 40  1  0  0  0  0
 43 46  1  0  0  0  0
 43 42  1  0  0  0  0
 44 48  1  0  0  0  0
 46 50  1  0  0  0  0
 46 44  2  0  0  0  0
 47 50  1  0  0  0  0
 48 45  2  0  0  0  0
 49 45  1  0  0  0  0
 50 49  2  0  0  0  0
M  END
>  <MODEL>
1

>  <REMARK>
 VINA RESULT:      -6.5      0.000      0.000
  Name = 
  24 active torsions:
  status: ('A' for Active; 'I' for Inactive)
    1  A    between atoms: N_1  and  N_20
    2  A    between atoms: N_1  and  C_41
    3  A    between atoms: C_2  and  N_6
    4  A    between atoms: C_2  and  C_23
    5  A    between atoms: C_2  and  O_49
    6  A    between atoms: C_3  and  C_9
    7  A    between atoms: C_3  and  C_27
    8  A    between atoms: N_6  and  C_32
    9  A    between atoms: N_10  and  C_45
   10  A    between atoms: N_10  and  C_50
   11  A    between atoms: C_11  and  C_37
   12  A    between atoms: C_12  and  C_26
   13  A    between atoms: C_14  and  C_16
   14  A    between atoms: C_14  and  C_32
   15  A    between atoms: C_14  and  C_46
   16  A    between atoms: C_16  and  C_19
   17  A    between atoms: N_20  and  O_21
   18  A    between atoms: C_22  and  O_49
   19  A    between atoms: C_25  and  C_27
   20  A    between atoms: C_26  and  C_41
   21  A    between atoms: C_29  and  C_50
   22  A    between atoms: N_35  and  C_37
   23  A    between atoms: N_35  and  C_42
   24  A    between atoms: C_42  and  C_45
                            x       y       z     vdW  Elec       q    Type
                         _______ _______ _______ _____ _____    ______ ____

>  <TORSDO>
F 24

$$$$
=
 OpenBabel10232411203D

 50 53  0  0  1  0  0  0  0  0999 V2000
  189.3000  177.5110  143.5030 C   0  0  0  0  0  0  0  0  0  0  0  0
  189.5890  177.4330  144.8730 C   0  0  0  0  0  3  0  0  0  0  0  0
  186.9280  177.5990  144.0110 C   0  0  0  0  0  0  0  0  0  0  0  0
  188.5530  177.4580  145.8100 C   0  0  0  0  0  3  0  0  0  0  0  0
  187.2260  177.5430  145.3840 C   0  0  0  0  0  3  0  0  0  0  0  0
  187.9700  177.5850  143.0780 C   0  0  0  0  0  3  0  0  0  0  0  0
  185.6100  177.6680  143.5410 O   0  0  0  0  0  0  0  0  0  0  0  0
  184.8770  178.8820  143.3630 C   0  0  2  0  0  3  0  0  0  0  0  0
  183.8360  179.0610  145.5570 N   0  0  0  0  0  1  0  0  0  0  0  0
  183.5690  178.8650  144.1450 C   0  0  0  0  0  2  0  0  0  0  0  0
  184.6230  179.1320  141.9410 N   0  0  0  0  0  2  0  0  0  0  0  0
  183.8510  178.0270  141.3690 C   0  0  0  0  0  2  0  0  0  0  0  0
  183.2420  178.4030  140.0240 C   0  0  1  0  0  3  0  0  0  0  0  0
  184.1230  176.9280  138.0860 C   0  0  0  0  0  0  0  0  0  0  0  0
  182.2120  176.2570  139.0130 C   0  0  0  0  0  3  0  0  0  0  0  0
  182.5220  175.4170  138.0140 N   0  0  0  0  0  0  0  0  0  0  0  0
  181.7410  174.2610  137.6270 C   0  0  0  0  0  1  0  0  0  0  0  0
  183.6830  175.7930  137.4370 C   0  0  0  0  0  3  0  0  0  0  0  0
  183.1990  177.2300  139.0760 C   0  0  0  0  0  0  0  0  0  0  0  0
  185.3580  177.7010  137.7520 C   0  0  0  0  0  2  0  0  0  0  0  0
  186.4400  176.7810  137.2180 C   0  0  0  0  0  2  0  0  0  0  0  0
  187.7380  177.2660  137.6520 N   0  0  0  0  0  2  0  0  0  0  0  0
  187.5070  178.4090  138.4300 N   0  0  0  0  0  2  0  0  0  0  0  0
  189.0770  179.2340  137.1770 C   0  0  0  0  0  1  0  0  0  0  0  0
  188.6850  179.0740  138.5080 O   0  0  0  0  0  0  0  0  0  0  0  0
  181.8750  179.0620  140.2030 C   0  0  0  0  0  2  0  0  0  0  0  0
  180.4200  179.6590  142.1120 C   0  0  0  0  0  1  0  0  0  0  0  0
  181.1980  178.5380  141.4590 C   0  0  0  0  0  2  0  0  0  0  0  0
  190.3960  177.5030  142.4880 C   0  0  0  0  0  2  0  0  0  0  0  0
  190.3470  176.2800  141.7000 N   0  0  0  0  0  2  0  0  0  0  0  0
  190.1880  176.6640  140.3030 C   0  0  0  0  0  2  0  0  0  0  0  0
  191.5170  177.1570  139.7450 C   0  0  0  0  0  2  0  0  0  0  0  0
  191.6120  176.8800  138.3130 N   0  0  0  0  0  2  0  0  0  0  0  0
  191.6290  175.4310  138.1380 C   0  0  0  0  0  2  0  0  0  0  0  0
  187.9980  173.0170  135.9660 O   0  0  0  0  0  1  0  0  0  0  0  0
  192.0540  174.2390  135.9570 C   0  0  2  0  0  3  0  0  0  0  0  0
  191.4480  173.6030  134.6950 C   0  0  0  0  0  2  0  0  0  0  0  0
  191.0270  175.0330  136.7870 C   0  0  1  0  0  3  0  0  0  0  0  0
  189.7610  174.2130  137.0260 C   0  0  0  0  0  2  0  0  0  0  0  0
  189.1780  173.7150  135.7090 C   0  0  1  0  0  3  0  0  0  0  0  0
  190.1870  172.8090  135.0200 C   0  0  0  0  0  2  0  0  0  0  0  0
  193.2900  175.0760  135.6000 C   0  0  0  0  0  2  0  0  0  0  0  0
  194.5150  174.2460  135.1950 C   0  0  0  0  0  2  0  0  0  0  0  0
  195.7730  173.5890  137.2640 C   0  0  0  0  0  3  0  0  0  0  0  0
  197.8500  174.6540  137.8580 C   0  0  0  0  0  3  0  0  0  0  0  0
  195.6600  174.4270  136.1520 C   0  0  0  0  0  0  0  0  0  0  0  0
  196.6560  176.2500  134.7070 C   0  0  0  0  0  1  0  0  0  0  0  0
  196.8610  173.7070  138.1320 C   0  0  0  0  0  3  0  0  0  0  0  0
  197.7430  175.4520  136.7600 N   0  0  0  0  0  0  0  0  0  0  0  0
  196.6790  175.3700  135.9130 C   0  0  0  0  0  0  0  0  0  0  0  0
  1  2  1  0  0  0  0
  2  4  2  0  0  0  0
  3  5  2  0  0  0  0
  5  4  1  0  0  0  0
  6  1  2  0  0  0  0
  6  3  1  0  0  0  0
  7  3  1  0  0  0  0
  8  7  1  0  0  0  0
  8 10  1  1  0  0  0
 10  9  1  0  0  0  0
 11  8  1  0  0  0  0
 12 11  1  0  0  0  0
 13 26  1  1  0  0  0
 13 12  1  0  0  0  0
 14 19  1  0  0  0  0
 15 19  2  0  0  0  0
 16 15  1  0  0  0  0
 17 16  1  0  0  0  0
 18 16  1  0  0  0  0
 18 14  2  0  0  0  0
 19 13  1  0  0  0  0
 20 14  1  0  0  0  0
 21 22  1  0  0  0  0
 21 20  1  0  0  0  0
 22 23  1  0  0  0  0
 23 25  1  0  0  0  0
 24 25  1  0  0  0  0
 26 28  1  0  0  0  0
 28 27  1  0  0  0  0
 29  1  1  0  0  0  0
 30 29  1  0  0  0  0
 31 30  1  0  0  0  0
 32 31  1  0  0  0  0
 33 32  1  0  0  0  0
 34 33  1  0  0  0  0
 36 42  1  6  0  0  0
 36 38  1  0  0  0  0
 37 41  1  0  0  0  0
 37 36  1  0  0  0  0
 38 39  1  0  0  0  0
 38 34  1  1  0  0  0
 40 35  1  1  0  0  0
 40 39  1  0  0  0  0
 41 40  1  0  0  0  0
 43 42  1  0  0  0  0
 43 46  1  0  0  0  0
 44 48  1  0  0  0  0
 45 48  2  0  0  0  0
 46 44  2  0  0  0  0
 47 50  1  0  0  0  0
 49 45  1  0  0  0  0
 50 46  1  0  0  0  0
 50 49  2  0  0  0  0
M  END
>  <MODEL>
2

>  <REMARK>
 VINA RESULT:      -6.3      2.493      5.476
  Name = 
  24 active torsions:
  status: ('A' for Active; 'I' for Inactive)
    1  A    between atoms: N_1  and  N_20
    2  A    between atoms: N_1  and  C_41
    3  A    between atoms: C_2  and  N_6
    4  A    between atoms: C_2  and  C_23
    5  A    between atoms: C_2  and  O_49
    6  A    between atoms: C_3  and  C_9
    7  A    between atoms: C_3  and  C_27
    8  A    between atoms: N_6  and  C_32
    9  A    between atoms: N_10  and  C_45
   10  A    between atoms: N_10  and  C_50
   11  A    between atoms: C_11  and  C_37
   12  A    between atoms: C_12  and  C_26
   13  A    between atoms: C_14  and  C_16
   14  A    between atoms: C_14  and  C_32
   15  A    between atoms: C_14  and  C_46
   16  A    between atoms: C_16  and  C_19
   17  A    between atoms: N_20  and  O_21
   18  A    between atoms: C_22  and  O_49
   19  A    between atoms: C_25  and  C_27
   20  A    between atoms: C_26  and  C_41
   21  A    between atoms: C_29  and  C_50
   22  A    between atoms: N_35  and  C_37
   23  A    between atoms: N_35  and  C_42
   24  A    between atoms: C_42  and  C_45
                            x       y       z     vdW  Elec       q    Type
                         _______ _______ _______ _____ _____    ______ ____

>  <TORSDO>
F 24

$$$$
=
 OpenBabel10232411203D

 50 53  0  0  1  0  0  0  0  0999 V2000
  182.6570  178.4150  141.1030 C   0  0  0  0  0  0  0  0  0  0  0  0
  183.7070  178.6120  140.1940 C   0  0  0  0  0  3  0  0  0  0  0  0
  184.1170  179.0720  142.9280 C   0  0  0  0  0  0  0  0  0  0  0  0
  184.9510  179.0560  140.6470 C   0  0  0  0  0  3  0  0  0  0  0  0
  185.1580  179.2890  142.0080 C   0  0  0  0  0  3  0  0  0  0  0  0
  182.8700  178.6380  142.4660 C   0  0  0  0  0  3  0  0  0  0  0  0
  184.2880  179.2770  144.3020 O   0  0  0  0  0  0  0  0  0  0  0  0
  185.0260  178.4070  145.1650 C   0  0  2  0  0  3  0  0  0  0  0  0
  185.4990  179.3870  147.3430 N   0  0  0  0  0  1  0  0  0  0  0  0
  184.5730  178.5420  146.6140 C   0  0  0  0  0  2  0  0  0  0  0  0
  186.4650  178.6590  145.0500 N   0  0  0  0  0  2  0  0  0  0  0  0
  187.2050  177.4030  145.1880 C   0  0  0  0  0  2  0  0  0  0  0  0
  188.3720  177.3280  144.2110 C   0  0  1  0  0  3  0  0  0  0  0  0
  190.9430  177.5340  144.4340 C   0  0  0  0  0  0  0  0  0  0  0  0
  189.8960  176.6340  146.1810 C   0  0  0  0  0  3  0  0  0  0  0  0
  191.2140  176.6460  146.4310 N   0  0  0  0  0  0  0  0  0  0  0  0
  191.8330  176.1650  147.6490 C   0  0  0  0  0  1  0  0  0  0  0  0
  191.8770  177.1960  145.3920 C   0  0  0  0  0  3  0  0  0  0  0  0
  189.6940  177.1780  144.9210 C   0  0  0  0  0  0  0  0  0  0  0  0
  191.2420  178.1450  143.1030 C   0  0  0  0  0  2  0  0  0  0  0  0
  192.2190  177.2850  142.3230 C   0  0  0  0  0  2  0  0  0  0  0  0
  192.0990  177.5860  140.9080 N   0  0  0  0  0  2  0  0  0  0  0  0
  193.1880  176.9780  140.2680 N   0  0  0  0  0  2  0  0  0  0  0  0
  193.1850  176.4980  138.1500 C   0  0  0  0  0  1  0  0  0  0  0  0
  193.3010  177.5610  139.0500 O   0  0  0  0  0  0  0  0  0  0  0  0
  188.1430  176.2390  143.1630 C   0  0  0  0  0  2  0  0  0  0  0  0
  188.2150  177.9750  141.4040 C   0  0  0  0  0  1  0  0  0  0  0  0
  188.7740  176.6390  141.8400 C   0  0  0  0  0  2  0  0  0  0  0  0
  181.3150  177.9560  140.6340 C   0  0  0  0  0  2  0  0  0  0  0  0
  181.4600  176.9440  139.5990 N   0  0  0  0  0  2  0  0  0  0  0  0
  180.4940  177.2460  138.5500 C   0  0  0  0  0  2  0  0  0  0  0  0
  181.1710  177.1900  137.1870 C   0  0  0  0  0  2  0  0  0  0  0  0
  181.4080  175.8060  136.7830 N   0  0  0  0  0  2  0  0  0  0  0  0
  182.3670  175.8180  135.6830 C   0  0  0  0  0  2  0  0  0  0  0  0
  182.8260  170.9690  135.7380 O   0  0  0  0  0  1  0  0  0  0  0  0
  184.1200  174.7490  137.1450 C   0  0  2  0  0  3  0  0  0  0  0  0
  184.9590  173.4950  137.4480 C   0  0  0  0  0  2  0  0  0  0  0  0
  183.3610  174.6590  135.8070 C   0  0  1  0  0  3  0  0  0  0  0  0
  182.6050  173.3370  135.6910 C   0  0  0  0  0  2  0  0  0  0  0  0
  183.5420  172.1540  135.9030 C   0  0  1  0  0  3  0  0  0  0  0  0
  184.1320  172.2220  137.3040 C   0  0  0  0  0  2  0  0  0  0  0  0
  184.9840  176.0140  137.2450 C   0  0  0  0  0  2  0  0  0  0  0  0
  186.1430  176.0630  136.2410 C   0  0  0  0  0  2  0  0  0  0  0  0
  187.3980  177.9840  137.2580 C   0  0  0  0  0  3  0  0  0  0  0  0
  189.6370  177.7100  138.1010 C   0  0  0  0  0  3  0  0  0  0  0  0
  187.3880  176.6480  136.8470 C   0  0  0  0  0  0  0  0  0  0  0  0
  188.5630  174.4090  136.7420 C   0  0  0  0  0  1  0  0  0  0  0  0
  188.5270  178.5270  137.8740 C   0  0  0  0  0  3  0  0  0  0  0  0
  189.6120  176.4040  137.7160 N   0  0  0  0  0  0  0  0  0  0  0  0
  188.5300  175.8590  137.0930 C   0  0  0  0  0  0  0  0  0  0  0  0
  1  6  1  0  0  0  0
  2  4  1  0  0  0  0
  2  1  2  0  0  0  0
  3  7  1  0  0  0  0
  4  5  2  0  0  0  0
  5  3  1  0  0  0  0
  6  3  2  0  0  0  0
  7  8  1  0  0  0  0
  8 10  1  1  0  0  0
 10  9  1  0  0  0  0
 11  8  1  0  0  0  0
 11 12  1  0  0  0  0
 13 26  1  6  0  0  0
 13 19  1  0  0  0  0
 13 12  1  0  0  0  0
 14 19  1  0  0  0  0
 14 18  2  0  0  0  0
 15 16  1  0  0  0  0
 16 17  1  0  0  0  0
 18 16  1  0  0  0  0
 19 15  2  0  0  0  0
 20 14  1  0  0  0  0
 21 20  1  0  0  0  0
 22 21  1  0  0  0  0
 23 22  1  0  0  0  0
 24 25  1  0  0  0  0
 25 23  1  0  0  0  0
 27 28  1  0  0  0  0
 28 26  1  0  0  0  0
 29  1  1  0  0  0  0
 30 29  1  0  0  0  0
 31 30  1  0  0  0  0
 32 31  1  0  0  0  0
 33 32  1  0  0  0  0
 34 33  1  0  0  0  0
 36 42  1  6  0  0  0
 36 37  1  0  0  0  0
 38 34  1  1  0  0  0
 38 36  1  0  0  0  0
 39 38  1  0  0  0  0
 39 40  1  0  0  0  0
 40 35  1  1  0  0  0
 40 41  1  0  0  0  0
 41 37  1  0  0  0  0
 43 46  1  0  0  0  0
 43 42  1  0  0  0  0
 44 48  1  0  0  0  0
 46 50  1  0  0  0  0
 46 44  2  0  0  0  0
 47 50  1  0  0  0  0
 48 45  2  0  0  0  0
 49 45  1  0  0  0  0
 50 49  2  0  0  0  0
M  END
>  <MODEL>
3

>  <REMARK>
 VINA RESULT:      -6.0      2.260      7.934
  Name = 
  24 active torsions:
  status: ('A' for Active; 'I' for Inactive)
    1  A    between atoms: N_1  and  N_20
    2  A    between atoms: N_1  and  C_41
    3  A    between atoms: C_2  and  N_6
    4  A    between atoms: C_2  and  C_23
    5  A    between atoms: C_2  and  O_49
    6  A    between atoms: C_3  and  C_9
    7  A    between atoms: C_3  and  C_27
    8  A    between atoms: N_6  and  C_32
    9  A    between atoms: N_10  and  C_45
   10  A    between atoms: N_10  and  C_50
   11  A    between atoms: C_11  and  C_37
   12  A    between atoms: C_12  and  C_26
   13  A    between atoms: C_14  and  C_16
   14  A    between atoms: C_14  and  C_32
   15  A    between atoms: C_14  and  C_46
   16  A    between atoms: C_16  and  C_19
   17  A    between atoms: N_20  and  O_21
   18  A    between atoms: C_22  and  O_49
   19  A    between atoms: C_25  and  C_27
   20  A    between atoms: C_26  and  C_41
   21  A    between atoms: C_29  and  C_50
   22  A    between atoms: N_35  and  C_37
   23  A    between atoms: N_35  and  C_42
   24  A    between atoms: C_42  and  C_45
                            x       y       z     vdW  Elec       q    Type
                         _______ _______ _______ _____ _____    ______ ____

>  <TORSDO>
F 24

$$$$
=
 OpenBabel10232411203D

 50 53  0  0  1  0  0  0  0  0999 V2000
  187.5310  177.2800  136.6980 C   0  0  0  0  0  0  0  0  0  0  0  0
  188.4710  178.0740  136.0260 C   0  0  0  0  0  3  0  0  0  0  0  0
  188.3000  175.3320  135.4710 C   0  0  0  0  0  0  0  0  0  0  0  0
  189.3360  177.4960  135.0940 C   0  0  0  0  0  3  0  0  0  0  0  0
  189.2560  176.1300  134.8170 C   0  0  0  0  0  3  0  0  0  0  0  0
  187.4440  175.9150  136.4120 C   0  0  0  0  0  3  0  0  0  0  0  0
  188.1750  173.9620  135.2100 O   0  0  0  0  0  0  0  0  0  0  0  0
  189.2760  173.0720  135.0130 C   0  0  2  0  0  3  0  0  0  0  0  0
  187.5670  171.5030  135.7530 N   0  0  0  0  0  1  0  0  0  0  0  0
  188.8300  171.6150  135.0480 C   0  0  0  0  0  2  0  0  0  0  0  0
  190.3250  173.3130  136.0080 N   0  0  0  0  0  2  0  0  0  0  0  0
  191.5700  172.6650  135.5900 C   0  0  0  0  0  2  0  0  0  0  0  0
  192.7940  173.4420  136.0610 C   0  0  1  0  0  3  0  0  0  0  0  0
  194.8260  172.8980  137.5690 C   0  0  0  0  0  0  0  0  0  0  0  0
  194.0080  171.1850  136.4030 C   0  0  0  0  0  3  0  0  0  0  0  0
  195.0680  170.7580  137.1070 N   0  0  0  0  0  0  0  0  0  0  0  0
  195.5700  169.4000  137.1090 C   0  0  0  0  0  1  0  0  0  0  0  0
  195.5810  171.7730  137.8330 C   0  0  0  0  0  3  0  0  0  0  0  0
  193.8380  172.5370  136.6650 C   0  0  0  0  0  0  0  0  0  0  0  0
  195.0630  174.2600  138.1380 C   0  0  0  0  0  2  0  0  0  0  0  0
  196.1030  174.2090  139.2410 C   0  0  0  0  0  2  0  0  0  0  0  0
  197.2370  175.0360  138.8680 N   0  0  0  0  0  2  0  0  0  0  0  0
  198.0510  174.2590  138.0320 N   0  0  0  0  0  2  0  0  0  0  0  0
  199.9360  174.1800  136.9570 C   0  0  0  0  0  1  0  0  0  0  0  0
  199.0960  175.0410  137.6680 O   0  0  0  0  0  0  0  0  0  0  0  0
  193.3540  174.3190  134.9410 C   0  0  0  0  0  2  0  0  0  0  0  0
  194.3580  176.5760  135.0430 C   0  0  0  0  0  1  0  0  0  0  0  0
  193.0830  175.7850  135.2350 C   0  0  0  0  0  2  0  0  0  0  0  0
  186.6090  177.8780  137.7100 C   0  0  0  0  0  2  0  0  0  0  0  0
  185.2590  177.3640  137.5310 N   0  0  0  0  0  2  0  0  0  0  0  0
  184.4570  177.8350  138.6530 C   0  0  0  0  0  2  0  0  0  0  0  0
  184.8060  179.2840  138.9710 C   0  0  0  0  0  2  0  0  0  0  0  0
  184.7620  179.5220  140.4110 N   0  0  0  0  0  2  0  0  0  0  0  0
  185.7030  178.6040  141.0460 C   0  0  0  0  0  2  0  0  0  0  0  0
  182.2950  179.3040  144.4540 O   0  0  0  0  0  1  0  0  0  0  0  0
  186.2690  178.2170  143.4720 C   0  0  2  0  0  3  0  0  0  0  0  0
  185.7430  177.9730  144.8960 C   0  0  0  0  0  2  0  0  0  0  0  0
  185.1700  178.1170  142.3960 C   0  0  1  0  0  3  0  0  0  0  0  0
  183.9470  178.9480  142.7810 C   0  0  0  0  0  2  0  0  0  0  0  0
  183.4390  178.5610  144.1640 C   0  0  1  0  0  3  0  0  0  0  0  0
  184.5220  178.8360  145.1960 C   0  0  0  0  0  2  0  0  0  0  0  0
  187.4640  177.3010  143.1740 C   0  0  0  0  0  2  0  0  0  0  0  0
  188.8230  178.0140  143.2000 C   0  0  0  0  0  2  0  0  0  0  0  0
  189.0760  177.6330  140.7330 C   0  0  0  0  0  3  0  0  0  0  0  0
  191.2270  177.1810  139.7500 C   0  0  0  0  0  3  0  0  0  0  0  0
  189.6620  177.6720  142.0010 C   0  0  0  0  0  0  0  0  0  0  0  0
  191.7540  177.5640  143.4210 C   0  0  0  0  0  1  0  0  0  0  0  0
  189.8520  177.3730  139.6010 C   0  0  0  0  0  3  0  0  0  0  0  0
  191.7940  177.2410  140.9860 N   0  0  0  0  0  0  0  0  0  0  0  0
  191.0520  177.4700  142.1060 C   0  0  0  0  0  0  0  0  0  0  0  0
  1 29  1  0  0  0  0
  2  1  2  0  0  0  0
  3  6  2  0  0  0  0
  4  2  1  0  0  0  0
  5  4  2  0  0  0  0
  5  3  1  0  0  0  0
  6  1  1  0  0  0  0
  7  3  1  0  0  0  0
  8 10  1  1  0  0  0
  8  7  1  0  0  0  0
  8 11  1  0  0  0  0
 10  9  1  0  0  0  0
 12 11  1  0  0  0  0
 12 13  1  0  0  0  0
 13 26  1  6  0  0  0
 13 19  1  0  0  0  0
 14 18  2  0  0  0  0
 14 20  1  0  0  0  0
 15 19  2  0  0  0  0
 15 16  1  0  0  0  0
 16 17  1  0  0  0  0
 16 18  1  0  0  0  0
 19 14  1  0  0  0  0
 20 21  1  0  0  0  0
 22 21  1  0  0  0  0
 23 22  1  0  0  0  0
 24 25  1  0  0  0  0
 25 23  1  0  0  0  0
 26 28  1  0  0  0  0
 27 28  1  0  0  0  0
 30 29  1  0  0  0  0
 30 31  1  0  0  0  0
 31 32  1  0  0  0  0
 32 33  1  0  0  0  0
 33 34  1  0  0  0  0
 36 42  1  6  0  0  0
 36 37  1  0  0  0  0
 37 41  1  0  0  0  0
 38 34  1  6  0  0  0
 38 39  1  0  0  0  0
 38 36  1  0  0  0  0
 39 40  1  0  0  0  0
 40 35  1  1  0  0  0
 40 41  1  0  0  0  0
 42 43  1  0  0  0  0
 44 46  1  0  0  0  0
 45 49  2  0  0  0  0
 46 50  2  0  0  0  0
 46 43  1  0  0  0  0
 48 45  1  0  0  0  0
 48 44  2  0  0  0  0
 49 50  1  0  0  0  0
 50 47  1  0  0  0  0
M  END
>  <MODEL>
4

>  <REMARK>
 VINA RESULT:      -6.0      2.923     11.548
  Name = 
  24 active torsions:
  status: ('A' for Active; 'I' for Inactive)
    1  A    between atoms: N_1  and  N_20
    2  A    between atoms: N_1  and  C_41
    3  A    between atoms: C_2  and  N_6
    4  A    between atoms: C_2  and  C_23
    5  A    between atoms: C_2  and  O_49
    6  A    between atoms: C_3  and  C_9
    7  A    between atoms: C_3  and  C_27
    8  A    between atoms: N_6  and  C_32
    9  A    between atoms: N_10  and  C_45
   10  A    between atoms: N_10  and  C_50
   11  A    between atoms: C_11  and  C_37
   12  A    between atoms: C_12  and  C_26
   13  A    between atoms: C_14  and  C_16
   14  A    between atoms: C_14  and  C_32
   15  A    between atoms: C_14  and  C_46
   16  A    between atoms: C_16  and  C_19
   17  A    between atoms: N_20  and  O_21
   18  A    between atoms: C_22  and  O_49
   19  A    between atoms: C_25  and  C_27
   20  A    between atoms: C_26  and  C_41
   21  A    between atoms: C_29  and  C_50
   22  A    between atoms: N_35  and  C_37
   23  A    between atoms: N_35  and  C_42
   24  A    between atoms: C_42  and  C_45
                            x       y       z     vdW  Elec       q    Type
                         _______ _______ _______ _____ _____    ______ ____

>  <TORSDO>
F 24

$$$$
=
 OpenBabel10232411203D

 50 53  0  0  1  0  0  0  0  0999 V2000
  189.1040  177.2830  138.1630 C   0  0  0  0  0  0  0  0  0  0  0  0
  190.3050  176.6180  138.4520 C   0  0  0  0  0  3  0  0  0  0  0  0
  188.4910  175.5040  136.6300 C   0  0  0  0  0  0  0  0  0  0  0  0
  190.5890  175.3920  137.8470 C   0  0  0  0  0  3  0  0  0  0  0  0
  189.6860  174.8330  136.9410 C   0  0  0  0  0  3  0  0  0  0  0  0
  188.2070  176.7270  137.2470 C   0  0  0  0  0  3  0  0  0  0  0  0
  187.5670  174.9870  135.7140 O   0  0  0  0  0  0  0  0  0  0  0  0
  186.1770  174.7950  135.9870 C   0  0  2  0  0  3  0  0  0  0  0  0
  186.1200  173.0980  137.7340 N   0  0  0  0  0  1  0  0  0  0  0  0
  185.8690  173.3410  136.3260 C   0  0  0  0  0  2  0  0  0  0  0  0
  185.3580  175.2440  134.8570 N   0  0  0  0  0  2  0  0  0  0  0  0
  184.2120  176.0150  135.3450 C   0  0  0  0  0  2  0  0  0  0  0  0
  182.8990  175.4920  134.7760 C   0  0  1  0  0  3  0  0  0  0  0  0
  182.2630  174.0590  136.8370 C   0  0  0  0  0  0  0  0  0  0  0  0
  182.1450  173.0200  134.8700 C   0  0  0  0  0  3  0  0  0  0  0  0
  181.8180  172.1480  135.8360 N   0  0  0  0  0  0  0  0  0  0  0  0
  181.4380  170.7690  135.6150 C   0  0  0  0  0  1  0  0  0  0  0  0
  181.8720  172.7520  137.0410 C   0  0  0  0  0  3  0  0  0  0  0  0
  182.4430  174.2340  135.4720 C   0  0  0  0  0  0  0  0  0  0  0  0
  182.4810  175.0830  137.9040 C   0  0  0  0  0  2  0  0  0  0  0  0
  181.1970  175.3390  138.6720 C   0  0  0  0  0  2  0  0  0  0  0  0
  181.4720  176.2440  139.7740 N   0  0  0  0  0  2  0  0  0  0  0  0
  182.6090  176.9850  139.4200 N   0  0  0  0  0  2  0  0  0  0  0  0
  183.5210  178.5480  140.6190 C   0  0  0  0  0  1  0  0  0  0  0  0
  183.3260  177.1660  140.5550 O   0  0  0  0  0  0  0  0  0  0  0  0
  181.8270  176.5820  134.7730 C   0  0  0  0  0  2  0  0  0  0  0  0
  181.1150  178.7270  135.7780 C   0  0  0  0  0  1  0  0  0  0  0  0
  182.2630  177.7510  135.6410 C   0  0  0  0  0  2  0  0  0  0  0  0
  188.7760  178.5870  138.8140 C   0  0  0  0  0  2  0  0  0  0  0  0
  187.8280  178.3860  139.8990 N   0  0  0  0  0  2  0  0  0  0  0  0
  188.5840  178.3680  141.1460 C   0  0  0  0  0  2  0  0  0  0  0  0
  188.6390  176.9490  141.7000 C   0  0  0  0  0  2  0  0  0  0  0  0
  187.6660  176.7770  142.7760 N   0  0  0  0  0  2  0  0  0  0  0  0
  187.8910  177.8350  143.7570 C   0  0  0  0  0  2  0  0  0  0  0  0
  183.6990  179.1220  145.8760 O   0  0  0  0  0  1  0  0  0  0  0  0
  187.7730  178.0300  146.2670 C   0  0  2  0  0  3  0  0  0  0  0  0
  186.8770  178.0880  147.5160 C   0  0  0  0  0  2  0  0  0  0  0  0
  187.0050  177.6400  144.9900 C   0  0  1  0  0  3  0  0  0  0  0  0
  185.7370  178.4770  144.8320 C   0  0  0  0  0  2  0  0  0  0  0  0
  184.8670  178.3870  146.0790 C   0  0  1  0  0  3  0  0  0  0  0  0
  185.6340  178.9380  147.2720 C   0  0  0  0  0  2  0  0  0  0  0  0
  188.9900  177.1280  146.5170 C   0  0  0  0  0  2  0  0  0  0  0  0
  190.3410  177.8250  146.3110 C   0  0  0  0  0  2  0  0  0  0  0  0
  191.1510  176.0780  144.7020 C   0  0  0  0  0  3  0  0  0  0  0  0
  192.0490  176.6800  142.5490 C   0  0  0  0  0  3  0  0  0  0  0  0
  190.9860  177.4310  145.0120 C   0  0  0  0  0  0  0  0  0  0  0  0
  191.1450  179.8510  144.2890 C   0  0  0  0  0  1  0  0  0  0  0  0
  191.6960  175.6950  143.4750 C   0  0  0  0  0  3  0  0  0  0  0  0
  191.8650  177.9940  142.8510 N   0  0  0  0  0  0  0  0  0  0  0  0
  191.3560  178.3920  144.0510 C   0  0  0  0  0  0  0  0  0  0  0  0
  1  2  1  0  0  0  0
  1 29  1  0  0  0  0
  3  5  2  0  0  0  0
  3  6  1  0  0  0  0
  4  2  2  0  0  0  0
  5  4  1  0  0  0  0
  6  1  2  0  0  0  0
  7  8  1  0  0  0  0
  7  3  1  0  0  0  0
  8 10  1  6  0  0  0
 10  9  1  0  0  0  0
 11 12  1  0  0  0  0
 11  8  1  0  0  0  0
 13 26  1  1  0  0  0
 13 12  1  0  0  0  0
 13 19  1  0  0  0  0
 14 18  2  0  0  0  0
 14 20  1  0  0  0  0
 15 19  2  0  0  0  0
 15 16  1  0  0  0  0
 16 18  1  0  0  0  0
 17 16  1  0  0  0  0
 19 14  1  0  0  0  0
 20 21  1  0  0  0  0
 21 22  1  0  0  0  0
 23 22  1  0  0  0  0
 23 25  1  0  0  0  0
 25 24  1  0  0  0  0
 26 28  1  0  0  0  0
 28 27  1  0  0  0  0
 29 30  1  0  0  0  0
 30 31  1  0  0  0  0
 31 32  1  0  0  0  0
 32 33  1  0  0  0  0
 33 34  1  0  0  0  0
 36 42  1  1  0  0  0
 36 37  1  0  0  0  0
 38 34  1  6  0  0  0
 38 36  1  0  0  0  0
 39 38  1  0  0  0  0
 39 40  1  0  0  0  0
 40 35  1  6  0  0  0
 40 41  1  0  0  0  0
 41 37  1  0  0  0  0
 43 42  1  0  0  0  0
 44 46  1  0  0  0  0
 45 49  2  0  0  0  0
 45 48  1  0  0  0  0
 46 43  1  0  0  0  0
 48 44  2  0  0  0  0
 49 50  1  0  0  0  0
 50 47  1  0  0  0  0
 50 46  2  0  0  0  0
M  END
>  <MODEL>
5

>  <REMARK>
 VINA RESULT:      -5.8      2.571      8.914
  Name = 
  24 active torsions:
  status: ('A' for Active; 'I' for Inactive)
    1  A    between atoms: N_1  and  N_20
    2  A    between atoms: N_1  and  C_41
    3  A    between atoms: C_2  and  N_6
    4  A    between atoms: C_2  and  C_23
    5  A    between atoms: C_2  and  O_49
    6  A    between atoms: C_3  and  C_9
    7  A    between atoms: C_3  and  C_27
    8  A    between atoms: N_6  and  C_32
    9  A    between atoms: N_10  and  C_45
   10  A    between atoms: N_10  and  C_50
   11  A    between atoms: C_11  and  C_37
   12  A    between atoms: C_12  and  C_26
   13  A    between atoms: C_14  and  C_16
   14  A    between atoms: C_14  and  C_32
   15  A    between atoms: C_14  and  C_46
   16  A    between atoms: C_16  and  C_19
   17  A    between atoms: N_20  and  O_21
   18  A    between atoms: C_22  and  O_49
   19  A    between atoms: C_25  and  C_27
   20  A    between atoms: C_26  and  C_41
   21  A    between atoms: C_29  and  C_50
   22  A    between atoms: N_35  and  C_37
   23  A    between atoms: N_35  and  C_42
   24  A    between atoms: C_42  and  C_45
                            x       y       z     vdW  Elec       q    Type
                         _______ _______ _______ _____ _____    ______ ____

>  <TORSDO>
F 24

$$$$
=
 OpenBabel10232411203D

 50 53  0  0  1  0  0  0  0  0999 V2000
  187.4370  178.0310  139.2290 C   0  0  0  0  0  0  0  0  0  0  0  0
  186.5780  178.6450  140.1520 C   0  0  0  0  0  3  0  0  0  0  0  0
  185.5840  177.7650  137.6840 C   0  0  0  0  0  0  0  0  0  0  0  0
  185.2310  178.8370  139.8350 C   0  0  0  0  0  3  0  0  0  0  0  0
  184.7330  178.4020  138.6050 C   0  0  0  0  0  3  0  0  0  0  0  0
  186.9340  177.5860  138.0040 C   0  0  0  0  0  3  0  0  0  0  0  0
  185.1220  177.2990  136.4470 O   0  0  0  0  0  0  0  0  0  0  0  0
  185.8060  176.3420  135.6360 C   0  0  2  0  0  3  0  0  0  0  0  0
  187.0490  178.1880  134.6470 N   0  0  0  0  0  1  0  0  0  0  0  0
  186.3230  176.9690  134.3460 C   0  0  0  0  0  2  0  0  0  0  0  0
  184.9400  175.1970  135.3390 N   0  0  0  0  0  2  0  0  0  0  0  0
  185.3910  174.0210  136.0870 C   0  0  0  0  0  2  0  0  0  0  0  0
  185.3230  172.7560  135.2390 C   0  0  1  0  0  3  0  0  0  0  0  0
  187.8440  172.4030  135.7110 C   0  0  0  0  0  0  0  0  0  0  0  0
  186.7280  170.5940  135.0440 C   0  0  0  0  0  3  0  0  0  0  0  0
  188.0160  170.2630  135.2190 N   0  0  0  0  0  0  0  0  0  0  0  0
  188.5680  168.9390  135.0180 C   0  0  0  0  0  1  0  0  0  0  0  0
  188.7190  171.3380  135.6330 C   0  0  0  0  0  3  0  0  0  0  0  0
  186.5900  171.9430  135.3370 C   0  0  0  0  0  0  0  0  0  0  0  0
  188.2040  173.8000  136.1010 C   0  0  0  0  0  2  0  0  0  0  0  0
  189.7100  173.9640  136.1860 C   0  0  0  0  0  2  0  0  0  0  0  0
  190.0950  174.1390  137.5750 N   0  0  0  0  0  2  0  0  0  0  0  0
  191.4800  174.3540  137.5900 N   0  0  0  0  0  2  0  0  0  0  0  0
  192.4130  175.7580  136.2220 C   0  0  0  0  0  1  0  0  0  0  0  0
  191.8720  174.4720  136.2990 O   0  0  0  0  0  0  0  0  0  0  0  0
  184.0740  171.9390  135.5700 C   0  0  0  0  0  2  0  0  0  0  0  0
  182.1270  172.3230  137.0460 C   0  0  0  0  0  1  0  0  0  0  0  0
  183.6350  172.2050  137.0000 C   0  0  0  0  0  2  0  0  0  0  0  0
  188.8830  177.8330  139.5460 C   0  0  0  0  0  2  0  0  0  0  0  0
  189.0340  177.1880  140.8420 N   0  0  0  0  0  2  0  0  0  0  0  0
  190.3440  176.5490  140.8660 C   0  0  0  0  0  2  0  0  0  0  0  0
  191.3390  177.4300  141.6110 C   0  0  0  0  0  2  0  0  0  0  0  0
  191.3200  177.1340  143.0420 N   0  0  0  0  0  2  0  0  0  0  0  0
  190.3920  178.0640  143.6790 C   0  0  0  0  0  2  0  0  0  0  0  0
  192.7480  176.0740  147.4490 O   0  0  0  0  0  1  0  0  0  0  0  0
  189.0800  177.1780  145.6410 C   0  0  2  0  0  3  0  0  0  0  0  0
  189.1010  176.7410  147.1160 C   0  0  0  0  0  2  0  0  0  0  0  0
  190.3820  177.8750  145.1990 C   0  0  1  0  0  3  0  0  0  0  0  0
  191.6080  177.0630  145.6110 C   0  0  0  0  0  2  0  0  0  0  0  0
  191.5900  176.7700  147.1060 C   0  0  1  0  0  3  0  0  0  0  0  0
  190.3580  175.9420  147.4430 C   0  0  0  0  0  2  0  0  0  0  0  0
  187.8340  178.0240  145.3460 C   0  0  0  0  0  2  0  0  0  0  0  0
  186.7660  177.3010  144.5150 C   0  0  0  0  0  2  0  0  0  0  0  0
  184.7900  178.2070  143.2610 C   0  0  0  0  0  3  0  0  0  0  0  0
  183.0050  179.3560  144.4000 C   0  0  0  0  0  3  0  0  0  0  0  0
  185.4730  178.0650  144.4720 C   0  0  0  0  0  0  0  0  0  0  0  0
  185.5210  178.4010  146.9800 C   0  0  0  0  0  1  0  0  0  0  0  0
  183.5590  178.8660  143.2150 C   0  0  0  0  0  3  0  0  0  0  0  0
  183.6670  179.1950  145.5780 N   0  0  0  0  0  0  0  0  0  0  0  0
  184.8790  178.5760  145.6440 C   0  0  0  0  0  0  0  0  0  0  0  0
  1 29  1  0  0  0  0
  1  2  1  0  0  0  0
  3  6  1  0  0  0  0
  3  5  2  0  0  0  0
  4  2  2  0  0  0  0
  5  4  1  0  0  0  0
  6  1  2  0  0  0  0
  7  3  1  0  0  0  0
  8 10  1  6  0  0  0
  8  7  1  0  0  0  0
 10  9  1  0  0  0  0
 11  8  1  0  0  0  0
 11 12  1  0  0  0  0
 13 19  1  0  0  0  0
 13 26  1  1  0  0  0
 13 12  1  0  0  0  0
 14 20  1  0  0  0  0
 15 16  1  0  0  0  0
 15 19  2  0  0  0  0
 16 18  1  0  0  0  0
 17 16  1  0  0  0  0
 18 14  2  0  0  0  0
 19 14  1  0  0  0  0
 20 21  1  0  0  0  0
 21 22  1  0  0  0  0
 22 23  1  0  0  0  0
 24 25  1  0  0  0  0
 25 23  1  0  0  0  0
 26 28  1  0  0  0  0
 28 27  1  0  0  0  0
 29 30  1  0  0  0  0
 30 31  1  0  0  0  0
 31 32  1  0  0  0  0
 32 33  1  0  0  0  0
 33 34  1  0  0  0  0
 36 42  1  1  0  0  0
 36 37  1  0  0  0  0
 37 41  1  0  0  0  0
 38 34  1  6  0  0  0
 38 39  1  0  0  0  0
 38 36  1  0  0  0  0
 39 40  1  0  0  0  0
 40 41  1  0  0  0  0
 40 35  1  6  0  0  0
 43 42  1  0  0  0  0
 44 46  1  0  0  0  0
 45 49  2  0  0  0  0
 46 43  1  0  0  0  0
 46 50  2  0  0  0  0
 48 44  2  0  0  0  0
 48 45  1  0  0  0  0
 49 50  1  0  0  0  0
 50 47  1  0  0  0  0
M  END
>  <MODEL>
6

>  <REMARK>
 VINA RESULT:      -5.8      2.498      9.159
  Name = 
  24 active torsions:
  status: ('A' for Active; 'I' for Inactive)
    1  A    between atoms: N_1  and  N_20
    2  A    between atoms: N_1  and  C_41
    3  A    between atoms: C_2  and  N_6
    4  A    between atoms: C_2  and  C_23
    5  A    between atoms: C_2  and  O_49
    6  A    between atoms: C_3  and  C_9
    7  A    between atoms: C_3  and  C_27
    8  A    between atoms: N_6  and  C_32
    9  A    between atoms: N_10  and  C_45
   10  A    between atoms: N_10  and  C_50
   11  A    between atoms: C_11  and  C_37
   12  A    between atoms: C_12  and  C_26
   13  A    between atoms: C_14  and  C_16
   14  A    between atoms: C_14  and  C_32
   15  A    between atoms: C_14  and  C_46
   16  A    between atoms: C_16  and  C_19
   17  A    between atoms: N_20  and  O_21
   18  A    between atoms: C_22  and  O_49
   19  A    between atoms: C_25  and  C_27
   20  A    between atoms: C_26  and  C_41
   21  A    between atoms: C_29  and  C_50
   22  A    between atoms: N_35  and  C_37
   23  A    between atoms: N_35  and  C_42
   24  A    between atoms: C_42  and  C_45
                            x       y       z     vdW  Elec       q    Type
                         _______ _______ _______ _____ _____    ______ ____

>  <TORSDO>
F 24

$$$$
=
 OpenBabel10232411203D

 50 53  0  0  1  0  0  0  0  0999 V2000
  190.2970  176.6660  143.7250 C   0  0  0  0  0  0  0  0  0  0  0  0
  191.2180  176.9900  144.7330 C   0  0  0  0  0  3  0  0  0  0  0  0
  188.4730  176.9580  145.2990 C   0  0  0  0  0  0  0  0  0  0  0  0
  190.7660  177.3150  146.0140 C   0  0  0  0  0  3  0  0  0  0  0  0
  189.4000  177.3030  146.2990 C   0  0  0  0  0  3  0  0  0  0  0  0
  188.9300  176.6430  144.0150 C   0  0  0  0  0  3  0  0  0  0  0  0
  187.0950  176.9170  145.5470 O   0  0  0  0  0  0  0  0  0  0  0  0
  186.2130  178.0330  145.3990 C   0  0  2  0  0  3  0  0  0  0  0  0
  184.0880  178.7490  146.3490 N   0  0  0  0  0  1  0  0  0  0  0  0
  185.4260  178.2960  146.6780 C   0  0  0  0  0  2  0  0  0  0  0  0
  185.3030  177.8290  144.2680 N   0  0  0  0  0  2  0  0  0  0  0  0
  185.7000  178.6840  143.1470 C   0  0  0  0  0  2  0  0  0  0  0  0
  185.1250  178.1840  141.8270 C   0  0  1  0  0  3  0  0  0  0  0  0
  182.7920  177.9880  140.7230 C   0  0  0  0  0  0  0  0  0  0  0  0
  182.8570  179.1270  142.6360 C   0  0  0  0  0  3  0  0  0  0  0  0
  181.5980  179.1370  142.1740 N   0  0  0  0  0  0  0  0  0  0  0  0
  180.4760  179.7740  142.8330 C   0  0  0  0  0  1  0  0  0  0  0  0
  181.5240  178.4460  141.0170 C   0  0  0  0  0  3  0  0  0  0  0  0
  183.6380  178.4180  141.7350 C   0  0  0  0  0  0  0  0  0  0  0  0
  183.1750  177.2000  139.5120 C   0  0  0  0  0  2  0  0  0  0  0  0
  182.7110  177.8970  138.2470 C   0  0  0  0  0  2  0  0  0  0  0  0
  181.5810  177.1750  137.6900 N   0  0  0  0  0  2  0  0  0  0  0  0
  182.1020  176.0650  137.0090 N   0  0  0  0  0  2  0  0  0  0  0  0
  180.5230  176.9520  135.8110 C   0  0  0  0  0  1  0  0  0  0  0  0
  181.6640  176.1510  135.7300 O   0  0  0  0  0  0  0  0  0  0  0  0
  185.8870  178.7700  140.6380 C   0  0  0  0  0  2  0  0  0  0  0  0
  187.9000  178.0290  139.4080 C   0  0  0  0  0  1  0  0  0  0  0  0
  187.3690  178.4590  140.7580 C   0  0  0  0  0  2  0  0  0  0  0  0
  190.7610  176.3310  142.3450 C   0  0  0  0  0  2  0  0  0  0  0  0
  191.5920  177.4030  141.8170 N   0  0  0  0  0  2  0  0  0  0  0  0
  191.5990  177.2790  140.3640 C   0  0  0  0  0  2  0  0  0  0  0  0
  192.9620  177.6830  139.8150 C   0  0  0  0  0  2  0  0  0  0  0  0
  193.4170  176.7260  138.8090 N   0  0  0  0  0  2  0  0  0  0  0  0
  192.2360  176.1570  138.1650 C   0  0  0  0  0  2  0  0  0  0  0  0
  195.5330  173.1400  136.2280 O   0  0  0  0  0  1  0  0  0  0  0  0
  191.4800  174.3070  136.6290 C   0  0  2  0  0  3  0  0  0  0  0  0
  191.8240  172.9670  135.9570 C   0  0  0  0  0  2  0  0  0  0  0  0
  192.4970  174.7180  137.7120 C   0  0  1  0  0  3  0  0  0  0  0  0
  193.9290  174.6090  137.1930 C   0  0  0  0  0  2  0  0  0  0  0  0
  194.2030  173.2150  136.6430 C   0  0  1  0  0  3  0  0  0  0  0  0
  193.2700  172.9390  135.4730 C   0  0  0  0  0  2  0  0  0  0  0  0
  190.0380  174.2940  137.1540 C   0  0  0  0  0  2  0  0  0  0  0  0
  188.9860  174.6880  136.1100 C   0  0  0  0  0  2  0  0  0  0  0  0
  186.7700  175.4910  136.9730 C   0  0  0  0  0  3  0  0  0  0  0  0
  184.9470  173.9650  137.3550 C   0  0  0  0  0  3  0  0  0  0  0  0
  187.5870  174.4230  136.5930 C   0  0  0  0  0  0  0  0  0  0  0  0
  187.8350  171.9470  136.1350 C   0  0  0  0  0  1  0  0  0  0  0  0
  185.4500  175.2670  137.3700 C   0  0  0  0  0  3  0  0  0  0  0  0
  185.7430  172.9320  136.9630 N   0  0  0  0  0  0  0  0  0  0  0  0
  187.0410  173.1240  136.5940 C   0  0  0  0  0  0  0  0  0  0  0  0
  1  6  2  0  0  0  0
  1  2  1  0  0  0  0
  2  4  2  0  0  0  0
  3  7  1  0  0  0  0
  3  5  2  0  0  0  0
  4  5  1  0  0  0  0
  6  3  1  0  0  0  0
  8  7  1  0  0  0  0
  8 10  1  1  0  0  0
  9 10  1  0  0  0  0
 11  8  1  0  0  0  0
 12 11  1  0  0  0  0
 13 26  1  6  0  0  0
 13 12  1  0  0  0  0
 14 18  2  0  0  0  0
 14 19  1  0  0  0  0
 16 15  1  0  0  0  0
 16 17  1  0  0  0  0
 18 16  1  0  0  0  0
 19 13  1  0  0  0  0
 19 15  2  0  0  0  0
 20 14  1  0  0  0  0
 21 20  1  0  0  0  0
 22 21  1  0  0  0  0
 23 22  1  0  0  0  0
 25 24  1  0  0  0  0
 25 23  1  0  0  0  0
 26 28  1  0  0  0  0
 27 28  1  0  0  0  0
 29  1  1  0  0  0  0
 30 29  1  0  0  0  0
 31 30  1  0  0  0  0
 32 31  1  0  0  0  0
 33 32  1  0  0  0  0
 34 33  1  0  0  0  0
 36 42  1  1  0  0  0
 36 38  1  0  0  0  0
 37 36  1  0  0  0  0
 38 34  1  6  0  0  0
 39 38  1  0  0  0  0
 40 35  1  6  0  0  0
 40 39  1  0  0  0  0
 41 37  1  0  0  0  0
 41 40  1  0  0  0  0
 43 46  1  0  0  0  0
 43 42  1  0  0  0  0
 44 48  1  0  0  0  0
 45 48  2  0  0  0  0
 46 50  1  0  0  0  0
 46 44  2  0  0  0  0
 47 50  1  0  0  0  0
 49 45  1  0  0  0  0
 50 49  2  0  0  0  0
M  END
>  <MODEL>
7

>  <REMARK>
 VINA RESULT:      -5.6      1.312      2.701
  Name = 
  24 active torsions:
  status: ('A' for Active; 'I' for Inactive)
    1  A    between atoms: N_1  and  N_20
    2  A    between atoms: N_1  and  C_41
    3  A    between atoms: C_2  and  N_6
    4  A    between atoms: C_2  and  C_23
    5  A    between atoms: C_2  and  O_49
    6  A    between atoms: C_3  and  C_9
    7  A    between atoms: C_3  and  C_27
    8  A    between atoms: N_6  and  C_32
    9  A    between atoms: N_10  and  C_45
   10  A    between atoms: N_10  and  C_50
   11  A    between atoms: C_11  and  C_37
   12  A    between atoms: C_12  and  C_26
   13  A    between atoms: C_14  and  C_16
   14  A    between atoms: C_14  and  C_32
   15  A    between atoms: C_14  and  C_46
   16  A    between atoms: C_16  and  C_19
   17  A    between atoms: N_20  and  O_21
   18  A    between atoms: C_22  and  O_49
   19  A    between atoms: C_25  and  C_27
   20  A    between atoms: C_26  and  C_41
   21  A    between atoms: C_29  and  C_50
   22  A    between atoms: N_35  and  C_37
   23  A    between atoms: N_35  and  C_42
   24  A    between atoms: C_42  and  C_45
                            x       y       z     vdW  Elec       q    Type
                         _______ _______ _______ _____ _____    ______ ____

>  <TORSDO>
F 24

$$$$
=
 OpenBabel10232411203D

 50 53  0  0  1  0  0  0  0  0999 V2000
  189.6490  177.0620  139.8680 C   0  0  0  0  0  0  0  0  0  0  0  0
  188.7810  177.9870  140.4670 C   0  0  0  0  0  3  0  0  0  0  0  0
  188.2210  176.9950  137.9060 C   0  0  0  0  0  0  0  0  0  0  0  0
  187.6480  178.4290  139.7810 C   0  0  0  0  0  3  0  0  0  0  0  0
  187.3670  177.9390  138.5040 C   0  0  0  0  0  3  0  0  0  0  0  0
  189.3610  176.5650  138.5940 C   0  0  0  0  0  3  0  0  0  0  0  0
  187.9670  176.4660  136.6350 O   0  0  0  0  0  0  0  0  0  0  0  0
  188.6930  176.8150  135.4530 C   0  0  2  0  0  3  0  0  0  0  0  0
  186.7490  178.2060  134.9880 N   0  0  0  0  0  1  0  0  0  0  0  0
  187.7720  177.3780  134.3780 C   0  0  0  0  0  2  0  0  0  0  0  0
  189.4360  175.6600  134.9410 N   0  0  0  0  0  2  0  0  0  0  0  0
  188.5910  174.4650  134.9780 C   0  0  0  0  0  2  0  0  0  0  0  0
  189.3870  173.2260  135.3730 C   0  0  1  0  0  3  0  0  0  0  0  0
  191.9370  172.8670  135.6380 C   0  0  0  0  0  0  0  0  0  0  0  0
  191.1070  174.6610  136.6650 C   0  0  0  0  0  3  0  0  0  0  0  0
  192.4230  174.5930  136.9160 N   0  0  0  0  0  0  0  0  0  0  0  0
  193.1670  175.5470  137.7120 C   0  0  0  0  0  1  0  0  0  0  0  0
  192.9580  173.5190  136.2980 C   0  0  0  0  0  3  0  0  0  0  0  0
  190.7680  173.5760  135.8690 C   0  0  0  0  0  0  0  0  0  0  0  0
  192.0750  171.6060  134.8460 C   0  0  0  0  0  2  0  0  0  0  0  0
  193.1530  170.7160  135.4370 C   0  0  0  0  0  2  0  0  0  0  0  0
  192.6660  169.3490  135.4940 N   0  0  0  0  0  2  0  0  0  0  0  0
  193.7160  168.5620  135.9860 N   0  0  0  0  0  2  0  0  0  0  0  0
  194.7740  168.5080  137.8820 C   0  0  0  0  0  1  0  0  0  0  0  0
  194.4380  169.3500  136.8190 O   0  0  0  0  0  0  0  0  0  0  0  0
  188.6070  172.3660  136.3680 C   0  0  0  0  0  2  0  0  0  0  0  0
  186.4900  171.6220  135.3280 C   0  0  0  0  0  1  0  0  0  0  0  0
  187.9140  171.2220  135.6450 C   0  0  0  0  0  2  0  0  0  0  0  0
  190.8750  176.5910  140.5800 C   0  0  0  0  0  2  0  0  0  0  0  0
  191.4380  177.6680  141.3820 N   0  0  0  0  0  2  0  0  0  0  0  0
  192.0210  177.0680  142.5760 C   0  0  0  0  0  2  0  0  0  0  0  0
  191.3300  177.6120  143.8210 C   0  0  0  0  0  2  0  0  0  0  0  0
  190.5240  176.5740  144.4600 N   0  0  0  0  0  2  0  0  0  0  0  0
  189.1270  176.8110  144.1080 C   0  0  0  0  0  2  0  0  0  0  0  0
  189.1310  178.1000  148.8050 O   0  0  0  0  0  1  0  0  0  0  0  0
  186.9420  177.2930  145.2690 C   0  0  2  0  0  3  0  0  0  0  0  0
  186.2360  177.9440  146.4700 C   0  0  0  0  0  2  0  0  0  0  0  0
  188.4320  177.6720  145.1670 C   0  0  1  0  0  3  0  0  0  0  0  0
  189.1410  177.4870  146.5070 C   0  0  0  0  0  2  0  0  0  0  0  0
  188.4250  178.2530  147.6120 C   0  0  1  0  0  3  0  0  0  0  0  0
  187.0090  177.7160  147.7640 C   0  0  0  0  0  2  0  0  0  0  0  0
  186.1750  177.5790  143.9710 C   0  0  0  0  0  2  0  0  0  0  0  0
  185.4840  178.9490  143.9380 C   0  0  0  0  0  2  0  0  0  0  0  0
  183.0480  178.8600  144.5330 C   0  0  0  0  0  3  0  0  0  0  0  0
  181.3460  178.7840  142.8310 C   0  0  0  0  0  3  0  0  0  0  0  0
  184.0370  178.8410  143.5470 C   0  0  0  0  0  0  0  0  0  0  0  0
  184.6410  178.8500  141.0890 C   0  0  0  0  0  1  0  0  0  0  0  0
  181.6970  178.8180  144.1820 C   0  0  0  0  0  3  0  0  0  0  0  0
  182.3160  178.7870  141.8750 N   0  0  0  0  0  0  0  0  0  0  0  0
  183.6400  178.8050  142.1950 C   0  0  0  0  0  0  0  0  0  0  0  0
  1  2  1  0  0  0  0
  1 29  1  0  0  0  0
  3  5  2  0  0  0  0
  3  6  1  0  0  0  0
  4  2  2  0  0  0  0
  5  4  1  0  0  0  0
  6  1  2  0  0  0  0
  7  3  1  0  0  0  0
  8 10  1  6  0  0  0
  8  7  1  0  0  0  0
 10  9  1  0  0  0  0
 11 12  1  0  0  0  0
 11  8  1  0  0  0  0
 13 12  1  1  0  0  0
 13 19  1  0  0  0  0
 13 26  1  0  0  0  0
 14 19  1  0  0  0  0
 14 18  2  0  0  0  0
 15 16  1  0  0  0  0
 16 17  1  0  0  0  0
 18 16  1  0  0  0  0
 19 15  2  0  0  0  0
 20 21  1  0  0  0  0
 20 14  1  0  0  0  0
 21 22  1  0  0  0  0
 22 23  1  0  0  0  0
 23 25  1  0  0  0  0
 25 24  1  0  0  0  0
 27 28  1  0  0  0  0
 28 26  1  0  0  0  0
 29 30  1  0  0  0  0
 30 31  1  0  0  0  0
 31 32  1  0  0  0  0
 32 33  1  0  0  0  0
 34 33  1  0  0  0  0
 36 42  1  6  0  0  0
 36 37  1  0  0  0  0
 37 41  1  0  0  0  0
 38 34  1  6  0  0  0
 38 36  1  0  0  0  0
 38 39  1  0  0  0  0
 39 40  1  0  0  0  0
 40 41  1  0  0  0  0
 40 35  1  1  0  0  0
 43 42  1  0  0  0  0
 45 48  2  0  0  0  0
 46 43  1  0  0  0  0
 46 44  2  0  0  0  0
 47 50  1  0  0  0  0
 48 44  1  0  0  0  0
 49 50  2  0  0  0  0
 49 45  1  0  0  0  0
 50 46  1  0  0  0  0
M  END
>  <MODEL>
8

>  <REMARK>
 VINA RESULT:      -5.6      2.832      9.928
  Name = 
  24 active torsions:
  status: ('A' for Active; 'I' for Inactive)
    1  A    between atoms: N_1  and  N_20
    2  A    between atoms: N_1  and  C_41
    3  A    between atoms: C_2  and  N_6
    4  A    between atoms: C_2  and  C_23
    5  A    between atoms: C_2  and  O_49
    6  A    between atoms: C_3  and  C_9
    7  A    between atoms: C_3  and  C_27
    8  A    between atoms: N_6  and  C_32
    9  A    between atoms: N_10  and  C_45
   10  A    between atoms: N_10  and  C_50
   11  A    between atoms: C_11  and  C_37
   12  A    between atoms: C_12  and  C_26
   13  A    between atoms: C_14  and  C_16
   14  A    between atoms: C_14  and  C_32
   15  A    between atoms: C_14  and  C_46
   16  A    between atoms: C_16  and  C_19
   17  A    between atoms: N_20  and  O_21
   18  A    between atoms: C_22  and  O_49
   19  A    between atoms: C_25  and  C_27
   20  A    between atoms: C_26  and  C_41
   21  A    between atoms: C_29  and  C_50
   22  A    between atoms: N_35  and  C_37
   23  A    between atoms: N_35  and  C_42
   24  A    between atoms: C_42  and  C_45
                            x       y       z     vdW  Elec       q    Type
                         _______ _______ _______ _____ _____    ______ ____

>  <TORSDO>
F 24

$$$$
=
 OpenBabel10232411203D

 50 53  0  0  1  0  0  0  0  0999 V2000
  187.6980  177.4880  145.1700 C   0  0  0  0  0  0  0  0  0  0  0  0
  187.4490  178.0370  146.4360 C   0  0  0  0  0  3  0  0  0  0  0  0
  185.4280  178.0200  144.4940 C   0  0  0  0  0  0  0  0  0  0  0  0
  186.2000  178.5920  146.7250 C   0  0  0  0  0  3  0  0  0  0  0  0
  185.1920  178.5880  145.7590 C   0  0  0  0  0  3  0  0  0  0  0  0
  186.6840  177.4750  144.2080 C   0  0  0  0  0  3  0  0  0  0  0  0
  184.4390  177.9810  143.5040 O   0  0  0  0  0  0  0  0  0  0  0  0
  183.5900  179.0790  143.1640 C   0  0  2  0  0  3  0  0  0  0  0  0
  181.1630  179.1270  142.9650 N   0  0  0  0  0  1  0  0  0  0  0  0
  182.2600  179.0080  143.9060 C   0  0  0  0  0  2  0  0  0  0  0  0
  183.3680  179.1360  141.7160 N   0  0  0  0  0  2  0  0  0  0  0  0
  184.1240  178.0710  141.0520 C   0  0  0  0  0  2  0  0  0  0  0  0
  183.9410  178.1110  139.5400 C   0  0  1  0  0  3  0  0  0  0  0  0
  181.4890  178.6980  138.9510 C   0  0  0  0  0  0  0  0  0  0  0  0
  182.9360  180.3870  138.8380 C   0  0  0  0  0  3  0  0  0  0  0  0
  181.7240  180.8370  138.4800 N   0  0  0  0  0  0  0  0  0  0  0  0
  181.4220  182.2020  138.1020 C   0  0  0  0  0  1  0  0  0  0  0  0
  180.8210  179.8360  138.5470 C   0  0  0  0  0  3  0  0  0  0  0  0
  182.8220  179.0360  139.1300 C   0  0  0  0  0  0  0  0  0  0  0  0
  180.8790  177.3450  139.1290 C   0  0  0  0  0  2  0  0  0  0  0  0
  181.4740  176.3540  138.1470 C   0  0  0  0  0  2  0  0  0  0  0  0
  181.2440  176.8240  136.7920 N   0  0  0  0  0  2  0  0  0  0  0  0
  182.0170  176.0190  135.9440 N   0  0  0  0  0  2  0  0  0  0  0  0
  183.2410  174.2260  135.9950 C   0  0  0  0  0  1  0  0  0  0  0  0
  182.0740  174.7910  136.5150 O   0  0  0  0  0  0  0  0  0  0  0  0
  185.2580  178.4340  138.8340 C   0  0  0  0  0  2  0  0  0  0  0  0
  186.7170  177.8870  136.9140 C   0  0  0  0  0  1  0  0  0  0  0  0
  185.5130  177.4400  137.7130 C   0  0  0  0  0  2  0  0  0  0  0  0
  189.0330  176.9050  144.8380 C   0  0  0  0  0  2  0  0  0  0  0  0
  189.6290  177.6120  143.7150 N   0  0  0  0  0  2  0  0  0  0  0  0
  190.1340  176.6110  142.7830 C   0  0  0  0  0  2  0  0  0  0  0  0
  190.6860  177.2920  141.5370 C   0  0  0  0  0  2  0  0  0  0  0  0
  190.3740  176.5140  140.3410 N   0  0  0  0  0  2  0  0  0  0  0  0
  191.3310  176.8850  139.3020 C   0  0  0  0  0  2  0  0  0  0  0  0
  187.9160  174.5460  136.7350 O   0  0  0  0  0  1  0  0  0  0  0  0
  191.9820  174.9200  137.8640 C   0  0  2  0  0  3  0  0  0  0  0  0
  191.5960  173.9870  136.7040 C   0  0  0  0  0  2  0  0  0  0  0  0
  191.0440  176.1360  137.9980 C   0  0  1  0  0  3  0  0  0  0  0  0
  189.5790  175.7060  137.9800 C   0  0  0  0  0  2  0  0  0  0  0  0
  189.2720  174.8740  136.7410 C   0  0  1  0  0  3  0  0  0  0  0  0
  190.1190  173.6100  136.7570 C   0  0  0  0  0  2  0  0  0  0  0  0
  193.4580  175.3280  137.7610 C   0  0  0  0  0  2  0  0  0  0  0  0
  194.4180  174.1550  137.5190 C   0  0  0  0  0  2  0  0  0  0  0  0
  195.4900  175.0340  135.4270 C   0  0  0  0  0  3  0  0  0  0  0  0
  197.8530  175.4870  135.3270 C   0  0  0  0  0  3  0  0  0  0  0  0
  195.6320  174.5740  136.7390 C   0  0  0  0  0  0  0  0  0  0  0  0
  197.1270  174.1830  138.7430 C   0  0  0  0  0  1  0  0  0  0  0  0
  196.6010  175.4790  134.7080 C   0  0  0  0  0  3  0  0  0  0  0  0
  197.9800  175.0570  136.6120 N   0  0  0  0  0  0  0  0  0  0  0  0
  196.9140  174.5960  137.3250 C   0  0  0  0  0  0  0  0  0  0  0  0
  1  2  1  0  0  0  0
  2  4  2  0  0  0  0
  3  5  2  0  0  0  0
  5  4  1  0  0  0  0
  6  3  1  0  0  0  0
  6  1  2  0  0  0  0
  7  3  1  0  0  0  0
  8  7  1  0  0  0  0
  8 10  1  1  0  0  0
  9 10  1  0  0  0  0
 11  8  1  0  0  0  0
 12 11  1  0  0  0  0
 13 26  1  6  0  0  0
 13 12  1  0  0  0  0
 14 20  1  0  0  0  0
 14 19  1  0  0  0  0
 15 19  2  0  0  0  0
 16 18  1  0  0  0  0
 16 15  1  0  0  0  0
 17 16  1  0  0  0  0
 18 14  2  0  0  0  0
 19 13  1  0  0  0  0
 21 20  1  0  0  0  0
 22 21  1  0  0  0  0
 23 25  1  0  0  0  0
 23 22  1  0  0  0  0
 24 25  1  0  0  0  0
 27 28  1  0  0  0  0
 28 26  1  0  0  0  0
 29  1  1  0  0  0  0
 30 29  1  0  0  0  0
 31 30  1  0  0  0  0
 32 31  1  0  0  0  0
 33 32  1  0  0  0  0
 34 33  1  0  0  0  0
 36 42  1  6  0  0  0
 36 38  1  0  0  0  0
 37 41  1  0  0  0  0
 37 36  1  0  0  0  0
 38 34  1  1  0  0  0
 39 38  1  0  0  0  0
 40 35  1  1  0  0  0
 40 41  1  0  0  0  0
 40 39  1  0  0  0  0
 43 42  1  0  0  0  0
 44 46  1  0  0  0  0
 45 49  2  0  0  0  0
 46 50  2  0  0  0  0
 46 43  1  0  0  0  0
 48 45  1  0  0  0  0
 48 44  2  0  0  0  0
 49 50  1  0  0  0  0
 50 47  1  0  0  0  0
M  END
>  <MODEL>
9

>  <REMARK>
 VINA RESULT:      -5.5      2.592      5.742
  Name = 
  24 active torsions:
  status: ('A' for Active; 'I' for Inactive)
    1  A    between atoms: N_1  and  N_20
    2  A    between atoms: N_1  and  C_41
    3  A    between atoms: C_2  and  N_6
    4  A    between atoms: C_2  and  C_23
    5  A    between atoms: C_2  and  O_49
    6  A    between atoms: C_3  and  C_9
    7  A    between atoms: C_3  and  C_27
    8  A    between atoms: N_6  and  C_32
    9  A    between atoms: N_10  and  C_45
   10  A    between atoms: N_10  and  C_50
   11  A    between atoms: C_11  and  C_37
   12  A    between atoms: C_12  and  C_26
   13  A    between atoms: C_14  and  C_16
   14  A    between atoms: C_14  and  C_32
   15  A    between atoms: C_14  and  C_46
   16  A    between atoms: C_16  and  C_19
   17  A    between atoms: N_20  and  O_21
   18  A    between atoms: C_22  and  O_49
   19  A    between atoms: C_25  and  C_27
   20  A    between atoms: C_26  and  C_41
   21  A    between atoms: C_29  and  C_50
   22  A    between atoms: N_35  and  C_37
   23  A    between atoms: N_35  and  C_42
   24  A    between atoms: C_42  and  C_45
                            x       y       z     vdW  Elec       q    Type
                         _______ _______ _______ _____ _____    ______ ____

>  <TORSDO>
F 24

$$$$
