=
 OpenBabel10232410013D

 26 28  0  0  1  0  0  0  0  0999 V2000
  188.8730  177.8790  143.5550 C   0  0  0  0  0  0  0  0  0  0  0  0
  186.2340  178.2140  142.7130 C   0  0  0  0  0  3  0  0  0  0  0  0
  188.5990  178.1950  142.2230 C   0  0  0  0  0  3  0  0  0  0  0  0
  186.4960  177.8910  144.0500 C   0  0  0  0  0  0  0  0  0  0  0  0
  187.8260  177.7300  144.4660 C   0  0  0  0  0  3  0  0  0  0  0  0
  187.2750  178.3720  141.7910 C   0  0  0  0  0  0  0  0  0  0  0  0
  190.2200  177.7100  143.9820 N   0  0  0  0  0  0  0  0  0  0  0  0
  191.3080  176.9350  144.6370 C   0  0  1  0  0  0  0  0  0  0  0  0
  191.6850  175.7120  143.8240 C   0  0  0  0  0  1  0  0  0  0  0  0
  191.6380  178.1700  144.1240 C   0  0  0  0  0  2  0  0  0  0  0  0
  191.0850  176.8160  146.1380 C   0  0  0  0  0  2  0  0  0  0  0  0
  192.4470  176.3700  148.1110 N   0  0  0  0  0  1  0  0  0  0  0  0
  192.1060  175.8920  146.7820 C   0  0  0  0  0  2  0  0  0  0  0  0
  185.4130  177.7630  144.9310 O   0  0  0  0  0  0  0  0  0  0  0  0
  185.5790  179.3560  146.7330 O   0  0  0  0  0  0  0  0  0  0  0  0
  183.7100  179.1550  145.4790 O   0  0  0  0  0  0  0  0  0  0  0  0
  184.8880  178.8020  145.6810 N   0  0  0  0  0  0  0  0  0  0  0  0
  186.9450  178.6800  140.4610 O   0  0  0  0  0  0  0  0  0  0  0  0
  187.6160  178.2620  139.3010 C   0  0  0  0  0  0  0  0  0  0  0  0
  189.0120  178.3010  139.1670 C   0  0  0  0  0  3  0  0  0  0  0  0
  187.4660  177.4070  137.0690 N   0  0  0  0  0  0  0  0  0  0  0  0
  186.8580  177.8090  138.2170 C   0  0  0  0  0  3  0  0  0  0  0  0
  188.8180  177.4330  136.9260 C   0  0  0  0  0  0  0  0  0  0  0  0
  189.6180  177.8840  137.9820 C   0  0  0  0  0  3  0  0  0  0  0  0
  189.4170  176.9870  135.6650 C   0  0  0  0  0  3  0  0  0  0  0  0
  190.5750  176.4920  135.6300 O   0  0  0  0  0  0  0  0  0  0  0  0
  1  7  1  0  0  0  0
  1  5  1  0  0  0  0
  2  4  1  0  0  0  0
  3  1  2  0  0  0  0
  4  5  2  0  0  0  0
  4 14  1  0  0  0  0
  6  3  1  0  0  0  0
  6  2  2  0  0  0  0
  7 10  1  0  0  0  0
  7  8  1  0  0  0  0
  8  9  1  6  0  0  0
  8 11  1  0  0  0  0
 10  8  1  0  0  0  0
 11 13  1  0  0  0  0
 13 12  1  0  0  0  0
 14 17  1  0  0  0  0
 16 17  2  0  0  0  0
 17 15  2  0  0  0  0
 18  6  1  0  0  0  0
 19 18  1  0  0  0  0
 20 19  1  0  0  0  0
 21 22  1  0  0  0  0
 22 19  2  0  0  0  0
 23 21  2  0  0  0  0
 23 24  1  0  0  0  0
 24 20  2  0  0  0  0
 25 23  1  0  0  0  0
 26 25  2  0  0  0  0
M  END
>  <MODEL>
1

>  <REMARK>
 VINA RESULT:      -7.5      0.000      0.000
  Name = 
  8 active torsions:
  status: ('A' for Active; 'I' for Inactive)
    1  A    between atoms: C_1  and  N_11
    2  A    between atoms: C_2  and  CA_16
    3  A    between atoms: C_4  and  C_17
    4  A    between atoms: C_4  and  C_18
    5  A    between atoms: O_5  and  C_19
    6  A    between atoms: O_5  and  N_21
    7  A    between atoms: C_6  and  O_22
    8  A    between atoms: O_22  and  C_26
                            x       y       z     vdW  Elec       q    Type
                         _______ _______ _______ _____ _____    ______ ____

>  <TORSDO>
F 8

$$$$
=
 OpenBabel10232410013D

 26 28  0  0  1  0  0  0  0  0999 V2000
  189.7280  177.7600  141.7030 C   0  0  0  0  0  0  0  0  0  0  0  0
  188.9510  177.0870  139.1100 C   0  0  0  0  0  3  0  0  0  0  0  0
  190.4750  176.8390  140.9670 C   0  0  0  0  0  3  0  0  0  0  0  0
  188.1900  178.0070  139.8400 C   0  0  0  0  0  0  0  0  0  0  0  0
  188.5910  178.3450  141.1420 C   0  0  0  0  0  3  0  0  0  0  0  0
  190.0960  176.4980  139.6590 C   0  0  0  0  0  0  0  0  0  0  0  0
  190.1270  178.1040  143.0260 N   0  0  0  0  0  0  0  0  0  0  0  0
  190.3040  177.7960  144.4700 C   0  0  1  0  0  0  0  0  0  0  0  0
  191.3900  176.7610  144.6890 C   0  0  0  0  0  1  0  0  0  0  0  0
  190.6900  179.0470  144.0420 C   0  0  0  0  0  2  0  0  0  0  0  0
  188.9650  177.6620  145.1830 C   0  0  0  0  0  2  0  0  0  0  0  0
  189.1840  178.0380  147.5820 N   0  0  0  0  0  1  0  0  0  0  0  0
  189.1230  177.0170  146.5500 C   0  0  0  0  0  2  0  0  0  0  0  0
  187.0640  178.5760  139.2300 O   0  0  0  0  0  0  0  0  0  0  0  0
  187.2500  179.1590  136.8980 O   0  0  0  0  0  0  0  0  0  0  0  0
  185.7970  177.5900  137.6290 O   0  0  0  0  0  0  0  0  0  0  0  0
  186.7140  178.3890  137.9040 N   0  0  0  0  0  0  0  0  0  0  0  0
  190.8050  175.5700  138.8800 O   0  0  0  0  0  0  0  0  0  0  0  0
  191.7740  175.8470  137.9010 C   0  0  0  0  0  0  0  0  0  0  0  0
  191.6390  175.4610  136.5590 C   0  0  0  0  0  3  0  0  0  0  0  0
  193.9100  176.7930  137.3740 N   0  0  0  0  0  0  0  0  0  0  0  0
  192.9400  176.5160  138.2860 C   0  0  0  0  0  3  0  0  0  0  0  0
  193.7910  176.4320  136.0680 C   0  0  0  0  0  0  0  0  0  0  0  0
  192.6440  175.7550  135.6380 C   0  0  0  0  0  3  0  0  0  0  0  0
  194.8680  176.7580  135.1310 C   0  0  0  0  0  3  0  0  0  0  0  0
  195.7190  177.6490  135.3950 O   0  0  0  0  0  0  0  0  0  0  0  0
  1  7  1  0  0  0  0
  2  6  2  0  0  0  0
  2  4  1  0  0  0  0
  3  1  2  0  0  0  0
  4  5  2  0  0  0  0
  5  1  1  0  0  0  0
  6  3  1  0  0  0  0
  7 10  1  0  0  0  0
  7  8  1  0  0  0  0
  8  9  1  1  0  0  0
  8 11  1  0  0  0  0
 10  8  1  0  0  0  0
 11 13  1  0  0  0  0
 13 12  1  0  0  0  0
 14  4  1  0  0  0  0
 15 17  2  0  0  0  0
 16 17  2  0  0  0  0
 17 14  1  0  0  0  0
 18  6  1  0  0  0  0
 19 22  1  0  0  0  0
 19 18  1  0  0  0  0
 20 19  2  0  0  0  0
 21 22  2  0  0  0  0
 23 21  1  0  0  0  0
 24 23  2  0  0  0  0
 24 20  1  0  0  0  0
 25 26  2  0  0  0  0
 25 23  1  0  0  0  0
M  END
>  <MODEL>
2

>  <REMARK>
 VINA RESULT:      -7.3      3.130      4.976
  Name = 
  8 active torsions:
  status: ('A' for Active; 'I' for Inactive)
    1  A    between atoms: C_1  and  N_11
    2  A    between atoms: C_2  and  CA_16
    3  A    between atoms: C_4  and  C_17
    4  A    between atoms: C_4  and  C_18
    5  A    between atoms: O_5  and  C_19
    6  A    between atoms: O_5  and  N_21
    7  A    between atoms: C_6  and  O_22
    8  A    between atoms: O_22  and  C_26
                            x       y       z     vdW  Elec       q    Type
                         _______ _______ _______ _____ _____    ______ ____

>  <TORSDO>
F 8

$$$$
=
 OpenBabel10232410013D

 26 28  0  0  1  0  0  0  0  0999 V2000
  188.1090  177.8860  142.5640 C   0  0  0  0  0  0  0  0  0  0  0  0
  185.4450  178.6570  142.8630 C   0  0  0  0  0  3  0  0  0  0  0  0
  187.4480  178.5340  141.5200 C   0  0  0  0  0  3  0  0  0  0  0  0
  186.0960  178.0020  143.9150 C   0  0  0  0  0  0  0  0  0  0  0  0
  187.4370  177.6220  143.7590 C   0  0  0  0  0  3  0  0  0  0  0  0
  186.1100  178.9320  141.6630 C   0  0  0  0  0  0  0  0  0  0  0  0
  189.4690  177.4940  142.4090 N   0  0  0  0  0  0  0  0  0  0  0  0
  190.7340  176.8960  142.9140 C   0  0  1  0  0  0  0  0  0  0  0  0
  190.5980  175.4010  143.1230 C   0  0  0  0  0  1  0  0  0  0  0  0
  190.7340  177.3640  141.6190 C   0  0  0  0  0  2  0  0  0  0  0  0
  191.3720  177.7640  143.9910 C   0  0  0  0  0  2  0  0  0  0  0  0
  191.8500  176.8930  146.2180 N   0  0  0  0  0  1  0  0  0  0  0  0
  190.8100  177.4480  145.3680 C   0  0  0  0  0  2  0  0  0  0  0  0
  185.3830  177.7690  145.1000 O   0  0  0  0  0  0  0  0  0  0  0  0
  183.4900  179.1540  145.6580 O   0  0  0  0  0  0  0  0  0  0  0  0
  185.4960  179.4010  146.6700 O   0  0  0  0  0  0  0  0  0  0  0  0
  184.7920  178.7610  145.8640 N   0  0  0  0  0  0  0  0  0  0  0  0
  185.3960  179.5780  140.6400 O   0  0  0  0  0  0  0  0  0  0  0  0
  184.6530  178.9750  139.6110 C   0  0  0  0  0  0  0  0  0  0  0  0
  185.2440  178.2690  138.5530 C   0  0  0  0  0  3  0  0  0  0  0  0
  182.5040  178.5490  138.6450 N   0  0  0  0  0  0  0  0  0  0  0  0
  183.2610  179.1050  139.6280 C   0  0  0  0  0  3  0  0  0  0  0  0
  183.0610  177.8560  137.6160 C   0  0  0  0  0  0  0  0  0  0  0  0
  184.4500  177.7050  137.5540 C   0  0  0  0  0  3  0  0  0  0  0  0
  182.1940  177.2780  136.5860 C   0  0  0  0  0  3  0  0  0  0  0  0
  181.6210  178.0040  135.7300 O   0  0  0  0  0  0  0  0  0  0  0  0
  1  5  1  0  0  0  0
  2  4  1  0  0  0  0
  3  6  1  0  0  0  0
  3  1  2  0  0  0  0
  4 14  1  0  0  0  0
  5  4  2  0  0  0  0
  6  2  2  0  0  0  0
  7  1  1  0  0  0  0
  7  8  1  0  0  0  0
  8  9  1  1  0  0  0
  8 11  1  0  0  0  0
 10  7  1  0  0  0  0
 10  8  1  0  0  0  0
 11 13  1  0  0  0  0
 13 12  1  0  0  0  0
 14 17  1  0  0  0  0
 15 17  2  0  0  0  0
 17 16  2  0  0  0  0
 18  6  1  0  0  0  0
 19 22  1  0  0  0  0
 19 18  1  0  0  0  0
 20 19  2  0  0  0  0
 21 22  2  0  0  0  0
 23 21  1  0  0  0  0
 24 23  2  0  0  0  0
 24 20  1  0  0  0  0
 25 23  1  0  0  0  0
 26 25  2  0  0  0  0
M  END
>  <MODEL>
3

>  <REMARK>
 VINA RESULT:      -7.2      2.695      3.494
  Name = 
  8 active torsions:
  status: ('A' for Active; 'I' for Inactive)
    1  A    between atoms: C_1  and  N_11
    2  A    between atoms: C_2  and  CA_16
    3  A    between atoms: C_4  and  C_17
    4  A    between atoms: C_4  and  C_18
    5  A    between atoms: O_5  and  C_19
    6  A    between atoms: O_5  and  N_21
    7  A    between atoms: C_6  and  O_22
    8  A    between atoms: O_22  and  C_26
                            x       y       z     vdW  Elec       q    Type
                         _______ _______ _______ _____ _____    ______ ____

>  <TORSDO>
F 8

$$$$
=
 OpenBabel10232410013D

 26 28  0  0  1  0  0  0  0  0999 V2000
  188.2940  177.8310  145.6700 C   0  0  0  0  0  0  0  0  0  0  0  0
  190.6640  176.6860  144.7460 C   0  0  0  0  0  3  0  0  0  0  0  0
  188.3530  177.2870  144.3860 C   0  0  0  0  0  3  0  0  0  0  0  0
  190.6200  177.2340  146.0330 C   0  0  0  0  0  0  0  0  0  0  0  0
  189.4230  177.8030  146.4920 C   0  0  0  0  0  3  0  0  0  0  0  0
  189.5380  176.7030  143.9140 C   0  0  0  0  0  0  0  0  0  0  0  0
  187.0830  178.4140  146.1400 N   0  0  0  0  0  0  0  0  0  0  0  0
  185.6180  178.6570  146.0560 C   0  0  1  0  0  0  0  0  0  0  0  0
  184.8280  177.3990  146.3610 C   0  0  0  0  0  1  0  0  0  0  0  0
  186.2950  179.2540  147.0960 C   0  0  0  0  0  2  0  0  0  0  0  0
  185.2610  179.5110  144.8470 C   0  0  0  0  0  2  0  0  0  0  0  0
  184.7800  178.8230  142.5580 N   0  0  0  0  0  1  0  0  0  0  0  0
  184.2890  178.7920  143.9240 C   0  0  0  0  0  2  0  0  0  0  0  0
  191.7740  177.1730  146.8250 O   0  0  0  0  0  0  0  0  0  0  0  0
  193.1070  176.2180  148.5930 O   0  0  0  0  0  0  0  0  0  0  0  0
  191.4810  175.0440  147.5510 O   0  0  0  0  0  0  0  0  0  0  0  0
  192.0760  176.1320  147.6870 N   0  0  0  0  0  0  0  0  0  0  0  0
  189.6530  176.1510  142.6280 O   0  0  0  0  0  0  0  0  0  0  0  0
  189.4790  176.8120  141.4010 C   0  0  0  0  0  0  0  0  0  0  0  0
  188.3780  177.6370  141.1250 C   0  0  0  0  0  3  0  0  0  0  0  0
  190.2970  177.2320  139.1900 N   0  0  0  0  0  0  0  0  0  0  0  0
  190.4340  176.6210  140.3980 C   0  0  0  0  0  3  0  0  0  0  0  0
  189.2400  178.0390  138.9090 C   0  0  0  0  0  0  0  0  0  0  0  0
  188.2560  178.2550  139.8800 C   0  0  0  0  0  3  0  0  0  0  0  0
  189.1470  178.6700  137.5910 C   0  0  0  0  0  3  0  0  0  0  0  0
  188.9810  179.9140  137.4700 O   0  0  0  0  0  0  0  0  0  0  0  0
  1  7  1  0  0  0  0
  1  5  1  0  0  0  0
  2  4  1  0  0  0  0
  3  1  2  0  0  0  0
  4  5  2  0  0  0  0
  4 14  1  0  0  0  0
  6  3  1  0  0  0  0
  6  2  2  0  0  0  0
  7 10  1  0  0  0  0
  8  7  1  0  0  0  0
  8  9  1  1  0  0  0
  8 10  1  0  0  0  0
 11  8  1  0  0  0  0
 12 13  1  0  0  0  0
 13 11  1  0  0  0  0
 14 17  1  0  0  0  0
 16 17  2  0  0  0  0
 17 15  2  0  0  0  0
 18  6  1  0  0  0  0
 19 18  1  0  0  0  0
 20 19  1  0  0  0  0
 21 22  1  0  0  0  0
 22 19  2  0  0  0  0
 23 21  2  0  0  0  0
 23 24  1  0  0  0  0
 24 20  2  0  0  0  0
 25 23  1  0  0  0  0
 26 25  2  0  0  0  0
M  END
>  <MODEL>
4

>  <REMARK>
 VINA RESULT:      -7.2      3.296      5.540
  Name = 
  8 active torsions:
  status: ('A' for Active; 'I' for Inactive)
    1  A    between atoms: C_1  and  N_11
    2  A    between atoms: C_2  and  CA_16
    3  A    between atoms: C_4  and  C_17
    4  A    between atoms: C_4  and  C_18
    5  A    between atoms: O_5  and  C_19
    6  A    between atoms: O_5  and  N_21
    7  A    between atoms: C_6  and  O_22
    8  A    between atoms: O_22  and  C_26
                            x       y       z     vdW  Elec       q    Type
                         _______ _______ _______ _____ _____    ______ ____

>  <TORSDO>
F 8

$$$$
=
 OpenBabel10232410013D

 26 28  0  0  1  0  0  0  0  0999 V2000
  188.0870  177.5590  142.7270 C   0  0  0  0  0  0  0  0  0  0  0  0
  185.5210  178.6150  143.0110 C   0  0  0  0  0  3  0  0  0  0  0  0
  187.5030  178.2670  141.6760 C   0  0  0  0  0  3  0  0  0  0  0  0
  186.0930  177.9010  144.0700 C   0  0  0  0  0  0  0  0  0  0  0  0
  187.3860  177.3780  143.9220 C   0  0  0  0  0  3  0  0  0  0  0  0
  186.2150  178.8080  141.8110 C   0  0  0  0  0  0  0  0  0  0  0  0
  189.3970  177.0220  142.5810 N   0  0  0  0  0  0  0  0  0  0  0  0
  190.8460  177.1480  142.2660 C   0  0  1  0  0  0  0  0  0  0  0  0
  191.5760  177.9560  143.3210 C   0  0  0  0  0  1  0  0  0  0  0  0
  190.3860  175.8990  142.6210 C   0  0  0  0  0  2  0  0  0  0  0  0
  191.0750  177.4370  140.7880 C   0  0  0  0  0  2  0  0  0  0  0  0
  190.9360  175.8880  138.9100 N   0  0  0  0  0  1  0  0  0  0  0  0
  190.1580  176.6010  139.9090 C   0  0  0  0  0  2  0  0  0  0  0  0
  185.3560  177.7560  145.2530 O   0  0  0  0  0  0  0  0  0  0  0  0
  185.5470  179.4300  146.9780 O   0  0  0  0  0  0  0  0  0  0  0  0
  183.6340  179.1190  145.8170 O   0  0  0  0  0  0  0  0  0  0  0  0
  184.8310  178.8100  145.9820 N   0  0  0  0  0  0  0  0  0  0  0  0
  185.5780  179.5190  140.7810 O   0  0  0  0  0  0  0  0  0  0  0  0
  184.7160  179.0020  139.7990 C   0  0  0  0  0  0  0  0  0  0  0  0
  183.3180  179.0670  139.8960 C   0  0  0  0  0  3  0  0  0  0  0  0
  184.4790  177.8470  137.7150 N   0  0  0  0  0  0  0  0  0  0  0  0
  185.2760  178.3730  138.6840 C   0  0  0  0  0  3  0  0  0  0  0  0
  183.1230  177.9070  137.7910 C   0  0  0  0  0  0  0  0  0  0  0  0
  182.5170  178.5220  138.8920 C   0  0  0  0  0  3  0  0  0  0  0  0
  182.3150  177.3240  136.7170 C   0  0  0  0  0  3  0  0  0  0  0  0
  182.5410  177.5950  135.5070 O   0  0  0  0  0  0  0  0  0  0  0  0
  1  5  1  0  0  0  0
  2  4  1  0  0  0  0
  3  6  1  0  0  0  0
  3  1  2  0  0  0  0
  4 14  1  0  0  0  0
  5  4  2  0  0  0  0
  6  2  2  0  0  0  0
  7 10  1  0  0  0  0
  7  1  1  0  0  0  0
  8  7  1  0  0  0  0
  8 10  1  0  0  0  0
  8  9  1  1  0  0  0
 11  8  1  0  0  0  0
 12 13  1  0  0  0  0
 13 11  1  0  0  0  0
 14 17  1  0  0  0  0
 16 17  2  0  0  0  0
 17 15  2  0  0  0  0
 18  6  1  0  0  0  0
 19 20  1  0  0  0  0
 19 18  1  0  0  0  0
 21 23  2  0  0  0  0
 21 22  1  0  0  0  0
 22 19  2  0  0  0  0
 23 24  1  0  0  0  0
 24 20  2  0  0  0  0
 25 23  1  0  0  0  0
 26 25  2  0  0  0  0
M  END
>  <MODEL>
5

>  <REMARK>
 VINA RESULT:      -7.2      2.791      4.195
  Name = 
  8 active torsions:
  status: ('A' for Active; 'I' for Inactive)
    1  A    between atoms: C_1  and  N_11
    2  A    between atoms: C_2  and  CA_16
    3  A    between atoms: C_4  and  C_17
    4  A    between atoms: C_4  and  C_18
    5  A    between atoms: O_5  and  C_19
    6  A    between atoms: O_5  and  N_21
    7  A    between atoms: C_6  and  O_22
    8  A    between atoms: O_22  and  C_26
                            x       y       z     vdW  Elec       q    Type
                         _______ _______ _______ _____ _____    ______ ____

>  <TORSDO>
F 8

$$$$
=
 OpenBabel10232410013D

 26 28  0  0  1  0  0  0  0  0999 V2000
  189.8120  177.9850  141.6930 C   0  0  0  0  0  0  0  0  0  0  0  0
  188.4660  177.7900  139.2570 C   0  0  0  0  0  3  0  0  0  0  0  0
  188.4960  178.4370  141.5840 C   0  0  0  0  0  3  0  0  0  0  0  0
  189.7880  177.3390  139.3520 C   0  0  0  0  0  0  0  0  0  0  0  0
  190.4560  177.4350  140.5820 C   0  0  0  0  0  3  0  0  0  0  0  0
  187.8080  178.3380  140.3640 C   0  0  0  0  0  0  0  0  0  0  0  0
  190.4970  178.0850  142.9370 N   0  0  0  0  0  0  0  0  0  0  0  0
  190.7390  177.6700  144.3450 C   0  0  1  0  0  0  0  0  0  0  0  0
  191.3440  176.2810  144.4190 C   0  0  0  0  0  1  0  0  0  0  0  0
  191.5250  178.6840  143.8440 C   0  0  0  0  0  2  0  0  0  0  0  0
  189.5720  178.0450  145.2480 C   0  0  0  0  0  2  0  0  0  0  0  0
  187.2950  177.4910  145.9230 N   0  0  0  0  0  1  0  0  0  0  0  0
  188.3740  177.1370  145.0160 C   0  0  0  0  0  2  0  0  0  0  0  0
  190.3880  176.7840  138.2140 O   0  0  0  0  0  0  0  0  0  0  0  0
  192.6770  176.0270  138.1910 O   0  0  0  0  0  0  0  0  0  0  0  0
  190.9380  174.5840  138.1820 O   0  0  0  0  0  0  0  0  0  0  0  0
  191.3280  175.7670  138.2420 N   0  0  0  0  0  0  0  0  0  0  0  0
  186.4880  178.7870  140.1980 O   0  0  0  0  0  0  0  0  0  0  0  0
  185.4790  178.8380  141.1740 C   0  0  0  0  0  0  0  0  0  0  0  0
  185.7160  179.2260  142.5010 C   0  0  0  0  0  3  0  0  0  0  0  0
  183.1770  178.4840  141.7300 N   0  0  0  0  0  0  0  0  0  0  0  0
  184.1820  178.4620  140.8130 C   0  0  0  0  0  3  0  0  0  0  0  0
  183.3880  178.8640  143.0180 C   0  0  0  0  0  0  0  0  0  0  0  0
  184.6720  179.2430  143.4260 C   0  0  0  0  0  3  0  0  0  0  0  0
  182.2670  178.8680  143.9600 C   0  0  0  0  0  3  0  0  0  0  0  0
  181.0790  179.0050  143.5630 O   0  0  0  0  0  0  0  0  0  0  0  0
  1  7  1  0  0  0  0
  2  4  2  0  0  0  0
  2  6  1  0  0  0  0
  3  1  1  0  0  0  0
  4  5  1  0  0  0  0
  5  1  2  0  0  0  0
  6  3  2  0  0  0  0
  7 10  1  0  0  0  0
  7  8  1  0  0  0  0
  8  9  1  1  0  0  0
  8 11  1  0  0  0  0
 10  8  1  0  0  0  0
 13 11  1  0  0  0  0
 13 12  1  0  0  0  0
 14 17  1  0  0  0  0
 14  4  1  0  0  0  0
 15 17  2  0  0  0  0
 16 17  2  0  0  0  0
 18  6  1  0  0  0  0
 18 19  1  0  0  0  0
 19 20  1  0  0  0  0
 20 24  2  0  0  0  0
 21 23  2  0  0  0  0
 22 19  2  0  0  0  0
 22 21  1  0  0  0  0
 23 24  1  0  0  0  0
 23 25  1  0  0  0  0
 26 25  2  0  0  0  0
M  END
>  <MODEL>
6

>  <REMARK>
 VINA RESULT:      -7.1      2.638      6.418
  Name = 
  8 active torsions:
  status: ('A' for Active; 'I' for Inactive)
    1  A    between atoms: C_1  and  N_11
    2  A    between atoms: C_2  and  CA_16
    3  A    between atoms: C_4  and  C_17
    4  A    between atoms: C_4  and  C_18
    5  A    between atoms: O_5  and  C_19
    6  A    between atoms: O_5  and  N_21
    7  A    between atoms: C_6  and  O_22
    8  A    between atoms: O_22  and  C_26
                            x       y       z     vdW  Elec       q    Type
                         _______ _______ _______ _____ _____    ______ ____

>  <TORSDO>
F 8

$$$$
=
 OpenBabel10232410013D

 26 28  0  0  1  0  0  0  0  0999 V2000
  189.8150  177.0750  143.2990 C   0  0  0  0  0  0  0  0  0  0  0  0
  189.6070  177.3470  146.0680 C   0  0  0  0  0  3  0  0  0  0  0  0
  188.5710  177.3100  143.8860 C   0  0  0  0  0  3  0  0  0  0  0  0
  190.8600  177.1050  145.4910 C   0  0  0  0  0  0  0  0  0  0  0  0
  190.9570  176.9750  144.0970 C   0  0  0  0  0  3  0  0  0  0  0  0
  188.4570  177.4540  145.2780 C   0  0  0  0  0  0  0  0  0  0  0  0
  189.9190  176.9380  141.8860 N   0  0  0  0  0  0  0  0  0  0  0  0
  190.2470  177.4600  140.5320 C   0  0  1  0  0  0  0  0  0  0  0  0
  191.7390  177.6640  140.3610 C   0  0  0  0  0  1  0  0  0  0  0  0
  189.7840  176.1650  140.6110 C   0  0  0  0  0  2  0  0  0  0  0  0
  189.2720  178.5460  140.0990 C   0  0  0  0  0  2  0  0  0  0  0  0
  187.5140  178.4120  138.4140 N   0  0  0  0  0  1  0  0  0  0  0  0
  188.9520  178.4500  138.6150 C   0  0  0  0  0  2  0  0  0  0  0  0
  191.9780  177.0240  146.3310 O   0  0  0  0  0  0  0  0  0  0  0  0
  191.6090  175.1170  147.7600 O   0  0  0  0  0  0  0  0  0  0  0  0
  192.1830  177.1400  148.5870 O   0  0  0  0  0  0  0  0  0  0  0  0
  191.9740  176.4310  147.5830 N   0  0  0  0  0  0  0  0  0  0  0  0
  187.2290  177.6810  145.9200 O   0  0  0  0  0  0  0  0  0  0  0  0
  186.0110  178.0450  145.3210 C   0  0  0  0  0  0  0  0  0  0  0  0
  185.8040  178.0240  143.9340 C   0  0  0  0  0  3  0  0  0  0  0  0
  183.7720  178.8450  145.6040 N   0  0  0  0  0  0  0  0  0  0  0  0
  184.9640  178.4710  146.1430 C   0  0  0  0  0  3  0  0  0  0  0  0
  183.5530  178.8240  144.2630 C   0  0  0  0  0  0  0  0  0  0  0  0
  184.5740  178.4100  143.4000 C   0  0  0  0  0  3  0  0  0  0  0  0
  182.2480  179.2370  143.7400 C   0  0  0  0  0  3  0  0  0  0  0  0
  181.8670  178.8990  142.5880 O   0  0  0  0  0  0  0  0  0  0  0  0
  1  3  2  0  0  0  0
  1  5  1  0  0  0  0
  3  6  1  0  0  0  0
  4  2  1  0  0  0  0
  4 14  1  0  0  0  0
  5  4  2  0  0  0  0
  6 18  1  0  0  0  0
  6  2  2  0  0  0  0
  7  1  1  0  0  0  0
  8  9  1  6  0  0  0
  8 10  1  0  0  0  0
  8  7  1  0  0  0  0
 10  7  1  0  0  0  0
 11  8  1  0  0  0  0
 12 13  1  0  0  0  0
 13 11  1  0  0  0  0
 14 17  1  0  0  0  0
 17 15  2  0  0  0  0
 17 16  2  0  0  0  0
 19 18  1  0  0  0  0
 19 22  1  0  0  0  0
 20 19  2  0  0  0  0
 21 22  2  0  0  0  0
 23 21  1  0  0  0  0
 24 20  1  0  0  0  0
 24 23  2  0  0  0  0
 25 23  1  0  0  0  0
 26 25  2  0  0  0  0
M  END
>  <MODEL>
7

>  <REMARK>
 VINA RESULT:      -7.0      3.074      7.008
  Name = 
  8 active torsions:
  status: ('A' for Active; 'I' for Inactive)
    1  A    between atoms: C_1  and  N_11
    2  A    between atoms: C_2  and  CA_16
    3  A    between atoms: C_4  and  C_17
    4  A    between atoms: C_4  and  C_18
    5  A    between atoms: O_5  and  C_19
    6  A    between atoms: O_5  and  N_21
    7  A    between atoms: C_6  and  O_22
    8  A    between atoms: O_22  and  C_26
                            x       y       z     vdW  Elec       q    Type
                         _______ _______ _______ _____ _____    ______ ____

>  <TORSDO>
F 8

$$$$
=
 OpenBabel10232410013D

 26 28  0  0  1  0  0  0  0  0999 V2000
  188.1520  177.4600  145.0950 C   0  0  0  0  0  0  0  0  0  0  0  0
  186.8930  178.2630  142.7380 C   0  0  0  0  0  3  0  0  0  0  0  0
  188.9140  177.7840  143.9710 C   0  0  0  0  0  3  0  0  0  0  0  0
  186.1180  177.9340  143.8560 C   0  0  0  0  0  0  0  0  0  0  0  0
  186.7590  177.5370  145.0390 C   0  0  0  0  0  3  0  0  0  0  0  0
  188.2900  178.1950  142.7820 C   0  0  0  0  0  0  0  0  0  0  0  0
  188.7970  177.0510  146.2960 N   0  0  0  0  0  0  0  0  0  0  0  0
  189.8130  177.2200  147.3690 C   0  0  1  0  0  0  0  0  0  0  0  0
  189.5000  178.4140  148.2490 C   0  0  0  0  0  1  0  0  0  0  0  0
  188.9820  176.1250  147.4570 C   0  0  0  0  0  2  0  0  0  0  0  0
  191.2250  177.0080  146.8410 C   0  0  0  0  0  2  0  0  0  0  0  0
  192.8790  176.1620  148.4200 N   0  0  0  0  0  1  0  0  0  0  0  0
  191.8700  175.7730  147.4500 C   0  0  0  0  0  2  0  0  0  0  0  0
  184.7240  178.0380  143.7560 O   0  0  0  0  0  0  0  0  0  0  0  0
  184.0410  178.7900  145.9440 O   0  0  0  0  0  0  0  0  0  0  0  0
  183.0280  179.5140  144.0570 O   0  0  0  0  0  0  0  0  0  0  0  0
  183.9390  178.8350  144.5730 N   0  0  0  0  0  0  0  0  0  0  0  0
  189.0090  178.5210  141.6210 O   0  0  0  0  0  0  0  0  0  0  0  0
  189.2190  177.7090  140.4950 C   0  0  0  0  0  0  0  0  0  0  0  0
  190.3770  176.9390  140.3100 C   0  0  0  0  0  3  0  0  0  0  0  0
  188.4050  176.9210  138.3850 N   0  0  0  0  0  0  0  0  0  0  0  0
  188.2380  177.6840  139.4980 C   0  0  0  0  0  3  0  0  0  0  0  0
  189.5180  176.1650  138.1930 C   0  0  0  0  0  0  0  0  0  0  0  0
  190.5290  176.1630  139.1610 C   0  0  0  0  0  3  0  0  0  0  0  0
  189.6420  175.3630  136.9740 C   0  0  0  0  0  3  0  0  0  0  0  0
  189.1270  175.7390  135.8880 O   0  0  0  0  0  0  0  0  0  0  0  0
  1  7  1  0  0  0  0
  2  6  2  0  0  0  0
  2  4  1  0  0  0  0
  3  1  2  0  0  0  0
  4  5  2  0  0  0  0
  5  1  1  0  0  0  0
  6  3  1  0  0  0  0
  7  8  1  0  0  0  0
  7 10  1  0  0  0  0
  8 10  1  0  0  0  0
  8  9  1  1  0  0  0
 11  8  1  0  0  0  0
 11 13  1  0  0  0  0
 13 12  1  0  0  0  0
 14  4  1  0  0  0  0
 14 17  1  0  0  0  0
 16 17  2  0  0  0  0
 17 15  2  0  0  0  0
 18  6  1  0  0  0  0
 19 18  1  0  0  0  0
 20 19  1  0  0  0  0
 21 22  1  0  0  0  0
 22 19  2  0  0  0  0
 23 21  2  0  0  0  0
 23 24  1  0  0  0  0
 24 20  2  0  0  0  0
 25 23  1  0  0  0  0
 26 25  2  0  0  0  0
M  END
>  <MODEL>
8

>  <REMARK>
 VINA RESULT:      -7.0      1.653      2.244
  Name = 
  8 active torsions:
  status: ('A' for Active; 'I' for Inactive)
    1  A    between atoms: C_1  and  N_11
    2  A    between atoms: C_2  and  CA_16
    3  A    between atoms: C_4  and  C_17
    4  A    between atoms: C_4  and  C_18
    5  A    between atoms: O_5  and  C_19
    6  A    between atoms: O_5  and  N_21
    7  A    between atoms: C_6  and  O_22
    8  A    between atoms: O_22  and  C_26
                            x       y       z     vdW  Elec       q    Type
                         _______ _______ _______ _____ _____    ______ ____

>  <TORSDO>
F 8

$$$$
=
 OpenBabel10232410013D

 26 28  0  0  1  0  0  0  0  0999 V2000
  183.0900  178.7350  142.6610 C   0  0  0  0  0  0  0  0  0  0  0  0
  185.5420  178.6190  143.9880 C   0  0  0  0  0  3  0  0  0  0  0  0
  184.2620  178.4860  141.9440 C   0  0  0  0  0  3  0  0  0  0  0  0
  184.3750  178.8760  144.7170 C   0  0  0  0  0  0  0  0  0  0  0  0
  183.1450  178.9280  144.0430 C   0  0  0  0  0  3  0  0  0  0  0  0
  185.4990  178.4200  142.6030 C   0  0  0  0  0  0  0  0  0  0  0  0
  181.8410  178.7930  141.9820 N   0  0  0  0  0  0  0  0  0  0  0  0
  180.9940  178.6560  140.7660 C   0  0  1  0  0  0  0  0  0  0  0  0
  180.8660  177.2070  140.3380 C   0  0  0  0  0  1  0  0  0  0  0  0
  180.3650  179.0370  141.9310 C   0  0  0  0  0  2  0  0  0  0  0  0
  181.3130  179.7330  139.7370 C   0  0  0  0  0  2  0  0  0  0  0  0
  183.5120  180.2990  138.8480 N   0  0  0  0  0  1  0  0  0  0  0  0
  182.4500  179.3080  138.8210 C   0  0  0  0  0  2  0  0  0  0  0  0
  184.4780  179.0510  146.1040 O   0  0  0  0  0  0  0  0  0  0  0  0
  186.4050  177.7960  146.8290 O   0  0  0  0  0  0  0  0  0  0  0  0
  185.9890  179.8880  147.5720 O   0  0  0  0  0  0  0  0  0  0  0  0
  185.6600  178.9510  146.8180 N   0  0  0  0  0  0  0  0  0  0  0  0
  186.7080  178.1830  141.9280 O   0  0  0  0  0  0  0  0  0  0  0  0
  187.9440  177.8320  142.4960 C   0  0  0  0  0  0  0  0  0  0  0  0
  189.0260  178.7200  142.5830 C   0  0  0  0  0  3  0  0  0  0  0  0
  189.2970  176.1430  143.5220 N   0  0  0  0  0  0  0  0  0  0  0  0
  188.1120  176.5300  142.9760 C   0  0  0  0  0  3  0  0  0  0  0  0
  190.3530  176.9930  143.6200 C   0  0  0  0  0  0  0  0  0  0  0  0
  190.2330  178.3050  143.1470 C   0  0  0  0  0  3  0  0  0  0  0  0
  191.6040  176.5210  144.2190 C   0  0  0  0  0  3  0  0  0  0  0  0
  191.9780  175.3240  144.0940 O   0  0  0  0  0  0  0  0  0  0  0  0
  1  5  1  0  0  0  0
  2  4  1  0  0  0  0
  3  6  1  0  0  0  0
  3  1  2  0  0  0  0
  4 14  1  0  0  0  0
  5  4  2  0  0  0  0
  6  2  2  0  0  0  0
  7  1  1  0  0  0  0
  8  9  1  6  0  0  0
  8 10  1  0  0  0  0
  8  7  1  0  0  0  0
 10  7  1  0  0  0  0
 11  8  1  0  0  0  0
 13 12  1  0  0  0  0
 13 11  1  0  0  0  0
 14 17  1  0  0  0  0
 17 15  2  0  0  0  0
 17 16  2  0  0  0  0
 18 19  1  0  0  0  0
 18  6  1  0  0  0  0
 19 20  2  0  0  0  0
 19 22  1  0  0  0  0
 20 24  1  0  0  0  0
 21 23  1  0  0  0  0
 22 21  2  0  0  0  0
 23 25  1  0  0  0  0
 24 23  2  0  0  0  0
 26 25  2  0  0  0  0
M  END
>  <MODEL>
9

>  <REMARK>
 VINA RESULT:      -6.9      3.487      7.316
  Name = 
  8 active torsions:
  status: ('A' for Active; 'I' for Inactive)
    1  A    between atoms: C_1  and  N_11
    2  A    between atoms: C_2  and  CA_16
    3  A    between atoms: C_4  and  C_17
    4  A    between atoms: C_4  and  C_18
    5  A    between atoms: O_5  and  C_19
    6  A    between atoms: O_5  and  N_21
    7  A    between atoms: C_6  and  O_22
    8  A    between atoms: O_22  and  C_26
                            x       y       z     vdW  Elec       q    Type
                         _______ _______ _______ _____ _____    ______ ____

>  <TORSDO>
F 8

$$$$
