=
 OpenBabel10232411263D

 36 40  0  0  1  0  0  0  0  0999 V2000
  185.3640  175.4920  136.5010 C   0  0  0  0  0  2  0  0  0  0  0  0
  188.5080  177.5800  140.7720 N   0  0  0  0  0  0  0  0  0  0  0  0
  189.9130  177.4500  140.8440 C   0  0  0  0  0  0  0  0  0  0  0  0
  185.2220  176.9810  136.1500 C   0  0  1  0  0  0  0  0  0  0  0  0
  192.0750  177.4450  141.7930 N   0  0  0  0  0  0  0  0  0  0  0  0
  186.9100  173.6350  137.5480 O   0  0  0  0  0  0  0  0  0  0  0  0
  190.7240  177.4900  141.9720 C   0  0  0  0  0  0  0  0  0  0  0  0
  190.1480  177.5920  143.3410 C   0  0  0  0  0  1  0  0  0  0  0  0
  188.2100  177.5740  139.5080 C   0  0  0  0  0  0  0  0  0  0  0  0
  190.4720  177.3780  139.6080 C   0  0  0  0  0  0  0  0  0  0  0  0
  186.5220  178.3420  137.7890 C   0  0  0  0  0  0  0  0  0  0  0  0
  187.3540  178.9970  137.1040 O   0  0  0  0  0  0  0  0  0  0  0  0
  191.8180  177.3490  139.4380 N   0  0  0  0  0  0  0  0  0  0  0  0
  186.8710  177.8400  139.0790 N   0  0  0  0  0  2  0  0  0  0  0  0
  192.6220  177.3760  140.5400 C   0  0  0  0  0  3  0  0  0  0  0  0
  189.3990  177.3690  138.5710 C   0  0  1  0  0  3  0  0  0  0  0  0
  186.7420  175.1470  137.6200 S   0  0  1  0  0  0  0  0  0  0  0  0
  189.3720  175.9870  137.8620 C   0  0  1  0  0  3  0  0  0  0  0  0
  185.7910  177.4170  134.8180 C   0  0  0  0  0  2  0  0  0  0  0  0
  184.2820  177.3000  134.9900 C   0  0  1  0  0  3  0  0  0  0  0  0
  185.1650  178.0530  137.2370 C   0  0  0  0  0  2  0  0  0  0  0  0
  188.2230  175.8470  136.8330 C   0  0  1  0  0  3  0  0  0  0  0  0
  192.4880  175.8460  135.9770 C   0  0  0  0  0  3  0  0  0  0  0  0
  191.2720  176.4180  136.3100 C   0  0  0  0  0  3  0  0  0  0  0  0
  190.6810  175.6870  137.2740 N   0  0  0  0  0  0  0  0  0  0  0  0
  191.4760  174.6460  137.5840 C   0  0  0  0  0  3  0  0  0  0  0  0
  192.6000  174.7370  136.7950 C   0  0  0  0  0  0  0  0  0  0  0  0
  193.7230  173.7580  136.7750 C   0  0  0  0  0  2  0  0  0  0  0  0
  195.7040  175.0380  137.1570 O   0  0  0  0  0  1  0  0  0  0  0  0
  194.8060  174.1590  137.7640 C   0  0  2  0  0  3  0  0  0  0  0  0
  195.5490  172.9230  138.2220 C   0  0  0  0  0  1  0  0  0  0  0  0
  188.5750  175.0900  135.5810 C   0  0  0  0  0  0  0  0  0  0  0  0
  188.6230  175.7250  134.4210 C   0  0  0  0  0  2  0  0  0  0  0  0
  188.8750  173.7340  135.6300 O   0  0  0  0  0  1  0  0  0  0  0  0
  183.8340  176.1430  134.3470 O   0  0  0  0  0  0  0  0  0  0  0  0
  182.4440  176.2480  134.3660 C   0  0  0  0  0  1  0  0  0  0  0  0
  1 17  1  0  0  0  0
  2  3  1  0  0  0  0
  3  7  1  0  0  0  0
  4 19  1  6  0  0  0
  4  1  1  0  0  0  0
  4 21  1  0  0  0  0
  5  7  2  0  0  0  0
  7  8  1  0  0  0  0
  9  2  2  0  0  0  0
 10  3  2  0  0  0  0
 11 14  1  0  0  0  0
 12 11  2  0  0  0  0
 13 10  1  0  0  0  0
 13 15  2  0  0  0  0
 14  9  1  0  0  0  0
 15  5  1  0  0  0  0
 16  9  1  1  0  0  0
 16 10  1  0  0  0  0
 17  6  2  6  0  0  0
 18 25  1  6  0  0  0
 18 16  1  0  0  0  0
 19 20  1  0  0  0  0
 20 35  1  6  0  0  0
 20  4  1  0  0  0  0
 21 11  1  0  0  0  0
 22 32  1  6  0  0  0
 22 17  1  0  0  0  0
 22 18  1  0  0  0  0
 23 24  2  0  0  0  0
 23 27  1  0  0  0  0
 24 25  1  0  0  0  0
 25 26  1  0  0  0  0
 27 26  2  0  0  0  0
 28 27  1  0  0  0  0
 28 30  1  0  0  0  0
 29 30  1  0  0  0  0
 30 31  1  6  0  0  0
 32 34  1  0  0  0  0
 33 32  2  0  0  0  0
 35 36  1  0  0  0  0
M  END
>  <MODEL>
1

>  <REMARK>
 VINA RESULT:      -5.5      0.000      0.000
  Name = 
  5 active torsions:
  status: ('A' for Active; 'I' for Inactive)
    1  A    between atoms: C_1  and  C_30
    2  A    between atoms: C_1  and  C_36
    3  A    between atoms: N_10  and  C_25
    4  A    between atoms: C_18  and  C_33
    5  A    between atoms: O_27  and  C_28
                            x       y       z     vdW  Elec       q    Type
                         _______ _______ _______ _____ _____    ______ ____

>  <TORSDO>
F 5

$$$$
=
 OpenBabel10232411263D

 36 40  0  0  1  0  0  0  0  0999 V2000
  184.1580  176.6840  134.9840 C   0  0  0  0  0  2  0  0  0  0  0  0
  188.7560  173.3160  135.0230 N   0  0  0  0  0  0  0  0  0  0  0  0
  189.9180  173.5880  135.7800 C   0  0  0  0  0  0  0  0  0  0  0  0
  183.5510  175.5190  135.7810 C   0  0  1  0  0  0  0  0  0  0  0  0
  192.1690  173.4500  136.4810 N   0  0  0  0  0  0  0  0  0  0  0  0
  186.3460  178.0430  134.4290 O   0  0  0  0  0  0  0  0  0  0  0  0
  191.2160  173.1450  135.5550 C   0  0  0  0  0  0  0  0  0  0  0  0
  191.5660  172.3470  134.3470 C   0  0  0  0  0  1  0  0  0  0  0  0
  187.7690  173.8620  135.6680 C   0  0  0  0  0  0  0  0  0  0  0  0
  189.6280  174.2950  136.9040 C   0  0  0  0  0  0  0  0  0  0  0  0
  185.2800  173.7480  136.0990 C   0  0  0  0  0  0  0  0  0  0  0  0
  185.3920  173.6020  137.3460 O   0  0  0  0  0  0  0  0  0  0  0  0
  190.5790  174.5820  137.8280 N   0  0  0  0  0  0  0  0  0  0  0  0
  186.4210  173.6430  135.2460 N   0  0  0  0  0  2  0  0  0  0  0  0
  191.8580  174.1610  137.6090 C   0  0  0  0  0  3  0  0  0  0  0  0
  188.1740  174.6340  136.9230 C   0  0  1  0  0  3  0  0  0  0  0  0
  185.9670  176.6600  134.9430 S   0  0  1  0  0  0  0  0  0  0  0  0
  187.9960  176.1690  136.7650 C   0  0  1  0  0  3  0  0  0  0  0  0
  183.1140  175.8260  137.1950 C   0  0  0  0  0  2  0  0  0  0  0  0
  182.0660  175.6440  136.1060 C   0  0  1  0  0  3  0  0  0  0  0  0
  183.9510  174.0710  135.5020 C   0  0  0  0  0  2  0  0  0  0  0  0
  186.5140  176.6090  136.6750 C   0  0  1  0  0  3  0  0  0  0  0  0
  190.2010  178.2120  138.8250 C   0  0  0  0  0  3  0  0  0  0  0  0
  189.7430  177.7310  137.6110 C   0  0  0  0  0  3  0  0  0  0  0  0
  188.7200  176.8810  137.8220 N   0  0  0  0  0  0  0  0  0  0  0  0
  188.4940  176.7890  139.1460 C   0  0  0  0  0  3  0  0  0  0  0  0
  189.3980  177.6120  139.7760 C   0  0  0  0  0  0  0  0  0  0  0  0
  189.5370  177.7760  141.2510 C   0  0  0  0  0  2  0  0  0  0  0  0
  190.3690  175.7230  142.1460 O   0  0  0  0  0  1  0  0  0  0  0  0
  190.7460  177.0110  141.7670 C   0  0  2  0  0  3  0  0  0  0  0  0
  191.3240  177.7350  142.9640 C   0  0  0  0  0  1  0  0  0  0  0  0
  186.1840  177.8970  137.3800 C   0  0  0  0  0  0  0  0  0  0  0  0
  185.2610  177.9090  138.3290 C   0  0  0  0  0  2  0  0  0  0  0  0
  186.8560  179.0710  137.0670 O   0  0  0  0  0  1  0  0  0  0  0  0
  181.5550  176.8940  135.7460 O   0  0  0  0  0  0  0  0  0  0  0  0
  180.6800  177.2270  136.7790 C   0  0  0  0  0  1  0  0  0  0  0  0
  2  9  2  0  0  0  0
  2  3  1  0  0  0  0
  3 10  1  0  0  0  0
  4  1  1  6  0  0  0
  4 20  1  0  0  0  0
  4 19  1  0  0  0  0
  5 15  2  0  0  0  0
  7  3  2  0  0  0  0
  7  5  1  0  0  0  0
  8  7  1  0  0  0  0
 10 16  1  0  0  0  0
 10 13  2  0  0  0  0
 11 12  2  0  0  0  0
 14  9  1  0  0  0  0
 14 11  1  0  0  0  0
 15 13  1  0  0  0  0
 16  9  1  6  0  0  0
 17  6  2  1  0  0  0
 17  1  1  0  0  0  0
 17 22  1  0  0  0  0
 18 16  1  0  0  0  0
 18 25  1  1  0  0  0
 20 35  1  6  0  0  0
 20 19  1  0  0  0  0
 21  4  1  0  0  0  0
 21 11  1  0  0  0  0
 22 18  1  0  0  0  0
 22 32  1  6  0  0  0
 23 27  1  0  0  0  0
 24 25  1  0  0  0  0
 24 23  2  0  0  0  0
 25 26  1  0  0  0  0
 26 27  2  0  0  0  0
 27 28  1  0  0  0  0
 28 30  1  0  0  0  0
 30 29  1  0  0  0  0
 30 31  1  1  0  0  0
 32 33  2  0  0  0  0
 34 32  1  0  0  0  0
 35 36  1  0  0  0  0
M  END
>  <MODEL>
2

>  <REMARK>
 VINA RESULT:      -5.5      2.479      5.201
  Name = 
  5 active torsions:
  status: ('A' for Active; 'I' for Inactive)
    1  A    between atoms: C_1  and  C_30
    2  A    between atoms: C_1  and  C_36
    3  A    between atoms: N_10  and  C_25
    4  A    between atoms: C_18  and  C_33
    5  A    between atoms: O_27  and  C_28
                            x       y       z     vdW  Elec       q    Type
                         _______ _______ _______ _____ _____    ______ ____

>  <TORSDO>
F 5

$$$$
=
 OpenBabel10232411263D

 36 40  0  0  1  0  0  0  0  0999 V2000
  189.8580  177.3320  136.0960 C   0  0  0  0  0  2  0  0  0  0  0  0
  185.0630  179.2590  138.5000 N   0  0  0  0  0  0  0  0  0  0  0  0
  183.8230  178.5860  138.4200 C   0  0  0  0  0  0  0  0  0  0  0  0
  190.2430  177.0690  137.5600 C   0  0  1  0  0  0  0  0  0  0  0  0
  181.4870  178.2580  138.5330 N   0  0  0  0  0  0  0  0  0  0  0  0
  187.8940  177.4580  134.3460 O   0  0  0  0  0  0  0  0  0  0  0  0
  182.5450  179.1180  138.5440 C   0  0  0  0  0  0  0  0  0  0  0  0
  182.3240  180.5830  138.6970 C   0  0  0  0  0  1  0  0  0  0  0  0
  185.9780  178.3400  138.4200 C   0  0  0  0  0  0  0  0  0  0  0  0
  183.9910  177.2430  138.3040 C   0  0  0  0  0  0  0  0  0  0  0  0
  188.3550  177.7440  139.0450 C   0  0  0  0  0  0  0  0  0  0  0  0
  188.0410  176.7080  139.6900 O   0  0  0  0  0  0  0  0  0  0  0  0
  182.9340  176.3910  138.3100 N   0  0  0  0  0  0  0  0  0  0  0  0
  187.3550  178.6710  138.6210 N   0  0  0  0  0  2  0  0  0  0  0  0
  181.6750  176.9060  138.4200 C   0  0  0  0  0  3  0  0  0  0  0  0
  185.4460  176.9240  138.2070 C   0  0  1  0  0  3  0  0  0  0  0  0
  188.0810  177.5680  135.8540 S   0  0  1  0  0  0  0  0  0  0  0  0
  185.7640  176.3710  136.7900 C   0  0  1  0  0  3  0  0  0  0  0  0
  190.4810  175.6260  137.9460 C   0  0  0  0  0  2  0  0  0  0  0  0
  191.6660  176.5680  137.7890 C   0  0  1  0  0  3  0  0  0  0  0  0
  189.7810  177.9950  138.6840 C   0  0  0  0  0  2  0  0  0  0  0  0
  187.2720  176.1030  136.5600 C   0  0  1  0  0  3  0  0  0  0  0  0
  183.4740  173.8470  135.5010 C   0  0  0  0  0  3  0  0  0  0  0  0
  184.0970  175.0820  135.4620 C   0  0  0  0  0  3  0  0  0  0  0  0
  184.9430  175.1910  136.5040 N   0  0  0  0  0  0  0  0  0  0  0  0
  184.8930  174.0580  137.2290 C   0  0  0  0  0  3  0  0  0  0  0  0
  183.9940  173.2170  136.6150 C   0  0  0  0  0  0  0  0  0  0  0  0
  183.5920  171.8700  137.1130 C   0  0  0  0  0  2  0  0  0  0  0  0
  181.6200  170.9090  136.1660 O   0  0  0  0  0  1  0  0  0  0  0  0
  182.9980  171.0360  135.9880 C   0  0  2  0  0  3  0  0  0  0  0  0
  183.6310  169.6610  135.9970 C   0  0  0  0  0  1  0  0  0  0  0  0
  187.5870  174.8730  135.7530 C   0  0  0  0  0  0  0  0  0  0  0  0
  188.1640  173.8340  136.3360 C   0  0  0  0  0  2  0  0  0  0  0  0
  187.2560  174.8030  134.4060 O   0  0  0  0  0  1  0  0  0  0  0  0
  192.3210  176.2860  136.5870 O   0  0  0  0  0  0  0  0  0  0  0  0
  193.6450  176.0510  136.9550 C   0  0  0  0  0  1  0  0  0  0  0  0
  3  2  1  0  0  0  0
  3  7  1  0  0  0  0
  4  1  1  6  0  0  0
  4 20  1  0  0  0  0
  4 19  1  0  0  0  0
  4 21  1  0  0  0  0
  5  7  2  0  0  0  0
  7  8  1  0  0  0  0
  9  2  2  0  0  0  0
  9 14  1  0  0  0  0
 10 13  1  0  0  0  0
 10  3  2  0  0  0  0
 11 12  2  0  0  0  0
 13 15  2  0  0  0  0
 14 11  1  0  0  0  0
 15  5  1  0  0  0  0
 16 10  1  6  0  0  0
 16  9  1  0  0  0  0
 17  6  2  6  0  0  0
 17  1  1  0  0  0  0
 17 22  1  0  0  0  0
 18 25  1  1  0  0  0
 18 16  1  0  0  0  0
 20 35  1  6  0  0  0
 20 19  1  0  0  0  0
 21 11  1  0  0  0  0
 22 32  1  6  0  0  0
 22 18  1  0  0  0  0
 23 27  1  0  0  0  0
 24 23  2  0  0  0  0
 24 25  1  0  0  0  0
 25 26  1  0  0  0  0
 27 28  1  0  0  0  0
 27 26  2  0  0  0  0
 30 31  1  1  0  0  0
 30 29  1  0  0  0  0
 30 28  1  0  0  0  0
 32 33  2  0  0  0  0
 34 32  1  0  0  0  0
 35 36  1  0  0  0  0
M  END
>  <MODEL>
3

>  <REMARK>
 VINA RESULT:      -5.2      3.013      7.500
  Name = 
  5 active torsions:
  status: ('A' for Active; 'I' for Inactive)
    1  A    between atoms: C_1  and  C_30
    2  A    between atoms: C_1  and  C_36
    3  A    between atoms: N_10  and  C_25
    4  A    between atoms: C_18  and  C_33
    5  A    between atoms: O_27  and  C_28
                            x       y       z     vdW  Elec       q    Type
                         _______ _______ _______ _____ _____    ______ ____

>  <TORSDO>
F 5

$$$$
=
 OpenBabel10232411263D

 36 40  0  0  1  0  0  0  0  0999 V2000
  181.7890  176.9390  137.6540 C   0  0  0  0  0  2  0  0  0  0  0  0
  185.3450  178.1910  141.9290 N   0  0  0  0  0  0  0  0  0  0  0  0
  186.7520  178.1400  141.8150 C   0  0  0  0  0  0  0  0  0  0  0  0
  181.5480  178.4570  137.6820 C   0  0  1  0  0  0  0  0  0  0  0  0
  189.0120  178.0590  142.4950 N   0  0  0  0  0  0  0  0  0  0  0  0
  183.5220  174.9970  138.0580 O   0  0  0  0  0  0  0  0  0  0  0  0
  187.6920  177.9730  142.8250 C   0  0  0  0  0  0  0  0  0  0  0  0
  187.2830  177.7190  144.2340 C   0  0  0  0  0  1  0  0  0  0  0  0
  184.8960  178.4570  140.7390 C   0  0  0  0  0  0  0  0  0  0  0  0
  187.1600  178.3920  140.5440 C   0  0  0  0  0  0  0  0  0  0  0  0
  182.9840  179.4870  139.4440 C   0  0  0  0  0  0  0  0  0  0  0  0
  183.7010  180.3340  138.8470 O   0  0  0  0  0  0  0  0  0  0  0  0
  188.4750  178.4920  140.2250 N   0  0  0  0  0  0  0  0  0  0  0  0
  183.5060  178.7250  140.5340 N   0  0  0  0  0  2  0  0  0  0  0  0
  189.4050  178.3170  141.2090 C   0  0  0  0  0  3  0  0  0  0  0  0
  185.9700  178.5510  139.6560 C   0  0  1  0  0  3  0  0  0  0  0  0
  183.3050  176.4380  138.5030 S   0  0  1  0  0  0  0  0  0  0  0  0
  185.9110  177.3700  138.6490 C   0  0  1  0  0  3  0  0  0  0  0  0
  181.9340  179.2240  136.4370 C   0  0  0  0  0  2  0  0  0  0  0  0
  180.4640  178.9710  136.7400 C   0  0  1  0  0  3  0  0  0  0  0  0
  181.5830  179.2430  138.9920 C   0  0  0  0  0  2  0  0  0  0  0  0
  184.6520  177.3960  137.7470 C   0  0  1  0  0  3  0  0  0  0  0  0
  188.8220  177.9060  136.5230 C   0  0  0  0  0  3  0  0  0  0  0  0
  187.6560  178.3180  137.1440 C   0  0  0  0  0  3  0  0  0  0  0  0
  187.1490  177.3010  137.8670 N   0  0  0  0  0  0  0  0  0  0  0  0
  187.9510  176.2280  137.7360 C   0  0  0  0  0  3  0  0  0  0  0  0
  188.9930  176.5910  136.9140 C   0  0  0  0  0  0  0  0  0  0  0  0
  190.0900  175.6900  136.4600 C   0  0  0  0  0  2  0  0  0  0  0  0
  192.4640  175.5120  136.2570 O   0  0  0  0  0  1  0  0  0  0  0  0
  191.4460  176.2430  136.8710 C   0  0  2  0  0  3  0  0  0  0  0  0
  191.5940  176.1400  138.3740 C   0  0  0  0  0  1  0  0  0  0  0  0
  184.8780  176.9720  136.3210 C   0  0  0  0  0  0  0  0  0  0  0  0
  184.7940  177.8660  135.3490 C   0  0  0  0  0  2  0  0  0  0  0  0
  185.2000  175.6560  136.0130 O   0  0  0  0  0  1  0  0  0  0  0  0
  179.9860  177.9670  135.8950 O   0  0  0  0  0  0  0  0  0  0  0  0
  179.9840  178.5460  134.6260 C   0  0  0  0  0  1  0  0  0  0  0  0
  1  4  1  0  0  0  0
  1 17  1  0  0  0  0
  3  2  1  0  0  0  0
  3  7  1  0  0  0  0
  4 19  1  6  0  0  0
  4 21  1  0  0  0  0
  5  7  2  0  0  0  0
  7  8  1  0  0  0  0
  9  2  2  0  0  0  0
 10  3  2  0  0  0  0
 11 14  1  0  0  0  0
 12 11  2  0  0  0  0
 13 10  1  0  0  0  0
 13 15  2  0  0  0  0
 14  9  1  0  0  0  0
 15  5  1  0  0  0  0
 16 10  1  1  0  0  0
 16  9  1  0  0  0  0
 17  6  2  6  0  0  0
 18 25  1  6  0  0  0
 18 16  1  0  0  0  0
 19 20  1  0  0  0  0
 20 35  1  6  0  0  0
 20  4  1  0  0  0  0
 21 11  1  0  0  0  0
 22 32  1  6  0  0  0
 22 17  1  0  0  0  0
 22 18  1  0  0  0  0
 23 27  1  0  0  0  0
 23 24  2  0  0  0  0
 24 25  1  0  0  0  0
 26 25  1  0  0  0  0
 27 26  2  0  0  0  0
 28 30  1  0  0  0  0
 28 27  1  0  0  0  0
 29 30  1  0  0  0  0
 30 31  1  1  0  0  0
 33 32  2  0  0  0  0
 34 32  1  0  0  0  0
 36 35  1  0  0  0  0
M  END
>  <MODEL>
4

>  <REMARK>
 VINA RESULT:      -4.8      2.729      3.938
  Name = 
  5 active torsions:
  status: ('A' for Active; 'I' for Inactive)
    1  A    between atoms: C_1  and  C_30
    2  A    between atoms: C_1  and  C_36
    3  A    between atoms: N_10  and  C_25
    4  A    between atoms: C_18  and  C_33
    5  A    between atoms: O_27  and  C_28
                            x       y       z     vdW  Elec       q    Type
                         _______ _______ _______ _____ _____    ______ ____

>  <TORSDO>
F 5

$$$$
=
 OpenBabel10232411263D

 36 40  0  0  1  0  0  0  0  0999 V2000
  182.3790  179.0160  138.7480 C   0  0  0  0  0  2  0  0  0  0  0  0
  186.9510  177.1300  135.9150 N   0  0  0  0  0  0  0  0  0  0  0  0
  188.2400  177.0360  136.4860 C   0  0  0  0  0  0  0  0  0  0  0  0
  181.9780  177.5340  138.6760 C   0  0  1  0  0  0  0  0  0  0  0  0
  190.5900  176.8310  136.5890 N   0  0  0  0  0  0  0  0  0  0  0  0
  184.3720  180.7320  138.8950 O   0  0  0  0  0  0  0  0  0  0  0  0
  189.4710  177.0380  135.8390 C   0  0  0  0  0  0  0  0  0  0  0  0
  189.5750  177.2480  134.3690 C   0  0  0  0  0  1  0  0  0  0  0  0
  186.1110  176.9870  136.8960 C   0  0  0  0  0  0  0  0  0  0  0  0
  188.1790  176.8190  137.8260 C   0  0  0  0  0  0  0  0  0  0  0  0
  183.7720  176.2500  137.5100 C   0  0  0  0  0  0  0  0  0  0  0  0
  184.1470  175.3680  138.3290 O   0  0  0  0  0  0  0  0  0  0  0  0
  189.2970  176.5990  138.5630 N   0  0  0  0  0  0  0  0  0  0  0  0
  184.7090  176.8820  136.6370 N   0  0  0  0  0  2  0  0  0  0  0  0
  190.5100  176.6110  137.9370 C   0  0  0  0  0  3  0  0  0  0  0  0
  186.7550  176.8440  138.2740 C   0  0  1  0  0  3  0  0  0  0  0  0
  184.1390  179.2980  138.4360 S   0  0  1  0  0  0  0  0  0  0  0  0
  186.5160  178.0840  139.1790 C   0  0  1  0  0  3  0  0  0  0  0  0
  181.8420  176.8080  139.9960 C   0  0  0  0  0  2  0  0  0  0  0  0
  180.5920  177.1980  139.2190 C   0  0  1  0  0  3  0  0  0  0  0  0
  182.3400  176.6700  137.4700 C   0  0  0  0  0  2  0  0  0  0  0  0
  185.0390  178.2490  139.6160 C   0  0  1  0  0  3  0  0  0  0  0  0
  189.1500  178.5830  141.6470 C   0  0  0  0  0  3  0  0  0  0  0  0
  188.5000  178.8750  140.4600 C   0  0  0  0  0  3  0  0  0  0  0  0
  187.4310  178.0670  140.3240 N   0  0  0  0  0  0  0  0  0  0  0  0
  187.3610  177.2500  141.3910 C   0  0  0  0  0  3  0  0  0  0  0  0
  188.4130  177.5640  142.2200 C   0  0  0  0  0  0  0  0  0  0  0  0
  188.7470  176.8670  143.4950 C   0  0  0  0  0  2  0  0  0  0  0  0
  190.1650  177.8230  145.1630 O   0  0  0  0  0  1  0  0  0  0  0  0
  188.8740  177.8650  144.6360 C   0  0  2  0  0  3  0  0  0  0  0  0
  187.8800  177.5140  145.7220 C   0  0  0  0  0  1  0  0  0  0  0  0
  184.8390  178.7330  141.0260 C   0  0  0  0  0  0  0  0  0  0  0  0
  184.0620  178.0480  141.8520 C   0  0  0  0  0  2  0  0  0  0  0  0
  185.4800  179.8770  141.4840 O   0  0  0  0  0  1  0  0  0  0  0  0
  179.9910  178.2980  139.8370 O   0  0  0  0  0  0  0  0  0  0  0  0
  180.2570  178.1270  141.1950 C   0  0  0  0  0  1  0  0  0  0  0  0
  2  3  1  0  0  0  0
  2  9  2  0  0  0  0
  3 10  1  0  0  0  0
  4 21  1  6  0  0  0
  4  1  1  0  0  0  0
  4 20  1  0  0  0  0
  4 19  1  0  0  0  0
  5 15  2  0  0  0  0
  7  3  2  0  0  0  0
  7  5  1  0  0  0  0
  8  7  1  0  0  0  0
 10 16  1  0  0  0  0
 10 13  2  0  0  0  0
 11 12  2  0  0  0  0
 14  9  1  0  0  0  0
 14 11  1  0  0  0  0
 15 13  1  0  0  0  0
 16  9  1  6  0  0  0
 16 18  1  0  0  0  0
 17  1  1  0  0  0  0
 17  6  2  1  0  0  0
 17 22  1  0  0  0  0
 18 22  1  0  0  0  0
 18 25  1  1  0  0  0
 20 35  1  1  0  0  0
 20 19  1  0  0  0  0
 21 11  1  0  0  0  0
 22 32  1  1  0  0  0
 23 27  1  0  0  0  0
 24 23  2  0  0  0  0
 25 24  1  0  0  0  0
 25 26  1  0  0  0  0
 26 27  2  0  0  0  0
 27 28  1  0  0  0  0
 28 30  1  0  0  0  0
 30 29  1  0  0  0  0
 30 31  1  1  0  0  0
 32 34  1  0  0  0  0
 32 33  2  0  0  0  0
 35 36  1  0  0  0  0
M  END
>  <MODEL>
5

>  <REMARK>
 VINA RESULT:      -4.3      3.501      6.421
  Name = 
  5 active torsions:
  status: ('A' for Active; 'I' for Inactive)
    1  A    between atoms: C_1  and  C_30
    2  A    between atoms: C_1  and  C_36
    3  A    between atoms: N_10  and  C_25
    4  A    between atoms: C_18  and  C_33
    5  A    between atoms: O_27  and  C_28
                            x       y       z     vdW  Elec       q    Type
                         _______ _______ _______ _____ _____    ______ ____

>  <TORSDO>
F 5

$$$$
=
 OpenBabel10232411263D

 36 40  0  0  1  0  0  0  0  0999 V2000
  189.9360  175.9890  144.1060 C   0  0  0  0  0  2  0  0  0  0  0  0
  187.6470  177.7240  139.1830 N   0  0  0  0  0  0  0  0  0  0  0  0
  186.3570  178.2920  139.0780 C   0  0  0  0  0  0  0  0  0  0  0  0
  190.8220  177.2270  143.8930 C   0  0  1  0  0  0  0  0  0  0  0  0
  184.3540  179.0290  138.0670 N   0  0  0  0  0  0  0  0  0  0  0  0
  187.5630  174.9130  143.7210 O   0  0  0  0  0  0  0  0  0  0  0  0
  185.5220  178.3340  137.9660 C   0  0  0  0  0  0  0  0  0  0  0  0
  185.8890  177.6540  136.6930 C   0  0  0  0  0  1  0  0  0  0  0  0
  188.0710  178.0120  140.3760 C   0  0  0  0  0  0  0  0  0  0  0  0
  186.0030  178.9420  140.2170 C   0  0  0  0  0  0  0  0  0  0  0  0
  190.1320  178.3840  141.7930 C   0  0  0  0  0  0  0  0  0  0  0  0
  189.8170  179.5550  142.1370 O   0  0  0  0  0  0  0  0  0  0  0  0
  184.8450  179.6450  140.3040 N   0  0  0  0  0  0  0  0  0  0  0  0
  189.4150  177.7100  140.7580 N   0  0  0  0  0  2  0  0  0  0  0  0
  184.0150  179.6810  139.2220 C   0  0  0  0  0  3  0  0  0  0  0  0
  187.0660  178.7630  141.2490 C   0  0  1  0  0  3  0  0  0  0  0  0
  188.4260  176.0090  143.1090 S   0  0  1  0  0  0  0  0  0  0  0  0
  186.5190  177.8960  142.4160 C   0  0  1  0  0  3  0  0  0  0  0  0
  190.7160  178.3180  144.9340 C   0  0  0  0  0  2  0  0  0  0  0  0
  191.9440  177.4180  144.9090 C   0  0  1  0  0  3  0  0  0  0  0  0
  191.2420  177.6740  142.4940 C   0  0  0  0  0  2  0  0  0  0  0  0
  187.5840  177.5730  143.4930 C   0  0  1  0  0  3  0  0  0  0  0  0
  184.0190  179.9320  144.1150 C   0  0  0  0  0  3  0  0  0  0  0  0
  185.3130  179.6470  143.7150 C   0  0  0  0  0  3  0  0  0  0  0  0
  185.3190  178.5100  142.9920 N   0  0  0  0  0  0  0  0  0  0  0  0
  184.0610  178.0380  142.9070 C   0  0  0  0  0  3  0  0  0  0  0  0
  183.2470  178.9120  143.5910 C   0  0  0  0  0  0  0  0  0  0  0  0
  181.7800  178.7460  143.7950 C   0  0  0  0  0  2  0  0  0  0  0  0
  180.3480  180.4350  142.8970 O   0  0  0  0  0  1  0  0  0  0  0  0
  181.0080  179.2460  142.5830 C   0  0  2  0  0  3  0  0  0  0  0  0
  179.9910  178.2040  142.1720 C   0  0  0  0  0  1  0  0  0  0  0  0
  187.0820  177.5800  144.9110 C   0  0  0  0  0  0  0  0  0  0  0  0
  187.6780  178.3430  145.8150 C   0  0  0  0  0  2  0  0  0  0  0  0
  185.9840  176.8140  145.2800 O   0  0  0  0  0  1  0  0  0  0  0  0
  191.8610  176.4990  145.9580 O   0  0  0  0  0  0  0  0  0  0  0  0
  191.2560  177.2050  146.9970 C   0  0  0  0  0  1  0  0  0  0  0  0
  2  9  2  0  0  0  0
  3  2  1  0  0  0  0
  3 10  1  0  0  0  0
  4 21  1  6  0  0  0
  4  1  1  0  0  0  0
  4 20  1  0  0  0  0
  4 19  1  0  0  0  0
  5 15  2  0  0  0  0
  7  5  1  0  0  0  0
  7  3  2  0  0  0  0
  8  7  1  0  0  0  0
  9 14  1  0  0  0  0
  9 16  1  0  0  0  0
 10 13  2  0  0  0  0
 11 12  2  0  0  0  0
 11 21  1  0  0  0  0
 14 11  1  0  0  0  0
 15 13  1  0  0  0  0
 16 10  1  6  0  0  0
 16 18  1  0  0  0  0
 17 22  1  0  0  0  0
 17  6  2  1  0  0  0
 17  1  1  0  0  0  0
 18 25  1  1  0  0  0
 18 22  1  0  0  0  0
 20 19  1  0  0  0  0
 20 35  1  1  0  0  0
 22 32  1  1  0  0  0
 24 23  2  0  0  0  0
 25 24  1  0  0  0  0
 26 25  1  0  0  0  0
 26 27  2  0  0  0  0
 27 28  1  0  0  0  0
 27 23  1  0  0  0  0
 30 31  1  1  0  0  0
 30 29  1  0  0  0  0
 30 28  1  0  0  0  0
 32 34  1  0  0  0  0
 32 33  2  0  0  0  0
 35 36  1  0  0  0  0
M  END
>  <MODEL>
6

>  <REMARK>
 VINA RESULT:      -4.1      4.741      9.877
  Name = 
  5 active torsions:
  status: ('A' for Active; 'I' for Inactive)
    1  A    between atoms: C_1  and  C_30
    2  A    between atoms: C_1  and  C_36
    3  A    between atoms: N_10  and  C_25
    4  A    between atoms: C_18  and  C_33
    5  A    between atoms: O_27  and  C_28
                            x       y       z     vdW  Elec       q    Type
                         _______ _______ _______ _____ _____    ______ ____

>  <TORSDO>
F 5

$$$$
=
 OpenBabel10232411263D

 36 40  0  0  1  0  0  0  0  0999 V2000
  188.9820  178.5420  138.3970 C   0  0  0  0  0  2  0  0  0  0  0  0
  183.5850  180.1740  139.2280 N   0  0  0  0  0  0  0  0  0  0  0  0
  182.4750  179.5400  138.6250 C   0  0  0  0  0  0  0  0  0  0  0  0
  188.8450  178.0610  139.8490 C   0  0  1  0  0  0  0  0  0  0  0  0
  180.2590  179.2370  137.8690 N   0  0  0  0  0  0  0  0  0  0  0  0
  187.7440  178.9570  136.1090 O   0  0  0  0  0  0  0  0  0  0  0  0
  181.2150  180.0690  138.3710 C   0  0  0  0  0  0  0  0  0  0  0  0
  180.9020  181.4990  138.6460 C   0  0  0  0  0  1  0  0  0  0  0  0
  184.5030  179.2620  139.3420 C   0  0  0  0  0  0  0  0  0  0  0  0
  182.7210  178.2260  138.3840 C   0  0  0  0  0  0  0  0  0  0  0  0
  186.5350  178.5420  140.6630 C   0  0  0  0  0  0  0  0  0  0  0  0
  186.0550  177.4270  141.0030 O   0  0  0  0  0  0  0  0  0  0  0  0
  181.7590  177.4000  137.8990 N   0  0  0  0  0  0  0  0  0  0  0  0
  185.7120  179.5380  140.0550 N   0  0  0  0  0  2  0  0  0  0  0  0
  180.5220  177.9140  137.6350 C   0  0  0  0  0  3  0  0  0  0  0  0
  184.1300  177.9010  138.7550 C   0  0  1  0  0  3  0  0  0  0  0  0
  187.3930  178.8410  137.5870 S   0  0  1  0  0  0  0  0  0  0  0  0
  184.9390  177.5580  137.4750 C   0  0  1  0  0  3  0  0  0  0  0  0
  188.9850  176.5730  140.0820 C   0  0  0  0  0  2  0  0  0  0  0  0
  190.1170  177.5080  140.4860 C   0  0  1  0  0  3  0  0  0  0  0  0
  187.9880  178.8200  140.8620 C   0  0  0  0  0  2  0  0  0  0  0  0
  186.4420  177.3010  137.7490 C   0  0  1  0  0  3  0  0  0  0  0  0
  183.3900  175.2680  135.1010 C   0  0  0  0  0  3  0  0  0  0  0  0
  183.9710  176.4740  135.4520 C   0  0  0  0  0  3  0  0  0  0  0  0
  184.3120  176.4460  136.7540 N   0  0  0  0  0  0  0  0  0  0  0  0
  183.9700  175.2510  137.2710 C   0  0  0  0  0  3  0  0  0  0  0  0
  183.4060  174.5110  136.2570 C   0  0  0  0  0  0  0  0  0  0  0  0
  182.8370  173.1410  136.4010 C   0  0  0  0  0  2  0  0  0  0  0  0
  184.9850  172.2820  135.8010 O   0  0  0  0  0  1  0  0  0  0  0  0
  183.9340  172.1320  136.7070 C   0  0  2  0  0  3  0  0  0  0  0  0
  183.3720  170.7310  136.5910 C   0  0  0  0  0  1  0  0  0  0  0  0
  187.0620  176.1990  136.9350 C   0  0  0  0  0  0  0  0  0  0  0  0
  187.3210  175.0300  137.5000 C   0  0  0  0  0  2  0  0  0  0  0  0
  187.3430  176.3820  135.5870 O   0  0  0  0  0  1  0  0  0  0  0  0
  191.1580  177.3960  139.5600 O   0  0  0  0  0  0  0  0  0  0  0  0
  192.3100  177.2870  140.3380 C   0  0  0  0  0  1  0  0  0  0  0  0
  2  9  2  0  0  0  0
  3  2  1  0  0  0  0
  4  1  1  6  0  0  0
  4 19  1  0  0  0  0
  4 20  1  0  0  0  0
  4 21  1  0  0  0  0
  5  7  1  0  0  0  0
  7  3  2  0  0  0  0
  7  8  1  0  0  0  0
  9 14  1  0  0  0  0
 10  3  1  0  0  0  0
 11 21  1  0  0  0  0
 11 12  2  0  0  0  0
 13 10  2  0  0  0  0
 14 11  1  0  0  0  0
 15  5  2  0  0  0  0
 15 13  1  0  0  0  0
 16 10  1  6  0  0  0
 16  9  1  0  0  0  0
 17  6  2  6  0  0  0
 17 22  1  0  0  0  0
 17  1  1  0  0  0  0
 18 25  1  1  0  0  0
 18 22  1  0  0  0  0
 18 16  1  0  0  0  0
 19 20  1  0  0  0  0
 20 35  1  6  0  0  0
 22 32  1  6  0  0  0
 23 24  2  0  0  0  0
 23 27  1  0  0  0  0
 24 25  1  0  0  0  0
 25 26  1  0  0  0  0
 27 28  1  0  0  0  0
 27 26  2  0  0  0  0
 28 30  1  0  0  0  0
 29 30  1  0  0  0  0
 30 31  1  6  0  0  0
 32 33  2  0  0  0  0
 34 32  1  0  0  0  0
 35 36  1  0  0  0  0
M  END
>  <MODEL>
7

>  <REMARK>
 VINA RESULT:      -4.0      3.460      7.863
  Name = 
  5 active torsions:
  status: ('A' for Active; 'I' for Inactive)
    1  A    between atoms: C_1  and  C_30
    2  A    between atoms: C_1  and  C_36
    3  A    between atoms: N_10  and  C_25
    4  A    between atoms: C_18  and  C_33
    5  A    between atoms: O_27  and  C_28
                            x       y       z     vdW  Elec       q    Type
                         _______ _______ _______ _____ _____    ______ ____

>  <TORSDO>
F 5

$$$$
=
 OpenBabel10232411263D

 36 40  0  0  1  0  0  0  0  0999 V2000
  188.9390  175.7160  136.2170 C   0  0  0  0  0  2  0  0  0  0  0  0
  184.4850  178.0590  138.8910 N   0  0  0  0  0  0  0  0  0  0  0  0
  184.4940  178.4170  140.2580 C   0  0  0  0  0  0  0  0  0  0  0  0
  189.0030  177.0980  135.5480 C   0  0  1  0  0  0  0  0  0  0  0  0
  183.6490  179.0150  142.3810 N   0  0  0  0  0  0  0  0  0  0  0  0
  188.3150  174.3730  138.3950 O   0  0  0  0  0  0  0  0  0  0  0  0
  183.4110  178.5570  141.1190 C   0  0  0  0  0  0  0  0  0  0  0  0
  182.0250  178.2330  140.6830 C   0  0  0  0  0  1  0  0  0  0  0  0
  185.7160  178.1520  138.4860 C   0  0  0  0  0  0  0  0  0  0  0  0
  185.7430  178.7430  140.6810 C   0  0  0  0  0  0  0  0  0  0  0  0
  187.1950  178.5470  136.4740 C   0  0  0  0  0  0  0  0  0  0  0  0
  187.7790  179.5500  136.9640 O   0  0  0  0  0  0  0  0  0  0  0  0
  185.9690  179.2130  141.9340 N   0  0  0  0  0  0  0  0  0  0  0  0
  186.0340  177.9990  137.1000 N   0  0  0  0  0  2  0  0  0  0  0  0
  184.9140  179.3420  142.7890 C   0  0  0  0  0  3  0  0  0  0  0  0
  186.7210  178.5260  139.5740 C   0  0  1  0  0  3  0  0  0  0  0  0
  187.9590  175.7000  137.7370 S   0  0  1  0  0  0  0  0  0  0  0  0
  187.6710  177.3530  139.9420 C   0  0  1  0  0  3  0  0  0  0  0  0
  190.2540  177.9110  135.8000 C   0  0  0  0  0  2  0  0  0  0  0  0
  190.0460  177.2500  134.4440 C   0  0  1  0  0  3  0  0  0  0  0  0
  187.7350  177.8950  135.2450 C   0  0  0  0  0  2  0  0  0  0  0  0
  188.6620  176.9880  138.8090 C   0  0  1  0  0  3  0  0  0  0  0  0
  189.6270  178.6410  142.7330 C   0  0  0  0  0  3  0  0  0  0  0  0
  189.1240  178.7060  141.4460 C   0  0  0  0  0  3  0  0  0  0  0  0
  188.3560  177.6260  141.2080 N   0  0  0  0  0  0  0  0  0  0  0  0
  188.3410  176.8500  142.3080 C   0  0  0  0  0  3  0  0  0  0  0  0
  189.1160  177.4700  143.2600 C   0  0  0  0  0  0  0  0  0  0  0  0
  189.4160  176.9290  144.6160 C   0  0  0  0  0  2  0  0  0  0  0  0
  188.9870  177.2130  146.9500 O   0  0  0  0  0  1  0  0  0  0  0  0
  188.6900  177.7280  145.6880 C   0  0  2  0  0  3  0  0  0  0  0  0
  187.1970  177.6400  145.4520 C   0  0  0  0  0  1  0  0  0  0  0  0
  190.0450  176.6100  139.2660 C   0  0  0  0  0  0  0  0  0  0  0  0
  191.1010  177.0800  138.6200 C   0  0  0  0  0  2  0  0  0  0  0  0
  190.2300  175.7950  140.3750 O   0  0  0  0  0  1  0  0  0  0  0  0
  190.8730  176.1280  134.3480 O   0  0  0  0  0  0  0  0  0  0  0  0
  192.1680  176.6410  134.4110 C   0  0  0  0  0  1  0  0  0  0  0  0
  1 17  1  0  0  0  0
  2  3  1  0  0  0  0
  3 10  2  0  0  0  0
  3  7  1  0  0  0  0
  4 21  1  6  0  0  0
  4 19  1  0  0  0  0
  4  1  1  0  0  0  0
  5 15  1  0  0  0  0
  7  5  2  0  0  0  0
  8  7  1  0  0  0  0
  9  2  2  0  0  0  0
 10 13  1  0  0  0  0
 11 12  2  0  0  0  0
 11 14  1  0  0  0  0
 13 15  2  0  0  0  0
 14  9  1  0  0  0  0
 16  9  1  6  0  0  0
 16 18  1  0  0  0  0
 16 10  1  0  0  0  0
 17  6  2  1  0  0  0
 17 22  1  0  0  0  0
 18 25  1  1  0  0  0
 20 35  1  1  0  0  0
 20  4  1  0  0  0  0
 20 19  1  0  0  0  0
 21 11  1  0  0  0  0
 22 32  1  1  0  0  0
 22 18  1  0  0  0  0
 23 27  1  0  0  0  0
 24 23  2  0  0  0  0
 25 24  1  0  0  0  0
 25 26  1  0  0  0  0
 26 27  2  0  0  0  0
 27 28  1  0  0  0  0
 28 30  1  0  0  0  0
 30 31  1  6  0  0  0
 30 29  1  0  0  0  0
 32 34  1  0  0  0  0
 33 32  2  0  0  0  0
 35 36  1  0  0  0  0
M  END
>  <MODEL>
8

>  <REMARK>
 VINA RESULT:      -3.7      3.045      6.364
  Name = 
  5 active torsions:
  status: ('A' for Active; 'I' for Inactive)
    1  A    between atoms: C_1  and  C_30
    2  A    between atoms: C_1  and  C_36
    3  A    between atoms: N_10  and  C_25
    4  A    between atoms: C_18  and  C_33
    5  A    between atoms: O_27  and  C_28
                            x       y       z     vdW  Elec       q    Type
                         _______ _______ _______ _____ _____    ______ ____

>  <TORSDO>
F 5

$$$$
=
 OpenBabel10232411263D

 36 40  0  0  1  0  0  0  0  0999 V2000
  190.3600  178.5780  145.1160 C   0  0  0  0  0  2  0  0  0  0  0  0
  185.9740  178.8660  141.4870 N   0  0  0  0  0  0  0  0  0  0  0  0
  186.0850  178.6000  140.1040 C   0  0  0  0  0  0  0  0  0  0  0  0
  189.6120  177.3260  145.5990 C   0  0  1  0  0  0  0  0  0  0  0  0
  185.5060  178.5780  137.8150 N   0  0  0  0  0  0  0  0  0  0  0  0
  190.9170  180.1290  143.0610 O   0  0  0  0  0  0  0  0  0  0  0  0
  185.2690  179.0490  139.0720 C   0  0  0  0  0  0  0  0  0  0  0  0
  184.1560  180.0060  139.3220 C   0  0  0  0  0  1  0  0  0  0  0  0
  186.8960  178.1570  142.0660 C   0  0  0  0  0  0  0  0  0  0  0  0
  187.0780  177.7090  139.8450 C   0  0  0  0  0  0  0  0  0  0  0  0
  187.5590  177.0060  144.2180 C   0  0  0  0  0  0  0  0  0  0  0  0
  187.6720  175.8630  143.6990 O   0  0  0  0  0  0  0  0  0  0  0  0
  187.2980  177.2330  138.5930 N   0  0  0  0  0  0  0  0  0  0  0  0
  186.9610  178.0820  143.4930 N   0  0  0  0  0  2  0  0  0  0  0  0
  186.5080  177.6780  137.5730 C   0  0  0  0  0  3  0  0  0  0  0  0
  187.7920  177.3700  141.1120 C   0  0  1  0  0  3  0  0  0  0  0  0
  189.8400  179.1350  143.4750 S   0  0  1  0  0  0  0  0  0  0  0  0
  189.2420  177.9250  141.0550 C   0  0  1  0  0  3  0  0  0  0  0  0
  190.3360  176.0070  145.4450 C   0  0  0  0  0  2  0  0  0  0  0  0
  190.2030  176.6350  146.8250 C   0  0  1  0  0  3  0  0  0  0  0  0
  188.0860  177.2580  145.5910 C   0  0  0  0  0  2  0  0  0  0  0  0
  190.0340  177.7070  142.3680 C   0  0  1  0  0  3  0  0  0  0  0  0
  190.8950  177.2840  137.8720 C   0  0  0  0  0  3  0  0  0  0  0  0
  190.2340  178.0960  138.7770 C   0  0  0  0  0  3  0  0  0  0  0  0
  189.9510  177.3910  139.8880 N   0  0  0  0  0  0  0  0  0  0  0  0
  190.4070  176.1330  139.7380 C   0  0  0  0  0  3  0  0  0  0  0  0
  191.0000  176.0570  138.4980 C   0  0  0  0  0  0  0  0  0  0  0  0
  191.5940  174.8280  137.8990 C   0  0  0  0  0  2  0  0  0  0  0  0
  189.6410  173.5430  137.4080 O   0  0  0  0  0  1  0  0  0  0  0  0
  190.6840  174.2600  136.8210 C   0  0  2  0  0  3  0  0  0  0  0  0
  191.4830  173.3370  135.9260 C   0  0  0  0  0  1  0  0  0  0  0  0
  191.4870  177.3600  142.1890 C   0  0  0  0  0  0  0  0  0  0  0  0
  191.9990  176.3240  142.8370 C   0  0  0  0  0  2  0  0  0  0  0  0
  192.2940  178.0970  141.3320 O   0  0  0  0  0  1  0  0  0  0  0  0
  191.4310  177.1910  147.1970 O   0  0  0  0  0  0  0  0  0  0  0  0
  192.1680  176.1150  147.6900 C   0  0  0  0  0  1  0  0  0  0  0  0
  2  9  2  0  0  0  0
  3  2  1  0  0  0  0
  4  1  1  6  0  0  0
  4 20  1  0  0  0  0
  5  7  1  0  0  0  0
  7  8  1  0  0  0  0
  7  3  2  0  0  0  0
  9 14  1  0  0  0  0
 10  3  1  0  0  0  0
 11 21  1  0  0  0  0
 12 11  2  0  0  0  0
 13 10  2  0  0  0  0
 14 11  1  0  0  0  0
 15  5  2  0  0  0  0
 15 13  1  0  0  0  0
 16 10  1  6  0  0  0
 16  9  1  0  0  0  0
 17  6  2  6  0  0  0
 17  1  1  0  0  0  0
 18 25  1  6  0  0  0
 18 16  1  0  0  0  0
 18 22  1  0  0  0  0
 19  4  1  0  0  0  0
 19 20  1  0  0  0  0
 20 35  1  6  0  0  0
 21  4  1  0  0  0  0
 22 32  1  6  0  0  0
 22 17  1  0  0  0  0
 23 27  1  0  0  0  0
 23 24  2  0  0  0  0
 24 25  1  0  0  0  0
 26 25  1  0  0  0  0
 27 26  2  0  0  0  0
 28 27  1  0  0  0  0
 30 31  1  6  0  0  0
 30 29  1  0  0  0  0
 30 28  1  0  0  0  0
 32 33  2  0  0  0  0
 34 32  1  0  0  0  0
 35 36  1  0  0  0  0
M  END
>  <MODEL>
9

>  <REMARK>
 VINA RESULT:      -3.3      3.597      7.516
  Name = 
  5 active torsions:
  status: ('A' for Active; 'I' for Inactive)
    1  A    between atoms: C_1  and  C_30
    2  A    between atoms: C_1  and  C_36
    3  A    between atoms: N_10  and  C_25
    4  A    between atoms: C_18  and  C_33
    5  A    between atoms: O_27  and  C_28
                            x       y       z     vdW  Elec       q    Type
                         _______ _______ _______ _____ _____    ______ ____

>  <TORSDO>
F 5

$$$$
