=
 OpenBabel10232410253D

 33 35  0  0  1  0  0  0  0  0999 V2000
  186.6340  178.1060  146.9260 C   0  0  0  0  0  3  0  0  0  0  0  0
  190.5160  176.3960  144.3130 C   0  0  1  0  0  3  0  0  0  0  0  0
  187.2080  178.1990  143.8910 C   0  0  0  0  0  2  0  0  0  0  0  0
  191.8420  177.2740  146.1950 N   0  0  0  0  0  2  0  0  0  0  0  0
  185.8420  178.0590  144.5200 C   0  0  0  0  0  0  0  0  0  0  0  0
  191.6450  176.1280  145.3160 C   0  0  0  0  0  2  0  0  0  0  0  0
  191.1900  177.0110  147.4800 C   0  0  0  0  0  2  0  0  0  0  0  0
  187.8330  177.6540  146.7080 C   0  0  0  0  0  0  0  0  0  0  0  0
  189.3030  177.2170  144.8360 C   0  0  1  0  0  3  0  0  0  0  0  0
  189.7890  176.4050  147.3280 C   0  0  0  0  0  2  0  0  0  0  0  0
  188.0550  176.9310  143.9900 C   0  0  0  0  0  2  0  0  0  0  0  0
  185.6230  178.1120  145.8470 C   0  0  0  0  0  3  0  0  0  0  0  0
  188.9720  177.1510  146.3220 C   0  0  0  0  0  0  0  0  0  0  0  0
  191.0450  178.3980  143.0130 O   0  0  0  0  0  1  0  0  0  0  0  0
  191.1410  176.9980  143.0470 C   0  0  2  0  0  3  0  0  0  0  0  0
  190.6670  176.3540  141.8150 N   0  0  0  0  0  2  0  0  0  0  0  0
  190.9050  177.1840  140.6370 C   0  0  0  0  0  2  0  0  0  0  0  0
  187.5150  178.4570  139.8430 N   0  0  0  0  0  0  0  0  0  0  0  0
  187.2540  177.9360  138.6120 C   0  0  0  0  0  0  0  0  0  0  0  0
  188.2130  177.1240  137.9990 C   0  0  0  0  0  3  0  0  0  0  0  0
  189.6210  177.4180  139.9230 C   0  0  0  0  0  0  0  0  0  0  0  0
  189.4100  176.8660  138.6630 C   0  0  0  0  0  3  0  0  0  0  0  0
  188.6630  178.2070  140.4770 N   0  0  0  0  0  0  0  0  0  0  0  0
  185.2630  179.1920  138.3290 O   0  0  0  0  0  0  0  0  0  0  0  0
  185.5440  177.4390  136.8340 N   0  0  0  0  0  1  0  0  0  0  0  0
  185.9790  178.2300  137.9370 C   0  0  0  0  0  0  0  0  0  0  0  0
  184.6310  178.0830  143.6300 C   0  0  1  0  0  3  0  0  0  0  0  0
  183.6330  179.0950  144.1030 C   0  0  0  0  0  0  0  0  0  0  0  0
  183.9340  180.3180  144.1670 O   0  0  0  0  0  0  0  0  0  0  0  0
  182.3740  178.6750  144.5080 O   0  0  0  0  0  1  0  0  0  0  0  0
  184.9890  178.3090  142.1640 C   0  0  0  0  0  2  0  0  0  0  0  0
  182.8730  178.0220  140.6390 N   0  0  0  0  0  0  0  0  0  0  0  0
  183.8060  178.1500  141.3110 C   0  0  0  0  0  0  0  0  0  0  0  0
  2 15  1  6  0  0  0
  2  9  1  0  0  0  0
  2  6  1  0  0  0  0
  3 11  1  0  0  0  0
  3  5  1  0  0  0  0
  4  7  1  0  0  0  0
  5 12  2  0  0  0  0
  6  4  1  0  0  0  0
  8  1  2  0  0  0  0
  9 11  1  6  0  0  0
  9 13  1  0  0  0  0
 10  7  1  0  0  0  0
 12  1  1  0  0  0  0
 13  8  2  0  0  0  0
 13 10  1  0  0  0  0
 15 14  1  6  0  0  0
 16 15  1  0  0  0  0
 17 16  1  0  0  0  0
 18 23  1  0  0  0  0
 19 18  2  0  0  0  0
 20 19  1  0  0  0  0
 20 22  2  0  0  0  0
 21 23  2  0  0  0  0
 21 17  1  0  0  0  0
 22 21  1  0  0  0  0
 25 26  1  0  0  0  0
 26 24  2  0  0  0  0
 26 19  1  0  0  0  0
 27 31  1  6  0  0  0
 27 28  1  0  0  0  0
 27  5  1  0  0  0  0
 28 29  2  0  0  0  0
 28 30  1  0  0  0  0
 32 33  3  0  0  0  0
 33 31  1  0  0  0  0
M  END
>  <MODEL>
1

>  <REMARK>
 VINA RESULT:      -9.0      0.000      0.000
  Name = 
  9 active torsions:
  status: ('A' for Active; 'I' for Inactive)
    1  A    between atoms: C_3  and  C_18
    2  A    between atoms: C_5  and  C_6
    3  A    between atoms: C_5  and  C_13
    4  A    between atoms: C_5  and  C_15
    5  A    between atoms: C_11  and  C_25
    6  A    between atoms: C_13  and  C_20
    7  A    between atoms: C_14  and  N_16
    8  A    between atoms: C_14  and  C_28
    9  A    between atoms: N_16  and  C_18
                            x       y       z     vdW  Elec       q    Type
                         _______ _______ _______ _____ _____    ______ ____

>  <TORSDO>
F 9

$$$$
=
 OpenBabel10232410253D

 33 35  0  0  1  0  0  0  0  0999 V2000
  186.6860  178.2390  146.7630 C   0  0  0  0  0  3  0  0  0  0  0  0
  190.4750  176.2730  144.1910 C   0  0  1  0  0  3  0  0  0  0  0  0
  187.2280  178.1730  143.7210 C   0  0  0  0  0  2  0  0  0  0  0  0
  191.8530  177.1870  146.0180 N   0  0  0  0  0  2  0  0  0  0  0  0
  185.8660  178.1120  144.3690 C   0  0  0  0  0  0  0  0  0  0  0  0
  191.6050  176.0100  145.1940 C   0  0  0  0  0  2  0  0  0  0  0  0
  191.2070  177.0070  147.3200 C   0  0  0  0  0  2  0  0  0  0  0  0
  187.8670  177.7340  146.5530 C   0  0  0  0  0  0  0  0  0  0  0  0
  189.2980  177.1610  144.6880 C   0  0  1  0  0  3  0  0  0  0  0  0
  189.7830  176.4460  147.2100 C   0  0  0  0  0  2  0  0  0  0  0  0
  188.0310  176.8810  143.8690 C   0  0  0  0  0  2  0  0  0  0  0  0
  185.6640  178.2330  145.6940 C   0  0  0  0  0  3  0  0  0  0  0  0
  188.9820  177.1740  146.1790 C   0  0  0  0  0  0  0  0  0  0  0  0
  191.1700  178.1960  142.8510 O   0  0  0  0  0  1  0  0  0  0  0  0
  191.1060  176.7950  142.8940 C   0  0  2  0  0  3  0  0  0  0  0  0
  190.5050  176.2050  141.6900 N   0  0  0  0  0  2  0  0  0  0  0  0
  190.2650  177.2040  140.6510 C   0  0  0  0  0  2  0  0  0  0  0  0
  193.3250  176.8340  138.5920 N   0  0  0  0  0  0  0  0  0  0  0  0
  192.8560  176.4020  137.3890 C   0  0  0  0  0  0  0  0  0  0  0  0
  191.4800  176.2250  137.2210 C   0  0  0  0  0  3  0  0  0  0  0  0
  191.1560  176.9410  139.4900 C   0  0  0  0  0  0  0  0  0  0  0  0
  190.6230  176.4950  138.2840 C   0  0  0  0  0  3  0  0  0  0  0  0
  192.5020  177.0930  139.6110 N   0  0  0  0  0  0  0  0  0  0  0  0
  194.8720  176.7640  136.1950 O   0  0  0  0  0  0  0  0  0  0  0  0
  193.4820  175.1280  135.3120 N   0  0  0  0  0  1  0  0  0  0  0  0
  193.7890  176.1230  136.2850 C   0  0  0  0  0  0  0  0  0  0  0  0
  184.6460  178.1390  143.4910 C   0  0  1  0  0  3  0  0  0  0  0  0
  183.6310  179.1130  144.0060 C   0  0  0  0  0  0  0  0  0  0  0  0
  183.9080  180.3380  144.1130 O   0  0  0  0  0  0  0  0  0  0  0  0
  182.3840  178.6530  144.4020 O   0  0  0  0  0  1  0  0  0  0  0  0
  184.9850  178.4220  142.0300 C   0  0  0  0  0  2  0  0  0  0  0  0
  182.8380  178.2590  140.5290 N   0  0  0  0  0  0  0  0  0  0  0  0
  183.7840  178.3310  141.1920 C   0  0  0  0  0  0  0  0  0  0  0  0
  2 15  1  6  0  0  0
  2  9  1  0  0  0  0
  2  6  1  0  0  0  0
  3 11  1  0  0  0  0
  3  5  1  0  0  0  0
  4  7  1  0  0  0  0
  5 12  2  0  0  0  0
  6  4  1  0  0  0  0
  8  1  2  0  0  0  0
  9 11  1  6  0  0  0
  9 13  1  0  0  0  0
 10  7  1  0  0  0  0
 12  1  1  0  0  0  0
 13  8  2  0  0  0  0
 13 10  1  0  0  0  0
 15 14  1  6  0  0  0
 16 15  1  0  0  0  0
 17 16  1  0  0  0  0
 18 23  1  0  0  0  0
 19 18  2  0  0  0  0
 20 19  1  0  0  0  0
 20 22  2  0  0  0  0
 21 23  2  0  0  0  0
 21 17  1  0  0  0  0
 22 21  1  0  0  0  0
 24 26  2  0  0  0  0
 25 26  1  0  0  0  0
 26 19  1  0  0  0  0
 27 31  1  6  0  0  0
 27 28  1  0  0  0  0
 27  5  1  0  0  0  0
 28 29  2  0  0  0  0
 28 30  1  0  0  0  0
 32 33  3  0  0  0  0
 33 31  1  0  0  0  0
M  END
>  <MODEL>
2

>  <REMARK>
 VINA RESULT:      -8.5      2.413      3.254
  Name = 
  9 active torsions:
  status: ('A' for Active; 'I' for Inactive)
    1  A    between atoms: C_3  and  C_18
    2  A    between atoms: C_5  and  C_6
    3  A    between atoms: C_5  and  C_13
    4  A    between atoms: C_5  and  C_15
    5  A    between atoms: C_11  and  C_25
    6  A    between atoms: C_13  and  C_20
    7  A    between atoms: C_14  and  N_16
    8  A    between atoms: C_14  and  C_28
    9  A    between atoms: N_16  and  C_18
                            x       y       z     vdW  Elec       q    Type
                         _______ _______ _______ _____ _____    ______ ____

>  <TORSDO>
F 9

$$$$
=
 OpenBabel10232410253D

 33 35  0  0  1  0  0  0  0  0999 V2000
  185.1590  178.9180  146.9540 C   0  0  0  0  0  3  0  0  0  0  0  0
  189.4610  176.8140  145.5750 C   0  0  1  0  0  3  0  0  0  0  0  0
  186.3590  178.4570  144.1430 C   0  0  0  0  0  2  0  0  0  0  0  0
  190.3840  178.0460  147.5000 N   0  0  0  0  0  2  0  0  0  0  0  0
  184.8880  178.4150  144.4850 C   0  0  0  0  0  0  0  0  0  0  0  0
  190.3480  176.7540  146.8260 C   0  0  0  0  0  2  0  0  0  0  0  0
  189.4710  178.0150  148.6450 C   0  0  0  0  0  2  0  0  0  0  0  0
  186.3670  178.4520  147.0800 C   0  0  0  0  0  0  0  0  0  0  0  0
  188.1850  177.7000  145.6720 C   0  0  1  0  0  3  0  0  0  0  0  0
  188.1180  177.3700  148.3160 C   0  0  0  0  0  2  0  0  0  0  0  0
  187.1360  177.2420  144.6500 C   0  0  0  0  0  2  0  0  0  0  0  0
  184.3980  178.7090  145.7040 C   0  0  0  0  0  3  0  0  0  0  0  0
  187.5480  177.9040  147.0410 C   0  0  0  0  0  0  0  0  0  0  0  0
  190.3890  178.5640  144.1440 O   0  0  0  0  0  1  0  0  0  0  0  0
  190.3510  177.1820  144.3810 C   0  0  2  0  0  3  0  0  0  0  0  0
  190.0460  176.3950  143.1790 N   0  0  0  0  0  2  0  0  0  0  0  0
  190.7940  176.8620  142.0140 C   0  0  0  0  0  2  0  0  0  0  0  0
  189.2260  177.1240  138.6660 N   0  0  0  0  0  0  0  0  0  0  0  0
  188.0890  177.8390  138.8950 C   0  0  0  0  0  0  0  0  0  0  0  0
  187.8080  178.2690  140.1950 C   0  0  0  0  0  3  0  0  0  0  0  0
  189.8470  177.2340  140.9290 C   0  0  0  0  0  0  0  0  0  0  0  0
  188.6970  177.9600  141.2220 C   0  0  0  0  0  3  0  0  0  0  0  0
  190.0760  176.8290  139.6520 N   0  0  0  0  0  0  0  0  0  0  0  0
  187.5350  177.9680  136.5940 O   0  0  0  0  0  0  0  0  0  0  0  0
  185.8610  178.6450  138.0510 N   0  0  0  0  0  1  0  0  0  0  0  0
  187.1700  178.1470  137.7870 C   0  0  0  0  0  0  0  0  0  0  0  0
  183.8920  178.2560  143.3720 C   0  0  1  0  0  3  0  0  0  0  0  0
  182.6630  179.0750  143.6250 C   0  0  0  0  0  0  0  0  0  0  0  0
  182.7030  180.3330  143.5620 O   0  0  0  0  0  0  0  0  0  0  0  0
  181.4780  178.4400  143.9660 O   0  0  0  0  0  1  0  0  0  0  0  0
  184.4900  178.5710  142.0040 C   0  0  0  0  0  2  0  0  0  0  0  0
  183.1000  177.4230  140.0970 N   0  0  0  0  0  0  0  0  0  0  0  0
  183.7120  177.9300  140.9380 C   0  0  0  0  0  0  0  0  0  0  0  0
  1  8  2  0  0  0  0
  2 15  1  6  0  0  0
  2  9  1  0  0  0  0
  2  6  1  0  0  0  0
  3  5  1  0  0  0  0
  3 11  1  0  0  0  0
  4  7  1  0  0  0  0
  5 12  2  0  0  0  0
  6  4  1  0  0  0  0
  9 11  1  6  0  0  0
  9 13  1  0  0  0  0
 10  7  1  0  0  0  0
 12  1  1  0  0  0  0
 13  8  2  0  0  0  0
 13 10  1  0  0  0  0
 15 14  1  6  0  0  0
 16 15  1  0  0  0  0
 17 16  1  0  0  0  0
 18 19  2  0  0  0  0
 18 23  1  0  0  0  0
 19 20  1  0  0  0  0
 20 22  2  0  0  0  0
 21 22  1  0  0  0  0
 21 17  1  0  0  0  0
 23 21  2  0  0  0  0
 24 26  2  0  0  0  0
 26 25  1  0  0  0  0
 26 19  1  0  0  0  0
 27 31  1  6  0  0  0
 27 28  1  0  0  0  0
 27  5  1  0  0  0  0
 28 30  1  0  0  0  0
 29 28  2  0  0  0  0
 32 33  3  0  0  0  0
 33 31  1  0  0  0  0
M  END
>  <MODEL>
3

>  <REMARK>
 VINA RESULT:      -8.4      1.391      1.685
  Name = 
  9 active torsions:
  status: ('A' for Active; 'I' for Inactive)
    1  A    between atoms: C_3  and  C_18
    2  A    between atoms: C_5  and  C_6
    3  A    between atoms: C_5  and  C_13
    4  A    between atoms: C_5  and  C_15
    5  A    between atoms: C_11  and  C_25
    6  A    between atoms: C_13  and  C_20
    7  A    between atoms: C_14  and  N_16
    8  A    between atoms: C_14  and  C_28
    9  A    between atoms: N_16  and  C_18
                            x       y       z     vdW  Elec       q    Type
                         _______ _______ _______ _____ _____    ______ ____

>  <TORSDO>
F 9

$$$$
=
 OpenBabel10232410253D

 33 35  0  0  1  0  0  0  0  0999 V2000
  186.5710  178.2650  146.7900 C   0  0  0  0  0  3  0  0  0  0  0  0
  190.5280  176.3730  144.4260 C   0  0  1  0  0  3  0  0  0  0  0  0
  187.2890  178.2360  143.7850 C   0  0  0  0  0  2  0  0  0  0  0  0
  191.7860  177.2870  146.3380 N   0  0  0  0  0  2  0  0  0  0  0  0
  185.8920  178.1510  144.3520 C   0  0  0  0  0  0  0  0  0  0  0  0
  191.6020  176.1150  145.4910 C   0  0  0  0  0  2  0  0  0  0  0  0
  191.0680  177.0860  147.5980 C   0  0  0  0  0  2  0  0  0  0  0  0
  187.7680  177.7780  146.6450 C   0  0  0  0  0  0  0  0  0  0  0  0
  189.3130  177.2410  144.8620 C   0  0  1  0  0  3  0  0  0  0  0  0
  189.6600  176.5080  147.4010 C   0  0  0  0  0  2  0  0  0  0  0  0
  188.0990  176.9530  143.9680 C   0  0  0  0  0  2  0  0  0  0  0  0
  185.6130  178.2560  145.6650 C   0  0  0  0  0  3  0  0  0  0  0  0
  188.9100  177.2360  146.3320 C   0  0  0  0  0  0  0  0  0  0  0  0
  191.3810  178.3100  143.2020 O   0  0  0  0  0  1  0  0  0  0  0  0
  191.2270  176.9150  143.1720 C   0  0  2  0  0  3  0  0  0  0  0  0
  190.6220  176.4250  141.9260 N   0  0  0  0  0  2  0  0  0  0  0  0
  190.8310  177.3510  140.8150 C   0  0  0  0  0  2  0  0  0  0  0  0
  190.1030  175.2830  137.8260 N   0  0  0  0  0  0  0  0  0  0  0  0
  188.9190  175.7780  137.3700 C   0  0  0  0  0  0  0  0  0  0  0  0
  188.3180  176.8400  138.0530 C   0  0  0  0  0  3  0  0  0  0  0  0
  190.1590  176.8280  139.5960 C   0  0  0  0  0  0  0  0  0  0  0  0
  188.9450  177.3670  139.1790 C   0  0  0  0  0  3  0  0  0  0  0  0
  190.7030  175.7900  138.9060 N   0  0  0  0  0  0  0  0  0  0  0  0
  188.4610  175.7210  135.0450 O   0  0  0  0  0  0  0  0  0  0  0  0
  187.4590  174.0370  136.2890 N   0  0  0  0  0  1  0  0  0  0  0  0
  188.2810  175.1960  136.1770 C   0  0  0  0  0  0  0  0  0  0  0  0
  184.7250  178.1710  143.4050 C   0  0  1  0  0  3  0  0  0  0  0  0
  183.6330  179.0620  143.9120 C   0  0  0  0  0  0  0  0  0  0  0  0
  183.8400  180.2910  144.1040 O   0  0  0  0  0  0  0  0  0  0  0  0
  182.3910  178.5190  144.2060 O   0  0  0  0  0  1  0  0  0  0  0  0
  185.1330  178.5560  141.9860 C   0  0  0  0  0  2  0  0  0  0  0  0
  183.0340  178.6660  140.4130 N   0  0  0  0  0  0  0  0  0  0  0  0
  183.9590  178.6180  141.1080 C   0  0  0  0  0  0  0  0  0  0  0  0
  2 15  1  6  0  0  0
  2  9  1  0  0  0  0
  2  6  1  0  0  0  0
  3 11  1  0  0  0  0
  3  5  1  0  0  0  0
  4  7  1  0  0  0  0
  5 12  2  0  0  0  0
  6  4  1  0  0  0  0
  8  1  2  0  0  0  0
  9 11  1  6  0  0  0
  9 13  1  0  0  0  0
 10  7  1  0  0  0  0
 12  1  1  0  0  0  0
 13  8  2  0  0  0  0
 13 10  1  0  0  0  0
 15 14  1  6  0  0  0
 16 15  1  0  0  0  0
 17 16  1  0  0  0  0
 18 23  1  0  0  0  0
 19 18  2  0  0  0  0
 19 20  1  0  0  0  0
 20 22  2  0  0  0  0
 21 17  1  0  0  0  0
 22 21  1  0  0  0  0
 23 21  2  0  0  0  0
 24 26  2  0  0  0  0
 26 25  1  0  0  0  0
 26 19  1  0  0  0  0
 27 31  1  6  0  0  0
 27 28  1  0  0  0  0
 27  5  1  0  0  0  0
 28 29  2  0  0  0  0
 28 30  1  0  0  0  0
 32 33  3  0  0  0  0
 33 31  1  0  0  0  0
M  END
>  <MODEL>
4

>  <REMARK>
 VINA RESULT:      -8.2      1.644      1.840
  Name = 
  9 active torsions:
  status: ('A' for Active; 'I' for Inactive)
    1  A    between atoms: C_3  and  C_18
    2  A    between atoms: C_5  and  C_6
    3  A    between atoms: C_5  and  C_13
    4  A    between atoms: C_5  and  C_15
    5  A    between atoms: C_11  and  C_25
    6  A    between atoms: C_13  and  C_20
    7  A    between atoms: C_14  and  N_16
    8  A    between atoms: C_14  and  C_28
    9  A    between atoms: N_16  and  C_18
                            x       y       z     vdW  Elec       q    Type
                         _______ _______ _______ _____ _____    ______ ____

>  <TORSDO>
F 9

$$$$
=
 OpenBabel10232410253D

 33 35  0  0  1  0  0  0  0  0999 V2000
  183.8700  179.2800  144.7090 C   0  0  0  0  0  3  0  0  0  0  0  0
  188.3040  177.0120  144.5410 C   0  0  1  0  0  3  0  0  0  0  0  0
  185.7760  178.7700  142.3300 C   0  0  0  0  0  2  0  0  0  0  0  0
  188.7100  178.2100  146.6570 N   0  0  0  0  0  2  0  0  0  0  0  0
  184.2670  178.7850  142.2560 C   0  0  0  0  0  0  0  0  0  0  0  0
  188.8120  176.9190  145.9860 C   0  0  0  0  0  2  0  0  0  0  0  0
  187.5170  178.2160  147.5070 C   0  0  0  0  0  2  0  0  0  0  0  0
  184.9790  178.7680  145.1570 C   0  0  0  0  0  0  0  0  0  0  0  0
  187.0840  177.9460  144.2930 C   0  0  1  0  0  3  0  0  0  0  0  0
  186.2840  177.6220  146.8140 C   0  0  0  0  0  2  0  0  0  0  0  0
  186.3390  177.5270  143.0190 C   0  0  0  0  0  2  0  0  0  0  0  0
  183.4730  179.0980  143.2970 C   0  0  0  0  0  3  0  0  0  0  0  0
  186.1050  178.1760  145.4380 C   0  0  0  0  0  0  0  0  0  0  0  0
  189.5750  178.7100  143.3250 O   0  0  0  0  0  1  0  0  0  0  0  0
  189.5000  177.3440  143.6400 C   0  0  2  0  0  3  0  0  0  0  0  0
  189.5860  176.4710  142.4610 N   0  0  0  0  0  2  0  0  0  0  0  0
  190.6240  176.9080  141.5300 C   0  0  0  0  0  2  0  0  0  0  0  0
  188.3830  178.5140  139.0520 N   0  0  0  0  0  0  0  0  0  0  0  0
  188.8600  178.0770  137.8530 C   0  0  0  0  0  0  0  0  0  0  0  0
  189.9590  177.2130  137.8330 C   0  0  0  0  0  3  0  0  0  0  0  0
  190.0030  177.2880  140.2330 C   0  0  0  0  0  0  0  0  0  0  0  0
  190.5360  176.8180  139.0370 C   0  0  0  0  0  3  0  0  0  0  0  0
  188.9390  178.1340  140.2050 N   0  0  0  0  0  0  0  0  0  0  0  0
  187.4950  179.5420  136.5840 O   0  0  0  0  0  0  0  0  0  0  0  0
  188.4380  177.7900  135.3890 N   0  0  0  0  0  1  0  0  0  0  0  0
  188.2270  178.5150  136.5980 C   0  0  0  0  0  0  0  0  0  0  0  0
  183.6080  178.6620  140.9110 C   0  0  1  0  0  3  0  0  0  0  0  0
  184.5300  179.1000  139.8150 C   0  0  0  0  0  0  0  0  0  0  0  0
  184.4930  180.2800  139.3750 O   0  0  0  0  0  1  0  0  0  0  0  0
  185.4090  178.1840  139.2560 O   0  0  0  0  0  0  0  0  0  0  0  0
  183.0740  177.2560  140.6500 C   0  0  0  0  0  2  0  0  0  0  0  0
  180.6150  177.3530  139.7380 N   0  0  0  0  0  0  0  0  0  0  0  0
  181.7000  177.3100  140.1390 C   0  0  0  0  0  0  0  0  0  0  0  0
  1  8  2  0  0  0  0
  2 15  1  6  0  0  0
  2  6  1  0  0  0  0
  3 11  1  0  0  0  0
  4  7  1  0  0  0  0
  5  3  1  0  0  0  0
  5 12  2  0  0  0  0
  6  4  1  0  0  0  0
  8 13  2  0  0  0  0
  9 11  1  6  0  0  0
  9  2  1  0  0  0  0
  9 13  1  0  0  0  0
 10  7  1  0  0  0  0
 12  1  1  0  0  0  0
 13 10  1  0  0  0  0
 15 14  1  6  0  0  0
 16 15  1  0  0  0  0
 17 16  1  0  0  0  0
 18 23  1  0  0  0  0
 19 18  2  0  0  0  0
 20 19  1  0  0  0  0
 20 22  2  0  0  0  0
 21 17  1  0  0  0  0
 22 21  1  0  0  0  0
 23 21  2  0  0  0  0
 24 26  2  0  0  0  0
 25 26  1  0  0  0  0
 26 19  1  0  0  0  0
 27 31  1  6  0  0  0
 27  5  1  0  0  0  0
 28 27  1  0  0  0  0
 29 28  1  0  0  0  0
 30 28  2  0  0  0  0
 32 33  3  0  0  0  0
 33 31  1  0  0  0  0
M  END
>  <MODEL>
5

>  <REMARK>
 VINA RESULT:      -8.1      2.051      2.895
  Name = 
  9 active torsions:
  status: ('A' for Active; 'I' for Inactive)
    1  A    between atoms: C_3  and  C_18
    2  A    between atoms: C_5  and  C_6
    3  A    between atoms: C_5  and  C_13
    4  A    between atoms: C_5  and  C_15
    5  A    between atoms: C_11  and  C_25
    6  A    between atoms: C_13  and  C_20
    7  A    between atoms: C_14  and  N_16
    8  A    between atoms: C_14  and  C_28
    9  A    between atoms: N_16  and  C_18
                            x       y       z     vdW  Elec       q    Type
                         _______ _______ _______ _____ _____    ______ ____

>  <TORSDO>
F 9

$$$$
=
 OpenBabel10232410253D

 33 35  0  0  1  0  0  0  0  0999 V2000
  184.4730  178.8160  145.5220 C   0  0  0  0  0  3  0  0  0  0  0  0
  189.0770  176.9130  145.4030 C   0  0  1  0  0  3  0  0  0  0  0  0
  186.4380  178.4580  143.1630 C   0  0  0  0  0  2  0  0  0  0  0  0
  189.3640  178.1420  147.5190 N   0  0  0  0  0  2  0  0  0  0  0  0
  184.9340  178.3510  143.0740 C   0  0  0  0  0  0  0  0  0  0  0  0
  189.5770  176.8640  146.8530 C   0  0  0  0  0  2  0  0  0  0  0  0
  188.1660  178.0530  148.3580 C   0  0  0  0  0  2  0  0  0  0  0  0
  185.6150  178.3960  145.9820 C   0  0  0  0  0  0  0  0  0  0  0  0
  187.7890  177.7450  145.1400 C   0  0  1  0  0  3  0  0  0  0  0  0
  186.9920  177.3610  147.6550 C   0  0  0  0  0  2  0  0  0  0  0  0
  187.0920  177.2660  143.8600 C   0  0  0  0  0  2  0  0  0  0  0  0
  184.1060  178.6010  144.1060 C   0  0  0  0  0  3  0  0  0  0  0  0
  186.7820  177.8970  146.2750 C   0  0  0  0  0  0  0  0  0  0  0  0
  190.3020  178.7280  144.3160 O   0  0  0  0  0  1  0  0  0  0  0  0
  190.2520  177.3390  144.5130 C   0  0  2  0  0  3  0  0  0  0  0  0
  190.3260  176.5730  143.2610 N   0  0  0  0  0  2  0  0  0  0  0  0
  191.2310  177.1910  142.2940 C   0  0  0  0  0  2  0  0  0  0  0  0
  190.4090  177.2030  138.6790 N   0  0  0  0  0  0  0  0  0  0  0  0
  189.1800  177.7880  138.6290 C   0  0  0  0  0  0  0  0  0  0  0  0
  188.5790  178.2100  139.8180 C   0  0  0  0  0  3  0  0  0  0  0  0
  190.5080  177.4300  141.0160 C   0  0  0  0  0  0  0  0  0  0  0  0
  189.2500  178.0260  141.0230 C   0  0  0  0  0  3  0  0  0  0  0  0
  191.0510  177.0270  139.8370 N   0  0  0  0  0  0  0  0  0  0  0  0
  188.5680  177.0690  136.4540 O   0  0  0  0  0  0  0  0  0  0  0  0
  187.7430  179.1480  137.0740 N   0  0  0  0  0  1  0  0  0  0  0  0
  188.4950  177.9660  137.3370 C   0  0  0  0  0  0  0  0  0  0  0  0
  184.3000  178.1730  141.7230 C   0  0  1  0  0  3  0  0  0  0  0  0
  182.8290  178.4500  141.7750 C   0  0  0  0  0  0  0  0  0  0  0  0
  182.3660  179.3390  142.5400 O   0  0  0  0  0  1  0  0  0  0  0  0
  181.9640  177.6920  140.9980 O   0  0  0  0  0  0  0  0  0  0  0  0
  184.9790  179.0150  140.6460 C   0  0  0  0  0  2  0  0  0  0  0  0
  184.5810  177.9730  138.2700 N   0  0  0  0  0  0  0  0  0  0  0  0
  184.7570  178.4340  139.3170 C   0  0  0  0  0  0  0  0  0  0  0  0
  1  8  2  0  0  0  0
  2 15  1  6  0  0  0
  2  6  1  0  0  0  0
  3 11  1  0  0  0  0
  4  7  1  0  0  0  0
  5  3  1  0  0  0  0
  5 12  2  0  0  0  0
  6  4  1  0  0  0  0
  8 13  2  0  0  0  0
  9 11  1  6  0  0  0
  9  2  1  0  0  0  0
  9 13  1  0  0  0  0
 10  7  1  0  0  0  0
 12  1  1  0  0  0  0
 13 10  1  0  0  0  0
 15 14  1  6  0  0  0
 16 15  1  0  0  0  0
 17 16  1  0  0  0  0
 18 23  1  0  0  0  0
 19 18  2  0  0  0  0
 19 20  1  0  0  0  0
 20 22  2  0  0  0  0
 21 22  1  0  0  0  0
 21 17  1  0  0  0  0
 23 21  2  0  0  0  0
 24 26  2  0  0  0  0
 25 26  1  0  0  0  0
 26 19  1  0  0  0  0
 27 31  1  6  0  0  0
 27 28  1  0  0  0  0
 27  5  1  0  0  0  0
 28 29  1  0  0  0  0
 30 28  2  0  0  0  0
 32 33  3  0  0  0  0
 33 31  1  0  0  0  0
M  END
>  <MODEL>
6

>  <REMARK>
 VINA RESULT:      -8.1      1.748      2.445
  Name = 
  9 active torsions:
  status: ('A' for Active; 'I' for Inactive)
    1  A    between atoms: C_3  and  C_18
    2  A    between atoms: C_5  and  C_6
    3  A    between atoms: C_5  and  C_13
    4  A    between atoms: C_5  and  C_15
    5  A    between atoms: C_11  and  C_25
    6  A    between atoms: C_13  and  C_20
    7  A    between atoms: C_14  and  N_16
    8  A    between atoms: C_14  and  C_28
    9  A    between atoms: N_16  and  C_18
                            x       y       z     vdW  Elec       q    Type
                         _______ _______ _______ _____ _____    ______ ____

>  <TORSDO>
F 9

$$$$
=
 OpenBabel10232410253D

 33 35  0  0  1  0  0  0  0  0999 V2000
  184.2130  179.1000  144.8250 C   0  0  0  0  0  3  0  0  0  0  0  0
  188.7080  176.9920  144.4080 C   0  0  1  0  0  3  0  0  0  0  0  0
  186.0590  178.7790  142.3680 C   0  0  0  0  0  2  0  0  0  0  0  0
  189.1410  178.0900  146.5710 N   0  0  0  0  0  2  0  0  0  0  0  0
  184.5500  178.7480  142.3390 C   0  0  0  0  0  0  0  0  0  0  0  0
  189.2630  176.8410  145.8300 C   0  0  0  0  0  2  0  0  0  0  0  0
  187.9760  178.0120  147.4560 C   0  0  0  0  0  2  0  0  0  0  0  0
  185.3500  178.6030  145.2120 C   0  0  0  0  0  0  0  0  0  0  0  0
  187.4530  177.8970  144.2450 C   0  0  1  0  0  3  0  0  0  0  0  0
  186.7410  177.4150  146.7680 C   0  0  0  0  0  2  0  0  0  0  0  0
  186.6820  177.5210  142.9720 C   0  0  0  0  0  2  0  0  0  0  0  0
  183.7780  178.9800  143.4170 C   0  0  0  0  0  3  0  0  0  0  0  0
  186.5020  178.0340  145.4290 C   0  0  0  0  0  0  0  0  0  0  0  0
  189.8830  178.7910  143.2420 O   0  0  0  0  0  1  0  0  0  0  0  0
  189.8660  177.4110  143.4910 C   0  0  2  0  0  3  0  0  0  0  0  0
  189.9470  176.5990  142.2690 N   0  0  0  0  0  2  0  0  0  0  0  0
  189.6940  177.3910  141.0680 C   0  0  0  0  0  2  0  0  0  0  0  0
  192.9310  176.9570  139.3140 N   0  0  0  0  0  0  0  0  0  0  0  0
  192.5860  176.3550  138.1420 C   0  0  0  0  0  0  0  0  0  0  0  0
  191.2400  176.0750  137.8920 C   0  0  0  0  0  3  0  0  0  0  0  0
  190.6920  177.0430  140.0210 C   0  0  0  0  0  0  0  0  0  0  0  0
  190.2840  176.4210  138.8440 C   0  0  0  0  0  3  0  0  0  0  0  0
  192.0130  177.2880  140.2260 N   0  0  0  0  0  0  0  0  0  0  0  0
  194.2630  176.9070  136.5600 O   0  0  0  0  0  0  0  0  0  0  0  0
  193.9120  174.6340  136.8730 N   0  0  0  0  0  1  0  0  0  0  0  0
  193.6220  176.0000  137.1570 C   0  0  0  0  0  0  0  0  0  0  0  0
  183.8540  178.6740  141.0090 C   0  0  1  0  0  3  0  0  0  0  0  0
  184.7600  179.1130  139.8990 C   0  0  0  0  0  0  0  0  0  0  0  0
  185.7850  178.4450  139.6010 O   0  0  0  0  0  1  0  0  0  0  0  0
  184.4820  180.2890  139.2180 O   0  0  0  0  0  0  0  0  0  0  0  0
  183.2760  177.2890  140.7290 C   0  0  0  0  0  2  0  0  0  0  0  0
  180.7690  177.4630  139.9720 N   0  0  0  0  0  0  0  0  0  0  0  0
  181.8750  177.3880  140.3060 C   0  0  0  0  0  0  0  0  0  0  0  0
  1  8  2  0  0  0  0
  2 15  1  6  0  0  0
  2  6  1  0  0  0  0
  3 11  1  0  0  0  0
  4  7  1  0  0  0  0
  5  3  1  0  0  0  0
  5 12  2  0  0  0  0
  6  4  1  0  0  0  0
  8 13  2  0  0  0  0
  9 11  1  6  0  0  0
  9  2  1  0  0  0  0
  9 13  1  0  0  0  0
 10  7  1  0  0  0  0
 12  1  1  0  0  0  0
 13 10  1  0  0  0  0
 15 14  1  6  0  0  0
 16 15  1  0  0  0  0
 17 16  1  0  0  0  0
 18 23  1  0  0  0  0
 19 18  2  0  0  0  0
 20 19  1  0  0  0  0
 20 22  2  0  0  0  0
 21 23  2  0  0  0  0
 21 17  1  0  0  0  0
 22 21  1  0  0  0  0
 24 26  2  0  0  0  0
 25 26  1  0  0  0  0
 26 19  1  0  0  0  0
 27 31  1  6  0  0  0
 27  5  1  0  0  0  0
 28 27  1  0  0  0  0
 29 28  1  0  0  0  0
 30 28  2  0  0  0  0
 32 33  3  0  0  0  0
 33 31  1  0  0  0  0
M  END
>  <MODEL>
7

>  <REMARK>
 VINA RESULT:      -7.9      2.396      4.000
  Name = 
  9 active torsions:
  status: ('A' for Active; 'I' for Inactive)
    1  A    between atoms: C_3  and  C_18
    2  A    between atoms: C_5  and  C_6
    3  A    between atoms: C_5  and  C_13
    4  A    between atoms: C_5  and  C_15
    5  A    between atoms: C_11  and  C_25
    6  A    between atoms: C_13  and  C_20
    7  A    between atoms: C_14  and  N_16
    8  A    between atoms: C_14  and  C_28
    9  A    between atoms: N_16  and  C_18
                            x       y       z     vdW  Elec       q    Type
                         _______ _______ _______ _____ _____    ______ ____

>  <TORSDO>
F 9

$$$$
=
 OpenBabel10232410253D

 33 35  0  0  1  0  0  0  0  0999 V2000
  191.8730  176.4120  142.8940 C   0  0  0  0  0  3  0  0  0  0  0  0
  188.2570  178.0430  145.9100 C   0  0  1  0  0  3  0  0  0  0  0  0
  188.9000  177.0270  142.3150 C   0  0  0  0  0  2  0  0  0  0  0  0
  189.2560  176.4790  147.5310 N   0  0  0  0  0  2  0  0  0  0  0  0
  190.0420  177.2330  141.3470 C   0  0  0  0  0  0  0  0  0  0  0  0
  188.7480  177.8340  147.3480 C   0  0  0  0  0  2  0  0  0  0  0  0
  190.7190  176.5030  147.4690 C   0  0  0  0  0  2  0  0  0  0  0  0
  191.2720  176.6880  144.0140 C   0  0  0  0  0  0  0  0  0  0  0  0
  189.0730  177.3390  144.7880 C   0  0  1  0  0  3  0  0  0  0  0  0
  191.2560  177.3640  146.3180 C   0  0  0  0  0  2  0  0  0  0  0  0
  188.8690  178.0540  143.4460 C   0  0  0  0  0  2  0  0  0  0  0  0
  191.3120  176.8700  141.6050 C   0  0  0  0  0  3  0  0  0  0  0  0
  190.5530  177.0670  145.0320 C   0  0  0  0  0  0  0  0  0  0  0  0
  186.5010  176.5370  145.1200 O   0  0  0  0  0  1  0  0  0  0  0  0
  186.7630  177.6970  145.8650 C   0  0  2  0  0  3  0  0  0  0  0  0
  185.9250  178.8390  145.4750 N   0  0  0  0  0  2  0  0  0  0  0  0
  184.6130  178.4150  144.9920 C   0  0  0  0  0  2  0  0  0  0  0  0
  183.2660  178.6180  141.5440 N   0  0  0  0  0  0  0  0  0  0  0  0
  184.3450  178.9790  140.7960 C   0  0  0  0  0  0  0  0  0  0  0  0
  185.5790  179.1630  141.4260 C   0  0  0  0  0  3  0  0  0  0  0  0
  184.5430  178.5940  143.5170 C   0  0  0  0  0  0  0  0  0  0  0  0
  185.6760  178.9710  142.8020 C   0  0  0  0  0  3  0  0  0  0  0  0
  183.3610  178.4340  142.8630 N   0  0  0  0  0  0  0  0  0  0  0  0
  184.3310  180.3300  138.8480 O   0  0  0  0  0  0  0  0  0  0  0  0
  183.9400  178.0720  138.4840 N   0  0  0  0  0  1  0  0  0  0  0  0
  184.2080  179.1770  139.3430 C   0  0  0  0  0  0  0  0  0  0  0  0
  189.7290  177.6580  139.9400 C   0  0  1  0  0  3  0  0  0  0  0  0
  190.4620  176.8120  138.9440 C   0  0  0  0  0  0  0  0  0  0  0  0
  191.4450  177.2750  138.3050 O   0  0  0  0  0  0  0  0  0  0  0  0
  190.0280  175.5180  138.6990 O   0  0  0  0  0  1  0  0  0  0  0  0
  188.2300  177.6680  139.6540 C   0  0  0  0  0  2  0  0  0  0  0  0
  187.7330  178.8170  137.3470 N   0  0  0  0  0  0  0  0  0  0  0  0
  187.9530  178.3100  138.3640 C   0  0  0  0  0  0  0  0  0  0  0  0
  1  8  2  0  0  0  0
  2 15  1  1  0  0  0
  2  6  1  0  0  0  0
  3 11  1  0  0  0  0
  5 12  2  0  0  0  0
  5  3  1  0  0  0  0
  6  4  1  0  0  0  0
  7  4  1  0  0  0  0
  8 13  2  0  0  0  0
  9 11  1  6  0  0  0
  9 13  1  0  0  0  0
  9  2  1  0  0  0  0
 10  7  1  0  0  0  0
 12  1  1  0  0  0  0
 13 10  1  0  0  0  0
 15 14  1  6  0  0  0
 16 15  1  0  0  0  0
 17 16  1  0  0  0  0
 18 23  1  0  0  0  0
 19 20  1  0  0  0  0
 19 18  2  0  0  0  0
 20 22  2  0  0  0  0
 21 17  1  0  0  0  0
 22 21  1  0  0  0  0
 23 21  2  0  0  0  0
 24 26  2  0  0  0  0
 25 26  1  0  0  0  0
 26 19  1  0  0  0  0
 27 31  1  6  0  0  0
 27  5  1  0  0  0  0
 28 27  1  0  0  0  0
 29 28  2  0  0  0  0
 30 28  1  0  0  0  0
 32 33  3  0  0  0  0
 33 31  1  0  0  0  0
M  END
>  <MODEL>
8

>  <REMARK>
 VINA RESULT:      -7.7      2.259      5.332
  Name = 
  9 active torsions:
  status: ('A' for Active; 'I' for Inactive)
    1  A    between atoms: C_3  and  C_18
    2  A    between atoms: C_5  and  C_6
    3  A    between atoms: C_5  and  C_13
    4  A    between atoms: C_5  and  C_15
    5  A    between atoms: C_11  and  C_25
    6  A    between atoms: C_13  and  C_20
    7  A    between atoms: C_14  and  N_16
    8  A    between atoms: C_14  and  C_28
    9  A    between atoms: N_16  and  C_18
                            x       y       z     vdW  Elec       q    Type
                         _______ _______ _______ _____ _____    ______ ____

>  <TORSDO>
F 9

$$$$
=
 OpenBabel10232410253D

 33 35  0  0  1  0  0  0  0  0999 V2000
  186.7960  177.3860  145.7610 C   0  0  0  0  0  3  0  0  0  0  0  0
  186.1600  178.8020  141.0260 C   0  0  1  0  0  3  0  0  0  0  0  0
  188.5700  176.9270  143.2720 C   0  0  0  0  0  2  0  0  0  0  0  0
  183.8100  178.1760  141.4230 N   0  0  0  0  0  2  0  0  0  0  0  0
  189.0740  177.1280  144.6810 C   0  0  0  0  0  0  0  0  0  0  0  0
  184.6870  179.2040  140.8750 C   0  0  0  0  0  2  0  0  0  0  0  0
  183.3630  178.5880  142.7560 C   0  0  0  0  0  2  0  0  0  0  0  0
  186.1690  177.8200  144.7070 C   0  0  0  0  0  0  0  0  0  0  0  0
  186.5420  178.0390  142.3270 C   0  0  1  0  0  3  0  0  0  0  0  0
  184.4960  179.1560  143.6190 C   0  0  0  0  0  2  0  0  0  0  0  0
  188.0370  178.2060  142.6280 C   0  0  0  0  0  2  0  0  0  0  0  0
  188.2670  177.2360  145.7540 C   0  0  0  0  0  3  0  0  0  0  0  0
  185.7100  178.2840  143.5800 C   0  0  0  0  0  0  0  0  0  0  0  0
  187.9630  178.1130  139.5260 O   0  0  0  0  0  1  0  0  0  0  0  0
  186.5790  178.0560  139.7530 C   0  0  2  0  0  3  0  0  0  0  0  0
  185.7830  178.4390  138.5790 N   0  0  0  0  0  2  0  0  0  0  0  0
  186.3410  177.9020  137.3400 C   0  0  0  0  0  2  0  0  0  0  0  0
  186.4150  174.2380  136.7830 N   0  0  0  0  0  0  0  0  0  0  0  0
  185.1070  173.8690  136.8750 C   0  0  0  0  0  0  0  0  0  0  0  0
  184.1410  174.8490  137.1230 C   0  0  0  0  0  3  0  0  0  0  0  0
  185.8880  176.4970  137.1560 C   0  0  0  0  0  0  0  0  0  0  0  0
  184.5380  176.1760  137.2670 C   0  0  0  0  0  3  0  0  0  0  0  0
  186.7940  175.5110  136.9210 N   0  0  0  0  0  0  0  0  0  0  0  0
  183.7270  172.0010  137.3470 O   0  0  0  0  0  0  0  0  0  0  0  0
  185.4600  171.5950  135.8580 N   0  0  0  0  0  1  0  0  0  0  0  0
  184.7210  172.4570  136.7190 C   0  0  0  0  0  0  0  0  0  0  0  0
  190.5450  176.9820  144.9510 C   0  0  1  0  0  3  0  0  0  0  0  0
  191.3530  177.8270  144.0140 C   0  0  0  0  0  0  0  0  0  0  0  0
  191.4360  179.0740  144.1790 O   0  0  0  0  0  1  0  0  0  0  0  0
  191.9860  177.2320  142.9330 O   0  0  0  0  0  0  0  0  0  0  0  0
  190.9040  177.2780  146.4040 C   0  0  0  0  0  2  0  0  0  0  0  0
  192.4650  175.4050  147.3750 N   0  0  0  0  0  0  0  0  0  0  0  0
  191.7780  176.2310  146.9460 C   0  0  0  0  0  0  0  0  0  0  0  0
  2 15  1  6  0  0  0
  2  9  1  0  0  0  0
  3  5  1  0  0  0  0
  4  7  1  0  0  0  0
  5 27  1  0  0  0  0
  5 12  2  0  0  0  0
  6  2  1  0  0  0  0
  6  4  1  0  0  0  0
  7 10  1  0  0  0  0
  8  1  2  0  0  0  0
  9 11  1  1  0  0  0
  9 13  1  0  0  0  0
 11  3  1  0  0  0  0
 12  1  1  0  0  0  0
 13 10  1  0  0  0  0
 13  8  2  0  0  0  0
 15 14  1  6  0  0  0
 16 15  1  0  0  0  0
 17 16  1  0  0  0  0
 18 19  2  0  0  0  0
 18 23  1  0  0  0  0
 19 20  1  0  0  0  0
 20 22  2  0  0  0  0
 21 22  1  0  0  0  0
 21 17  1  0  0  0  0
 23 21  2  0  0  0  0
 25 26  1  0  0  0  0
 26 19  1  0  0  0  0
 26 24  2  0  0  0  0
 27 31  1  1  0  0  0
 28 29  1  0  0  0  0
 28 27  1  0  0  0  0
 30 28  2  0  0  0  0
 31 33  1  0  0  0  0
 33 32  3  0  0  0  0
M  END
>  <MODEL>
9

>  <REMARK>
 VINA RESULT:      -7.6      2.690      6.410
  Name = 
  9 active torsions:
  status: ('A' for Active; 'I' for Inactive)
    1  A    between atoms: C_3  and  C_18
    2  A    between atoms: C_5  and  C_6
    3  A    between atoms: C_5  and  C_13
    4  A    between atoms: C_5  and  C_15
    5  A    between atoms: C_11  and  C_25
    6  A    between atoms: C_13  and  C_20
    7  A    between atoms: C_14  and  N_16
    8  A    between atoms: C_14  and  C_28
    9  A    between atoms: N_16  and  C_18
                            x       y       z     vdW  Elec       q    Type
                         _______ _______ _______ _____ _____    ______ ____

>  <TORSDO>
F 9

$$$$
