=
 OpenBabel10232411533D

 31 35  0  0  1  0  0  0  0  0999 V2000
  189.1380  177.6260  142.6450 C   0  0  1  0  0  3  0  0  0  0  0  0
  183.4830  178.7860  143.5020 C   0  0  0  0  0  0  0  0  0  0  0  0
  184.8340  178.8680  145.2070 C   0  0  0  0  0  0  0  0  0  0  0  0
  184.8180  178.8780  143.8240 C   0  0  0  0  0  0  0  0  0  0  0  0
  182.7470  178.7480  144.6300 N   0  0  0  0  0  2  0  0  0  0  0  0
  182.9050  178.7350  142.1310 C   0  0  0  0  0  1  0  0  0  0  0  0
  187.9470  177.3790  143.5840 C   0  0  1  0  0  3  0  0  0  0  0  0
  185.9780  178.8500  142.8810 C   0  0  0  0  0  2  0  0  0  0  0  0
  188.0440  178.1750  144.8890 C   0  0  0  0  0  2  0  0  0  0  0  0
  183.5720  178.7960  145.6680 N   0  0  0  0  0  0  0  0  0  0  0  0
  186.0300  178.9500  146.1040 C   0  0  0  0  0  2  0  0  0  0  0  0
  186.9680  177.7740  145.8840 C   0  0  0  0  0  2  0  0  0  0  0  0
  186.5920  177.4550  142.8690 C   0  0  0  0  0  2  0  0  0  0  0  0
  192.3760  177.1770  141.3000 O   0  0  0  0  0  0  0  0  0  0  0  0
  190.5270  177.3060  143.2210 C   0  0  2  0  0  0  0  0  0  0  0  0
  191.5860  176.9130  142.1890 C   0  0  0  0  0  0  0  0  0  0  0  0
  190.8840  175.9220  143.1210 C   0  0  0  0  0  2  0  0  0  0  0  0
  191.1880  177.2080  145.7430 C   0  0  0  0  0  1  0  0  0  0  0  0
  191.0330  177.9790  144.4730 C   0  0  0  0  0  0  0  0  0  0  0  0
  191.4660  179.2400  144.4360 C   0  0  0  0  0  2  0  0  0  0  0  0
  188.9300  176.9530  141.4060 O   0  0  0  0  0  0  0  0  0  0  0  0
  188.8590  177.6300  140.1840 C   0  0  0  0  0  0  0  0  0  0  0  0
  188.3770  178.7950  140.1620 O   0  0  0  0  0  0  0  0  0  0  0  0
  190.9770  175.9190  137.9120 C   0  0  2  0  0  3  0  0  0  0  0  0
  190.3180  177.0110  137.0910 C   0  0  1  0  0  3  0  0  0  0  0  0
  190.2660  175.9560  139.1300 O   0  0  0  0  0  0  0  0  0  0  0  0
  188.2180  176.4870  138.0220 C   0  0  0  0  0  2  0  0  0  0  0  0
  188.9500  176.4610  136.6860 C   0  0  0  0  0  2  0  0  0  0  0  0
  192.3180  176.2360  138.1400 O   0  0  0  0  0  1  0  0  0  0  0  0
  190.0080  177.9260  138.0840 O   0  0  0  0  0  0  0  0  0  0  0  0
  189.3480  177.0070  138.9010 C   0  0  1  0  0  0  0  0  0  0  0  0
  1 21  1  6  0  0  0
  1 15  1  0  0  0  0
  2  4  2  0  0  0  0
  2  5  1  0  0  0  0
  3 10  2  0  0  0  0
  3 11  1  0  0  0  0
  4  3  1  0  0  0  0
  5 10  1  0  0  0  0
  6  2  1  0  0  0  0
  7  1  1  6  0  0  0
  7  9  1  0  0  0  0
  8  4  1  0  0  0  0
  9 12  1  0  0  0  0
 12 11  1  0  0  0  0
 13  8  1  0  0  0  0
 13  7  1  0  0  0  0
 14 16  2  0  0  0  0
 15 19  1  1  0  0  0
 16 17  1  0  0  0  0
 16 15  1  0  0  0  0
 17 15  1  0  0  0  0
 19 18  1  0  0  0  0
 20 19  2  0  0  0  0
 22 21  1  0  0  0  0
 23 22  2  0  0  0  0
 24 29  1  1  0  0  0
 24 26  1  0  0  0  0
 25 28  1  1  0  0  0
 25 24  1  0  0  0  0
 25 30  1  0  0  0  0
 27 31  1  0  0  0  0
 28 27  1  0  0  0  0
 30 31  1  0  0  0  0
 31 26  1  0  0  0  0
 31 22  1  1  0  0  0
M  END
>  <MODEL>
1

>  <REMARK>
 VINA RESULT:      -9.0      0.000      0.000
  Name = 
  6 active torsions:
  status: ('A' for Active; 'I' for Inactive)
    1  A    between atoms: O_2  and  C_11
    2  A    between atoms: O_2  and  C_27
    3  A    between atoms: C_11  and  C_28
    4  A    between atoms: C_14  and  C_20
    5  A    between atoms: C_14  and  C_27
    6  A    between atoms: C_17  and  C_27
                            x       y       z     vdW  Elec       q    Type
                         _______ _______ _______ _____ _____    ______ ____

>  <TORSDO>
F 6

$$$$
=
 OpenBabel10232411533D

 31 35  0  0  1  0  0  0  0  0999 V2000
  189.0680  177.7880  142.8010 C   0  0  1  0  0  3  0  0  0  0  0  0
  183.3840  178.8040  143.6520 C   0  0  0  0  0  0  0  0  0  0  0  0
  184.7150  178.8220  145.3740 C   0  0  0  0  0  0  0  0  0  0  0  0
  184.7130  178.9030  143.9930 C   0  0  0  0  0  0  0  0  0  0  0  0
  182.6370  178.6960  144.7670 N   0  0  0  0  0  2  0  0  0  0  0  0
  182.8210  178.8120  142.2730 C   0  0  0  0  0  1  0  0  0  0  0  0
  187.8720  177.4730  143.7130 C   0  0  1  0  0  3  0  0  0  0  0  0
  185.8840  178.9430  143.0640 C   0  0  0  0  0  2  0  0  0  0  0  0
  187.9400  178.2020  145.0580 C   0  0  0  0  0  2  0  0  0  0  0  0
  183.4490  178.7050  145.8160 N   0  0  0  0  0  0  0  0  0  0  0  0
  185.9000  178.8800  146.2880 C   0  0  0  0  0  2  0  0  0  0  0  0
  186.8610  177.7320  146.0180 C   0  0  0  0  0  2  0  0  0  0  0  0
  186.5230  177.5610  142.9870 C   0  0  0  0  0  2  0  0  0  0  0  0
  192.1440  177.0500  141.2250 O   0  0  0  0  0  0  0  0  0  0  0  0
  190.4270  177.2360  143.2600 C   0  0  2  0  0  0  0  0  0  0  0  0
  191.3710  176.8080  142.1340 C   0  0  0  0  0  0  0  0  0  0  0  0
  190.5880  175.8330  143.0180 C   0  0  0  0  0  2  0  0  0  0  0  0
  191.2900  176.7830  145.6800 C   0  0  0  0  0  1  0  0  0  0  0  0
  191.0810  177.7160  144.5330 C   0  0  0  0  0  0  0  0  0  0  0  0
  191.5930  178.9450  144.6090 C   0  0  0  0  0  2  0  0  0  0  0  0
  188.7790  177.3900  141.4640 O   0  0  0  0  0  0  0  0  0  0  0  0
  188.5500  178.3130  140.4370 C   0  0  0  0  0  0  0  0  0  0  0  0
  188.2320  179.4950  140.7410 O   0  0  0  0  0  0  0  0  0  0  0  0
  188.4990  178.6090  136.9040 C   0  0  2  0  0  3  0  0  0  0  0  0
  187.9940  177.2080  137.1890 C   0  0  1  0  0  3  0  0  0  0  0  0
  188.9660  179.0480  138.1600 O   0  0  0  0  0  0  0  0  0  0  0  0
  189.7350  176.8630  138.7390 C   0  0  0  0  0  2  0  0  0  0  0  0
  189.2410  176.3480  137.3930 C   0  0  0  0  0  2  0  0  0  0  0  0
  187.4440  179.4210  136.4830 O   0  0  0  0  0  1  0  0  0  0  0  0
  187.5090  177.3680  138.4780 O   0  0  0  0  0  0  0  0  0  0  0  0
  188.6800  177.9330  138.9840 C   0  0  1  0  0  0  0  0  0  0  0  0
  1 21  1  6  0  0  0
  1 15  1  0  0  0  0
  2  4  2  0  0  0  0
  2  5  1  0  0  0  0
  3 10  2  0  0  0  0
  3 11  1  0  0  0  0
  4  3  1  0  0  0  0
  5 10  1  0  0  0  0
  6  2  1  0  0  0  0
  7  1  1  6  0  0  0
  7  9  1  0  0  0  0
  8  4  1  0  0  0  0
  9 12  1  0  0  0  0
 12 11  1  0  0  0  0
 13  8  1  0  0  0  0
 13  7  1  0  0  0  0
 14 16  2  0  0  0  0
 15 19  1  1  0  0  0
 16 17  1  0  0  0  0
 16 15  1  0  0  0  0
 17 15  1  0  0  0  0
 19 20  2  0  0  0  0
 19 18  1  0  0  0  0
 22 23  2  0  0  0  0
 22 21  1  0  0  0  0
 24 29  1  1  0  0  0
 24 25  1  0  0  0  0
 24 26  1  0  0  0  0
 25 28  1  1  0  0  0
 25 30  1  0  0  0  0
 26 31  1  0  0  0  0
 27 31  1  0  0  0  0
 28 27  1  0  0  0  0
 30 31  1  0  0  0  0
 31 22  1  1  0  0  0
M  END
>  <MODEL>
2

>  <REMARK>
 VINA RESULT:      -8.9      1.007      1.638
  Name = 
  6 active torsions:
  status: ('A' for Active; 'I' for Inactive)
    1  A    between atoms: O_2  and  C_11
    2  A    between atoms: O_2  and  C_27
    3  A    between atoms: C_11  and  C_28
    4  A    between atoms: C_14  and  C_20
    5  A    between atoms: C_14  and  C_27
    6  A    between atoms: C_17  and  C_27
                            x       y       z     vdW  Elec       q    Type
                         _______ _______ _______ _____ _____    ______ ____

>  <TORSDO>
F 6

$$$$
=
 OpenBabel10232411533D

 31 35  0  0  1  0  0  0  0  0999 V2000
  188.1710  177.7410  140.0210 C   0  0  1  0  0  3  0  0  0  0  0  0
  185.0260  178.7670  144.8290 C   0  0  0  0  0  0  0  0  0  0  0  0
  183.9950  178.6460  142.9150 C   0  0  0  0  0  0  0  0  0  0  0  0
  185.1840  178.3150  143.5390 C   0  0  0  0  0  0  0  0  0  0  0  0
  183.8030  179.3130  144.9700 N   0  0  0  0  0  2  0  0  0  0  0  0
  186.0290  178.6810  145.9260 C   0  0  0  0  0  1  0  0  0  0  0  0
  187.0250  178.5850  140.6000 C   0  0  1  0  0  3  0  0  0  0  0  0
  186.4200  177.7310  142.9320 C   0  0  0  0  0  2  0  0  0  0  0  0
  185.6470  178.1360  140.1050 C   0  0  0  0  0  2  0  0  0  0  0  0
  183.1770  179.2410  143.8030 N   0  0  0  0  0  0  0  0  0  0  0  0
  183.6100  178.3860  141.4920 C   0  0  0  0  0  2  0  0  0  0  0  0
  184.5470  179.0950  140.5270 C   0  0  0  0  0  2  0  0  0  0  0  0
  187.1400  178.7980  142.1150 C   0  0  0  0  0  2  0  0  0  0  0  0
  190.8520  177.1720  137.7880 O   0  0  0  0  0  0  0  0  0  0  0  0
  188.3610  177.8180  138.4980 C   0  0  2  0  0  0  0  0  0  0  0  0
  189.8130  177.7640  138.0180 C   0  0  0  0  0  0  0  0  0  0  0  0
  188.9660  179.0400  138.0560 C   0  0  0  0  0  2  0  0  0  0  0  0
  186.5590  178.1860  136.6470 C   0  0  0  0  0  1  0  0  0  0  0  0
  187.3230  177.2720  137.5470 C   0  0  0  0  0  0  0  0  0  0  0  0
  187.1590  175.9560  137.4080 C   0  0  0  0  0  2  0  0  0  0  0  0
  189.3870  178.0350  140.7040 O   0  0  0  0  0  0  0  0  0  0  0  0
  190.1120  177.0640  141.4030 C   0  0  0  0  0  0  0  0  0  0  0  0
  190.5040  176.0370  140.7860 O   0  0  0  0  0  0  0  0  0  0  0  0
  191.7010  176.5380  144.5290 C   0  0  2  0  0  3  0  0  0  0  0  0
  190.2440  176.7900  144.8650 C   0  0  1  0  0  3  0  0  0  0  0  0
  191.7770  176.8590  143.1580 O   0  0  0  0  0  0  0  0  0  0  0  0
  190.1890  178.6260  143.3890 C   0  0  0  0  0  2  0  0  0  0  0  0
  190.0730  178.3090  144.8750 C   0  0  0  0  0  2  0  0  0  0  0  0
  192.0070  175.1890  144.7150 O   0  0  0  0  0  1  0  0  0  0  0  0
  189.6380  176.4130  143.6760 O   0  0  0  0  0  0  0  0  0  0  0  0
  190.4400  177.2180  142.8660 C   0  0  1  0  0  0  0  0  0  0  0  0
  1 21  1  1  0  0  0
  2  5  1  0  0  0  0
  2  6  1  0  0  0  0
  3  4  1  0  0  0  0
  3 10  2  0  0  0  0
  4  2  2  0  0  0  0
  7  1  1  1  0  0  0
  7 13  1  0  0  0  0
  8  4  1  0  0  0  0
  9 12  1  0  0  0  0
  9  7  1  0  0  0  0
 10  5  1  0  0  0  0
 11  3  1  0  0  0  0
 12 11  1  0  0  0  0
 13  8  1  0  0  0  0
 14 16  2  0  0  0  0
 15 19  1  6  0  0  0
 15  1  1  0  0  0  0
 16 17  1  0  0  0  0
 16 15  1  0  0  0  0
 17 15  1  0  0  0  0
 18 19  1  0  0  0  0
 20 19  2  0  0  0  0
 21 22  1  0  0  0  0
 23 22  2  0  0  0  0
 24 29  1  6  0  0  0
 24 25  1  0  0  0  0
 25 28  1  6  0  0  0
 26 24  1  0  0  0  0
 27 28  1  0  0  0  0
 30 25  1  0  0  0  0
 31 22  1  6  0  0  0
 31 26  1  0  0  0  0
 31 27  1  0  0  0  0
 31 30  1  0  0  0  0
M  END
>  <MODEL>
3

>  <REMARK>
 VINA RESULT:      -8.4      1.667      5.238
  Name = 
  6 active torsions:
  status: ('A' for Active; 'I' for Inactive)
    1  A    between atoms: O_2  and  C_11
    2  A    between atoms: O_2  and  C_27
    3  A    between atoms: C_11  and  C_28
    4  A    between atoms: C_14  and  C_20
    5  A    between atoms: C_14  and  C_27
    6  A    between atoms: C_17  and  C_27
                            x       y       z     vdW  Elec       q    Type
                         _______ _______ _______ _____ _____    ______ ____

>  <TORSDO>
F 6

$$$$
=
 OpenBabel10232411533D

 31 35  0  0  1  0  0  0  0  0999 V2000
  184.3180  178.3500  140.5410 C   0  0  1  0  0  3  0  0  0  0  0  0
  187.1740  178.0180  145.6200 C   0  0  0  0  0  0  0  0  0  0  0  0
  185.0490  178.4890  145.6480 C   0  0  0  0  0  0  0  0  0  0  0  0
  186.0400  177.9570  144.8430 C   0  0  0  0  0  0  0  0  0  0  0  0
  186.8700  178.5340  146.8260 N   0  0  0  0  0  2  0  0  0  0  0  0
  188.5440  177.5890  145.2220 C   0  0  0  0  0  1  0  0  0  0  0  0
  184.4980  179.0200  141.9120 C   0  0  1  0  0  3  0  0  0  0  0  0
  185.9490  177.5410  143.4100 C   0  0  0  0  0  2  0  0  0  0  0  0
  183.3160  178.7730  142.8550 C   0  0  0  0  0  2  0  0  0  0  0  0
  185.5750  178.8220  146.8410 N   0  0  0  0  0  0  0  0  0  0  0  0
  183.6000  178.6650  145.3130 C   0  0  0  0  0  2  0  0  0  0  0  0
  183.4180  179.5990  144.1260 C   0  0  0  0  0  2  0  0  0  0  0  0
  185.8850  178.7790  142.5220 C   0  0  0  0  0  2  0  0  0  0  0  0
  182.4350  179.9060  137.9860 O   0  0  0  0  0  0  0  0  0  0  0  0
  182.8730  178.2440  140.0280 C   0  0  2  0  0  0  0  0  0  0  0  0
  182.4360  179.3560  139.0730 C   0  0  0  0  0  0  0  0  0  0  0  0
  182.0060  179.2630  140.5400 C   0  0  0  0  0  2  0  0  0  0  0  0
  180.7550  176.7270  140.1790 C   0  0  0  0  0  1  0  0  0  0  0  0
  182.2000  176.9050  139.8450 C   0  0  0  0  0  0  0  0  0  0  0  0
  182.8500  175.8940  139.2680 C   0  0  0  0  0  2  0  0  0  0  0  0
  185.1580  178.9780  139.5770 O   0  0  0  0  0  0  0  0  0  0  0  0
  185.8030  178.2640  138.5610 C   0  0  0  0  0  0  0  0  0  0  0  0
  185.1070  177.7340  137.6530 O   0  0  0  0  0  0  0  0  0  0  0  0
  189.1260  178.3890  137.3280 C   0  0  2  0  0  3  0  0  0  0  0  0
  189.0600  177.1200  138.1570 C   0  0  1  0  0  3  0  0  0  0  0  0
  187.9080  179.0340  137.6270 O   0  0  0  0  0  0  0  0  0  0  0  0
  187.9540  178.2720  139.8890 C   0  0  0  0  0  2  0  0  0  0  0  0
  189.2690  177.5570  139.6070 C   0  0  0  0  0  2  0  0  0  0  0  0
  189.1700  178.0690  135.9700 O   0  0  0  0  0  1  0  0  0  0  0  0
  187.7020  176.8490  138.1030 O   0  0  0  0  0  0  0  0  0  0  0  0
  187.3040  178.1190  138.5210 C   0  0  1  0  0  0  0  0  0  0  0  0
  1 21  1  6  0  0  0
  2  5  1  0  0  0  0
  3 10  2  0  0  0  0
  4  2  2  0  0  0  0
  4  3  1  0  0  0  0
  5 10  1  0  0  0  0
  6  2  1  0  0  0  0
  7  1  1  6  0  0  0
  7 13  1  0  0  0  0
  7  9  1  0  0  0  0
  8  4  1  0  0  0  0
  9 12  1  0  0  0  0
 11  3  1  0  0  0  0
 12 11  1  0  0  0  0
 13  8  1  0  0  0  0
 14 16  2  0  0  0  0
 15 19  1  6  0  0  0
 15 17  1  0  0  0  0
 15  1  1  0  0  0  0
 16 15  1  0  0  0  0
 16 17  1  0  0  0  0
 19 18  1  0  0  0  0
 20 19  2  0  0  0  0
 22 21  1  0  0  0  0
 23 22  2  0  0  0  0
 24 29  1  6  0  0  0
 24 26  1  0  0  0  0
 24 25  1  0  0  0  0
 25 28  1  1  0  0  0
 26 31  1  0  0  0  0
 28 27  1  0  0  0  0
 30 25  1  0  0  0  0
 30 31  1  0  0  0  0
 31 22  1  1  0  0  0
 31 27  1  0  0  0  0
M  END
>  <MODEL>
4

>  <REMARK>
 VINA RESULT:      -8.0      2.507      5.845
  Name = 
  6 active torsions:
  status: ('A' for Active; 'I' for Inactive)
    1  A    between atoms: O_2  and  C_11
    2  A    between atoms: O_2  and  C_27
    3  A    between atoms: C_11  and  C_28
    4  A    between atoms: C_14  and  C_20
    5  A    between atoms: C_14  and  C_27
    6  A    between atoms: C_17  and  C_27
                            x       y       z     vdW  Elec       q    Type
                         _______ _______ _______ _____ _____    ______ ____

>  <TORSDO>
F 6

$$$$
=
 OpenBabel10232411533D

 31 35  0  0  1  0  0  0  0  0999 V2000
  185.0150  178.3490  140.3160 C   0  0  1  0  0  3  0  0  0  0  0  0
  186.7990  178.1750  145.8700 C   0  0  0  0  0  0  0  0  0  0  0  0
  184.6820  178.4800  145.4640 C   0  0  0  0  0  0  0  0  0  0  0  0
  185.8540  178.0360  144.8790 C   0  0  0  0  0  0  0  0  0  0  0  0
  186.2160  178.6500  146.9880 N   0  0  0  0  0  2  0  0  0  0  0  0
  188.2500  177.8580  145.7610 C   0  0  0  0  0  1  0  0  0  0  0  0
  184.8600  179.0140  141.6930 C   0  0  1  0  0  3  0  0  0  0  0  0
  186.0880  177.6330  143.4590 C   0  0  0  0  0  2  0  0  0  0  0  0
  183.5350  178.6650  142.3760 C   0  0  0  0  0  2  0  0  0  0  0  0
  184.9270  178.8370  146.7380 N   0  0  0  0  0  0  0  0  0  0  0  0
  183.3220  178.5470  144.8410 C   0  0  0  0  0  2  0  0  0  0  0  0
  183.3120  179.4790  143.6390 C   0  0  0  0  0  2  0  0  0  0  0  0
  186.1090  178.8730  142.5720 C   0  0  0  0  0  2  0  0  0  0  0  0
  182.4540  175.9470  139.9040 O   0  0  0  0  0  0  0  0  0  0  0  0
  183.7360  178.2480  139.4690 C   0  0  2  0  0  0  0  0  0  0  0  0
  183.0980  176.8590  139.4150 C   0  0  0  0  0  0  0  0  0  0  0  0
  183.9010  177.4820  138.2700 C   0  0  0  0  0  2  0  0  0  0  0  0
  181.3990  179.3460  139.8420 C   0  0  0  0  0  1  0  0  0  0  0  0
  182.7970  179.4210  139.3220 C   0  0  0  0  0  0  0  0  0  0  0  0
  183.2360  180.5830  138.8360 C   0  0  0  0  0  2  0  0  0  0  0  0
  186.0640  178.9790  139.5850 O   0  0  0  0  0  0  0  0  0  0  0  0
  187.2860  178.3470  139.3260 C   0  0  0  0  0  0  0  0  0  0  0  0
  188.0270  178.0350  140.2970 O   0  0  0  0  0  0  0  0  0  0  0  0
  187.1910  178.0350  135.7950 C   0  0  2  0  0  3  0  0  0  0  0  0
  187.9510  176.8150  136.2780 C   0  0  1  0  0  3  0  0  0  0  0  0
  187.0830  178.8300  136.9550 O   0  0  0  0  0  0  0  0  0  0  0  0
  189.2370  178.1530  137.7300 C   0  0  0  0  0  2  0  0  0  0  0  0
  189.3920  177.2780  136.4930 C   0  0  0  0  0  2  0  0  0  0  0  0
  185.9190  177.6630  135.3580 O   0  0  0  0  0  1  0  0  0  0  0  0
  187.4620  176.7040  137.5700 O   0  0  0  0  0  0  0  0  0  0  0  0
  187.7320  178.0260  137.9220 C   0  0  1  0  0  0  0  0  0  0  0  0
  1 21  1  6  0  0  0
  2  5  1  0  0  0  0
  3 10  2  0  0  0  0
  4  3  1  0  0  0  0
  4  2  2  0  0  0  0
  6  2  1  0  0  0  0
  7  1  1  6  0  0  0
  7  9  1  0  0  0  0
  7 13  1  0  0  0  0
  8  4  1  0  0  0  0
  9 12  1  0  0  0  0
 10  5  1  0  0  0  0
 11  3  1  0  0  0  0
 12 11  1  0  0  0  0
 13  8  1  0  0  0  0
 15 19  1  6  0  0  0
 15  1  1  0  0  0  0
 16 15  1  0  0  0  0
 16 14  2  0  0  0  0
 17 16  1  0  0  0  0
 17 15  1  0  0  0  0
 19 18  1  0  0  0  0
 20 19  2  0  0  0  0
 22 21  1  0  0  0  0
 22 23  2  0  0  0  0
 24 29  1  1  0  0  0
 24 25  1  0  0  0  0
 24 26  1  0  0  0  0
 25 28  1  1  0  0  0
 25 30  1  0  0  0  0
 26 31  1  0  0  0  0
 27 31  1  0  0  0  0
 28 27  1  0  0  0  0
 30 31  1  0  0  0  0
 31 22  1  1  0  0  0
M  END
>  <MODEL>
5

>  <REMARK>
 VINA RESULT:      -7.8      2.580      5.607
  Name = 
  6 active torsions:
  status: ('A' for Active; 'I' for Inactive)
    1  A    between atoms: O_2  and  C_11
    2  A    between atoms: O_2  and  C_27
    3  A    between atoms: C_11  and  C_28
    4  A    between atoms: C_14  and  C_20
    5  A    between atoms: C_14  and  C_27
    6  A    between atoms: C_17  and  C_27
                            x       y       z     vdW  Elec       q    Type
                         _______ _______ _______ _____ _____    ______ ____

>  <TORSDO>
F 6

$$$$
=
 OpenBabel10232411533D

 31 35  0  0  1  0  0  0  0  0999 V2000
  188.6510  177.8250  143.0600 C   0  0  1  0  0  3  0  0  0  0  0  0
  182.9020  178.7800  142.7550 C   0  0  0  0  0  0  0  0  0  0  0  0
  183.8920  178.9840  144.6830 C   0  0  0  0  0  0  0  0  0  0  0  0
  184.1450  178.9410  143.3240 C   0  0  0  0  0  0  0  0  0  0  0  0
  181.9620  178.7550  143.7200 N   0  0  0  0  0  2  0  0  0  0  0  0
  182.6040  178.6510  141.3020 C   0  0  0  0  0  1  0  0  0  0  0  0
  187.3090  177.5660  143.7620 C   0  0  1  0  0  3  0  0  0  0  0  0
  185.4660  178.9240  142.6250 C   0  0  0  0  0  2  0  0  0  0  0  0
  187.1230  178.4140  145.0230 C   0  0  0  0  0  2  0  0  0  0  0  0
  182.5670  178.8780  144.8940 N   0  0  0  0  0  0  0  0  0  0  0  0
  184.8870  179.1520  145.7900 C   0  0  0  0  0  2  0  0  0  0  0  0
  185.8890  178.0080  145.8090 C   0  0  0  0  0  2  0  0  0  0  0  0
  186.1180  177.5560  142.7960 C   0  0  0  0  0  2  0  0  0  0  0  0
  189.3020  176.7370  146.3600 O   0  0  0  0  0  0  0  0  0  0  0  0
  189.9120  177.4840  143.8710 C   0  0  2  0  0  0  0  0  0  0  0  0
  189.6980  177.3410  145.3790 C   0  0  0  0  0  0  0  0  0  0  0  0
  190.3580  178.5520  144.7150 C   0  0  0  0  0  2  0  0  0  0  0  0
  191.9900  177.2810  142.3060 C   0  0  0  0  0  1  0  0  0  0  0  0
  191.0330  176.6670  143.2750 C   0  0  0  0  0  0  0  0  0  0  0  0
  191.2610  175.4220  143.6950 C   0  0  0  0  0  2  0  0  0  0  0  0
  188.6700  177.1810  141.7890 O   0  0  0  0  0  0  0  0  0  0  0  0
  188.7300  177.8910  140.5850 C   0  0  0  0  0  0  0  0  0  0  0  0
  188.3250  179.0850  140.5640 O   0  0  0  0  0  0  0  0  0  0  0  0
  190.9430  176.1980  138.3930 C   0  0  2  0  0  3  0  0  0  0  0  0
  190.2990  177.2780  137.5450 C   0  0  1  0  0  3  0  0  0  0  0  0
  190.1910  176.2300  139.5860 O   0  0  0  0  0  0  0  0  0  0  0  0
  188.1750  176.7320  138.4080 C   0  0  0  0  0  2  0  0  0  0  0  0
  188.9520  176.7110  137.0980 C   0  0  0  0  0  2  0  0  0  0  0  0
  192.2710  176.5320  138.6640 O   0  0  0  0  0  1  0  0  0  0  0  0
  189.9440  178.1940  138.5240 O   0  0  0  0  0  0  0  0  0  0  0  0
  189.2680  177.2700  139.3220 C   0  0  1  0  0  0  0  0  0  0  0  0
  1 21  1  6  0  0  0
  1 15  1  0  0  0  0
  2  4  2  0  0  0  0
  2  5  1  0  0  0  0
  3 10  2  0  0  0  0
  3 11  1  0  0  0  0
  4  3  1  0  0  0  0
  5 10  1  0  0  0  0
  6  2  1  0  0  0  0
  7  1  1  6  0  0  0
  7  9  1  0  0  0  0
  8 13  1  0  0  0  0
  8  4  1  0  0  0  0
  9 12  1  0  0  0  0
 11 12  1  0  0  0  0
 13  7  1  0  0  0  0
 15 19  1  6  0  0  0
 15 17  1  0  0  0  0
 15 16  1  0  0  0  0
 16 14  2  0  0  0  0
 17 16  1  0  0  0  0
 18 19  1  0  0  0  0
 19 20  2  0  0  0  0
 22 21  1  0  0  0  0
 23 22  2  0  0  0  0
 24 29  1  1  0  0  0
 24 26  1  0  0  0  0
 25 28  1  1  0  0  0
 25 24  1  0  0  0  0
 25 30  1  0  0  0  0
 27 31  1  0  0  0  0
 28 27  1  0  0  0  0
 30 31  1  0  0  0  0
 31 26  1  0  0  0  0
 31 22  1  1  0  0  0
M  END
>  <MODEL>
6

>  <REMARK>
 VINA RESULT:      -7.7      1.159      1.842
  Name = 
  6 active torsions:
  status: ('A' for Active; 'I' for Inactive)
    1  A    between atoms: O_2  and  C_11
    2  A    between atoms: O_2  and  C_27
    3  A    between atoms: C_11  and  C_28
    4  A    between atoms: C_14  and  C_20
    5  A    between atoms: C_14  and  C_27
    6  A    between atoms: C_17  and  C_27
                            x       y       z     vdW  Elec       q    Type
                         _______ _______ _______ _____ _____    ______ ____

>  <TORSDO>
F 6

$$$$
=
 OpenBabel10232411533D

 31 35  0  0  1  0  0  0  0  0999 V2000
  188.5840  177.6830  144.9520 C   0  0  1  0  0  3  0  0  0  0  0  0
  183.5940  178.4140  142.0140 C   0  0  0  0  0  0  0  0  0  0  0  0
  183.6250  178.8630  144.1440 C   0  0  0  0  0  0  0  0  0  0  0  0
  184.4560  178.6760  143.0540 C   0  0  1  0  0  3  0  0  0  0  0  0
  182.3230  178.4660  142.4560 N   0  0  0  0  0  0  0  0  0  0  0  0
  183.9720  178.1140  140.6050 C   0  0  0  0  0  1  0  0  0  0  0  0
  187.0640  177.4610  145.0080 C   0  0  1  0  0  3  0  0  0  0  0  0
  185.9500  178.6250  143.0240 C   0  0  0  0  0  2  0  0  0  0  0  0
  186.3540  178.4380  145.9490 C   0  0  0  0  0  2  0  0  0  0  0  0
  182.3430  178.7380  143.7540 N   0  0  0  0  0  0  0  0  0  0  0  0
  184.0260  179.1840  145.5510 C   0  0  0  0  0  2  0  0  0  0  0  0
  184.8900  178.0820  146.1440 C   0  0  0  0  0  2  0  0  0  0  0  0
  186.4280  177.3060  143.6210 C   0  0  0  0  0  2  0  0  0  0  0  0
  191.9810  177.7290  145.9290 O   0  0  0  0  0  0  0  0  0  0  0  0
  189.3910  177.1100  146.1280 C   0  0  2  0  0  0  0  0  0  0  0  0
  190.9110  177.1470  145.9540 C   0  0  0  0  0  0  0  0  0  0  0  0
  190.0600  175.8810  145.8200 C   0  0  0  0  0  2  0  0  0  0  0  0
  188.9880  178.4600  148.3240 C   0  0  0  0  0  1  0  0  0  0  0  0
  188.8800  177.1900  147.5460 C   0  0  0  0  0  0  0  0  0  0  0  0
  188.2140  176.1670  148.0840 C   0  0  0  0  0  2  0  0  0  0  0  0
  189.0990  177.2230  143.7060 O   0  0  0  0  0  0  0  0  0  0  0  0
  189.7850  178.0610  142.8190 C   0  0  0  0  0  0  0  0  0  0  0  0
  190.4980  178.9890  143.2890 O   0  0  0  0  0  0  0  0  0  0  0  0
  188.6000  178.3770  139.4920 C   0  0  2  0  0  3  0  0  0  0  0  0
  189.0790  176.9430  139.6050 C   0  0  1  0  0  3  0  0  0  0  0  0
  189.0620  178.9680  140.6870 O   0  0  0  0  0  0  0  0  0  0  0  0
  191.0560  177.6540  140.6720 C   0  0  0  0  0  2  0  0  0  0  0  0
  190.5910  176.9880  139.3830 C   0  0  0  0  0  2  0  0  0  0  0  0
  187.2050  178.4140  139.4580 O   0  0  0  0  0  1  0  0  0  0  0  0
  188.9680  176.7430  140.9730 O   0  0  0  0  0  0  0  0  0  0  0  0
  189.6990  177.8780  141.3250 C   0  0  1  0  0  0  0  0  0  0  0  0
  1 21  1  6  0  0  0
  1 15  1  0  0  0  0
  2  5  2  0  0  0  0
  2  4  1  0  0  0  0
  3 11  1  0  0  0  0
  4  8  1  1  0  0  0
  4  3  1  0  0  0  0
  5 10  1  0  0  0  0
  6  2  1  0  0  0  0
  7  1  1  6  0  0  0
  7  9  1  0  0  0  0
  8 13  1  0  0  0  0
  9 12  1  0  0  0  0
 10  3  2  0  0  0  0
 11 12  1  0  0  0  0
 13  7  1  0  0  0  0
 14 16  2  0  0  0  0
 15 19  1  1  0  0  0
 16 15  1  0  0  0  0
 17 16  1  0  0  0  0
 17 15  1  0  0  0  0
 19 20  2  0  0  0  0
 19 18  1  0  0  0  0
 22 23  2  0  0  0  0
 22 21  1  0  0  0  0
 24 29  1  1  0  0  0
 24 25  1  0  0  0  0
 24 26  1  0  0  0  0
 25 28  1  1  0  0  0
 25 30  1  0  0  0  0
 26 31  1  0  0  0  0
 27 31  1  0  0  0  0
 28 27  1  0  0  0  0
 30 31  1  0  0  0  0
 31 22  1  1  0  0  0
M  END
>  <MODEL>
7

>  <REMARK>
 VINA RESULT:      -7.7      1.818      3.094
  Name = 
  6 active torsions:
  status: ('A' for Active; 'I' for Inactive)
    1  A    between atoms: O_2  and  C_11
    2  A    between atoms: O_2  and  C_27
    3  A    between atoms: C_11  and  C_28
    4  A    between atoms: C_14  and  C_20
    5  A    between atoms: C_14  and  C_27
    6  A    between atoms: C_17  and  C_27
                            x       y       z     vdW  Elec       q    Type
                         _______ _______ _______ _____ _____    ______ ____

>  <TORSDO>
F 6

$$$$
=
 OpenBabel10232411533D

 31 35  0  0  1  0  0  0  0  0999 V2000
  184.7930  178.5220  140.4570 C   0  0  1  0  0  3  0  0  0  0  0  0
  187.1290  178.0380  145.7830 C   0  0  0  0  0  0  0  0  0  0  0  0
  184.9930  178.4170  145.6120 C   0  0  0  0  0  0  0  0  0  0  0  0
  186.0840  177.9710  144.8900 C   0  0  0  0  0  0  0  0  0  0  0  0
  186.6790  178.4750  146.9750 N   0  0  0  0  0  2  0  0  0  0  0  0
  188.5500  177.6880  145.5100 C   0  0  0  0  0  1  0  0  0  0  0  0
  184.8000  179.1240  141.8700 C   0  0  1  0  0  3  0  0  0  0  0  0
  186.1590  177.6290  143.4370 C   0  0  0  0  0  2  0  0  0  0  0  0
  183.5420  178.7790  142.6710 C   0  0  0  0  0  2  0  0  0  0  0  0
  185.3770  178.7080  146.8690 N   0  0  0  0  0  0  0  0  0  0  0  0
  183.5790  178.5510  145.1370 C   0  0  0  0  0  2  0  0  0  0  0  0
  183.4740  179.5380  143.9850 C   0  0  0  0  0  2  0  0  0  0  0  0
  186.1280  178.9090  142.6090 C   0  0  0  0  0  2  0  0  0  0  0  0
  183.0210  180.8580  138.4830 O   0  0  0  0  0  0  0  0  0  0  0  0
  183.4400  178.5340  139.7270 C   0  0  2  0  0  0  0  0  0  0  0  0
  182.9730  179.9080  139.2440 C   0  0  0  0  0  0  0  0  0  0  0  0
  182.3970  179.1840  140.4630 C   0  0  0  0  0  2  0  0  0  0  0  0
  182.5670  176.0790  139.5970 C   0  0  0  0  0  1  0  0  0  0  0  0
  182.9710  177.3470  138.9200 C   0  0  0  0  0  0  0  0  0  0  0  0
  182.7940  177.4520  137.6030 C   0  0  0  0  0  2  0  0  0  0  0  0
  185.8080  179.1290  139.6620 O   0  0  0  0  0  0  0  0  0  0  0  0
  186.5810  178.4050  138.7460 C   0  0  0  0  0  0  0  0  0  0  0  0
  186.1200  178.2010  137.5900 O   0  0  0  0  0  0  0  0  0  0  0  0
  189.3410  177.3890  140.7260 C   0  0  2  0  0  3  0  0  0  0  0  0
  189.9530  178.0370  139.4990 C   0  0  1  0  0  3  0  0  0  0  0  0
  187.9740  177.2920  140.3930 O   0  0  0  0  0  0  0  0  0  0  0  0
  188.4710  176.8570  138.0990 C   0  0  0  0  0  2  0  0  0  0  0  0
  189.9570  176.9590  138.4160 C   0  0  0  0  0  2  0  0  0  0  0  0
  189.4980  178.2240  141.8350 O   0  0  0  0  0  1  0  0  0  0  0  0
  188.9190  178.8720  139.1070 O   0  0  0  0  0  0  0  0  0  0  0  0
  187.9450  177.8730  139.1030 C   0  0  1  0  0  0  0  0  0  0  0  0
  1 21  1  6  0  0  0
  2  5  1  0  0  0  0
  3 10  2  0  0  0  0
  4  3  1  0  0  0  0
  4  2  2  0  0  0  0
  6  2  1  0  0  0  0
  7  1  1  6  0  0  0
  7 13  1  0  0  0  0
  7  9  1  0  0  0  0
  8  4  1  0  0  0  0
  9 12  1  0  0  0  0
 10  5  1  0  0  0  0
 11  3  1  0  0  0  0
 12 11  1  0  0  0  0
 13  8  1  0  0  0  0
 14 16  2  0  0  0  0
 15 19  1  6  0  0  0
 15  1  1  0  0  0  0
 15 17  1  0  0  0  0
 16 15  1  0  0  0  0
 16 17  1  0  0  0  0
 19 18  1  0  0  0  0
 20 19  2  0  0  0  0
 22 21  1  0  0  0  0
 23 22  2  0  0  0  0
 24 29  1  1  0  0  0
 25 28  1  6  0  0  0
 25 24  1  0  0  0  0
 26 24  1  0  0  0  0
 27 28  1  0  0  0  0
 27 31  1  0  0  0  0
 30 25  1  0  0  0  0
 31 22  1  6  0  0  0
 31 30  1  0  0  0  0
 31 26  1  0  0  0  0
M  END
>  <MODEL>
8

>  <REMARK>
 VINA RESULT:      -7.5      2.353      5.623
  Name = 
  6 active torsions:
  status: ('A' for Active; 'I' for Inactive)
    1  A    between atoms: O_2  and  C_11
    2  A    between atoms: O_2  and  C_27
    3  A    between atoms: C_11  and  C_28
    4  A    between atoms: C_14  and  C_20
    5  A    between atoms: C_14  and  C_27
    6  A    between atoms: C_17  and  C_27
                            x       y       z     vdW  Elec       q    Type
                         _______ _______ _______ _____ _____    ______ ____

>  <TORSDO>
F 6

$$$$
=
 OpenBabel10232411533D

 31 35  0  0  1  0  0  0  0  0999 V2000
  189.0120  177.9930  141.9600 C   0  0  1  0  0  3  0  0  0  0  0  0
  184.3060  178.6770  145.3430 C   0  0  0  0  0  0  0  0  0  0  0  0
  184.0350  178.5920  143.1850 C   0  0  0  0  0  0  0  0  0  0  0  0
  184.9390  178.2870  144.1860 C   0  0  0  0  0  0  0  0  0  0  0  0
  183.0840  179.1630  145.0490 N   0  0  0  0  0  2  0  0  0  0  0  0
  184.8540  178.5900  146.7250 C   0  0  0  0  0  1  0  0  0  0  0  0
  187.6890  178.7610  142.1090 C   0  0  1  0  0  3  0  0  0  0  0  0
  186.3410  177.7840  144.0490 C   0  0  0  0  0  2  0  0  0  0  0  0
  186.6060  178.2730  141.1430 C   0  0  0  0  0  2  0  0  0  0  0  0
  182.9210  179.1130  143.7340 N   0  0  0  0  0  0  0  0  0  0  0  0
  184.1980  178.3750  141.7120 C   0  0  0  0  0  2  0  0  0  0  0  0
  185.3760  179.1650  141.1650 C   0  0  0  0  0  2  0  0  0  0  0  0
  187.2440  178.9150  143.5690 C   0  0  0  0  0  2  0  0  0  0  0  0
  190.8570  175.0480  142.6050 O   0  0  0  0  0  0  0  0  0  0  0  0
  189.5180  177.2750  143.2200 C   0  0  2  0  0  0  0  0  0  0  0  0
  190.0270  175.8490  142.9980 C   0  0  0  0  0  0  0  0  0  0  0  0
  188.6790  176.1910  143.6390 C   0  0  0  0  0  2  0  0  0  0  0  0
  191.1030  179.1540  144.0950 C   0  0  0  0  0  1  0  0  0  0  0  0
  190.1470  178.0370  144.3610 C   0  0  0  0  0  0  0  0  0  0  0  0
  189.7680  177.8080  145.6190 C   0  0  0  0  0  2  0  0  0  0  0  0
  188.9330  177.0960  140.8550 O   0  0  0  0  0  0  0  0  0  0  0  0
  189.7290  177.2370  139.7130 C   0  0  0  0  0  0  0  0  0  0  0  0
  190.9820  177.1510  139.8300 O   0  0  0  0  0  0  0  0  0  0  0  0
  187.6220  178.5850  137.2000 C   0  0  2  0  0  3  0  0  0  0  0  0
  187.8080  177.1290  136.8190 C   0  0  1  0  0  3  0  0  0  0  0  0
  188.5570  178.7690  138.2400 O   0  0  0  0  0  0  0  0  0  0  0  0
  190.1250  177.2880  137.2170 C   0  0  0  0  0  2  0  0  0  0  0  0
  189.1420  177.0580  136.0760 C   0  0  0  0  0  2  0  0  0  0  0  0
  186.3290  178.7900  137.6850 O   0  0  0  0  0  1  0  0  0  0  0  0
  188.1070  176.5770  138.0550 O   0  0  0  0  0  0  0  0  0  0  0  0
  189.1290  177.4800  138.3520 C   0  0  1  0  0  0  0  0  0  0  0  0
  1 21  1  6  0  0  0
  1 15  1  0  0  0  0
  2  6  1  0  0  0  0
  3 10  2  0  0  0  0
  3  4  1  0  0  0  0
  4  2  2  0  0  0  0
  5  2  1  0  0  0  0
  7  1  1  1  0  0  0
  7 13  1  0  0  0  0
  8  4  1  0  0  0  0
  9 12  1  0  0  0  0
  9  7  1  0  0  0  0
 10  5  1  0  0  0  0
 11  3  1  0  0  0  0
 12 11  1  0  0  0  0
 13  8  1  0  0  0  0
 14 16  2  0  0  0  0
 15 17  1  0  0  0  0
 15 19  1  1  0  0  0
 16 15  1  0  0  0  0
 16 17  1  0  0  0  0
 18 19  1  0  0  0  0
 19 20  2  0  0  0  0
 22 23  2  0  0  0  0
 22 21  1  0  0  0  0
 24 29  1  1  0  0  0
 24 26  1  0  0  0  0
 25 28  1  6  0  0  0
 25 24  1  0  0  0  0
 25 30  1  0  0  0  0
 26 31  1  0  0  0  0
 27 31  1  0  0  0  0
 28 27  1  0  0  0  0
 30 31  1  0  0  0  0
 31 22  1  1  0  0  0
M  END
>  <MODEL>
9

>  <REMARK>
 VINA RESULT:      -7.5      1.476      2.841
  Name = 
  6 active torsions:
  status: ('A' for Active; 'I' for Inactive)
    1  A    between atoms: O_2  and  C_11
    2  A    between atoms: O_2  and  C_27
    3  A    between atoms: C_11  and  C_28
    4  A    between atoms: C_14  and  C_20
    5  A    between atoms: C_14  and  C_27
    6  A    between atoms: C_17  and  C_27
                            x       y       z     vdW  Elec       q    Type
                         _______ _______ _______ _____ _____    ______ ____

>  <TORSDO>
F 6

$$$$
