=
 OpenBabel10232408393D

 28 31  0  0  1  0  0  0  0  0999 V2000
  189.6500  177.2790  146.2350 N   0  0  0  0  0  0  0  0  0  0  0  0
  184.0240  178.8240  144.5020 N   0  0  0  0  0  0  0  0  0  0  0  0
  184.1170  178.5350  143.1760 C   0  0  0  0  0  3  0  0  0  0  0  0
  185.0690  178.6320  145.3510 C   0  0  0  0  0  0  0  0  0  0  0  0
  186.2930  178.1200  144.8630 C   0  0  0  0  0  0  0  0  0  0  0  0
  190.9130  176.8150  145.7300 C   0  0  0  0  0  0  0  0  0  0  0  0
  187.1800  178.2520  147.1250 C   0  0  0  0  0  0  0  0  0  0  0  0
  187.3640  177.9300  145.7620 C   0  0  0  0  0  0  0  0  0  0  0  0
  191.8880  176.6580  146.5170 O   0  0  0  0  0  0  0  0  0  0  0  0
  185.3050  178.0280  142.6490 C   0  0  0  0  0  3  0  0  0  0  0  0
  186.3950  177.8200  143.4960 C   0  0  0  0  0  3  0  0  0  0  0  0
  189.5000  177.5230  147.6750 C   0  0  0  0  0  2  0  0  0  0  0  0
  188.1520  178.0870  148.0270 C   0  0  0  0  0  3  0  0  0  0  0  0
  185.9500  178.7600  147.5500 C   0  0  0  0  0  3  0  0  0  0  0  0
  188.5460  177.4650  145.3350 C   0  0  0  0  0  3  0  0  0  0  0  0
  184.9340  178.9360  146.6670 N   0  0  0  0  0  0  0  0  0  0  0  0
  191.9670  175.3880  144.0820 N   0  0  0  0  0  1  0  0  0  0  0  0
  191.0990  176.5400  144.2690 C   0  0  2  0  0  3  0  0  0  0  0  0
  191.6870  177.7570  143.5770 C   0  0  0  0  0  2  0  0  0  0  0  0
  191.4160  177.6940  142.1520 N   0  0  0  0  0  2  0  0  0  0  0  0
  189.9930  177.4390  142.0090 C   0  0  0  0  0  2  0  0  0  0  0  0
  189.9940  177.4010  138.2270 C   0  0  0  0  0  3  0  0  0  0  0  0
  188.0620  178.5780  139.0010 N   0  0  0  0  0  0  0  0  0  0  0  0
  188.8180  178.1120  137.9690 C   0  0  0  0  0  0  0  0  0  0  0  0
  189.5840  177.6530  140.5940 C   0  0  0  0  0  0  0  0  0  0  0  0
  188.3950  178.3620  136.5670 C   0  0  0  0  0  1  0  0  0  0  0  0
  190.3770  177.1740  139.5500 C   0  0  0  0  0  3  0  0  0  0  0  0
  188.4190  178.3670  140.2970 C   0  0  0  0  0  3  0  0  0  0  0  0
  1 12  1  0  0  0  0
  2  4  2  0  0  0  0
  3  2  1  0  0  0  0
  4 16  1  0  0  0  0
  5  4  1  0  0  0  0
  5  8  1  0  0  0  0
  6  1  1  0  0  0  0
  6  9  2  0  0  0  0
  7 14  1  0  0  0  0
  7 13  2  0  0  0  0
  8  7  1  0  0  0  0
 10  3  2  0  0  0  0
 10 11  1  0  0  0  0
 11  5  2  0  0  0  0
 12 13  1  0  0  0  0
 15  8  2  0  0  0  0
 15  1  1  0  0  0  0
 16 14  2  0  0  0  0
 18 17  1  1  0  0  0
 18  6  1  0  0  0  0
 19 18  1  0  0  0  0
 20 19  1  0  0  0  0
 21 20  1  0  0  0  0
 22 27  1  0  0  0  0
 23 28  2  0  0  0  0
 24 22  2  0  0  0  0
 24 23  1  0  0  0  0
 25 21  1  0  0  0  0
 26 24  1  0  0  0  0
 27 25  2  0  0  0  0
 28 25  1  0  0  0  0
M  END
>  <MODEL>
1

>  <REMARK>
 VINA RESULT:     -10.1      0.000      0.000
  Name = 
  5 active torsions:
  status: ('A' for Active; 'I' for Inactive)
    1  A    between atoms: C_8  and  C_11
    2  A    between atoms: C_8  and  C_25
    3  A    between atoms: C_12  and  C_13
    4  A    between atoms: C_13  and  N_18
    5  A    between atoms: N_18  and  C_25
                            x       y       z     vdW  Elec       q    Type
                         _______ _______ _______ _____ _____    ______ ____

>  <TORSDO>
F 5

$$$$
=
 OpenBabel10232408393D

 28 31  0  0  1  0  0  0  0  0999 V2000
  188.7460  177.1990  145.3140 N   0  0  0  0  0  0  0  0  0  0  0  0
  183.0870  179.0030  143.9860 N   0  0  0  0  0  0  0  0  0  0  0  0
  183.0960  178.7830  142.6440 C   0  0  0  0  0  3  0  0  0  0  0  0
  184.1710  178.7350  144.7630 C   0  0  0  0  0  0  0  0  0  0  0  0
  185.3480  178.2120  144.1810 C   0  0  0  0  0  0  0  0  0  0  0  0
  189.9630  176.7240  144.7150 C   0  0  0  0  0  0  0  0  0  0  0  0
  186.3630  178.1980  146.3920 C   0  0  0  0  0  0  0  0  0  0  0  0
  186.4600  177.9430  145.0060 C   0  0  0  0  0  0  0  0  0  0  0  0
  190.9740  176.4970  145.4360 O   0  0  0  0  0  0  0  0  0  0  0  0
  184.2360  178.2680  142.0250 C   0  0  0  0  0  3  0  0  0  0  0  0
  185.3640  177.9830  142.7960 C   0  0  0  0  0  3  0  0  0  0  0  0
  188.6830  177.3710  146.7700 C   0  0  0  0  0  2  0  0  0  0  0  0
  187.3760  177.9560  147.2270 C   0  0  0  0  0  3  0  0  0  0  0  0
  185.1750  178.7190  146.9120 C   0  0  0  0  0  3  0  0  0  0  0  0
  187.6010  177.4660  144.4900 C   0  0  0  0  0  3  0  0  0  0  0  0
  184.1180  178.9730  146.0980 N   0  0  0  0  0  0  0  0  0  0  0  0
  190.5610  175.1890  142.9410 N   0  0  0  0  0  1  0  0  0  0  0  0
  190.0580  176.5220  143.2340 C   0  0  2  0  0  3  0  0  0  0  0  0
  190.9670  177.5720  142.6180 C   0  0  0  0  0  2  0  0  0  0  0  0
  190.5970  177.7940  141.2320 N   0  0  0  0  0  2  0  0  0  0  0  0
  189.1530  177.9480  141.2060 C   0  0  0  0  0  2  0  0  0  0  0  0
  189.1450  178.0800  137.4250 C   0  0  0  0  0  3  0  0  0  0  0  0
  186.9080  178.3440  138.2260 N   0  0  0  0  0  0  0  0  0  0  0  0
  187.7810  178.2680  137.1840 C   0  0  0  0  0  0  0  0  0  0  0  0
  188.6830  178.0410  139.7960 C   0  0  0  0  0  0  0  0  0  0  0  0
  187.2840  178.3880  135.7890 C   0  0  0  0  0  1  0  0  0  0  0  0
  189.5960  177.9680  138.7420 C   0  0  0  0  0  3  0  0  0  0  0  0
  187.3280  178.2380  139.5160 C   0  0  0  0  0  3  0  0  0  0  0  0
  1 12  1  0  0  0  0
  2  4  2  0  0  0  0
  3  2  1  0  0  0  0
  4 16  1  0  0  0  0
  5  4  1  0  0  0  0
  5  8  1  0  0  0  0
  6  1  1  0  0  0  0
  6  9  2  0  0  0  0
  7 14  1  0  0  0  0
  7 13  2  0  0  0  0
  8  7  1  0  0  0  0
 10  3  2  0  0  0  0
 10 11  1  0  0  0  0
 11  5  2  0  0  0  0
 12 13  1  0  0  0  0
 15  8  2  0  0  0  0
 15  1  1  0  0  0  0
 16 14  2  0  0  0  0
 18 17  1  1  0  0  0
 18  6  1  0  0  0  0
 19 18  1  0  0  0  0
 20 19  1  0  0  0  0
 21 20  1  0  0  0  0
 22 27  1  0  0  0  0
 23 28  2  0  0  0  0
 24 22  2  0  0  0  0
 24 23  1  0  0  0  0
 25 21  1  0  0  0  0
 26 24  1  0  0  0  0
 27 25  2  0  0  0  0
 28 25  1  0  0  0  0
M  END
>  <MODEL>
2

>  <REMARK>
 VINA RESULT:      -9.4      1.122      1.277
  Name = 
  5 active torsions:
  status: ('A' for Active; 'I' for Inactive)
    1  A    between atoms: C_8  and  C_11
    2  A    between atoms: C_8  and  C_25
    3  A    between atoms: C_12  and  C_13
    4  A    between atoms: C_13  and  N_18
    5  A    between atoms: N_18  and  C_25
                            x       y       z     vdW  Elec       q    Type
                         _______ _______ _______ _____ _____    ______ ____

>  <TORSDO>
F 5

$$$$
=
 OpenBabel10232408393D

 28 31  0  0  1  0  0  0  0  0999 V2000
  190.3730  177.5530  141.3060 N   0  0  0  0  0  0  0  0  0  0  0  0
  185.0280  178.5210  138.5620 N   0  0  0  0  0  0  0  0  0  0  0  0
  184.3510  179.0880  139.5950 C   0  0  0  0  0  3  0  0  0  0  0  0
  186.3220  178.1200  138.6870 C   0  0  0  0  0  0  0  0  0  0  0  0
  186.9990  178.2900  139.9150 C   0  0  0  0  0  0  0  0  0  0  0  0
  191.0440  177.6700  142.5710 C   0  0  0  0  0  0  0  0  0  0  0  0
  188.9690  177.2890  138.8970 C   0  0  0  0  0  0  0  0  0  0  0  0
  188.3410  177.8660  140.0230 C   0  0  0  0  0  0  0  0  0  0  0  0
  192.2390  177.2780  142.6900 O   0  0  0  0  0  0  0  0  0  0  0  0
  184.9780  179.2760  140.8270 C   0  0  0  0  0  3  0  0  0  0  0  0
  186.3060  178.8750  140.9860 C   0  0  0  0  0  3  0  0  0  0  0  0
  191.1060  177.0160  140.1530 C   0  0  0  0  0  2  0  0  0  0  0  0
  190.2390  176.8760  138.9320 C   0  0  0  0  0  3  0  0  0  0  0  0
  188.2490  177.1420  137.7100 C   0  0  0  0  0  3  0  0  0  0  0  0
  189.0120  177.9910  141.1760 C   0  0  0  0  0  3  0  0  0  0  0  0
  186.9580  177.5550  137.6300 N   0  0  0  0  0  0  0  0  0  0  0  0
  190.8560  179.5460  144.0900 N   0  0  0  0  0  1  0  0  0  0  0  0
  190.3340  178.2280  143.7660 C   0  0  2  0  0  3  0  0  0  0  0  0
  190.4920  177.2950  144.9540 C   0  0  0  0  0  2  0  0  0  0  0  0
  189.2040  176.7300  145.3130 N   0  0  0  0  0  2  0  0  0  0  0  0
  188.6260  177.6120  146.3120 C   0  0  0  0  0  2  0  0  0  0  0  0
  185.4750  178.0950  144.2770 C   0  0  0  0  0  3  0  0  0  0  0  0
  185.0900  178.8490  146.5120 N   0  0  0  0  0  0  0  0  0  0  0  0
  184.6330  178.6490  145.2450 C   0  0  0  0  0  0  0  0  0  0  0  0
  187.2280  177.9540  145.9330 C   0  0  0  0  0  0  0  0  0  0  0  0
  183.2390  179.0230  144.8910 C   0  0  0  0  0  1  0  0  0  0  0  0
  186.7810  177.7490  144.6250 C   0  0  0  0  0  3  0  0  0  0  0  0
  186.3600  178.5180  146.8720 C   0  0  0  0  0  3  0  0  0  0  0  0
  1  6  1  0  0  0  0
  2  4  2  0  0  0  0
  2  3  1  0  0  0  0
  3 10  2  0  0  0  0
  4  5  1  0  0  0  0
  5  8  1  0  0  0  0
  5 11  2  0  0  0  0
  6  9  2  0  0  0  0
  6 18  1  0  0  0  0
  7 13  2  0  0  0  0
  7  8  1  0  0  0  0
  8 15  2  0  0  0  0
 10 11  1  0  0  0  0
 12  1  1  0  0  0  0
 13 12  1  0  0  0  0
 14  7  1  0  0  0  0
 15  1  1  0  0  0  0
 16 14  2  0  0  0  0
 16  4  1  0  0  0  0
 18 17  1  1  0  0  0
 18 19  1  0  0  0  0
 19 20  1  0  0  0  0
 20 21  1  0  0  0  0
 22 27  2  0  0  0  0
 22 24  1  0  0  0  0
 23 28  1  0  0  0  0
 24 23  2  0  0  0  0
 25 21  1  0  0  0  0
 25 28  2  0  0  0  0
 26 24  1  0  0  0  0
 27 25  1  0  0  0  0
M  END
>  <MODEL>
3

>  <REMARK>
 VINA RESULT:      -8.8      1.754      6.325
  Name = 
  5 active torsions:
  status: ('A' for Active; 'I' for Inactive)
    1  A    between atoms: C_8  and  C_11
    2  A    between atoms: C_8  and  C_25
    3  A    between atoms: C_12  and  C_13
    4  A    between atoms: C_13  and  N_18
    5  A    between atoms: N_18  and  C_25
                            x       y       z     vdW  Elec       q    Type
                         _______ _______ _______ _____ _____    ______ ____

>  <TORSDO>
F 5

$$$$
=
 OpenBabel10232408393D

 28 31  0  0  1  0  0  0  0  0999 V2000
  185.2670  178.4240  144.7930 N   0  0  0  0  0  0  0  0  0  0  0  0
  190.9400  176.8080  146.2940 N   0  0  0  0  0  0  0  0  0  0  0  0
  191.4470  176.6080  145.0480 C   0  0  0  0  0  3  0  0  0  0  0  0
  189.6530  177.2030  146.4880 C   0  0  0  0  0  0  0  0  0  0  0  0
  188.8030  177.4170  145.3790 C   0  0  0  0  0  0  0  0  0  0  0  0
  184.3850  178.5840  143.6710 C   0  0  0  0  0  0  0  0  0  0  0  0
  187.0280  178.0140  146.9320 C   0  0  0  0  0  0  0  0  0  0  0  0
  187.4720  177.8260  145.6040 C   0  0  0  0  0  0  0  0  0  0  0  0
  183.1850  178.9310  143.8550 O   0  0  0  0  0  0  0  0  0  0  0  0
  190.6460  176.8070  143.9230 C   0  0  0  0  0  3  0  0  0  0  0  0
  189.3210  177.2120  144.0910 C   0  0  0  0  0  3  0  0  0  0  0  0
  184.7670  178.7090  146.1440 C   0  0  0  0  0  2  0  0  0  0  0  0
  185.7830  178.4080  147.2110 C   0  0  0  0  0  3  0  0  0  0  0  0
  187.9110  177.7820  147.9900 C   0  0  0  0  0  3  0  0  0  0  0  0
  186.6290  178.0210  144.5810 C   0  0  0  0  0  3  0  0  0  0  0  0
  189.1870  177.3880  147.7490 N   0  0  0  0  0  0  0  0  0  0  0  0
  185.5520  179.4860  141.7500 N   0  0  0  0  0  1  0  0  0  0  0  0
  184.8650  178.3180  142.2760 C   0  0  2  0  0  3  0  0  0  0  0  0
  183.6950  177.9500  141.3800 C   0  0  0  0  0  2  0  0  0  0  0  0
  183.7810  178.6820  140.1300 N   0  0  0  0  0  2  0  0  0  0  0  0
  183.5040  177.7300  139.0690 C   0  0  0  0  0  2  0  0  0  0  0  0
  185.5170  177.1060  135.9270 C   0  0  0  0  0  3  0  0  0  0  0  0
  186.8070  178.4370  137.4360 N   0  0  0  0  0  0  0  0  0  0  0  0
  186.6910  177.7950  136.2410 C   0  0  0  0  0  0  0  0  0  0  0  0
  184.6040  177.7600  138.0660 C   0  0  0  0  0  0  0  0  0  0  0  0
  187.8160  177.8250  135.2710 C   0  0  0  0  0  1  0  0  0  0  0  0
  184.4690  177.0880  136.8490 C   0  0  0  0  0  3  0  0  0  0  0  0
  185.7970  178.4320  138.3480 C   0  0  0  0  0  3  0  0  0  0  0  0
  1 12  1  0  0  0  0
  2  4  2  0  0  0  0
  3  2  1  0  0  0  0
  4 16  1  0  0  0  0
  5  8  1  0  0  0  0
  5  4  1  0  0  0  0
  6  9  2  0  0  0  0
  6  1  1  0  0  0  0
  7 13  2  0  0  0  0
  7 14  1  0  0  0  0
  8  7  1  0  0  0  0
 10 11  1  0  0  0  0
 10  3  2  0  0  0  0
 11  5  2  0  0  0  0
 12 13  1  0  0  0  0
 15  1  1  0  0  0  0
 15  8  2  0  0  0  0
 16 14  2  0  0  0  0
 18 17  1  6  0  0  0
 18  6  1  0  0  0  0
 19 18  1  0  0  0  0
 20 19  1  0  0  0  0
 21 20  1  0  0  0  0
 22 24  2  0  0  0  0
 22 27  1  0  0  0  0
 23 28  2  0  0  0  0
 24 23  1  0  0  0  0
 25 28  1  0  0  0  0
 25 21  1  0  0  0  0
 26 24  1  0  0  0  0
 27 25  2  0  0  0  0
M  END
>  <MODEL>
4

>  <REMARK>
 VINA RESULT:      -8.6      2.766      5.440
  Name = 
  5 active torsions:
  status: ('A' for Active; 'I' for Inactive)
    1  A    between atoms: C_8  and  C_11
    2  A    between atoms: C_8  and  C_25
    3  A    between atoms: C_12  and  C_13
    4  A    between atoms: C_13  and  N_18
    5  A    between atoms: N_18  and  C_25
                            x       y       z     vdW  Elec       q    Type
                         _______ _______ _______ _____ _____    ______ ____

>  <TORSDO>
F 5

$$$$
=
 OpenBabel10232408393D

 28 31  0  0  1  0  0  0  0  0999 V2000
  187.1910  178.2540  141.9740 N   0  0  0  0  0  0  0  0  0  0  0  0
  190.0010  176.8700  147.1930 N   0  0  0  0  0  0  0  0  0  0  0  0
  191.2750  176.7550  146.7310 C   0  0  0  0  0  3  0  0  0  0  0  0
  188.9670  177.1880  146.3680 C   0  0  0  0  0  0  0  0  0  0  0  0
  189.2000  177.4090  144.9920 C   0  0  0  0  0  0  0  0  0  0  0  0
  187.4180  178.4200  140.5650 C   0  0  0  0  0  0  0  0  0  0  0  0
  186.8220  177.8390  144.7180 C   0  0  0  0  0  0  0  0  0  0  0  0
  188.1130  177.7360  144.1550 C   0  0  0  0  0  0  0  0  0  0  0  0
  186.4520  178.6940  139.7990 O   0  0  0  0  0  0  0  0  0  0  0  0
  191.5540  176.9640  145.3800 C   0  0  0  0  0  3  0  0  0  0  0  0
  190.5130  177.2910  144.5090 C   0  0  0  0  0  3  0  0  0  0  0  0
  185.8390  178.4500  142.5110 C   0  0  0  0  0  2  0  0  0  0  0  0
  185.7530  178.1540  143.9820 C   0  0  0  0  0  3  0  0  0  0  0  0
  186.6490  177.6050  146.0850 C   0  0  0  0  0  3  0  0  0  0  0  0
  188.2900  177.9330  142.8410 C   0  0  0  0  0  3  0  0  0  0  0  0
  187.7100  177.2900  146.8710 N   0  0  0  0  0  0  0  0  0  0  0  0
  188.9820  179.1570  138.8690 N   0  0  0  0  0  1  0  0  0  0  0  0
  188.7880  178.2440  139.9840 C   0  0  2  0  0  3  0  0  0  0  0  0
  188.9820  176.8090  139.5250 C   0  0  0  0  0  2  0  0  0  0  0  0
  190.3940  176.5440  139.3170 N   0  0  0  0  0  2  0  0  0  0  0  0
  190.5280  176.0370  137.9620 C   0  0  0  0  0  2  0  0  0  0  0  0
  193.4220  173.7920  137.0200 C   0  0  0  0  0  3  0  0  0  0  0  0
  194.2730  175.8160  137.9630 N   0  0  0  0  0  0  0  0  0  0  0  0
  194.4980  174.5910  137.4140 C   0  0  0  0  0  0  0  0  0  0  0  0
  191.9100  175.5290  137.7500 C   0  0  0  0  0  0  0  0  0  0  0  0
  195.8900  174.1020  137.2370 C   0  0  0  0  0  1  0  0  0  0  0  0
  192.1210  174.2660  137.1920 C   0  0  0  0  0  3  0  0  0  0  0  0
  193.0120  176.2960  138.1400 C   0  0  0  0  0  3  0  0  0  0  0  0
  1 12  1  0  0  0  0
  1 15  1  0  0  0  0
  3  2  1  0  0  0  0
  4 16  1  0  0  0  0
  4  2  2  0  0  0  0
  5  4  1  0  0  0  0
  6  1  1  0  0  0  0
  7 14  1  0  0  0  0
  8  7  1  0  0  0  0
  8  5  1  0  0  0  0
  9  6  2  0  0  0  0
 10  3  2  0  0  0  0
 11  5  2  0  0  0  0
 11 10  1  0  0  0  0
 12 13  1  0  0  0  0
 13  7  2  0  0  0  0
 14 16  2  0  0  0  0
 15  8  2  0  0  0  0
 18 17  1  6  0  0  0
 18  6  1  0  0  0  0
 19 18  1  0  0  0  0
 20 19  1  0  0  0  0
 21 20  1  0  0  0  0
 22 27  2  0  0  0  0
 22 24  1  0  0  0  0
 23 28  1  0  0  0  0
 24 23  2  0  0  0  0
 25 21  1  0  0  0  0
 25 28  2  0  0  0  0
 26 24  1  0  0  0  0
 27 25  1  0  0  0  0
M  END
>  <MODEL>
5

>  <REMARK>
 VINA RESULT:      -8.6      3.186      5.460
  Name = 
  5 active torsions:
  status: ('A' for Active; 'I' for Inactive)
    1  A    between atoms: C_8  and  C_11
    2  A    between atoms: C_8  and  C_25
    3  A    between atoms: C_12  and  C_13
    4  A    between atoms: C_13  and  N_18
    5  A    between atoms: N_18  and  C_25
                            x       y       z     vdW  Elec       q    Type
                         _______ _______ _______ _____ _____    ______ ____

>  <TORSDO>
F 5

$$$$
=
 OpenBabel10232408393D

 28 31  0  0  1  0  0  0  0  0999 V2000
  189.5520  177.3540  145.0060 N   0  0  0  0  0  0  0  0  0  0  0  0
  183.7320  179.1070  145.3030 N   0  0  0  0  0  0  0  0  0  0  0  0
  183.4410  179.1240  143.9750 C   0  0  0  0  0  3  0  0  0  0  0  0
  184.9630  178.7560  145.7610 C   0  0  0  0  0  0  0  0  0  0  0  0
  185.9820  178.3960  144.8500 C   0  0  0  0  0  0  0  0  0  0  0  0
  190.6060  177.0460  144.0790 C   0  0  0  0  0  0  0  0  0  0  0  0
  187.4680  178.0430  146.7440 C   0  0  0  0  0  0  0  0  0  0  0  0
  187.2520  178.0370  145.3480 C   0  0  0  0  0  0  0  0  0  0  0  0
  191.7540  176.7410  144.5070 O   0  0  0  0  0  0  0  0  0  0  0  0
  184.4140  178.7760  143.0380 C   0  0  0  0  0  3  0  0  0  0  0  0
  185.6880  178.4120  143.4780 C   0  0  0  0  0  3  0  0  0  0  0  0
  189.8180  177.2670  146.4480 C   0  0  0  0  0  2  0  0  0  0  0  0
  188.6440  177.7050  147.2790 C   0  0  0  0  0  3  0  0  0  0  0  0
  186.4250  178.4120  147.5980 C   0  0  0  0  0  3  0  0  0  0  0  0
  188.2500  177.7090  144.5160 C   0  0  0  0  0  3  0  0  0  0  0  0
  185.2110  178.7560  147.0960 N   0  0  0  0  0  0  0  0  0  0  0  0
  190.0350  175.7880  142.0900 N   0  0  0  0  0  1  0  0  0  0  0  0
  190.3670  177.1080  142.6010 C   0  0  2  0  0  3  0  0  0  0  0  0
  191.5970  177.6490  141.8940 C   0  0  0  0  0  2  0  0  0  0  0  0
  191.4000  177.6050  140.4560 N   0  0  0  0  0  2  0  0  0  0  0  0
  192.5980  177.0120  139.8890 C   0  0  0  0  0  2  0  0  0  0  0  0
  193.1110  175.8420  136.3280 C   0  0  0  0  0  3  0  0  0  0  0  0
  190.7710  176.1020  136.7410 N   0  0  0  0  0  0  0  0  0  0  0  0
  191.7840  175.7760  135.8930 C   0  0  0  0  0  0  0  0  0  0  0  0
  192.3250  176.5620  138.4960 C   0  0  0  0  0  0  0  0  0  0  0  0
  191.4800  175.3520  134.5020 C   0  0  0  0  0  1  0  0  0  0  0  0
  193.3800  176.2400  137.6390 C   0  0  0  0  0  3  0  0  0  0  0  0
  191.0120  176.4930  138.0220 C   0  0  0  0  0  3  0  0  0  0  0  0
  1 12  1  0  0  0  0
  2  4  2  0  0  0  0
  3  2  1  0  0  0  0
  4 16  1  0  0  0  0
  5  8  1  0  0  0  0
  5  4  1  0  0  0  0
  6  9  2  0  0  0  0
  6  1  1  0  0  0  0
  7 13  2  0  0  0  0
  7 14  1  0  0  0  0
  8  7  1  0  0  0  0
 10 11  1  0  0  0  0
 10  3  2  0  0  0  0
 11  5  2  0  0  0  0
 12 13  1  0  0  0  0
 15  1  1  0  0  0  0
 15  8  2  0  0  0  0
 16 14  2  0  0  0  0
 18 17  1  6  0  0  0
 18  6  1  0  0  0  0
 19 18  1  0  0  0  0
 20 19  1  0  0  0  0
 21 20  1  0  0  0  0
 22 27  1  0  0  0  0
 23 28  2  0  0  0  0
 24 22  2  0  0  0  0
 24 23  1  0  0  0  0
 25 21  1  0  0  0  0
 26 24  1  0  0  0  0
 27 25  2  0  0  0  0
 28 25  1  0  0  0  0
M  END
>  <MODEL>
6

>  <REMARK>
 VINA RESULT:      -8.4      2.046      2.424
  Name = 
  5 active torsions:
  status: ('A' for Active; 'I' for Inactive)
    1  A    between atoms: C_8  and  C_11
    2  A    between atoms: C_8  and  C_25
    3  A    between atoms: C_12  and  C_13
    4  A    between atoms: C_13  and  N_18
    5  A    between atoms: N_18  and  C_25
                            x       y       z     vdW  Elec       q    Type
                         _______ _______ _______ _____ _____    ______ ____

>  <TORSDO>
F 5

$$$$
=
 OpenBabel10232408393D

 28 31  0  0  1  0  0  0  0  0999 V2000
  189.9670  177.3730  144.1630 N   0  0  0  0  0  0  0  0  0  0  0  0
  184.4140  178.7150  146.2620 N   0  0  0  0  0  0  0  0  0  0  0  0
  183.7640  178.8680  145.0780 C   0  0  0  0  0  3  0  0  0  0  0  0
  185.7340  178.3910  146.3180 C   0  0  0  0  0  0  0  0  0  0  0  0
  186.4670  178.2030  145.1240 C   0  0  0  0  0  0  0  0  0  0  0  0
  190.7280  177.2400  142.9520 C   0  0  0  0  0  0  0  0  0  0  0  0
  188.4320  177.7260  146.4780 C   0  0  0  0  0  0  0  0  0  0  0  0
  187.8350  177.8680  145.2060 C   0  0  0  0  0  0  0  0  0  0  0  0
  191.9570  176.9600  143.0060 O   0  0  0  0  0  0  0  0  0  0  0  0
  184.4460  178.6920  143.8740 C   0  0  0  0  0  3  0  0  0  0  0  0
  185.8010  178.3590  143.8990 C   0  0  0  0  0  3  0  0  0  0  0  0
  190.6260  177.1360  145.4530 C   0  0  0  0  0  2  0  0  0  0  0  0
  189.7200  177.4020  146.6220 C   0  0  0  0  0  3  0  0  0  0  0  0
  187.6590  177.9280  147.6240 C   0  0  0  0  0  3  0  0  0  0  0  0
  188.5700  177.7010  144.0970 C   0  0  0  0  0  3  0  0  0  0  0  0
  186.3440  178.2520  147.5220 N   0  0  0  0  0  0  0  0  0  0  0  0
  189.0650  176.4490  141.3790 N   0  0  0  0  0  1  0  0  0  0  0  0
  190.0840  177.4580  141.6160 C   0  0  2  0  0  3  0  0  0  0  0  0
  191.1310  177.4130  140.5160 C   0  0  0  0  0  2  0  0  0  0  0  0
  190.8590  176.3040  139.6200 N   0  0  0  0  0  2  0  0  0  0  0  0
  190.9450  176.8290  138.2690 C   0  0  0  0  0  2  0  0  0  0  0  0
  187.8470  178.4310  136.8050 C   0  0  0  0  0  3  0  0  0  0  0  0
  187.4430  176.0990  137.1370 N   0  0  0  0  0  0  0  0  0  0  0  0
  187.0030  177.3190  136.7270 C   0  0  0  0  0  0  0  0  0  0  0  0
  189.5760  177.0090  137.7120 C   0  0  0  0  0  0  0  0  0  0  0  0
  185.6230  177.4710  136.1980 C   0  0  0  0  0  1  0  0  0  0  0  0
  189.1410  178.2720  137.3030 C   0  0  0  0  0  3  0  0  0  0  0  0
  188.7010  175.9230  137.6270 C   0  0  0  0  0  3  0  0  0  0  0  0
  1 12  1  0  0  0  0
  2  4  2  0  0  0  0
  3  2  1  0  0  0  0
  4 16  1  0  0  0  0
  5  8  1  0  0  0  0
  5  4  1  0  0  0  0
  6  9  2  0  0  0  0
  6  1  1  0  0  0  0
  7 13  2  0  0  0  0
  7 14  1  0  0  0  0
  8  7  1  0  0  0  0
 10 11  1  0  0  0  0
 10  3  2  0  0  0  0
 11  5  2  0  0  0  0
 12 13  1  0  0  0  0
 15  1  1  0  0  0  0
 15  8  2  0  0  0  0
 16 14  2  0  0  0  0
 18 17  1  6  0  0  0
 18  6  1  0  0  0  0
 19 18  1  0  0  0  0
 20 19  1  0  0  0  0
 21 20  1  0  0  0  0
 22 27  1  0  0  0  0
 23 28  2  0  0  0  0
 24 22  2  0  0  0  0
 24 23  1  0  0  0  0
 25 21  1  0  0  0  0
 26 24  1  0  0  0  0
 27 25  2  0  0  0  0
 28 25  1  0  0  0  0
M  END
>  <MODEL>
7

>  <REMARK>
 VINA RESULT:      -8.4      1.678      2.538
  Name = 
  5 active torsions:
  status: ('A' for Active; 'I' for Inactive)
    1  A    between atoms: C_8  and  C_11
    2  A    between atoms: C_8  and  C_25
    3  A    between atoms: C_12  and  C_13
    4  A    between atoms: C_13  and  N_18
    5  A    between atoms: N_18  and  C_25
                            x       y       z     vdW  Elec       q    Type
                         _______ _______ _______ _____ _____    ______ ____

>  <TORSDO>
F 5

$$$$
=
 OpenBabel10232408393D

 28 31  0  0  1  0  0  0  0  0999 V2000
  188.7530  177.8300  146.8380 N   0  0  0  0  0  0  0  0  0  0  0  0
  190.2820  176.9980  141.0060 N   0  0  0  0  0  0  0  0  0  0  0  0
  189.2490  177.6540  140.4140 C   0  0  0  0  0  3  0  0  0  0  0  0
  190.3920  176.9100  142.3590 C   0  0  0  0  0  0  0  0  0  0  0  0
  189.4180  177.5080  143.1900 C   0  0  0  0  0  0  0  0  0  0  0  0
  187.7320  178.3870  147.6820 C   0  0  0  0  0  0  0  0  0  0  0  0
  190.6590  176.7060  145.1220 C   0  0  0  0  0  0  0  0  0  0  0  0
  189.5520  177.4030  144.5900 C   0  0  0  0  0  0  0  0  0  0  0  0
  187.8260  178.2840  148.9370 O   0  0  0  0  0  0  0  0  0  0  0  0
  188.2630  178.2610  141.1930 C   0  0  0  0  0  3  0  0  0  0  0  0
  188.3490  178.1870  142.5840 C   0  0  0  0  0  3  0  0  0  0  0  0
  189.9190  177.1850  147.4540 C   0  0  0  0  0  2  0  0  0  0  0  0
  190.8470  176.5780  146.4380 C   0  0  0  0  0  3  0  0  0  0  0  0
  191.5890  176.1300  144.2530 C   0  0  0  0  0  3  0  0  0  0  0  0
  188.6390  177.9400  145.4110 C   0  0  0  0  0  3  0  0  0  0  0  0
  191.4390  176.2420  142.9080 N   0  0  0  0  0  0  0  0  0  0  0  0
  185.9760  180.0150  148.0390 N   0  0  0  0  0  1  0  0  0  0  0  0
  186.5360  179.0670  147.0900 C   0  0  2  0  0  3  0  0  0  0  0  0
  185.4890  178.0390  146.6970 C   0  0  0  0  0  2  0  0  0  0  0  0
  184.5210  178.6390  145.7970 N   0  0  0  0  0  2  0  0  0  0  0  0
  185.0180  178.4270  144.4490 C   0  0  0  0  0  2  0  0  0  0  0  0
  183.0880  178.5980  141.2000 C   0  0  0  0  0  3  0  0  0  0  0  0
  181.5880  178.9560  143.0250 N   0  0  0  0  0  0  0  0  0  0  0  0
  181.8030  178.8510  141.6850 C   0  0  0  0  0  0  0  0  0  0  0  0
  183.9000  178.5560  143.4750 C   0  0  0  0  0  0  0  0  0  0  0  0
  180.6690  179.0070  140.7380 C   0  0  0  0  0  1  0  0  0  0  0  0
  184.1420  178.4520  142.1040 C   0  0  0  0  0  3  0  0  0  0  0  0
  182.6020  178.8180  143.9230 C   0  0  0  0  0  3  0  0  0  0  0  0
  1 12  1  0  0  0  0
  1  6  1  0  0  0  0
  2  4  2  0  0  0  0
  3  2  1  0  0  0  0
  3 10  2  0  0  0  0
  4 16  1  0  0  0  0
  4  5  1  0  0  0  0
  5  8  1  0  0  0  0
  6  9  2  0  0  0  0
  7 13  2  0  0  0  0
  8  7  1  0  0  0  0
  8 15  2  0  0  0  0
 10 11  1  0  0  0  0
 11  5  2  0  0  0  0
 13 12  1  0  0  0  0
 14  7  1  0  0  0  0
 15  1  1  0  0  0  0
 16 14  2  0  0  0  0
 18  6  1  0  0  0  0
 18 17  1  1  0  0  0
 19 18  1  0  0  0  0
 20 19  1  0  0  0  0
 21 20  1  0  0  0  0
 22 24  2  0  0  0  0
 22 27  1  0  0  0  0
 23 28  2  0  0  0  0
 24 23  1  0  0  0  0
 25 28  1  0  0  0  0
 25 21  1  0  0  0  0
 26 24  1  0  0  0  0
 27 25  2  0  0  0  0
M  END
>  <MODEL>
8

>  <REMARK>
 VINA RESULT:      -8.4      1.832      5.960
  Name = 
  5 active torsions:
  status: ('A' for Active; 'I' for Inactive)
    1  A    between atoms: C_8  and  C_11
    2  A    between atoms: C_8  and  C_25
    3  A    between atoms: C_12  and  C_13
    4  A    between atoms: C_13  and  N_18
    5  A    between atoms: N_18  and  C_25
                            x       y       z     vdW  Elec       q    Type
                         _______ _______ _______ _____ _____    ______ ____

>  <TORSDO>
F 5

$$$$
=
 OpenBabel10232408393D

 28 31  0  0  1  0  0  0  0  0999 V2000
  186.1830  178.5900  140.7670 N   0  0  0  0  0  0  0  0  0  0  0  0
  184.6320  178.5280  146.6520 N   0  0  0  0  0  0  0  0  0  0  0  0
  185.8650  178.3580  147.2010 C   0  0  0  0  0  3  0  0  0  0  0  0
  184.4530  178.6120  145.3060 C   0  0  0  0  0  0  0  0  0  0  0  0
  185.5640  178.5240  144.4370 C   0  0  0  0  0  0  0  0  0  0  0  0
  187.3030  178.4410  139.8800 C   0  0  0  0  0  0  0  0  0  0  0  0
  184.0410  178.7930  142.5600 C   0  0  0  0  0  0  0  0  0  0  0  0
  185.3550  178.6130  143.0450 C   0  0  0  0  0  0  0  0  0  0  0  0
  187.1310  178.4980  138.6310 O   0  0  0  0  0  0  0  0  0  0  0  0
  186.9910  178.2660  146.3830 C   0  0  0  0  0  3  0  0  0  0  0  0
  186.8390  178.3490  144.9980 C   0  0  0  0  0  3  0  0  0  0  0  0
  184.8530  178.8520  140.2030 C   0  0  0  0  0  2  0  0  0  0  0  0
  183.7780  178.8940  141.2540 C   0  0  0  0  0  3  0  0  0  0  0  0
  182.9800  178.8690  143.4650 C   0  0  0  0  0  3  0  0  0  0  0  0
  186.3800  178.5140  142.1870 C   0  0  0  0  0  3  0  0  0  0  0  0
  183.2050  178.7790  144.8010 N   0  0  0  0  0  0  0  0  0  0  0  0
  189.5360  177.6490  139.3770 N   0  0  0  0  0  1  0  0  0  0  0  0
  188.6780  178.1880  140.4200 C   0  0  2  0  0  3  0  0  0  0  0  0
  188.6120  177.2260  141.5930 C   0  0  0  0  0  2  0  0  0  0  0  0
  189.6990  177.4970  142.5160 N   0  0  0  0  0  2  0  0  0  0  0  0
  190.4390  176.2560  142.6660 C   0  0  0  0  0  2  0  0  0  0  0  0
  191.0630  176.9520  146.3310 C   0  0  0  0  0  3  0  0  0  0  0  0
  192.3710  175.0700  145.6550 N   0  0  0  0  0  0  0  0  0  0  0  0
  191.9820  175.9410  146.6260 C   0  0  0  0  0  0  0  0  0  0  0  0
  190.9570  176.1450  144.0570 C   0  0  0  0  0  0  0  0  0  0  0  0
  192.5350  175.8180  147.9990 C   0  0  0  0  0  1  0  0  0  0  0  0
  190.5510  177.0530  145.0370 C   0  0  0  0  0  3  0  0  0  0  0  0
  191.8850  175.1520  144.3870 C   0  0  0  0  0  3  0  0  0  0  0  0
  1 15  1  0  0  0  0
  2  3  1  0  0  0  0
  4  2  2  0  0  0  0
  5 11  2  0  0  0  0
  5  4  1  0  0  0  0
  6 18  1  0  0  0  0
  6  1  1  0  0  0  0
  7  8  1  0  0  0  0
  7 14  1  0  0  0  0
  8  5  1  0  0  0  0
  9  6  2  0  0  0  0
 10  3  2  0  0  0  0
 11 10  1  0  0  0  0
 12  1  1  0  0  0  0
 12 13  1  0  0  0  0
 13  7  2  0  0  0  0
 14 16  2  0  0  0  0
 15  8  2  0  0  0  0
 16  4  1  0  0  0  0
 18 17  1  6  0  0  0
 18 19  1  0  0  0  0
 19 20  1  0  0  0  0
 20 21  1  0  0  0  0
 21 25  1  0  0  0  0
 22 24  1  0  0  0  0
 23 24  2  0  0  0  0
 24 26  1  0  0  0  0
 25 28  2  0  0  0  0
 25 27  1  0  0  0  0
 27 22  2  0  0  0  0
 28 23  1  0  0  0  0
M  END
>  <MODEL>
9

>  <REMARK>
 VINA RESULT:      -8.3      2.433      6.004
  Name = 
  5 active torsions:
  status: ('A' for Active; 'I' for Inactive)
    1  A    between atoms: C_8  and  C_11
    2  A    between atoms: C_8  and  C_25
    3  A    between atoms: C_12  and  C_13
    4  A    between atoms: C_13  and  N_18
    5  A    between atoms: N_18  and  C_25
                            x       y       z     vdW  Elec       q    Type
                         _______ _______ _______ _____ _____    ______ ____

>  <TORSDO>
F 5

$$$$
