=
 OpenBabel10232408263D

 45 47  0  0  1  0  0  0  0  0999 V2000
  188.9850  176.5500  140.6350 C   0  0  0  0  0  3  0  0  0  0  0  0
  188.5210  178.7580  140.3110 N   0  0  0  0  0  0  0  0  0  0  0  0
  189.4240  176.8980  139.2500 C   0  0  1  0  0  3  0  0  0  0  0  0
  189.0670  178.3480  139.2160 C   0  0  0  0  0  0  0  0  0  0  0  0
  188.4820  177.6460  141.1960 C   0  0  0  0  0  0  0  0  0  0  0  0
  186.9980  177.8660  145.1950 C   0  0  0  0  0  3  0  0  0  0  0  0
  188.3290  177.5080  144.9620 C   0  0  0  0  0  0  0  0  0  0  0  0
  188.7830  177.4450  143.6420 C   0  0  0  0  0  3  0  0  0  0  0  0
  186.1730  178.1470  144.1530 N   0  0  0  0  0  0  0  0  0  0  0  0
  187.9310  177.7380  142.5700 C   0  0  0  0  0  0  0  0  0  0  0  0
  185.6590  178.3890  141.8280 N   0  0  0  0  0  1  0  0  0  0  0  0
  186.5940  178.0960  142.8620 C   0  0  0  0  0  0  0  0  0  0  0  0
  190.6370  177.0640  145.8540 N   0  0  0  0  0  2  0  0  0  0  0  0
  189.2330  177.2030  146.0850 C   0  0  0  0  0  0  0  0  0  0  0  0
  188.7680  177.0630  147.2500 O   0  0  0  0  0  0  0  0  0  0  0  0
  191.5670  176.7570  146.9290 C   0  0  0  0  0  2  0  0  0  0  0  0
  192.2180  175.4150  146.6620 C   0  0  0  0  0  1  0  0  0  0  0  0
  190.8990  176.6880  139.0930 C   0  0  0  0  0  0  0  0  0  0  0  0
  191.3740  175.8730  138.0240 N   0  0  0  0  0  2  0  0  0  0  0  0
  191.7140  177.2080  139.9050 O   0  0  0  0  0  0  0  0  0  0  0  0
  192.5950  175.7170  135.5390 O   0  0  0  0  0  0  0  0  0  0  0  0
  194.9970  174.1980  138.4750 O   0  0  0  0  0  0  0  0  0  0  0  0
  193.3210  175.5270  136.5540 C   0  0  0  0  0  0  0  0  0  0  0  0
  194.7190  175.2270  136.3910 N   0  0  0  0  0  0  0  0  0  0  0  0
  196.9610  174.9630  137.4890 N   0  0  0  0  0  0  0  0  0  0  0  0
  192.7420  175.6220  137.8580 N   0  0  0  0  0  2  0  0  0  0  0  0
  195.2840  175.2570  135.0470 C   0  0  0  0  0  1  0  0  0  0  0  0
  197.5400  175.8170  136.6040 O   0  0  0  0  0  1  0  0  0  0  0  0
  195.5350  174.7810  137.4940 C   0  0  0  0  0  0  0  0  0  0  0  0
  198.0530  175.1510  139.5280 C   0  0  0  0  0  1  0  0  0  0  0  0
  199.0090  173.9200  137.7710 C   0  0  0  0  0  1  0  0  0  0  0  0
  197.7510  174.2580  138.4170 N   0  0  0  0  0  0  0  0  0  0  0  0
  189.2430  179.2310  138.0260 C   0  0  0  0  0  2  0  0  0  0  0  0
  188.8970  178.4710  136.7560 C   0  0  0  0  0  2  0  0  0  0  0  0
  187.3940  178.4820  136.5260 C   0  0  0  0  0  2  0  0  0  0  0  0
  186.3150  176.5480  137.1410 N   0  0  0  0  0  2  0  0  0  0  0  0
  186.5740  175.1170  137.0080 C   0  0  2  0  0  3  0  0  0  0  0  0
  187.8160  174.9810  136.1580 C   0  0  0  0  0  2  0  0  0  0  0  0
  186.9420  177.1820  136.0540 N   0  0  0  0  0  0  0  0  0  0  0  0
  188.1250  176.3940  135.7450 C   0  0  0  0  0  2  0  0  0  0  0  0
  185.3850  174.4170  136.3380 C   0  0  1  0  0  3  0  0  0  0  0  0
  185.8310  173.6450  135.1040 C   0  0  0  0  0  1  0  0  0  0  0  0
  184.6860  173.4900  137.2830 C   0  0  0  0  0  0  0  0  0  0  0  0
  185.4100  172.8550  138.2820 O   0  0  0  0  0  1  0  0  0  0  0  0
  183.4480  173.2780  137.1760 O   0  0  0  0  0  0  0  0  0  0  0  0
  1  5  2  0  0  0  0
  2  5  1  0  0  0  0
  3 18  1  1  0  0  0
  3  1  1  0  0  0  0
  4  3  1  0  0  0  0
  4  2  2  0  0  0  0
  5 10  1  0  0  0  0
  7  6  1  0  0  0  0
  7 14  1  0  0  0  0
  8  7  2  0  0  0  0
  9  6  2  0  0  0  0
 10 12  2  0  0  0  0
 10  8  1  0  0  0  0
 11 12  1  0  0  0  0
 12  9  1  0  0  0  0
 13 14  1  0  0  0  0
 13 16  1  0  0  0  0
 14 15  2  0  0  0  0
 17 16  1  0  0  0  0
 18 20  2  0  0  0  0
 19 18  1  0  0  0  0
 21 23  2  0  0  0  0
 23 26  1  0  0  0  0
 24 23  1  0  0  0  0
 24 29  1  0  0  0  0
 25 29  1  0  0  0  0
 25 32  1  0  0  0  0
 26 19  1  0  0  0  0
 27 24  1  0  0  0  0
 28 25  1  0  0  0  0
 29 22  2  0  0  0  0
 31 32  1  0  0  0  0
 32 30  1  0  0  0  0
 33  4  1  0  0  0  0
 34 33  1  0  0  0  0
 35 34  1  0  0  0  0
 37 41  1  6  0  0  0
 37 36  1  0  0  0  0
 38 37  1  0  0  0  0
 39 35  1  0  0  0  0
 39 36  1  0  0  0  0
 40 39  1  0  0  0  0
 40 38  1  0  0  0  0
 41 42  1  6  0  0  0
 41 43  1  0  0  0  0
 43 44  1  0  0  0  0
 45 43  2  0  0  0  0
M  END
>  <MODEL>
1

>  <REMARK>
 VINA RESULT:      -7.8      0.000      0.000
  Name = 
  12 active torsions:
  status: ('A' for Active; 'I' for Inactive)
    1  A    between atoms: C_4  and  C_30
    2  A    between atoms: C_8  and  C_33
    3  A    between atoms: C_9  and  C_20
    4  A    between atoms: N_11  and  N_25
    5  A    between atoms: N_12  and  C_29
    6  A    between atoms: N_15  and  N_22
    7  A    between atoms: C_16  and  C_34
    8  A    between atoms: C_16  and  C_35
    9  A    between atoms: C_20  and  C_23
   10  A    between atoms: C_24  and  C_37
   11  A    between atoms: C_34  and  C_38
   12  A    between atoms: C_38  and  N_43
                            x       y       z     vdW  Elec       q    Type
                         _______ _______ _______ _____ _____    ______ ____

>  <TORSDO>
F 12

$$$$
=
 OpenBabel10232408263D

 45 47  0  0  1  0  0  0  0  0999 V2000
  189.1730  176.4480  141.1940 C   0  0  0  0  0  3  0  0  0  0  0  0
  188.5800  178.6210  140.8430 N   0  0  0  0  0  0  0  0  0  0  0  0
  189.4320  176.7530  139.7550 C   0  0  1  0  0  3  0  0  0  0  0  0
  189.0120  178.1860  139.7080 C   0  0  0  0  0  0  0  0  0  0  0  0
  188.6910  177.5460  141.7680 C   0  0  0  0  0  0  0  0  0  0  0  0
  187.4580  177.9600  145.8360 C   0  0  0  0  0  3  0  0  0  0  0  0
  186.5360  178.1520  144.8030 C   0  0  0  0  0  0  0  0  0  0  0  0
  186.9720  178.0090  143.4830 C   0  0  0  0  0  3  0  0  0  0  0  0
  188.7470  177.6390  145.5520 N   0  0  0  0  0  0  0  0  0  0  0  0
  188.3000  177.6760  143.1930 C   0  0  0  0  0  0  0  0  0  0  0  0
  190.5630  177.1690  144.0640 N   0  0  0  0  0  1  0  0  0  0  0  0
  189.1910  177.4910  144.2760 C   0  0  0  0  0  0  0  0  0  0  0  0
  184.1510  178.4470  144.0650 N   0  0  0  0  0  2  0  0  0  0  0  0
  185.1350  178.4990  145.1010 C   0  0  0  0  0  0  0  0  0  0  0  0
  184.8050  178.8440  146.2690 O   0  0  0  0  0  0  0  0  0  0  0  0
  182.7590  178.7880  144.3090 C   0  0  0  0  0  2  0  0  0  0  0  0
  182.0610  179.0280  142.9870 C   0  0  0  0  0  1  0  0  0  0  0  0
  190.8880  176.5930  139.4340 C   0  0  0  0  0  0  0  0  0  0  0  0
  191.2780  175.6560  138.4330 N   0  0  0  0  0  2  0  0  0  0  0  0
  191.7610  177.2630  140.0510 O   0  0  0  0  0  0  0  0  0  0  0  0
  192.2730  175.7690  135.8460 O   0  0  0  0  0  0  0  0  0  0  0  0
  194.9440  174.0140  138.3920 O   0  0  0  0  0  0  0  0  0  0  0  0
  193.0890  175.4940  136.7690 C   0  0  0  0  0  0  0  0  0  0  0  0
  194.4690  175.2380  136.4540 N   0  0  0  0  0  0  0  0  0  0  0  0
  196.8040  174.9110  137.3180 N   0  0  0  0  0  0  0  0  0  0  0  0
  192.6280  175.4490  138.1220 N   0  0  0  0  0  2  0  0  0  0  0  0
  194.9110  175.4120  135.0760 C   0  0  0  0  0  1  0  0  0  0  0  0
  197.2920  175.8590  136.4760 O   0  0  0  0  0  1  0  0  0  0  0  0
  195.3850  174.7020  137.4310 C   0  0  0  0  0  0  0  0  0  0  0  0
  198.1890  174.9670  139.1790 C   0  0  0  0  0  1  0  0  0  0  0  0
  198.8120  173.7600  137.2640 C   0  0  0  0  0  1  0  0  0  0  0  0
  197.6810  174.1340  138.0980 N   0  0  0  0  0  0  0  0  0  0  0  0
  189.0110  179.0230  138.4730 C   0  0  0  0  0  2  0  0  0  0  0  0
  188.3400  178.2730  137.3340 C   0  0  0  0  0  2  0  0  0  0  0  0
  186.8290  178.3060  137.4960 C   0  0  0  0  0  2  0  0  0  0  0  0
  187.0180  176.1160  136.8240 N   0  0  0  0  0  2  0  0  0  0  0  0
  186.0940  175.0670  136.4030 C   0  0  2  0  0  3  0  0  0  0  0  0
  184.7000  175.6200  136.5870 C   0  0  0  0  0  2  0  0  0  0  0  0
  186.3100  176.9620  137.6960 N   0  0  0  0  0  0  0  0  0  0  0  0
  184.9270  176.9550  137.2430 C   0  0  0  0  0  2  0  0  0  0  0  0
  186.2890  173.8070  137.2550 C   0  0  1  0  0  3  0  0  0  0  0  0
  184.9520  173.1690  137.5990 C   0  0  0  0  0  1  0  0  0  0  0  0
  187.1610  172.8030  136.5650 C   0  0  0  0  0  0  0  0  0  0  0  0
  187.8110  171.8310  137.3130 O   0  0  0  0  0  1  0  0  0  0  0  0
  187.3130  172.8360  135.3140 O   0  0  0  0  0  0  0  0  0  0  0  0
  1  5  2  0  0  0  0
  2  5  1  0  0  0  0
  3 18  1  1  0  0  0
  3  1  1  0  0  0  0
  4  3  1  0  0  0  0
  4  2  2  0  0  0  0
  5 10  1  0  0  0  0
  7 14  1  0  0  0  0
  7  6  2  0  0  0  0
  8  7  1  0  0  0  0
  9  6  1  0  0  0  0
 10  8  2  0  0  0  0
 10 12  1  0  0  0  0
 11 12  1  0  0  0  0
 12  9  2  0  0  0  0
 13 16  1  0  0  0  0
 13 14  1  0  0  0  0
 14 15  2  0  0  0  0
 17 16  1  0  0  0  0
 18 20  2  0  0  0  0
 19 18  1  0  0  0  0
 21 23  2  0  0  0  0
 23 26  1  0  0  0  0
 24 23  1  0  0  0  0
 24 29  1  0  0  0  0
 25 29  1  0  0  0  0
 25 32  1  0  0  0  0
 26 19  1  0  0  0  0
 27 24  1  0  0  0  0
 28 25  1  0  0  0  0
 29 22  2  0  0  0  0
 31 32  1  0  0  0  0
 32 30  1  0  0  0  0
 33  4  1  0  0  0  0
 34 35  1  0  0  0  0
 34 33  1  0  0  0  0
 35 39  1  0  0  0  0
 36 39  1  0  0  0  0
 37 38  1  0  0  0  0
 37 36  1  0  0  0  0
 37 41  1  1  0  0  0
 38 40  1  0  0  0  0
 40 39  1  0  0  0  0
 41 42  1  6  0  0  0
 43 41  1  0  0  0  0
 43 44  1  0  0  0  0
 45 43  2  0  0  0  0
M  END
>  <MODEL>
2

>  <REMARK>
 VINA RESULT:      -7.7      1.650      3.119
  Name = 
  12 active torsions:
  status: ('A' for Active; 'I' for Inactive)
    1  A    between atoms: C_4  and  C_30
    2  A    between atoms: C_8  and  C_33
    3  A    between atoms: C_9  and  C_20
    4  A    between atoms: N_11  and  N_25
    5  A    between atoms: N_12  and  C_29
    6  A    between atoms: N_15  and  N_22
    7  A    between atoms: C_16  and  C_34
    8  A    between atoms: C_16  and  C_35
    9  A    between atoms: C_20  and  C_23
   10  A    between atoms: C_24  and  C_37
   11  A    between atoms: C_34  and  C_38
   12  A    between atoms: C_38  and  N_43
                            x       y       z     vdW  Elec       q    Type
                         _______ _______ _______ _____ _____    ______ ____

>  <TORSDO>
F 12

$$$$
=
 OpenBabel10232408263D

 45 47  0  0  1  0  0  0  0  0999 V2000
  189.0840  178.5780  140.2240 C   0  0  0  0  0  3  0  0  0  0  0  0
  189.8410  176.4310  140.1160 N   0  0  0  0  0  0  0  0  0  0  0  0
  189.1990  178.2190  138.7780 C   0  0  1  0  0  3  0  0  0  0  0  0
  189.6810  176.8100  138.8930 C   0  0  0  0  0  0  0  0  0  0  0  0
  189.4590  177.5240  140.9420 C   0  0  0  0  0  0  0  0  0  0  0  0
  189.4470  177.3600  145.2090 C   0  0  0  0  0  3  0  0  0  0  0  0
  188.2550  177.5860  144.5160 C   0  0  0  0  0  0  0  0  0  0  0  0
  188.2930  177.6330  143.1190 C   0  0  0  0  0  3  0  0  0  0  0  0
  190.6120  177.1890  144.5320 N   0  0  0  0  0  0  0  0  0  0  0  0
  189.4940  177.4550  142.4230 C   0  0  0  0  0  0  0  0  0  0  0  0
  191.9370  177.0560  142.5420 N   0  0  0  0  0  1  0  0  0  0  0  0
  190.6710  177.2280  143.1740 C   0  0  0  0  0  0  0  0  0  0  0  0
  185.8960  178.4490  144.6130 N   0  0  0  0  0  2  0  0  0  0  0  0
  186.9860  177.7700  145.2410 C   0  0  0  0  0  0  0  0  0  0  0  0
  186.8620  177.3310  146.4180 O   0  0  0  0  0  0  0  0  0  0  0  0
  184.6270  178.6610  145.2920 C   0  0  0  0  0  2  0  0  0  0  0  0
  183.5730  179.0500  144.2760 C   0  0  0  0  0  1  0  0  0  0  0  0
  187.8610  178.2940  138.1070 C   0  0  0  0  0  0  0  0  0  0  0  0
  186.6860  178.3740  138.9100 N   0  0  0  0  0  2  0  0  0  0  0  0
  187.7700  178.2690  136.8480 O   0  0  0  0  0  0  0  0  0  0  0  0
  184.5510  179.7490  140.0240 O   0  0  0  0  0  0  0  0  0  0  0  0
  183.2990  177.1520  137.1290 O   0  0  0  0  0  0  0  0  0  0  0  0
  184.3370  179.1170  138.9530 C   0  0  0  0  0  0  0  0  0  0  0  0
  183.0210  179.1170  138.3700 N   0  0  0  0  0  0  0  0  0  0  0  0
  181.5950  178.5510  136.3820 N   0  0  0  0  0  0  0  0  0  0  0  0
  185.4120  178.4140  138.3270 N   0  0  0  0  0  2  0  0  0  0  0  0
  181.9890  179.9440  138.9830 C   0  0  0  0  0  1  0  0  0  0  0  0
  181.0850  179.8100  136.3390 O   0  0  0  0  0  1  0  0  0  0  0  0
  182.6710  178.2350  137.2830 C   0  0  0  0  0  0  0  0  0  0  0  0
  180.5430  178.1880  134.3460 C   0  0  0  0  0  1  0  0  0  0  0  0
  179.9820  176.8980  136.2250 C   0  0  0  0  0  1  0  0  0  0  0  0
  181.0850  177.5480  135.5370 N   0  0  0  0  0  0  0  0  0  0  0  0
  190.0210  175.9400  137.7300 C   0  0  0  0  0  2  0  0  0  0  0  0
  191.1640  175.0060  138.0930 C   0  0  0  0  0  2  0  0  0  0  0  0
  192.5000  175.6460  137.7480 C   0  0  0  0  0  2  0  0  0  0  0  0
  194.7750  175.3540  137.6030 N   0  0  0  0  0  2  0  0  0  0  0  0
  195.6690  174.4200  136.9240 C   0  0  2  0  0  3  0  0  0  0  0  0
  194.7910  173.3750  136.2760 C   0  0  0  0  0  2  0  0  0  0  0  0
  193.5720  174.6680  137.8460 N   0  0  0  0  0  0  0  0  0  0  0  0
  193.4080  173.7260  136.7490 C   0  0  0  0  0  2  0  0  0  0  0  0
  196.6270  173.7680  137.9300 C   0  0  1  0  0  3  0  0  0  0  0  0
  197.1930  172.4670  137.3790 C   0  0  0  0  0  1  0  0  0  0  0  0
  197.7510  174.6870  138.2980 C   0  0  0  0  0  0  0  0  0  0  0  0
  197.6760  175.4250  139.4710 O   0  0  0  0  0  1  0  0  0  0  0  0
  198.7590  174.8010  137.5500 O   0  0  0  0  0  0  0  0  0  0  0  0
  1  5  2  0  0  0  0
  2  5  1  0  0  0  0
  3 18  1  1  0  0  0
  3  4  1  0  0  0  0
  3  1  1  0  0  0  0
  4  2  2  0  0  0  0
  5 10  1  0  0  0  0
  7  6  2  0  0  0  0
  7 14  1  0  0  0  0
  8  7  1  0  0  0  0
  9  6  1  0  0  0  0
 10  8  2  0  0  0  0
 10 12  1  0  0  0  0
 11 12  1  0  0  0  0
 12  9  2  0  0  0  0
 13 14  1  0  0  0  0
 13 16  1  0  0  0  0
 14 15  2  0  0  0  0
 17 16  1  0  0  0  0
 18 19  1  0  0  0  0
 20 18  2  0  0  0  0
 22 29  2  0  0  0  0
 23 21  2  0  0  0  0
 24 23  1  0  0  0  0
 24 27  1  0  0  0  0
 25 29  1  0  0  0  0
 26 19  1  0  0  0  0
 26 23  1  0  0  0  0
 28 25  1  0  0  0  0
 29 24  1  0  0  0  0
 30 32  1  0  0  0  0
 32 31  1  0  0  0  0
 32 25  1  0  0  0  0
 33 34  1  0  0  0  0
 33  4  1  0  0  0  0
 35 39  1  0  0  0  0
 35 34  1  0  0  0  0
 36 39  1  0  0  0  0
 37 36  1  0  0  0  0
 37 41  1  1  0  0  0
 38 40  1  0  0  0  0
 38 37  1  0  0  0  0
 40 39  1  0  0  0  0
 41 42  1  6  0  0  0
 41 43  1  0  0  0  0
 43 44  1  0  0  0  0
 45 43  2  0  0  0  0
M  END
>  <MODEL>
3

>  <REMARK>
 VINA RESULT:      -7.6      3.267      9.502
  Name = 
  12 active torsions:
  status: ('A' for Active; 'I' for Inactive)
    1  A    between atoms: C_4  and  C_30
    2  A    between atoms: C_8  and  C_33
    3  A    between atoms: C_9  and  C_20
    4  A    between atoms: N_11  and  N_25
    5  A    between atoms: N_12  and  C_29
    6  A    between atoms: N_15  and  N_22
    7  A    between atoms: C_16  and  C_34
    8  A    between atoms: C_16  and  C_35
    9  A    between atoms: C_20  and  C_23
   10  A    between atoms: C_24  and  C_37
   11  A    between atoms: C_34  and  C_38
   12  A    between atoms: C_38  and  N_43
                            x       y       z     vdW  Elec       q    Type
                         _______ _______ _______ _____ _____    ______ ____

>  <TORSDO>
F 12

$$$$
=
 OpenBabel10232408263D

 45 47  0  0  1  0  0  0  0  0999 V2000
  184.9920  178.9840  140.6110 C   0  0  0  0  0  3  0  0  0  0  0  0
  184.5720  177.9340  142.5890 N   0  0  0  0  0  0  0  0  0  0  0  0
  186.2120  179.1310  141.4600 C   0  0  1  0  0  3  0  0  0  0  0  0
  185.7760  178.3900  142.6810 C   0  0  0  0  0  0  0  0  0  0  0  0
  184.0910  178.2920  141.3000 C   0  0  0  0  0  0  0  0  0  0  0  0
  180.2390  177.1730  139.8330 C   0  0  0  0  0  3  0  0  0  0  0  0
  181.3920  176.6920  139.2060 C   0  0  0  0  0  0  0  0  0  0  0  0
  182.6370  177.0770  139.7110 C   0  0  0  0  0  3  0  0  0  0  0  0
  180.3370  177.9950  140.9100 N   0  0  0  0  0  0  0  0  0  0  0  0
  182.7350  177.9220  140.8230 C   0  0  0  0  0  0  0  0  0  0  0  0
  181.5520  179.2570  142.5420 N   0  0  0  0  0  1  0  0  0  0  0  0
  181.5370  178.3790  141.4200 C   0  0  0  0  0  0  0  0  0  0  0  0
  180.5000  174.6130  138.1090 N   0  0  0  0  0  2  0  0  0  0  0  0
  181.2960  175.7980  138.0390 C   0  0  0  0  0  0  0  0  0  0  0  0
  181.9190  176.0790  136.9770 O   0  0  0  0  0  0  0  0  0  0  0  0
  180.3810  173.6980  136.9860 C   0  0  0  0  0  2  0  0  0  0  0  0
  181.3610  172.5570  137.1610 C   0  0  0  0  0  1  0  0  0  0  0  0
  187.3930  178.4780  140.8080 C   0  0  0  0  0  0  0  0  0  0  0  0
  187.4600  178.4290  139.3850 N   0  0  0  0  0  2  0  0  0  0  0  0
  188.3100  177.9610  141.5050 O   0  0  0  0  0  0  0  0  0  0  0  0
  187.1240  176.3320  137.6020 O   0  0  0  0  0  0  0  0  0  0  0  0
  191.0210  176.6700  138.7840 O   0  0  0  0  0  0  0  0  0  0  0  0
  188.3060  176.7070  137.8390 C   0  0  0  0  0  0  0  0  0  0  0  0
  189.4120  176.0390  137.2050 N   0  0  0  0  0  0  0  0  0  0  0  0
  191.8740  176.0400  136.7120 N   0  0  0  0  0  0  0  0  0  0  0  0
  188.5290  177.8010  138.7320 N   0  0  0  0  0  2  0  0  0  0  0  0
  189.1260  175.0080  136.2150 C   0  0  0  0  0  1  0  0  0  0  0  0
  191.6480  175.8860  135.3810 O   0  0  0  0  0  1  0  0  0  0  0  0
  190.7760  176.2740  137.6110 C   0  0  0  0  0  0  0  0  0  0  0  0
  194.1030  176.3790  136.1620 C   0  0  0  0  0  1  0  0  0  0  0  0
  193.4760  174.6010  137.5610 C   0  0  0  0  0  1  0  0  0  0  0  0
  193.1850  175.9840  137.2220 N   0  0  0  0  0  0  0  0  0  0  0  0
  186.5990  178.2450  143.9170 C   0  0  0  0  0  2  0  0  0  0  0  0
  185.7820  177.5820  145.0140 C   0  0  0  0  0  2  0  0  0  0  0  0
  186.0690  178.2360  146.3560 C   0  0  0  0  0  2  0  0  0  0  0  0
  188.0790  177.1530  146.0930 N   0  0  0  0  0  2  0  0  0  0  0  0
  189.2310  176.8630  146.9420 C   0  0  2  0  0  3  0  0  0  0  0  0
  188.9920  177.5770  148.2520 C   0  0  0  0  0  2  0  0  0  0  0  0
  187.5030  178.3430  146.5730 N   0  0  0  0  0  0  0  0  0  0  0  0
  187.7290  178.3580  148.0100 C   0  0  0  0  0  2  0  0  0  0  0  0
  190.5220  177.3660  146.2840 C   0  0  1  0  0  3  0  0  0  0  0  0
  191.6900  176.4430  146.6000 C   0  0  0  0  0  1  0  0  0  0  0  0
  190.3720  177.4940  144.8000 C   0  0  0  0  0  0  0  0  0  0  0  0
  190.4100  176.3550  144.0060 O   0  0  0  0  0  0  0  0  0  0  0  0
  190.2180  178.6240  144.2640 O   0  0  0  0  0  1  0  0  0  0  0  0
  1  5  2  0  0  0  0
  1  3  1  0  0  0  0
  2  4  2  0  0  0  0
  3 18  1  6  0  0  0
  3  4  1  0  0  0  0
  4 33  1  0  0  0  0
  5  2  1  0  0  0  0
  6  9  1  0  0  0  0
  7  8  1  0  0  0  0
  7  6  2  0  0  0  0
  8 10  2  0  0  0  0
  9 12  2  0  0  0  0
 10  5  1  0  0  0  0
 10 12  1  0  0  0  0
 12 11  1  0  0  0  0
 14 13  1  0  0  0  0
 14  7  1  0  0  0  0
 15 14  2  0  0  0  0
 16 17  1  0  0  0  0
 16 13  1  0  0  0  0
 18 20  2  0  0  0  0
 19 18  1  0  0  0  0
 21 23  2  0  0  0  0
 23 26  1  0  0  0  0
 24 29  1  0  0  0  0
 24 23  1  0  0  0  0
 25 32  1  0  0  0  0
 25 29  1  0  0  0  0
 26 19  1  0  0  0  0
 27 24  1  0  0  0  0
 28 25  1  0  0  0  0
 29 22  2  0  0  0  0
 30 32  1  0  0  0  0
 32 31  1  0  0  0  0
 33 34  1  0  0  0  0
 34 35  1  0  0  0  0
 35 39  1  0  0  0  0
 36 39  1  0  0  0  0
 36 37  1  0  0  0  0
 37 41  1  6  0  0  0
 37 38  1  0  0  0  0
 39 40  1  0  0  0  0
 40 38  1  0  0  0  0
 41 42  1  6  0  0  0
 43 41  1  0  0  0  0
 44 43  2  0  0  0  0
 45 43  1  0  0  0  0
M  END
>  <MODEL>
4

>  <REMARK>
 VINA RESULT:      -7.4      3.073      8.415
  Name = 
  12 active torsions:
  status: ('A' for Active; 'I' for Inactive)
    1  A    between atoms: C_4  and  C_30
    2  A    between atoms: C_8  and  C_33
    3  A    between atoms: C_9  and  C_20
    4  A    between atoms: N_11  and  N_25
    5  A    between atoms: N_12  and  C_29
    6  A    between atoms: N_15  and  N_22
    7  A    between atoms: C_16  and  C_34
    8  A    between atoms: C_16  and  C_35
    9  A    between atoms: C_20  and  C_23
   10  A    between atoms: C_24  and  C_37
   11  A    between atoms: C_34  and  C_38
   12  A    between atoms: C_38  and  N_43
                            x       y       z     vdW  Elec       q    Type
                         _______ _______ _______ _____ _____    ______ ____

>  <TORSDO>
F 12

$$$$
=
 OpenBabel10232408263D

 45 47  0  0  1  0  0  0  0  0999 V2000
  190.8540  176.9130  137.8540 C   0  0  0  0  0  3  0  0  0  0  0  0
  189.2420  175.5550  136.9880 N   0  0  0  0  0  0  0  0  0  0  0  0
  189.5430  177.6050  138.0410 C   0  0  1  0  0  3  0  0  0  0  0  0
  188.6220  176.5910  137.4450 C   0  0  0  0  0  0  0  0  0  0  0  0
  190.6250  175.7500  137.2540 C   0  0  0  0  0  0  0  0  0  0  0  0
  193.6660  172.9150  136.2730 C   0  0  0  0  0  3  0  0  0  0  0  0
  193.7920  173.7070  137.4190 C   0  0  0  0  0  0  0  0  0  0  0  0
  192.7790  174.6250  137.7110 C   0  0  0  0  0  3  0  0  0  0  0  0
  192.5780  173.0410  135.4700 N   0  0  0  0  0  0  0  0  0  0  0  0
  191.6570  174.7510  136.8830 C   0  0  0  0  0  0  0  0  0  0  0  0
  190.4810  174.0060  134.8340 N   0  0  0  0  0  1  0  0  0  0  0  0
  191.5800  173.9250  135.7370 C   0  0  0  0  0  0  0  0  0  0  0  0
  195.6400  174.7460  138.7680 N   0  0  0  0  0  2  0  0  0  0  0  0
  194.9670  173.5760  138.2970 C   0  0  0  0  0  0  0  0  0  0  0  0
  195.3800  172.4320  138.6330 O   0  0  0  0  0  0  0  0  0  0  0  0
  196.8080  174.6680  139.6310 C   0  0  0  0  0  2  0  0  0  0  0  0
  198.0620  174.6880  138.7820 C   0  0  0  0  0  1  0  0  0  0  0  0
  189.2610  177.8210  139.4970 C   0  0  0  0  0  0  0  0  0  0  0  0
  189.7820  176.8960  140.4480 N   0  0  0  0  0  2  0  0  0  0  0  0
  188.5570  178.7970  139.8790 O   0  0  0  0  0  0  0  0  0  0  0  0
  191.7280  176.6260  142.4060 O   0  0  0  0  0  0  0  0  0  0  0  0
  187.9740  176.5100  144.0150 O   0  0  0  0  0  0  0  0  0  0  0  0
  190.5500  176.8670  142.7900 C   0  0  0  0  0  0  0  0  0  0  0  0
  190.2610  176.9740  144.1960 N   0  0  0  0  0  0  0  0  0  0  0  0
  188.5990  177.6190  145.9630 N   0  0  0  0  0  0  0  0  0  0  0  0
  189.5170  177.0400  141.8170 N   0  0  0  0  0  2  0  0  0  0  0  0
  191.3700  176.9060  145.1400 C   0  0  0  0  0  1  0  0  0  0  0  0
  189.5090  178.4140  146.5850 O   0  0  0  0  0  1  0  0  0  0  0  0
  188.9080  177.0220  144.6920 C   0  0  0  0  0  0  0  0  0  0  0  0
  186.4080  178.3800  146.0480 C   0  0  0  0  0  1  0  0  0  0  0  0
  187.4710  177.5860  147.9850 C   0  0  0  0  0  1  0  0  0  0  0  0
  187.3420  177.3820  146.5510 N   0  0  0  0  0  0  0  0  0  0  0  0
  187.1470  176.7690  137.3110 C   0  0  0  0  0  2  0  0  0  0  0  0
  186.5200  175.5120  136.7320 C   0  0  0  0  0  2  0  0  0  0  0  0
  185.0110  175.5390  136.9210 C   0  0  0  0  0  2  0  0  0  0  0  0
  183.9210  176.9470  138.3740 N   0  0  0  0  0  2  0  0  0  0  0  0
  182.8310  177.9130  138.2760 C   0  0  2  0  0  3  0  0  0  0  0  0
  182.4740  178.0140  136.8120 C   0  0  0  0  0  2  0  0  0  0  0  0
  184.5470  176.9030  137.1160 N   0  0  0  0  0  0  0  0  0  0  0  0
  183.5060  177.1570  136.1310 C   0  0  0  0  0  2  0  0  0  0  0  0
  183.2750  179.2790  138.8160 C   0  0  1  0  0  3  0  0  0  0  0  0
  182.1090  180.2550  138.8560 C   0  0  0  0  0  1  0  0  0  0  0  0
  183.8780  179.1630  140.1820 C   0  0  0  0  0  0  0  0  0  0  0  0
  185.2000  179.5380  140.3810 O   0  0  0  0  0  0  0  0  0  0  0  0
  183.2000  178.7240  141.1490 O   0  0  0  0  0  1  0  0  0  0  0  0
  1  3  1  0  0  0  0
  2  5  1  0  0  0  0
  2  4  2  0  0  0  0
  3 18  1  1  0  0  0
  4  3  1  0  0  0  0
  5  1  2  0  0  0  0
  6  7  1  0  0  0  0
  7  8  2  0  0  0  0
  7 14  1  0  0  0  0
  9 12  1  0  0  0  0
  9  6  2  0  0  0  0
 10  5  1  0  0  0  0
 10  8  1  0  0  0  0
 11 12  1  0  0  0  0
 12 10  2  0  0  0  0
 13 16  1  0  0  0  0
 14 15  2  0  0  0  0
 14 13  1  0  0  0  0
 17 16  1  0  0  0  0
 18 20  2  0  0  0  0
 18 19  1  0  0  0  0
 19 26  1  0  0  0  0
 21 23  2  0  0  0  0
 22 29  2  0  0  0  0
 23 24  1  0  0  0  0
 24 29  1  0  0  0  0
 24 27  1  0  0  0  0
 25 32  1  0  0  0  0
 25 28  1  0  0  0  0
 26 23  1  0  0  0  0
 29 25  1  0  0  0  0
 30 32  1  0  0  0  0
 32 31  1  0  0  0  0
 33  4  1  0  0  0  0
 34 35  1  0  0  0  0
 34 33  1  0  0  0  0
 35 39  1  0  0  0  0
 37 36  1  0  0  0  0
 37 41  1  6  0  0  0
 38 37  1  0  0  0  0
 39 36  1  0  0  0  0
 40 38  1  0  0  0  0
 40 39  1  0  0  0  0
 41 42  1  1  0  0  0
 41 43  1  0  0  0  0
 43 44  2  0  0  0  0
 43 45  1  0  0  0  0
M  END
>  <MODEL>
5

>  <REMARK>
 VINA RESULT:      -7.3      2.954      8.338
  Name = 
  12 active torsions:
  status: ('A' for Active; 'I' for Inactive)
    1  A    between atoms: C_4  and  C_30
    2  A    between atoms: C_8  and  C_33
    3  A    between atoms: C_9  and  C_20
    4  A    between atoms: N_11  and  N_25
    5  A    between atoms: N_12  and  C_29
    6  A    between atoms: N_15  and  N_22
    7  A    between atoms: C_16  and  C_34
    8  A    between atoms: C_16  and  C_35
    9  A    between atoms: C_20  and  C_23
   10  A    between atoms: C_24  and  C_37
   11  A    between atoms: C_34  and  C_38
   12  A    between atoms: C_38  and  N_43
                            x       y       z     vdW  Elec       q    Type
                         _______ _______ _______ _____ _____    ______ ____

>  <TORSDO>
F 12

$$$$
=
 OpenBabel10232408263D

 45 47  0  0  1  0  0  0  0  0999 V2000
  189.0850  178.4310  139.4170 C   0  0  0  0  0  3  0  0  0  0  0  0
  189.4920  176.1940  139.2650 N   0  0  0  0  0  0  0  0  0  0  0  0
  188.6300  177.9870  138.0650 C   0  0  1  0  0  3  0  0  0  0  0  0
  188.9500  176.5300  138.1430 C   0  0  0  0  0  0  0  0  0  0  0  0
  189.5650  177.3710  140.0600 C   0  0  0  0  0  0  0  0  0  0  0  0
  191.0580  177.3860  144.0610 C   0  0  0  0  0  3  0  0  0  0  0  0
  189.6800  177.3430  143.8300 C   0  0  0  0  0  0  0  0  0  0  0  0
  189.2240  177.3390  142.5080 C   0  0  0  0  0  3  0  0  0  0  0  0
  191.9270  177.4210  143.0180 N   0  0  0  0  0  0  0  0  0  0  0  0
  190.1220  177.3720  141.4350 C   0  0  0  0  0  0  0  0  0  0  0  0
  192.4830  177.4690  140.6890 N   0  0  0  0  0  1  0  0  0  0  0  0
  191.5060  177.4140  141.7250 C   0  0  0  0  0  0  0  0  0  0  0  0
  187.3720  177.7060  144.7570 N   0  0  0  0  0  2  0  0  0  0  0  0
  188.7290  177.3030  144.9540 C   0  0  0  0  0  0  0  0  0  0  0  0
  189.1140  176.9160  146.0920 O   0  0  0  0  0  0  0  0  0  0  0  0
  186.4000  177.6910  145.8380 C   0  0  0  0  0  2  0  0  0  0  0  0
  185.4160  178.8270  145.6450 C   0  0  0  0  0  1  0  0  0  0  0  0
  187.1590  178.2220  137.8990 C   0  0  0  0  0  0  0  0  0  0  0  0
  186.3950  178.6570  139.0220 N   0  0  0  0  0  2  0  0  0  0  0  0
  186.5960  178.0230  136.7870 O   0  0  0  0  0  0  0  0  0  0  0  0
  184.6660  178.4000  141.1750 O   0  0  0  0  0  0  0  0  0  0  0  0
  182.6320  178.4560  137.6310 O   0  0  0  0  0  0  0  0  0  0  0  0
  184.1580  178.6910  140.0560 C   0  0  0  0  0  0  0  0  0  0  0  0
  182.7340  178.8580  139.9350 N   0  0  0  0  0  0  0  0  0  0  0  0
  180.8140  179.6170  138.5070 N   0  0  0  0  0  0  0  0  0  0  0  0
  185.0120  178.8590  138.9210 N   0  0  0  0  0  2  0  0  0  0  0  0
  181.9220  178.7910  141.1440 C   0  0  0  0  0  1  0  0  0  0  0  0
  180.3330  180.4070  139.5020 O   0  0  0  0  0  1  0  0  0  0  0  0
  182.0870  178.9640  138.6500 C   0  0  0  0  0  0  0  0  0  0  0  0
  179.9880  178.0110  137.0490 C   0  0  0  0  0  1  0  0  0  0  0  0
  180.8210  180.0480  136.2320 C   0  0  0  0  0  1  0  0  0  0  0  0
  180.0760  179.4390  137.3210 N   0  0  0  0  0  0  0  0  0  0  0  0
  188.7440  175.5630  137.0270 C   0  0  0  0  0  2  0  0  0  0  0  0
  189.7590  174.4360  137.1190 C   0  0  0  0  0  2  0  0  0  0  0  0
  190.3860  174.1750  135.7580 C   0  0  0  0  0  2  0  0  0  0  0  0
  192.1980  174.1440  137.1720 N   0  0  0  0  0  2  0  0  0  0  0  0
  193.3450  175.0110  137.4220 C   0  0  2  0  0  3  0  0  0  0  0  0
  193.2920  176.1070  136.3840 C   0  0  0  0  0  2  0  0  0  0  0  0
  191.8310  174.3250  135.8260 N   0  0  0  0  0  0  0  0  0  0  0  0
  192.1440  175.7080  135.4990 C   0  0  0  0  0  2  0  0  0  0  0  0
  194.6530  174.2190  137.3010 C   0  0  1  0  0  3  0  0  0  0  0  0
  195.6680  174.9690  136.4510 C   0  0  0  0  0  1  0  0  0  0  0  0
  195.2450  173.9220  138.6440 C   0  0  0  0  0  0  0  0  0  0  0  0
  195.7970  174.9530  139.3930 O   0  0  0  0  0  1  0  0  0  0  0  0
  195.2530  172.7460  139.0980 O   0  0  0  0  0  0  0  0  0  0  0  0
  1  5  2  0  0  0  0
  2  5  1  0  0  0  0
  3 18  1  1  0  0  0
  3  4  1  0  0  0  0
  3  1  1  0  0  0  0
  4  2  2  0  0  0  0
  5 10  1  0  0  0  0
  7  6  1  0  0  0  0
  7 14  1  0  0  0  0
  8  7  2  0  0  0  0
  9  6  2  0  0  0  0
 10 12  2  0  0  0  0
 10  8  1  0  0  0  0
 11 12  1  0  0  0  0
 12  9  1  0  0  0  0
 13 14  1  0  0  0  0
 13 16  1  0  0  0  0
 14 15  2  0  0  0  0
 17 16  1  0  0  0  0
 18 19  1  0  0  0  0
 20 18  2  0  0  0  0
 22 29  2  0  0  0  0
 23 21  2  0  0  0  0
 24 23  1  0  0  0  0
 24 27  1  0  0  0  0
 25 29  1  0  0  0  0
 25 28  1  0  0  0  0
 26 19  1  0  0  0  0
 26 23  1  0  0  0  0
 29 24  1  0  0  0  0
 30 32  1  0  0  0  0
 31 32  1  0  0  0  0
 32 25  1  0  0  0  0
 33 34  1  0  0  0  0
 33  4  1  0  0  0  0
 35 39  1  0  0  0  0
 35 34  1  0  0  0  0
 36 37  1  0  0  0  0
 37 41  1  6  0  0  0
 38 37  1  0  0  0  0
 39 36  1  0  0  0  0
 40 39  1  0  0  0  0
 40 38  1  0  0  0  0
 41 42  1  6  0  0  0
 41 43  1  0  0  0  0
 43 45  2  0  0  0  0
 43 44  1  0  0  0  0
M  END
>  <MODEL>
6

>  <REMARK>
 VINA RESULT:      -7.2      3.433      9.245
  Name = 
  12 active torsions:
  status: ('A' for Active; 'I' for Inactive)
    1  A    between atoms: C_4  and  C_30
    2  A    between atoms: C_8  and  C_33
    3  A    between atoms: C_9  and  C_20
    4  A    between atoms: N_11  and  N_25
    5  A    between atoms: N_12  and  C_29
    6  A    between atoms: N_15  and  N_22
    7  A    between atoms: C_16  and  C_34
    8  A    between atoms: C_16  and  C_35
    9  A    between atoms: C_20  and  C_23
   10  A    between atoms: C_24  and  C_37
   11  A    between atoms: C_34  and  C_38
   12  A    between atoms: C_38  and  N_43
                            x       y       z     vdW  Elec       q    Type
                         _______ _______ _______ _____ _____    ______ ____

>  <TORSDO>
F 12

$$$$
=
 OpenBabel10232408263D

 45 47  0  0  1  0  0  0  0  0999 V2000
  189.0040  178.7070  140.3160 C   0  0  0  0  0  3  0  0  0  0  0  0
  189.9640  176.6510  140.0940 N   0  0  0  0  0  0  0  0  0  0  0  0
  189.1770  178.4520  138.8550 C   0  0  1  0  0  3  0  0  0  0  0  0
  189.7890  177.0910  138.8940 C   0  0  0  0  0  0  0  0  0  0  0  0
  189.4650  177.6490  140.9770 C   0  0  0  0  0  0  0  0  0  0  0  0
  189.3980  177.2280  145.2260 C   0  0  0  0  0  3  0  0  0  0  0  0
  188.2190  177.5160  144.5340 C   0  0  0  0  0  0  0  0  0  0  0  0
  188.2750  177.6470  143.1440 C   0  0  0  0  0  3  0  0  0  0  0  0
  190.5680  177.0780  144.5530 N   0  0  0  0  0  0  0  0  0  0  0  0
  189.4810  177.4900  142.4520 C   0  0  0  0  0  0  0  0  0  0  0  0
  191.9150  177.0430  142.5730 N   0  0  0  0  0  1  0  0  0  0  0  0
  190.6450  177.1980  143.2010 C   0  0  0  0  0  0  0  0  0  0  0  0
  185.9560  178.5870  144.7640 N   0  0  0  0  0  2  0  0  0  0  0  0
  186.9440  177.6780  145.2560 C   0  0  0  0  0  0  0  0  0  0  0  0
  186.7260  177.0170  146.3080 O   0  0  0  0  0  0  0  0  0  0  0  0
  184.6870  178.7860  145.4450 C   0  0  0  0  0  2  0  0  0  0  0  0
  183.5680  178.8180  144.4250 C   0  0  0  0  0  1  0  0  0  0  0  0
  187.8500  178.4430  138.1580 C   0  0  0  0  0  0  0  0  0  0  0  0
  186.6580  178.4060  138.9390 N   0  0  0  0  0  2  0  0  0  0  0  0
  187.7840  178.4490  136.8970 O   0  0  0  0  0  0  0  0  0  0  0  0
  184.5020  179.9150  139.8150 O   0  0  0  0  0  0  0  0  0  0  0  0
  183.3060  176.9470  137.2730 O   0  0  0  0  0  0  0  0  0  0  0  0
  184.3080  179.1430  138.8350 C   0  0  0  0  0  0  0  0  0  0  0  0
  183.0040  179.0620  138.2320 N   0  0  0  0  0  0  0  0  0  0  0  0
  181.6180  178.2290  136.3110 N   0  0  0  0  0  0  0  0  0  0  0  0
  185.3960  178.3640  138.3310 N   0  0  0  0  0  2  0  0  0  0  0  0
  181.9610  179.9620  138.7070 C   0  0  0  0  0  1  0  0  0  0  0  0
  181.1090  179.4690  136.0880 O   0  0  0  0  0  1  0  0  0  0  0  0
  182.6750  178.0400  137.2680 C   0  0  0  0  0  0  0  0  0  0  0  0
  180.5560  177.5990  134.3460 C   0  0  0  0  0  1  0  0  0  0  0  0
  180.0420  176.5340  136.3740 C   0  0  0  0  0  1  0  0  0  0  0  0
  181.1230  177.1200  135.5990 N   0  0  0  0  0  0  0  0  0  0  0  0
  190.2310  176.3320  137.6880 C   0  0  0  0  0  2  0  0  0  0  0  0
  189.5620  174.9680  137.6550 C   0  0  0  0  0  2  0  0  0  0  0  0
  188.7260  174.8180  136.3930 C   0  0  0  0  0  2  0  0  0  0  0  0
  187.1420  173.1550  136.3090 N   0  0  0  0  0  2  0  0  0  0  0  0
  185.7480  173.0580  135.8860 C   0  0  2  0  0  3  0  0  0  0  0  0
  185.3050  174.4590  135.5350 C   0  0  0  0  0  2  0  0  0  0  0  0
  187.3530  174.4810  136.7300 N   0  0  0  0  0  0  0  0  0  0  0  0
  186.4830  175.3130  135.9130 C   0  0  0  0  0  2  0  0  0  0  0  0
  184.8830  172.4880  137.0180 C   0  0  1  0  0  3  0  0  0  0  0  0
  184.1000  173.5920  137.7140 C   0  0  0  0  0  1  0  0  0  0  0  0
  183.9360  171.4420  136.5160 C   0  0  0  0  0  0  0  0  0  0  0  0
  182.5870  171.5330  136.8280 O   0  0  0  0  0  1  0  0  0  0  0  0
  184.3540  170.4780  135.8200 O   0  0  0  0  0  0  0  0  0  0  0  0
  1  5  2  0  0  0  0
  2  5  1  0  0  0  0
  3 18  1  6  0  0  0
  3  4  1  0  0  0  0
  3  1  1  0  0  0  0
  4  2  2  0  0  0  0
  5 10  1  0  0  0  0
  7  6  2  0  0  0  0
  7 14  1  0  0  0  0
  8  7  1  0  0  0  0
  9  6  1  0  0  0  0
 10  8  2  0  0  0  0
 10 12  1  0  0  0  0
 11 12  1  0  0  0  0
 12  9  2  0  0  0  0
 13 14  1  0  0  0  0
 13 16  1  0  0  0  0
 14 15  2  0  0  0  0
 17 16  1  0  0  0  0
 18 19  1  0  0  0  0
 20 18  2  0  0  0  0
 23 21  2  0  0  0  0
 24 27  1  0  0  0  0
 24 23  1  0  0  0  0
 25 29  1  0  0  0  0
 26 23  1  0  0  0  0
 26 19  1  0  0  0  0
 28 25  1  0  0  0  0
 29 22  2  0  0  0  0
 29 24  1  0  0  0  0
 30 32  1  0  0  0  0
 32 25  1  0  0  0  0
 32 31  1  0  0  0  0
 33  4  1  0  0  0  0
 34 33  1  0  0  0  0
 35 39  1  0  0  0  0
 35 34  1  0  0  0  0
 36 39  1  0  0  0  0
 37 36  1  0  0  0  0
 37 41  1  1  0  0  0
 38 37  1  0  0  0  0
 38 40  1  0  0  0  0
 40 39  1  0  0  0  0
 41 42  1  6  0  0  0
 43 44  1  0  0  0  0
 43 41  1  0  0  0  0
 45 43  2  0  0  0  0
M  END
>  <MODEL>
7

>  <REMARK>
 VINA RESULT:      -7.2      4.022      8.108
  Name = 
  12 active torsions:
  status: ('A' for Active; 'I' for Inactive)
    1  A    between atoms: C_4  and  C_30
    2  A    between atoms: C_8  and  C_33
    3  A    between atoms: C_9  and  C_20
    4  A    between atoms: N_11  and  N_25
    5  A    between atoms: N_12  and  C_29
    6  A    between atoms: N_15  and  N_22
    7  A    between atoms: C_16  and  C_34
    8  A    between atoms: C_16  and  C_35
    9  A    between atoms: C_20  and  C_23
   10  A    between atoms: C_24  and  C_37
   11  A    between atoms: C_34  and  C_38
   12  A    between atoms: C_38  and  N_43
                            x       y       z     vdW  Elec       q    Type
                         _______ _______ _______ _____ _____    ______ ____

>  <TORSDO>
F 12

$$$$
=
 OpenBabel10232408263D

 45 47  0  0  1  0  0  0  0  0999 V2000
  184.6500  179.0380  142.3990 C   0  0  0  0  0  3  0  0  0  0  0  0
  186.8240  178.3620  142.2970 N   0  0  0  0  0  0  0  0  0  0  0  0
  185.0490  179.0370  140.9590 C   0  0  1  0  0  3  0  0  0  0  0  0
  186.4610  178.5660  141.0760 C   0  0  0  0  0  0  0  0  0  0  0  0
  185.6970  178.6430  143.1170 C   0  0  0  0  0  0  0  0  0  0  0  0
  185.9000  178.1960  147.3590 C   0  0  0  0  0  3  0  0  0  0  0  0
  187.0220  177.9190  146.5730 C   0  0  0  0  0  0  0  0  0  0  0  0
  186.9220  178.0750  145.1880 C   0  0  0  0  0  3  0  0  0  0  0  0
  184.7430  178.6100  146.7800 N   0  0  0  0  0  0  0  0  0  0  0  0
  185.7300  178.5050  144.5940 C   0  0  0  0  0  0  0  0  0  0  0  0
  183.3710  179.1940  144.9070 N   0  0  0  0  0  1  0  0  0  0  0  0
  184.6250  178.7720  145.4360 C   0  0  0  0  0  0  0  0  0  0  0  0
  189.4640  177.3500  146.3980 N   0  0  0  0  0  2  0  0  0  0  0  0
  188.2820  177.4710  147.1920 C   0  0  0  0  0  0  0  0  0  0  0  0
  188.3160  177.1930  148.4230 O   0  0  0  0  0  0  0  0  0  0  0  0
  190.7280  176.9050  146.9620 C   0  0  0  0  0  2  0  0  0  0  0  0
  191.6590  176.4880  145.8430 C   0  0  0  0  0  1  0  0  0  0  0  0
  184.2060  178.0730  140.1780 C   0  0  0  0  0  0  0  0  0  0  0  0
  184.3130  178.0540  138.7570 N   0  0  0  0  0  2  0  0  0  0  0  0
  183.3990  177.3000  140.7660 O   0  0  0  0  0  0  0  0  0  0  0  0
  181.9860  178.8650  137.4850 O   0  0  0  0  0  0  0  0  0  0  0  0
  182.2580  174.7910  137.6310 O   0  0  0  0  0  0  0  0  0  0  0  0
  182.3180  177.6530  137.3670 C   0  0  0  0  0  0  0  0  0  0  0  0
  181.4890  176.7520  136.6110 N   0  0  0  0  0  0  0  0  0  0  0  0
  181.2560  174.4870  135.5530 N   0  0  0  0  0  0  0  0  0  0  0  0
  183.5230  177.1930  137.9840 N   0  0  0  0  0  2  0  0  0  0  0  0
  180.3350  177.2960  135.9050 C   0  0  0  0  0  1  0  0  0  0  0  0
  180.9080  175.0360  134.3590 O   0  0  0  0  0  1  0  0  0  0  0  0
  181.6980  175.3250  136.6350 C   0  0  0  0  0  0  0  0  0  0  0  0
  182.3910  172.5050  135.1450 C   0  0  0  0  0  1  0  0  0  0  0  0
  180.0500  172.5890  135.0020 C   0  0  0  0  0  1  0  0  0  0  0  0
  181.1970  173.0920  135.7370 N   0  0  0  0  0  0  0  0  0  0  0  0
  187.3950  178.4130  139.9230 C   0  0  0  0  0  2  0  0  0  0  0  0
  188.5340  177.4780  140.2930 C   0  0  0  0  0  2  0  0  0  0  0  0
  189.7900  177.8380  139.5140 C   0  0  0  0  0  2  0  0  0  0  0  0
  191.6860  176.7280  138.8390 N   0  0  0  0  0  2  0  0  0  0  0  0
  192.1840  176.1750  137.5830 C   0  0  2  0  0  3  0  0  0  0  0  0
  191.0700  176.3260  136.5740 C   0  0  0  0  0  2  0  0  0  0  0  0
  190.2820  176.6820  138.7810 N   0  0  0  0  0  0  0  0  0  0  0  0
  189.9230  176.8640  137.3830 C   0  0  0  0  0  2  0  0  0  0  0  0
  192.5540  174.6970  137.7580 C   0  0  1  0  0  3  0  0  0  0  0  0
  192.0030  173.8580  136.6140 C   0  0  0  0  0  1  0  0  0  0  0  0
  194.0360  174.5050  137.8510 C   0  0  0  0  0  0  0  0  0  0  0  0
  194.5520  173.2300  138.0410 O   0  0  0  0  0  1  0  0  0  0  0  0
  194.8180  175.4900  137.7640 O   0  0  0  0  0  0  0  0  0  0  0  0
  1  5  2  0  0  0  0
  2  5  1  0  0  0  0
  3 18  1  6  0  0  0
  3  4  1  0  0  0  0
  3  1  1  0  0  0  0
  4  2  2  0  0  0  0
  5 10  1  0  0  0  0
  7 14  1  0  0  0  0
  7  6  2  0  0  0  0
  8  7  1  0  0  0  0
  9  6  1  0  0  0  0
 10  8  2  0  0  0  0
 10 12  1  0  0  0  0
 11 12  1  0  0  0  0
 12  9  2  0  0  0  0
 13 16  1  0  0  0  0
 13 14  1  0  0  0  0
 14 15  2  0  0  0  0
 17 16  1  0  0  0  0
 18 20  2  0  0  0  0
 19 18  1  0  0  0  0
 23 21  2  0  0  0  0
 23 26  1  0  0  0  0
 24 29  1  0  0  0  0
 24 23  1  0  0  0  0
 25 32  1  0  0  0  0
 25 29  1  0  0  0  0
 26 19  1  0  0  0  0
 27 24  1  0  0  0  0
 28 25  1  0  0  0  0
 29 22  2  0  0  0  0
 30 32  1  0  0  0  0
 31 32  1  0  0  0  0
 33 34  1  0  0  0  0
 33  4  1  0  0  0  0
 35 34  1  0  0  0  0
 37 41  1  1  0  0  0
 37 36  1  0  0  0  0
 38 40  1  0  0  0  0
 38 37  1  0  0  0  0
 39 36  1  0  0  0  0
 39 35  1  0  0  0  0
 40 39  1  0  0  0  0
 41 42  1  6  0  0  0
 41 43  1  0  0  0  0
 43 44  1  0  0  0  0
 45 43  2  0  0  0  0
M  END
>  <MODEL>
8

>  <REMARK>
 VINA RESULT:      -7.1      3.026      8.724
  Name = 
  12 active torsions:
  status: ('A' for Active; 'I' for Inactive)
    1  A    between atoms: C_4  and  C_30
    2  A    between atoms: C_8  and  C_33
    3  A    between atoms: C_9  and  C_20
    4  A    between atoms: N_11  and  N_25
    5  A    between atoms: N_12  and  C_29
    6  A    between atoms: N_15  and  N_22
    7  A    between atoms: C_16  and  C_34
    8  A    between atoms: C_16  and  C_35
    9  A    between atoms: C_20  and  C_23
   10  A    between atoms: C_24  and  C_37
   11  A    between atoms: C_34  and  C_38
   12  A    between atoms: C_38  and  N_43
                            x       y       z     vdW  Elec       q    Type
                         _______ _______ _______ _____ _____    ______ ____

>  <TORSDO>
F 12

$$$$
=
 OpenBabel10232408263D

 45 47  0  0  1  0  0  0  0  0999 V2000
  189.2840  177.2710  137.1340 C   0  0  0  0  0  3  0  0  0  0  0  0
  188.8320  177.2240  139.3670 N   0  0  0  0  0  0  0  0  0  0  0  0
  190.5930  177.2960  137.8530 C   0  0  1  0  0  3  0  0  0  0  0  0
  190.1180  177.2460  139.2680 C   0  0  0  0  0  0  0  0  0  0  0  0
  188.3150  177.2270  138.0420 C   0  0  0  0  0  0  0  0  0  0  0  0
  184.1120  177.2120  137.2860 C   0  0  0  0  0  3  0  0  0  0  0  0
  184.6780  178.2270  138.0620 C   0  0  0  0  0  0  0  0  0  0  0  0
  186.0570  178.2030  138.2900 C   0  0  0  0  0  3  0  0  0  0  0  0
  184.8930  176.2290  136.7680 N   0  0  0  0  0  0  0  0  0  0  0  0
  186.8600  177.1900  137.7530 C   0  0  0  0  0  0  0  0  0  0  0  0
  186.9800  175.1120  136.4090 N   0  0  0  0  0  1  0  0  0  0  0  0
  186.2360  176.1880  136.9740 C   0  0  0  0  0  0  0  0  0  0  0  0
  182.4180  179.2400  138.4900 N   0  0  0  0  0  2  0  0  0  0  0  0
  183.8400  179.2990  138.6260 C   0  0  0  0  0  0  0  0  0  0  0  0
  184.3770  180.2700  139.2280 O   0  0  0  0  0  0  0  0  0  0  0  0
  181.5500  180.2770  139.0240 C   0  0  0  0  0  2  0  0  0  0  0  0
  180.8150  179.7440  140.2360 C   0  0  0  0  0  1  0  0  0  0  0  0
  191.4130  176.0920  137.5010 C   0  0  0  0  0  0  0  0  0  0  0  0
  192.8080  176.0920  137.7980 N   0  0  0  0  0  2  0  0  0  0  0  0
  190.8850  175.0950  136.9340 O   0  0  0  0  0  0  0  0  0  0  0  0
  195.0650  176.3220  136.2030 O   0  0  0  0  0  0  0  0  0  0  0  0
  193.9060  172.4230  136.5870 O   0  0  0  0  0  0  0  0  0  0  0  0
  194.7600  175.1670  136.6120 C   0  0  0  0  0  0  0  0  0  0  0  0
  195.5650  174.0360  136.2330 N   0  0  0  0  0  0  0  0  0  0  0  0
  196.0850  171.6050  136.5880 N   0  0  0  0  0  0  0  0  0  0  0  0
  193.6200  175.0020  137.4580 N   0  0  0  0  0  2  0  0  0  0  0  0
  196.7820  174.2740  135.4670 C   0  0  0  0  0  1  0  0  0  0  0  0
  197.4070  171.8720  136.7590 O   0  0  0  0  0  1  0  0  0  0  0  0
  195.1360  172.6810  136.4830 C   0  0  0  0  0  0  0  0  0  0  0  0
  196.4350  169.4750  137.4410 C   0  0  0  0  0  1  0  0  0  0  0  0
  195.8750  169.7790  135.1810 C   0  0  0  0  0  1  0  0  0  0  0  0
  195.6310  170.2740  136.5260 N   0  0  0  0  0  0  0  0  0  0  0  0
  191.0160  177.2920  140.4590 C   0  0  0  0  0  2  0  0  0  0  0  0
  190.1900  177.2860  141.7350 C   0  0  0  0  0  2  0  0  0  0  0  0
  190.4980  176.0450  142.5590 C   0  0  0  0  0  2  0  0  0  0  0  0
  189.0130  177.1690  143.9050 N   0  0  0  0  0  2  0  0  0  0  0  0
  189.0960  177.9300  145.1490 C   0  0  2  0  0  3  0  0  0  0  0  0
  190.5190  177.8000  145.6390 C   0  0  0  0  0  2  0  0  0  0  0  0
  190.0530  176.2230  143.9320 N   0  0  0  0  0  0  0  0  0  0  0  0
  191.1460  176.8350  144.6710 C   0  0  0  0  0  2  0  0  0  0  0  0
  188.1160  177.3690  146.1870 C   0  0  1  0  0  3  0  0  0  0  0  0
  188.7190  177.4100  147.5830 C   0  0  0  0  0  1  0  0  0  0  0  0
  186.8170  178.1140  146.1790 C   0  0  0  0  0  0  0  0  0  0  0  0
  186.2970  178.5970  147.3720 O   0  0  0  0  0  1  0  0  0  0  0  0
  186.1900  178.3010  145.1020 O   0  0  0  0  0  0  0  0  0  0  0  0
  1  3  1  0  0  0  0
  1  5  2  0  0  0  0
  3 18  1  6  0  0  0
  3  4  1  0  0  0  0
  4  2  2  0  0  0  0
  4 33  1  0  0  0  0
  5  2  1  0  0  0  0
  6  7  1  0  0  0  0
  7  8  2  0  0  0  0
  7 14  1  0  0  0  0
  9 12  1  0  0  0  0
  9  6  2  0  0  0  0
 10  5  1  0  0  0  0
 10  8  1  0  0  0  0
 11 12  1  0  0  0  0
 12 10  2  0  0  0  0
 13 14  1  0  0  0  0
 13 16  1  0  0  0  0
 14 15  2  0  0  0  0
 16 17  1  0  0  0  0
 18 19  1  0  0  0  0
 20 18  2  0  0  0  0
 21 23  2  0  0  0  0
 23 26  1  0  0  0  0
 24 29  1  0  0  0  0
 24 23  1  0  0  0  0
 25 28  1  0  0  0  0
 26 19  1  0  0  0  0
 27 24  1  0  0  0  0
 29 22  2  0  0  0  0
 29 25  1  0  0  0  0
 31 32  1  0  0  0  0
 32 25  1  0  0  0  0
 32 30  1  0  0  0  0
 33 34  1  0  0  0  0
 34 35  1  0  0  0  0
 35 39  1  0  0  0  0
 36 39  1  0  0  0  0
 36 37  1  0  0  0  0
 37 38  1  0  0  0  0
 37 41  1  1  0  0  0
 39 40  1  0  0  0  0
 40 38  1  0  0  0  0
 41 42  1  1  0  0  0
 43 41  1  0  0  0  0
 43 44  1  0  0  0  0
 45 43  2  0  0  0  0
M  END
>  <MODEL>
9

>  <REMARK>
 VINA RESULT:      -7.1      3.085      7.176
  Name = 
  12 active torsions:
  status: ('A' for Active; 'I' for Inactive)
    1  A    between atoms: C_4  and  C_30
    2  A    between atoms: C_8  and  C_33
    3  A    between atoms: C_9  and  C_20
    4  A    between atoms: N_11  and  N_25
    5  A    between atoms: N_12  and  C_29
    6  A    between atoms: N_15  and  N_22
    7  A    between atoms: C_16  and  C_34
    8  A    between atoms: C_16  and  C_35
    9  A    between atoms: C_20  and  C_23
   10  A    between atoms: C_24  and  C_37
   11  A    between atoms: C_34  and  C_38
   12  A    between atoms: C_38  and  N_43
                            x       y       z     vdW  Elec       q    Type
                         _______ _______ _______ _____ _____    ______ ____

>  <TORSDO>
F 12

$$$$
