=
 OpenBabel10232410383D

 50 54  0  0  1  0  0  0  0  0999 V2000
  185.7350  179.0240  142.5200 C   0  0  2  0  0  3  0  0  0  0  0  0
  183.0110  178.8460  142.7810 C   0  0  0  0  0  0  0  0  0  0  0  0
  181.7300  179.0360  142.6630 C   0  0  0  0  0  3  0  0  0  0  0  0
  185.5210  177.9030  143.3780 C   0  0  2  0  0  3  0  0  0  0  0  0
  184.2970  178.6590  142.8730 C   0  0  0  0  0  0  0  0  0  0  0  0
  187.2600  178.6750  140.6390 C   0  0  0  0  0  3  0  0  0  0  0  0
  186.0350  178.5500  141.1390 C   0  0  0  0  0  3  0  0  0  0  0  0
  187.5550  178.1910  139.2590 C   0  0  0  0  0  2  0  0  0  0  0  0
  188.5690  177.0620  139.2910 C   0  0  0  0  0  2  0  0  0  0  0  0
  189.9810  177.6240  139.2230 C   0  0  0  0  0  2  0  0  0  0  0  0
  192.0830  177.4240  140.5010 C   0  0  0  0  0  1  0  0  0  0  0  0
  190.9820  176.6440  139.8100 C   0  0  2  0  0  3  0  0  0  0  0  0
  191.5540  175.8200  138.7530 N   0  0  0  0  0  2  0  0  0  0  0  0
  192.7910  176.4540  138.3190 C   0  0  0  0  0  2  0  0  0  0  0  0
  193.7720  175.4060  137.8240 C   0  0  0  0  0  2  0  0  0  0  0  0
  194.9420  175.4530  138.5820 O   0  0  0  0  0  1  0  0  0  0  0  0
  179.9850  179.6940  140.8330 O   0  0  0  0  0  0  0  0  0  0  0  0
  180.9140  178.5360  141.1740 S   0  0  1  0  0  0  0  0  0  0  0  0
  183.5240  177.5490  138.0930 C   0  0  0  0  0  2  0  0  0  0  0  0
  180.7370  175.9720  139.8160 O   0  0  0  0  0  0  0  0  0  0  0  0
  182.4490  177.5220  139.1270 C   0  0  0  0  0  0  0  0  0  0  0  0
  181.7740  176.2250  139.1470 C   0  0  0  0  0  0  0  0  0  0  0  0
  182.4820  175.0260  138.0470 S   0  0  0  0  0  0  0  0  0  0  0  0
  183.0050  179.8230  139.8220 C   0  0  0  0  0  1  0  0  0  0  0  0
  183.2330  176.4090  137.1100 C   0  0  2  0  0  3  0  0  0  0  0  0
  182.1910  178.5740  139.9310 C   0  0  0  0  0  0  0  0  0  0  0  0
  187.3140  175.7310  135.5090 N   0  0  0  0  0  0  0  0  0  0  0  0
  186.6920  177.0040  135.7350 C   0  0  0  0  0  3  0  0  0  0  0  0
  186.0900  173.4430  134.9620 O   0  0  0  0  0  0  0  0  0  0  0  0
  185.4310  177.1260  136.1690 C   0  0  0  0  0  3  0  0  0  0  0  0
  187.5440  173.5130  136.9520 O   0  0  0  0  0  0  0  0  0  0  0  0
  184.4960  175.9600  136.3710 C   0  0  1  0  0  3  0  0  0  0  0  0
  185.1950  174.8120  137.0980 C   0  0  0  0  0  2  0  0  0  0  0  0
  186.5720  174.2880  136.1070 S   0  0  0  0  0  0  0  0  0  0  0  0
  188.5910  175.6460  134.8150 C   0  0  0  0  0  2  0  0  0  0  0  0
  189.7420  175.9380  135.7650 C   0  0  2  0  0  3  0  0  0  0  0  0
  190.0000  177.3100  135.7930 O   0  0  0  0  0  1  0  0  0  0  0  0
  190.9790  175.2070  135.2910 C   0  0  0  0  0  1  0  0  0  0  0  0
  185.7750  178.2880  144.8240 C   0  0  0  0  0  2  0  0  0  0  0  0
  187.8220  177.1050  144.1290 C   0  0  0  0  0  3  0  0  0  0  0  0
  188.5180  176.9750  146.9190 C   0  0  0  0  0  2  0  0  0  0  0  0
  189.6570  176.0330  142.9330 C   0  0  0  0  0  2  0  0  0  0  0  0
  187.2050  177.2710  146.4610 O   0  0  0  0  0  0  0  0  0  0  0  0
  191.8420  176.1540  143.9410 O   0  0  0  0  0  0  0  0  0  0  0  0
  190.1570  177.4820  145.0300 C   0  0  1  0  0  3  0  0  0  0  0  0
  191.3380  176.5230  145.1990 C   0  0  0  0  0  2  0  0  0  0  0  0
  189.1400  176.8700  144.0680 C   0  0  0  0  0  0  0  0  0  0  0  0
  190.9010  175.2670  143.3880 C   0  0  0  0  0  2  0  0  0  0  0  0
  187.2000  177.9380  145.2120 C   0  0  2  0  0  3  0  0  0  0  0  0
  189.6250  177.9090  146.4060 C   0  0  0  0  0  2  0  0  0  0  0  0
  1  7  1  6  0  0  0
  1  5  1  0  0  0  0
  1  4  1  0  0  0  0
  2  5  2  0  0  0  0
  3  2  2  0  0  0  0
  4 39  1  1  0  0  0
  5  4  1  0  0  0  0
  6  7  2  0  0  0  0
  8  9  1  0  0  0  0
  8  6  1  0  0  0  0
 10  9  1  0  0  0  0
 10 12  1  0  0  0  0
 12 11  1  6  0  0  0
 13 12  1  0  0  0  0
 14 13  1  0  0  0  0
 15 14  1  0  0  0  0
 15 16  1  0  0  0  0
 18 17  2  6  0  0  0
 18  3  1  0  0  0  0
 19 21  1  0  0  0  0
 21 22  1  0  0  0  0
 21 26  2  0  0  0  0
 22 20  2  0  0  0  0
 23 22  1  0  0  0  0
 24 26  1  0  0  0  0
 25 23  1  0  0  0  0
 25 19  1  1  0  0  0
 26 18  1  0  0  0  0
 27 28  1  0  0  0  0
 27 34  1  0  0  0  0
 28 30  2  0  0  0  0
 29 34  2  0  0  0  0
 32 30  1  1  0  0  0
 32 33  1  0  0  0  0
 32 25  1  0  0  0  0
 34 31  2  0  0  0  0
 34 33  1  0  0  0  0
 35 27  1  0  0  0  0
 35 36  1  0  0  0  0
 36 38  1  6  0  0  0
 36 37  1  0  0  0  0
 40 49  1  0  0  0  0
 42 48  1  0  0  0  0
 42 47  1  0  0  0  0
 43 41  1  0  0  0  0
 44 46  1  0  0  0  0
 45 46  1  1  0  0  0
 45 50  1  0  0  0  0
 47 40  2  0  0  0  0
 47 45  1  0  0  0  0
 48 44  1  0  0  0  0
 49 39  1  6  0  0  0
 49 43  1  0  0  0  0
 50 41  1  0  0  0  0
M  END
>  <MODEL>
1

>  <REMARK>
 VINA RESULT:      -7.7      0.000      0.000
  Name = 
  15 active torsions:
  status: ('A' for Active; 'I' for Inactive)
    1  A    between atoms: C_3  and  C_23
    2  A    between atoms: C_5  and  N_17
    3  A    between atoms: C_5  and  C_18
    4  A    between atoms: C_7  and  C_33
    5  A    between atoms: C_8  and  C_28
    6  A    between atoms: C_9  and  C_33
    7  A    between atoms: C_9  and  C_46
    8  A    between atoms: N_14  and  C_23
    9  A    between atoms: N_17  and  C_41
   10  A    between atoms: C_27  and  C_48
   11  A    between atoms: C_34  and  S_42
   12  A    between atoms: C_35  and  C_40
   13  A    between atoms: C_37  and  C_40
   14  A    between atoms: C_41  and  C_46
   15  A    between atoms: S_42  and  C_44
                            x       y       z     vdW  Elec       q    Type
                         _______ _______ _______ _____ _____    ______ ____

>  <TORSDO>
F 15

$$$$
=
 OpenBabel10232410383D

 50 54  0  0  1  0  0  0  0  0999 V2000
  185.3110  179.2230  142.6070 C   0  0  2  0  0  3  0  0  0  0  0  0
  182.6240  178.8200  142.2380 C   0  0  0  0  0  0  0  0  0  0  0  0
  181.4100  178.8390  141.7700 C   0  0  0  0  0  3  0  0  0  0  0  0
  184.9300  178.3130  143.6390 C   0  0  2  0  0  3  0  0  0  0  0  0
  183.8480  178.7980  142.6820 C   0  0  0  0  0  0  0  0  0  0  0  0
  187.2970  178.5670  141.3380 C   0  0  0  0  0  3  0  0  0  0  0  0
  185.9810  178.4790  141.5030 C   0  0  0  0  0  3  0  0  0  0  0  0
  187.9620  177.8130  140.2350 C   0  0  0  0  0  2  0  0  0  0  0  0
  189.3920  178.2870  140.0470 C   0  0  0  0  0  2  0  0  0  0  0  0
  190.3620  177.1480  140.3180 C   0  0  0  0  0  2  0  0  0  0  0  0
  192.8260  177.2670  140.2410 C   0  0  0  0  0  1  0  0  0  0  0  0
  191.5970  177.6510  141.0430 C   0  0  2  0  0  3  0  0  0  0  0  0
  191.6750  177.0570  142.3730 N   0  0  0  0  0  2  0  0  0  0  0  0
  192.0280  178.1160  143.3080 C   0  0  0  0  0  2  0  0  0  0  0  0
  190.8940  179.1200  143.4140 C   0  0  0  0  0  2  0  0  0  0  0  0
  191.2090  180.0940  144.3620 O   0  0  0  0  0  1  0  0  0  0  0  0
  179.9820  178.7630  139.5830 O   0  0  0  0  0  0  0  0  0  0  0  0
  181.0340  177.9270  140.3010 S   0  0  1  0  0  0  0  0  0  0  0  0
  184.2610  177.1170  137.8090 C   0  0  0  0  0  2  0  0  0  0  0  0
  181.4030  175.2940  139.1260 O   0  0  0  0  0  0  0  0  0  0  0  0
  183.0240  177.0090  138.6370 C   0  0  0  0  0  0  0  0  0  0  0  0
  182.5100  175.6400  138.6330 C   0  0  0  0  0  0  0  0  0  0  0  0
  183.5410  174.4840  137.7670 S   0  0  0  0  0  0  0  0  0  0  0  0
  183.1770  179.3950  139.2470 C   0  0  0  0  0  1  0  0  0  0  0  0
  184.2880  175.9000  136.8770 C   0  0  2  0  0  3  0  0  0  0  0  0
  182.5040  178.0600  139.3020 C   0  0  0  0  0  0  0  0  0  0  0  0
  188.6550  175.3730  136.3070 N   0  0  0  0  0  0  0  0  0  0  0  0
  187.9930  176.5770  136.7160 C   0  0  0  0  0  3  0  0  0  0  0  0
  187.6370  173.4310  134.8130 O   0  0  0  0  0  0  0  0  0  0  0  0
  186.6600  176.6740  136.8110 C   0  0  0  0  0  3  0  0  0  0  0  0
  188.4760  172.8300  137.0530 O   0  0  0  0  0  0  0  0  0  0  0  0
  185.7080  175.5750  136.4070 C   0  0  1  0  0  3  0  0  0  0  0  0
  186.1770  174.2190  136.9320 C   0  0  0  0  0  2  0  0  0  0  0  0
  187.7780  173.8840  136.2400 S   0  0  0  0  0  0  0  0  0  0  0  0
  190.0750  175.3830  135.9880 C   0  0  0  0  0  2  0  0  0  0  0  0
  190.9080  175.6190  137.2380 C   0  0  2  0  0  3  0  0  0  0  0  0
  191.6660  176.7820  137.0940 O   0  0  0  0  0  1  0  0  0  0  0  0
  191.8350  174.4420  137.4520 C   0  0  0  0  0  1  0  0  0  0  0  0
  184.7820  179.0440  144.9610 C   0  0  0  0  0  2  0  0  0  0  0  0
  186.9540  177.8920  145.1160 C   0  0  0  0  0  3  0  0  0  0  0  0
  186.5290  177.7860  147.9610 C   0  0  0  0  0  2  0  0  0  0  0  0
  189.1230  176.8450  144.7270 C   0  0  0  0  0  2  0  0  0  0  0  0
  185.4880  178.0580  147.0320 O   0  0  0  0  0  0  0  0  0  0  0  0
  190.7520  177.0070  146.4940 O   0  0  0  0  0  0  0  0  0  0  0  0
  188.7600  178.3120  146.8400 C   0  0  1  0  0  3  0  0  0  0  0  0
  189.7990  177.3730  147.4590 C   0  0  0  0  0  2  0  0  0  0  0  0
  188.1990  177.6780  145.5680 C   0  0  0  0  0  0  0  0  0  0  0  0
  190.1070  176.1020  145.6320 C   0  0  0  0  0  2  0  0  0  0  0  0
  185.9540  178.7200  145.8690 C   0  0  2  0  0  3  0  0  0  0  0  0
  187.7350  178.7360  147.9020 C   0  0  0  0  0  2  0  0  0  0  0  0
  1  7  1  6  0  0  0
  1  5  1  0  0  0  0
  1  4  1  0  0  0  0
  2  5  2  0  0  0  0
  3  2  2  0  0  0  0
  4 39  1  1  0  0  0
  5  4  1  0  0  0  0
  6  7  2  0  0  0  0
  8  6  1  0  0  0  0
  9  8  1  0  0  0  0
  9 10  1  0  0  0  0
 10 12  1  0  0  0  0
 12 11  1  6  0  0  0
 12 13  1  0  0  0  0
 13 14  1  0  0  0  0
 14 15  1  0  0  0  0
 15 16  1  0  0  0  0
 18 17  2  6  0  0  0
 18  3  1  0  0  0  0
 19 21  1  0  0  0  0
 21 26  2  0  0  0  0
 22 21  1  0  0  0  0
 22 20  2  0  0  0  0
 23 22  1  0  0  0  0
 24 26  1  0  0  0  0
 25 23  1  0  0  0  0
 25 19  1  1  0  0  0
 26 18  1  0  0  0  0
 27 28  1  0  0  0  0
 28 30  2  0  0  0  0
 29 34  2  0  0  0  0
 32 30  1  1  0  0  0
 32 25  1  0  0  0  0
 32 33  1  0  0  0  0
 34 27  1  0  0  0  0
 34 33  1  0  0  0  0
 34 31  2  0  0  0  0
 35 27  1  0  0  0  0
 35 36  1  0  0  0  0
 36 38  1  6  0  0  0
 37 36  1  0  0  0  0
 40 47  2  0  0  0  0
 40 49  1  0  0  0  0
 42 47  1  0  0  0  0
 42 48  1  0  0  0  0
 43 41  1  0  0  0  0
 44 46  1  0  0  0  0
 45 46  1  1  0  0  0
 45 50  1  0  0  0  0
 47 45  1  0  0  0  0
 48 44  1  0  0  0  0
 49 39  1  6  0  0  0
 49 43  1  0  0  0  0
 50 41  1  0  0  0  0
M  END
>  <MODEL>
2

>  <REMARK>
 VINA RESULT:      -6.9      1.560      2.378
  Name = 
  15 active torsions:
  status: ('A' for Active; 'I' for Inactive)
    1  A    between atoms: C_3  and  C_23
    2  A    between atoms: C_5  and  N_17
    3  A    between atoms: C_5  and  C_18
    4  A    between atoms: C_7  and  C_33
    5  A    between atoms: C_8  and  C_28
    6  A    between atoms: C_9  and  C_33
    7  A    between atoms: C_9  and  C_46
    8  A    between atoms: N_14  and  C_23
    9  A    between atoms: N_17  and  C_41
   10  A    between atoms: C_27  and  C_48
   11  A    between atoms: C_34  and  S_42
   12  A    between atoms: C_35  and  C_40
   13  A    between atoms: C_37  and  C_40
   14  A    between atoms: C_41  and  C_46
   15  A    between atoms: S_42  and  C_44
                            x       y       z     vdW  Elec       q    Type
                         _______ _______ _______ _____ _____    ______ ____

>  <TORSDO>
F 15

$$$$
=
 OpenBabel10232410383D

 50 54  0  0  1  0  0  0  0  0999 V2000
  185.8460  178.8950  141.8580 C   0  0  2  0  0  3  0  0  0  0  0  0
  183.1920  178.8470  142.5450 C   0  0  0  0  0  0  0  0  0  0  0  0
  181.9240  179.1150  142.6500 C   0  0  0  0  0  3  0  0  0  0  0  0
  185.6960  177.7240  142.6610 C   0  0  2  0  0  3  0  0  0  0  0  0
  184.4610  178.5830  142.4140 C   0  0  0  0  0  0  0  0  0  0  0  0
  187.0590  178.4060  139.7890 C   0  0  0  0  0  3  0  0  0  0  0  0
  185.8920  178.5150  140.4170 C   0  0  0  0  0  3  0  0  0  0  0  0
  187.0970  178.0180  138.3490 C   0  0  0  0  0  2  0  0  0  0  0  0
  188.0770  176.8800  138.1260 C   0  0  0  0  0  2  0  0  0  0  0  0
  189.2980  177.0580  139.0150 C   0  0  0  0  0  2  0  0  0  0  0  0
  190.3950  177.0900  136.8050 C   0  0  0  0  0  1  0  0  0  0  0  0
  190.5700  176.7120  138.2630 C   0  0  2  0  0  3  0  0  0  0  0  0
  190.8430  175.2840  138.3690 N   0  0  0  0  0  2  0  0  0  0  0  0
  191.8360  174.9480  137.3580 C   0  0  0  0  0  2  0  0  0  0  0  0
  193.2350  175.1030  137.9270 C   0  0  0  0  0  2  0  0  0  0  0  0
  193.7850  176.3170  137.5140 O   0  0  0  0  0  1  0  0  0  0  0  0
  180.1460  180.1010  141.0090 O   0  0  0  0  0  0  0  0  0  0  0  0
  180.8520  178.7790  141.2830 S   0  0  1  0  0  0  0  0  0  0  0  0
  182.8580  177.2110  137.9980 C   0  0  0  0  0  2  0  0  0  0  0  0
  180.0880  176.2200  140.1360 O   0  0  0  0  0  0  0  0  0  0  0  0
  181.9310  177.4190  139.1480 C   0  0  0  0  0  0  0  0  0  0  0  0
  181.0600  176.2580  139.3350 C   0  0  0  0  0  0  0  0  0  0  0  0
  181.4190  174.9040  138.2470 S   0  0  0  0  0  0  0  0  0  0  0  0
  182.9400  179.6220  139.6130 C   0  0  0  0  0  1  0  0  0  0  0  0
  182.2640  176.0910  137.1360 C   0  0  2  0  0  3  0  0  0  0  0  0
  181.9520  178.5370  139.9010 C   0  0  0  0  0  0  0  0  0  0  0  0
  185.9450  174.3980  135.3310 N   0  0  0  0  0  0  0  0  0  0  0  0
  185.7820  175.7320  135.8300 C   0  0  0  0  0  3  0  0  0  0  0  0
  184.0450  172.8260  134.3520 O   0  0  0  0  0  0  0  0  0  0  0  0
  184.6170  176.1880  136.3100 C   0  0  0  0  0  3  0  0  0  0  0  0
  185.3380  171.9910  136.2780 O   0  0  0  0  0  0  0  0  0  0  0  0
  183.3330  175.3960  136.2890 C   0  0  1  0  0  3  0  0  0  0  0  0
  183.5650  173.9570  136.7470 C   0  0  0  0  0  2  0  0  0  0  0  0
  184.7290  173.2060  135.6360 S   0  0  0  0  0  0  0  0  0  0  0  0
  187.1490  174.0240  134.6030 C   0  0  0  0  0  2  0  0  0  0  0  0
  188.3920  174.3200  135.4280 C   0  0  2  0  0  3  0  0  0  0  0  0
  189.4840  174.5340  134.5850 O   0  0  0  0  0  1  0  0  0  0  0  0
  188.6830  173.1430  136.3340 C   0  0  0  0  0  1  0  0  0  0  0  0
  186.2010  177.9810  144.0680 C   0  0  0  0  0  2  0  0  0  0  0  0
  188.0870  177.6060  145.6100 C   0  0  0  0  0  3  0  0  0  0  0  0
  189.8260  178.2090  143.3970 C   0  0  0  0  0  2  0  0  0  0  0  0
  189.5530  177.0990  147.4920 C   0  0  0  0  0  2  0  0  0  0  0  0
  188.4410  178.5320  143.4050 O   0  0  0  0  0  0  0  0  0  0  0  0
  191.7100  176.1560  146.9780 O   0  0  0  0  0  0  0  0  0  0  0  0
  190.2220  176.3480  145.0970 C   0  0  1  0  0  3  0  0  0  0  0  0
  191.6480  176.5270  145.6240 C   0  0  0  0  0  2  0  0  0  0  0  0
  189.2450  177.0700  146.0220 C   0  0  0  0  0  0  0  0  0  0  0  0
  191.0680  177.1820  147.6940 C   0  0  0  0  0  2  0  0  0  0  0  0
  187.6720  177.6190  144.1670 C   0  0  2  0  0  3  0  0  0  0  0  0
  190.1610  176.7250  143.6090 C   0  0  0  0  0  2  0  0  0  0  0  0
  1  7  1  6  0  0  0
  1  5  1  0  0  0  0
  1  4  1  0  0  0  0
  2  3  2  0  0  0  0
  4 39  1  1  0  0  0
  5  2  2  0  0  0  0
  5  4  1  0  0  0  0
  6  7  2  0  0  0  0
  8  6  1  0  0  0  0
  9  8  1  0  0  0  0
  9 10  1  0  0  0  0
 12 11  1  6  0  0  0
 12 13  1  0  0  0  0
 12 10  1  0  0  0  0
 14 15  1  0  0  0  0
 14 13  1  0  0  0  0
 16 15  1  0  0  0  0
 18 17  2  6  0  0  0
 18  3  1  0  0  0  0
 19 21  1  0  0  0  0
 21 22  1  0  0  0  0
 21 26  2  0  0  0  0
 22 20  2  0  0  0  0
 23 22  1  0  0  0  0
 24 26  1  0  0  0  0
 25 19  1  1  0  0  0
 25 23  1  0  0  0  0
 26 18  1  0  0  0  0
 27 34  1  0  0  0  0
 27 28  1  0  0  0  0
 28 30  2  0  0  0  0
 29 34  2  0  0  0  0
 32 30  1  1  0  0  0
 32 33  1  0  0  0  0
 32 25  1  0  0  0  0
 34 31  2  0  0  0  0
 34 33  1  0  0  0  0
 35 27  1  0  0  0  0
 35 36  1  0  0  0  0
 36 38  1  1  0  0  0
 37 36  1  0  0  0  0
 40 47  2  0  0  0  0
 41 43  1  0  0  0  0
 41 50  1  0  0  0  0
 42 48  1  0  0  0  0
 43 49  1  0  0  0  0
 44 48  1  0  0  0  0
 45 50  1  6  0  0  0
 45 46  1  0  0  0  0
 45 47  1  0  0  0  0
 46 44  1  0  0  0  0
 47 42  1  0  0  0  0
 49 39  1  1  0  0  0
 49 40  1  0  0  0  0
M  END
>  <MODEL>
3

>  <REMARK>
 VINA RESULT:      -6.4      1.484      1.998
  Name = 
  15 active torsions:
  status: ('A' for Active; 'I' for Inactive)
    1  A    between atoms: C_3  and  C_23
    2  A    between atoms: C_5  and  N_17
    3  A    between atoms: C_5  and  C_18
    4  A    between atoms: C_7  and  C_33
    5  A    between atoms: C_8  and  C_28
    6  A    between atoms: C_9  and  C_33
    7  A    between atoms: C_9  and  C_46
    8  A    between atoms: N_14  and  C_23
    9  A    between atoms: N_17  and  C_41
   10  A    between atoms: C_27  and  C_48
   11  A    between atoms: C_34  and  S_42
   12  A    between atoms: C_35  and  C_40
   13  A    between atoms: C_37  and  C_40
   14  A    between atoms: C_41  and  C_46
   15  A    between atoms: S_42  and  C_44
                            x       y       z     vdW  Elec       q    Type
                         _______ _______ _______ _____ _____    ______ ____

>  <TORSDO>
F 15

$$$$
=
 OpenBabel10232410383D

 50 54  0  0  1  0  0  0  0  0999 V2000
  187.8230  178.6730  140.8230 C   0  0  2  0  0  3  0  0  0  0  0  0
  186.6560  178.0350  138.4250 C   0  0  0  0  0  0  0  0  0  0  0  0
  186.4270  177.8450  137.1590 C   0  0  0  0  0  3  0  0  0  0  0  0
  186.5580  178.1090  141.1690 C   0  0  2  0  0  3  0  0  0  0  0  0
  186.9110  178.2160  139.6900 C   0  0  0  0  0  0  0  0  0  0  0  0
  189.6370  177.6790  142.1300 C   0  0  0  0  0  3  0  0  0  0  0  0
  188.8980  177.6600  141.0260 C   0  0  0  0  0  3  0  0  0  0  0  0
  190.7060  176.6570  142.3290 C   0  0  0  0  0  2  0  0  0  0  0  0
  190.7960  176.2520  143.7890 C   0  0  0  0  0  2  0  0  0  0  0  0
  189.7180  176.9580  144.5970 C   0  0  0  0  0  2  0  0  0  0  0  0
  191.5670  176.6370  146.2000 C   0  0  0  0  0  1  0  0  0  0  0  0
  190.2240  177.3070  145.9850 C   0  0  2  0  0  3  0  0  0  0  0  0
  189.2790  176.8440  146.9940 N   0  0  0  0  0  2  0  0  0  0  0  0
  189.2240  177.8530  148.0430 C   0  0  0  0  0  2  0  0  0  0  0  0
  187.7800  178.1880  148.3710 C   0  0  0  0  0  2  0  0  0  0  0  0
  187.0100  178.1630  147.2090 O   0  0  0  0  0  1  0  0  0  0  0  0
  186.8300  176.6660  134.8630 O   0  0  0  0  0  0  0  0  0  0  0  0
  187.2250  176.5050  136.3250 S   0  0  1  0  0  0  0  0  0  0  0  0
  191.3760  176.3000  136.4160 C   0  0  0  0  0  2  0  0  0  0  0  0
  188.6120  173.9640  136.0580 O   0  0  0  0  0  0  0  0  0  0  0  0
  189.9240  175.9640  136.3510 C   0  0  0  0  0  0  0  0  0  0  0  0
  189.7240  174.5180  136.2700 C   0  0  0  0  0  0  0  0  0  0  0  0
  191.2220  173.5740  136.3930 S   0  0  0  0  0  0  0  0  0  0  0  0
  189.3250  178.3520  136.5250 C   0  0  0  0  0  1  0  0  0  0  0  0
  192.1450  175.0780  135.9010 C   0  0  2  0  0  3  0  0  0  0  0  0
  188.9610  176.9080  136.3910 C   0  0  0  0  0  0  0  0  0  0  0  0
  196.1100  174.1010  137.6350 N   0  0  0  0  0  0  0  0  0  0  0  0
  194.8330  173.7740  138.2000 C   0  0  0  0  0  3  0  0  0  0  0  0
  196.6620  176.1520  136.0450 O   0  0  0  0  0  0  0  0  0  0  0  0
  193.6760  174.1550  137.6430 C   0  0  0  0  0  3  0  0  0  0  0  0
  197.1540  173.8870  135.2020 O   0  0  0  0  0  0  0  0  0  0  0  0
  193.5820  175.0460  136.4300 C   0  0  1  0  0  3  0  0  0  0  0  0
  194.5690  174.6100  135.3480 C   0  0  0  0  0  2  0  0  0  0  0  0
  196.2080  174.7190  136.0220 S   0  0  0  0  0  0  0  0  0  0  0  0
  197.3320  173.8780  138.3920 C   0  0  0  0  0  2  0  0  0  0  0  0
  197.8030  175.1660  139.0500 C   0  0  2  0  0  3  0  0  0  0  0  0
  199.1930  175.2630  138.9680 O   0  0  0  0  0  1  0  0  0  0  0  0
  197.3880  175.1650  140.5060 C   0  0  0  0  0  1  0  0  0  0  0  0
  185.5690  179.2050  141.5190 C   0  0  0  0  0  2  0  0  0  0  0  0
  183.7050  179.5730  139.9490 C   0  0  0  0  0  3  0  0  0  0  0  0
  181.9740  178.4920  141.9790 C   0  0  0  0  0  2  0  0  0  0  0  0
  182.2630  180.0970  138.0530 C   0  0  0  0  0  2  0  0  0  0  0  0
  183.2970  178.9400  142.2470 O   0  0  0  0  0  0  0  0  0  0  0  0
  180.2840  178.7510  137.7760 O   0  0  0  0  0  0  0  0  0  0  0  0
  181.7920  177.9820  139.4850 C   0  0  1  0  0  3  0  0  0  0  0  0
  180.3390  178.2450  139.0850 C   0  0  0  0  0  2  0  0  0  0  0  0
  182.6230  179.2380  139.2320 C   0  0  0  0  0  0  0  0  0  0  0  0
  180.7470  180.0780  137.8510 C   0  0  0  0  0  2  0  0  0  0  0  0
  184.1630  178.7780  141.1380 C   0  0  2  0  0  3  0  0  0  0  0  0
  181.8490  177.4000  140.9060 C   0  0  0  0  0  2  0  0  0  0  0  0
  1  7  1  1  0  0  0
  1  4  1  0  0  0  0
  2  5  2  0  0  0  0
  3  2  2  0  0  0  0
  4 39  1  6  0  0  0
  5  1  1  0  0  0  0
  5  4  1  0  0  0  0
  6  8  1  0  0  0  0
  7  6  2  0  0  0  0
  8  9  1  0  0  0  0
  9 10  1  0  0  0  0
 10 12  1  0  0  0  0
 12 11  1  1  0  0  0
 12 13  1  0  0  0  0
 13 14  1  0  0  0  0
 14 15  1  0  0  0  0
 16 15  1  0  0  0  0
 18 17  2  6  0  0  0
 18 26  1  0  0  0  0
 18  3  1  0  0  0  0
 20 22  2  0  0  0  0
 21 26  2  0  0  0  0
 21 19  1  0  0  0  0
 22 21  1  0  0  0  0
 22 23  1  0  0  0  0
 25 23  1  0  0  0  0
 25 19  1  1  0  0  0
 25 32  1  0  0  0  0
 26 24  1  0  0  0  0
 27 28  1  0  0  0  0
 27 35  1  0  0  0  0
 30 28  2  0  0  0  0
 31 34  2  0  0  0  0
 32 33  1  6  0  0  0
 32 30  1  0  0  0  0
 33 34  1  0  0  0  0
 34 29  2  0  0  0  0
 34 27  1  0  0  0  0
 35 36  1  0  0  0  0
 36 38  1  1  0  0  0
 37 36  1  0  0  0  0
 40 49  1  0  0  0  0
 41 43  1  0  0  0  0
 42 47  1  0  0  0  0
 44 48  1  0  0  0  0
 44 46  1  0  0  0  0
 45 46  1  1  0  0  0
 45 50  1  0  0  0  0
 47 45  1  0  0  0  0
 47 40  2  0  0  0  0
 48 42  1  0  0  0  0
 49 39  1  1  0  0  0
 49 43  1  0  0  0  0
 50 41  1  0  0  0  0
M  END
>  <MODEL>
4

>  <REMARK>
 VINA RESULT:      -6.2      2.965      8.480
  Name = 
  15 active torsions:
  status: ('A' for Active; 'I' for Inactive)
    1  A    between atoms: C_3  and  C_23
    2  A    between atoms: C_5  and  N_17
    3  A    between atoms: C_5  and  C_18
    4  A    between atoms: C_7  and  C_33
    5  A    between atoms: C_8  and  C_28
    6  A    between atoms: C_9  and  C_33
    7  A    between atoms: C_9  and  C_46
    8  A    between atoms: N_14  and  C_23
    9  A    between atoms: N_17  and  C_41
   10  A    between atoms: C_27  and  C_48
   11  A    between atoms: C_34  and  S_42
   12  A    between atoms: C_35  and  C_40
   13  A    between atoms: C_37  and  C_40
   14  A    between atoms: C_41  and  C_46
   15  A    between atoms: S_42  and  C_44
                            x       y       z     vdW  Elec       q    Type
                         _______ _______ _______ _____ _____    ______ ____

>  <TORSDO>
F 15

$$$$
=
 OpenBabel10232410383D

 50 54  0  0  1  0  0  0  0  0999 V2000
  184.0750  178.9200  139.4830 C   0  0  2  0  0  3  0  0  0  0  0  0
  186.1800  178.2930  137.8410 C   0  0  0  0  0  0  0  0  0  0  0  0
  187.3100  178.3080  137.1980 C   0  0  0  0  0  3  0  0  0  0  0  0
  183.7500  177.6390  138.9420 C   0  0  2  0  0  3  0  0  0  0  0  0
  185.0600  178.2860  138.5070 C   0  0  0  0  0  0  0  0  0  0  0  0
  183.7580  178.4980  141.8730 C   0  0  0  0  0  3  0  0  0  0  0  0
  184.5920  178.7630  140.8720 C   0  0  0  0  0  3  0  0  0  0  0  0
  184.2850  178.3360  143.2590 C   0  0  0  0  0  2  0  0  0  0  0  0
  185.7560  178.7060  143.3210 C   0  0  0  0  0  2  0  0  0  0  0  0
  186.5310  177.6460  144.0880 C   0  0  0  0  0  2  0  0  0  0  0  0
  188.3050  178.0670  142.4240 C   0  0  0  0  0  1  0  0  0  0  0  0
  188.0260  177.8250  143.8950 C   0  0  2  0  0  3  0  0  0  0  0  0
  188.7360  176.6300  144.3370 N   0  0  0  0  0  2  0  0  0  0  0  0
  189.8700  176.4350  143.4450 C   0  0  0  0  0  2  0  0  0  0  0  0
  191.1710  176.5600  144.2190 C   0  0  0  0  0  2  0  0  0  0  0  0
  191.9120  175.3850  144.0950 O   0  0  0  0  0  1  0  0  0  0  0  0
  188.3860  177.1300  139.2670 O   0  0  0  0  0  0  0  0  0  0  0  0
  188.8110  177.9800  138.0760 S   0  0  1  0  0  0  0  0  0  0  0  0
  191.7090  175.4920  136.4360 C   0  0  0  0  0  2  0  0  0  0  0  0
  191.2460  177.3460  139.5310 O   0  0  0  0  0  0  0  0  0  0  0  0
  190.9430  176.4070  137.3320 C   0  0  0  0  0  0  0  0  0  0  0  0
  191.7060  176.7180  138.5400 C   0  0  0  0  0  0  0  0  0  0  0  0
  193.3450  176.0380  138.5530 S   0  0  0  0  0  0  0  0  0  0  0  0
  189.0870  176.5050  135.7090 C   0  0  0  0  0  1  0  0  0  0  0  0
  192.7950  174.8290  137.2910 C   0  0  2  0  0  3  0  0  0  0  0  0
  189.7200  176.8780  137.0110 C   0  0  0  0  0  0  0  0  0  0  0  0
  196.6780  174.0530  135.2930 N   0  0  0  0  0  0  0  0  0  0  0  0
  196.0910  175.3390  135.5350 C   0  0  0  0  0  3  0  0  0  0  0  0
  195.3900  171.7570  134.9670 O   0  0  0  0  0  0  0  0  0  0  0  0
  194.8840  175.4890  136.0960 C   0  0  0  0  0  3  0  0  0  0  0  0
  197.0480  171.8880  136.7870 O   0  0  0  0  0  0  0  0  0  0  0  0
  193.9690  174.3400  136.4400 C   0  0  1  0  0  3  0  0  0  0  0  0
  194.7360  173.2140  137.1330 C   0  0  0  0  0  2  0  0  0  0  0  0
  195.9960  172.6400  136.0210 S   0  0  0  0  0  0  0  0  0  0  0  0
  197.8730  173.9300  134.4710 C   0  0  0  0  0  2  0  0  0  0  0  0
  199.1280  174.0820  135.3170 C   0  0  2  0  0  3  0  0  0  0  0  0
  199.7080  175.3320  135.0890 O   0  0  0  0  0  1  0  0  0  0  0  0
  200.1170  172.9980  134.9450 C   0  0  0  0  0  1  0  0  0  0  0  0
  182.7360  177.7800  137.8220 C   0  0  0  0  0  2  0  0  0  0  0  0
  183.4780  175.4500  137.5240 C   0  0  0  0  0  3  0  0  0  0  0  0
  181.5590  175.2660  135.3870 C   0  0  0  0  0  2  0  0  0  0  0  0
  184.5260  173.2520  137.6710 C   0  0  0  0  0  2  0  0  0  0  0  0
  182.0010  176.5050  135.9270 O   0  0  0  0  0  0  0  0  0  0  0  0
  183.1950  171.3570  137.0090 O   0  0  0  0  0  0  0  0  0  0  0  0
  181.9960  173.4390  137.1150 C   0  0  1  0  0  3  0  0  0  0  0  0
  182.2470  172.1460  136.3370 C   0  0  0  0  0  2  0  0  0  0  0  0
  183.3310  174.1220  137.4070 C   0  0  0  0  0  0  0  0  0  0  0  0
  184.4370  171.9880  136.8140 C   0  0  0  0  0  2  0  0  0  0  0  0
  182.3470  176.4110  137.2970 C   0  0  2  0  0  3  0  0  0  0  0  0
  180.9370  174.2880  136.3950 C   0  0  0  0  0  2  0  0  0  0  0  0
  1  7  1  1  0  0  0
  2  5  2  0  0  0  0
  3  2  2  0  0  0  0
  3 18  1  0  0  0  0
  4 39  1  6  0  0  0
  4  1  1  0  0  0  0
  5  4  1  0  0  0  0
  5  1  1  0  0  0  0
  6  8  1  0  0  0  0
  7  6  2  0  0  0  0
  8  9  1  0  0  0  0
  9 10  1  0  0  0  0
 12 11  1  6  0  0  0
 12 10  1  0  0  0  0
 12 13  1  0  0  0  0
 14 15  1  0  0  0  0
 14 13  1  0  0  0  0
 16 15  1  0  0  0  0
 18 17  2  1  0  0  0
 19 21  1  0  0  0  0
 21 22  1  0  0  0  0
 22 23  1  0  0  0  0
 22 20  2  0  0  0  0
 24 26  1  0  0  0  0
 25 19  1  6  0  0  0
 25 23  1  0  0  0  0
 26 21  2  0  0  0  0
 26 18  1  0  0  0  0
 27 28  1  0  0  0  0
 27 34  1  0  0  0  0
 28 30  2  0  0  0  0
 29 34  2  0  0  0  0
 32 30  1  1  0  0  0
 32 33  1  0  0  0  0
 32 25  1  0  0  0  0
 34 31  2  0  0  0  0
 34 33  1  0  0  0  0
 35 27  1  0  0  0  0
 35 36  1  0  0  0  0
 36 38  1  6  0  0  0
 37 36  1  0  0  0  0
 41 43  1  0  0  0  0
 41 50  1  0  0  0  0
 43 49  1  0  0  0  0
 45 46  1  6  0  0  0
 45 47  1  0  0  0  0
 46 44  1  0  0  0  0
 47 40  2  0  0  0  0
 47 42  1  0  0  0  0
 48 44  1  0  0  0  0
 48 42  1  0  0  0  0
 49 40  1  0  0  0  0
 49 39  1  6  0  0  0
 50 45  1  0  0  0  0
M  END
>  <MODEL>
5

>  <REMARK>
 VINA RESULT:      -5.8      3.588      8.793
  Name = 
  15 active torsions:
  status: ('A' for Active; 'I' for Inactive)
    1  A    between atoms: C_3  and  C_23
    2  A    between atoms: C_5  and  N_17
    3  A    between atoms: C_5  and  C_18
    4  A    between atoms: C_7  and  C_33
    5  A    between atoms: C_8  and  C_28
    6  A    between atoms: C_9  and  C_33
    7  A    between atoms: C_9  and  C_46
    8  A    between atoms: N_14  and  C_23
    9  A    between atoms: N_17  and  C_41
   10  A    between atoms: C_27  and  C_48
   11  A    between atoms: C_34  and  S_42
   12  A    between atoms: C_35  and  C_40
   13  A    between atoms: C_37  and  C_40
   14  A    between atoms: C_41  and  C_46
   15  A    between atoms: S_42  and  C_44
                            x       y       z     vdW  Elec       q    Type
                         _______ _______ _______ _____ _____    ______ ____

>  <TORSDO>
F 15

$$$$
=
 OpenBabel10232410383D

 50 54  0  0  1  0  0  0  0  0999 V2000
  189.5500  172.6890  134.5210 C   0  0  2  0  0  3  0  0  0  0  0  0
  190.3150  175.2230  135.2360 C   0  0  0  0  0  0  0  0  0  0  0  0
  190.3680  176.5120  135.4020 C   0  0  0  0  0  3  0  0  0  0  0  0
  190.7220  172.5080  135.3150 C   0  0  2  0  0  3  0  0  0  0  0  0
  190.2360  173.9330  135.0750 C   0  0  0  0  0  0  0  0  0  0  0  0
  187.1570  172.2320  134.7490 C   0  0  0  0  0  3  0  0  0  0  0  0
  188.3380  172.3930  135.3370 C   0  0  0  0  0  3  0  0  0  0  0  0
  185.9510  171.9270  135.5720 C   0  0  0  0  0  2  0  0  0  0  0  0
  185.1080  173.1740  135.7700 C   0  0  0  0  0  2  0  0  0  0  0  0
  184.5570  173.2160  137.1870 C   0  0  0  0  0  2  0  0  0  0  0  0
  182.9130  174.4780  135.8470 C   0  0  0  0  0  1  0  0  0  0  0  0
  183.2100  173.9150  137.2240 C   0  0  2  0  0  3  0  0  0  0  0  0
  183.2330  174.9960  138.2010 N   0  0  0  0  0  2  0  0  0  0  0  0
  182.7010  176.1870  137.5540 C   0  0  0  0  0  2  0  0  0  0  0  0
  183.6000  177.3790  137.8310 C   0  0  0  0  0  2  0  0  0  0  0  0
  184.9320  176.9680  137.8840 O   0  0  0  0  0  1  0  0  0  0  0  0
  187.9290  176.5640  136.3350 O   0  0  0  0  0  0  0  0  0  0  0  0
  189.2550  177.2860  136.5380 S   0  0  1  0  0  0  0  0  0  0  0  0
  189.7820  176.8250  140.6360 C   0  0  0  0  0  2  0  0  0  0  0  0
  187.5270  178.6470  138.4390 O   0  0  0  0  0  0  0  0  0  0  0  0
  189.2950  177.2470  139.2900 C   0  0  0  0  0  0  0  0  0  0  0  0
  188.2190  178.2310  139.4060 C   0  0  0  0  0  0  0  0  0  0  0  0
  187.8790  178.7340  141.0740 S   0  0  0  0  0  0  0  0  0  0  0  0
  190.9650  175.8010  138.1900 C   0  0  0  0  0  1  0  0  0  0  0  0
  188.6890  177.1940  141.6470 C   0  0  2  0  0  3  0  0  0  0  0  0
  189.8290  176.7720  138.1460 C   0  0  0  0  0  0  0  0  0  0  0  0
  189.7480  176.9620  145.9480 N   0  0  0  0  0  0  0  0  0  0  0  0
  188.4230  176.9540  145.3990 C   0  0  0  0  0  3  0  0  0  0  0  0
  191.9000  178.0880  144.8810 O   0  0  0  0  0  0  0  0  0  0  0  0
  188.1820  177.0850  144.0880 C   0  0  0  0  0  3  0  0  0  0  0  0
  191.9930  175.6700  145.3560 O   0  0  0  0  0  0  0  0  0  0  0  0
  189.2530  177.3550  143.0600 C   0  0  1  0  0  3  0  0  0  0  0  0
  190.4710  176.4600  143.2850 C   0  0  0  0  0  2  0  0  0  0  0  0
  191.1170  176.8050  144.9030 S   0  0  0  0  0  0  0  0  0  0  0  0
  189.9520  177.0580  147.3860 C   0  0  0  0  0  2  0  0  0  0  0  0
  188.9830  178.0550  148.0020 C   0  0  2  0  0  3  0  0  0  0  0  0
  189.6260  178.7910  148.9990 O   0  0  0  0  0  1  0  0  0  0  0  0
  187.8140  177.3090  148.6080 C   0  0  0  0  0  1  0  0  0  0  0  0
  191.9250  172.2430  134.4280 C   0  0  0  0  0  2  0  0  0  0  0  0
  193.8230  173.7450  134.8940 C   0  0  0  0  0  3  0  0  0  0  0  0
  195.2830  171.4050  135.7190 C   0  0  0  0  0  2  0  0  0  0  0  0
  195.3410  175.6260  135.2150 C   0  0  0  0  0  2  0  0  0  0  0  0
  194.0870  171.3420  134.9520 O   0  0  0  0  0  0  0  0  0  0  0  0
  196.9840  175.4230  136.9650 O   0  0  0  0  0  0  0  0  0  0  0  0
  195.3480  173.6600  136.9130 C   0  0  1  0  0  3  0  0  0  0  0  0
  196.8240  174.0320  137.0750 C   0  0  0  0  0  2  0  0  0  0  0  0
  194.8070  174.2850  135.6280 C   0  0  0  0  0  0  0  0  0  0  0  0
  196.8180  175.7290  135.6020 C   0  0  0  0  0  2  0  0  0  0  0  0
  193.2060  172.4170  135.2240 C   0  0  2  0  0  3  0  0  0  0  0  0
  195.1690  172.1420  137.0630 C   0  0  0  0  0  2  0  0  0  0  0  0
  1  5  1  0  0  0  0
  1  4  1  0  0  0  0
  1  7  1  1  0  0  0
  2  3  2  0  0  0  0
  3 18  1  0  0  0  0
  4 39  1  6  0  0  0
  5  2  2  0  0  0  0
  5  4  1  0  0  0  0
  6  7  2  0  0  0  0
  6  8  1  0  0  0  0
  8  9  1  0  0  0  0
  9 10  1  0  0  0  0
 10 12  1  0  0  0  0
 12 11  1  6  0  0  0
 12 13  1  0  0  0  0
 14 15  1  0  0  0  0
 14 13  1  0  0  0  0
 15 16  1  0  0  0  0
 18 17  2  6  0  0  0
 18 26  1  0  0  0  0
 20 22  2  0  0  0  0
 21 22  1  0  0  0  0
 21 19  1  0  0  0  0
 22 23  1  0  0  0  0
 23 25  1  0  0  0  0
 25 19  1  6  0  0  0
 25 32  1  0  0  0  0
 26 24  1  0  0  0  0
 26 21  2  0  0  0  0
 27 35  1  0  0  0  0
 28 27  1  0  0  0  0
 29 34  2  0  0  0  0
 30 28  2  0  0  0  0
 32 33  1  1  0  0  0
 32 30  1  0  0  0  0
 33 34  1  0  0  0  0
 34 31  2  0  0  0  0
 34 27  1  0  0  0  0
 35 36  1  0  0  0  0
 36 38  1  1  0  0  0
 36 37  1  0  0  0  0
 40 49  1  0  0  0  0
 40 47  2  0  0  0  0
 41 50  1  0  0  0  0
 42 48  1  0  0  0  0
 42 47  1  0  0  0  0
 43 49  1  0  0  0  0
 43 41  1  0  0  0  0
 44 46  1  0  0  0  0
 45 50  1  6  0  0  0
 45 46  1  0  0  0  0
 47 45  1  0  0  0  0
 48 44  1  0  0  0  0
 49 39  1  6  0  0  0
M  END
>  <MODEL>
6

>  <REMARK>
 VINA RESULT:      -5.6      3.355     10.209
  Name = 
  15 active torsions:
  status: ('A' for Active; 'I' for Inactive)
    1  A    between atoms: C_3  and  C_23
    2  A    between atoms: C_5  and  N_17
    3  A    between atoms: C_5  and  C_18
    4  A    between atoms: C_7  and  C_33
    5  A    between atoms: C_8  and  C_28
    6  A    between atoms: C_9  and  C_33
    7  A    between atoms: C_9  and  C_46
    8  A    between atoms: N_14  and  C_23
    9  A    between atoms: N_17  and  C_41
   10  A    between atoms: C_27  and  C_48
   11  A    between atoms: C_34  and  S_42
   12  A    between atoms: C_35  and  C_40
   13  A    between atoms: C_37  and  C_40
   14  A    between atoms: C_41  and  C_46
   15  A    between atoms: S_42  and  C_44
                            x       y       z     vdW  Elec       q    Type
                         _______ _______ _______ _____ _____    ______ ____

>  <TORSDO>
F 15

$$$$
=
 OpenBabel10232410383D

 50 54  0  0  1  0  0  0  0  0999 V2000
  189.4800  178.1290  139.6980 C   0  0  2  0  0  3  0  0  0  0  0  0
  187.0020  177.9490  138.5370 C   0  0  0  0  0  0  0  0  0  0  0  0
  186.0160  177.9640  137.6890 C   0  0  0  0  0  3  0  0  0  0  0  0
  188.6260  177.6360  140.7300 C   0  0  2  0  0  3  0  0  0  0  0  0
  188.0060  177.9230  139.3670 C   0  0  0  0  0  0  0  0  0  0  0  0
  191.5880  177.1220  138.9690 C   0  0  0  0  0  3  0  0  0  0  0  0
  190.2730  177.0050  139.1220 C   0  0  0  0  0  3  0  0  0  0  0  0
  192.3760  175.9900  138.3990 C   0  0  0  0  0  2  0  0  0  0  0  0
  193.7970  176.0040  138.9310 C   0  0  0  0  0  2  0  0  0  0  0  0
  194.6340  174.9520  138.2190 C   0  0  0  0  0  2  0  0  0  0  0  0
  195.8640  175.4110  140.3100 C   0  0  0  0  0  1  0  0  0  0  0  0
  195.8160  174.5320  139.0740 C   0  0  2  0  0  3  0  0  0  0  0  0
  197.0560  174.6760  138.3220 N   0  0  0  0  0  2  0  0  0  0  0  0
  198.1060  175.0320  139.2660 C   0  0  0  0  0  2  0  0  0  0  0  0
  199.4660  174.6610  138.7000 C   0  0  0  0  0  2  0  0  0  0  0  0
  199.3230  173.6680  137.7310 O   0  0  0  0  0  1  0  0  0  0  0  0
  185.0140  177.2750  135.3770 O   0  0  0  0  0  0  0  0  0  0  0  0
  185.9060  176.6910  136.4650 S   0  0  1  0  0  0  0  0  0  0  0  0
  189.5820  175.3980  135.0190 C   0  0  0  0  0  2  0  0  0  0  0  0
  186.5900  173.8670  136.4090 O   0  0  0  0  0  0  0  0  0  0  0  0
  188.2130  175.4590  135.6090 C   0  0  0  0  0  0  0  0  0  0  0  0
  187.7580  174.1300  136.0170 C   0  0  0  0  0  0  0  0  0  0  0  0
  188.9780  172.8570  135.8170 S   0  0  0  0  0  0  0  0  0  0  0  0
  188.1590  177.9100  135.3260 C   0  0  0  0  0  1  0  0  0  0  0  0
  189.8330  173.9410  134.6120 C   0  0  2  0  0  3  0  0  0  0  0  0
  187.5370  176.6180  135.7490 C   0  0  0  0  0  0  0  0  0  0  0  0
  194.2610  173.8190  134.8470 N   0  0  0  0  0  0  0  0  0  0  0  0
  193.4630  174.9440  134.4530 C   0  0  0  0  0  3  0  0  0  0  0  0
  193.6230  171.2560  134.5950 O   0  0  0  0  0  0  0  0  0  0  0  0
  192.1280  174.8850  134.3520 C   0  0  0  0  0  3  0  0  0  0  0  0
  194.1360  172.0890  136.8590 O   0  0  0  0  0  0  0  0  0  0  0  0
  191.3280  173.6200  134.5390 C   0  0  1  0  0  3  0  0  0  0  0  0
  191.7980  172.8470  135.7700 C   0  0  0  0  0  2  0  0  0  0  0  0
  193.5070  172.4230  135.5350 S   0  0  0  0  0  0  0  0  0  0  0  0
  195.7100  173.8580  134.7120 C   0  0  0  0  0  2  0  0  0  0  0  0
  196.1890  175.2760  134.4450 C   0  0  2  0  0  3  0  0  0  0  0  0
  197.5810  175.3000  134.3530 O   0  0  0  0  0  1  0  0  0  0  0  0
  195.7480  176.1750  135.5810 C   0  0  0  0  0  1  0  0  0  0  0  0
  188.2530  178.7550  141.6850 C   0  0  0  0  0  2  0  0  0  0  0  0
  189.6960  177.8700  143.4750 C   0  0  0  0  0  3  0  0  0  0  0  0
  187.3270  176.6840  144.6000 C   0  0  0  0  0  2  0  0  0  0  0  0
  191.5180  177.2830  144.9870 C   0  0  0  0  0  2  0  0  0  0  0  0
  187.3940  177.1630  143.2630 O   0  0  0  0  0  0  0  0  0  0  0  0
  190.9570  176.9630  147.3080 O   0  0  0  0  0  0  0  0  0  0  0  0
  189.1680  177.8250  145.9500 C   0  0  1  0  0  3  0  0  0  0  0  0
  189.5810  176.8450  147.0500 C   0  0  0  0  0  2  0  0  0  0  0  0
  190.0820  177.6440  144.7390 C   0  0  0  0  0  0  0  0  0  0  0  0
  191.6130  176.3720  146.2130 C   0  0  0  0  0  2  0  0  0  0  0  0
  188.2890  178.2510  143.1160 C   0  0  2  0  0  3  0  0  0  0  0  0
  187.6580  177.7160  145.6900 C   0  0  0  0  0  2  0  0  0  0  0  0
  1  7  1  6  0  0  0
  1  4  1  0  0  0  0
  2  5  2  0  0  0  0
  3  2  2  0  0  0  0
  4 39  1  1  0  0  0
  5  1  1  0  0  0  0
  5  4  1  0  0  0  0
  6  7  2  0  0  0  0
  8  9  1  0  0  0  0
  8  6  1  0  0  0  0
 10  9  1  0  0  0  0
 10 12  1  0  0  0  0
 12 11  1  1  0  0  0
 13 12  1  0  0  0  0
 13 14  1  0  0  0  0
 15 14  1  0  0  0  0
 16 15  1  0  0  0  0
 18 17  2  6  0  0  0
 18  3  1  0  0  0  0
 19 21  1  0  0  0  0
 21 26  2  0  0  0  0
 21 22  1  0  0  0  0
 22 20  2  0  0  0  0
 23 22  1  0  0  0  0
 24 26  1  0  0  0  0
 25 19  1  1  0  0  0
 25 23  1  0  0  0  0
 26 18  1  0  0  0  0
 27 34  1  0  0  0  0
 28 27  1  0  0  0  0
 29 34  2  0  0  0  0
 30 28  2  0  0  0  0
 32 30  1  1  0  0  0
 32 25  1  0  0  0  0
 32 33  1  0  0  0  0
 34 33  1  0  0  0  0
 34 31  2  0  0  0  0
 35 27  1  0  0  0  0
 36 35  1  0  0  0  0
 36 38  1  1  0  0  0
 37 36  1  0  0  0  0
 40 47  2  0  0  0  0
 41 50  1  0  0  0  0
 42 48  1  0  0  0  0
 43 41  1  0  0  0  0
 45 50  1  6  0  0  0
 45 46  1  0  0  0  0
 46 44  1  0  0  0  0
 47 42  1  0  0  0  0
 47 45  1  0  0  0  0
 48 44  1  0  0  0  0
 49 39  1  6  0  0  0
 49 43  1  0  0  0  0
 49 40  1  0  0  0  0
M  END
>  <MODEL>
7

>  <REMARK>
 VINA RESULT:      -5.6      3.368      5.769
  Name = 
  15 active torsions:
  status: ('A' for Active; 'I' for Inactive)
    1  A    between atoms: C_3  and  C_23
    2  A    between atoms: C_5  and  N_17
    3  A    between atoms: C_5  and  C_18
    4  A    between atoms: C_7  and  C_33
    5  A    between atoms: C_8  and  C_28
    6  A    between atoms: C_9  and  C_33
    7  A    between atoms: C_9  and  C_46
    8  A    between atoms: N_14  and  C_23
    9  A    between atoms: N_17  and  C_41
   10  A    between atoms: C_27  and  C_48
   11  A    between atoms: C_34  and  S_42
   12  A    between atoms: C_35  and  C_40
   13  A    between atoms: C_37  and  C_40
   14  A    between atoms: C_41  and  C_46
   15  A    between atoms: S_42  and  C_44
                            x       y       z     vdW  Elec       q    Type
                         _______ _______ _______ _____ _____    ______ ____

>  <TORSDO>
F 15

$$$$
=
 OpenBabel10232410383D

 50 54  0  0  1  0  0  0  0  0999 V2000
  188.9110  175.4210  134.6000 C   0  0  2  0  0  3  0  0  0  0  0  0
  189.0680  177.5950  136.2640 C   0  0  0  0  0  0  0  0  0  0  0  0
  188.8050  178.6830  136.9260 C   0  0  0  0  0  3  0  0  0  0  0  0
  190.1650  175.2830  135.2670 C   0  0  2  0  0  3  0  0  0  0  0  0
  189.3070  176.4960  135.6060 C   0  0  0  0  0  0  0  0  0  0  0  0
  188.2480  173.2790  135.5800 C   0  0  0  0  0  3  0  0  0  0  0  0
  187.9060  174.5130  135.2240 C   0  0  0  0  0  3  0  0  0  0  0  0
  187.2390  172.3790  136.2110 C   0  0  0  0  0  2  0  0  0  0  0  0
  185.8300  172.8660  135.9210 C   0  0  0  0  0  2  0  0  0  0  0  0
  185.1460  173.2890  137.2120 C   0  0  0  0  0  2  0  0  0  0  0  0
  183.7550  171.3990  136.4490 C   0  0  0  0  0  1  0  0  0  0  0  0
  183.7920  172.6170  137.3520 C   0  0  2  0  0  3  0  0  0  0  0  0
  182.7310  173.5420  136.9710 N   0  0  0  0  0  2  0  0  0  0  0  0
  182.7990  174.6860  137.8700 C   0  0  0  0  0  2  0  0  0  0  0  0
  182.8570  175.9760  137.0710 C   0  0  0  0  0  2  0  0  0  0  0  0
  183.3500  177.0080  137.8700 O   0  0  0  0  0  1  0  0  0  0  0  0
  186.6050  177.6070  137.8350 O   0  0  0  0  0  0  0  0  0  0  0  0
  187.6530  178.6240  138.2680 S   0  0  1  0  0  0  0  0  0  0  0  0
  188.8460  177.1660  141.9730 C   0  0  0  0  0  2  0  0  0  0  0  0
  185.9470  178.8850  140.6060 O   0  0  0  0  0  0  0  0  0  0  0  0
  188.0900  177.8130  140.8610 C   0  0  0  0  0  0  0  0  0  0  0  0
  186.8450  178.4060  141.3480 C   0  0  0  0  0  0  0  0  0  0  0  0
  186.6380  178.3040  143.1080 S   0  0  0  0  0  0  0  0  0  0  0  0
  189.8730  177.2290  139.2580 C   0  0  0  0  0  1  0  0  0  0  0  0
  187.8520  176.9320  143.1170 C   0  0  2  0  0  3  0  0  0  0  0  0
  188.5510  177.8410  139.5930 C   0  0  0  0  0  0  0  0  0  0  0  0
  190.4060  177.3280  146.7220 N   0  0  0  0  0  0  0  0  0  0  0  0
  190.8560  177.3220  145.3600 C   0  0  0  0  0  3  0  0  0  0  0  0
  188.2320  176.1460  147.6790 O   0  0  0  0  0  0  0  0  0  0  0  0
  190.0260  177.1400  144.3250 C   0  0  0  0  0  3  0  0  0  0  0  0
  188.4480  178.5810  148.0080 O   0  0  0  0  0  0  0  0  0  0  0  0
  188.5590  176.8230  144.4710 C   0  0  1  0  0  3  0  0  0  0  0  0
  187.9030  177.7190  145.5210 C   0  0  0  0  0  2  0  0  0  0  0  0
  188.7160  177.4340  147.0730 S   0  0  0  0  0  0  0  0  0  0  0  0
  191.3650  177.2870  147.8170 C   0  0  0  0  0  2  0  0  0  0  0  0
  191.9770  175.9020  147.9470 C   0  0  2  0  0  3  0  0  0  0  0  0
  193.1390  175.9640  148.7190 O   0  0  0  0  0  1  0  0  0  0  0  0
  192.3210  175.3760  146.5690 C   0  0  0  0  0  1  0  0  0  0  0  0
  191.2980  175.7210  134.3570 C   0  0  0  0  0  2  0  0  0  0  0  0
  193.7030  176.2200  134.5550 C   0  0  0  0  0  3  0  0  0  0  0  0
  194.1080  173.3970  134.9460 C   0  0  0  0  0  2  0  0  0  0  0  0
  195.9150  177.2370  134.7040 C   0  0  0  0  0  2  0  0  0  0  0  0
  192.9070  173.9410  134.4120 O   0  0  0  0  0  0  0  0  0  0  0  0
  197.5370  176.1340  136.1010 O   0  0  0  0  0  0  0  0  0  0  0  0
  195.3100  175.2360  136.2450 C   0  0  1  0  0  3  0  0  0  0  0  0
  196.8080  174.9350  136.1530 C   0  0  0  0  0  2  0  0  0  0  0  0
  194.9170  176.1970  135.1250 C   0  0  0  0  0  0  0  0  0  0  0  0
  197.3290  176.6640  134.8150 C   0  0  0  0  0  2  0  0  0  0  0  0
  192.6260  175.2360  134.9100 C   0  0  2  0  0  3  0  0  0  0  0  0
  194.5150  173.9240  136.3310 C   0  0  0  0  0  2  0  0  0  0  0  0
  1  7  1  1  0  0  0
  1  4  1  0  0  0  0
  1  5  1  0  0  0  0
  2  3  2  0  0  0  0
  3 18  1  0  0  0  0
  4 39  1  6  0  0  0
  4  5  1  0  0  0  0
  5  2  2  0  0  0  0
  6  8  1  0  0  0  0
  7  6  2  0  0  0  0
  9  8  1  0  0  0  0
  9 10  1  0  0  0  0
 10 12  1  0  0  0  0
 12 11  1  6  0  0  0
 13 12  1  0  0  0  0
 13 14  1  0  0  0  0
 15 14  1  0  0  0  0
 15 16  1  0  0  0  0
 18 17  2  6  0  0  0
 18 26  1  0  0  0  0
 20 22  2  0  0  0  0
 21 22  1  0  0  0  0
 21 19  1  0  0  0  0
 22 23  1  0  0  0  0
 23 25  1  0  0  0  0
 24 26  1  0  0  0  0
 25 19  1  6  0  0  0
 25 32  1  0  0  0  0
 26 21  2  0  0  0  0
 27 34  1  0  0  0  0
 27 35  1  0  0  0  0
 28 27  1  0  0  0  0
 30 28  2  0  0  0  0
 32 30  1  6  0  0  0
 32 33  1  0  0  0  0
 33 34  1  0  0  0  0
 34 29  2  0  0  0  0
 34 31  2  0  0  0  0
 35 36  1  0  0  0  0
 36 38  1  6  0  0  0
 36 37  1  0  0  0  0
 40 49  1  0  0  0  0
 40 47  2  0  0  0  0
 41 50  1  0  0  0  0
 42 48  1  0  0  0  0
 42 47  1  0  0  0  0
 43 49  1  0  0  0  0
 43 41  1  0  0  0  0
 44 46  1  0  0  0  0
 45 46  1  6  0  0  0
 45 50  1  0  0  0  0
 47 45  1  0  0  0  0
 48 44  1  0  0  0  0
 49 39  1  6  0  0  0
M  END
>  <MODEL>
8

>  <REMARK>
 VINA RESULT:      -5.4      3.392      9.966
  Name = 
  15 active torsions:
  status: ('A' for Active; 'I' for Inactive)
    1  A    between atoms: C_3  and  C_23
    2  A    between atoms: C_5  and  N_17
    3  A    between atoms: C_5  and  C_18
    4  A    between atoms: C_7  and  C_33
    5  A    between atoms: C_8  and  C_28
    6  A    between atoms: C_9  and  C_33
    7  A    between atoms: C_9  and  C_46
    8  A    between atoms: N_14  and  C_23
    9  A    between atoms: N_17  and  C_41
   10  A    between atoms: C_27  and  C_48
   11  A    between atoms: C_34  and  S_42
   12  A    between atoms: C_35  and  C_40
   13  A    between atoms: C_37  and  C_40
   14  A    between atoms: C_41  and  C_46
   15  A    between atoms: S_42  and  C_44
                            x       y       z     vdW  Elec       q    Type
                         _______ _______ _______ _____ _____    ______ ____

>  <TORSDO>
F 15

$$$$
=
 OpenBabel10232410383D

 50 54  0  0  1  0  0  0  0  0999 V2000
  185.0400  177.9530  142.5960 C   0  0  2  0  0  3  0  0  0  0  0  0
  187.4410  177.7160  141.2930 C   0  0  0  0  0  0  0  0  0  0  0  0
  188.3770  177.4020  140.4460 C   0  0  0  0  0  3  0  0  0  0  0  0
  185.9380  178.7870  143.3280 C   0  0  2  0  0  3  0  0  0  0  0  0
  186.4860  178.0340  142.1210 C   0  0  0  0  0  0  0  0  0  0  0  0
  182.9650  178.3850  141.3720 C   0  0  0  0  0  3  0  0  0  0  0  0
  184.1850  178.7920  141.7080 C   0  0  0  0  0  3  0  0  0  0  0  0
  182.1130  179.2340  140.4890 C   0  0  0  0  0  2  0  0  0  0  0  0
  182.8260  179.5350  139.1830 C   0  0  0  0  0  2  0  0  0  0  0  0
  182.2510  180.7920  138.5490 C   0  0  0  0  0  2  0  0  0  0  0  0
  181.0460  179.6460  136.7250 C   0  0  0  0  0  1  0  0  0  0  0  0
  180.8820  180.5190  137.9540 C   0  0  2  0  0  3  0  0  0  0  0  0
  180.2380  181.7730  137.5810 N   0  0  0  0  0  2  0  0  0  0  0  0
  181.2020  182.8440  137.7930 C   0  0  0  0  0  2  0  0  0  0  0  0
  180.6650  184.1500  137.2330 C   0  0  0  0  0  2  0  0  0  0  0  0
  181.4690  184.5800  136.1780 O   0  0  0  0  0  1  0  0  0  0  0  0
  189.8450  178.4770  138.5720 O   0  0  0  0  0  0  0  0  0  0  0  0
  188.3820  178.1530  138.8440 S   0  0  1  0  0  0  0  0  0  0  0  0
  186.3770  175.4650  136.3860 C   0  0  0  0  0  2  0  0  0  0  0  0
  185.5270  178.4010  138.3580 O   0  0  0  0  0  0  0  0  0  0  0  0
  186.7170  176.5850  137.3130 C   0  0  0  0  0  0  0  0  0  0  0  0
  185.5180  177.3240  137.7040 C   0  0  0  0  0  0  0  0  0  0  0  0
  184.0070  176.6300  137.0810 S   0  0  0  0  0  0  0  0  0  0  0  0
  189.1000  175.9430  137.2750 C   0  0  0  0  0  1  0  0  0  0  0  0
  184.9940  175.7710  135.7990 C   0  0  2  0  0  3  0  0  0  0  0  0
  187.9790  176.8230  137.7270 C   0  0  0  0  0  0  0  0  0  0  0  0
  183.6220  171.6580  134.8640 N   0  0  0  0  0  0  0  0  0  0  0  0
  184.9700  172.1400  134.7880 C   0  0  0  0  0  3  0  0  0  0  0  0
  181.4070  173.0880  134.5710 O   0  0  0  0  0  0  0  0  0  0  0  0
  185.2980  173.4150  135.0320 C   0  0  0  0  0  3  0  0  0  0  0  0
  181.6990  171.8530  136.6860 O   0  0  0  0  0  0  0  0  0  0  0  0
  184.2900  174.5020  135.3130 C   0  0  1  0  0  3  0  0  0  0  0  0
  183.2330  174.0280  136.3100 C   0  0  0  0  0  2  0  0  0  0  0  0
  182.3980  172.6290  135.6050 S   0  0  0  0  0  0  0  0  0  0  0  0
  183.2810  170.3350  134.3610 C   0  0  0  0  0  2  0  0  0  0  0  0
  183.0360  169.3680  135.5090 C   0  0  2  0  0  3  0  0  0  0  0  0
  184.2240  168.7130  135.8420 O   0  0  0  0  0  1  0  0  0  0  0  0
  182.0020  168.3440  135.0890 C   0  0  0  0  0  1  0  0  0  0  0  0
  186.3960  178.0870  144.5940 C   0  0  0  0  0  2  0  0  0  0  0  0
  188.3990  177.4470  145.8780 C   0  0  0  0  0  3  0  0  0  0  0  0
  189.9540  178.6180  143.7570 C   0  0  0  0  0  2  0  0  0  0  0  0
  190.0140  176.5810  147.4890 C   0  0  0  0  0  2  0  0  0  0  0  0
  188.5660  178.8710  143.9310 O   0  0  0  0  0  0  0  0  0  0  0  0
  192.1500  175.8750  146.6290 O   0  0  0  0  0  0  0  0  0  0  0  0
  190.5230  176.4330  144.9460 C   0  0  1  0  0  3  0  0  0  0  0  0
  191.9780  176.5460  145.4060 C   0  0  0  0  0  2  0  0  0  0  0  0
  189.5980  176.8800  146.0770 C   0  0  0  0  0  0  0  0  0  0  0  0
  191.5360  176.6800  147.6050 C   0  0  0  0  0  2  0  0  0  0  0  0
  187.8790  177.7750  144.5090 C   0  0  2  0  0  3  0  0  0  0  0  0
  190.3430  177.1410  143.5950 C   0  0  0  0  0  2  0  0  0  0  0  0
  1  7  1  6  0  0  0
  1  4  1  0  0  0  0
  2  5  2  0  0  0  0
  3  2  2  0  0  0  0
  4 39  1  1  0  0  0
  5  1  1  0  0  0  0
  5  4  1  0  0  0  0
  6  7  2  0  0  0  0
  8  6  1  0  0  0  0
  9  8  1  0  0  0  0
 10  9  1  0  0  0  0
 12 11  1  6  0  0  0
 12 10  1  0  0  0  0
 13 14  1  0  0  0  0
 13 12  1  0  0  0  0
 15 14  1  0  0  0  0
 16 15  1  0  0  0  0
 18 17  2  6  0  0  0
 18  3  1  0  0  0  0
 19 21  1  0  0  0  0
 21 22  1  0  0  0  0
 21 26  2  0  0  0  0
 22 20  2  0  0  0  0
 23 22  1  0  0  0  0
 24 26  1  0  0  0  0
 25 19  1  1  0  0  0
 25 23  1  0  0  0  0
 26 18  1  0  0  0  0
 27 34  1  0  0  0  0
 28 27  1  0  0  0  0
 28 30  2  0  0  0  0
 29 34  2  0  0  0  0
 32 30  1  1  0  0  0
 32 25  1  0  0  0  0
 32 33  1  0  0  0  0
 34 33  1  0  0  0  0
 34 31  2  0  0  0  0
 35 27  1  0  0  0  0
 35 36  1  0  0  0  0
 36 38  1  6  0  0  0
 36 37  1  0  0  0  0
 40 47  2  0  0  0  0
 41 43  1  0  0  0  0
 42 48  1  0  0  0  0
 43 49  1  0  0  0  0
 44 48  1  0  0  0  0
 45 50  1  6  0  0  0
 45 46  1  0  0  0  0
 45 47  1  0  0  0  0
 46 44  1  0  0  0  0
 47 42  1  0  0  0  0
 49 39  1  1  0  0  0
 49 40  1  0  0  0  0
 50 41  1  0  0  0  0
M  END
>  <MODEL>
9

>  <REMARK>
 VINA RESULT:      -5.3      3.481      6.879
  Name = 
  15 active torsions:
  status: ('A' for Active; 'I' for Inactive)
    1  A    between atoms: C_3  and  C_23
    2  A    between atoms: C_5  and  N_17
    3  A    between atoms: C_5  and  C_18
    4  A    between atoms: C_7  and  C_33
    5  A    between atoms: C_8  and  C_28
    6  A    between atoms: C_9  and  C_33
    7  A    between atoms: C_9  and  C_46
    8  A    between atoms: N_14  and  C_23
    9  A    between atoms: N_17  and  C_41
   10  A    between atoms: C_27  and  C_48
   11  A    between atoms: C_34  and  S_42
   12  A    between atoms: C_35  and  C_40
   13  A    between atoms: C_37  and  C_40
   14  A    between atoms: C_41  and  C_46
   15  A    between atoms: S_42  and  C_44
                            x       y       z     vdW  Elec       q    Type
                         _______ _______ _______ _____ _____    ______ ____

>  <TORSDO>
F 15

$$$$
