=
 OpenBabel10222421303D

 34 37  0  0  1  0  0  0  0  0999 V2000
  190.3720  177.2080  142.5140 C   0  0  0  0  0  0  0  0  0  0  0  0
  190.5100  177.2690  141.1250 C   0  0  0  0  0  3  0  0  0  0  0  0
  191.0810  176.6640  144.7640 C   0  0  0  0  0  0  0  0  0  0  0  0
  189.3850  177.8320  140.5140 C   0  0  0  0  0  0  0  0  0  0  0  0
  190.6470  176.5660  147.5260 C   0  0  0  0  0  3  0  0  0  0  0  0
  191.3270  176.6880  143.3840 O   0  0  0  0  0  0  0  0  0  0  0  0
  188.8610  177.7370  144.3920 N   0  0  0  0  0  0  0  0  0  0  0  0
  188.2570  178.2630  141.7040 S   0  0  0  0  0  0  0  0  0  0  0  0
  192.0530  176.1240  145.6120 C   0  0  0  0  0  3  0  0  0  0  0  0
  191.8370  176.0750  146.9890 C   0  0  0  0  0  0  0  0  0  0  0  0
  189.1850  177.7130  142.9930 C   0  0  0  0  0  0  0  0  0  0  0  0
  189.6710  177.1090  146.6880 C   0  0  0  0  0  3  0  0  0  0  0  0
  192.7820  175.5510  147.8050 F   0  0  0  0  0  0  0  0  0  0  0  0
  189.8640  177.1740  145.2970 C   0  0  0  0  0  0  0  0  0  0  0  0
  189.4500  177.0200  138.0940 N   0  0  0  0  0  0  0  0  0  0  0  0
  189.2620  178.0690  139.0620 C   0  0  0  0  0  0  0  0  0  0  0  0
  188.9720  179.2300  138.6640 O   0  0  0  0  0  0  0  0  0  0  0  0
  190.3580  175.9110  138.3370 C   0  0  0  0  0  1  0  0  0  0  0  0
  187.8980  177.4030  134.3490 C   0  0  0  0  0  1  0  0  0  0  0  0
  188.9150  177.1520  136.8030 C   0  0  0  0  0  0  0  0  0  0  0  0
  188.4550  177.2640  135.6940 C   0  0  0  0  0  0  0  0  0  0  0  0
  187.5520  178.3270  144.7420 C   0  0  2  0  0  3  0  0  0  0  0  0
  186.7500  177.5230  145.7460 C   0  0  0  0  0  2  0  0  0  0  0  0
  186.3990  177.4660  144.2670 C   0  0  1  0  0  3  0  0  0  0  0  0
  185.1980  178.3500  144.0020 C   0  0  0  0  0  2  0  0  0  0  0  0
  184.6410  178.0550  142.6210 C   0  0  0  0  0  2  0  0  0  0  0  0
  183.3220  178.7790  142.4200 C   0  0  0  0  0  2  0  0  0  0  0  0
  181.4680  178.2960  140.9280 O   0  0  0  0  0  1  0  0  0  0  0  0
  182.8250  178.6310  140.9850 C   0  0  2  0  0  3  0  0  0  0  0  0
  183.6380  177.7680  140.2130 O   0  0  0  0  0  0  0  0  0  0  0  0
  184.2140  180.2660  139.0490 O   0  0  0  0  0  1  0  0  0  0  0  0
  183.4090  178.1530  137.4850 O   0  0  0  0  0  0  0  0  0  0  0  0
  184.2950  178.5850  138.8590 P   0  0  0  0  0  0  0  0  0  0  0  0
  185.7350  178.1720  138.6600 O   0  0  0  0  0  1  0  0  0  0  0  0
  1 11  2  0  0  0  0
  1  6  1  0  0  0  0
  2  1  1  0  0  0  0
  3 14  2  0  0  0  0
  3  9  1  0  0  0  0
  4  2  2  0  0  0  0
  4  8  1  0  0  0  0
  6  3  1  0  0  0  0
  7 14  1  0  0  0  0
  8 11  1  0  0  0  0
  9 10  2  0  0  0  0
 10  5  1  0  0  0  0
 10 13  1  0  0  0  0
 11  7  1  0  0  0  0
 12  5  2  0  0  0  0
 14 12  1  0  0  0  0
 15 18  1  0  0  0  0
 15 16  1  0  0  0  0
 16  4  1  0  0  0  0
 17 16  2  0  0  0  0
 19 21  1  0  0  0  0
 20 15  1  0  0  0  0
 21 20  3  0  0  0  0
 22  7  1  6  0  0  0
 22 23  1  0  0  0  0
 24 25  1  1  0  0  0
 24 22  1  0  0  0  0
 24 23  1  0  0  0  0
 26 25  1  0  0  0  0
 27 26  1  0  0  0  0
 29 28  1  1  0  0  0
 29 27  1  0  0  0  0
 30 29  1  0  0  0  0
 32 33  2  0  0  0  0
 33 31  1  0  0  0  0
 33 30  1  0  0  0  0
 34 33  1  0  0  0  0
M  END
>  <MODEL>
1

>  <REMARK>
 VINA RESULT:      -8.7      0.000      0.000
  Name = 
  9 active torsions:
  status: ('A' for Active; 'I' for Inactive)
    1  A    between atoms: C_4  and  N_14
    2  A    between atoms: N_5  and  C_16
    3  A    between atoms: C_10  and  C_26
    4  A    between atoms: C_10  and  C_34
    5  A    between atoms: C_11  and  C_20
    6  A    between atoms: O_17  and  P_22
    7  A    between atoms: O_17  and  C_26
    8  A    between atoms: C_18  and  C_28
    9  A    between atoms: C_28  and  C_34
                            x       y       z     vdW  Elec       q    Type
                         _______ _______ _______ _____ _____    ______ ____

>  <TORSDO>
F 9

$$$$
=
 OpenBabel10222421303D

 34 37  0  0  1  0  0  0  0  0999 V2000
  186.0080  178.5370  143.7790 C   0  0  0  0  0  0  0  0  0  0  0  0
  185.0380  178.9890  142.8800 C   0  0  0  0  0  3  0  0  0  0  0  0
  186.9520  178.1600  145.9770 C   0  0  0  0  0  0  0  0  0  0  0  0
  185.4150  178.7640  141.5520 C   0  0  0  0  0  0  0  0  0  0  0  0
  188.9980  177.2500  147.6550 C   0  0  0  0  0  3  0  0  0  0  0  0
  185.9130  178.6360  145.1650 O   0  0  0  0  0  0  0  0  0  0  0  0
  188.2130  177.4400  143.9490 N   0  0  0  0  0  0  0  0  0  0  0  0
  186.9230  177.9910  141.5190 S   0  0  0  0  0  0  0  0  0  0  0  0
  186.8340  178.2850  147.3640 C   0  0  0  0  0  3  0  0  0  0  0  0
  187.8530  177.8310  148.2020 C   0  0  0  0  0  0  0  0  0  0  0  0
  187.1120  177.9630  143.1900 C   0  0  0  0  0  0  0  0  0  0  0  0
  189.1230  177.1190  146.2700 C   0  0  0  0  0  3  0  0  0  0  0  0
  187.7330  177.9550  149.5440 F   0  0  0  0  0  0  0  0  0  0  0  0
  188.1110  177.5640  145.4040 C   0  0  0  0  0  0  0  0  0  0  0  0
  183.1550  178.8390  140.3650 N   0  0  0  0  0  0  0  0  0  0  0  0
  184.5720  179.0920  140.3850 C   0  0  0  0  0  0  0  0  0  0  0  0
  185.1180  179.6220  139.3790 O   0  0  0  0  0  0  0  0  0  0  0  0
  182.5680  177.7300  141.1010 C   0  0  0  0  0  1  0  0  0  0  0  0
  180.7620  180.8530  137.7590 C   0  0  0  0  0  1  0  0  0  0  0  0
  182.3300  179.5330  139.4670 C   0  0  0  0  0  0  0  0  0  0  0  0
  181.6220  180.1300  138.6960 C   0  0  0  0  0  0  0  0  0  0  0  0
  189.3130  176.8440  143.1640 C   0  0  2  0  0  3  0  0  0  0  0  0
  190.5700  176.5590  143.9620 C   0  0  0  0  0  2  0  0  0  0  0  0
  190.5010  177.7790  143.0560 C   0  0  1  0  0  3  0  0  0  0  0  0
  191.2430  177.4880  141.7670 C   0  0  0  0  0  2  0  0  0  0  0  0
  190.2630  177.0120  140.7100 C   0  0  0  0  0  2  0  0  0  0  0  0
  190.8740  177.1470  139.3260 C   0  0  0  0  0  2  0  0  0  0  0  0
  190.5550  175.0470  138.1500 O   0  0  0  0  0  1  0  0  0  0  0  0
  190.0790  176.3550  138.2930 C   0  0  2  0  0  3  0  0  0  0  0  0
  189.9570  177.0360  137.0590 O   0  0  0  0  0  0  0  0  0  0  0  0
  187.8380  178.0200  135.4890 O   0  0  0  0  0  0  0  0  0  0  0  0
  188.9740  179.5920  137.4390 O   0  0  0  0  0  1  0  0  0  0  0  0
  188.5480  178.0080  137.0260 P   0  0  0  0  0  0  0  0  0  0  0  0
  187.5470  177.4940  138.0360 O   0  0  0  0  0  1  0  0  0  0  0  0
  1  6  1  0  0  0  0
  2  1  1  0  0  0  0
  3  9  1  0  0  0  0
  4  2  2  0  0  0  0
  5 10  1  0  0  0  0
  6  3  1  0  0  0  0
  7 14  1  0  0  0  0
  8  4  1  0  0  0  0
  8 11  1  0  0  0  0
  9 10  2  0  0  0  0
 10 13  1  0  0  0  0
 11  1  2  0  0  0  0
 11  7  1  0  0  0  0
 12  5  2  0  0  0  0
 14  3  2  0  0  0  0
 14 12  1  0  0  0  0
 15 16  1  0  0  0  0
 15 18  1  0  0  0  0
 16  4  1  0  0  0  0
 17 16  2  0  0  0  0
 19 21  1  0  0  0  0
 20 15  1  0  0  0  0
 21 20  3  0  0  0  0
 22  7  1  1  0  0  0
 22 23  1  0  0  0  0
 24 25  1  6  0  0  0
 24 22  1  0  0  0  0
 24 23  1  0  0  0  0
 26 25  1  0  0  0  0
 27 26  1  0  0  0  0
 29 28  1  6  0  0  0
 29 27  1  0  0  0  0
 30 29  1  0  0  0  0
 31 33  2  0  0  0  0
 33 30  1  0  0  0  0
 33 32  1  0  0  0  0
 33 34  1  0  0  0  0
M  END
>  <MODEL>
2

>  <REMARK>
 VINA RESULT:      -8.2      2.700      5.662
  Name = 
  9 active torsions:
  status: ('A' for Active; 'I' for Inactive)
    1  A    between atoms: C_4  and  N_14
    2  A    between atoms: N_5  and  C_16
    3  A    between atoms: C_10  and  C_26
    4  A    between atoms: C_10  and  C_34
    5  A    between atoms: C_11  and  C_20
    6  A    between atoms: O_17  and  P_22
    7  A    between atoms: O_17  and  C_26
    8  A    between atoms: C_18  and  C_28
    9  A    between atoms: C_28  and  C_34
                            x       y       z     vdW  Elec       q    Type
                         _______ _______ _______ _____ _____    ______ ____

>  <TORSDO>
F 9

$$$$
=
 OpenBabel10222421303D

 34 37  0  0  1  0  0  0  0  0999 V2000
  185.8410  178.5320  143.5890 C   0  0  0  0  0  0  0  0  0  0  0  0
  184.8580  179.0090  142.7170 C   0  0  0  0  0  3  0  0  0  0  0  0
  186.8390  178.1320  145.7590 C   0  0  0  0  0  0  0  0  0  0  0  0
  185.1880  178.7710  141.3800 C   0  0  0  0  0  0  0  0  0  0  0  0
  188.9060  177.1670  147.3770 C   0  0  0  0  0  3  0  0  0  0  0  0
  185.7900  178.6360  144.9760 O   0  0  0  0  0  0  0  0  0  0  0  0
  188.0170  177.3720  143.6960 N   0  0  0  0  0  0  0  0  0  0  0  0
  186.6720  177.9540  141.3040 S   0  0  0  0  0  0  0  0  0  0  0  0
  186.7660  178.2640  147.1490 C   0  0  0  0  0  3  0  0  0  0  0  0
  187.7960  177.7830  147.9560 C   0  0  0  0  0  0  0  0  0  0  0  0
  186.9090  177.9250  142.9680 C   0  0  0  0  0  0  0  0  0  0  0  0
  188.9870  177.0290  145.9900 C   0  0  0  0  0  3  0  0  0  0  0  0
  187.7200  177.9130  149.3020 F   0  0  0  0  0  0  0  0  0  0  0  0
  187.9620  177.5020  145.1530 C   0  0  0  0  0  0  0  0  0  0  0  0
  183.0870  178.4290  139.9700 N   0  0  0  0  0  0  0  0  0  0  0  0
  184.3210  179.1210  140.2370 C   0  0  0  0  0  0  0  0  0  0  0  0
  184.6750  180.0650  139.4800 O   0  0  0  0  0  0  0  0  0  0  0  0
  182.9070  177.0280  140.3140 C   0  0  0  0  0  1  0  0  0  0  0  0
  180.2190  180.1940  137.6810 C   0  0  0  0  0  1  0  0  0  0  0  0
  182.0980  179.0370  139.1810 C   0  0  0  0  0  0  0  0  0  0  0  0
  181.2480  179.5600  138.5040 C   0  0  0  0  0  0  0  0  0  0  0  0
  189.0760  176.7420  142.8800 C   0  0  2  0  0  3  0  0  0  0  0  0
  190.4490  177.3630  143.0480 C   0  0  0  0  0  2  0  0  0  0  0  0
  189.6090  177.6860  141.8210 C   0  0  1  0  0  3  0  0  0  0  0  0
  190.1090  176.8740  140.6430 C   0  0  0  0  0  2  0  0  0  0  0  0
  190.2450  177.7710  139.4260 C   0  0  0  0  0  2  0  0  0  0  0  0
  189.5390  177.1500  138.2340 C   0  0  0  0  0  2  0  0  0  0  0  0
  188.9000  179.4540  137.8120 O   0  0  0  0  0  1  0  0  0  0  0  0
  188.5280  178.1180  137.6270 C   0  0  2  0  0  3  0  0  0  0  0  0
  187.2020  177.8530  138.0410 O   0  0  0  0  0  0  0  0  0  0  0  0
  184.5980  177.6560  136.9890 O   0  0  0  0  0  1  0  0  0  0  0  0
  186.4330  175.6580  136.5450 O   0  0  0  0  0  1  0  0  0  0  0  0
  186.2370  177.3280  136.7260 P   0  0  0  0  0  0  0  0  0  0  0  0
  186.6880  178.0120  135.4560 O   0  0  0  0  0  0  0  0  0  0  0  0
  1  6  1  0  0  0  0
  2  1  1  0  0  0  0
  3  9  1  0  0  0  0
  4  2  2  0  0  0  0
  5 10  1  0  0  0  0
  6  3  1  0  0  0  0
  7 14  1  0  0  0  0
  8  4  1  0  0  0  0
  8 11  1  0  0  0  0
  9 10  2  0  0  0  0
 10 13  1  0  0  0  0
 11  1  2  0  0  0  0
 11  7  1  0  0  0  0
 12  5  2  0  0  0  0
 14  3  2  0  0  0  0
 14 12  1  0  0  0  0
 15 16  1  0  0  0  0
 15 18  1  0  0  0  0
 16  4  1  0  0  0  0
 17 16  2  0  0  0  0
 19 21  1  0  0  0  0
 20 15  1  0  0  0  0
 21 20  3  0  0  0  0
 22 23  1  1  0  0  0
 22  7  1  0  0  0  0
 24 25  1  6  0  0  0
 24 22  1  0  0  0  0
 24 23  1  0  0  0  0
 26 25  1  0  0  0  0
 27 26  1  0  0  0  0
 29 28  1  1  0  0  0
 29 30  1  0  0  0  0
 29 27  1  0  0  0  0
 32 33  1  0  0  0  0
 33 31  1  0  0  0  0
 33 30  1  0  0  0  0
 34 33  2  0  0  0  0
M  END
>  <MODEL>
3

>  <REMARK>
 VINA RESULT:      -8.0      2.513      5.304
  Name = 
  9 active torsions:
  status: ('A' for Active; 'I' for Inactive)
    1  A    between atoms: C_4  and  N_14
    2  A    between atoms: N_5  and  C_16
    3  A    between atoms: C_10  and  C_26
    4  A    between atoms: C_10  and  C_34
    5  A    between atoms: C_11  and  C_20
    6  A    between atoms: O_17  and  P_22
    7  A    between atoms: O_17  and  C_26
    8  A    between atoms: C_18  and  C_28
    9  A    between atoms: C_28  and  C_34
                            x       y       z     vdW  Elec       q    Type
                         _______ _______ _______ _____ _____    ______ ____

>  <TORSDO>
F 9

$$$$
=
 OpenBabel10222421303D

 34 37  0  0  1  0  0  0  0  0999 V2000
  187.4780  177.6540  145.2050 C   0  0  0  0  0  0  0  0  0  0  0  0
  186.1620  178.1200  145.1320 C   0  0  0  0  0  3  0  0  0  0  0  0
  189.5400  177.0820  146.3380 C   0  0  0  0  0  0  0  0  0  0  0  0
  185.6820  178.1200  143.8190 C   0  0  0  0  0  0  0  0  0  0  0  0
  192.1850  176.1710  146.3240 C   0  0  0  0  0  3  0  0  0  0  0  0
  188.2200  177.5520  146.3780 O   0  0  0  0  0  0  0  0  0  0  0  0
  189.3610  176.7830  143.8680 N   0  0  0  0  0  0  0  0  0  0  0  0
  186.8820  177.5220  142.7820 S   0  0  0  0  0  0  0  0  0  0  0  0
  190.2640  177.0020  147.5310 C   0  0  0  0  0  3  0  0  0  0  0  0
  191.5830  176.5480  147.5250 C   0  0  0  0  0  0  0  0  0  0  0  0
  188.0220  177.2860  143.9950 C   0  0  0  0  0  0  0  0  0  0  0  0
  191.4690  176.2440  145.1280 C   0  0  0  0  0  3  0  0  0  0  0  0
  192.2800  176.4740  148.6830 F   0  0  0  0  0  0  0  0  0  0  0  0
  190.1380  176.6950  145.1050 C   0  0  0  0  0  0  0  0  0  0  0  0
  183.9170  178.6960  142.0650 N   0  0  0  0  0  0  0  0  0  0  0  0
  184.3110  178.5150  143.4380 C   0  0  0  0  0  0  0  0  0  0  0  0
  183.4590  178.6880  144.3520 O   0  0  0  0  0  0  0  0  0  0  0  0
  184.8590  179.1500  141.0550 C   0  0  0  0  0  1  0  0  0  0  0  0
  179.9820  178.5250  141.0350 C   0  0  0  0  0  1  0  0  0  0  0  0
  182.5610  178.6370  141.7100 C   0  0  0  0  0  0  0  0  0  0  0  0
  181.3960  178.5860  141.4050 C   0  0  0  0  0  0  0  0  0  0  0  0
  189.7870  176.4180  142.5010 C   0  0  2  0  0  3  0  0  0  0  0  0
  191.2160  176.7960  142.1680 C   0  0  0  0  0  2  0  0  0  0  0  0
  190.0630  177.6420  141.6500 C   0  0  1  0  0  3  0  0  0  0  0  0
  189.8040  177.3020  140.1970 C   0  0  0  0  0  2  0  0  0  0  0  0
  188.8050  178.2840  139.6120 C   0  0  0  0  0  2  0  0  0  0  0  0
  189.1810  178.6270  138.1810 C   0  0  0  0  0  2  0  0  0  0  0  0
  187.4460  179.4920  136.7190 O   0  0  0  0  0  1  0  0  0  0  0  0
  188.0320  178.3250  137.2230 C   0  0  2  0  0  3  0  0  0  0  0  0
  187.0870  177.4260  137.7710 O   0  0  0  0  0  0  0  0  0  0  0  0
  186.3300  174.7890  137.1430 O   0  0  0  0  0  1  0  0  0  0  0  0
  187.5180  176.3860  135.2460 O   0  0  0  0  0  0  0  0  0  0  0  0
  186.4650  176.3760  136.5700 P   0  0  0  0  0  0  0  0  0  0  0  0
  185.1080  176.8620  136.1160 O   0  0  0  0  0  1  0  0  0  0  0  0
  1  6  1  0  0  0  0
  2  1  1  0  0  0  0
  3  6  1  0  0  0  0
  3  9  1  0  0  0  0
  4  2  2  0  0  0  0
  5 10  1  0  0  0  0
  7 11  1  0  0  0  0
  7 14  1  0  0  0  0
  8  4  1  0  0  0  0
  8 11  1  0  0  0  0
 10  9  2  0  0  0  0
 10 13  1  0  0  0  0
 11  1  2  0  0  0  0
 12  5  2  0  0  0  0
 14 12  1  0  0  0  0
 14  3  2  0  0  0  0
 15 16  1  0  0  0  0
 16  4  1  0  0  0  0
 16 17  2  0  0  0  0
 18 15  1  0  0  0  0
 19 21  1  0  0  0  0
 20 15  1  0  0  0  0
 21 20  3  0  0  0  0
 22 23  1  1  0  0  0
 22  7  1  0  0  0  0
 24 25  1  6  0  0  0
 24 23  1  0  0  0  0
 24 22  1  0  0  0  0
 26 25  1  0  0  0  0
 27 26  1  0  0  0  0
 29 28  1  1  0  0  0
 29 30  1  0  0  0  0
 29 27  1  0  0  0  0
 32 33  2  0  0  0  0
 33 31  1  0  0  0  0
 33 30  1  0  0  0  0
 34 33  1  0  0  0  0
M  END
>  <MODEL>
4

>  <REMARK>
 VINA RESULT:      -8.0      2.265      5.358
  Name = 
  9 active torsions:
  status: ('A' for Active; 'I' for Inactive)
    1  A    between atoms: C_4  and  N_14
    2  A    between atoms: N_5  and  C_16
    3  A    between atoms: C_10  and  C_26
    4  A    between atoms: C_10  and  C_34
    5  A    between atoms: C_11  and  C_20
    6  A    between atoms: O_17  and  P_22
    7  A    between atoms: O_17  and  C_26
    8  A    between atoms: C_18  and  C_28
    9  A    between atoms: C_28  and  C_34
                            x       y       z     vdW  Elec       q    Type
                         _______ _______ _______ _____ _____    ______ ____

>  <TORSDO>
F 9

$$$$
=
 OpenBabel10222421303D

 34 37  0  0  1  0  0  0  0  0999 V2000
  189.7240  177.2970  142.6640 C   0  0  0  0  0  0  0  0  0  0  0  0
  190.6640  177.1270  141.6450 C   0  0  0  0  0  3  0  0  0  0  0  0
  188.9870  177.4230  144.9680 C   0  0  0  0  0  0  0  0  0  0  0  0
  190.0800  177.2140  140.3780 C   0  0  0  0  0  0  0  0  0  0  0  0
  186.9880  177.7390  146.9000 C   0  0  0  0  0  3  0  0  0  0  0  0
  190.0110  177.2500  144.0260 O   0  0  0  0  0  0  0  0  0  0  0  0
  187.3360  177.7230  143.1230 N   0  0  0  0  0  0  0  0  0  0  0  0
  188.4220  177.5250  140.5440 S   0  0  0  0  0  0  0  0  0  0  0  0
  189.3050  177.3580  146.3280 C   0  0  0  0  0  3  0  0  0  0  0  0
  188.3080  177.5150  147.2920 C   0  0  0  0  0  0  0  0  0  0  0  0
  188.4390  177.5240  142.2250 C   0  0  0  0  0  0  0  0  0  0  0  0
  186.6620  177.8070  145.5440 C   0  0  0  0  0  3  0  0  0  0  0  0
  188.6220  177.4520  148.6070 F   0  0  0  0  0  0  0  0  0  0  0  0
  187.6460  177.6560  144.5520 C   0  0  0  0  0  0  0  0  0  0  0  0
  192.2560  176.9100  139.0760 N   0  0  0  0  0  0  0  0  0  0  0  0
  190.8320  177.1220  139.1100 C   0  0  0  0  0  0  0  0  0  0  0  0
  190.1970  177.2230  138.0260 O   0  0  0  0  0  0  0  0  0  0  0  0
  193.1260  177.4040  140.1310 C   0  0  0  0  0  1  0  0  0  0  0  0
  194.0150  175.4330  135.7150 C   0  0  0  0  0  1  0  0  0  0  0  0
  192.8620  176.4010  137.9180 C   0  0  0  0  0  0  0  0  0  0  0  0
  193.3830  175.9640  136.9220 C   0  0  0  0  0  0  0  0  0  0  0  0
  186.0240  177.9700  142.4900 C   0  0  2  0  0  3  0  0  0  0  0  0
  185.8180  179.3920  142.0070 C   0  0  0  0  0  2  0  0  0  0  0  0
  185.1740  178.9250  143.3040 C   0  0  1  0  0  3  0  0  0  0  0  0
  183.7110  178.6190  143.0560 C   0  0  0  0  0  2  0  0  0  0  0  0
  182.9140  178.8750  144.3220 C   0  0  0  0  0  2  0  0  0  0  0  0
  181.4270  178.7530  144.0410 C   0  0  0  0  0  2  0  0  0  0  0  0
  180.3540  180.3690  142.5800 O   0  0  0  0  0  1  0  0  0  0  0  0
  181.0990  179.1840  142.6150 C   0  0  2  0  0  3  0  0  0  0  0  0
  180.5170  178.1450  141.8510 O   0  0  0  0  0  0  0  0  0  0  0  0
  181.4240  176.6530  139.6420 O   0  0  0  0  0  1  0  0  0  0  0  0
  182.4480  179.1540  140.1480 O   0  0  0  0  0  1  0  0  0  0  0  0
  181.0550  178.1990  140.2250 P   0  0  0  0  0  0  0  0  0  0  0  0
  179.9880  178.8220  139.3540 O   0  0  0  0  0  0  0  0  0  0  0  0
  1  6  1  0  0  0  0
  2  1  1  0  0  0  0
  3  9  1  0  0  0  0
  4  8  1  0  0  0  0
  4  2  2  0  0  0  0
  5 10  1  0  0  0  0
  6  3  1  0  0  0  0
  7 14  1  0  0  0  0
  8 11  1  0  0  0  0
  9 10  2  0  0  0  0
 10 13  1  0  0  0  0
 11  1  2  0  0  0  0
 11  7  1  0  0  0  0
 12  5  2  0  0  0  0
 14  3  2  0  0  0  0
 14 12  1  0  0  0  0
 15 16  1  0  0  0  0
 15 18  1  0  0  0  0
 16  4  1  0  0  0  0
 17 16  2  0  0  0  0
 19 21  1  0  0  0  0
 20 15  1  0  0  0  0
 21 20  3  0  0  0  0
 22 23  1  6  0  0  0
 22  7  1  0  0  0  0
 22 24  1  0  0  0  0
 23 24  1  0  0  0  0
 24 25  1  6  0  0  0
 25 26  1  0  0  0  0
 27 26  1  0  0  0  0
 29 28  1  1  0  0  0
 29 27  1  0  0  0  0
 30 29  1  0  0  0  0
 31 33  1  0  0  0  0
 32 33  1  0  0  0  0
 33 30  1  0  0  0  0
 34 33  2  0  0  0  0
M  END
>  <MODEL>
5

>  <REMARK>
 VINA RESULT:      -8.0      2.392      3.266
  Name = 
  9 active torsions:
  status: ('A' for Active; 'I' for Inactive)
    1  A    between atoms: C_4  and  N_14
    2  A    between atoms: N_5  and  C_16
    3  A    between atoms: C_10  and  C_26
    4  A    between atoms: C_10  and  C_34
    5  A    between atoms: C_11  and  C_20
    6  A    between atoms: O_17  and  P_22
    7  A    between atoms: O_17  and  C_26
    8  A    between atoms: C_18  and  C_28
    9  A    between atoms: C_28  and  C_34
                            x       y       z     vdW  Elec       q    Type
                         _______ _______ _______ _____ _____    ______ ____

>  <TORSDO>
F 9

$$$$
=
 OpenBabel10222421303D

 34 37  0  0  1  0  0  0  0  0999 V2000
  185.9260  178.5040  143.5140 C   0  0  0  0  0  0  0  0  0  0  0  0
  184.9420  179.0070  142.6590 C   0  0  0  0  0  3  0  0  0  0  0  0
  186.9370  178.0590  145.6700 C   0  0  0  0  0  0  0  0  0  0  0  0
  185.2590  178.7860  141.3150 C   0  0  0  0  0  0  0  0  0  0  0  0
  189.0070  177.0450  147.2550 C   0  0  0  0  0  3  0  0  0  0  0  0
  185.8880  178.5870  144.9040 O   0  0  0  0  0  0  0  0  0  0  0  0
  188.0900  177.3190  143.5850 N   0  0  0  0  0  0  0  0  0  0  0  0
  186.7320  177.9540  141.2140 S   0  0  0  0  0  0  0  0  0  0  0  0
  186.8770  178.1690  147.0620 C   0  0  0  0  0  3  0  0  0  0  0  0
  187.9080  177.6640  147.8530 C   0  0  0  0  0  0  0  0  0  0  0  0
  186.9830  177.8950  142.8760 C   0  0  0  0  0  0  0  0  0  0  0  0
  189.0740  176.9280  145.8660 C   0  0  0  0  0  3  0  0  0  0  0  0
  187.8440  177.7730  149.2010 F   0  0  0  0  0  0  0  0  0  0  0  0
  188.0480  177.4260  145.0440 C   0  0  0  0  0  0  0  0  0  0  0  0
  183.0220  178.7160  140.0850 N   0  0  0  0  0  0  0  0  0  0  0  0
  184.3860  179.1640  140.1850 C   0  0  0  0  0  0  0  0  0  0  0  0
  184.8560  179.9130  139.2860 O   0  0  0  0  0  0  0  0  0  0  0  0
  182.5970  177.4360  140.6290 C   0  0  0  0  0  1  0  0  0  0  0  0
  180.3790  180.7390  137.7400 C   0  0  0  0  0  1  0  0  0  0  0  0
  182.1110  179.4130  139.2770 C   0  0  0  0  0  0  0  0  0  0  0  0
  181.3290  180.0130  138.5820 C   0  0  0  0  0  0  0  0  0  0  0  0
  189.1350  176.6900  142.7510 C   0  0  2  0  0  3  0  0  0  0  0  0
  190.5260  176.7300  143.3530 C   0  0  0  0  0  2  0  0  0  0  0  0
  190.1440  177.7040  142.2490 C   0  0  1  0  0  3  0  0  0  0  0  0
  190.7170  177.2220  140.9330 C   0  0  0  0  0  2  0  0  0  0  0  0
  189.9830  177.8860  139.7820 C   0  0  0  0  0  2  0  0  0  0  0  0
  189.5180  176.8420  138.7820 C   0  0  0  0  0  2  0  0  0  0  0  0
  190.0330  176.5820  136.4230 O   0  0  0  0  0  1  0  0  0  0  0  0
  190.5770  176.5950  137.7120 C   0  0  2  0  0  3  0  0  0  0  0  0
  191.3730  175.4580  137.9850 O   0  0  0  0  0  0  0  0  0  0  0  0
  193.3330  176.2090  136.1090 O   0  0  0  0  0  0  0  0  0  0  0  0
  193.9260  174.4000  138.0930 O   0  0  0  0  0  1  0  0  0  0  0  0
  193.0330  175.7880  137.7210 P   0  0  0  0  0  0  0  0  0  0  0  0
  193.4820  176.9130  138.6250 O   0  0  0  0  0  1  0  0  0  0  0  0
  1  6  1  0  0  0  0
  2  1  1  0  0  0  0
  3  9  1  0  0  0  0
  4  2  2  0  0  0  0
  5 10  1  0  0  0  0
  6  3  1  0  0  0  0
  7 14  1  0  0  0  0
  8  4  1  0  0  0  0
  8 11  1  0  0  0  0
  9 10  2  0  0  0  0
 10 13  1  0  0  0  0
 11  1  2  0  0  0  0
 11  7  1  0  0  0  0
 12  5  2  0  0  0  0
 14  3  2  0  0  0  0
 14 12  1  0  0  0  0
 15 16  1  0  0  0  0
 15 18  1  0  0  0  0
 16  4  1  0  0  0  0
 17 16  2  0  0  0  0
 19 21  1  0  0  0  0
 20 15  1  0  0  0  0
 21 20  3  0  0  0  0
 22 23  1  1  0  0  0
 22  7  1  0  0  0  0
 24 25  1  6  0  0  0
 24 22  1  0  0  0  0
 24 23  1  0  0  0  0
 26 25  1  0  0  0  0
 27 26  1  0  0  0  0
 29 28  1  6  0  0  0
 29 30  1  0  0  0  0
 29 27  1  0  0  0  0
 31 33  2  0  0  0  0
 33 30  1  0  0  0  0
 33 32  1  0  0  0  0
 33 34  1  0  0  0  0
M  END
>  <MODEL>
6

>  <REMARK>
 VINA RESULT:      -7.8      3.405      6.414
  Name = 
  9 active torsions:
  status: ('A' for Active; 'I' for Inactive)
    1  A    between atoms: C_4  and  N_14
    2  A    between atoms: N_5  and  C_16
    3  A    between atoms: C_10  and  C_26
    4  A    between atoms: C_10  and  C_34
    5  A    between atoms: C_11  and  C_20
    6  A    between atoms: O_17  and  P_22
    7  A    between atoms: O_17  and  C_26
    8  A    between atoms: C_18  and  C_28
    9  A    between atoms: C_28  and  C_34
                            x       y       z     vdW  Elec       q    Type
                         _______ _______ _______ _____ _____    ______ ____

>  <TORSDO>
F 9

$$$$
=
 OpenBabel10222421303D

 34 37  0  0  1  0  0  0  0  0999 V2000
  185.2050  178.4550  144.3390 C   0  0  0  0  0  0  0  0  0  0  0  0
  184.0120  178.8160  143.7080 C   0  0  0  0  0  3  0  0  0  0  0  0
  186.7020  178.2230  146.2290 C   0  0  0  0  0  0  0  0  0  0  0  0
  184.0500  178.5560  142.3350 C   0  0  0  0  0  0  0  0  0  0  0  0
  189.1610  177.4950  147.3460 C   0  0  0  0  0  3  0  0  0  0  0  0
  185.4620  178.6070  145.6990 O   0  0  0  0  0  0  0  0  0  0  0  0
  187.4450  177.4870  143.9640 N   0  0  0  0  0  0  0  0  0  0  0  0
  185.5450  177.8650  141.9350 S   0  0  0  0  0  0  0  0  0  0  0  0
  186.9350  178.3990  147.5960 C   0  0  0  0  0  3  0  0  0  0  0  0
  188.1610  178.0370  148.1540 C   0  0  0  0  0  0  0  0  0  0  0  0
  186.1550  177.9170  143.5010 C   0  0  0  0  0  0  0  0  0  0  0  0
  188.9370  177.3130  145.9800 C   0  0  0  0  0  3  0  0  0  0  0  0
  188.3810  178.2100  149.4780 F   0  0  0  0  0  0  0  0  0  0  0  0
  187.7100  177.6660  145.3920 C   0  0  0  0  0  0  0  0  0  0  0  0
  183.1010  178.9510  139.9970 N   0  0  0  0  0  0  0  0  0  0  0  0
  182.9180  178.7890  141.4160 C   0  0  0  0  0  0  0  0  0  0  0  0
  181.7530  178.8370  141.8970 O   0  0  0  0  0  0  0  0  0  0  0  0
  184.3120  179.5380  139.4460 C   0  0  0  0  0  1  0  0  0  0  0  0
  179.9820  178.3240  137.4570 C   0  0  0  0  0  1  0  0  0  0  0  0
  182.0260  178.7350  139.1210 C   0  0  0  0  0  0  0  0  0  0  0  0
  181.1030  178.5500  138.3690 C   0  0  0  0  0  0  0  0  0  0  0  0
  188.3430  176.9180  142.9380 C   0  0  2  0  0  3  0  0  0  0  0  0
  189.7470  176.6240  143.4280 C   0  0  0  0  0  2  0  0  0  0  0  0
  189.4750  177.8640  142.5910 C   0  0  1  0  0  3  0  0  0  0  0  0
  189.9100  177.6110  141.1620 C   0  0  0  0  0  2  0  0  0  0  0  0
  188.7100  177.7090  140.2370 C   0  0  0  0  0  2  0  0  0  0  0  0
  188.9810  178.7090  139.1270 C   0  0  0  0  0  2  0  0  0  0  0  0
  188.6010  178.8060  136.7310 O   0  0  0  0  0  1  0  0  0  0  0  0
  189.0920  178.0130  137.7740 C   0  0  2  0  0  3  0  0  0  0  0  0
  188.5380  176.7110  137.7840 O   0  0  0  0  0  0  0  0  0  0  0  0
  190.8590  175.2720  138.4710 O   0  0  0  0  0  1  0  0  0  0  0  0
  190.4590  176.1180  135.8860 O   0  0  0  0  0  0  0  0  0  0  0  0
  189.6890  175.5470  137.2780 P   0  0  0  0  0  0  0  0  0  0  0  0
  188.9910  174.2460  136.9510 O   0  0  0  0  0  1  0  0  0  0  0  0
  1  6  1  0  0  0  0
  2  1  1  0  0  0  0
  3  9  1  0  0  0  0
  4  2  2  0  0  0  0
  5 10  1  0  0  0  0
  6  3  1  0  0  0  0
  7 14  1  0  0  0  0
  8  4  1  0  0  0  0
  8 11  1  0  0  0  0
  9 10  2  0  0  0  0
 10 13  1  0  0  0  0
 11  7  1  0  0  0  0
 11  1  2  0  0  0  0
 12  5  2  0  0  0  0
 14 12  1  0  0  0  0
 14  3  2  0  0  0  0
 15 16  1  0  0  0  0
 16 17  2  0  0  0  0
 16  4  1  0  0  0  0
 18 15  1  0  0  0  0
 19 21  1  0  0  0  0
 20 15  1  0  0  0  0
 21 20  3  0  0  0  0
 22 23  1  1  0  0  0
 22  7  1  0  0  0  0
 24 25  1  6  0  0  0
 24 22  1  0  0  0  0
 24 23  1  0  0  0  0
 26 25  1  0  0  0  0
 27 26  1  0  0  0  0
 29 28  1  6  0  0  0
 29 30  1  0  0  0  0
 29 27  1  0  0  0  0
 32 33  2  0  0  0  0
 33 30  1  0  0  0  0
 33 31  1  0  0  0  0
 34 33  1  0  0  0  0
M  END
>  <MODEL>
7

>  <REMARK>
 VINA RESULT:      -7.6      2.990      5.861
  Name = 
  9 active torsions:
  status: ('A' for Active; 'I' for Inactive)
    1  A    between atoms: C_4  and  N_14
    2  A    between atoms: N_5  and  C_16
    3  A    between atoms: C_10  and  C_26
    4  A    between atoms: C_10  and  C_34
    5  A    between atoms: C_11  and  C_20
    6  A    between atoms: O_17  and  P_22
    7  A    between atoms: O_17  and  C_26
    8  A    between atoms: C_18  and  C_28
    9  A    between atoms: C_28  and  C_34
                            x       y       z     vdW  Elec       q    Type
                         _______ _______ _______ _____ _____    ______ ____

>  <TORSDO>
F 9

$$$$
=
 OpenBabel10222421303D

 34 37  0  0  1  0  0  0  0  0999 V2000
  189.3480  177.3820  138.5070 C   0  0  0  0  0  0  0  0  0  0  0  0
  190.4900  176.9530  137.8260 C   0  0  0  0  0  3  0  0  0  0  0  0
  187.0400  178.0930  138.6850 C   0  0  0  0  0  0  0  0  0  0  0  0
  191.5750  176.7730  138.6900 C   0  0  0  0  0  0  0  0  0  0  0  0
  184.8480  178.9910  140.1750 C   0  0  0  0  0  3  0  0  0  0  0  0
  188.1210  177.6540  137.9080 O   0  0  0  0  0  0  0  0  0  0  0  0
  188.4550  177.9600  140.7340 N   0  0  0  0  0  0  0  0  0  0  0  0
  191.0930  177.1230  140.2770 S   0  0  0  0  0  0  0  0  0  0  0  0
  185.8240  178.3700  138.0530 C   0  0  0  0  0  3  0  0  0  0  0  0
  184.7310  178.8180  138.7950 C   0  0  0  0  0  0  0  0  0  0  0  0
  189.5140  177.5280  139.8660 C   0  0  0  0  0  0  0  0  0  0  0  0
  186.0580  178.7140  140.8150 C   0  0  0  0  0  3  0  0  0  0  0  0
  183.5560  179.0850  138.1780 F   0  0  0  0  0  0  0  0  0  0  0  0
  187.1750  178.2590  140.0930 C   0  0  0  0  0  0  0  0  0  0  0  0
  193.0530  175.2550  137.2630 N   0  0  0  0  0  0  0  0  0  0  0  0
  192.9000  176.2790  138.2640 C   0  0  0  0  0  0  0  0  0  0  0  0
  193.9280  176.7830  138.7920 O   0  0  0  0  0  0  0  0  0  0  0  0
  192.0560  174.2130  137.0800 C   0  0  0  0  0  1  0  0  0  0  0  0
  196.5840  174.8610  135.2760 C   0  0  0  0  0  1  0  0  0  0  0  0
  194.2700  175.1200  136.5780 C   0  0  0  0  0  0  0  0  0  0  0  0
  195.3160  175.0030  135.9910 C   0  0  0  0  0  0  0  0  0  0  0  0
  188.7940  178.0510  142.1700 C   0  0  2  0  0  3  0  0  0  0  0  0
  189.2530  176.7460  142.7890 C   0  0  0  0  0  2  0  0  0  0  0  0
  187.8370  177.2470  143.0280 C   0  0  1  0  0  3  0  0  0  0  0  0
  187.7540  177.8810  144.4020 C   0  0  0  0  0  2  0  0  0  0  0  0
  186.8750  177.0320  145.3030 C   0  0  0  0  0  2  0  0  0  0  0  0
  186.5810  177.7710  146.5970 C   0  0  0  0  0  2  0  0  0  0  0  0
  185.7440  179.9130  147.3760 O   0  0  0  0  0  1  0  0  0  0  0  0
  185.6590  178.9620  146.3530 C   0  0  2  0  0  3  0  0  0  0  0  0
  184.3280  178.5730  146.0720 O   0  0  0  0  0  0  0  0  0  0  0  0
  182.1870  179.2170  144.3610 O   0  0  0  0  0  1  0  0  0  0  0  0
  184.3810  177.8690  143.3990 O   0  0  0  0  0  0  0  0  0  0  0  0
  183.8660  179.0510  144.4930 P   0  0  0  0  0  0  0  0  0  0  0  0
  184.5290  180.3630  144.1400 O   0  0  0  0  0  1  0  0  0  0  0  0
  1 11  2  0  0  0  0
  2  1  1  0  0  0  0
  2  4  2  0  0  0  0
  3 14  1  0  0  0  0
  4  8  1  0  0  0  0
  5 12  1  0  0  0  0
  6  1  1  0  0  0  0
  6  3  1  0  0  0  0
  9  3  2  0  0  0  0
  9 10  1  0  0  0  0
 10  5  2  0  0  0  0
 11  8  1  0  0  0  0
 11  7  1  0  0  0  0
 13 10  1  0  0  0  0
 14  7  1  0  0  0  0
 14 12  2  0  0  0  0
 15 16  1  0  0  0  0
 16  4  1  0  0  0  0
 16 17  2  0  0  0  0
 18 15  1  0  0  0  0
 19 21  1  0  0  0  0
 20 15  1  0  0  0  0
 21 20  3  0  0  0  0
 22  7  1  6  0  0  0
 22 23  1  0  0  0  0
 22 24  1  0  0  0  0
 23 24  1  0  0  0  0
 24 25  1  1  0  0  0
 25 26  1  0  0  0  0
 26 27  1  0  0  0  0
 29 27  1  0  0  0  0
 29 28  1  1  0  0  0
 30 29  1  0  0  0  0
 31 33  1  0  0  0  0
 32 33  2  0  0  0  0
 33 30  1  0  0  0  0
 34 33  1  0  0  0  0
M  END
>  <MODEL>
8

>  <REMARK>
 VINA RESULT:      -7.5      4.199      6.310
  Name = 
  9 active torsions:
  status: ('A' for Active; 'I' for Inactive)
    1  A    between atoms: C_4  and  N_14
    2  A    between atoms: N_5  and  C_16
    3  A    between atoms: C_10  and  C_26
    4  A    between atoms: C_10  and  C_34
    5  A    between atoms: C_11  and  C_20
    6  A    between atoms: O_17  and  P_22
    7  A    between atoms: O_17  and  C_26
    8  A    between atoms: C_18  and  C_28
    9  A    between atoms: C_28  and  C_34
                            x       y       z     vdW  Elec       q    Type
                         _______ _______ _______ _____ _____    ______ ____

>  <TORSDO>
F 9

$$$$
=
 OpenBabel10222421303D

 34 37  0  0  1  0  0  0  0  0999 V2000
  185.6350  178.5890  140.4680 C   0  0  0  0  0  0  0  0  0  0  0  0
  186.2890  178.5910  139.2330 C   0  0  0  0  0  3  0  0  0  0  0  0
  183.7150  178.7840  141.9310 C   0  0  0  0  0  0  0  0  0  0  0  0
  187.6630  178.3700  139.3710 C   0  0  0  0  0  0  0  0  0  0  0  0
  182.5490  178.7970  144.4740 C   0  0  0  0  0  3  0  0  0  0  0  0
  184.2690  178.7940  140.6430 O   0  0  0  0  0  0  0  0  0  0  0  0
  185.9670  178.3260  142.8990 N   0  0  0  0  0  0  0  0  0  0  0  0
  188.0340  178.1530  141.0110 S   0  0  0  0  0  0  0  0  0  0  0  0
  182.3420  179.0040  142.0760 C   0  0  0  0  0  3  0  0  0  0  0  0
  181.7600  179.0110  143.3440 C   0  0  0  0  0  0  0  0  0  0  0  0
  186.4560  178.3640  141.5500 C   0  0  0  0  0  0  0  0  0  0  0  0
  183.9210  178.5730  144.3390 C   0  0  0  0  0  3  0  0  0  0  0  0
  180.4300  179.2260  143.4780 F   0  0  0  0  0  0  0  0  0  0  0  0
  184.5330  178.5580  143.0740 C   0  0  0  0  0  0  0  0  0  0  0  0
  189.5490  177.1920  138.1160 N   0  0  0  0  0  0  0  0  0  0  0  0
  188.6040  178.2720  138.2380 C   0  0  0  0  0  0  0  0  0  0  0  0
  188.5670  179.1620  137.3460 O   0  0  0  0  0  0  0  0  0  0  0  0
  190.1140  176.5370  139.2850 C   0  0  0  0  0  1  0  0  0  0  0  0
  191.1620  176.2960  134.4870 C   0  0  0  0  0  1  0  0  0  0  0  0
  190.1050  176.8830  136.8660 C   0  0  0  0  0  0  0  0  0  0  0  0
  190.5830  176.6190  135.7910 C   0  0  0  0  0  0  0  0  0  0  0  0
  186.9770  178.0580  143.9450 C   0  0  2  0  0  3  0  0  0  0  0  0
  187.2990  176.5900  144.1440 C   0  0  0  0  0  2  0  0  0  0  0  0
  186.3860  177.3110  145.1240 C   0  0  1  0  0  3  0  0  0  0  0  0
  187.1670  177.6620  146.3730 C   0  0  0  0  0  2  0  0  0  0  0  0
  188.5880  178.0410  145.9980 C   0  0  0  0  0  2  0  0  0  0  0  0
  189.5810  177.2630  146.8430 C   0  0  0  0  0  2  0  0  0  0  0  0
  191.9810  176.9140  146.7290 O   0  0  0  0  0  1  0  0  0  0  0  0
  190.7820  176.8200  146.0140 C   0  0  2  0  0  3  0  0  0  0  0  0
  190.8410  177.4590  144.7530 O   0  0  0  0  0  0  0  0  0  0  0  0
  192.1900  175.0770  144.0960 O   0  0  0  0  0  1  0  0  0  0  0  0
  192.0870  177.1600  142.3040 O   0  0  0  0  0  0  0  0  0  0  0  0
  191.2310  176.3440  143.5130 P   0  0  0  0  0  0  0  0  0  0  0  0
  189.9620  175.7790  142.9150 O   0  0  0  0  0  1  0  0  0  0  0  0
  1  6  1  0  0  0  0
  1 11  2  0  0  0  0
  2  4  2  0  0  0  0
  2  1  1  0  0  0  0
  3  9  2  0  0  0  0
  3 14  1  0  0  0  0
  4  8  1  0  0  0  0
  6  3  1  0  0  0  0
  7 14  1  0  0  0  0
  8 11  1  0  0  0  0
  9 10  1  0  0  0  0
 10 13  1  0  0  0  0
 10  5  2  0  0  0  0
 11  7  1  0  0  0  0
 12  5  1  0  0  0  0
 14 12  2  0  0  0  0
 15 16  1  0  0  0  0
 15 18  1  0  0  0  0
 16  4  1  0  0  0  0
 17 16  2  0  0  0  0
 19 21  1  0  0  0  0
 20 15  1  0  0  0  0
 21 20  3  0  0  0  0
 22  7  1  6  0  0  0
 22 23  1  0  0  0  0
 22 24  1  0  0  0  0
 23 24  1  0  0  0  0
 24 25  1  1  0  0  0
 26 25  1  0  0  0  0
 26 27  1  0  0  0  0
 29 28  1  1  0  0  0
 29 27  1  0  0  0  0
 30 29  1  0  0  0  0
 32 33  2  0  0  0  0
 33 31  1  0  0  0  0
 33 30  1  0  0  0  0
 34 33  1  0  0  0  0
M  END
>  <MODEL>
9

>  <REMARK>
 VINA RESULT:      -7.5      3.282      6.761
  Name = 
  9 active torsions:
  status: ('A' for Active; 'I' for Inactive)
    1  A    between atoms: C_4  and  N_14
    2  A    between atoms: N_5  and  C_16
    3  A    between atoms: C_10  and  C_26
    4  A    between atoms: C_10  and  C_34
    5  A    between atoms: C_11  and  C_20
    6  A    between atoms: O_17  and  P_22
    7  A    between atoms: O_17  and  C_26
    8  A    between atoms: C_18  and  C_28
    9  A    between atoms: C_28  and  C_34
                            x       y       z     vdW  Elec       q    Type
                         _______ _______ _______ _____ _____    ______ ____

>  <TORSDO>
F 9

$$$$
