=
 OpenBabel10232410523D

 49 54  0  0  1  0  0  0  0  0999 V2000
  185.8560  178.6740  139.0640 N   0  0  0  0  0  0  0  0  0  0  0  0
  187.5470  178.0620  141.0970 O   0  0  0  0  0  0  0  0  0  0  0  0
  186.8170  178.2930  138.2710 C   0  0  0  0  0  0  0  0  0  0  0  0
  188.0480  177.8120  138.8200 N   0  0  0  0  0  2  0  0  0  0  0  0
  188.3700  177.7110  140.2110 C   0  0  0  0  0  0  0  0  0  0  0  0
  189.7210  177.2110  140.6030 C   0  0  2  0  0  3  0  0  0  0  0  0
  189.9410  177.3390  142.1210 C   0  0  0  0  0  2  0  0  0  0  0  0
  192.3950  177.1870  141.5070 C   0  0  0  0  0  2  0  0  0  0  0  0
  191.3590  177.8200  142.4400 C   0  0  0  0  0  2  0  0  0  0  0  0
  190.7180  177.8890  139.8810 O   0  0  0  0  0  0  0  0  0  0  0  0
  191.8970  177.1370  140.0530 C   0  0  0  0  0  2  0  0  0  0  0  0
  184.5540  179.1740  138.7180 C   0  0  0  0  0  0  0  0  0  0  0  0
  184.2430  180.3830  138.8710 O   0  0  0  0  0  0  0  0  0  0  0  0
  183.5470  178.2370  138.1470 C   0  0  0  0  0  2  0  0  0  0  0  0
  182.0920  178.1190  139.2300 S   0  0  0  0  0  0  0  0  0  0  0  0
  183.0570  177.6420  140.6990 C   0  0  0  0  0  2  0  0  0  0  0  0
  182.7790  178.5820  141.8570 C   0  0  0  0  0  2  0  0  0  0  0  0
  184.0290  179.0540  142.4290 N   0  0  0  0  0  2  0  0  0  0  0  0
  184.3650  178.1450  143.5090 C   0  0  0  0  0  2  0  0  0  0  0  0
  189.7150  177.5390  145.7720 C   0  0  0  0  0  2  0  0  0  0  0  0
  186.2440  177.9970  145.0340 N   0  0  0  0  0  0  0  0  0  0  0  0
  185.0330  178.6250  146.8970 C   0  0  0  0  0  3  0  0  0  0  0  0
  187.4170  177.6210  146.8350 C   0  0  0  0  0  0  0  0  0  0  0  0
  186.1650  177.8720  146.3410 C   0  0  0  0  0  0  0  0  0  0  0  0
  187.9220  177.6060  148.2440 C   0  0  0  0  0  2  0  0  0  0  0  0
  188.2200  177.5720  145.7080 C   0  0  0  0  0  0  0  0  0  0  0  0
  189.4310  177.8980  148.2680 C   0  0  0  0  0  2  0  0  0  0  0  0
  185.2110  178.8710  144.5400 C   0  0  2  0  0  3  0  0  0  0  0  0
  190.1760  177.1140  147.1750 C   0  0  0  0  0  2  0  0  0  0  0  0
  187.4940  177.8900  144.6130 N   0  0  0  0  0  0  0  0  0  0  0  0
  184.3830  179.2230  145.7140 N   0  0  0  0  0  0  0  0  0  0  0  0
  186.6890  178.3830  136.4800 S   0  0  0  0  0  0  0  0  0  0  0  0
  187.7590  176.9390  136.2440 C   0  0  0  0  0  2  0  0  0  0  0  0
  186.8980  175.7090  136.0270 C   0  0  0  0  0  2  0  0  0  0  0  0
  187.2160  173.3750  135.9990 O   0  0  0  0  0  0  0  0  0  0  0  0
  187.7400  174.4750  136.0600 C   0  0  0  0  0  0  0  0  0  0  0  0
  189.2210  174.5770  136.2220 C   0  0  0  0  0  2  0  0  0  0  0  0
  190.4480  172.8650  135.0560 O   0  0  0  0  0  0  0  0  0  0  0  0
  189.8590  173.1890  136.2930 C   0  0  1  0  0  3  0  0  0  0  0  0
  191.3420  173.1580  136.1020 C   0  0  2  0  0  3  0  0  0  0  0  0
  192.0030  174.5050  135.8310 C   0  0  0  0  0  2  0  0  0  0  0  0
  193.7420  172.9710  136.1930 C   0  0  0  0  0  2  0  0  0  0  0  0
  195.0000  173.7540  138.1590 C   0  0  0  0  0  0  0  0  0  0  0  0
  195.0550  172.8370  136.9670 C   0  0  1  0  0  3  0  0  0  0  0  0
  194.0550  175.4050  136.5910 C   0  0  0  0  0  2  0  0  0  0  0  0
  195.2240  171.3870  137.3890 C   0  0  0  0  0  1  0  0  0  0  0  0
  195.5960  173.4910  139.1920 O   0  0  0  0  0  0  0  0  0  0  0  0
  193.4460  174.3480  135.7600 N   0  0  0  0  0  0  0  0  0  0  0  0
  194.2080  175.0180  138.0620 C   0  0  0  0  0  2  0  0  0  0  0  0
  3  4  1  0  0  0  0
  3  1  2  0  0  0  0
  4  5  1  0  0  0  0
  5  2  2  0  0  0  0
  6  5  1  1  0  0  0
  6  7  1  0  0  0  0
  7  9  1  0  0  0  0
  8  9  1  0  0  0  0
 10 11  1  0  0  0  0
 10  6  1  0  0  0  0
 11  8  1  0  0  0  0
 12 13  2  0  0  0  0
 12  1  1  0  0  0  0
 14 12  1  0  0  0  0
 14 15  1  0  0  0  0
 15 16  1  0  0  0  0
 16 17  1  0  0  0  0
 17 18  1  0  0  0  0
 18 19  1  0  0  0  0
 20 29  1  0  0  0  0
 21 24  1  0  0  0  0
 23 25  1  0  0  0  0
 24 23  2  0  0  0  0
 24 22  1  0  0  0  0
 25 27  1  0  0  0  0
 26 20  1  0  0  0  0
 26 23  1  0  0  0  0
 28 19  1  6  0  0  0
 28 21  1  0  0  0  0
 28 31  1  0  0  0  0
 29 27  1  0  0  0  0
 30 21  1  0  0  0  0
 30 26  2  0  0  0  0
 31 22  2  0  0  0  0
 32  3  1  0  0  0  0
 33 32  1  0  0  0  0
 34 36  1  0  0  0  0
 34 33  1  0  0  0  0
 35 36  2  0  0  0  0
 36 37  1  0  0  0  0
 38 40  1  0  0  0  0
 38 39  1  0  0  0  0
 39 37  1  6  0  0  0
 40 41  1  6  0  0  0
 40 39  1  0  0  0  0
 42 44  1  0  0  0  0
 43 47  2  0  0  0  0
 44 46  1  1  0  0  0
 44 43  1  0  0  0  0
 45 49  1  0  0  0  0
 48 41  1  0  0  0  0
 48 42  1  0  0  0  0
 48 45  1  0  0  0  0
 49 43  1  0  0  0  0
M  END
>  <MODEL>
1

>  <REMARK>
 VINA RESULT:      -7.6      0.000      0.000
  Name = 
  17 active torsions:
  status: ('A' for Active; 'I' for Inactive)
    1  A    between atoms: C_2  and  C_48
    2  A    between atoms: N_3  and  C_22
    3  A    between atoms: S_8  and  C_16
    4  A    between atoms: S_8  and  C_27
    5  A    between atoms: C_15  and  S_25
    6  A    between atoms: C_16  and  C_43
    7  A    between atoms: C_17  and  S_25
    8  A    between atoms: C_17  and  C_31
    9  A    between atoms: C_21  and  N_30
   10  A    between atoms: C_21  and  C_45
   11  A    between atoms: C_22  and  C_27
   12  A    between atoms: C_23  and  N_36
   13  A    between atoms: C_23  and  C_42
   14  A    between atoms: N_30  and  C_43
   15  A    between atoms: C_31  and  C_41
   16  A    between atoms: C_32  and  C_44
   17  A    between atoms: C_41  and  C_44
                            x       y       z     vdW  Elec       q    Type
                         _______ _______ _______ _____ _____    ______ ____

>  <TORSDO>
F 17

$$$$
=
 OpenBabel10232410523D

 49 54  0  0  1  0  0  0  0  0999 V2000
  190.4050  177.3390  138.6340 N   0  0  0  0  0  0  0  0  0  0  0  0
  193.0880  176.9620  138.4660 O   0  0  0  0  0  0  0  0  0  0  0  0
  190.3040  176.3470  137.7960 C   0  0  0  0  0  0  0  0  0  0  0  0
  191.4830  175.6830  137.3290 N   0  0  0  0  0  2  0  0  0  0  0  0
  192.8320  176.0110  137.6800 C   0  0  0  0  0  0  0  0  0  0  0  0
  193.9460  175.2260  137.0720 C   0  0  2  0  0  3  0  0  0  0  0  0
  194.4800  174.1680  138.0540 C   0  0  0  0  0  2  0  0  0  0  0  0
  196.5370  174.2210  136.5750 C   0  0  0  0  0  2  0  0  0  0  0  0
  196.0080  174.0820  138.0040 C   0  0  0  0  0  2  0  0  0  0  0  0
  194.9690  176.0880  136.6410 O   0  0  0  0  0  0  0  0  0  0  0  0
  195.7910  175.3180  135.7960 C   0  0  0  0  0  2  0  0  0  0  0  0
  189.3560  178.1230  139.2240 C   0  0  0  0  0  0  0  0  0  0  0  0
  188.8790  179.1370  138.6500 O   0  0  0  0  0  0  0  0  0  0  0  0
  188.8020  177.7160  140.5450 C   0  0  0  0  0  2  0  0  0  0  0  0
  189.9630  176.6240  141.4190 S   0  0  0  0  0  0  0  0  0  0  0  0
  190.6610  177.9610  142.4410 C   0  0  0  0  0  2  0  0  0  0  0  0
  191.8840  177.4790  143.1990 C   0  0  0  0  0  2  0  0  0  0  0  0
  191.4940  176.5160  144.2160 N   0  0  0  0  0  2  0  0  0  0  0  0
  191.0530  177.2790  145.3680 C   0  0  0  0  0  2  0  0  0  0  0  0
  185.4340  178.1950  144.0630 C   0  0  0  0  0  2  0  0  0  0  0  0
  188.6660  177.6800  145.5100 N   0  0  0  0  0  0  0  0  0  0  0  0
  188.5660  177.4520  147.8050 C   0  0  0  0  0  3  0  0  0  0  0  0
  186.7270  178.3720  146.2340 C   0  0  0  0  0  0  0  0  0  0  0  0
  188.0130  178.0570  146.5870 C   0  0  0  0  0  0  0  0  0  0  0  0
  185.5260  178.6490  147.0820 C   0  0  0  0  0  2  0  0  0  0  0  0
  186.7000  178.1840  144.8630 C   0  0  0  0  0  0  0  0  0  0  0  0
  184.2420  178.3340  146.2990 C   0  0  0  0  0  2  0  0  0  0  0  0
  189.7130  176.7490  145.8470 C   0  0  2  0  0  3  0  0  0  0  0  0
  184.3090  178.8740  144.8610 C   0  0  0  0  0  2  0  0  0  0  0  0
  187.8800  177.6750  144.4460 N   0  0  0  0  0  0  0  0  0  0  0  0
  189.7080  176.6500  147.3220 N   0  0  0  0  0  0  0  0  0  0  0  0
  188.7260  175.7810  137.1480 S   0  0  0  0  0  0  0  0  0  0  0  0
  189.3070  174.0720  136.9810 C   0  0  0  0  0  2  0  0  0  0  0  0
  188.8010  173.4990  135.6700 C   0  0  0  0  0  2  0  0  0  0  0  0
  187.5820  171.5370  136.1350 O   0  0  0  0  0  0  0  0  0  0  0  0
  187.5380  172.7330  135.8930 C   0  0  0  0  0  0  0  0  0  0  0  0
  186.2130  173.4100  135.7690 C   0  0  0  0  0  2  0  0  0  0  0  0
  185.5040  172.9970  138.0330 O   0  0  0  0  0  0  0  0  0  0  0  0
  185.1770  172.7560  136.6850 C   0  0  1  0  0  3  0  0  0  0  0  0
  184.3900  173.7000  137.5360 C   0  0  2  0  0  3  0  0  0  0  0  0
  184.7530  175.1760  137.3980 C   0  0  0  0  0  2  0  0  0  0  0  0
  183.9060  177.3500  137.6420 C   0  0  0  0  0  2  0  0  0  0  0  0
  182.3660  177.3150  139.5620 C   0  0  0  0  0  0  0  0  0  0  0  0
  182.7780  178.1050  138.3490 C   0  0  1  0  0  3  0  0  0  0  0  0
  182.4950  175.3510  138.0780 C   0  0  0  0  0  2  0  0  0  0  0  0
  183.2820  179.4870  138.7290 C   0  0  0  0  0  1  0  0  0  0  0  0
  181.9260  177.8660  140.5600 O   0  0  0  0  0  0  0  0  0  0  0  0
  183.5480  175.9750  137.2550 N   0  0  0  0  0  0  0  0  0  0  0  0
  182.4900  175.8260  139.5320 C   0  0  0  0  0  2  0  0  0  0  0  0
  1 12  1  0  0  0  0
  3  1  2  0  0  0  0
  4  5  1  0  0  0  0
  4  3  1  0  0  0  0
  5  2  2  0  0  0  0
  6  5  1  1  0  0  0
  6  7  1  0  0  0  0
  8  9  1  0  0  0  0
  9  7  1  0  0  0  0
 10  6  1  0  0  0  0
 11  8  1  0  0  0  0
 11 10  1  0  0  0  0
 12 14  1  0  0  0  0
 13 12  2  0  0  0  0
 14 15  1  0  0  0  0
 15 16  1  0  0  0  0
 16 17  1  0  0  0  0
 17 18  1  0  0  0  0
 18 19  1  0  0  0  0
 20 29  1  0  0  0  0
 20 26  1  0  0  0  0
 21 28  1  0  0  0  0
 21 24  1  0  0  0  0
 23 24  2  0  0  0  0
 23 25  1  0  0  0  0
 24 22  1  0  0  0  0
 26 23  1  0  0  0  0
 27 25  1  0  0  0  0
 28 19  1  1  0  0  0
 28 31  1  0  0  0  0
 29 27  1  0  0  0  0
 30 26  2  0  0  0  0
 30 21  1  0  0  0  0
 31 22  2  0  0  0  0
 32  3  1  0  0  0  0
 33 32  1  0  0  0  0
 34 36  1  0  0  0  0
 34 33  1  0  0  0  0
 36 35  2  0  0  0  0
 37 36  1  0  0  0  0
 39 37  1  6  0  0  0
 39 40  1  0  0  0  0
 39 38  1  0  0  0  0
 40 41  1  6  0  0  0
 40 38  1  0  0  0  0
 42 44  1  0  0  0  0
 43 47  2  0  0  0  0
 44 46  1  1  0  0  0
 44 43  1  0  0  0  0
 45 49  1  0  0  0  0
 48 41  1  0  0  0  0
 48 42  1  0  0  0  0
 48 45  1  0  0  0  0
 49 43  1  0  0  0  0
M  END
>  <MODEL>
2

>  <REMARK>
 VINA RESULT:      -7.6      2.412      7.098
  Name = 
  17 active torsions:
  status: ('A' for Active; 'I' for Inactive)
    1  A    between atoms: C_2  and  C_48
    2  A    between atoms: N_3  and  C_22
    3  A    between atoms: S_8  and  C_16
    4  A    between atoms: S_8  and  C_27
    5  A    between atoms: C_15  and  S_25
    6  A    between atoms: C_16  and  C_43
    7  A    between atoms: C_17  and  S_25
    8  A    between atoms: C_17  and  C_31
    9  A    between atoms: C_21  and  N_30
   10  A    between atoms: C_21  and  C_45
   11  A    between atoms: C_22  and  C_27
   12  A    between atoms: C_23  and  N_36
   13  A    between atoms: C_23  and  C_42
   14  A    between atoms: N_30  and  C_43
   15  A    between atoms: C_31  and  C_41
   16  A    between atoms: C_32  and  C_44
   17  A    between atoms: C_41  and  C_44
                            x       y       z     vdW  Elec       q    Type
                         _______ _______ _______ _____ _____    ______ ____

>  <TORSDO>
F 17

$$$$
=
 OpenBabel10232410523D

 49 54  0  0  1  0  0  0  0  0999 V2000
  191.4130  176.7670  138.6810 N   0  0  0  0  0  0  0  0  0  0  0  0
  194.0570  176.2340  138.3720 O   0  0  0  0  0  0  0  0  0  0  0  0
  191.2790  176.3500  137.4540 C   0  0  0  0  0  0  0  0  0  0  0  0
  192.4210  175.8870  136.7280 N   0  0  0  0  0  2  0  0  0  0  0  0
  193.7680  175.8420  137.2100 C   0  0  0  0  0  0  0  0  0  0  0  0
  194.8450  175.3530  136.2990 C   0  0  2  0  0  3  0  0  0  0  0  0
  194.3760  174.1290  135.4940 C   0  0  0  0  0  2  0  0  0  0  0  0
  196.8570  173.7130  135.1920 C   0  0  0  0  0  2  0  0  0  0  0  0
  195.4810  173.0730  135.3900 C   0  0  0  0  0  2  0  0  0  0  0  0
  196.0100  175.0690  137.0320 O   0  0  0  0  0  0  0  0  0  0  0  0
  197.0440  174.9520  136.0840 C   0  0  0  0  0  2  0  0  0  0  0  0
  190.4030  177.2580  139.5760 C   0  0  0  0  0  0  0  0  0  0  0  0
  189.7520  178.3070  139.3350 O   0  0  0  0  0  0  0  0  0  0  0  0
  190.1030  176.4940  140.8190 C   0  0  0  0  0  2  0  0  0  0  0  0
  190.0440  177.6050  142.2570 S   0  0  0  0  0  0  0  0  0  0  0  0
  191.0640  176.5210  143.3060 C   0  0  0  0  0  2  0  0  0  0  0  0
  191.4070  177.2050  144.6160 C   0  0  0  0  0  2  0  0  0  0  0  0
  190.4870  176.7790  145.6580 N   0  0  0  0  0  2  0  0  0  0  0  0
  189.5650  177.8770  145.8770 C   0  0  0  0  0  2  0  0  0  0  0  0
  184.7660  178.0560  142.5540 C   0  0  0  0  0  2  0  0  0  0  0  0
  187.2790  178.1000  145.1010 N   0  0  0  0  0  0  0  0  0  0  0  0
  186.3750  178.3160  147.2140 C   0  0  0  0  0  3  0  0  0  0  0  0
  185.2040  178.7580  144.9480 C   0  0  0  0  0  0  0  0  0  0  0  0
  186.2840  178.6250  145.7810 C   0  0  0  0  0  0  0  0  0  0  0  0
  183.7780  179.0950  145.2510 C   0  0  0  0  0  2  0  0  0  0  0  0
  185.6660  178.3050  143.7240 C   0  0  0  0  0  0  0  0  0  0  0  0
  182.8580  178.5290  144.1590 C   0  0  0  0  0  2  0  0  0  0  0  0
  188.1470  177.3420  145.9660 C   0  0  2  0  0  3  0  0  0  0  0  0
  183.4260  178.7830  142.7530 C   0  0  0  0  0  2  0  0  0  0  0  0
  186.9220  177.8230  143.8570 N   0  0  0  0  0  0  0  0  0  0  0  0
  187.6200  177.5320  147.3340 N   0  0  0  0  0  0  0  0  0  0  0  0
  189.7010  176.3650  136.5930 S   0  0  0  0  0  0  0  0  0  0  0  0
  189.4450  174.5890  136.8480 C   0  0  0  0  0  2  0  0  0  0  0  0
  188.1010  174.1900  136.2690 C   0  0  0  0  0  2  0  0  0  0  0  0
  188.1600  171.9930  137.1200 O   0  0  0  0  0  0  0  0  0  0  0  0
  187.5310  173.0350  137.0280 C   0  0  0  0  0  0  0  0  0  0  0  0
  186.1690  173.1290  137.6330 C   0  0  0  0  0  2  0  0  0  0  0  0
  183.9670  172.2050  137.3220 O   0  0  0  0  0  0  0  0  0  0  0  0
  185.0970  172.6880  136.6340 C   0  0  1  0  0  3  0  0  0  0  0  0
  183.8160  173.4550  136.6940 C   0  0  2  0  0  3  0  0  0  0  0  0
  183.7440  174.5440  137.7600 C   0  0  0  0  0  2  0  0  0  0  0  0
  185.0680  176.3640  137.0960 C   0  0  0  0  0  2  0  0  0  0  0  0
  184.5180  178.2420  138.5910 C   0  0  0  0  0  0  0  0  0  0  0  0
  185.1700  177.8790  137.2840 C   0  0  1  0  0  3  0  0  0  0  0  0
  182.7390  176.6800  137.9050 C   0  0  0  0  0  2  0  0  0  0  0  0
  186.6380  178.2740  137.2660 C   0  0  0  0  0  1  0  0  0  0  0  0
  184.8940  179.2030  139.2440 O   0  0  0  0  0  0  0  0  0  0  0  0
  183.6870  175.8540  137.1340 N   0  0  0  0  0  0  0  0  0  0  0  0
  183.3800  177.4090  139.0860 C   0  0  0  0  0  2  0  0  0  0  0  0
  1 12  1  0  0  0  0
  3  1  2  0  0  0  0
  4  5  1  0  0  0  0
  4  3  1  0  0  0  0
  5  2  2  0  0  0  0
  6 10  1  0  0  0  0
  6  5  1  1  0  0  0
  7  6  1  0  0  0  0
  8  9  1  0  0  0  0
  8 11  1  0  0  0  0
  9  7  1  0  0  0  0
 11 10  1  0  0  0  0
 12 14  1  0  0  0  0
 13 12  2  0  0  0  0
 14 15  1  0  0  0  0
 15 16  1  0  0  0  0
 16 17  1  0  0  0  0
 17 18  1  0  0  0  0
 18 19  1  0  0  0  0
 20 29  1  0  0  0  0
 20 26  1  0  0  0  0
 21 24  1  0  0  0  0
 21 28  1  0  0  0  0
 22 31  2  0  0  0  0
 23 25  1  0  0  0  0
 23 24  2  0  0  0  0
 24 22  1  0  0  0  0
 26 30  2  0  0  0  0
 26 23  1  0  0  0  0
 27 25  1  0  0  0  0
 28 19  1  1  0  0  0
 28 31  1  0  0  0  0
 29 27  1  0  0  0  0
 30 21  1  0  0  0  0
 32 33  1  0  0  0  0
 32  3  1  0  0  0  0
 34 33  1  0  0  0  0
 34 36  1  0  0  0  0
 36 35  2  0  0  0  0
 36 37  1  0  0  0  0
 39 40  1  0  0  0  0
 39 38  1  0  0  0  0
 39 37  1  1  0  0  0
 40 38  1  0  0  0  0
 40 41  1  1  0  0  0
 42 48  1  0  0  0  0
 42 44  1  0  0  0  0
 43 49  1  0  0  0  0
 43 47  2  0  0  0  0
 44 46  1  1  0  0  0
 44 43  1  0  0  0  0
 45 49  1  0  0  0  0
 48 41  1  0  0  0  0
 48 45  1  0  0  0  0
M  END
>  <MODEL>
3

>  <REMARK>
 VINA RESULT:      -7.3      2.326      7.081
  Name = 
  17 active torsions:
  status: ('A' for Active; 'I' for Inactive)
    1  A    between atoms: C_2  and  C_48
    2  A    between atoms: N_3  and  C_22
    3  A    between atoms: S_8  and  C_16
    4  A    between atoms: S_8  and  C_27
    5  A    between atoms: C_15  and  S_25
    6  A    between atoms: C_16  and  C_43
    7  A    between atoms: C_17  and  S_25
    8  A    between atoms: C_17  and  C_31
    9  A    between atoms: C_21  and  N_30
   10  A    between atoms: C_21  and  C_45
   11  A    between atoms: C_22  and  C_27
   12  A    between atoms: C_23  and  N_36
   13  A    between atoms: C_23  and  C_42
   14  A    between atoms: N_30  and  C_43
   15  A    between atoms: C_31  and  C_41
   16  A    between atoms: C_32  and  C_44
   17  A    between atoms: C_41  and  C_44
                            x       y       z     vdW  Elec       q    Type
                         _______ _______ _______ _____ _____    ______ ____

>  <TORSDO>
F 17

$$$$
=
 OpenBabel10232410523D

 49 54  0  0  1  0  0  0  0  0999 V2000
  191.2460  176.9460  139.3530 N   0  0  0  0  0  0  0  0  0  0  0  0
  193.8170  176.6550  138.5330 O   0  0  0  0  0  0  0  0  0  0  0  0
  190.9200  176.3370  138.2470 C   0  0  0  0  0  0  0  0  0  0  0  0
  191.9420  175.8930  137.3490 N   0  0  0  0  0  2  0  0  0  0  0  0
  193.3520  176.0650  137.5220 C   0  0  0  0  0  0  0  0  0  0  0  0
  194.2750  175.5610  136.4630 C   0  0  2  0  0  3  0  0  0  0  0  0
  193.7570  174.2460  135.8550 C   0  0  0  0  0  2  0  0  0  0  0  0
  196.1640  173.9490  135.1210 C   0  0  0  0  0  2  0  0  0  0  0  0
  194.8980  173.2510  135.6240 C   0  0  0  0  0  2  0  0  0  0  0  0
  195.5730  175.4100  136.9820 O   0  0  0  0  0  0  0  0  0  0  0  0
  196.4200  175.2700  135.8650 C   0  0  0  0  0  2  0  0  0  0  0  0
  190.3830  177.4560  140.3810 C   0  0  0  0  0  0  0  0  0  0  0  0
  189.2060  177.8300  140.1390 O   0  0  0  0  0  0  0  0  0  0  0  0
  190.8880  177.5290  141.7810 C   0  0  0  0  0  2  0  0  0  0  0  0
  190.2450  176.1440  142.7680 S   0  0  0  0  0  0  0  0  0  0  0  0
  191.5940  176.2140  143.9900 C   0  0  0  0  0  2  0  0  0  0  0  0
  191.2830  177.2230  145.0810 C   0  0  0  0  0  2  0  0  0  0  0  0
  190.0830  176.8260  145.8000 N   0  0  0  0  0  2  0  0  0  0  0  0
  189.1620  177.9450  145.7290 C   0  0  0  0  0  2  0  0  0  0  0  0
  184.5110  178.0800  142.2010 C   0  0  0  0  0  2  0  0  0  0  0  0
  186.9150  178.1730  144.8490 N   0  0  0  0  0  0  0  0  0  0  0  0
  185.9260  178.4710  146.9140 C   0  0  0  0  0  3  0  0  0  0  0  0
  184.8590  178.8550  144.5870 C   0  0  0  0  0  0  0  0  0  0  0  0
  185.9010  178.7340  145.4690 C   0  0  0  0  0  0  0  0  0  0  0  0
  183.4270  179.2210  144.8180 C   0  0  0  0  0  2  0  0  0  0  0  0
  185.3650  178.3550  143.3990 C   0  0  0  0  0  0  0  0  0  0  0  0
  182.5440  178.6320  143.7070 C   0  0  0  0  0  2  0  0  0  0  0  0
  187.7350  177.4320  145.7750 C   0  0  2  0  0  3  0  0  0  0  0  0
  183.1750  178.8310  142.3190 C   0  0  0  0  0  2  0  0  0  0  0  0
  186.6060  177.8610  143.6010 N   0  0  0  0  0  0  0  0  0  0  0  0
  187.1530  177.6750  147.1120 N   0  0  0  0  0  0  0  0  0  0  0  0
  189.2130  176.0550  137.7620 S   0  0  0  0  0  0  0  0  0  0  0  0
  189.2260  177.4370  136.5890 C   0  0  0  0  0  2  0  0  0  0  0  0
  188.0860  178.3820  136.9180 C   0  0  0  0  0  2  0  0  0  0  0  0
  186.9630  178.3510  134.8470 O   0  0  0  0  0  0  0  0  0  0  0  0
  186.9090  178.1010  136.0410 C   0  0  0  0  0  0  0  0  0  0  0  0
  185.6450  177.5640  136.6250 C   0  0  0  0  0  2  0  0  0  0  0  0
  185.6400  175.1770  136.9450 O   0  0  0  0  0  0  0  0  0  0  0  0
  185.3070  176.1950  136.0310 C   0  0  1  0  0  3  0  0  0  0  0  0
  184.2650  175.4180  136.7700 C   0  0  2  0  0  3  0  0  0  0  0  0
  183.7110  176.0820  138.0270 C   0  0  0  0  0  2  0  0  0  0  0  0
  182.3060  177.9460  138.2670 C   0  0  0  0  0  2  0  0  0  0  0  0
  180.6560  177.3890  140.0070 C   0  0  0  0  0  0  0  0  0  0  0  0
  180.9590  178.3380  138.8780 C   0  0  1  0  0  3  0  0  0  0  0  0
  181.4320  175.6280  138.4670 C   0  0  0  0  0  2  0  0  0  0  0  0
  181.0460  179.7740  139.3660 C   0  0  0  0  0  1  0  0  0  0  0  0
  179.9960  177.7410  140.9720 O   0  0  0  0  0  0  0  0  0  0  0  0
  182.3580  176.5540  137.7880 N   0  0  0  0  0  0  0  0  0  0  0  0
  181.1670  175.9870  139.9300 C   0  0  0  0  0  2  0  0  0  0  0  0
  1 12  1  0  0  0  0
  3  1  2  0  0  0  0
  4  5  1  0  0  0  0
  4  3  1  0  0  0  0
  5  2  2  0  0  0  0
  6 10  1  0  0  0  0
  6  5  1  1  0  0  0
  7  6  1  0  0  0  0
  8  9  1  0  0  0  0
  8 11  1  0  0  0  0
  9  7  1  0  0  0  0
 11 10  1  0  0  0  0
 12 14  1  0  0  0  0
 13 12  2  0  0  0  0
 14 15  1  0  0  0  0
 15 16  1  0  0  0  0
 16 17  1  0  0  0  0
 17 18  1  0  0  0  0
 19 18  1  0  0  0  0
 20 29  1  0  0  0  0
 20 26  1  0  0  0  0
 21 24  1  0  0  0  0
 21 28  1  0  0  0  0
 22 31  2  0  0  0  0
 23 25  1  0  0  0  0
 23 24  2  0  0  0  0
 24 22  1  0  0  0  0
 26 30  2  0  0  0  0
 26 23  1  0  0  0  0
 27 25  1  0  0  0  0
 28 19  1  1  0  0  0
 28 31  1  0  0  0  0
 29 27  1  0  0  0  0
 30 21  1  0  0  0  0
 32  3  1  0  0  0  0
 33 34  1  0  0  0  0
 33 32  1  0  0  0  0
 35 36  2  0  0  0  0
 36 37  1  0  0  0  0
 36 34  1  0  0  0  0
 39 37  1  1  0  0  0
 39 40  1  0  0  0  0
 39 38  1  0  0  0  0
 40 38  1  0  0  0  0
 40 41  1  1  0  0  0
 42 44  1  0  0  0  0
 43 47  2  0  0  0  0
 44 46  1  1  0  0  0
 44 43  1  0  0  0  0
 45 49  1  0  0  0  0
 48 41  1  0  0  0  0
 48 42  1  0  0  0  0
 48 45  1  0  0  0  0
 49 43  1  0  0  0  0
M  END
>  <MODEL>
4

>  <REMARK>
 VINA RESULT:      -7.2      2.577      8.002
  Name = 
  17 active torsions:
  status: ('A' for Active; 'I' for Inactive)
    1  A    between atoms: C_2  and  C_48
    2  A    between atoms: N_3  and  C_22
    3  A    between atoms: S_8  and  C_16
    4  A    between atoms: S_8  and  C_27
    5  A    between atoms: C_15  and  S_25
    6  A    between atoms: C_16  and  C_43
    7  A    between atoms: C_17  and  S_25
    8  A    between atoms: C_17  and  C_31
    9  A    between atoms: C_21  and  N_30
   10  A    between atoms: C_21  and  C_45
   11  A    between atoms: C_22  and  C_27
   12  A    between atoms: C_23  and  N_36
   13  A    between atoms: C_23  and  C_42
   14  A    between atoms: N_30  and  C_43
   15  A    between atoms: C_31  and  C_41
   16  A    between atoms: C_32  and  C_44
   17  A    between atoms: C_41  and  C_44
                            x       y       z     vdW  Elec       q    Type
                         _______ _______ _______ _____ _____    ______ ____

>  <TORSDO>
F 17

$$$$
=
 OpenBabel10232410523D

 49 54  0  0  1  0  0  0  0  0999 V2000
  190.2490  177.3860  138.4420 N   0  0  0  0  0  0  0  0  0  0  0  0
  192.9070  176.9010  138.1860 O   0  0  0  0  0  0  0  0  0  0  0  0
  190.0810  176.4000  137.6060 C   0  0  0  0  0  0  0  0  0  0  0  0
  191.2160  175.6910  137.1000 N   0  0  0  0  0  2  0  0  0  0  0  0
  192.5880  175.9630  137.4080 C   0  0  0  0  0  0  0  0  0  0  0  0
  193.6490  175.1340  136.7630 C   0  0  2  0  0  3  0  0  0  0  0  0
  193.3160  173.6350  136.8570 C   0  0  0  0  0  2  0  0  0  0  0  0
  195.7980  173.3320  136.4470 C   0  0  0  0  0  2  0  0  0  0  0  0
  194.5630  172.8070  137.1810 C   0  0  0  0  0  2  0  0  0  0  0  0
  194.9010  175.4190  137.3350 O   0  0  0  0  0  0  0  0  0  0  0  0
  195.8580  174.8690  136.4600 C   0  0  0  0  0  2  0  0  0  0  0  0
  189.2520  178.2100  139.0650 C   0  0  0  0  0  0  0  0  0  0  0  0
  188.5950  179.0670  138.4180 O   0  0  0  0  0  0  0  0  0  0  0  0
  188.9730  178.0370  140.5190 C   0  0  0  0  0  2  0  0  0  0  0  0
  190.1860  176.9120  141.2740 S   0  0  0  0  0  0  0  0  0  0  0  0
  190.7660  178.1390  142.4890 C   0  0  0  0  0  2  0  0  0  0  0  0
  191.9230  177.5870  143.3030 C   0  0  0  0  0  2  0  0  0  0  0  0
  191.4680  176.4850  144.1340 N   0  0  0  0  0  2  0  0  0  0  0  0
  191.2730  177.0180  145.4690 C   0  0  0  0  0  2  0  0  0  0  0  0
  185.6800  178.0260  144.1270 C   0  0  0  0  0  2  0  0  0  0  0  0
  188.9040  177.5170  145.5920 N   0  0  0  0  0  0  0  0  0  0  0  0
  188.8190  177.4900  147.8990 C   0  0  0  0  0  3  0  0  0  0  0  0
  186.9990  178.3400  146.2660 C   0  0  0  0  0  0  0  0  0  0  0  0
  188.2760  178.0090  146.6370 C   0  0  0  0  0  0  0  0  0  0  0  0
  185.8170  178.7330  147.0950 C   0  0  0  0  0  2  0  0  0  0  0  0
  186.9520  178.0360  144.9160 C   0  0  0  0  0  0  0  0  0  0  0  0
  184.5150  178.3990  146.3500 C   0  0  0  0  0  2  0  0  0  0  0  0
  189.9210  176.5800  146.0000 C   0  0  2  0  0  3  0  0  0  0  0  0
  184.5880  178.8120  144.8710 C   0  0  0  0  0  2  0  0  0  0  0  0
  188.1090  177.4500  144.5370 N   0  0  0  0  0  0  0  0  0  0  0  0
  189.9250  176.6080  147.4780 N   0  0  0  0  0  0  0  0  0  0  0  0
  188.4610  175.9010  137.0090 S   0  0  0  0  0  0  0  0  0  0  0  0
  188.5770  176.9590  135.5430 C   0  0  0  0  0  2  0  0  0  0  0  0
  187.3400  177.8330  135.4580 C   0  0  0  0  0  2  0  0  0  0  0  0
  186.1000  176.1660  134.3460 O   0  0  0  0  0  0  0  0  0  0  0  0
  186.1240  176.9900  135.2460 C   0  0  0  0  0  0  0  0  0  0  0  0
  184.9130  177.1870  136.0960 C   0  0  0  0  0  2  0  0  0  0  0  0
  184.2620  175.7920  137.9480 O   0  0  0  0  0  0  0  0  0  0  0  0
  184.3350  175.8430  136.5430 C   0  0  1  0  0  3  0  0  0  0  0  0
  183.0330  175.9200  137.2740 C   0  0  2  0  0  3  0  0  0  0  0  0
  182.4820  177.3240  137.5020 C   0  0  0  0  0  2  0  0  0  0  0  0
  181.5670  177.3590  139.6620 C   0  0  0  0  0  2  0  0  0  0  0  0
  181.0190  179.7030  140.1790 C   0  0  0  0  0  0  0  0  0  0  0  0
  181.2300  178.3420  140.7860 C   0  0  1  0  0  3  0  0  0  0  0  0
  183.0270  179.1960  138.8420 C   0  0  0  0  0  2  0  0  0  0  0  0
  179.9820  177.8530  141.5020 C   0  0  0  0  0  1  0  0  0  0  0  0
  180.2540  180.5110  140.6810 O   0  0  0  0  0  0  0  0  0  0  0  0
  182.7440  177.7480  138.8670 N   0  0  0  0  0  0  0  0  0  0  0  0
  181.7750  180.0680  138.9420 C   0  0  0  0  0  2  0  0  0  0  0  0
  1 12  1  0  0  0  0
  3  1  2  0  0  0  0
  4  5  1  0  0  0  0
  4  3  1  0  0  0  0
  5  2  2  0  0  0  0
  6  7  1  0  0  0  0
  6 10  1  0  0  0  0
  6  5  1  1  0  0  0
  7  9  1  0  0  0  0
  8 11  1  0  0  0  0
  8  9  1  0  0  0  0
 11 10  1  0  0  0  0
 12 14  1  0  0  0  0
 13 12  2  0  0  0  0
 14 15  1  0  0  0  0
 15 16  1  0  0  0  0
 16 17  1  0  0  0  0
 17 18  1  0  0  0  0
 18 19  1  0  0  0  0
 20 29  1  0  0  0  0
 20 26  1  0  0  0  0
 21 28  1  0  0  0  0
 21 24  1  0  0  0  0
 23 24  2  0  0  0  0
 23 25  1  0  0  0  0
 24 22  1  0  0  0  0
 26 23  1  0  0  0  0
 27 25  1  0  0  0  0
 28 19  1  6  0  0  0
 28 31  1  0  0  0  0
 29 27  1  0  0  0  0
 30 26  2  0  0  0  0
 30 21  1  0  0  0  0
 31 22  2  0  0  0  0
 32  3  1  0  0  0  0
 33 32  1  0  0  0  0
 34 33  1  0  0  0  0
 35 36  2  0  0  0  0
 36 34  1  0  0  0  0
 36 37  1  0  0  0  0
 39 37  1  1  0  0  0
 39 40  1  0  0  0  0
 39 38  1  0  0  0  0
 40 41  1  1  0  0  0
 40 38  1  0  0  0  0
 41 48  1  0  0  0  0
 42 44  1  0  0  0  0
 43 47  2  0  0  0  0
 43 44  1  0  0  0  0
 44 46  1  6  0  0  0
 45 48  1  0  0  0  0
 45 49  1  0  0  0  0
 48 42  1  0  0  0  0
 49 43  1  0  0  0  0
M  END
>  <MODEL>
5

>  <REMARK>
 VINA RESULT:      -7.2      2.470      7.853
  Name = 
  17 active torsions:
  status: ('A' for Active; 'I' for Inactive)
    1  A    between atoms: C_2  and  C_48
    2  A    between atoms: N_3  and  C_22
    3  A    between atoms: S_8  and  C_16
    4  A    between atoms: S_8  and  C_27
    5  A    between atoms: C_15  and  S_25
    6  A    between atoms: C_16  and  C_43
    7  A    between atoms: C_17  and  S_25
    8  A    between atoms: C_17  and  C_31
    9  A    between atoms: C_21  and  N_30
   10  A    between atoms: C_21  and  C_45
   11  A    between atoms: C_22  and  C_27
   12  A    between atoms: C_23  and  N_36
   13  A    between atoms: C_23  and  C_42
   14  A    between atoms: N_30  and  C_43
   15  A    between atoms: C_31  and  C_41
   16  A    between atoms: C_32  and  C_44
   17  A    between atoms: C_41  and  C_44
                            x       y       z     vdW  Elec       q    Type
                         _______ _______ _______ _____ _____    ______ ____

>  <TORSDO>
F 17

$$$$
=
 OpenBabel10232410523D

 49 54  0  0  1  0  0  0  0  0999 V2000
  181.9640  178.9450  140.4550 N   0  0  0  0  0  0  0  0  0  0  0  0
  182.2580  179.1170  143.1480 O   0  0  0  0  0  0  0  0  0  0  0  0
  183.2630  178.8530  140.4100 C   0  0  0  0  0  0  0  0  0  0  0  0
  184.0220  178.8680  141.6220 N   0  0  0  0  0  2  0  0  0  0  0  0
  183.4960  178.9970  142.9480 C   0  0  0  0  0  0  0  0  0  0  0  0
  184.4440  179.0220  144.1000 C   0  0  2  0  0  3  0  0  0  0  0  0
  185.7860  178.3670  143.7300 C   0  0  0  0  0  2  0  0  0  0  0  0
  186.0630  178.1430  146.2390 C   0  0  0  0  0  2  0  0  0  0  0  0
  186.3160  177.4980  144.8740 C   0  0  0  0  0  2  0  0  0  0  0  0
  183.8630  178.4040  145.2200 O   0  0  0  0  0  0  0  0  0  0  0  0
  184.6610  178.7700  146.3210 C   0  0  0  0  0  2  0  0  0  0  0  0
  181.0280  178.9400  139.3650 C   0  0  0  0  0  0  0  0  0  0  0  0
  180.6390  180.0030  138.8160 O   0  0  0  0  0  0  0  0  0  0  0  0
  180.5130  177.6370  138.8590 C   0  0  0  0  0  2  0  0  0  0  0  0
  179.9900  176.5730  140.2370 S   0  0  0  0  0  0  0  0  0  0  0  0
  180.7630  175.0740  139.5490 C   0  0  0  0  0  2  0  0  0  0  0  0
  181.3230  175.3430  138.1650 C   0  0  0  0  0  2  0  0  0  0  0  0
  182.6950  174.8700  138.0810 N   0  0  0  0  0  2  0  0  0  0  0  0
  182.7530  173.9490  136.9620 C   0  0  0  0  0  2  0  0  0  0  0  0
  188.4720  172.7870  136.7330 C   0  0  0  0  0  2  0  0  0  0  0  0
  185.1610  174.1430  136.7580 N   0  0  0  0  0  0  0  0  0  0  0  0
  185.1250  176.3640  136.1280 C   0  0  0  0  0  3  0  0  0  0  0  0
  187.1810  174.9630  136.8400 C   0  0  0  0  0  0  0  0  0  0  0  0
  185.8460  175.2650  136.7820 C   0  0  0  0  0  0  0  0  0  0  0  0
  188.3840  175.8390  136.6790 C   0  0  0  0  0  2  0  0  0  0  0  0
  187.2120  173.5800  136.8860 C   0  0  0  0  0  0  0  0  0  0  0  0
  189.5850  175.0050  136.2070 C   0  0  0  0  0  2  0  0  0  0  0  0
  183.9140  174.3200  136.0570 C   0  0  2  0  0  3  0  0  0  0  0  0
  189.6960  173.6820  136.9830 C   0  0  0  0  0  2  0  0  0  0  0  0
  185.9600  173.0890  136.7480 N   0  0  0  0  0  0  0  0  0  0  0  0
  183.8460  175.7560  135.7120 N   0  0  0  0  0  0  0  0  0  0  0  0
  184.1740  178.7470  138.8640 S   0  0  0  0  0  0  0  0  0  0  0  0
  185.7690  179.0110  139.6840 C   0  0  0  0  0  2  0  0  0  0  0  0
  186.7800  178.0190  139.1400 C   0  0  0  0  0  2  0  0  0  0  0  0
  188.8770  179.0360  138.7940 O   0  0  0  0  0  0  0  0  0  0  0  0
  188.1620  178.4070  139.5570 C   0  0  0  0  0  0  0  0  0  0  0  0
  188.6960  177.9820  140.8850 C   0  0  0  0  0  2  0  0  0  0  0  0
  191.0850  177.6790  140.9070 O   0  0  0  0  0  0  0  0  0  0  0  0
  189.8620  177.0060  140.7170 C   0  0  1  0  0  3  0  0  0  0  0  0
  190.7020  176.8000  141.9370 C   0  0  2  0  0  3  0  0  0  0  0  0
  190.3000  177.6140  143.1630 C   0  0  0  0  0  2  0  0  0  0  0  0
  189.4250  177.5880  145.3400 C   0  0  0  0  0  2  0  0  0  0  0  0
  191.2190  176.8020  146.8320 C   0  0  0  0  0  0  0  0  0  0  0  0
  189.7340  177.0260  146.7300 C   0  0  1  0  0  3  0  0  0  0  0  0
  191.0270  175.8530  144.5650 C   0  0  0  0  0  2  0  0  0  0  0  0
  189.2480  178.0180  147.7740 C   0  0  0  0  0  1  0  0  0  0  0  0
  191.8030  176.8880  147.9010 O   0  0  0  0  0  0  0  0  0  0  0  0
  189.8850  176.7270  144.2370 N   0  0  0  0  0  0  0  0  0  0  0  0
  191.9840  176.4530  145.5960 C   0  0  0  0  0  2  0  0  0  0  0  0
  3  1  2  0  0  0  0
  3  4  1  0  0  0  0
  4  5  1  0  0  0  0
  5  2  2  0  0  0  0
  6  5  1  6  0  0  0
  6 10  1  0  0  0  0
  7  6  1  0  0  0  0
  7  9  1  0  0  0  0
  8 11  1  0  0  0  0
  9  8  1  0  0  0  0
 10 11  1  0  0  0  0
 12  1  1  0  0  0  0
 13 12  2  0  0  0  0
 14 12  1  0  0  0  0
 14 15  1  0  0  0  0
 16 15  1  0  0  0  0
 17 16  1  0  0  0  0
 18 17  1  0  0  0  0
 19 18  1  0  0  0  0
 20 26  1  0  0  0  0
 20 29  1  0  0  0  0
 21 24  1  0  0  0  0
 22 24  1  0  0  0  0
 23 26  1  0  0  0  0
 24 23  2  0  0  0  0
 25 23  1  0  0  0  0
 27 25  1  0  0  0  0
 27 29  1  0  0  0  0
 28 21  1  0  0  0  0
 28 19  1  1  0  0  0
 30 21  1  0  0  0  0
 30 26  2  0  0  0  0
 31 28  1  0  0  0  0
 31 22  2  0  0  0  0
 32 33  1  0  0  0  0
 32  3  1  0  0  0  0
 34 36  1  0  0  0  0
 34 33  1  0  0  0  0
 35 36  2  0  0  0  0
 36 37  1  0  0  0  0
 38 40  1  0  0  0  0
 39 37  1  1  0  0  0
 39 38  1  0  0  0  0
 39 40  1  0  0  0  0
 40 41  1  1  0  0  0
 41 48  1  0  0  0  0
 42 44  1  0  0  0  0
 43 47  2  0  0  0  0
 44 43  1  0  0  0  0
 44 46  1  1  0  0  0
 45 49  1  0  0  0  0
 48 45  1  0  0  0  0
 48 42  1  0  0  0  0
 49 43  1  0  0  0  0
M  END
>  <MODEL>
6

>  <REMARK>
 VINA RESULT:      -7.1      3.245      8.068
  Name = 
  17 active torsions:
  status: ('A' for Active; 'I' for Inactive)
    1  A    between atoms: C_2  and  C_48
    2  A    between atoms: N_3  and  C_22
    3  A    between atoms: S_8  and  C_16
    4  A    between atoms: S_8  and  C_27
    5  A    between atoms: C_15  and  S_25
    6  A    between atoms: C_16  and  C_43
    7  A    between atoms: C_17  and  S_25
    8  A    between atoms: C_17  and  C_31
    9  A    between atoms: C_21  and  N_30
   10  A    between atoms: C_21  and  C_45
   11  A    between atoms: C_22  and  C_27
   12  A    between atoms: C_23  and  N_36
   13  A    between atoms: C_23  and  C_42
   14  A    between atoms: N_30  and  C_43
   15  A    between atoms: C_31  and  C_41
   16  A    between atoms: C_32  and  C_44
   17  A    between atoms: C_41  and  C_44
                            x       y       z     vdW  Elec       q    Type
                         _______ _______ _______ _____ _____    ______ ____

>  <TORSDO>
F 17

$$$$
=
 OpenBabel10232410523D

 49 54  0  0  1  0  0  0  0  0999 V2000
  188.8980  178.0930  140.3610 N   0  0  0  0  0  0  0  0  0  0  0  0
  190.5790  177.7080  142.4570 O   0  0  0  0  0  0  0  0  0  0  0  0
  187.9740  178.2970  141.2570 C   0  0  0  0  0  0  0  0  0  0  0  0
  188.3020  178.2370  142.6490 N   0  0  0  0  0  2  0  0  0  0  0  0
  189.5910  177.9480  143.2010 C   0  0  0  0  0  0  0  0  0  0  0  0
  189.7460  177.8990  144.6850 C   0  0  2  0  0  3  0  0  0  0  0  0
  191.2110  177.6530  145.0820 C   0  0  0  0  0  2  0  0  0  0  0  0
  190.2080  176.9010  147.2840 C   0  0  0  0  0  2  0  0  0  0  0  0
  191.3140  176.6700  146.2520 C   0  0  0  0  0  2  0  0  0  0  0  0
  188.8950  176.9210  145.2290 O   0  0  0  0  0  0  0  0  0  0  0  0
  188.8510  177.1760  146.6130 C   0  0  0  0  0  2  0  0  0  0  0  0
  188.7780  178.1180  138.9300 C   0  0  0  0  0  0  0  0  0  0  0  0
  188.8100  179.1920  138.2770 O   0  0  0  0  0  0  0  0  0  0  0  0
  188.6270  176.8310  138.1940 C   0  0  0  0  0  2  0  0  0  0  0  0
  187.2810  176.9420  136.9770 S   0  0  0  0  0  0  0  0  0  0  0  0
  188.3870  176.7700  135.5400 C   0  0  0  0  0  2  0  0  0  0  0  0
  188.5770  175.3090  135.1770 C   0  0  0  0  0  2  0  0  0  0  0  0
  189.9030  174.8640  135.5740 N   0  0  0  0  0  2  0  0  0  0  0  0
  190.8300  175.9120  135.1910 C   0  0  0  0  0  2  0  0  0  0  0  0
  196.6420  176.4710  135.0710 C   0  0  0  0  0  2  0  0  0  0  0  0
  193.2020  175.6440  135.6100 N   0  0  0  0  0  0  0  0  0  0  0  0
  192.9250  174.1690  137.3640 C   0  0  0  0  0  3  0  0  0  0  0  0
  195.1210  174.7360  136.1160 C   0  0  0  0  0  0  0  0  0  0  0  0
  193.7610  174.6430  136.2530 C   0  0  0  0  0  0  0  0  0  0  0  0
  196.2210  173.9940  136.8070 C   0  0  0  0  0  2  0  0  0  0  0  0
  195.3020  175.8480  135.3110 C   0  0  0  0  0  0  0  0  0  0  0  0
  197.5070  174.8340  136.8060 C   0  0  0  0  0  2  0  0  0  0  0  0
  191.9450  176.0050  136.2160 C   0  0  2  0  0  3  0  0  0  0  0  0
  197.7600  175.4800  135.4340 C   0  0  0  0  0  2  0  0  0  0  0  0
  194.1120  176.4450  135.0790 N   0  0  0  0  0  0  0  0  0  0  0  0
  191.7210  175.0200  137.2960 N   0  0  0  0  0  0  0  0  0  0  0  0
  186.2580  178.6150  140.8260 S   0  0  0  0  0  0  0  0  0  0  0  0
  185.7650  178.8030  142.5600 C   0  0  0  0  0  2  0  0  0  0  0  0
  184.4010  178.1700  142.7620 C   0  0  0  0  0  2  0  0  0  0  0  0
  184.1880  178.7180  145.0430 O   0  0  0  0  0  0  0  0  0  0  0  0
  183.7050  178.8000  143.9250 C   0  0  0  0  0  0  0  0  0  0  0  0
  182.3920  179.4830  143.7380 C   0  0  0  0  0  2  0  0  0  0  0  0
  180.0090  179.1730  143.8950 O   0  0  0  0  0  0  0  0  0  0  0  0
  181.2370  178.4860  143.8420 C   0  0  1  0  0  3  0  0  0  0  0  0
  180.2810  178.4940  142.6920 C   0  0  2  0  0  3  0  0  0  0  0  0
  180.5700  179.5170  141.5970 C   0  0  0  0  0  2  0  0  0  0  0  0
  181.2170  177.6240  140.3710 C   0  0  0  0  0  2  0  0  0  0  0  0
  182.8580  178.3730  138.6950 C   0  0  0  0  0  0  0  0  0  0  0  0
  181.9330  177.2470  139.0720 C   0  0  1  0  0  3  0  0  0  0  0  0
  180.9760  179.8500  139.2910 C   0  0  0  0  0  2  0  0  0  0  0  0
  182.6950  175.9520  139.2940 C   0  0  0  0  0  1  0  0  0  0  0  0
  183.8930  178.1670  138.0800 O   0  0  0  0  0  0  0  0  0  0  0  0
  180.4690  178.8900  140.2900 N   0  0  0  0  0  0  0  0  0  0  0  0
  182.4880  179.7700  139.0760 C   0  0  0  0  0  2  0  0  0  0  0  0
  1  3  2  0  0  0  0
  2  5  2  0  0  0  0
  3  4  1  0  0  0  0
  4  5  1  0  0  0  0
  6  5  1  6  0  0  0
  6  7  1  0  0  0  0
  6 10  1  0  0  0  0
  7  9  1  0  0  0  0
  9  8  1  0  0  0  0
 10 11  1  0  0  0  0
 11  8  1  0  0  0  0
 12  1  1  0  0  0  0
 13 12  2  0  0  0  0
 14 12  1  0  0  0  0
 15 14  1  0  0  0  0
 16 15  1  0  0  0  0
 17 16  1  0  0  0  0
 17 18  1  0  0  0  0
 19 18  1  0  0  0  0
 20 26  1  0  0  0  0
 20 29  1  0  0  0  0
 21 28  1  0  0  0  0
 21 24  1  0  0  0  0
 23 24  2  0  0  0  0
 23 25  1  0  0  0  0
 24 22  1  0  0  0  0
 26 23  1  0  0  0  0
 27 25  1  0  0  0  0
 28 19  1  6  0  0  0
 28 31  1  0  0  0  0
 29 27  1  0  0  0  0
 30 26  2  0  0  0  0
 30 21  1  0  0  0  0
 31 22  2  0  0  0  0
 32  3  1  0  0  0  0
 32 33  1  0  0  0  0
 33 34  1  0  0  0  0
 34 36  1  0  0  0  0
 36 35  2  0  0  0  0
 37 36  1  0  0  0  0
 39 37  1  6  0  0  0
 39 38  1  0  0  0  0
 40 41  1  6  0  0  0
 40 39  1  0  0  0  0
 40 38  1  0  0  0  0
 43 44  1  0  0  0  0
 43 49  1  0  0  0  0
 44 46  1  1  0  0  0
 44 42  1  0  0  0  0
 45 48  1  0  0  0  0
 47 43  2  0  0  0  0
 48 42  1  0  0  0  0
 48 41  1  0  0  0  0
 49 45  1  0  0  0  0
M  END
>  <MODEL>
7

>  <REMARK>
 VINA RESULT:      -7.1      2.830     10.505
  Name = 
  17 active torsions:
  status: ('A' for Active; 'I' for Inactive)
    1  A    between atoms: C_2  and  C_48
    2  A    between atoms: N_3  and  C_22
    3  A    between atoms: S_8  and  C_16
    4  A    between atoms: S_8  and  C_27
    5  A    between atoms: C_15  and  S_25
    6  A    between atoms: C_16  and  C_43
    7  A    between atoms: C_17  and  S_25
    8  A    between atoms: C_17  and  C_31
    9  A    between atoms: C_21  and  N_30
   10  A    between atoms: C_21  and  C_45
   11  A    between atoms: C_22  and  C_27
   12  A    between atoms: C_23  and  N_36
   13  A    between atoms: C_23  and  C_42
   14  A    between atoms: N_30  and  C_43
   15  A    between atoms: C_31  and  C_41
   16  A    between atoms: C_32  and  C_44
   17  A    between atoms: C_41  and  C_44
                            x       y       z     vdW  Elec       q    Type
                         _______ _______ _______ _____ _____    ______ ____

>  <TORSDO>
F 17

$$$$
=
 OpenBabel10232410523D

 49 54  0  0  1  0  0  0  0  0999 V2000
  190.8610  176.9310  138.0220 N   0  0  0  0  0  0  0  0  0  0  0  0
  193.5710  176.8490  138.1690 O   0  0  0  0  0  0  0  0  0  0  0  0
  190.9350  175.6840  137.6490 C   0  0  0  0  0  0  0  0  0  0  0  0
  192.2090  175.0400  137.5560 N   0  0  0  0  0  2  0  0  0  0  0  0
  193.4810  175.6420  137.8200 C   0  0  0  0  0  0  0  0  0  0  0  0
  194.7160  174.8230  137.6430 C   0  0  2  0  0  3  0  0  0  0  0  0
  194.3740  173.3940  137.1870 C   0  0  0  0  0  2  0  0  0  0  0  0
  196.6880  172.8480  138.0660 C   0  0  0  0  0  2  0  0  0  0  0  0
  195.2470  172.3570  137.9010 C   0  0  0  0  0  2  0  0  0  0  0  0
  195.4690  174.8170  138.8290 O   0  0  0  0  0  0  0  0  0  0  0  0
  196.7420  174.3290  138.4760 C   0  0  0  0  0  2  0  0  0  0  0  0
  189.6920  177.7490  138.1860 C   0  0  0  0  0  0  0  0  0  0  0  0
  189.3090  178.5500  137.2940 O   0  0  0  0  0  0  0  0  0  0  0  0
  188.8990  177.6360  139.4420 C   0  0  0  0  0  2  0  0  0  0  0  0
  187.1610  178.0780  139.1460 S   0  0  0  0  0  0  0  0  0  0  0  0
  186.8210  178.4610  140.8940 C   0  0  0  0  0  2  0  0  0  0  0  0
  185.3850  178.1240  141.2510 C   0  0  0  0  0  2  0  0  0  0  0  0
  184.8380  179.1410  142.1330 N   0  0  0  0  0  2  0  0  0  0  0  0
  184.4970  178.4780  143.3770 C   0  0  0  0  0  2  0  0  0  0  0  0
  189.8930  177.5940  145.4270 C   0  0  0  0  0  2  0  0  0  0  0  0
  186.4030  178.1090  144.8280 N   0  0  0  0  0  0  0  0  0  0  0  0
  185.2170  178.3990  146.7870 C   0  0  0  0  0  3  0  0  0  0  0  0
  187.6140  177.4590  146.5230 C   0  0  0  0  0  0  0  0  0  0  0  0
  186.3490  177.7690  146.0970 C   0  0  0  0  0  0  0  0  0  0  0  0
  188.1440  177.2190  147.9020 C   0  0  0  0  0  2  0  0  0  0  0  0
  188.3970  177.6110  145.3920 C   0  0  0  0  0  0  0  0  0  0  0  0
  189.6480  177.5280  147.9520 C   0  0  0  0  0  2  0  0  0  0  0  0
  185.3500  179.0370  144.5020 C   0  0  2  0  0  3  0  0  0  0  0  0
  190.3850  176.9490  146.7330 C   0  0  0  0  0  2  0  0  0  0  0  0
  187.6470  178.0950  144.3770 N   0  0  0  0  0  0  0  0  0  0  0  0
  184.5380  179.1740  145.7300 N   0  0  0  0  0  0  0  0  0  0  0  0
  189.4860  174.7210  137.1970 S   0  0  0  0  0  0  0  0  0  0  0  0
  189.6330  175.1600  135.4450 C   0  0  0  0  0  2  0  0  0  0  0  0
  188.3180  175.7470  134.9650 C   0  0  0  0  0  2  0  0  0  0  0  0
  187.3690  173.6150  134.6410 O   0  0  0  0  0  0  0  0  0  0  0  0
  187.2230  174.7390  135.0950 C   0  0  0  0  0  0  0  0  0  0  0  0
  185.9240  175.1130  135.7300 C   0  0  0  0  0  2  0  0  0  0  0  0
  184.8730  177.1350  134.9530 O   0  0  0  0  0  0  0  0  0  0  0  0
  185.8070  176.6310  135.8790 C   0  0  1  0  0  3  0  0  0  0  0  0
  184.4610  177.1290  136.2990 C   0  0  2  0  0  3  0  0  0  0  0  0
  183.3880  176.0600  136.4870 C   0  0  0  0  0  2  0  0  0  0  0  0
  182.4920  178.0510  137.3480 C   0  0  0  0  0  2  0  0  0  0  0  0
  181.9520  177.6370  139.7140 C   0  0  0  0  0  0  0  0  0  0  0  0
  181.7050  178.5650  138.5550 C   0  0  1  0  0  3  0  0  0  0  0  0
  181.6450  175.8270  138.0680 C   0  0  0  0  0  2  0  0  0  0  0  0
  182.1650  179.9800  138.8690 C   0  0  0  0  0  1  0  0  0  0  0  0
  181.9280  178.0390  140.8670 O   0  0  0  0  0  0  0  0  0  0  0  0
  182.1590  176.6670  136.9690 N   0  0  0  0  0  0  0  0  0  0  0  0
  182.2170  176.1920  139.4390 C   0  0  0  0  0  2  0  0  0  0  0  0
  1 12  1  0  0  0  0
  3  1  2  0  0  0  0
  4  3  1  0  0  0  0
  4  5  1  0  0  0  0
  5  2  2  0  0  0  0
  6  5  1  1  0  0  0
  6 10  1  0  0  0  0
  7  6  1  0  0  0  0
  7  9  1  0  0  0  0
  8 11  1  0  0  0  0
  9  8  1  0  0  0  0
 11 10  1  0  0  0  0
 12 14  1  0  0  0  0
 13 12  2  0  0  0  0
 15 14  1  0  0  0  0
 15 16  1  0  0  0  0
 16 17  1  0  0  0  0
 17 18  1  0  0  0  0
 18 19  1  0  0  0  0
 20 29  1  0  0  0  0
 21 24  1  0  0  0  0
 23 25  1  0  0  0  0
 24 23  2  0  0  0  0
 24 22  1  0  0  0  0
 25 27  1  0  0  0  0
 26 20  1  0  0  0  0
 26 23  1  0  0  0  0
 28 19  1  6  0  0  0
 28 21  1  0  0  0  0
 28 31  1  0  0  0  0
 29 27  1  0  0  0  0
 30 21  1  0  0  0  0
 30 26  2  0  0  0  0
 31 22  2  0  0  0  0
 32  3  1  0  0  0  0
 33 32  1  0  0  0  0
 34 36  1  0  0  0  0
 34 33  1  0  0  0  0
 35 36  2  0  0  0  0
 36 37  1  0  0  0  0
 38 39  1  0  0  0  0
 38 40  1  0  0  0  0
 39 37  1  6  0  0  0
 39 40  1  0  0  0  0
 40 41  1  6  0  0  0
 41 48  1  0  0  0  0
 42 44  1  0  0  0  0
 43 47  2  0  0  0  0
 44 46  1  1  0  0  0
 44 43  1  0  0  0  0
 45 49  1  0  0  0  0
 48 42  1  0  0  0  0
 48 45  1  0  0  0  0
 49 43  1  0  0  0  0
M  END
>  <MODEL>
8

>  <REMARK>
 VINA RESULT:      -7.0      2.114      6.849
  Name = 
  17 active torsions:
  status: ('A' for Active; 'I' for Inactive)
    1  A    between atoms: C_2  and  C_48
    2  A    between atoms: N_3  and  C_22
    3  A    between atoms: S_8  and  C_16
    4  A    between atoms: S_8  and  C_27
    5  A    between atoms: C_15  and  S_25
    6  A    between atoms: C_16  and  C_43
    7  A    between atoms: C_17  and  S_25
    8  A    between atoms: C_17  and  C_31
    9  A    between atoms: C_21  and  N_30
   10  A    between atoms: C_21  and  C_45
   11  A    between atoms: C_22  and  C_27
   12  A    between atoms: C_23  and  N_36
   13  A    between atoms: C_23  and  C_42
   14  A    between atoms: N_30  and  C_43
   15  A    between atoms: C_31  and  C_41
   16  A    between atoms: C_32  and  C_44
   17  A    between atoms: C_41  and  C_44
                            x       y       z     vdW  Elec       q    Type
                         _______ _______ _______ _____ _____    ______ ____

>  <TORSDO>
F 17

$$$$
=
 OpenBabel10232410523D

 49 54  0  0  1  0  0  0  0  0999 V2000
  191.2850  176.2070  136.1710 N   0  0  0  0  0  0  0  0  0  0  0  0
  193.9880  176.3390  135.9610 O   0  0  0  0  0  0  0  0  0  0  0  0
  191.4790  175.0690  136.7740 C   0  0  0  0  0  0  0  0  0  0  0  0
  192.8100  174.5890  136.9850 N   0  0  0  0  0  2  0  0  0  0  0  0
  194.0180  175.2400  136.5740 C   0  0  0  0  0  0  0  0  0  0  0  0
  195.3250  174.5770  136.8550 C   0  0  2  0  0  3  0  0  0  0  0  0
  195.3740  174.0310  138.2920 C   0  0  0  0  0  2  0  0  0  0  0  0
  197.8830  174.0810  137.9410 C   0  0  0  0  0  2  0  0  0  0  0  0
  196.7390  174.2820  138.9380 C   0  0  0  0  0  2  0  0  0  0  0  0
  196.3840  175.4680  136.6080 O   0  0  0  0  0  0  0  0  0  0  0  0
  197.5500  174.6790  136.5640 C   0  0  0  0  0  2  0  0  0  0  0  0
  190.0420  176.8620  135.8730 C   0  0  0  0  0  0  0  0  0  0  0  0
  189.5130  176.8000  134.7340 O   0  0  0  0  0  0  0  0  0  0  0  0
  189.3490  177.6250  136.9490 C   0  0  0  0  0  2  0  0  0  0  0  0
  187.5660  177.2700  136.9410 S   0  0  0  0  0  0  0  0  0  0  0  0
  187.2530  178.1220  138.5200 C   0  0  0  0  0  2  0  0  0  0  0  0
  188.5500  178.3560  139.2730 C   0  0  0  0  0  2  0  0  0  0  0  0
  188.3980  177.9600  140.6640 N   0  0  0  0  0  2  0  0  0  0  0  0
  189.6960  177.4920  141.1110 C   0  0  0  0  0  2  0  0  0  0  0  0
  186.9080  177.8770  146.2280 C   0  0  0  0  0  2  0  0  0  0  0  0
  189.1410  177.4190  143.4690 N   0  0  0  0  0  0  0  0  0  0  0  0
  191.1020  176.3780  144.1000 C   0  0  0  0  0  3  0  0  0  0  0  0
  189.3400  177.4810  145.6410 C   0  0  0  0  0  0  0  0  0  0  0  0
  189.9970  177.2760  144.4560 C   0  0  0  0  0  0  0  0  0  0  0  0
  189.7790  177.2380  147.0510 C   0  0  0  0  0  2  0  0  0  0  0  0
  188.0460  177.7900  145.2590 C   0  0  0  0  0  0  0  0  0  0  0  0
  188.5560  177.0150  147.9540 C   0  0  0  0  0  2  0  0  0  0  0  0
  189.5260  176.6140  142.3370 C   0  0  2  0  0  3  0  0  0  0  0  0
  187.4420  178.0340  147.6600 C   0  0  0  0  0  2  0  0  0  0  0  0
  187.9200  177.6630  143.9190 N   0  0  0  0  0  0  0  0  0  0  0  0
  190.8200  175.9980  142.7010 N   0  0  0  0  0  0  0  0  0  0  0  0
  190.1260  174.0240  137.3310 S   0  0  0  0  0  0  0  0  0  0  0  0
  189.7620  173.4500  135.6510 C   0  0  0  0  0  2  0  0  0  0  0  0
  188.2650  173.5220  135.4120 C   0  0  0  0  0  2  0  0  0  0  0  0
  187.9050  171.3310  136.1990 O   0  0  0  0  0  0  0  0  0  0  0  0
  187.5580  172.5000  136.2420 C   0  0  0  0  0  0  0  0  0  0  0  0
  186.3890  172.8900  137.0850 C   0  0  0  0  0  2  0  0  0  0  0  0
  184.0600  172.3380  137.3490 O   0  0  0  0  0  0  0  0  0  0  0  0
  185.0730  172.5370  136.3910 C   0  0  1  0  0  3  0  0  0  0  0  0
  183.9630  173.5190  136.5890 C   0  0  2  0  0  3  0  0  0  0  0  0
  184.2870  174.7140  137.4810 C   0  0  0  0  0  2  0  0  0  0  0  0
  183.8870  177.0120  137.7380 C   0  0  0  0  0  2  0  0  0  0  0  0
  182.3440  177.2690  139.6390 C   0  0  0  0  0  0  0  0  0  0  0  0
  182.9230  177.9700  138.4400 C   0  0  1  0  0  3  0  0  0  0  0  0
  182.0990  175.3310  138.1350 C   0  0  0  0  0  2  0  0  0  0  0  0
  183.6860  179.2210  138.8420 C   0  0  0  0  0  1  0  0  0  0  0  0
  182.0080  177.8880  140.6370 O   0  0  0  0  0  0  0  0  0  0  0  0
  183.2670  175.7390  137.3320 N   0  0  0  0  0  0  0  0  0  0  0  0
  182.1680  175.7850  139.5940 C   0  0  0  0  0  2  0  0  0  0  0  0
  1  3  2  0  0  0  0
  2  5  2  0  0  0  0
  3  4  1  0  0  0  0
  3 32  1  0  0  0  0
  5  4  1  0  0  0  0
  6  5  1  1  0  0  0
  6  7  1  0  0  0  0
  7  9  1  0  0  0  0
  8  9  1  0  0  0  0
 10  6  1  0  0  0  0
 11 10  1  0  0  0  0
 11  8  1  0  0  0  0
 12  1  1  0  0  0  0
 12 14  1  0  0  0  0
 13 12  2  0  0  0  0
 15 14  1  0  0  0  0
 15 16  1  0  0  0  0
 16 17  1  0  0  0  0
 17 18  1  0  0  0  0
 18 19  1  0  0  0  0
 20 29  1  0  0  0  0
 21 30  1  0  0  0  0
 21 24  1  0  0  0  0
 22 24  1  0  0  0  0
 23 25  1  0  0  0  0
 24 23  2  0  0  0  0
 25 27  1  0  0  0  0
 26 23  1  0  0  0  0
 26 20  1  0  0  0  0
 28 19  1  6  0  0  0
 28 31  1  0  0  0  0
 28 21  1  0  0  0  0
 29 27  1  0  0  0  0
 30 26  2  0  0  0  0
 31 22  2  0  0  0  0
 33 32  1  0  0  0  0
 34 33  1  0  0  0  0
 34 36  1  0  0  0  0
 35 36  2  0  0  0  0
 36 37  1  0  0  0  0
 39 40  1  0  0  0  0
 39 37  1  1  0  0  0
 39 38  1  0  0  0  0
 40 38  1  0  0  0  0
 40 41  1  1  0  0  0
 42 44  1  0  0  0  0
 43 47  2  0  0  0  0
 44 46  1  1  0  0  0
 44 43  1  0  0  0  0
 45 49  1  0  0  0  0
 48 41  1  0  0  0  0
 48 42  1  0  0  0  0
 48 45  1  0  0  0  0
 49 43  1  0  0  0  0
M  END
>  <MODEL>
9

>  <REMARK>
 VINA RESULT:      -6.9      2.446      7.247
  Name = 
  17 active torsions:
  status: ('A' for Active; 'I' for Inactive)
    1  A    between atoms: C_2  and  C_48
    2  A    between atoms: N_3  and  C_22
    3  A    between atoms: S_8  and  C_16
    4  A    between atoms: S_8  and  C_27
    5  A    between atoms: C_15  and  S_25
    6  A    between atoms: C_16  and  C_43
    7  A    between atoms: C_17  and  S_25
    8  A    between atoms: C_17  and  C_31
    9  A    between atoms: C_21  and  N_30
   10  A    between atoms: C_21  and  C_45
   11  A    between atoms: C_22  and  C_27
   12  A    between atoms: C_23  and  N_36
   13  A    between atoms: C_23  and  C_42
   14  A    between atoms: N_30  and  C_43
   15  A    between atoms: C_31  and  C_41
   16  A    between atoms: C_32  and  C_44
   17  A    between atoms: C_41  and  C_44
                            x       y       z     vdW  Elec       q    Type
                         _______ _______ _______ _____ _____    ______ ____

>  <TORSDO>
F 17

$$$$
