=
 OpenBabel10232410053D

 49 55  0  0  1  0  0  0  0  0999 V2000
  190.8830  175.0430  138.7090 O   0  0  0  0  0  0  0  0  0  0  0  0
  190.7200  175.1470  136.4010 N   0  0  0  0  0  0  0  0  0  0  0  0
  190.5210  175.7070  137.6990 C   0  0  0  0  0  0  0  0  0  0  0  0
  191.6900  176.1670  134.3460 C   0  0  0  0  0  1  0  0  0  0  0  0
  191.1750  174.0400  135.4970 C   0  0  0  0  0  2  0  0  0  0  0  0
  189.9250  177.0130  137.8530 N   0  0  0  0  0  0  0  0  0  0  0  0
  190.6820  175.1860  134.9140 C   0  0  1  0  0  0  0  0  0  0  0  0
  189.8610  177.6750  139.1660 C   0  0  1  0  0  3  0  0  0  0  0  0
  191.8950  177.0890  142.2260 N   0  0  0  0  0  2  0  0  0  0  0  0
  190.9190  177.1620  141.1840 C   0  0  0  0  0  0  0  0  0  0  0  0
  189.7040  176.7610  141.3430 N   0  0  0  0  0  0  0  0  0  0  0  0
  188.9280  176.9430  140.1320 C   0  0  0  0  0  2  0  0  0  0  0  0
  191.2220  177.7210  139.8490 C   0  0  0  0  0  2  0  0  0  0  0  0
  191.6110  176.5320  143.5430 C   0  0  0  0  0  2  0  0  0  0  0  0
  191.5560  177.6120  144.5720 C   0  0  0  0  0  0  0  0  0  0  0  0
  191.3220  178.8030  144.2230 O   0  0  0  0  0  0  0  0  0  0  0  0
  190.7100  176.7440  146.7130 C   0  0  0  0  0  1  0  0  0  0  0  0
  191.7510  177.2870  145.9140 O   0  0  0  0  0  0  0  0  0  0  0  0
  187.9630  177.1340  136.3920 C   0  0  0  0  0  2  0  0  0  0  0  0
  188.7670  179.0430  136.9490 C   0  0  0  0  0  2  0  0  0  0  0  0
  189.3600  177.6670  136.6630 C   0  0  1  0  0  3  0  0  0  0  0  0
  187.3740  178.5040  136.6800 C   0  0  2  0  0  3  0  0  0  0  0  0
  186.6090  178.4630  137.9290 C   0  0  0  0  0  0  0  0  0  0  0  0
  185.9880  178.4330  138.9630 C   0  0  0  0  0  0  0  0  0  0  0  0
  185.2440  178.3980  140.2230 C   0  0  0  0  0  2  0  0  0  0  0  0
  186.1100  178.7240  141.3030 O   0  0  0  0  0  0  0  0  0  0  0  0
  187.4980  177.1060  143.7110 S   0  0  0  0  0  0  0  0  0  0  0  0
  184.6330  179.3480  144.3800 C   0  0  0  0  0  3  0  0  0  0  0  0
  185.5500  178.4570  144.8260 N   0  0  0  0  0  0  0  0  0  0  0  0
  184.7270  179.5360  143.0470 N   0  0  0  0  0  2  0  0  0  0  0  0
  185.7070  178.7590  142.6280 N   0  0  0  0  0  0  0  0  0  0  0  0
  186.2050  178.1120  143.7030 C   0  0  0  0  0  0  0  0  0  0  0  0
  189.2630  175.1430  134.3720 C   0  0  0  0  0  2  0  0  0  0  0  0
  188.5900  173.9470  134.8480 N   0  0  0  0  0  2  0  0  0  0  0  0
  187.2240  174.0060  134.3550 C   0  0  0  0  0  2  0  0  0  0  0  0
  184.4130  174.7980  136.7790 C   0  0  0  0  0  0  0  0  0  0  0  0
  185.2760  174.8510  135.6700 C   0  0  0  0  0  3  0  0  0  0  0  0
  186.4370  172.8720  136.4410 C   0  0  0  0  0  3  0  0  0  0  0  0
  186.2820  173.8950  135.5010 C   0  0  0  0  0  0  0  0  0  0  0  0
  184.5680  173.7500  137.7040 C   0  0  0  0  0  3  0  0  0  0  0  0
  185.5750  172.7950  137.5390 C   0  0  0  0  0  3  0  0  0  0  0  0
  181.7380  175.5630  138.8030 C   0  0  0  0  0  2  0  0  0  0  0  0
  181.9690  175.3350  136.4010 C   0  0  2  0  0  0  0  0  0  0  0  0
  183.1010  176.1220  138.4140 C   0  0  0  0  0  2  0  0  0  0  0  0
  180.6960  176.1310  136.6050 C   0  0  0  0  0  2  0  0  0  0  0  0
  181.0640  175.0000  137.5610 C   0  0  2  0  0  3  0  0  0  0  0  0
  183.6570  177.1510  136.2330 C   0  0  0  0  0  1  0  0  0  0  0  0
  183.3130  175.8400  136.9340 C   0  0  1  0  0  0  0  0  0  0  0  0
  181.9300  174.3800  135.3820 O   0  0  0  0  0  1  0  0  0  0  0  0
  2  3  1  0  0  0  0
  3  6  1  0  0  0  0
  3  1  2  0  0  0  0
  5  2  1  0  0  0  0
  7  4  1  6  0  0  0
  7  5  1  0  0  0  0
  7  2  1  0  0  0  0
  8  6  1  6  0  0  0
  8 13  1  0  0  0  0
  8 12  1  0  0  0  0
  9 14  1  0  0  0  0
 10 11  2  0  0  0  0
 10  9  1  0  0  0  0
 12 11  1  0  0  0  0
 13 10  1  0  0  0  0
 14 15  1  0  0  0  0
 15 18  1  0  0  0  0
 16 15  2  0  0  0  0
 18 17  1  0  0  0  0
 19 21  1  0  0  0  0
 19 22  1  0  0  0  0
 21 20  1  0  0  0  0
 21  6  1  1  0  0  0
 22 20  1  0  0  0  0
 22 23  1  1  0  0  0
 23 24  3  0  0  0  0
 24 25  1  0  0  0  0
 25 26  1  0  0  0  0
 26 31  1  0  0  0  0
 28 29  2  0  0  0  0
 30 28  1  0  0  0  0
 31 30  1  0  0  0  0
 31 32  1  0  0  0  0
 32 27  2  0  0  0  0
 32 29  1  0  0  0  0
 33 34  1  0  0  0  0
 33  7  1  0  0  0  0
 35 34  1  0  0  0  0
 35 39  1  0  0  0  0
 36 48  1  0  0  0  0
 36 40  1  0  0  0  0
 37 36  2  0  0  0  0
 38 41  1  0  0  0  0
 39 37  1  0  0  0  0
 39 38  2  0  0  0  0
 41 40  2  0  0  0  0
 43 49  1  6  0  0  0
 43 45  1  0  0  0  0
 43 48  1  0  0  0  0
 43 46  1  0  0  0  0
 44 42  1  0  0  0  0
 46 45  1  6  0  0  0
 46 42  1  0  0  0  0
 48 47  1  6  0  0  0
 48 44  1  0  0  0  0
M  END
>  <MODEL>
1

>  <REMARK>
 VINA RESULT:      -6.8      0.000      0.000
  Name = 
  14 active torsions:
  status: ('A' for Active; 'I' for Inactive)
    1  A    between atoms: C_1  and  N_36
    2  A    between atoms: N_3  and  C_44
    3  A    between atoms: C_4  and  O_15
    4  A    between atoms: C_4  and  C_26
    5  A    between atoms: C_5  and  C_32
    6  A    between atoms: C_7  and  C_35
    7  A    between atoms: O_15  and  N_45
    8  A    between atoms: C_24  and  N_36
    9  A    between atoms: C_27  and  C_43
   10  A    between atoms: C_37  and  O_39
   11  A    between atoms: C_37  and  C_44
   12  A    between atoms: C_38  and  C_41
   13  A    between atoms: C_38  and  N_49
   14  A    between atoms: C_43  and  N_49
                            x       y       z     vdW  Elec       q    Type
                         _______ _______ _______ _____ _____    ______ ____

>  <TORSDO>
F 14

$$$$
=
 OpenBabel10232410053D

 49 55  0  0  1  0  0  0  0  0999 V2000
  190.6920  175.7760  140.1750 O   0  0  0  0  0  0  0  0  0  0  0  0
  191.4790  175.5480  138.0090 N   0  0  0  0  0  0  0  0  0  0  0  0
  190.6870  176.2150  138.9920 C   0  0  0  0  0  0  0  0  0  0  0  0
  193.0540  176.4770  136.3180 C   0  0  0  0  0  1  0  0  0  0  0  0
  192.4140  174.4540  137.5880 C   0  0  0  0  0  2  0  0  0  0  0  0
  189.9060  177.3770  138.6430 N   0  0  0  0  0  0  0  0  0  0  0  0
  192.0500  175.3880  136.6440 C   0  0  1  0  0  0  0  0  0  0  0  0
  189.2160  178.1740  139.6700 C   0  0  1  0  0  3  0  0  0  0  0  0
  189.6180  178.1410  143.3700 N   0  0  0  0  0  2  0  0  0  0  0  0
  189.2350  177.9990  141.9990 C   0  0  0  0  0  0  0  0  0  0  0  0
  188.1000  177.5000  141.6450 N   0  0  0  0  0  0  0  0  0  0  0  0
  187.9680  177.4660  140.2020 C   0  0  0  0  0  2  0  0  0  0  0  0
  190.1020  178.4320  140.8820 C   0  0  0  0  0  2  0  0  0  0  0  0
  188.7760  177.7110  144.4780 C   0  0  0  0  0  2  0  0  0  0  0  0
  189.6110  177.2260  145.6180 C   0  0  0  0  0  0  0  0  0  0  0  0
  189.0600  176.8880  146.7020 O   0  0  0  0  0  0  0  0  0  0  0  0
  191.8020  176.3750  146.3440 C   0  0  0  0  0  1  0  0  0  0  0  0
  190.9940  177.1390  145.4620 O   0  0  0  0  0  0  0  0  0  0  0  0
  188.6430  176.9850  136.5810 C   0  0  0  0  0  2  0  0  0  0  0  0
  189.0490  179.0520  136.9870 C   0  0  0  0  0  2  0  0  0  0  0  0
  189.7940  177.7420  137.2220 C   0  0  1  0  0  3  0  0  0  0  0  0
  187.9010  178.2900  136.3500 C   0  0  2  0  0  3  0  0  0  0  0  0
  186.7220  178.3510  137.2190 C   0  0  0  0  0  0  0  0  0  0  0  0
  185.7500  178.4130  137.9300 C   0  0  0  0  0  0  0  0  0  0  0  0
  184.5690  178.4970  138.7910 C   0  0  0  0  0  2  0  0  0  0  0  0
  184.7710  179.4920  139.7880 O   0  0  0  0  0  0  0  0  0  0  0  0
  182.0710  178.3350  141.0980 S   0  0  0  0  0  0  0  0  0  0  0  0
  184.9830  179.1350  143.2320 C   0  0  0  0  0  3  0  0  0  0  0  0
  183.7020  178.7160  143.1120 N   0  0  0  0  0  0  0  0  0  0  0  0
  185.5120  179.4740  142.0380 N   0  0  0  0  0  2  0  0  0  0  0  0
  184.5650  179.2780  141.1410 N   0  0  0  0  0  0  0  0  0  0  0  0
  183.4750  178.8170  141.7890 C   0  0  0  0  0  0  0  0  0  0  0  0
  191.0010  174.9810  135.6230 C   0  0  0  0  0  2  0  0  0  0  0  0
  190.3000  173.7940  136.0830 N   0  0  0  0  0  2  0  0  0  0  0  0
  190.2190  172.8870  134.9500 C   0  0  0  0  0  2  0  0  0  0  0  0
  186.5350  172.0920  135.4020 C   0  0  0  0  0  0  0  0  0  0  0  0
  187.7440  172.7990  135.2730 C   0  0  0  0  0  3  0  0  0  0  0  0
  188.9470  170.7350  134.8880 C   0  0  0  0  0  3  0  0  0  0  0  0
  188.9430  172.1260  135.0190 C   0  0  0  0  0  0  0  0  0  0  0  0
  186.5530  170.6940  135.2460 C   0  0  0  0  0  3  0  0  0  0  0  0
  187.7510  170.0180  134.9940 C   0  0  0  0  0  3  0  0  0  0  0  0
  185.3210  175.3060  135.5860 C   0  0  0  0  0  2  0  0  0  0  0  0
  185.1800  173.4070  137.0860 C   0  0  2  0  0  0  0  0  0  0  0  0
  185.1720  174.0510  134.7330 C   0  0  0  0  0  2  0  0  0  0  0  0
  184.0650  174.3380  137.5160 C   0  0  0  0  0  2  0  0  0  0  0  0
  185.4050  174.8980  137.0490 C   0  0  2  0  0  3  0  0  0  0  0  0
  184.0070  171.9790  135.4230 C   0  0  0  0  0  1  0  0  0  0  0  0
  185.2390  172.8480  135.6620 C   0  0  1  0  0  0  0  0  0  0  0  0
  185.8730  172.7730  138.1200 O   0  0  0  0  0  1  0  0  0  0  0  0
  2  3  1  0  0  0  0
  3  1  2  0  0  0  0
  5  2  1  0  0  0  0
  6  3  1  0  0  0  0
  7  4  1  6  0  0  0
  7  5  1  0  0  0  0
  7  2  1  0  0  0  0
  8  6  1  6  0  0  0
  8 12  1  0  0  0  0
  8 13  1  0  0  0  0
  9 14  1  0  0  0  0
 10  9  1  0  0  0  0
 11 10  2  0  0  0  0
 12 11  1  0  0  0  0
 13 10  1  0  0  0  0
 14 15  1  0  0  0  0
 15 16  2  0  0  0  0
 18 15  1  0  0  0  0
 18 17  1  0  0  0  0
 19 21  1  0  0  0  0
 20 21  1  0  0  0  0
 21  6  1  1  0  0  0
 22 19  1  0  0  0  0
 22 20  1  0  0  0  0
 22 23  1  1  0  0  0
 23 24  3  0  0  0  0
 24 25  1  0  0  0  0
 25 26  1  0  0  0  0
 26 31  1  0  0  0  0
 27 32  2  0  0  0  0
 29 28  2  0  0  0  0
 30 28  1  0  0  0  0
 31 32  1  0  0  0  0
 31 30  1  0  0  0  0
 32 29  1  0  0  0  0
 33 34  1  0  0  0  0
 33  7  1  0  0  0  0
 35 39  1  0  0  0  0
 35 34  1  0  0  0  0
 36 48  1  0  0  0  0
 37 36  1  0  0  0  0
 38 41  2  0  0  0  0
 38 39  1  0  0  0  0
 39 37  2  0  0  0  0
 40 36  2  0  0  0  0
 41 40  1  0  0  0  0
 43 45  1  0  0  0  0
 43 49  1  1  0  0  0
 44 42  1  0  0  0  0
 44 48  1  0  0  0  0
 46 42  1  6  0  0  0
 46 43  1  0  0  0  0
 46 45  1  0  0  0  0
 48 47  1  6  0  0  0
 48 43  1  0  0  0  0
M  END
>  <MODEL>
2

>  <REMARK>
 VINA RESULT:      -6.2      2.069      2.924
  Name = 
  14 active torsions:
  status: ('A' for Active; 'I' for Inactive)
    1  A    between atoms: C_1  and  N_36
    2  A    between atoms: N_3  and  C_44
    3  A    between atoms: C_4  and  O_15
    4  A    between atoms: C_4  and  C_26
    5  A    between atoms: C_5  and  C_32
    6  A    between atoms: C_7  and  C_35
    7  A    between atoms: O_15  and  N_45
    8  A    between atoms: C_24  and  N_36
    9  A    between atoms: C_27  and  C_43
   10  A    between atoms: C_37  and  O_39
   11  A    between atoms: C_37  and  C_44
   12  A    between atoms: C_38  and  C_41
   13  A    between atoms: C_38  and  N_49
   14  A    between atoms: C_43  and  N_49
                            x       y       z     vdW  Elec       q    Type
                         _______ _______ _______ _____ _____    ______ ____

>  <TORSDO>
F 14

$$$$
=
 OpenBabel10232410053D

 49 55  0  0  1  0  0  0  0  0999 V2000
  186.5100  177.6570  139.2270 O   0  0  0  0  0  0  0  0  0  0  0  0
  184.3350  178.4440  139.1250 N   0  0  0  0  0  0  0  0  0  0  0  0
  185.5600  178.2320  139.8260 C   0  0  0  0  0  0  0  0  0  0  0  0
  182.9280  180.4910  138.9360 C   0  0  0  0  0  1  0  0  0  0  0  0
  183.4720  178.3090  137.9060 C   0  0  0  0  0  2  0  0  0  0  0  0
  185.7140  178.6770  141.1900 N   0  0  0  0  0  0  0  0  0  0  0  0
  182.9510  178.9750  138.9930 C   0  0  1  0  0  0  0  0  0  0  0  0
  187.0160  178.6170  141.8740 C   0  0  1  0  0  3  0  0  0  0  0  0
  190.4210  178.1070  140.4600 N   0  0  0  0  0  2  0  0  0  0  0  0
  189.1310  178.0320  141.0730 C   0  0  0  0  0  0  0  0  0  0  0  0
  188.7440  177.0050  141.7500 N   0  0  0  0  0  0  0  0  0  0  0  0
  187.3970  177.1860  142.2550 C   0  0  0  0  0  2  0  0  0  0  0  0
  188.1470  179.1330  140.9930 C   0  0  0  0  0  2  0  0  0  0  0  0
  191.3940  177.0250  140.5250 C   0  0  0  0  0  2  0  0  0  0  0  0
  191.5390  176.3650  139.1930 C   0  0  0  0  0  0  0  0  0  0  0  0
  190.6470  175.5710  138.7840 O   0  0  0  0  0  0  0  0  0  0  0  0
  193.4680  175.6210  137.8580 C   0  0  0  0  0  1  0  0  0  0  0  0
  192.6570  176.6490  138.4080 O   0  0  0  0  0  0  0  0  0  0  0  0
  183.9690  178.0990  142.8090 C   0  0  0  0  0  2  0  0  0  0  0  0
  184.8620  180.0240  143.1240 C   0  0  0  0  0  2  0  0  0  0  0  0
  184.5270  179.1800  141.8980 C   0  0  1  0  0  3  0  0  0  0  0  0
  184.3050  178.9390  144.0280 C   0  0  2  0  0  3  0  0  0  0  0  0
  185.3970  178.3120  144.7780 C   0  0  0  0  0  0  0  0  0  0  0  0
  186.3000  177.8060  145.3980 C   0  0  0  0  0  0  0  0  0  0  0  0
  187.4000  177.2010  146.1500 C   0  0  0  0  0  2  0  0  0  0  0  0
  188.6360  177.4830  145.5060 O   0  0  0  0  0  0  0  0  0  0  0  0
  191.4730  178.0690  144.1080 S   0  0  0  0  0  0  0  0  0  0  0  0
  191.3300  176.3950  147.4030 C   0  0  0  0  0  3  0  0  0  0  0  0
  192.0540  176.8580  146.3580 N   0  0  0  0  0  2  0  0  0  0  0  0
  190.0050  176.5610  147.2060 N   0  0  0  0  0  0  0  0  0  0  0  0
  189.8720  177.1300  146.0230 N   0  0  0  0  0  0  0  0  0  0  0  0
  191.1080  177.3120  145.5140 C   0  0  0  0  0  0  0  0  0  0  0  0
  181.9590  178.2250  139.8660 C   0  0  0  0  0  2  0  0  0  0  0  0
  182.3580  176.8330  139.9810 N   0  0  0  0  0  2  0  0  0  0  0  0
  181.1850  176.0310  139.6800 C   0  0  0  0  0  2  0  0  0  0  0  0
  182.4780  174.4090  136.5010 C   0  0  0  0  0  0  0  0  0  0  0  0
  182.3590  174.8120  137.8420 C   0  0  0  0  0  3  0  0  0  0  0  0
  180.2600  175.9140  137.3590 C   0  0  0  0  0  3  0  0  0  0  0  0
  181.2590  175.5600  138.2700 C   0  0  0  0  0  0  0  0  0  0  0  0
  181.4530  174.7560  135.6010 C   0  0  0  0  0  3  0  0  0  0  0  0
  180.3530  175.5060  136.0250 C   0  0  0  0  0  3  0  0  0  0  0  0
  185.3140  172.9460  137.7840 C   0  0  0  0  0  2  0  0  0  0  0  0
  184.9380  174.4350  135.9090 C   0  0  2  0  0  0  0  0  0  0  0  0
  183.9910  172.5530  137.1380 C   0  0  0  0  0  2  0  0  0  0  0  0
  186.2880  173.8000  135.6480 C   0  0  0  0  0  2  0  0  0  0  0  0
  185.8670  174.1690  137.0680 C   0  0  2  0  0  3  0  0  0  0  0  0
  183.4200  172.8460  134.7480 C   0  0  0  0  0  1  0  0  0  0  0  0
  183.6770  173.5800  136.0610 C   0  0  1  0  0  0  0  0  0  0  0  0
  184.8340  175.7910  135.5900 O   0  0  0  0  0  1  0  0  0  0  0  0
  1  3  2  0  0  0  0
  2  3  1  0  0  0  0
  3  6  1  0  0  0  0
  5  7  1  0  0  0  0
  5  2  1  0  0  0  0
  7  4  1  6  0  0  0
  7  2  1  0  0  0  0
  7 33  1  0  0  0  0
  8  6  1  6  0  0  0
  8 12  1  0  0  0  0
  9 14  1  0  0  0  0
  9 10  1  0  0  0  0
 10 11  2  0  0  0  0
 11 12  1  0  0  0  0
 13 10  1  0  0  0  0
 13  8  1  0  0  0  0
 15 14  1  0  0  0  0
 16 15  2  0  0  0  0
 17 18  1  0  0  0  0
 18 15  1  0  0  0  0
 19 22  1  0  0  0  0
 20 22  1  0  0  0  0
 21  6  1  1  0  0  0
 21 19  1  0  0  0  0
 21 20  1  0  0  0  0
 22 23  1  1  0  0  0
 23 24  3  0  0  0  0
 24 25  1  0  0  0  0
 26 31  1  0  0  0  0
 26 25  1  0  0  0  0
 27 32  2  0  0  0  0
 29 28  1  0  0  0  0
 30 28  2  0  0  0  0
 31 30  1  0  0  0  0
 32 31  1  0  0  0  0
 32 29  1  0  0  0  0
 33 34  1  0  0  0  0
 35 34  1  0  0  0  0
 36 37  1  0  0  0  0
 37 39  2  0  0  0  0
 38 39  1  0  0  0  0
 39 35  1  0  0  0  0
 40 41  1  0  0  0  0
 40 36  2  0  0  0  0
 41 38  2  0  0  0  0
 43 49  1  6  0  0  0
 43 48  1  0  0  0  0
 43 46  1  0  0  0  0
 44 42  1  0  0  0  0
 45 43  1  0  0  0  0
 46 45  1  6  0  0  0
 46 42  1  0  0  0  0
 48 47  1  6  0  0  0
 48 36  1  0  0  0  0
 48 44  1  0  0  0  0
M  END
>  <MODEL>
3

>  <REMARK>
 VINA RESULT:      -6.2      2.591      6.187
  Name = 
  14 active torsions:
  status: ('A' for Active; 'I' for Inactive)
    1  A    between atoms: C_1  and  N_36
    2  A    between atoms: N_3  and  C_44
    3  A    between atoms: C_4  and  O_15
    4  A    between atoms: C_4  and  C_26
    5  A    between atoms: C_5  and  C_32
    6  A    between atoms: C_7  and  C_35
    7  A    between atoms: O_15  and  N_45
    8  A    between atoms: C_24  and  N_36
    9  A    between atoms: C_27  and  C_43
   10  A    between atoms: C_37  and  O_39
   11  A    between atoms: C_37  and  C_44
   12  A    between atoms: C_38  and  C_41
   13  A    between atoms: C_38  and  N_49
   14  A    between atoms: C_43  and  N_49
                            x       y       z     vdW  Elec       q    Type
                         _______ _______ _______ _____ _____    ______ ____

>  <TORSDO>
F 14

$$$$
=
 OpenBabel10232410053D

 49 55  0  0  1  0  0  0  0  0999 V2000
  190.6330  175.0710  138.8000 O   0  0  0  0  0  0  0  0  0  0  0  0
  190.4150  175.1340  136.4950 N   0  0  0  0  0  0  0  0  0  0  0  0
  190.2700  175.7280  137.7860 C   0  0  0  0  0  0  0  0  0  0  0  0
  191.3690  176.0730  134.3950 C   0  0  0  0  0  1  0  0  0  0  0  0
  190.8030  173.9920  135.6050 C   0  0  0  0  0  2  0  0  0  0  0  0
  189.7290  177.0580  137.9260 N   0  0  0  0  0  0  0  0  0  0  0  0
  190.3400  175.1440  135.0090 C   0  0  1  0  0  0  0  0  0  0  0  0
  189.7240  177.7500  139.2260 C   0  0  1  0  0  3  0  0  0  0  0  0
  191.6640  177.0170  142.3160 N   0  0  0  0  0  2  0  0  0  0  0  0
  190.7090  177.1700  141.2630 C   0  0  0  0  0  0  0  0  0  0  0  0
  189.4580  176.9010  141.4180 N   0  0  0  0  0  0  0  0  0  0  0  0
  188.7140  177.1380  140.1970 C   0  0  0  0  0  2  0  0  0  0  0  0
  191.0780  177.6690  139.9210 C   0  0  0  0  0  2  0  0  0  0  0  0
  191.3140  176.5190  143.6390 C   0  0  0  0  0  2  0  0  0  0  0  0
  191.5600  177.5630  144.6780 C   0  0  0  0  0  0  0  0  0  0  0  0
  191.4410  178.7840  144.3830 O   0  0  0  0  0  0  0  0  0  0  0  0
  190.9260  176.8180  146.9360 C   0  0  0  0  0  1  0  0  0  0  0  0
  191.9060  177.1710  145.9720 O   0  0  0  0  0  0  0  0  0  0  0  0
  187.7510  177.1940  136.4880 C   0  0  0  0  0  2  0  0  0  0  0  0
  188.5890  179.0960  137.0170 C   0  0  0  0  0  2  0  0  0  0  0  0
  189.1590  177.7100  136.7370 C   0  0  1  0  0  3  0  0  0  0  0  0
  187.1850  178.5750  136.7700 C   0  0  2  0  0  3  0  0  0  0  0  0
  186.4350  178.5570  138.0290 C   0  0  0  0  0  0  0  0  0  0  0  0
  185.8230  178.5510  139.0690 C   0  0  0  0  0  0  0  0  0  0  0  0
  185.0880  178.5500  140.3340 C   0  0  0  0  0  2  0  0  0  0  0  0
  186.0030  178.5390  141.4230 O   0  0  0  0  0  0  0  0  0  0  0  0
  187.4390  177.1520  143.9440 S   0  0  0  0  0  0  0  0  0  0  0  0
  184.5870  179.4510  144.4560 C   0  0  0  0  0  3  0  0  0  0  0  0
  185.5130  178.6050  144.9650 N   0  0  0  0  0  0  0  0  0  0  0  0
  184.6550  179.5140  143.1090 N   0  0  0  0  0  2  0  0  0  0  0  0
  185.6270  178.6990  142.7460 N   0  0  0  0  0  0  0  0  0  0  0  0
  186.1460  178.1550  143.8660 C   0  0  0  0  0  0  0  0  0  0  0  0
  188.9070  175.1440  134.5040 C   0  0  0  0  0  2  0  0  0  0  0  0
  188.1240  174.1670  135.2410 N   0  0  0  0  0  2  0  0  0  0  0  0
  187.0760  173.7040  134.3470 C   0  0  0  0  0  2  0  0  0  0  0  0
  183.7130  174.0200  136.0790 C   0  0  0  0  0  0  0  0  0  0  0  0
  184.8380  174.2990  135.2830 C   0  0  0  0  0  3  0  0  0  0  0  0
  185.7790  172.1300  135.7960 C   0  0  0  0  0  3  0  0  0  0  0  0
  185.8650  173.3630  135.1420 C   0  0  0  0  0  0  0  0  0  0  0  0
  183.6320  172.7660  136.7130 C   0  0  0  0  0  3  0  0  0  0  0  0
  184.6600  171.8290  136.5760 C   0  0  0  0  0  3  0  0  0  0  0  0
  182.8380  177.1460  134.9400 C   0  0  0  0  0  2  0  0  0  0  0  0
  182.9720  176.1840  137.1610 C   0  0  2  0  0  0  0  0  0  0  0  0
  182.3690  175.6990  134.8470 C   0  0  0  0  0  2  0  0  0  0  0  0
  182.0900  177.4070  137.3090 C   0  0  0  0  0  2  0  0  0  0  0  0
  183.2890  177.4260  136.3650 C   0  0  2  0  0  3  0  0  0  0  0  0
  181.2860  174.4240  136.6720 C   0  0  0  0  0  1  0  0  0  0  0  0
  182.5980  175.0490  136.2040 C   0  0  1  0  0  0  0  0  0  0  0  0
  183.8730  175.9560  138.2040 O   0  0  0  0  0  1  0  0  0  0  0  0
  2  3  1  0  0  0  0
  3  6  1  0  0  0  0
  3  1  2  0  0  0  0
  5  2  1  0  0  0  0
  7  4  1  6  0  0  0
  7  5  1  0  0  0  0
  7  2  1  0  0  0  0
  8  6  1  6  0  0  0
  8 13  1  0  0  0  0
  8 12  1  0  0  0  0
  9 14  1  0  0  0  0
 10 11  2  0  0  0  0
 10  9  1  0  0  0  0
 12 11  1  0  0  0  0
 13 10  1  0  0  0  0
 14 15  1  0  0  0  0
 15 18  1  0  0  0  0
 16 15  2  0  0  0  0
 18 17  1  0  0  0  0
 19 21  1  0  0  0  0
 19 22  1  0  0  0  0
 21 20  1  0  0  0  0
 21  6  1  1  0  0  0
 22 20  1  0  0  0  0
 22 23  1  1  0  0  0
 23 24  3  0  0  0  0
 24 25  1  0  0  0  0
 25 26  1  0  0  0  0
 26 31  1  0  0  0  0
 28 29  2  0  0  0  0
 30 28  1  0  0  0  0
 31 30  1  0  0  0  0
 31 32  1  0  0  0  0
 32 27  2  0  0  0  0
 32 29  1  0  0  0  0
 33  7  1  0  0  0  0
 33 34  1  0  0  0  0
 35 39  1  0  0  0  0
 35 34  1  0  0  0  0
 36 48  1  0  0  0  0
 36 40  1  0  0  0  0
 37 36  2  0  0  0  0
 38 41  1  0  0  0  0
 39 37  1  0  0  0  0
 39 38  2  0  0  0  0
 41 40  2  0  0  0  0
 43 45  1  0  0  0  0
 43 49  1  1  0  0  0
 44 42  1  0  0  0  0
 44 48  1  0  0  0  0
 46 42  1  6  0  0  0
 46 43  1  0  0  0  0
 46 45  1  0  0  0  0
 48 47  1  1  0  0  0
 48 43  1  0  0  0  0
M  END
>  <MODEL>
4

>  <REMARK>
 VINA RESULT:      -6.1      0.883      1.372
  Name = 
  14 active torsions:
  status: ('A' for Active; 'I' for Inactive)
    1  A    between atoms: C_1  and  N_36
    2  A    between atoms: N_3  and  C_44
    3  A    between atoms: C_4  and  O_15
    4  A    between atoms: C_4  and  C_26
    5  A    between atoms: C_5  and  C_32
    6  A    between atoms: C_7  and  C_35
    7  A    between atoms: O_15  and  N_45
    8  A    between atoms: C_24  and  N_36
    9  A    between atoms: C_27  and  C_43
   10  A    between atoms: C_37  and  O_39
   11  A    between atoms: C_37  and  C_44
   12  A    between atoms: C_38  and  C_41
   13  A    between atoms: C_38  and  N_49
   14  A    between atoms: C_43  and  N_49
                            x       y       z     vdW  Elec       q    Type
                         _______ _______ _______ _____ _____    ______ ____

>  <TORSDO>
F 14

$$$$
=
 OpenBabel10232410053D

 49 55  0  0  1  0  0  0  0  0999 V2000
  190.8710  175.2320  138.8470 O   0  0  0  0  0  0  0  0  0  0  0  0
  190.7780  175.1590  136.5340 N   0  0  0  0  0  0  0  0  0  0  0  0
  190.5050  175.7990  137.7810 C   0  0  0  0  0  0  0  0  0  0  0  0
  191.7550  176.0840  134.4380 C   0  0  0  0  0  1  0  0  0  0  0  0
  191.3230  174.0190  135.7280 C   0  0  0  0  0  2  0  0  0  0  0  0
  189.8320  177.0750  137.8210 N   0  0  0  0  0  0  0  0  0  0  0  0
  190.7860  175.0890  135.0480 C   0  0  1  0  0  0  0  0  0  0  0  0
  189.6880  177.8260  139.0790 C   0  0  1  0  0  3  0  0  0  0  0  0
  191.1890  177.1740  142.4210 N   0  0  0  0  0  2  0  0  0  0  0  0
  190.3820  177.3100  141.2490 C   0  0  0  0  0  0  0  0  0  0  0  0
  189.1120  177.0880  141.2520 N   0  0  0  0  0  0  0  0  0  0  0  0
  188.5390  177.2920  139.9360 C   0  0  0  0  0  2  0  0  0  0  0  0
  190.9380  177.7330  139.9460 C   0  0  0  0  0  2  0  0  0  0  0  0
  190.6540  176.7490  143.7080 C   0  0  0  0  0  2  0  0  0  0  0  0
  191.6160  175.8450  144.4070 C   0  0  0  0  0  0  0  0  0  0  0  0
  192.3270  175.0460  143.7380 O   0  0  0  0  0  0  0  0  0  0  0  0
  191.0530  176.8990  146.5580 C   0  0  0  0  0  1  0  0  0  0  0  0
  191.7250  175.9080  145.7960 O   0  0  0  0  0  0  0  0  0  0  0  0
  187.8800  177.0370  136.3420 C   0  0  0  0  0  2  0  0  0  0  0  0
  188.6620  178.9990  136.7210 C   0  0  0  0  0  2  0  0  0  0  0  0
  189.2700  177.6080  136.5700 C   0  0  1  0  0  3  0  0  0  0  0  0
  187.2760  178.4220  136.4940 C   0  0  2  0  0  3  0  0  0  0  0  0
  186.5020  178.4920  137.7360 C   0  0  0  0  0  0  0  0  0  0  0  0
  185.8740  178.5520  138.7650 C   0  0  0  0  0  0  0  0  0  0  0  0
  185.1210  178.6240  140.0170 C   0  0  0  0  0  2  0  0  0  0  0  0
  184.0280  179.5230  139.8720 O   0  0  0  0  0  0  0  0  0  0  0  0
  181.4130  180.1860  138.1210 S   0  0  0  0  0  0  0  0  0  0  0  0
  181.0950  178.3910  141.3390 C   0  0  0  0  0  3  0  0  0  0  0  0
  180.5170  178.9580  140.2540 N   0  0  0  0  0  2  0  0  0  0  0  0
  182.4360  178.5420  141.3270 N   0  0  0  0  0  0  0  0  0  0  0  0
  182.7260  179.2150  140.2300 N   0  0  0  0  0  0  0  0  0  0  0  0
  181.5680  179.4620  139.5820 C   0  0  0  0  0  0  0  0  0  0  0  0
  189.3910  174.9240  134.4700 C   0  0  0  0  0  2  0  0  0  0  0  0
  188.6900  173.8620  135.1710 N   0  0  0  0  0  2  0  0  0  0  0  0
  187.3690  173.7610  134.5730 C   0  0  0  0  0  2  0  0  0  0  0  0
  184.3960  174.7410  136.7210 C   0  0  0  0  0  0  0  0  0  0  0  0
  185.3400  174.7110  135.6790 C   0  0  0  0  0  3  0  0  0  0  0  0
  186.4100  172.7760  136.6630 C   0  0  0  0  0  3  0  0  0  0  0  0
  186.3420  173.7360  135.6490 C   0  0  0  0  0  0  0  0  0  0  0  0
  184.4660  173.7540  137.7220 C   0  0  0  0  0  3  0  0  0  0  0  0
  185.4680  172.7800  137.6960 C   0  0  0  0  0  3  0  0  0  0  0  0
  181.7140  175.7930  138.6000 C   0  0  0  0  0  2  0  0  0  0  0  0
  181.9600  175.2390  136.2540 C   0  0  2  0  0  0  0  0  0  0  0  0
  183.0840  176.2840  138.1490 C   0  0  0  0  0  2  0  0  0  0  0  0
  180.6920  176.0640  136.3370 C   0  0  0  0  0  2  0  0  0  0  0  0
  181.0440  175.0710  137.4410 C   0  0  2  0  0  3  0  0  0  0  0  0
  183.6640  177.0030  135.8530 C   0  0  0  0  0  1  0  0  0  0  0  0
  183.3040  175.8020  136.7230 C   0  0  1  0  0  0  0  0  0  0  0  0
  181.9200  174.1540  135.3740 O   0  0  0  0  0  1  0  0  0  0  0  0
  2  3  1  0  0  0  0
  3  6  1  0  0  0  0
  3  1  2  0  0  0  0
  5  2  1  0  0  0  0
  7  4  1  6  0  0  0
  7  5  1  0  0  0  0
  7  2  1  0  0  0  0
  8  6  1  6  0  0  0
  8 12  1  0  0  0  0
  8 13  1  0  0  0  0
  9 14  1  0  0  0  0
 10 11  2  0  0  0  0
 10  9  1  0  0  0  0
 12 11  1  0  0  0  0
 13 10  1  0  0  0  0
 14 15  1  0  0  0  0
 15 18  1  0  0  0  0
 16 15  2  0  0  0  0
 18 17  1  0  0  0  0
 19 22  1  0  0  0  0
 19 21  1  0  0  0  0
 21 20  1  0  0  0  0
 21  6  1  1  0  0  0
 22 20  1  0  0  0  0
 22 23  1  1  0  0  0
 23 24  3  0  0  0  0
 24 25  1  0  0  0  0
 26 25  1  0  0  0  0
 26 31  1  0  0  0  0
 27 32  2  0  0  0  0
 29 28  1  0  0  0  0
 30 28  2  0  0  0  0
 31 30  1  0  0  0  0
 32 31  1  0  0  0  0
 32 29  1  0  0  0  0
 33  7  1  0  0  0  0
 33 34  1  0  0  0  0
 35 34  1  0  0  0  0
 35 39  1  0  0  0  0
 36 48  1  0  0  0  0
 36 40  1  0  0  0  0
 37 36  2  0  0  0  0
 38 41  1  0  0  0  0
 39 37  1  0  0  0  0
 39 38  2  0  0  0  0
 41 40  2  0  0  0  0
 43 49  1  6  0  0  0
 43 45  1  0  0  0  0
 43 48  1  0  0  0  0
 43 46  1  0  0  0  0
 44 42  1  0  0  0  0
 46 45  1  6  0  0  0
 46 42  1  0  0  0  0
 48 47  1  6  0  0  0
 48 44  1  0  0  0  0
M  END
>  <MODEL>
5

>  <REMARK>
 VINA RESULT:      -5.9      1.933      2.229
  Name = 
  14 active torsions:
  status: ('A' for Active; 'I' for Inactive)
    1  A    between atoms: C_1  and  N_36
    2  A    between atoms: N_3  and  C_44
    3  A    between atoms: C_4  and  O_15
    4  A    between atoms: C_4  and  C_26
    5  A    between atoms: C_5  and  C_32
    6  A    between atoms: C_7  and  C_35
    7  A    between atoms: O_15  and  N_45
    8  A    between atoms: C_24  and  N_36
    9  A    between atoms: C_27  and  C_43
   10  A    between atoms: C_37  and  O_39
   11  A    between atoms: C_37  and  C_44
   12  A    between atoms: C_38  and  C_41
   13  A    between atoms: C_38  and  N_49
   14  A    between atoms: C_43  and  N_49
                            x       y       z     vdW  Elec       q    Type
                         _______ _______ _______ _____ _____    ______ ____

>  <TORSDO>
F 14

$$$$
=
 OpenBabel10232410053D

 49 55  0  0  1  0  0  0  0  0999 V2000
  192.3670  176.9430  141.5610 O   0  0  0  0  0  0  0  0  0  0  0  0
  190.3680  177.0540  142.7230 N   0  0  0  0  0  0  0  0  0  0  0  0
  191.1150  177.0910  141.5080 C   0  0  0  0  0  0  0  0  0  0  0  0
  188.2800  175.8160  143.2840 C   0  0  0  0  0  1  0  0  0  0  0  0
  190.2800  176.9330  144.2150 C   0  0  0  0  0  2  0  0  0  0  0  0
  190.4510  177.2840  140.2410 N   0  0  0  0  0  0  0  0  0  0  0  0
  189.1050  177.0690  143.5110 C   0  0  1  0  0  0  0  0  0  0  0  0
  191.1790  177.1630  138.9680 C   0  0  1  0  0  3  0  0  0  0  0  0
  193.3250  174.3930  137.7120 N   0  0  0  0  0  2  0  0  0  0  0  0
  192.7450  175.5830  138.2530 C   0  0  0  0  0  0  0  0  0  0  0  0
  193.4440  176.6280  138.5370 N   0  0  0  0  0  0  0  0  0  0  0  0
  192.6120  177.6870  139.0750 C   0  0  0  0  0  2  0  0  0  0  0  0
  191.2940  175.7130  138.5120 C   0  0  0  0  0  2  0  0  0  0  0  0
  194.7530  174.2510  137.4610 C   0  0  0  0  0  2  0  0  0  0  0  0
  195.3960  173.4240  138.5250 C   0  0  0  0  0  0  0  0  0  0  0  0
  196.0900  173.9790  139.4210 O   0  0  0  0  0  0  0  0  0  0  0  0
  195.1020  171.3010  137.3160 C   0  0  0  0  0  1  0  0  0  0  0  0
  195.2070  172.0410  138.5230 O   0  0  0  0  0  0  0  0  0  0  0  0
  188.7650  178.8020  139.3180 C   0  0  0  0  0  2  0  0  0  0  0  0
  188.1770  176.7390  139.3390 C   0  0  0  0  0  2  0  0  0  0  0  0
  189.0210  177.6270  140.2480 C   0  0  1  0  0  3  0  0  0  0  0  0
  187.9270  177.9150  138.4140 C   0  0  2  0  0  3  0  0  0  0  0  0
  188.6260  177.7030  137.1430 C   0  0  0  0  0  0  0  0  0  0  0  0
  189.1950  177.5170  136.0950 C   0  0  0  0  0  0  0  0  0  0  0  0
  189.8840  177.2820  134.8260 C   0  0  0  0  0  2  0  0  0  0  0  0
  189.5810  175.9770  134.3480 O   0  0  0  0  0  0  0  0  0  0  0  0
  186.9590  174.5050  135.4860 S   0  0  0  0  0  0  0  0  0  0  0  0
  190.3210  173.1470  136.2140 C   0  0  0  0  0  3  0  0  0  0  0  0
  188.9780  173.0880  136.3690 N   0  0  0  0  0  0  0  0  0  0  0  0
  190.6920  174.2110  135.4700 N   0  0  0  0  0  2  0  0  0  0  0  0
  189.5820  174.8460  135.1470 N   0  0  0  0  0  0  0  0  0  0  0  0
  188.5480  174.1660  135.6860 C   0  0  0  0  0  0  0  0  0  0  0  0
  188.4410  178.4350  143.5110 C   0  0  0  0  0  2  0  0  0  0  0  0
  187.0950  178.3300  142.9770 N   0  0  0  0  0  2  0  0  0  0  0  0
  186.2170  178.0370  144.0980 C   0  0  0  0  0  2  0  0  0  0  0  0
  183.1110  178.7110  142.0240 C   0  0  0  0  0  0  0  0  0  0  0  0
  184.4100  178.3270  142.3970 C   0  0  0  0  0  3  0  0  0  0  0  0
  183.9280  178.8340  144.7140 C   0  0  0  0  0  3  0  0  0  0  0  0
  184.8180  178.3880  143.7330 C   0  0  0  0  0  0  0  0  0  0  0  0
  182.2200  179.1380  143.0260 C   0  0  0  0  0  3  0  0  0  0  0  0
  182.6260  179.2030  144.3620 C   0  0  0  0  0  3  0  0  0  0  0  0
  183.3530  176.6140  139.3070 C   0  0  0  0  0  2  0  0  0  0  0  0
  183.8270  178.9720  139.6110 C   0  0  2  0  0  0  0  0  0  0  0  0
  182.2990  177.1810  140.2500 C   0  0  0  0  0  2  0  0  0  0  0  0
  183.6860  178.7840  138.1140 C   0  0  0  0  0  2  0  0  0  0  0  0
  184.3530  177.7100  138.9700 C   0  0  2  0  0  3  0  0  0  0  0  0
  181.4910  179.5200  140.2560 C   0  0  0  0  0  1  0  0  0  0  0  0
  182.6830  178.6190  140.5650 C   0  0  1  0  0  0  0  0  0  0  0  0
  184.8410  179.8420  140.0190 O   0  0  0  0  0  1  0  0  0  0  0  0
  2  7  1  0  0  0  0
  2  5  1  0  0  0  0
  3  1  2  0  0  0  0
  3  2  1  0  0  0  0
  6  3  1  0  0  0  0
  7  4  1  6  0  0  0
  7  5  1  0  0  0  0
  8 12  1  0  0  0  0
  8  6  1  1  0  0  0
  9 10  1  0  0  0  0
 10 13  1  0  0  0  0
 10 11  2  0  0  0  0
 11 12  1  0  0  0  0
 13  8  1  0  0  0  0
 14  9  1  0  0  0  0
 14 15  1  0  0  0  0
 15 16  2  0  0  0  0
 17 18  1  0  0  0  0
 18 15  1  0  0  0  0
 19 21  1  0  0  0  0
 20 21  1  0  0  0  0
 21  6  1  6  0  0  0
 22 23  1  6  0  0  0
 22 19  1  0  0  0  0
 22 20  1  0  0  0  0
 24 23  3  0  0  0  0
 25 24  1  0  0  0  0
 26 25  1  0  0  0  0
 26 31  1  0  0  0  0
 27 32  2  0  0  0  0
 28 29  2  0  0  0  0
 30 28  1  0  0  0  0
 31 30  1  0  0  0  0
 31 32  1  0  0  0  0
 32 29  1  0  0  0  0
 33  7  1  0  0  0  0
 34 33  1  0  0  0  0
 34 35  1  0  0  0  0
 36 37  2  0  0  0  0
 36 40  1  0  0  0  0
 37 39  1  0  0  0  0
 39 35  1  0  0  0  0
 39 38  2  0  0  0  0
 40 41  2  0  0  0  0
 41 38  1  0  0  0  0
 42 44  1  0  0  0  0
 43 49  1  1  0  0  0
 43 48  1  0  0  0  0
 44 48  1  0  0  0  0
 45 43  1  0  0  0  0
 46 45  1  6  0  0  0
 46 42  1  0  0  0  0
 46 43  1  0  0  0  0
 48 47  1  6  0  0  0
 48 36  1  0  0  0  0
M  END
>  <MODEL>
6

>  <REMARK>
 VINA RESULT:      -5.7      2.830      7.268
  Name = 
  14 active torsions:
  status: ('A' for Active; 'I' for Inactive)
    1  A    between atoms: C_1  and  N_36
    2  A    between atoms: N_3  and  C_44
    3  A    between atoms: C_4  and  O_15
    4  A    between atoms: C_4  and  C_26
    5  A    between atoms: C_5  and  C_32
    6  A    between atoms: C_7  and  C_35
    7  A    between atoms: O_15  and  N_45
    8  A    between atoms: C_24  and  N_36
    9  A    between atoms: C_27  and  C_43
   10  A    between atoms: C_37  and  O_39
   11  A    between atoms: C_37  and  C_44
   12  A    between atoms: C_38  and  C_41
   13  A    between atoms: C_38  and  N_49
   14  A    between atoms: C_43  and  N_49
                            x       y       z     vdW  Elec       q    Type
                         _______ _______ _______ _____ _____    ______ ____

>  <TORSDO>
F 14

$$$$
=
 OpenBabel10232410053D

 49 55  0  0  1  0  0  0  0  0999 V2000
  193.7850  176.7200  139.1530 O   0  0  0  0  0  0  0  0  0  0  0  0
  191.5750  177.2090  139.6420 N   0  0  0  0  0  0  0  0  0  0  0  0
  192.5780  176.6520  138.7930 C   0  0  0  0  0  0  0  0  0  0  0  0
  189.4110  176.2460  140.4140 C   0  0  0  0  0  1  0  0  0  0  0  0
  191.1530  177.9380  140.8820 C   0  0  0  0  0  2  0  0  0  0  0  0
  192.2170  176.0110  137.5500 N   0  0  0  0  0  0  0  0  0  0  0  0
  190.1670  177.5020  140.0250 C   0  0  1  0  0  0  0  0  0  0  0  0
  193.2130  175.2890  136.7430 C   0  0  1  0  0  3  0  0  0  0  0  0
  196.5370  173.9330  137.7250 N   0  0  0  0  0  2  0  0  0  0  0  0
  195.4090  174.6640  137.2350 C   0  0  0  0  0  0  0  0  0  0  0  0
  195.5290  175.6790  136.4500 N   0  0  0  0  0  0  0  0  0  0  0  0
  194.2350  176.2370  136.1110 C   0  0  0  0  0  2  0  0  0  0  0  0
  194.0170  174.3010  137.5790 C   0  0  0  0  0  2  0  0  0  0  0  0
  197.9130  174.2870  137.4000 C   0  0  0  0  0  2  0  0  0  0  0  0
  198.6250  174.8000  138.6090 C   0  0  0  0  0  0  0  0  0  0  0  0
  199.7810  174.3750  138.8870 O   0  0  0  0  0  0  0  0  0  0  0  0
  197.3610  175.4110  140.6310 C   0  0  0  0  0  1  0  0  0  0  0  0
  198.0040  175.7570  139.4120 O   0  0  0  0  0  0  0  0  0  0  0  0
  190.7510  175.8700  135.5930 C   0  0  0  0  0  2  0  0  0  0  0  0
  190.0120  174.8420  137.3260 C   0  0  0  0  0  2  0  0  0  0  0  0
  190.8230  176.1130  137.0920 C   0  0  1  0  0  3  0  0  0  0  0  0
  189.9450  174.6040  135.8280 C   0  0  2  0  0  3  0  0  0  0  0  0
  190.7510  173.4310  135.4770 C   0  0  0  0  0  0  0  0  0  0  0  0
  191.4130  172.4610  135.1990 C   0  0  0  0  0  0  0  0  0  0  0  0
  192.2170  171.2830  134.8710 C   0  0  0  0  0  2  0  0  0  0  0  0
  193.1300  171.0150  135.9280 O   0  0  0  0  0  0  0  0  0  0  0  0
  195.2880  169.7110  137.9250 S   0  0  0  0  0  0  0  0  0  0  0  0
  196.4070  171.6230  134.9630 C   0  0  0  0  0  3  0  0  0  0  0  0
  196.7030  170.9330  136.0900 N   0  0  0  0  0  0  0  0  0  0  0  0
  195.0740  171.7390  134.7840 N   0  0  0  0  0  2  0  0  0  0  0  0
  194.5050  171.1250  135.8030 N   0  0  0  0  0  0  0  0  0  0  0  0
  195.4880  170.6360  136.5880 C   0  0  0  0  0  0  0  0  0  0  0  0
  189.5250  178.5340  139.1130 C   0  0  0  0  0  2  0  0  0  0  0  0
  188.0960  178.2880  139.0210 N   0  0  0  0  0  2  0  0  0  0  0  0
  187.7870  178.1160  137.6110 C   0  0  0  0  0  2  0  0  0  0  0  0
  185.1550  175.5800  136.5880 C   0  0  0  0  0  0  0  0  0  0  0  0
  186.3930  176.2170  136.7800 C   0  0  0  0  0  3  0  0  0  0  0  0
  185.3160  178.0170  137.9870 C   0  0  0  0  0  3  0  0  0  0  0  0
  186.4760  177.4270  137.4740 C   0  0  0  0  0  0  0  0  0  0  0  0
  184.0000  176.1760  137.1290 C   0  0  0  0  0  3  0  0  0  0  0  0
  184.0790  177.3880  137.8210 C   0  0  0  0  0  3  0  0  0  0  0  0
  182.8860  173.1920  135.5950 C   0  0  0  0  0  2  0  0  0  0  0  0
  184.9830  173.0650  136.8040 C   0  0  2  0  0  0  0  0  0  0  0  0
  183.8330  174.2220  134.9900 C   0  0  0  0  0  2  0  0  0  0  0  0
  184.7350  171.6620  136.2890 C   0  0  0  0  0  2  0  0  0  0  0  0
  183.5740  172.5250  136.7760 C   0  0  2  0  0  3  0  0  0  0  0  0
  186.3000  174.0430  134.9370 C   0  0  0  0  0  1  0  0  0  0  0  0
  185.0920  174.2530  135.8440 C   0  0  1  0  0  0  0  0  0  0  0  0
  185.5110  173.1520  138.0940 O   0  0  0  0  0  1  0  0  0  0  0  0
  2  7  1  0  0  0  0
  2  5  1  0  0  0  0
  3  1  2  0  0  0  0
  3  2  1  0  0  0  0
  6  3  1  0  0  0  0
  7  4  1  1  0  0  0
  7  5  1  0  0  0  0
  8  6  1  1  0  0  0
  8 13  1  0  0  0  0
 10 13  1  0  0  0  0
 10  9  1  0  0  0  0
 11 10  2  0  0  0  0
 12 11  1  0  0  0  0
 12  8  1  0  0  0  0
 14  9  1  0  0  0  0
 14 15  1  0  0  0  0
 15 16  2  0  0  0  0
 15 18  1  0  0  0  0
 18 17  1  0  0  0  0
 19 22  1  0  0  0  0
 19 21  1  0  0  0  0
 21 20  1  0  0  0  0
 21  6  1  1  0  0  0
 22 23  1  1  0  0  0
 22 20  1  0  0  0  0
 24 23  3  0  0  0  0
 25 24  1  0  0  0  0
 25 26  1  0  0  0  0
 28 29  2  0  0  0  0
 29 32  1  0  0  0  0
 30 28  1  0  0  0  0
 30 31  1  0  0  0  0
 31 26  1  0  0  0  0
 31 32  1  0  0  0  0
 32 27  2  0  0  0  0
 33  7  1  0  0  0  0
 34 33  1  0  0  0  0
 35 34  1  0  0  0  0
 36 37  2  0  0  0  0
 36 40  1  0  0  0  0
 37 39  1  0  0  0  0
 39 35  1  0  0  0  0
 39 38  2  0  0  0  0
 40 41  2  0  0  0  0
 41 38  1  0  0  0  0
 43 49  1  1  0  0  0
 44 42  1  0  0  0  0
 44 48  1  0  0  0  0
 45 46  1  0  0  0  0
 45 43  1  0  0  0  0
 46 42  1  6  0  0  0
 46 43  1  0  0  0  0
 48 47  1  6  0  0  0
 48 36  1  0  0  0  0
 48 43  1  0  0  0  0
M  END
>  <MODEL>
7

>  <REMARK>
 VINA RESULT:      -5.6      4.197      7.750
  Name = 
  14 active torsions:
  status: ('A' for Active; 'I' for Inactive)
    1  A    between atoms: C_1  and  N_36
    2  A    between atoms: N_3  and  C_44
    3  A    between atoms: C_4  and  O_15
    4  A    between atoms: C_4  and  C_26
    5  A    between atoms: C_5  and  C_32
    6  A    between atoms: C_7  and  C_35
    7  A    between atoms: O_15  and  N_45
    8  A    between atoms: C_24  and  N_36
    9  A    between atoms: C_27  and  C_43
   10  A    between atoms: C_37  and  O_39
   11  A    between atoms: C_37  and  C_44
   12  A    between atoms: C_38  and  C_41
   13  A    between atoms: C_38  and  N_49
   14  A    between atoms: C_43  and  N_49
                            x       y       z     vdW  Elec       q    Type
                         _______ _______ _______ _____ _____    ______ ____

>  <TORSDO>
F 14

$$$$
=
 OpenBabel10232410053D

 49 55  0  0  1  0  0  0  0  0999 V2000
  188.8260  172.9930  136.3960 O   0  0  0  0  0  0  0  0  0  0  0  0
  190.7890  174.2120  136.5440 N   0  0  0  0  0  0  0  0  0  0  0  0
  189.3790  174.1260  136.3430 C   0  0  0  0  0  0  0  0  0  0  0  0
  192.1120  175.7530  137.9870 C   0  0  0  0  0  1  0  0  0  0  0  0
  192.1260  173.5830  136.8000 C   0  0  0  0  0  2  0  0  0  0  0  0
  188.5980  175.3140  136.0940 N   0  0  0  0  0  0  0  0  0  0  0  0
  192.0700  174.9550  136.6970 C   0  0  1  0  0  0  0  0  0  0  0  0
  187.1270  175.2680  136.0470 C   0  0  1  0  0  3  0  0  0  0  0  0
  184.7780  172.7870  137.5220 N   0  0  0  0  0  2  0  0  0  0  0  0
  185.6330  173.6020  136.7160 C   0  0  0  0  0  0  0  0  0  0  0  0
  185.6630  173.5150  135.4300 N   0  0  0  0  0  0  0  0  0  0  0  0
  186.6170  174.4460  134.8620 C   0  0  0  0  0  2  0  0  0  0  0  0
  186.5360  174.6210  137.2930 C   0  0  0  0  0  2  0  0  0  0  0  0
  183.8910  171.7740  136.9660 C   0  0  0  0  0  2  0  0  0  0  0  0
  182.5000  172.3030  136.8400 C   0  0  0  0  0  0  0  0  0  0  0  0
  182.2980  173.5490  136.8360 O   0  0  0  0  0  0  0  0  0  0  0  0
  180.1660  171.6640  137.2870 C   0  0  0  0  0  1  0  0  0  0  0  0
  181.4380  171.4070  136.7120 O   0  0  0  0  0  0  0  0  0  0  0  0
  188.3400  177.6330  135.3470 C   0  0  0  0  0  2  0  0  0  0  0  0
  189.5040  177.4060  137.1350 C   0  0  0  0  0  2  0  0  0  0  0  0
  189.3080  176.5820  135.8670 C   0  0  1  0  0  3  0  0  0  0  0  0
  188.5350  178.4500  136.6120 C   0  0  2  0  0  3  0  0  0  0  0  0
  187.3060  178.4300  137.4110 C   0  0  0  0  0  0  0  0  0  0  0  0
  186.2960  178.4240  138.0700 C   0  0  0  0  0  0  0  0  0  0  0  0
  185.0730  178.4260  138.8740 C   0  0  0  0  0  2  0  0  0  0  0  0
  185.2310  179.2950  139.9890 O   0  0  0  0  0  0  0  0  0  0  0  0
  187.8080  178.4300  141.7080 S   0  0  0  0  0  0  0  0  0  0  0  0
  184.4470  178.4140  143.2520 C   0  0  0  0  0  3  0  0  0  0  0  0
  185.7760  178.1740  143.3420 N   0  0  0  0  0  0  0  0  0  0  0  0
  184.0980  178.8390  142.0190 N   0  0  0  0  0  2  0  0  0  0  0  0
  185.2080  178.8680  141.3070 N   0  0  0  0  0  0  0  0  0  0  0  0
  186.2200  178.4700  142.1070 C   0  0  0  0  0  0  0  0  0  0  0  0
  192.5330  175.5800  135.3920 C   0  0  0  0  0  2  0  0  0  0  0  0
  193.5500  174.7440  134.7790 N   0  0  0  0  0  2  0  0  0  0  0  0
  194.7350  175.5700  134.6150 C   0  0  0  0  0  2  0  0  0  0  0  0
  196.8750  172.9070  136.2680 C   0  0  0  0  0  0  0  0  0  0  0  0
  195.8090  173.5480  135.6130 C   0  0  0  0  0  3  0  0  0  0  0  0
  197.0590  175.6190  135.5390 C   0  0  0  0  0  3  0  0  0  0  0  0
  195.8980  174.8940  135.2500 C   0  0  0  0  0  0  0  0  0  0  0  0
  198.0440  173.6440  136.5320 C   0  0  0  0  0  3  0  0  0  0  0  0
  198.1350  174.9920  136.1730 C   0  0  0  0  0  3  0  0  0  0  0  0
  194.9170  170.1490  135.6400 C   0  0  0  0  0  2  0  0  0  0  0  0
  195.6790  171.1910  137.6920 C   0  0  2  0  0  0  0  0  0  0  0  0
  196.3390  170.6450  135.4080 C   0  0  0  0  0  2  0  0  0  0  0  0
  195.2700  169.7860  138.0860 C   0  0  0  0  0  2  0  0  0  0  0  0
  194.4750  170.5580  137.0370 C   0  0  2  0  0  3  0  0  0  0  0  0
  198.0820  170.8650  137.1500 C   0  0  0  0  0  1  0  0  0  0  0  0
  196.7620  171.4340  136.6380 C   0  0  1  0  0  0  0  0  0  0  0  0
  195.3420  172.1970  138.6000 O   0  0  0  0  0  1  0  0  0  0  0  0
  2  7  1  0  0  0  0
  2  5  1  0  0  0  0
  3  1  2  0  0  0  0
  3  2  1  0  0  0  0
  6  3  1  0  0  0  0
  7  5  1  0  0  0  0
  7  4  1  1  0  0  0
  8  6  1  1  0  0  0
  8 13  1  0  0  0  0
 10 13  1  0  0  0  0
 10  9  1  0  0  0  0
 11 10  2  0  0  0  0
 12 11  1  0  0  0  0
 12  8  1  0  0  0  0
 14  9  1  0  0  0  0
 15 14  1  0  0  0  0
 16 15  2  0  0  0  0
 18 15  1  0  0  0  0
 18 17  1  0  0  0  0
 19 21  1  0  0  0  0
 19 22  1  0  0  0  0
 21  6  1  1  0  0  0
 21 20  1  0  0  0  0
 22 20  1  0  0  0  0
 22 23  1  1  0  0  0
 23 24  3  0  0  0  0
 24 25  1  0  0  0  0
 25 26  1  0  0  0  0
 26 31  1  0  0  0  0
 27 32  2  0  0  0  0
 28 29  2  0  0  0  0
 30 28  1  0  0  0  0
 31 30  1  0  0  0  0
 31 32  1  0  0  0  0
 32 29  1  0  0  0  0
 33  7  1  0  0  0  0
 34 33  1  0  0  0  0
 35 34  1  0  0  0  0
 35 39  1  0  0  0  0
 36 40  1  0  0  0  0
 36 48  1  0  0  0  0
 37 36  2  0  0  0  0
 38 41  1  0  0  0  0
 39 38  2  0  0  0  0
 39 37  1  0  0  0  0
 41 40  2  0  0  0  0
 43 45  1  0  0  0  0
 43 49  1  1  0  0  0
 44 42  1  0  0  0  0
 44 48  1  0  0  0  0
 46 42  1  6  0  0  0
 46 43  1  0  0  0  0
 46 45  1  0  0  0  0
 48 47  1  1  0  0  0
 48 43  1  0  0  0  0
M  END
>  <MODEL>
8

>  <REMARK>
 VINA RESULT:      -5.5      3.648      8.999
  Name = 
  14 active torsions:
  status: ('A' for Active; 'I' for Inactive)
    1  A    between atoms: C_1  and  N_36
    2  A    between atoms: N_3  and  C_44
    3  A    between atoms: C_4  and  O_15
    4  A    between atoms: C_4  and  C_26
    5  A    between atoms: C_5  and  C_32
    6  A    between atoms: C_7  and  C_35
    7  A    between atoms: O_15  and  N_45
    8  A    between atoms: C_24  and  N_36
    9  A    between atoms: C_27  and  C_43
   10  A    between atoms: C_37  and  O_39
   11  A    between atoms: C_37  and  C_44
   12  A    between atoms: C_38  and  C_41
   13  A    between atoms: C_38  and  N_49
   14  A    between atoms: C_43  and  N_49
                            x       y       z     vdW  Elec       q    Type
                         _______ _______ _______ _____ _____    ______ ____

>  <TORSDO>
F 14

$$$$
=
 OpenBabel10232410053D

 49 55  0  0  1  0  0  0  0  0999 V2000
  193.7050  176.8380  139.1100 O   0  0  0  0  0  0  0  0  0  0  0  0
  191.4920  177.2930  139.6200 N   0  0  0  0  0  0  0  0  0  0  0  0
  192.4950  176.7370  138.7690 C   0  0  0  0  0  0  0  0  0  0  0  0
  189.3600  176.3050  140.4440 C   0  0  0  0  0  1  0  0  0  0  0  0
  191.0730  178.0410  140.8490 C   0  0  0  0  0  2  0  0  0  0  0  0
  192.1300  176.0620  137.5460 N   0  0  0  0  0  0  0  0  0  0  0  0
  190.0850  177.5670  140.0170 C   0  0  1  0  0  0  0  0  0  0  0  0
  193.1290  175.3420  136.7410 C   0  0  1  0  0  3  0  0  0  0  0  0
  196.4300  173.9460  137.7420 N   0  0  0  0  0  2  0  0  0  0  0  0
  195.3140  174.6920  137.2500 C   0  0  0  0  0  0  0  0  0  0  0  0
  195.4510  175.7160  136.4790 N   0  0  0  0  0  0  0  0  0  0  0  0
  194.1660  176.2890  136.1330 C   0  0  0  0  0  2  0  0  0  0  0  0
  193.9160  174.3360  137.5730 C   0  0  0  0  0  2  0  0  0  0  0  0
  197.8130  174.2920  137.4390 C   0  0  0  0  0  2  0  0  0  0  0  0
  198.5200  174.7630  138.6670 C   0  0  0  0  0  0  0  0  0  0  0  0
  199.6950  174.3670  138.9070 O   0  0  0  0  0  0  0  0  0  0  0  0
  197.7940  175.4140  140.9260 C   0  0  0  0  0  1  0  0  0  0  0  0
  197.8750  175.6510  139.5280 O   0  0  0  0  0  0  0  0  0  0  0  0
  190.6450  175.8990  135.6050 C   0  0  0  0  0  2  0  0  0  0  0  0
  189.9600  174.8270  137.3330 C   0  0  0  0  0  2  0  0  0  0  0  0
  190.7270  176.1250  137.1060 C   0  0  1  0  0  3  0  0  0  0  0  0
  189.8820  174.6050  135.8330 C   0  0  2  0  0  3  0  0  0  0  0  0
  190.7200  173.4630  135.4570 C   0  0  0  0  0  0  0  0  0  0  0  0
  191.4070  172.5170  135.1580 C   0  0  0  0  0  0  0  0  0  0  0  0
  192.2400  171.3670  134.8050 C   0  0  0  0  0  2  0  0  0  0  0  0
  193.1190  171.0600  135.8810 O   0  0  0  0  0  0  0  0  0  0  0  0
  195.1800  169.7120  137.9480 S   0  0  0  0  0  0  0  0  0  0  0  0
  196.4370  171.5320  134.9840 C   0  0  0  0  0  3  0  0  0  0  0  0
  196.6810  170.8500  136.1280 N   0  0  0  0  0  0  0  0  0  0  0  0
  195.1140  171.6940  134.7720 N   0  0  0  0  0  2  0  0  0  0  0  0
  194.5000  171.1180  135.7870 N   0  0  0  0  0  0  0  0  0  0  0  0
  195.4460  170.6060  136.6020 C   0  0  0  0  0  0  0  0  0  0  0  0
  189.4080  178.5640  139.0910 C   0  0  0  0  0  2  0  0  0  0  0  0
  187.9750  178.3300  139.0760 N   0  0  0  0  0  2  0  0  0  0  0  0
  187.5460  178.4200  137.6900 C   0  0  0  0  0  2  0  0  0  0  0  0
  183.9370  177.6770  138.6010 C   0  0  0  0  0  0  0  0  0  0  0  0
  185.2610  178.1480  138.6610 C   0  0  0  0  0  3  0  0  0  0  0  0
  185.6880  177.3200  136.4270 C   0  0  0  0  0  3  0  0  0  0  0  0
  186.1320  177.9710  137.5820 C   0  0  0  0  0  0  0  0  0  0  0  0
  183.5000  177.0430  137.4230 C   0  0  0  0  0  3  0  0  0  0  0  0
  184.3700  176.8630  136.3440 C   0  0  0  0  0  3  0  0  0  0  0  0
  180.6580  177.1920  139.5210 C   0  0  0  0  0  2  0  0  0  0  0  0
  182.1140  179.1290  139.5850 C   0  0  2  0  0  0  0  0  0  0  0  0
  182.0550  176.7100  139.8920 C   0  0  0  0  0  2  0  0  0  0  0  0
  180.9880  179.4460  140.5480 C   0  0  0  0  0  2  0  0  0  0  0  0
  180.7090  178.6890  139.2530 C   0  0  2  0  0  3  0  0  0  0  0  0
  183.7570  178.0410  141.0990 C   0  0  0  0  0  1  0  0  0  0  0  0
  183.0010  177.8970  139.7810 C   0  0  1  0  0  0  0  0  0  0  0  0
  182.5540  180.1950  138.7970 O   0  0  0  0  0  1  0  0  0  0  0  0
  2  7  1  0  0  0  0
  2  5  1  0  0  0  0
  3  1  2  0  0  0  0
  3  2  1  0  0  0  0
  6  3  1  0  0  0  0
  7  4  1  1  0  0  0
  7  5  1  0  0  0  0
  8  6  1  1  0  0  0
  8 13  1  0  0  0  0
 10 13  1  0  0  0  0
 10  9  1  0  0  0  0
 11 10  2  0  0  0  0
 12 11  1  0  0  0  0
 12  8  1  0  0  0  0
 14  9  1  0  0  0  0
 14 15  1  0  0  0  0
 15 16  2  0  0  0  0
 15 18  1  0  0  0  0
 18 17  1  0  0  0  0
 19 22  1  0  0  0  0
 19 21  1  0  0  0  0
 21 20  1  0  0  0  0
 21  6  1  1  0  0  0
 22 23  1  1  0  0  0
 22 20  1  0  0  0  0
 24 23  3  0  0  0  0
 25 24  1  0  0  0  0
 25 26  1  0  0  0  0
 28 29  2  0  0  0  0
 29 32  1  0  0  0  0
 30 28  1  0  0  0  0
 30 31  1  0  0  0  0
 31 26  1  0  0  0  0
 31 32  1  0  0  0  0
 32 27  2  0  0  0  0
 33  7  1  0  0  0  0
 34 33  1  0  0  0  0
 35 34  1  0  0  0  0
 36 37  1  0  0  0  0
 36 48  1  0  0  0  0
 38 39  1  0  0  0  0
 39 35  1  0  0  0  0
 39 37  2  0  0  0  0
 40 36  2  0  0  0  0
 41 38  2  0  0  0  0
 41 40  1  0  0  0  0
 42 44  1  0  0  0  0
 43 49  1  6  0  0  0
 43 48  1  0  0  0  0
 43 45  1  0  0  0  0
 46 42  1  1  0  0  0
 46 43  1  0  0  0  0
 46 45  1  0  0  0  0
 48 44  1  0  0  0  0
 48 47  1  1  0  0  0
M  END
>  <MODEL>
9

>  <REMARK>
 VINA RESULT:      -5.5      4.270      7.788
  Name = 
  14 active torsions:
  status: ('A' for Active; 'I' for Inactive)
    1  A    between atoms: C_1  and  N_36
    2  A    between atoms: N_3  and  C_44
    3  A    between atoms: C_4  and  O_15
    4  A    between atoms: C_4  and  C_26
    5  A    between atoms: C_5  and  C_32
    6  A    between atoms: C_7  and  C_35
    7  A    between atoms: O_15  and  N_45
    8  A    between atoms: C_24  and  N_36
    9  A    between atoms: C_27  and  C_43
   10  A    between atoms: C_37  and  O_39
   11  A    between atoms: C_37  and  C_44
   12  A    between atoms: C_38  and  C_41
   13  A    between atoms: C_38  and  N_49
   14  A    between atoms: C_43  and  N_49
                            x       y       z     vdW  Elec       q    Type
                         _______ _______ _______ _____ _____    ______ ____

>  <TORSDO>
F 14

$$$$
