=
 OpenBabel10232409373D

 33 38  0  0  1  0  0  0  0  0999 V2000
  187.8730  177.4570  136.4630 C   0  0  1  0  0  3  0  0  0  0  0  0
  188.7130  178.6850  140.5690 C   0  0  1  0  0  3  0  0  0  0  0  0
  188.5740  178.5840  138.2950 C   0  0  1  0  0  3  0  0  0  0  0  0
  188.9350  178.2470  136.9030 C   0  0  1  0  0  3  0  0  0  0  0  0
  187.4070  178.1900  138.6600 C   0  0  1  0  0  3  0  0  0  0  0  0
  185.6120  177.7580  137.2170 O   0  0  0  0  0  1  0  0  0  0  0  0
  189.3910  178.9450  139.3400 O   0  0  0  0  0  0  0  0  0  0  0  0
  189.1600  176.7700  136.8050 N   0  0  0  0  0  0  0  0  0  0  0  0
  186.8630  177.2950  137.6220 C   0  0  1  0  0  3  0  0  0  0  0  0
  187.3490  178.0860  140.1420 C   0  0  0  0  0  2  0  0  0  0  0  0
  190.7310  173.3940  136.9730 N   0  0  0  0  0  0  0  0  0  0  0  0
  191.2360  175.5580  137.2820 C   0  0  0  0  0  0  0  0  0  0  0  0
  193.8500  174.9510  137.7180 C   0  0  0  0  0  3  0  0  0  0  0  0
  191.6610  174.2490  137.2600 C   0  0  0  0  0  0  0  0  0  0  0  0
  189.5660  174.2130  136.8250 C   0  0  0  0  0  0  0  0  0  0  0  0
  192.9630  173.9390  137.4740 N   0  0  0  0  0  0  0  0  0  0  0  0
  192.0920  176.5840  137.5050 N   0  0  0  0  0  0  0  0  0  0  0  0
  193.4070  176.2940  137.7310 C   0  0  0  0  0  3  0  0  0  0  0  0
  189.9510  175.6060  137.0100 C   0  0  0  0  0  0  0  0  0  0  0  0
  188.5050  173.8240  136.2010 N   0  0  0  0  0  2  0  0  0  0  0  0
  189.4250  176.3150  140.8300 C   0  0  0  0  0  1  0  0  0  0  0  0
  189.5270  177.7170  141.4460 C   0  0  2  0  0  0  0  0  0  0  0  0
  188.9260  177.7250  142.8450 C   0  0  0  0  0  0  0  0  0  0  0  0
  189.1750  178.0210  145.2500 C   0  0  0  0  0  3  0  0  0  0  0  0
  189.7090  178.0750  143.9600 C   0  0  0  0  0  3  0  0  0  0  0  0
  187.6090  177.2840  143.0580 C   0  0  0  0  0  3  0  0  0  0  0  0
  187.0750  177.2300  144.3470 C   0  0  0  0  0  3  0  0  0  0  0  0
  187.8570  177.5980  145.4450 C   0  0  0  0  0  0  0  0  0  0  0  0
  187.2810  177.5620  146.8160 C   0  0  0  0  0  2  0  0  0  0  0  0
  188.2420  177.9960  148.8940 C   0  0  0  0  0  1  0  0  0  0  0  0
  188.2820  177.0930  147.7590 N   0  0  0  0  0  2  0  0  0  0  0  0
  190.8780  178.1450  141.4580 O   0  0  0  0  0  0  0  0  0  0  0  0
  191.6090  177.1850  140.9190 O   0  0  0  0  0  1  0  0  0  0  0  0
  1  8  1  1  0  0  0
  1  4  1  0  0  0  0
  1  9  1  0  0  0  0
  2 22  1  1  0  0  0
  3  5  1  0  0  0  0
  3  7  1  1  0  0  0
  4  8  1  1  0  0  0
  4  3  1  0  0  0  0
  5 10  1  1  0  0  0
  7  2  1  0  0  0  0
  8 19  1  0  0  0  0
  9  6  1  6  0  0  0
  9  5  1  0  0  0  0
 10  2  1  0  0  0  0
 11 14  2  0  0  0  0
 12 17  1  0  0  0  0
 13 18  1  0  0  0  0
 14 12  1  0  0  0  0
 14 16  1  0  0  0  0
 15 11  1  0  0  0  0
 15 19  1  0  0  0  0
 16 13  2  0  0  0  0
 17 18  2  0  0  0  0
 19 12  2  0  0  0  0
 20 15  2  0  0  0  0
 22 21  1  6  0  0  0
 22 32  1  0  0  0  0
 22 23  1  0  0  0  0
 23 26  2  0  0  0  0
 23 25  1  0  0  0  0
 24 28  1  0  0  0  0
 25 24  2  0  0  0  0
 26 27  1  0  0  0  0
 27 28  2  0  0  0  0
 28 29  1  0  0  0  0
 29 31  1  0  0  0  0
 31 30  1  0  0  0  0
 33 32  1  0  0  0  0
M  END
>  <MODEL>
1

>  <REMARK>
 VINA RESULT:      -7.2      0.000      0.000
  Name = 
  6 active torsions:
  status: ('A' for Active; 'I' for Inactive)
    1  A    between atoms: C_1  and  C_32
    2  A    between atoms: C_3  and  C_32
    3  A    between atoms: C_19  and  C_27
    4  A    between atoms: C_19  and  N_31
    5  A    between atoms: N_22  and  C_29
    6  A    between atoms: O_24  and  C_32
                            x       y       z     vdW  Elec       q    Type
                         _______ _______ _______ _____ _____    ______ ____

>  <TORSDO>
F 6

$$$$
=
 OpenBabel10232409373D

 33 38  0  0  1  0  0  0  0  0999 V2000
  183.3670  178.4060  139.2420 C   0  0  1  0  0  3  0  0  0  0  0  0
  186.4200  178.9710  142.3130 C   0  0  1  0  0  3  0  0  0  0  0  0
  184.8770  179.3040  140.6680 C   0  0  1  0  0  3  0  0  0  0  0  0
  184.3120  179.4300  139.3090 C   0  0  1  0  0  3  0  0  0  0  0  0
  184.3030  178.4280  141.4110 C   0  0  1  0  0  3  0  0  0  0  0  0
  182.1060  177.6560  141.1450 O   0  0  0  0  0  1  0  0  0  0  0  0
  186.0980  179.7210  141.1420 O   0  0  0  0  0  0  0  0  0  0  0  0
  184.6660  178.2070  138.5220 N   0  0  0  0  0  0  0  0  0  0  0  0
  183.3810  177.6320  140.5800 C   0  0  1  0  0  3  0  0  0  0  0  0
  185.2260  178.0010  142.4960 C   0  0  0  0  0  2  0  0  0  0  0  0
  186.5040  175.7910  136.3580 N   0  0  0  0  0  0  0  0  0  0  0  0
  186.7960  177.7590  137.3950 C   0  0  0  0  0  0  0  0  0  0  0  0
  189.2610  178.0500  136.2860 C   0  0  0  0  0  3  0  0  0  0  0  0
  187.3100  176.7840  136.5710 C   0  0  0  0  0  0  0  0  0  0  0  0
  185.3570  176.1240  137.1470 C   0  0  0  0  0  0  0  0  0  0  0  0
  188.5370  176.9230  136.0120 N   0  0  0  0  0  0  0  0  0  0  0  0
  187.4820  178.8940  137.6730 N   0  0  0  0  0  0  0  0  0  0  0  0
  188.7240  179.0510  137.1270 C   0  0  0  0  0  3  0  0  0  0  0  0
  185.5870  177.4170  137.7780 C   0  0  0  0  0  0  0  0  0  0  0  0
  184.1930  175.6000  136.9560 N   0  0  0  0  0  2  0  0  0  0  0  0
  187.4650  176.8890  141.4350 C   0  0  0  0  0  1  0  0  0  0  0  0
  187.7560  178.2260  142.1320 C   0  0  2  0  0  0  0  0  0  0  0  0
  188.3550  177.9850  143.5100 C   0  0  0  0  0  0  0  0  0  0  0  0
  190.3010  177.7200  144.9510 C   0  0  0  0  0  3  0  0  0  0  0  0
  189.7490  178.0030  143.6990 C   0  0  0  0  0  3  0  0  0  0  0  0
  187.5320  177.6380  144.5940 C   0  0  0  0  0  3  0  0  0  0  0  0
  188.0840  177.3540  145.8460 C   0  0  0  0  0  3  0  0  0  0  0  0
  189.4690  177.3930  146.0250 C   0  0  0  0  0  0  0  0  0  0  0  0
  190.0560  177.1130  147.3640 C   0  0  0  0  0  2  0  0  0  0  0  0
  191.9190  175.7310  147.5750 C   0  0  0  0  0  1  0  0  0  0  0  0
  191.5050  177.0880  147.2710 N   0  0  0  0  0  2  0  0  0  0  0  0
  188.6090  179.0190  141.3250 O   0  0  0  0  0  0  0  0  0  0  0  0
  189.1420  178.2300  140.4060 O   0  0  0  0  0  1  0  0  0  0  0  0
  1  8  1  6  0  0  0
  1  4  1  0  0  0  0
  1  9  1  0  0  0  0
  2 22  1  6  0  0  0
  2 10  1  0  0  0  0
  3  7  1  6  0  0  0
  3  5  1  0  0  0  0
  4  8  1  6  0  0  0
  4  3  1  0  0  0  0
  5 10  1  6  0  0  0
  7  2  1  0  0  0  0
  9  6  1  1  0  0  0
  9  5  1  0  0  0  0
 11 14  2  0  0  0  0
 11 15  1  0  0  0  0
 12 17  1  0  0  0  0
 12 19  2  0  0  0  0
 13 18  1  0  0  0  0
 14 12  1  0  0  0  0
 15 19  1  0  0  0  0
 16 13  2  0  0  0  0
 16 14  1  0  0  0  0
 18 17  2  0  0  0  0
 19  8  1  0  0  0  0
 20 15  2  0  0  0  0
 22 21  1  6  0  0  0
 22 23  1  0  0  0  0
 23 25  2  0  0  0  0
 23 26  1  0  0  0  0
 24 28  2  0  0  0  0
 25 24  1  0  0  0  0
 26 27  2  0  0  0  0
 27 28  1  0  0  0  0
 28 29  1  0  0  0  0
 31 29  1  0  0  0  0
 31 30  1  0  0  0  0
 32 22  1  0  0  0  0
 33 32  1  0  0  0  0
M  END
>  <MODEL>
2

>  <REMARK>
 VINA RESULT:      -6.9      2.778      4.025
  Name = 
  6 active torsions:
  status: ('A' for Active; 'I' for Inactive)
    1  A    between atoms: C_1  and  C_32
    2  A    between atoms: C_3  and  C_32
    3  A    between atoms: C_19  and  C_27
    4  A    between atoms: C_19  and  N_31
    5  A    between atoms: N_22  and  C_29
    6  A    between atoms: O_24  and  C_32
                            x       y       z     vdW  Elec       q    Type
                         _______ _______ _______ _____ _____    ______ ____

>  <TORSDO>
F 6

$$$$
=
 OpenBabel10232409373D

 33 38  0  0  1  0  0  0  0  0999 V2000
  182.9550  178.1440  138.7530 C   0  0  1  0  0  3  0  0  0  0  0  0
  185.8710  179.0970  141.8610 C   0  0  1  0  0  3  0  0  0  0  0  0
  184.3380  179.2280  140.1770 C   0  0  1  0  0  3  0  0  0  0  0  0
  183.7940  179.2570  138.8040 C   0  0  1  0  0  3  0  0  0  0  0  0
  183.8370  178.3220  140.9370 C   0  0  1  0  0  3  0  0  0  0  0  0
  181.7310  177.3320  140.6540 O   0  0  0  0  0  1  0  0  0  0  0  0
  185.5030  179.7770  140.6610 O   0  0  0  0  0  0  0  0  0  0  0  0
  184.2830  178.0510  138.0630 N   0  0  0  0  0  0  0  0  0  0  0  0
  183.0150  177.4160  140.1150 C   0  0  1  0  0  3  0  0  0  0  0  0
  184.7730  178.0200  142.0520 C   0  0  0  0  0  2  0  0  0  0  0  0
  187.3280  176.7300  136.3690 N   0  0  0  0  0  0  0  0  0  0  0  0
  185.3500  176.0350  137.1680 C   0  0  0  0  0  0  0  0  0  0  0  0
  185.9700  173.4440  136.6290 C   0  0  0  0  0  3  0  0  0  0  0  0
  186.5510  175.7140  136.5780 C   0  0  0  0  0  0  0  0  0  0  0  0
  186.5510  177.8390  136.8330 C   0  0  0  0  0  0  0  0  0  0  0  0
  186.8680  174.4240  136.3090 N   0  0  0  0  0  0  0  0  0  0  0  0
  184.4460  175.0870  137.5120 N   0  0  0  0  0  0  0  0  0  0  0  0
  184.7420  173.7810  137.2420 C   0  0  0  0  0  3  0  0  0  0  0  0
  185.2910  177.3330  137.3630 C   0  0  0  0  0  0  0  0  0  0  0  0
  187.0660  178.9830  137.1370 N   0  0  0  0  0  2  0  0  0  0  0  0
  187.1850  177.2900  140.7650 C   0  0  0  0  0  1  0  0  0  0  0  0
  187.2760  178.4820  141.7280 C   0  0  2  0  0  0  0  0  0  0  0  0
  187.7210  178.0150  143.1070 C   0  0  0  0  0  0  0  0  0  0  0  0
  187.2310  177.5970  145.4570 C   0  0  0  0  0  3  0  0  0  0  0  0
  186.8090  177.9650  144.1760 C   0  0  0  0  0  3  0  0  0  0  0  0
  189.0720  177.7260  143.3610 C   0  0  0  0  0  3  0  0  0  0  0  0
  189.4950  177.3580  144.6400 C   0  0  0  0  0  3  0  0  0  0  0  0
  188.5750  177.2940  145.6900 C   0  0  0  0  0  0  0  0  0  0  0  0
  189.0220  176.8810  147.0480 C   0  0  0  0  0  2  0  0  0  0  0  0
  188.0850  177.9520  148.8930 C   0  0  0  0  0  1  0  0  0  0  0  0
  189.1410  178.0490  147.9030 N   0  0  0  0  0  2  0  0  0  0  0  0
  188.1520  179.4640  141.2040 O   0  0  0  0  0  0  0  0  0  0  0  0
  188.6290  179.0080  140.0580 O   0  0  0  0  0  1  0  0  0  0  0  0
  1  8  1  6  0  0  0
  1  4  1  0  0  0  0
  1  9  1  0  0  0  0
  2 22  1  6  0  0  0
  2 10  1  0  0  0  0
  3  7  1  6  0  0  0
  3  5  1  0  0  0  0
  4  8  1  6  0  0  0
  4  3  1  0  0  0  0
  5 10  1  6  0  0  0
  7  2  1  0  0  0  0
  9  6  1  1  0  0  0
  9  5  1  0  0  0  0
 11 14  2  0  0  0  0
 11 15  1  0  0  0  0
 12 19  2  0  0  0  0
 12 17  1  0  0  0  0
 13 18  1  0  0  0  0
 14 12  1  0  0  0  0
 15 20  2  0  0  0  0
 15 19  1  0  0  0  0
 16 14  1  0  0  0  0
 16 13  2  0  0  0  0
 18 17  2  0  0  0  0
 19  8  1  0  0  0  0
 22 21  1  6  0  0  0
 22 23  1  0  0  0  0
 23 26  2  0  0  0  0
 23 25  1  0  0  0  0
 24 28  1  0  0  0  0
 25 24  2  0  0  0  0
 26 27  1  0  0  0  0
 27 28  2  0  0  0  0
 28 29  1  0  0  0  0
 29 31  1  0  0  0  0
 31 30  1  0  0  0  0
 32 22  1  0  0  0  0
 33 32  1  0  0  0  0
M  END
>  <MODEL>
3

>  <REMARK>
 VINA RESULT:      -6.7      3.225      4.559
  Name = 
  6 active torsions:
  status: ('A' for Active; 'I' for Inactive)
    1  A    between atoms: C_1  and  C_32
    2  A    between atoms: C_3  and  C_32
    3  A    between atoms: C_19  and  C_27
    4  A    between atoms: C_19  and  N_31
    5  A    between atoms: N_22  and  C_29
    6  A    between atoms: O_24  and  C_32
                            x       y       z     vdW  Elec       q    Type
                         _______ _______ _______ _____ _____    ______ ____

>  <TORSDO>
F 6

$$$$
=
 OpenBabel10232409373D

 33 38  0  0  1  0  0  0  0  0999 V2000
  191.8390  176.0270  137.7040 C   0  0  1  0  0  3  0  0  0  0  0  0
  188.2940  174.9210  135.4060 C   0  0  1  0  0  3  0  0  0  0  0  0
  190.2780  175.8220  136.0800 C   0  0  1  0  0  3  0  0  0  0  0  0
  191.2230  176.7730  136.6990 C   0  0  1  0  0  3  0  0  0  0  0  0
  190.3570  174.6180  136.5210 C   0  0  1  0  0  3  0  0  0  0  0  0
  192.2500  173.6670  137.5240 O   0  0  0  0  0  1  0  0  0  0  0  0
  189.1280  176.0780  135.3700 O   0  0  0  0  0  0  0  0  0  0  0  0
  190.8000  177.0270  138.1120 N   0  0  0  0  0  0  0  0  0  0  0  0
  191.2340  174.6050  137.7060 C   0  0  1  0  0  3  0  0  0  0  0  0
  189.0810  173.8990  136.2650 C   0  0  0  0  0  2  0  0  0  0  0  0
  188.2370  178.8840  140.0800 N   0  0  0  0  0  0  0  0  0  0  0  0
  189.8090  177.3040  140.3360 C   0  0  0  0  0  0  0  0  0  0  0  0
  189.0760  176.9030  142.9230 C   0  0  0  0  0  3  0  0  0  0  0  0
  188.7990  178.0510  140.8980 C   0  0  0  0  0  0  0  0  0  0  0  0
  188.9710  178.6970  138.8660 C   0  0  0  0  0  0  0  0  0  0  0  0
  188.4260  177.8540  142.1870 N   0  0  0  0  0  0  0  0  0  0  0  0
  190.4610  176.3430  141.0340 N   0  0  0  0  0  0  0  0  0  0  0  0
  190.1070  176.1340  142.3360 C   0  0  0  0  0  3  0  0  0  0  0  0
  189.9590  177.6480  139.0770 C   0  0  0  0  0  0  0  0  0  0  0  0
  188.5250  179.0610  137.7090 N   0  0  0  0  0  2  0  0  0  0  0  0
  187.1480  175.8150  137.4270 C   0  0  0  0  0  1  0  0  0  0  0  0
  186.9200  175.2590  136.0150 C   0  0  2  0  0  0  0  0  0  0  0  0
  186.1010  173.9780  136.0760 C   0  0  0  0  0  0  0  0  0  0  0  0
  185.0140  172.1080  134.9550 C   0  0  0  0  0  3  0  0  0  0  0  0
  185.8190  173.2490  134.9070 C   0  0  0  0  0  3  0  0  0  0  0  0
  185.5250  173.5570  137.2870 C   0  0  0  0  0  3  0  0  0  0  0  0
  184.7210  172.4160  137.3360 C   0  0  0  0  0  3  0  0  0  0  0  0
  184.4630  171.6910  136.1690 C   0  0  0  0  0  0  0  0  0  0  0  0
  183.6240  170.4630  136.2250 C   0  0  0  0  0  2  0  0  0  0  0  0
  183.3500  168.2760  135.4720 C   0  0  0  0  0  1  0  0  0  0  0  0
  184.2890  169.3810  135.5210 N   0  0  0  0  0  2  0  0  0  0  0  0
  186.2950  176.2370  135.2020 O   0  0  0  0  0  0  0  0  0  0  0  0
  186.0370  177.2880  135.9630 O   0  0  0  0  0  1  0  0  0  0  0  0
  1  9  1  0  0  0  0
  1  8  1  1  0  0  0
  2 22  1  1  0  0  0
  2 10  1  0  0  0  0
  3  7  1  1  0  0  0
  3  5  1  0  0  0  0
  3  4  1  0  0  0  0
  4  1  1  0  0  0  0
  4  8  1  1  0  0  0
  5 10  1  1  0  0  0
  5  9  1  0  0  0  0
  7  2  1  0  0  0  0
  8 19  1  0  0  0  0
  9  6  1  6  0  0  0
 11 14  2  0  0  0  0
 12 14  1  0  0  0  0
 12 17  1  0  0  0  0
 14 16  1  0  0  0  0
 15 19  1  0  0  0  0
 15 11  1  0  0  0  0
 16 13  2  0  0  0  0
 17 18  2  0  0  0  0
 18 13  1  0  0  0  0
 19 12  2  0  0  0  0
 20 15  2  0  0  0  0
 22 23  1  0  0  0  0
 22 21  1  1  0  0  0
 23 26  1  0  0  0  0
 24 28  2  0  0  0  0
 25 24  1  0  0  0  0
 25 23  2  0  0  0  0
 26 27  2  0  0  0  0
 28 29  1  0  0  0  0
 28 27  1  0  0  0  0
 30 31  1  0  0  0  0
 31 29  1  0  0  0  0
 32 33  1  0  0  0  0
 32 22  1  0  0  0  0
M  END
>  <MODEL>
4

>  <REMARK>
 VINA RESULT:      -6.5      3.687      7.912
  Name = 
  6 active torsions:
  status: ('A' for Active; 'I' for Inactive)
    1  A    between atoms: C_1  and  C_32
    2  A    between atoms: C_3  and  C_32
    3  A    between atoms: C_19  and  C_27
    4  A    between atoms: C_19  and  N_31
    5  A    between atoms: N_22  and  C_29
    6  A    between atoms: O_24  and  C_32
                            x       y       z     vdW  Elec       q    Type
                         _______ _______ _______ _____ _____    ______ ____

>  <TORSDO>
F 6

$$$$
=
 OpenBabel10232409373D

 33 38  0  0  1  0  0  0  0  0999 V2000
  189.7530  173.8680  135.3330 C   0  0  1  0  0  3  0  0  0  0  0  0
  190.4630  176.5740  138.6870 C   0  0  1  0  0  3  0  0  0  0  0  0
  190.3060  174.7330  137.3490 C   0  0  1  0  0  3  0  0  0  0  0  0
  189.7160  173.5500  136.6910 C   0  0  1  0  0  3  0  0  0  0  0  0
  190.7730  175.6210  136.5450 C   0  0  1  0  0  3  0  0  0  0  0  0
  191.4780  175.2180  134.3460 O   0  0  0  0  0  1  0  0  0  0  0  0
  190.1400  175.1840  138.6370 O   0  0  0  0  0  0  0  0  0  0  0  0
  188.4310  173.9510  136.0350 N   0  0  0  0  0  0  0  0  0  0  0  0
  190.3560  175.2820  135.1720 C   0  0  1  0  0  3  0  0  0  0  0  0
  190.8390  176.9400  137.2280 C   0  0  0  0  0  2  0  0  0  0  0  0
  184.7980  174.4090  136.7310 N   0  0  0  0  0  0  0  0  0  0  0  0
  186.4670  175.3350  135.5520 C   0  0  0  0  0  0  0  0  0  0  0  0
  184.8590  177.3790  134.7590 C   0  0  0  0  0  3  0  0  0  0  0  0
  185.1490  175.3770  135.9430 C   0  0  0  0  0  0  0  0  0  0  0  0
  185.9930  173.6290  136.8440 C   0  0  0  0  0  0  0  0  0  0  0  0
  184.3420  176.3940  135.5540 N   0  0  0  0  0  0  0  0  0  0  0  0
  187.0140  176.3020  134.7770 N   0  0  0  0  0  0  0  0  0  0  0  0
  186.2160  177.3320  134.3660 C   0  0  0  0  0  3  0  0  0  0  0  0
  187.0480  174.2830  136.0830 C   0  0  0  0  0  0  0  0  0  0  0  0
  186.1950  172.7830  137.7990 N   0  0  0  0  0  2  0  0  0  0  0  0
  189.3530  178.8000  138.5980 C   0  0  0  0  0  1  0  0  0  0  0  0
  189.2650  177.3920  139.2040 C   0  0  2  0  0  0  0  0  0  0  0  0
  189.3580  177.4620  140.7210 C   0  0  0  0  0  0  0  0  0  0  0  0
  190.6530  177.2310  142.7720 C   0  0  0  0  0  3  0  0  0  0  0  0
  190.5810  177.2290  141.3760 C   0  0  0  0  0  3  0  0  0  0  0  0
  188.2040  177.6570  141.4980 C   0  0  0  0  0  3  0  0  0  0  0  0
  188.2760  177.6580  142.8940 C   0  0  0  0  0  3  0  0  0  0  0  0
  189.5000  177.4440  143.5320 C   0  0  0  0  0  0  0  0  0  0  0  0
  189.5800  177.4680  145.0170 C   0  0  0  0  0  2  0  0  0  0  0  0
  188.4010  177.6670  147.0170 C   0  0  0  0  0  1  0  0  0  0  0  0
  188.2750  177.7750  145.5760 N   0  0  0  0  0  2  0  0  0  0  0  0
  188.0690  176.7570  138.7850 O   0  0  0  0  0  0  0  0  0  0  0  0
  187.3970  177.6170  138.0390 O   0  0  0  0  0  1  0  0  0  0  0  0
  1  8  1  1  0  0  0
  1  4  1  0  0  0  0
  2 22  1  6  0  0  0
  3  7  1  6  0  0  0
  4  8  1  1  0  0  0
  4  3  1  0  0  0  0
  5 10  1  1  0  0  0
  5  3  1  0  0  0  0
  7  2  1  0  0  0  0
  8 19  1  0  0  0  0
  9  6  1  6  0  0  0
  9  1  1  0  0  0  0
  9  5  1  0  0  0  0
 10  2  1  0  0  0  0
 11 15  1  0  0  0  0
 12 14  1  0  0  0  0
 12 19  2  0  0  0  0
 13 16  2  0  0  0  0
 14 11  2  0  0  0  0
 15 20  2  0  0  0  0
 16 14  1  0  0  0  0
 17 12  1  0  0  0  0
 18 13  1  0  0  0  0
 18 17  2  0  0  0  0
 19 15  1  0  0  0  0
 22 21  1  6  0  0  0
 22 23  1  0  0  0  0
 23 25  2  0  0  0  0
 23 26  1  0  0  0  0
 24 28  2  0  0  0  0
 25 24  1  0  0  0  0
 26 27  2  0  0  0  0
 27 28  1  0  0  0  0
 28 29  1  0  0  0  0
 29 31  1  0  0  0  0
 31 30  1  0  0  0  0
 32 22  1  0  0  0  0
 33 32  1  0  0  0  0
M  END
>  <MODEL>
5

>  <REMARK>
 VINA RESULT:      -6.4      2.523      4.734
  Name = 
  6 active torsions:
  status: ('A' for Active; 'I' for Inactive)
    1  A    between atoms: C_1  and  C_32
    2  A    between atoms: C_3  and  C_32
    3  A    between atoms: C_19  and  C_27
    4  A    between atoms: C_19  and  N_31
    5  A    between atoms: N_22  and  C_29
    6  A    between atoms: O_24  and  C_32
                            x       y       z     vdW  Elec       q    Type
                         _______ _______ _______ _____ _____    ______ ____

>  <TORSDO>
F 6

$$$$
=
 OpenBabel10232409373D

 33 38  0  0  1  0  0  0  0  0999 V2000
  186.5570  177.5850  135.9920 C   0  0  1  0  0  3  0  0  0  0  0  0
  189.3160  178.4100  139.2750 C   0  0  1  0  0  3  0  0  0  0  0  0
  188.1480  178.4960  137.3190 C   0  0  1  0  0  3  0  0  0  0  0  0
  187.7920  178.2300  135.9100 C   0  0  1  0  0  3  0  0  0  0  0  0
  187.2360  178.1930  138.1720 C   0  0  1  0  0  3  0  0  0  0  0  0
  184.9420  178.0520  137.7080 O   0  0  0  0  0  1  0  0  0  0  0  0
  189.3880  178.6930  137.8780 O   0  0  0  0  0  0  0  0  0  0  0  0
  187.7640  176.7500  135.6880 N   0  0  0  0  0  0  0  0  0  0  0  0
  186.1740  177.4380  137.4820 C   0  0  1  0  0  3  0  0  0  0  0  0
  187.8450  177.9840  139.5120 C   0  0  0  0  0  2  0  0  0  0  0  0
  190.0520  173.8370  135.2720 N   0  0  0  0  0  0  0  0  0  0  0  0
  187.8820  174.3030  135.6020 C   0  0  0  0  0  0  0  0  0  0  0  0
  187.2860  171.6620  135.8460 C   0  0  0  0  0  3  0  0  0  0  0  0
  188.8660  173.3510  135.4670 C   0  0  0  0  0  0  0  0  0  0  0  0
  189.8260  175.2500  135.2390 C   0  0  0  0  0  0  0  0  0  0  0  0
  188.5770  172.0320  135.5900 N   0  0  0  0  0  0  0  0  0  0  0  0
  186.5970  173.9700  135.8710 N   0  0  0  0  0  0  0  0  0  0  0  0
  186.2810  172.6470  135.9910 C   0  0  0  0  0  3  0  0  0  0  0  0
  188.4120  175.5000  135.4820 C   0  0  0  0  0  0  0  0  0  0  0  0
  190.7640  176.1180  135.4190 N   0  0  0  0  0  2  0  0  0  0  0  0
  189.8520  175.9950  138.9990 C   0  0  0  0  0  1  0  0  0  0  0  0
  190.3140  177.3020  139.6590 C   0  0  2  0  0  0  0  0  0  0  0  0
  190.3060  177.1610  141.1750 C   0  0  0  0  0  0  0  0  0  0  0  0
  189.0930  176.8150  143.2590 C   0  0  0  0  0  3  0  0  0  0  0  0
  189.1120  176.8820  141.8630 C   0  0  0  0  0  3  0  0  0  0  0  0
  191.4710  177.4100  141.9200 C   0  0  0  0  0  3  0  0  0  0  0  0
  191.4520  177.3430  143.3150 C   0  0  0  0  0  3  0  0  0  0  0  0
  190.2630  177.0470  143.9860 C   0  0  0  0  0  0  0  0  0  0  0  0
  190.2490  176.9540  145.4710 C   0  0  0  0  0  2  0  0  0  0  0  0
  191.6610  176.1640  147.1470 C   0  0  0  0  0  1  0  0  0  0  0  0
  191.6070  177.0270  145.9820 N   0  0  0  0  0  2  0  0  0  0  0  0
  191.5970  177.6630  139.1770 O   0  0  0  0  0  0  0  0  0  0  0  0
  192.1010  176.6130  138.5510 O   0  0  0  0  0  1  0  0  0  0  0  0
  1  8  1  1  0  0  0
  1  9  1  0  0  0  0
  2 10  1  0  0  0  0
  2 22  1  6  0  0  0
  3  7  1  1  0  0  0
  3  5  1  0  0  0  0
  4  8  1  1  0  0  0
  4  1  1  0  0  0  0
  4  3  1  0  0  0  0
  5 10  1  1  0  0  0
  7  2  1  0  0  0  0
  9  6  1  6  0  0  0
  9  5  1  0  0  0  0
 11 14  2  0  0  0  0
 12 17  1  0  0  0  0
 13 18  1  0  0  0  0
 14 16  1  0  0  0  0
 14 12  1  0  0  0  0
 15 11  1  0  0  0  0
 15 20  2  0  0  0  0
 15 19  1  0  0  0  0
 16 13  2  0  0  0  0
 17 18  2  0  0  0  0
 19 12  2  0  0  0  0
 19  8  1  0  0  0  0
 22 21  1  6  0  0  0
 22 23  1  0  0  0  0
 23 25  2  0  0  0  0
 23 26  1  0  0  0  0
 24 28  2  0  0  0  0
 25 24  1  0  0  0  0
 26 27  2  0  0  0  0
 27 28  1  0  0  0  0
 28 29  1  0  0  0  0
 29 31  1  0  0  0  0
 31 30  1  0  0  0  0
 32 22  1  0  0  0  0
 33 32  1  0  0  0  0
M  END
>  <MODEL>
6

>  <REMARK>
 VINA RESULT:      -6.3      2.232      3.396
  Name = 
  6 active torsions:
  status: ('A' for Active; 'I' for Inactive)
    1  A    between atoms: C_1  and  C_32
    2  A    between atoms: C_3  and  C_32
    3  A    between atoms: C_19  and  C_27
    4  A    between atoms: C_19  and  N_31
    5  A    between atoms: N_22  and  C_29
    6  A    between atoms: O_24  and  C_32
                            x       y       z     vdW  Elec       q    Type
                         _______ _______ _______ _____ _____    ______ ____

>  <TORSDO>
F 6

$$$$
=
 OpenBabel10232409373D

 33 38  0  0  1  0  0  0  0  0999 V2000
  188.7560  177.6410  138.5220 C   0  0  1  0  0  3  0  0  0  0  0  0
  184.6990  177.2830  136.9470 C   0  0  1  0  0  3  0  0  0  0  0  0
  186.8170  177.9900  137.4110 C   0  0  1  0  0  3  0  0  0  0  0  0
  187.9210  178.6790  138.1090 C   0  0  1  0  0  3  0  0  0  0  0  0
  186.9720  176.7220  137.2760 C   0  0  1  0  0  3  0  0  0  0  0  0
  189.0320  175.6030  137.2800 O   0  0  0  0  0  1  0  0  0  0  0  0
  185.5300  178.4190  137.1870 O   0  0  0  0  0  0  0  0  0  0  0  0
  187.8930  178.2970  139.5560 N   0  0  0  0  0  0  0  0  0  0  0  0
  188.1290  176.2980  138.0850 C   0  0  1  0  0  3  0  0  0  0  0  0
  185.6520  176.0680  137.0740 C   0  0  0  0  0  2  0  0  0  0  0  0
  185.9000  178.7790  142.6700 N   0  0  0  0  0  0  0  0  0  0  0  0
  187.7660  177.7650  141.9450 C   0  0  0  0  0  0  0  0  0  0  0  0
  188.1580  176.6100  144.3750 C   0  0  0  0  0  3  0  0  0  0  0  0
  186.8980  178.0130  142.9830 C   0  0  0  0  0  0  0  0  0  0  0  0
  186.1510  179.0980  141.2970 C   0  0  0  0  0  0  0  0  0  0  0  0
  187.0860  177.4390  144.1970 N   0  0  0  0  0  0  0  0  0  0  0  0
  188.8280  176.9360  142.0840 N   0  0  0  0  0  0  0  0  0  0  0  0
  189.0420  176.3530  143.3010 C   0  0  0  0  0  3  0  0  0  0  0  0
  187.3550  178.3980  140.8700 C   0  0  0  0  0  0  0  0  0  0  0  0
  185.2380  179.5380  140.4970 N   0  0  0  0  0  2  0  0  0  0  0  0
  182.7940  175.9050  137.7650 C   0  0  0  0  0  1  0  0  0  0  0  0
  183.5450  177.2290  137.9660 C   0  0  2  0  0  0  0  0  0  0  0  0
  182.6200  178.4080  137.6980 C   0  0  0  0  0  0  0  0  0  0  0  0
  181.0390  179.5680  136.2520 C   0  0  0  0  0  3  0  0  0  0  0  0
  181.8400  178.4570  136.5280 C   0  0  0  0  0  3  0  0  0  0  0  0
  182.6080  179.5150  138.5630 C   0  0  0  0  0  3  0  0  0  0  0  0
  181.8070  180.6260  138.2870 C   0  0  0  0  0  3  0  0  0  0  0  0
  181.0230  180.6550  137.1300 C   0  0  0  0  0  0  0  0  0  0  0  0
  180.1540  181.8290  136.8480 C   0  0  0  0  0  2  0  0  0  0  0  0
  180.8360  183.9220  136.0860 C   0  0  0  0  0  1  0  0  0  0  0  0
  180.8330  183.0500  137.2460 N   0  0  0  0  0  2  0  0  0  0  0  0
  184.0920  177.2830  139.2720 O   0  0  0  0  0  0  0  0  0  0  0  0
  183.2350  176.6990  140.0920 O   0  0  0  0  0  1  0  0  0  0  0  0
  1  8  1  1  0  0  0
  2 10  1  0  0  0  0
  2  7  1  0  0  0  0
  2 22  1  1  0  0  0
  3  7  1  1  0  0  0
  3  4  1  0  0  0  0
  4  1  1  0  0  0  0
  4  8  1  1  0  0  0
  5 10  1  1  0  0  0
  5  3  1  0  0  0  0
  5  9  1  0  0  0  0
  8 19  1  0  0  0  0
  9  6  1  6  0  0  0
  9  1  1  0  0  0  0
 11 14  2  0  0  0  0
 12 17  1  0  0  0  0
 12 14  1  0  0  0  0
 14 16  1  0  0  0  0
 15 11  1  0  0  0  0
 16 13  2  0  0  0  0
 17 18  2  0  0  0  0
 18 13  1  0  0  0  0
 19 15  1  0  0  0  0
 19 12  2  0  0  0  0
 20 15  2  0  0  0  0
 22 21  1  6  0  0  0
 22 32  1  0  0  0  0
 23 22  1  0  0  0  0
 23 26  1  0  0  0  0
 24 25  1  0  0  0  0
 24 28  2  0  0  0  0
 25 23  2  0  0  0  0
 27 26  2  0  0  0  0
 28 27  1  0  0  0  0
 29 28  1  0  0  0  0
 29 31  1  0  0  0  0
 30 31  1  0  0  0  0
 32 33  1  0  0  0  0
M  END
>  <MODEL>
7

>  <REMARK>
 VINA RESULT:      -6.3      4.502      8.054
  Name = 
  6 active torsions:
  status: ('A' for Active; 'I' for Inactive)
    1  A    between atoms: C_1  and  C_32
    2  A    between atoms: C_3  and  C_32
    3  A    between atoms: C_19  and  C_27
    4  A    between atoms: C_19  and  N_31
    5  A    between atoms: N_22  and  C_29
    6  A    between atoms: O_24  and  C_32
                            x       y       z     vdW  Elec       q    Type
                         _______ _______ _______ _____ _____    ______ ____

>  <TORSDO>
F 6

$$$$
=
 OpenBabel10232409373D

 33 38  0  0  1  0  0  0  0  0999 V2000
  189.5720  174.8850  134.9510 C   0  0  1  0  0  3  0  0  0  0  0  0
  190.3990  176.5920  138.8850 C   0  0  1  0  0  3  0  0  0  0  0  0
  190.1400  175.1680  137.1220 C   0  0  1  0  0  3  0  0  0  0  0  0
  189.4790  174.2390  136.1830 C   0  0  1  0  0  3  0  0  0  0  0  0
  190.6880  176.1910  136.5720 C   0  0  1  0  0  3  0  0  0  0  0  0
  191.4130  176.3040  134.3460 O   0  0  0  0  0  1  0  0  0  0  0  0
  189.9770  175.2890  138.4820 O   0  0  0  0  0  0  0  0  0  0  0  0
  188.2430  174.8890  135.6460 N   0  0  0  0  0  0  0  0  0  0  0  0
  190.2800  176.2430  135.1560 C   0  0  1  0  0  3  0  0  0  0  0  0
  190.8350  177.2850  137.5690 C   0  0  0  0  0  2  0  0  0  0  0  0
  184.8560  176.4340  135.4660 N   0  0  0  0  0  0  0  0  0  0  0  0
  185.8870  174.6030  136.2540 C   0  0  0  0  0  0  0  0  0  0  0  0
  183.5150  173.5240  137.0310 C   0  0  0  0  0  3  0  0  0  0  0  0
  184.7120  175.2950  136.0680 C   0  0  0  0  0  0  0  0  0  0  0  0
  186.2700  176.5220  135.2660 C   0  0  0  0  0  0  0  0  0  0  0  0
  183.5250  174.7610  136.4500 N   0  0  0  0  0  0  0  0  0  0  0  0
  185.9090  173.3690  136.8120 N   0  0  0  0  0  0  0  0  0  0  0  0
  184.7260  172.8160  137.2120 C   0  0  0  0  0  3  0  0  0  0  0  0
  186.8880  175.3040  135.7710 C   0  0  0  0  0  0  0  0  0  0  0  0
  186.8120  177.3130  134.4010 N   0  0  0  0  0  2  0  0  0  0  0  0
  189.3030  178.8120  139.1460 C   0  0  0  0  0  1  0  0  0  0  0  0
  189.2530  177.3420  139.5880 C   0  0  2  0  0  0  0  0  0  0  0  0
  189.4670  177.2340  141.0910 C   0  0  0  0  0  0  0  0  0  0  0  0
  188.6050  177.3830  143.3650 C   0  0  0  0  0  3  0  0  0  0  0  0
  188.3960  177.4200  141.9830 C   0  0  0  0  0  3  0  0  0  0  0  0
  190.7570  177.0490  141.6160 C   0  0  0  0  0  3  0  0  0  0  0  0
  190.9660  177.0120  142.9960 C   0  0  0  0  0  3  0  0  0  0  0  0
  189.8910  177.1800  143.8720 C   0  0  0  0  0  0  0  0  0  0  0  0
  190.1110  177.1190  145.3430 C   0  0  0  0  0  2  0  0  0  0  0  0
  191.7210  176.4590  146.8910 C   0  0  0  0  0  1  0  0  0  0  0  0
  191.5350  177.1490  145.6290 N   0  0  0  0  0  2  0  0  0  0  0  0
  188.0230  176.7590  139.1940 O   0  0  0  0  0  0  0  0  0  0  0  0
  187.4270  177.5980  138.3630 O   0  0  0  0  0  1  0  0  0  0  0  0
  1  9  1  0  0  0  0
  1  8  1  1  0  0  0
  1  4  1  0  0  0  0
  2 22  1  6  0  0  0
  3  7  1  1  0  0  0
  4  8  1  1  0  0  0
  4  3  1  0  0  0  0
  5  3  1  0  0  0  0
  5 10  1  1  0  0  0
  7  2  1  0  0  0  0
  8 19  1  0  0  0  0
  9  6  1  6  0  0  0
  9  5  1  0  0  0  0
 10  2  1  0  0  0  0
 11 14  2  0  0  0  0
 12 17  1  0  0  0  0
 13 18  1  0  0  0  0
 14 12  1  0  0  0  0
 14 16  1  0  0  0  0
 15 11  1  0  0  0  0
 15 19  1  0  0  0  0
 16 13  2  0  0  0  0
 17 18  2  0  0  0  0
 19 12  2  0  0  0  0
 20 15  2  0  0  0  0
 22 21  1  6  0  0  0
 22 23  1  0  0  0  0
 23 26  2  0  0  0  0
 23 25  1  0  0  0  0
 24 28  1  0  0  0  0
 25 24  2  0  0  0  0
 26 27  1  0  0  0  0
 27 28  2  0  0  0  0
 28 29  1  0  0  0  0
 29 31  1  0  0  0  0
 31 30  1  0  0  0  0
 32 22  1  0  0  0  0
 33 32  1  0  0  0  0
M  END
>  <MODEL>
8

>  <REMARK>
 VINA RESULT:      -6.3      2.843      5.027
  Name = 
  6 active torsions:
  status: ('A' for Active; 'I' for Inactive)
    1  A    between atoms: C_1  and  C_32
    2  A    between atoms: C_3  and  C_32
    3  A    between atoms: C_19  and  C_27
    4  A    between atoms: C_19  and  N_31
    5  A    between atoms: N_22  and  C_29
    6  A    between atoms: O_24  and  C_32
                            x       y       z     vdW  Elec       q    Type
                         _______ _______ _______ _____ _____    ______ ____

>  <TORSDO>
F 6

$$$$
=
 OpenBabel10232409373D

 33 38  0  0  1  0  0  0  0  0999 V2000
  180.6670  175.1310  137.4800 C   0  0  1  0  0  3  0  0  0  0  0  0
  181.8650  178.4200  140.0910 C   0  0  1  0  0  3  0  0  0  0  0  0
  180.8440  177.1410  138.5030 C   0  0  1  0  0  3  0  0  0  0  0  0
  180.6000  176.4950  137.1980 C   0  0  1  0  0  3  0  0  0  0  0  0
  180.9270  176.3320  139.4980 C   0  0  1  0  0  3  0  0  0  0  0  0
  179.9820  174.1890  139.5820 O   0  0  0  0  0  1  0  0  0  0  0  0
  181.3210  178.4030  138.7720 O   0  0  0  0  0  0  0  0  0  0  0  0
  181.8350  175.7590  136.7820 N   0  0  0  0  0  0  0  0  0  0  0  0
  180.9840  174.9520  138.9830 C   0  0  1  0  0  3  0  0  0  0  0  0
  181.6790  176.9720  140.6100 C   0  0  0  0  0  2  0  0  0  0  0  0
  185.1650  176.3310  135.2070 N   0  0  0  0  0  0  0  0  0  0  0  0
  184.1270  174.9120  136.6020 C   0  0  0  0  0  0  0  0  0  0  0  0
  186.4470  173.5710  137.0650 C   0  0  0  0  0  3  0  0  0  0  0  0
  185.2890  175.2890  135.9680 C   0  0  0  0  0  0  0  0  0  0  0  0
  183.7750  176.6550  135.3200 C   0  0  0  0  0  0  0  0  0  0  0  0
  186.4500  174.6270  136.1970 N   0  0  0  0  0  0  0  0  0  0  0  0
  184.0940  173.8810  137.4800 N   0  0  0  0  0  0  0  0  0  0  0  0
  185.2510  173.1940  137.7180 C   0  0  0  0  0  3  0  0  0  0  0  0
  183.1550  175.7230  136.2520 C   0  0  0  0  0  0  0  0  0  0  0  0
  183.2940  177.8140  135.0150 N   0  0  0  0  0  2  0  0  0  0  0  0
  184.0870  177.9260  139.0830 C   0  0  0  0  0  1  0  0  0  0  0  0
  183.3450  178.8450  140.0640 C   0  0  2  0  0  0  0  0  0  0  0  0
  183.9100  178.6850  141.4690 C   0  0  0  0  0  0  0  0  0  0  0  0
  183.7240  179.0280  143.8730 C   0  0  0  0  0  3  0  0  0  0  0  0
  183.1790  179.1180  142.5890 C   0  0  0  0  0  3  0  0  0  0  0  0
  185.2140  178.1980  141.6620 C   0  0  0  0  0  3  0  0  0  0  0  0
  185.7590  178.1090  142.9450 C   0  0  0  0  0  3  0  0  0  0  0  0
  185.0150  178.5250  144.0520 C   0  0  0  0  0  0  0  0  0  0  0  0
  185.5870  178.4100  145.4200 C   0  0  0  0  0  2  0  0  0  0  0  0
  187.7740  177.8280  145.9740 C   0  0  0  0  0  1  0  0  0  0  0  0
  186.5210  177.2980  145.4710 N   0  0  0  0  0  2  0  0  0  0  0  0
  183.4220  180.1890  139.6230 O   0  0  0  0  0  0  0  0  0  0  0  0
  184.4850  180.2980  138.8440 O   0  0  0  0  0  1  0  0  0  0  0  0
  1  8  1  6  0  0  0
  1  9  1  0  0  0  0
  2 22  1  6  0  0  0
  2 10  1  0  0  0  0
  3  7  1  6  0  0  0
  3  5  1  0  0  0  0
  4  8  1  6  0  0  0
  4  1  1  0  0  0  0
  4  3  1  0  0  0  0
  5 10  1  6  0  0  0
  7  2  1  0  0  0  0
  9  5  1  0  0  0  0
  9  6  1  1  0  0  0
 11 15  1  0  0  0  0
 11 14  2  0  0  0  0
 12 17  1  0  0  0  0
 13 18  1  0  0  0  0
 14 16  1  0  0  0  0
 14 12  1  0  0  0  0
 15 19  1  0  0  0  0
 16 13  2  0  0  0  0
 17 18  2  0  0  0  0
 19 12  2  0  0  0  0
 19  8  1  0  0  0  0
 20 15  2  0  0  0  0
 22 21  1  6  0  0  0
 22 23  1  0  0  0  0
 23 26  2  0  0  0  0
 23 25  1  0  0  0  0
 24 28  1  0  0  0  0
 25 24  2  0  0  0  0
 26 27  1  0  0  0  0
 27 28  2  0  0  0  0
 28 29  1  0  0  0  0
 29 31  1  0  0  0  0
 31 30  1  0  0  0  0
 32 22  1  0  0  0  0
 33 32  1  0  0  0  0
M  END
>  <MODEL>
9

>  <REMARK>
 VINA RESULT:      -6.1      4.571      6.532
  Name = 
  6 active torsions:
  status: ('A' for Active; 'I' for Inactive)
    1  A    between atoms: C_1  and  C_32
    2  A    between atoms: C_3  and  C_32
    3  A    between atoms: C_19  and  C_27
    4  A    between atoms: C_19  and  N_31
    5  A    between atoms: N_22  and  C_29
    6  A    between atoms: O_24  and  C_32
                            x       y       z     vdW  Elec       q    Type
                         _______ _______ _______ _____ _____    ______ ____

>  <TORSDO>
F 6

$$$$
