=
 OpenBabel10232409473D

 25 26  0  0  1  0  0  0  0  0999 V2000
  188.1270  177.4370  144.7590 C   0  0  0  0  0  3  0  0  0  0  0  0
  187.7480  177.8420  147.5030 C   0  0  0  0  0  3  0  0  0  0  0  0
  189.1760  177.1970  145.6520 C   0  0  0  0  0  0  0  0  0  0  0  0
  185.9920  177.9360  142.8600 C   0  0  0  0  0  1  0  0  0  0  0  0
  184.4220  178.7950  146.2210 C   0  0  0  0  0  3  0  0  0  0  0  0
  184.5820  178.6010  144.8460 C   0  0  0  0  0  0  0  0  0  0  0  0
  186.7000  178.0920  146.6140 C   0  0  0  0  0  0  0  0  0  0  0  0
  185.8160  178.1440  144.3350 C   0  0  0  0  0  0  0  0  0  0  0  0
  185.4740  178.5420  147.1010 C   0  0  0  0  0  3  0  0  0  0  0  0
  186.8810  177.8880  145.2250 C   0  0  0  0  0  0  0  0  0  0  0  0
  188.9810  177.3940  147.0250 C   0  0  0  0  0  3  0  0  0  0  0  0
  182.5650  179.0990  143.2860 N   0  0  0  0  0  0  0  0  0  0  0  0
  183.4640  178.8780  143.9810 C   0  0  0  0  0  0  0  0  0  0  0  0
  190.4900  176.7200  145.1220 C   0  0  2  0  0  3  0  0  0  0  0  0
  191.5510  177.0680  146.0550 N   0  0  0  0  0  2  0  0  0  0  0  0
  192.1680  175.8280  146.4950 C   0  0  0  0  0  2  0  0  0  0  0  0
  192.4310  175.8870  147.9870 C   0  0  0  0  0  1  0  0  0  0  0  0
  190.7630  177.2940  143.8450 O   0  0  0  0  0  0  0  0  0  0  0  0
  190.4430  175.3890  142.6120 O   0  0  0  0  0  0  0  0  0  0  0  0
  190.4730  176.6480  142.6390 C   0  0  0  0  0  0  0  0  0  0  0  0
  188.8660  177.2450  140.9920 O   0  0  0  0  0  1  0  0  0  0  0  0
  190.1930  177.4250  141.3860 C   0  0  2  0  0  3  0  0  0  0  0  0
  192.2970  177.4710  140.2650 O   0  0  0  0  0  0  0  0  0  0  0  0
  191.1210  177.0260  140.2840 C   0  0  0  0  0  0  0  0  0  0  0  0
  190.6850  176.1390  139.2570 N   0  0  0  0  0  1  0  0  0  0  0  0
  1 10  2  0  0  0  0
  1  3  1  0  0  0  0
  3 11  2  0  0  0  0
  4  8  1  0  0  0  0
  5  9  2  0  0  0  0
  6  5  1  0  0  0  0
  7  9  1  0  0  0  0
  7  2  2  0  0  0  0
  8  6  2  0  0  0  0
  8 10  1  0  0  0  0
 10  7  1  0  0  0  0
 11  2  1  0  0  0  0
 12 13  3  0  0  0  0
 13  6  1  0  0  0  0
 14 18  1  6  0  0  0
 14  3  1  0  0  0  0
 14 15  1  0  0  0  0
 15 16  1  0  0  0  0
 16 17  1  0  0  0  0
 19 20  2  0  0  0  0
 20 18  1  0  0  0  0
 22 21  1  6  0  0  0
 22 20  1  0  0  0  0
 23 24  2  0  0  0  0
 24 22  1  0  0  0  0
 25 24  1  0  0  0  0
M  END
>  <MODEL>
1

>  <REMARK>
 VINA RESULT:      -9.0      0.000      0.000
  Name = 
  8 active torsions:
  status: ('A' for Active; 'I' for Inactive)
    1  A    between atoms: C_3  and  C_5
    2  A    between atoms: N_4  and  C_5
    3  A    between atoms: N_4  and  C_15
    4  A    between atoms: C_5  and  O_10
    5  A    between atoms: O_10  and  C_19
    6  A    between atoms: C_11  and  C_12
    7  A    between atoms: C_11  and  C_19
    8  A    between atoms: C_16  and  C_22
                            x       y       z     vdW  Elec       q    Type
                         _______ _______ _______ _____ _____    ______ ____

>  <TORSDO>
F 8

$$$$
=
 OpenBabel10232409473D

 25 26  0  0  1  0  0  0  0  0999 V2000
  188.5460  177.2690  145.4520 C   0  0  0  0  0  3  0  0  0  0  0  0
  187.6320  177.9840  148.0000 C   0  0  0  0  0  3  0  0  0  0  0  0
  189.3870  177.1300  146.5590 C   0  0  0  0  0  0  0  0  0  0  0  0
  186.8500  177.5560  143.1150 C   0  0  0  0  0  1  0  0  0  0  0  0
  184.6570  178.7930  145.9730 C   0  0  0  0  0  3  0  0  0  0  0  0
  185.0860  178.4440  144.6890 C   0  0  0  0  0  0  0  0  0  0  0  0
  186.7910  178.1340  146.8950 C   0  0  0  0  0  0  0  0  0  0  0  0
  186.3850  177.9290  144.4920 C   0  0  0  0  0  0  0  0  0  0  0  0
  185.5040  178.6380  147.0700 C   0  0  0  0  0  3  0  0  0  0  0  0
  187.2440  177.7730  145.6020 C   0  0  0  0  0  0  0  0  0  0  0  0
  188.9250  177.4820  147.8340 C   0  0  0  0  0  3  0  0  0  0  0  0
  183.4370  178.7690  142.7070 N   0  0  0  0  0  0  0  0  0  0  0  0
  184.1720  178.6240  143.5890 C   0  0  0  0  0  0  0  0  0  0  0  0
  190.7690  176.5930  146.3640 C   0  0  2  0  0  3  0  0  0  0  0  0
  191.5760  176.8720  147.5420 N   0  0  0  0  0  2  0  0  0  0  0  0
  192.4280  175.7160  147.7690 C   0  0  0  0  0  2  0  0  0  0  0  0
  193.2640  175.9330  149.0140 C   0  0  0  0  0  1  0  0  0  0  0  0
  191.3810  177.1710  145.2120 O   0  0  0  0  0  0  0  0  0  0  0  0
  192.0680  175.2470  144.1760 O   0  0  0  0  0  0  0  0  0  0  0  0
  191.6830  176.4410  144.0590 C   0  0  0  0  0  0  0  0  0  0  0  0
  191.3510  178.4260  142.7940 O   0  0  0  0  0  1  0  0  0  0  0  0
  191.5540  177.0490  142.6930 C   0  0  2  0  0  3  0  0  0  0  0  0
  189.5280  175.8020  142.5330 O   0  0  0  0  0  0  0  0  0  0  0  0
  190.4410  176.4150  141.9220 C   0  0  0  0  0  0  0  0  0  0  0  0
  190.4010  176.5070  140.5010 N   0  0  0  0  0  1  0  0  0  0  0  0
  1 10  2  0  0  0  0
  1  3  1  0  0  0  0
  3 11  2  0  0  0  0
  4  8  1  0  0  0  0
  5  9  2  0  0  0  0
  6  5  1  0  0  0  0
  7  9  1  0  0  0  0
  7  2  2  0  0  0  0
  8  6  2  0  0  0  0
  8 10  1  0  0  0  0
 10  7  1  0  0  0  0
 11  2  1  0  0  0  0
 12 13  3  0  0  0  0
 13  6  1  0  0  0  0
 14 18  1  6  0  0  0
 14  3  1  0  0  0  0
 14 15  1  0  0  0  0
 15 16  1  0  0  0  0
 16 17  1  0  0  0  0
 20 19  2  0  0  0  0
 20 18  1  0  0  0  0
 22 21  1  1  0  0  0
 22 20  1  0  0  0  0
 24 23  2  0  0  0  0
 24 22  1  0  0  0  0
 25 24  1  0  0  0  0
M  END
>  <MODEL>
2

>  <REMARK>
 VINA RESULT:      -8.9      1.187      1.552
  Name = 
  8 active torsions:
  status: ('A' for Active; 'I' for Inactive)
    1  A    between atoms: C_3  and  C_5
    2  A    between atoms: N_4  and  C_5
    3  A    between atoms: N_4  and  C_15
    4  A    between atoms: C_5  and  O_10
    5  A    between atoms: O_10  and  C_19
    6  A    between atoms: C_11  and  C_12
    7  A    between atoms: C_11  and  C_19
    8  A    between atoms: C_16  and  C_22
                            x       y       z     vdW  Elec       q    Type
                         _______ _______ _______ _____ _____    ______ ____

>  <TORSDO>
F 8

$$$$
=
 OpenBabel10232409473D

 25 26  0  0  1  0  0  0  0  0999 V2000
  187.6100  177.7470  144.1440 C   0  0  0  0  0  3  0  0  0  0  0  0
  187.3760  177.8670  146.9310 C   0  0  0  0  0  3  0  0  0  0  0  0
  188.7260  177.5010  144.9500 C   0  0  0  0  0  0  0  0  0  0  0  0
  185.3330  178.2690  142.4240 C   0  0  0  0  0  1  0  0  0  0  0  0
  183.9210  178.6970  145.9340 C   0  0  0  0  0  3  0  0  0  0  0  0
  184.0090  178.6440  144.5400 C   0  0  0  0  0  0  0  0  0  0  0  0
  186.2610  178.1240  146.1300 C   0  0  0  0  0  0  0  0  0  0  0  0
  185.2360  178.3250  143.9190 C   0  0  0  0  0  0  0  0  0  0  0  0
  185.0400  178.4380  146.7260 C   0  0  0  0  0  3  0  0  0  0  0  0
  186.3690  178.0640  144.7200 C   0  0  0  0  0  0  0  0  0  0  0  0
  188.6040  177.5550  146.3440 C   0  0  0  0  0  3  0  0  0  0  0  0
  181.8720  179.1440  143.1490 N   0  0  0  0  0  0  0  0  0  0  0  0
  182.8230  178.9210  143.7690 C   0  0  0  0  0  0  0  0  0  0  0  0
  190.0330  177.1690  144.3050 C   0  0  2  0  0  3  0  0  0  0  0  0
  191.1210  177.4360  145.2330 N   0  0  0  0  0  2  0  0  0  0  0  0
  191.8140  176.1790  145.4640 C   0  0  0  0  0  2  0  0  0  0  0  0
  191.9790  175.9500  146.9530 C   0  0  0  0  0  1  0  0  0  0  0  0
  190.2190  177.9300  143.1130 O   0  0  0  0  0  0  0  0  0  0  0  0
  191.9840  177.3120  141.7880 O   0  0  0  0  0  0  0  0  0  0  0  0
  190.7350  177.3870  141.9320 C   0  0  0  0  0  0  0  0  0  0  0  0
  190.5580  176.1460  139.9120 O   0  0  0  0  0  1  0  0  0  0  0  0
  189.8310  176.8900  140.8410 C   0  0  2  0  0  3  0  0  0  0  0  0
  188.2600  178.6840  140.7900 O   0  0  0  0  0  0  0  0  0  0  0  0
  189.1270  178.0220  140.1640 C   0  0  0  0  0  0  0  0  0  0  0  0
  189.4370  178.3630  138.8150 N   0  0  0  0  0  1  0  0  0  0  0  0
  1 10  2  0  0  0  0
  1  3  1  0  0  0  0
  3 11  2  0  0  0  0
  4  8  1  0  0  0  0
  5  9  2  0  0  0  0
  6  5  1  0  0  0  0
  7  9  1  0  0  0  0
  7  2  2  0  0  0  0
  8  6  2  0  0  0  0
  8 10  1  0  0  0  0
 10  7  1  0  0  0  0
 11  2  1  0  0  0  0
 12 13  3  0  0  0  0
 13  6  1  0  0  0  0
 14 18  1  6  0  0  0
 14  3  1  0  0  0  0
 14 15  1  0  0  0  0
 15 16  1  0  0  0  0
 16 17  1  0  0  0  0
 19 20  2  0  0  0  0
 20 18  1  0  0  0  0
 22 21  1  6  0  0  0
 22 20  1  0  0  0  0
 24 23  2  0  0  0  0
 24 22  1  0  0  0  0
 25 24  1  0  0  0  0
M  END
>  <MODEL>
3

>  <REMARK>
 VINA RESULT:      -8.8      1.157      1.502
  Name = 
  8 active torsions:
  status: ('A' for Active; 'I' for Inactive)
    1  A    between atoms: C_3  and  C_5
    2  A    between atoms: N_4  and  C_5
    3  A    between atoms: N_4  and  C_15
    4  A    between atoms: C_5  and  O_10
    5  A    between atoms: O_10  and  C_19
    6  A    between atoms: C_11  and  C_12
    7  A    between atoms: C_11  and  C_19
    8  A    between atoms: C_16  and  C_22
                            x       y       z     vdW  Elec       q    Type
                         _______ _______ _______ _____ _____    ______ ____

>  <TORSDO>
F 8

$$$$
=
 OpenBabel10232409473D

 25 26  0  0  1  0  0  0  0  0999 V2000
  186.3120  178.2290  144.7190 C   0  0  0  0  0  3  0  0  0  0  0  0
  185.5530  178.5250  147.3970 C   0  0  0  0  0  3  0  0  0  0  0  0
  185.0060  178.6130  145.0360 C   0  0  0  0  0  0  0  0  0  0  0  0
  189.0030  177.4140  144.0040 C   0  0  0  0  0  1  0  0  0  0  0  0
  189.0710  177.4940  147.8110 C   0  0  0  0  0  3  0  0  0  0  0  0
  189.4780  177.3380  146.4820 C   0  0  0  0  0  0  0  0  0  0  0  0
  186.8560  178.1320  147.0860 C   0  0  0  0  0  0  0  0  0  0  0  0
  188.5700  177.5820  145.4300 C   0  0  0  0  0  0  0  0  0  0  0  0
  187.7680  177.8890  148.1120 C   0  0  0  0  0  3  0  0  0  0  0  0
  187.2500  177.9810  145.7340 C   0  0  0  0  0  0  0  0  0  0  0  0
  184.6310  178.7680  146.3770 C   0  0  0  0  0  3  0  0  0  0  0  0
  191.9260  176.5980  146.0210 N   0  0  0  0  0  0  0  0  0  0  0  0
  190.8360  176.9280  146.2260 C   0  0  0  0  0  0  0  0  0  0  0  0
  184.0310  178.8670  143.9310 C   0  0  2  0  0  3  0  0  0  0  0  0
  182.7020  178.4400  144.3410 N   0  0  0  0  0  2  0  0  0  0  0  0
  181.7420  179.1460  143.5090 C   0  0  0  0  0  2  0  0  0  0  0  0
  180.3540  178.5800  143.7320 C   0  0  0  0  0  1  0  0  0  0  0  0
  184.4150  178.1750  142.7450 O   0  0  0  0  0  0  0  0  0  0  0  0
  185.7950  179.4820  141.4660 O   0  0  0  0  0  0  0  0  0  0  0  0
  184.7240  178.8250  141.5460 C   0  0  0  0  0  0  0  0  0  0  0  0
  183.4830  177.4210  140.0830 O   0  0  0  0  0  1  0  0  0  0  0  0
  183.8080  178.7490  140.3590 C   0  0  2  0  0  3  0  0  0  0  0  0
  184.1410  180.5870  138.8760 O   0  0  0  0  0  0  0  0  0  0  0  0
  184.4240  179.3940  139.1590 C   0  0  0  0  0  0  0  0  0  0  0  0
  185.3350  178.6700  138.3360 N   0  0  0  0  0  1  0  0  0  0  0  0
  1  3  2  0  0  0  0
  1 10  1  0  0  0  0
  3 11  1  0  0  0  0
  4  8  1  0  0  0  0
  5  9  1  0  0  0  0
  6  5  2  0  0  0  0
  7  2  1  0  0  0  0
  7  9  2  0  0  0  0
  8 10  2  0  0  0  0
  8  6  1  0  0  0  0
 10  7  1  0  0  0  0
 11  2  2  0  0  0  0
 12 13  3  0  0  0  0
 13  6  1  0  0  0  0
 14 18  1  6  0  0  0
 14 15  1  0  0  0  0
 14  3  1  0  0  0  0
 16 17  1  0  0  0  0
 16 15  1  0  0  0  0
 19 20  2  0  0  0  0
 20 18  1  0  0  0  0
 22 21  1  6  0  0  0
 22 20  1  0  0  0  0
 23 24  2  0  0  0  0
 24 22  1  0  0  0  0
 25 24  1  0  0  0  0
M  END
>  <MODEL>
4

>  <REMARK>
 VINA RESULT:      -8.6      3.001      6.593
  Name = 
  8 active torsions:
  status: ('A' for Active; 'I' for Inactive)
    1  A    between atoms: C_3  and  C_5
    2  A    between atoms: N_4  and  C_5
    3  A    between atoms: N_4  and  C_15
    4  A    between atoms: C_5  and  O_10
    5  A    between atoms: O_10  and  C_19
    6  A    between atoms: C_11  and  C_12
    7  A    between atoms: C_11  and  C_19
    8  A    between atoms: C_16  and  C_22
                            x       y       z     vdW  Elec       q    Type
                         _______ _______ _______ _____ _____    ______ ____

>  <TORSDO>
F 8

$$$$
=
 OpenBabel10232409473D

 25 26  0  0  1  0  0  0  0  0999 V2000
  188.2850  177.7660  143.6460 C   0  0  0  0  0  3  0  0  0  0  0  0
  186.1520  177.9740  145.4480 C   0  0  0  0  0  3  0  0  0  0  0  0
  187.0070  178.0900  143.1810 C   0  0  0  0  0  0  0  0  0  0  0  0
  190.9530  177.0780  144.5520 C   0  0  0  0  0  1  0  0  0  0  0  0
  188.8910  177.0800  147.7540 C   0  0  0  0  0  3  0  0  0  0  0  0
  189.9740  176.9690  146.8770 C   0  0  0  0  0  0  0  0  0  0  0  0
  187.4250  177.6410  145.9160 C   0  0  0  0  0  0  0  0  0  0  0  0
  189.7940  177.1970  145.4960 C   0  0  0  0  0  0  0  0  0  0  0  0
  187.6240  177.4140  147.2770 C   0  0  0  0  0  3  0  0  0  0  0  0
  188.5110  177.5350  145.0120 C   0  0  0  0  0  0  0  0  0  0  0  0
  185.9430  178.2000  144.0860 C   0  0  0  0  0  3  0  0  0  0  0  0
  192.2970  176.3410  147.8580 N   0  0  0  0  0  0  0  0  0  0  0  0
  191.2620  176.6200  147.4210 C   0  0  0  0  0  0  0  0  0  0  0  0
  186.8000  178.3270  141.7190 C   0  0  2  0  0  3  0  0  0  0  0  0
  188.0410  178.7890  141.1160 N   0  0  0  0  0  2  0  0  0  0  0  0
  188.2660  177.9950  139.9200 C   0  0  0  0  0  2  0  0  0  0  0  0
  189.7250  177.5930  139.8380 C   0  0  0  0  0  1  0  0  0  0  0  0
  185.7700  179.2880  141.5000 O   0  0  0  0  0  0  0  0  0  0  0  0
  184.6930  179.7910  139.5410 O   0  0  0  0  0  0  0  0  0  0  0  0
  184.7250  179.0960  140.5910 C   0  0  0  0  0  0  0  0  0  0  0  0
  183.1770  177.5680  139.6320 O   0  0  0  0  0  1  0  0  0  0  0  0
  183.6500  178.0780  140.8410 C   0  0  2  0  0  3  0  0  0  0  0  0
  182.6770  178.8870  142.8620 O   0  0  0  0  0  0  0  0  0  0  0  0
  182.5250  178.6630  141.6340 C   0  0  0  0  0  0  0  0  0  0  0  0
  181.2840  178.9760  141.0070 N   0  0  0  0  0  1  0  0  0  0  0  0
  1 10  1  0  0  0  0
  2  7  1  0  0  0  0
  3  1  2  0  0  0  0
  3 11  1  0  0  0  0
  4  8  1  0  0  0  0
  6 13  1  0  0  0  0
  6  5  2  0  0  0  0
  7  9  2  0  0  0  0
  8  6  1  0  0  0  0
  9  5  1  0  0  0  0
 10  8  2  0  0  0  0
 10  7  1  0  0  0  0
 11  2  2  0  0  0  0
 13 12  3  0  0  0  0
 14 15  1  1  0  0  0
 14  3  1  0  0  0  0
 16 15  1  0  0  0  0
 17 16  1  0  0  0  0
 18 14  1  0  0  0  0
 19 20  2  0  0  0  0
 20 22  1  0  0  0  0
 20 18  1  0  0  0  0
 22 21  1  6  0  0  0
 22 24  1  0  0  0  0
 24 23  2  0  0  0  0
 25 24  1  0  0  0  0
M  END
>  <MODEL>
5

>  <REMARK>
 VINA RESULT:      -8.5      2.818      6.513
  Name = 
  8 active torsions:
  status: ('A' for Active; 'I' for Inactive)
    1  A    between atoms: C_3  and  C_5
    2  A    between atoms: N_4  and  C_5
    3  A    between atoms: N_4  and  C_15
    4  A    between atoms: C_5  and  O_10
    5  A    between atoms: O_10  and  C_19
    6  A    between atoms: C_11  and  C_12
    7  A    between atoms: C_11  and  C_19
    8  A    between atoms: C_16  and  C_22
                            x       y       z     vdW  Elec       q    Type
                         _______ _______ _______ _____ _____    ______ ____

>  <TORSDO>
F 8

$$$$
=
 OpenBabel10232409473D

 25 26  0  0  1  0  0  0  0  0999 V2000
  186.8670  178.0990  144.5130 C   0  0  0  0  0  3  0  0  0  0  0  0
  185.6190  178.6490  146.9580 C   0  0  0  0  0  3  0  0  0  0  0  0
  185.5490  178.5650  144.5350 C   0  0  0  0  0  0  0  0  0  0  0  0
  189.5930  177.1110  144.4090 C   0  0  0  0  0  1  0  0  0  0  0  0
  188.9230  177.5040  148.1370 C   0  0  0  0  0  3  0  0  0  0  0  0
  189.5710  177.2210  146.9310 C   0  0  0  0  0  0  0  0  0  0  0  0
  186.9330  178.1750  146.9420 C   0  0  0  0  0  0  0  0  0  0  0  0
  188.9010  177.4150  145.7050 C   0  0  0  0  0  0  0  0  0  0  0  0
  187.6110  177.9780  148.1430 C   0  0  0  0  0  3  0  0  0  0  0  0
  187.5730  177.8950  145.7100 C   0  0  0  0  0  0  0  0  0  0  0  0
  184.9300  178.8460  145.7600 C   0  0  0  0  0  3  0  0  0  0  0  0
  192.0140  176.3400  147.0200 N   0  0  0  0  0  0  0  0  0  0  0  0
  190.9260  176.7320  146.9810 C   0  0  0  0  0  0  0  0  0  0  0  0
  184.8260  178.7680  143.2430 C   0  0  2  0  0  3  0  0  0  0  0  0
  183.4390  178.3500  143.3850 N   0  0  0  0  0  2  0  0  0  0  0  0
  182.7160  178.8390  142.2230 C   0  0  0  0  0  2  0  0  0  0  0  0
  181.2340  178.9100  142.5330 C   0  0  0  0  0  1  0  0  0  0  0  0
  185.4460  178.0310  142.1910 O   0  0  0  0  0  0  0  0  0  0  0  0
  185.6650  179.5820  140.5200 O   0  0  0  0  0  0  0  0  0  0  0  0
  186.1820  178.6330  141.1660 C   0  0  0  0  0  0  0  0  0  0  0  0
  188.5120  178.9180  141.5410 O   0  0  0  0  0  1  0  0  0  0  0  0
  187.5710  178.1730  140.8290 C   0  0  2  0  0  3  0  0  0  0  0  0
  188.7050  179.0730  138.9340 O   0  0  0  0  0  0  0  0  0  0  0  0
  187.8320  178.2740  139.3610 C   0  0  0  0  0  0  0  0  0  0  0  0
  187.1050  177.4660  138.4390 N   0  0  0  0  0  1  0  0  0  0  0  0
  1  3  2  0  0  0  0
  1 10  1  0  0  0  0
  3 11  1  0  0  0  0
  4  8  1  0  0  0  0
  5  9  1  0  0  0  0
  6 13  1  0  0  0  0
  6  5  2  0  0  0  0
  7  2  1  0  0  0  0
  7  9  2  0  0  0  0
  8 10  2  0  0  0  0
  8  6  1  0  0  0  0
 10  7  1  0  0  0  0
 11  2  2  0  0  0  0
 13 12  3  0  0  0  0
 14 18  1  6  0  0  0
 14 15  1  0  0  0  0
 14  3  1  0  0  0  0
 16 17  1  0  0  0  0
 16 15  1  0  0  0  0
 19 20  2  0  0  0  0
 20 18  1  0  0  0  0
 22 20  1  0  0  0  0
 22 21  1  1  0  0  0
 23 24  2  0  0  0  0
 24 22  1  0  0  0  0
 25 24  1  0  0  0  0
M  END
>  <MODEL>
6

>  <REMARK>
 VINA RESULT:      -8.5      2.114      5.894
  Name = 
  8 active torsions:
  status: ('A' for Active; 'I' for Inactive)
    1  A    between atoms: C_3  and  C_5
    2  A    between atoms: N_4  and  C_5
    3  A    between atoms: N_4  and  C_15
    4  A    between atoms: C_5  and  O_10
    5  A    between atoms: O_10  and  C_19
    6  A    between atoms: C_11  and  C_12
    7  A    between atoms: C_11  and  C_19
    8  A    between atoms: C_16  and  C_22
                            x       y       z     vdW  Elec       q    Type
                         _______ _______ _______ _____ _____    ______ ____

>  <TORSDO>
F 8

$$$$
=
 OpenBabel10232409473D

 25 26  0  0  1  0  0  0  0  0999 V2000
  187.1130  177.6010  143.0500 C   0  0  0  0  0  3  0  0  0  0  0  0
  187.4870  177.6630  145.8240 C   0  0  0  0  0  3  0  0  0  0  0  0
  188.3500  177.2450  143.5960 C   0  0  0  0  0  0  0  0  0  0  0  0
  184.5750  178.3480  141.8610 C   0  0  0  0  0  1  0  0  0  0  0  0
  183.9810  178.7920  145.5960 C   0  0  0  0  0  3  0  0  0  0  0  0
  183.7660  178.7690  144.2150 C   0  0  0  0  0  0  0  0  0  0  0  0
  186.2530  178.0290  145.2820 C   0  0  0  0  0  0  0  0  0  0  0  0
  184.8020  178.3710  143.3430 C   0  0  0  0  0  0  0  0  0  0  0  0
  185.2170  178.4230  146.1280 C   0  0  0  0  0  3  0  0  0  0  0  0
  186.0540  177.9990  143.8800 C   0  0  0  0  0  0  0  0  0  0  0  0
  188.5320  177.2710  144.9850 C   0  0  0  0  0  3  0  0  0  0  0  0
  181.4310  179.4730  143.3170 N   0  0  0  0  0  0  0  0  0  0  0  0
  182.4710  179.1600  143.7180 C   0  0  0  0  0  0  0  0  0  0  0  0
  189.4590  176.8290  142.6830 C   0  0  2  0  0  3  0  0  0  0  0  0
  190.7130  176.7860  143.4200 N   0  0  0  0  0  2  0  0  0  0  0  0
  191.5160  177.9140  142.9780 C   0  0  0  0  0  2  0  0  0  0  0  0
  191.6240  178.9350  144.0930 C   0  0  0  0  0  1  0  0  0  0  0  0
  189.5760  177.7280  141.5820 O   0  0  0  0  0  0  0  0  0  0  0  0
  190.3220  176.2750  139.9760 O   0  0  0  0  0  0  0  0  0  0  0  0
  189.6500  177.3030  140.2520 C   0  0  0  0  0  0  0  0  0  0  0  0
  187.6550  178.3990  139.5640 O   0  0  0  0  0  1  0  0  0  0  0  0
  188.9420  178.0450  139.1560 C   0  0  2  0  0  3  0  0  0  0  0  0
  189.7520  177.3980  137.0080 O   0  0  0  0  0  0  0  0  0  0  0  0
  188.8830  177.2310  137.9030 C   0  0  0  0  0  0  0  0  0  0  0  0
  187.8560  176.2610  137.7170 N   0  0  0  0  0  1  0  0  0  0  0  0
  1  3  2  0  0  0  0
  1 10  1  0  0  0  0
  3 11  1  0  0  0  0
  4  8  1  0  0  0  0
  5  9  1  0  0  0  0
  6  5  2  0  0  0  0
  7  2  1  0  0  0  0
  7  9  2  0  0  0  0
  8 10  2  0  0  0  0
  8  6  1  0  0  0  0
 10  7  1  0  0  0  0
 11  2  2  0  0  0  0
 12 13  3  0  0  0  0
 13  6  1  0  0  0  0
 14 18  1  6  0  0  0
 14 15  1  0  0  0  0
 14  3  1  0  0  0  0
 16 15  1  0  0  0  0
 16 17  1  0  0  0  0
 19 20  2  0  0  0  0
 20 18  1  0  0  0  0
 22 21  1  1  0  0  0
 22 20  1  0  0  0  0
 23 24  2  0  0  0  0
 24 22  1  0  0  0  0
 25 24  1  0  0  0  0
M  END
>  <MODEL>
7

>  <REMARK>
 VINA RESULT:      -8.3      2.036      2.525
  Name = 
  8 active torsions:
  status: ('A' for Active; 'I' for Inactive)
    1  A    between atoms: C_3  and  C_5
    2  A    between atoms: N_4  and  C_5
    3  A    between atoms: N_4  and  C_15
    4  A    between atoms: C_5  and  O_10
    5  A    between atoms: O_10  and  C_19
    6  A    between atoms: C_11  and  C_12
    7  A    between atoms: C_11  and  C_19
    8  A    between atoms: C_16  and  C_22
                            x       y       z     vdW  Elec       q    Type
                         _______ _______ _______ _____ _____    ______ ____

>  <TORSDO>
F 8

$$$$
=
 OpenBabel10232409473D

 25 26  0  0  1  0  0  0  0  0999 V2000
  186.5760  177.9540  143.6860 C   0  0  0  0  0  3  0  0  0  0  0  0
  185.4650  178.3780  146.2200 C   0  0  0  0  0  3  0  0  0  0  0  0
  187.3740  177.8310  144.8270 C   0  0  0  0  0  0  0  0  0  0  0  0
  184.9720  178.2130  141.2820 C   0  0  0  0  0  1  0  0  0  0  0  0
  182.5170  178.9910  144.0870 C   0  0  0  0  0  3  0  0  0  0  0  0
  183.0440  178.7840  142.8090 C   0  0  0  0  0  0  0  0  0  0  0  0
  184.6660  178.5110  145.0820 C   0  0  0  0  0  0  0  0  0  0  0  0
  184.4020  178.4340  142.6520 C   0  0  0  0  0  0  0  0  0  0  0  0
  183.3220  178.8550  145.2180 C   0  0  0  0  0  3  0  0  0  0  0  0
  185.2180  178.2970  143.7960 C   0  0  0  0  0  0  0  0  0  0  0  0
  186.8130  178.0380  146.0950 C   0  0  0  0  0  3  0  0  0  0  0  0
  181.4670  179.0620  140.7630 N   0  0  0  0  0  0  0  0  0  0  0  0
  182.1690  178.9380  141.6750 C   0  0  0  0  0  0  0  0  0  0  0  0
  188.8160  177.4680  144.6740 C   0  0  2  0  0  3  0  0  0  0  0  0
  189.5810  178.0150  145.7840 N   0  0  0  0  0  2  0  0  0  0  0  0
  190.2100  176.9000  146.4710 C   0  0  0  0  0  2  0  0  0  0  0  0
  191.6060  176.6810  145.9230 C   0  0  0  0  0  1  0  0  0  0  0  0
  189.3360  177.9600  143.4410 O   0  0  0  0  0  0  0  0  0  0  0  0
  190.1590  175.9610  142.6820 O   0  0  0  0  0  0  0  0  0  0  0  0
  189.7660  177.1250  142.4050 C   0  0  0  0  0  0  0  0  0  0  0  0
  188.5280  177.3170  140.3840 O   0  0  0  0  0  1  0  0  0  0  0  0
  189.7620  177.5870  140.9770 C   0  0  2  0  0  3  0  0  0  0  0  0
  190.6030  176.0060  139.4020 O   0  0  0  0  0  0  0  0  0  0  0  0
  190.8650  176.9450  140.1980 C   0  0  0  0  0  0  0  0  0  0  0  0
  192.2100  177.3920  140.3430 N   0  0  0  0  0  1  0  0  0  0  0  0
  1 10  2  0  0  0  0
  1  3  1  0  0  0  0
  3 11  2  0  0  0  0
  4  8  1  0  0  0  0
  5  9  2  0  0  0  0
  6  5  1  0  0  0  0
  7  9  1  0  0  0  0
  7  2  2  0  0  0  0
  8  6  2  0  0  0  0
  8 10  1  0  0  0  0
 10  7  1  0  0  0  0
 11  2  1  0  0  0  0
 12 13  3  0  0  0  0
 13  6  1  0  0  0  0
 14 18  1  6  0  0  0
 14  3  1  0  0  0  0
 14 15  1  0  0  0  0
 15 16  1  0  0  0  0
 17 16  1  0  0  0  0
 20 19  2  0  0  0  0
 20 18  1  0  0  0  0
 22 21  1  6  0  0  0
 22 20  1  0  0  0  0
 23 24  2  0  0  0  0
 24 25  1  0  0  0  0
 24 22  1  0  0  0  0
M  END
>  <MODEL>
8

>  <REMARK>
 VINA RESULT:      -8.1      1.448      2.132
  Name = 
  8 active torsions:
  status: ('A' for Active; 'I' for Inactive)
    1  A    between atoms: C_3  and  C_5
    2  A    between atoms: N_4  and  C_5
    3  A    between atoms: N_4  and  C_15
    4  A    between atoms: C_5  and  O_10
    5  A    between atoms: O_10  and  C_19
    6  A    between atoms: C_11  and  C_12
    7  A    between atoms: C_11  and  C_19
    8  A    between atoms: C_16  and  C_22
                            x       y       z     vdW  Elec       q    Type
                         _______ _______ _______ _____ _____    ______ ____

>  <TORSDO>
F 8

$$$$
=
 OpenBabel10232409473D

 25 26  0  0  1  0  0  0  0  0999 V2000
  186.7070  177.9580  144.1640 C   0  0  0  0  0  3  0  0  0  0  0  0
  185.2170  178.6880  146.4190 C   0  0  0  0  0  3  0  0  0  0  0  0
  185.3930  178.4130  144.0160 C   0  0  0  0  0  0  0  0  0  0  0  0
  189.4290  176.9880  144.4130 C   0  0  0  0  0  1  0  0  0  0  0  0
  188.3850  177.6670  148.0120 C   0  0  0  0  0  3  0  0  0  0  0  0
  189.1520  177.2950  146.9040 C   0  0  0  0  0  0  0  0  0  0  0  0
  186.5260  178.2250  146.5730 C   0  0  0  0  0  0  0  0  0  0  0  0
  188.6100  177.3870  145.6040 C   0  0  0  0  0  0  0  0  0  0  0  0
  187.0800  178.1290  147.8490 C   0  0  0  0  0  3  0  0  0  0  0  0
  187.2880  177.8550  145.4380 C   0  0  0  0  0  0  0  0  0  0  0  0
  184.6520  178.7840  145.1460 C   0  0  0  0  0  3  0  0  0  0  0  0
  191.5740  176.4440  147.3090 N   0  0  0  0  0  0  0  0  0  0  0  0
  190.4960  176.8240  147.1280 C   0  0  0  0  0  0  0  0  0  0  0  0
  184.8030  178.5080  142.6450 C   0  0  2  0  0  3  0  0  0  0  0  0
  185.5330  179.4940  141.8640 N   0  0  0  0  0  2  0  0  0  0  0  0
  186.1950  178.7880  140.7800 C   0  0  0  0  0  2  0  0  0  0  0  0
  187.6820  178.6950  141.0610 C   0  0  0  0  0  1  0  0  0  0  0  0
  183.4240  178.8660  142.7080 O   0  0  0  0  0  0  0  0  0  0  0  0
  182.9890  178.8280  140.4590 O   0  0  0  0  0  0  0  0  0  0  0  0
  182.5450  178.7140  141.6320 C   0  0  0  0  0  0  0  0  0  0  0  0
  180.3580  178.7130  140.7000 O   0  0  0  0  0  1  0  0  0  0  0  0
  181.0900  178.4130  141.8490 C   0  0  2  0  0  3  0  0  0  0  0  0
  180.3610  180.4100  142.9300 O   0  0  0  0  0  0  0  0  0  0  0  0
  180.5510  179.1700  143.0200 C   0  0  0  0  0  0  0  0  0  0  0  0
  180.2420  178.4960  144.2370 N   0  0  0  0  0  1  0  0  0  0  0  0
  1 10  1  0  0  0  0
  2  7  1  0  0  0  0
  3  1  2  0  0  0  0
  3 11  1  0  0  0  0
  4  8  1  0  0  0  0
  6 13  1  0  0  0  0
  6  5  2  0  0  0  0
  7  9  2  0  0  0  0
  8  6  1  0  0  0  0
  9  5  1  0  0  0  0
 10  8  2  0  0  0  0
 10  7  1  0  0  0  0
 11  2  2  0  0  0  0
 13 12  3  0  0  0  0
 14 15  1  6  0  0  0
 14 18  1  0  0  0  0
 14  3  1  0  0  0  0
 16 17  1  0  0  0  0
 16 15  1  0  0  0  0
 19 20  2  0  0  0  0
 20 22  1  0  0  0  0
 20 18  1  0  0  0  0
 22 21  1  6  0  0  0
 22 24  1  0  0  0  0
 23 24  2  0  0  0  0
 24 25  1  0  0  0  0
M  END
>  <MODEL>
9

>  <REMARK>
 VINA RESULT:      -8.1      3.696      7.299
  Name = 
  8 active torsions:
  status: ('A' for Active; 'I' for Inactive)
    1  A    between atoms: C_3  and  C_5
    2  A    between atoms: N_4  and  C_5
    3  A    between atoms: N_4  and  C_15
    4  A    between atoms: C_5  and  O_10
    5  A    between atoms: O_10  and  C_19
    6  A    between atoms: C_11  and  C_12
    7  A    between atoms: C_11  and  C_19
    8  A    between atoms: C_16  and  C_22
                            x       y       z     vdW  Elec       q    Type
                         _______ _______ _______ _____ _____    ______ ____

>  <TORSDO>
F 8

$$$$
