=
 OpenBabel10232411243D

 36 39  0  0  1  0  0  0  0  0999 V2000
  185.6260  178.4000  141.5790 C   0  0  0  0  0  0  0  0  0  0  0  0
  186.9860  178.2210  141.3180 C   0  0  0  0  0  3  0  0  0  0  0  0
  189.3120  177.7370  142.1110 C   0  0  0  0  0  0  0  0  0  0  0  0
  189.7810  177.3270  144.4370 C   0  0  0  0  0  0  0  0  0  0  0  0
  189.3780  176.9660  147.3360 O   0  0  0  0  0  0  0  0  0  0  0  0
  183.5000  179.7870  143.9470 C   0  0  0  0  0  1  0  0  0  0  0  0
  182.7860  178.4020  141.9950 C   0  0  0  0  0  2  0  0  0  0  0  0
  187.3940  177.7620  143.6650 C   0  0  0  0  0  0  0  0  0  0  0  0
  186.0310  177.9240  143.9260 C   0  0  0  0  0  3  0  0  0  0  0  0
  183.3700  179.2540  140.8680 C   0  0  1  0  0  3  0  0  0  0  0  0
  190.7670  177.0630  145.4450 N   0  0  0  0  0  2  0  0  0  0  0  0
  189.8010  177.8580  140.9200 N   0  0  0  0  0  2  0  0  0  0  0  0
  184.6990  178.6410  140.4230 C   0  0  0  0  0  2  0  0  0  0  0  0
  183.6850  178.4590  143.2310 C   0  0  1  0  0  3  0  0  0  0  0  0
  185.1380  178.2400  142.8950 C   0  0  0  0  0  0  0  0  0  0  0  0
  190.1860  177.4690  143.2080 N   0  0  0  0  0  0  0  0  0  0  0  0
  187.8740  177.9120  142.3560 C   0  0  0  0  0  0  0  0  0  0  0  0
  190.5360  176.8840  146.8480 C   0  0  0  0  0  0  0  0  0  0  0  0
  188.3130  177.4090  144.8010 C   0  0  0  0  0  2  0  0  0  0  0  0
  192.4020  175.3580  147.3290 C   0  0  0  0  0  1  0  0  0  0  0  0
  191.6920  176.6300  147.7480 C   0  0  0  0  0  2  0  0  0  0  0  0
  182.3940  179.3440  139.6910 C   0  0  2  0  0  3  0  0  0  0  0  0
  181.0660  176.8910  139.3100 S   0  0  0  0  0  0  0  0  0  0  0  0
  183.0810  177.5550  137.9720 C   0  0  0  0  0  3  0  0  0  0  0  0
  182.7300  176.3270  137.5050 N   0  0  0  0  0  0  0  0  0  0  0  0
  182.2600  178.0290  138.9910 C   0  0  0  0  0  0  0  0  0  0  0  0
  181.6450  175.8350  138.1400 C   0  0  0  0  0  0  0  0  0  0  0  0
  180.6000  173.5250  137.5970 N   0  0  0  0  0  0  0  0  0  0  0  0
  181.0670  174.5560  137.8400 C   0  0  0  0  0  0  0  0  0  0  0  0
  182.8190  180.3130  138.7770 O   0  0  0  0  0  0  0  0  0  0  0  0
  181.6790  180.7580  138.1930 N   0  0  0  0  0  2  0  0  0  0  0  0
  181.6500  182.2010  138.3590 C   0  0  0  0  0  2  0  0  0  0  0  0
  180.6900  182.8170  137.3580 C   0  0  0  0  0  2  0  0  0  0  0  0
  181.0750  184.3140  135.5480 O   0  0  0  0  0  0  0  0  0  0  0  0
  181.3010  184.0290  136.7520 C   0  0  0  0  0  0  0  0  0  0  0  0
  182.1480  184.8310  137.5060 O   0  0  0  0  0  1  0  0  0  0  0  0
  1 15  1  0  0  0  0
  2  1  2  0  0  0  0
  2 17  1  0  0  0  0
  3 17  1  0  0  0  0
  3 16  1  0  0  0  0
  4 19  1  0  0  0  0
  4 11  1  0  0  0  0
  7 14  1  0  0  0  0
  8  9  1  0  0  0  0
  8 19  1  0  0  0  0
 10 22  1  6  0  0  0
 10  7  1  0  0  0  0
 11 18  1  0  0  0  0
 12  3  2  0  0  0  0
 13 10  1  0  0  0  0
 13  1  1  0  0  0  0
 14  6  1  6  0  0  0
 15 14  1  0  0  0  0
 15  9  2  0  0  0  0
 16  4  2  0  0  0  0
 17  8  2  0  0  0  0
 18  5  2  0  0  0  0
 18 21  1  0  0  0  0
 20 21  1  0  0  0  0
 22 30  1  6  0  0  0
 24 26  2  0  0  0  0
 25 24  1  0  0  0  0
 25 27  2  0  0  0  0
 26 23  1  0  0  0  0
 26 22  1  0  0  0  0
 27 23  1  0  0  0  0
 28 29  3  0  0  0  0
 29 27  1  0  0  0  0
 31 32  1  0  0  0  0
 31 30  1  0  0  0  0
 33 32  1  0  0  0  0
 34 35  2  0  0  0  0
 35 33  1  0  0  0  0
 35 36  1  0  0  0  0
M  END
>  <MODEL>
1

>  <REMARK>
 VINA RESULT:      -8.0      0.000      0.000
  Name = 
  9 active torsions:
  status: ('A' for Active; 'I' for Inactive)
    1  A    between atoms: C_3  and  C_35
    2  A    between atoms: C_4  and  C_11
    3  A    between atoms: C_4  and  C_16
    4  A    between atoms: C_13  and  C_21
    5  A    between atoms: C_13  and  C_25
    6  A    between atoms: C_13  and  O_34
    7  A    between atoms: C_16  and  N_26
    8  A    between atoms: N_26  and  O_34
    9  A    between atoms: C_28  and  C_30
                            x       y       z     vdW  Elec       q    Type
                         _______ _______ _______ _____ _____    ______ ____

>  <TORSDO>
F 9

$$$$
=
 OpenBabel10232411243D

 36 39  0  0  1  0  0  0  0  0999 V2000
  187.0160  178.1300  141.8630 C   0  0  0  0  0  0  0  0  0  0  0  0
  188.3820  177.9270  141.6560 C   0  0  0  0  0  3  0  0  0  0  0  0
  190.6580  177.3620  142.5350 C   0  0  0  0  0  0  0  0  0  0  0  0
  191.0130  176.8680  144.8660 C   0  0  0  0  0  0  0  0  0  0  0  0
  190.4720  176.4260  147.7310 O   0  0  0  0  0  0  0  0  0  0  0  0
  184.8180  179.4930  144.1790 C   0  0  0  0  0  1  0  0  0  0  0  0
  184.1610  178.1880  142.1530 C   0  0  0  0  0  2  0  0  0  0  0  0
  188.6730  177.3840  144.0030 C   0  0  0  0  0  0  0  0  0  0  0  0
  187.3040  177.5710  144.2090 C   0  0  0  0  0  3  0  0  0  0  0  0
  184.8140  179.0610  141.0810 C   0  0  1  0  0  3  0  0  0  0  0  0
  191.9460  176.5490  145.9070 N   0  0  0  0  0  2  0  0  0  0  0  0
  191.2020  177.5080  141.3720 N   0  0  0  0  0  2  0  0  0  0  0  0
  186.1470  178.4300  140.6750 C   0  0  0  0  0  2  0  0  0  0  0  0
  185.0040  178.1840  143.4290 C   0  0  1  0  0  3  0  0  0  0  0  0
  186.4660  177.9410  143.1510 C   0  0  0  0  0  0  0  0  0  0  0  0
  191.4760  177.0380  143.6610 N   0  0  0  0  0  0  0  0  0  0  0  0
  189.2150  177.5640  142.7230 C   0  0  0  0  0  0  0  0  0  0  0  0
  191.6480  176.3310  147.2920 C   0  0  0  0  0  0  0  0  0  0  0  0
  189.5320  176.9740  145.1670 C   0  0  0  0  0  2  0  0  0  0  0  0
  192.8600  177.1120  149.2820 C   0  0  0  0  0  1  0  0  0  0  0  0
  192.7560  176.0210  148.2340 C   0  0  0  0  0  2  0  0  0  0  0  0
  183.8940  179.2110  139.8660 C   0  0  2  0  0  3  0  0  0  0  0  0
  184.5190  177.5030  137.7170 S   0  0  0  0  0  0  0  0  0  0  0  0
  182.9180  176.8510  139.5360 C   0  0  0  0  0  3  0  0  0  0  0  0
  182.9600  175.7820  138.6960 N   0  0  0  0  0  0  0  0  0  0  0  0
  183.7280  177.9130  139.1430 C   0  0  0  0  0  0  0  0  0  0  0  0
  183.7920  175.9900  137.6540 C   0  0  0  0  0  0  0  0  0  0  0  0
  184.2040  174.2390  135.7860 N   0  0  0  0  0  0  0  0  0  0  0  0
  184.0200  175.0200  136.6200 C   0  0  0  0  0  0  0  0  0  0  0  0
  184.4030  180.1690  138.9830 O   0  0  0  0  0  0  0  0  0  0  0  0
  183.4360  181.1170  138.9100 N   0  0  0  0  0  2  0  0  0  0  0  0
  182.1920  180.4340  138.6010 C   0  0  0  0  0  2  0  0  0  0  0  0
  181.0290  181.4040  138.7100 C   0  0  0  0  0  2  0  0  0  0  0  0
  180.7960  181.6910  136.3590 O   0  0  0  0  0  0  0  0  0  0  0  0
  180.9500  182.2370  137.4820 C   0  0  0  0  0  0  0  0  0  0  0  0
  181.0760  183.6170  137.5700 O   0  0  0  0  0  1  0  0  0  0  0  0
  1 15  1  0  0  0  0
  2  1  2  0  0  0  0
  2 17  1  0  0  0  0
  3 17  1  0  0  0  0
  3 16  1  0  0  0  0
  4 19  1  0  0  0  0
  4 11  1  0  0  0  0
  7 14  1  0  0  0  0
  8  9  1  0  0  0  0
  8 19  1  0  0  0  0
 10 22  1  6  0  0  0
 10  7  1  0  0  0  0
 11 18  1  0  0  0  0
 12  3  2  0  0  0  0
 13 10  1  0  0  0  0
 13  1  1  0  0  0  0
 14  6  1  6  0  0  0
 15 14  1  0  0  0  0
 15  9  2  0  0  0  0
 16  4  2  0  0  0  0
 17  8  2  0  0  0  0
 18  5  2  0  0  0  0
 18 21  1  0  0  0  0
 21 20  1  0  0  0  0
 22 30  1  6  0  0  0
 23 26  1  0  0  0  0
 25 24  1  0  0  0  0
 26 24  2  0  0  0  0
 26 22  1  0  0  0  0
 27 23  1  0  0  0  0
 27 25  2  0  0  0  0
 28 29  3  0  0  0  0
 29 27  1  0  0  0  0
 31 30  1  0  0  0  0
 32 33  1  0  0  0  0
 32 31  1  0  0  0  0
 34 35  2  0  0  0  0
 35 36  1  0  0  0  0
 35 33  1  0  0  0  0
M  END
>  <MODEL>
2

>  <REMARK>
 VINA RESULT:      -8.0      1.597      1.902
  Name = 
  9 active torsions:
  status: ('A' for Active; 'I' for Inactive)
    1  A    between atoms: C_3  and  C_35
    2  A    between atoms: C_4  and  C_11
    3  A    between atoms: C_4  and  C_16
    4  A    between atoms: C_13  and  C_21
    5  A    between atoms: C_13  and  C_25
    6  A    between atoms: C_13  and  O_34
    7  A    between atoms: C_16  and  N_26
    8  A    between atoms: N_26  and  O_34
    9  A    between atoms: C_28  and  C_30
                            x       y       z     vdW  Elec       q    Type
                         _______ _______ _______ _____ _____    ______ ____

>  <TORSDO>
F 9

$$$$
=
 OpenBabel10232411243D

 36 39  0  0  1  0  0  0  0  0999 V2000
  191.3660  176.8440  139.7770 C   0  0  0  0  0  0  0  0  0  0  0  0
  191.5580  177.1530  141.1250 C   0  0  0  0  0  3  0  0  0  0  0  0
  190.6360  177.7280  143.3810 C   0  0  0  0  0  0  0  0  0  0  0  0
  188.2640  177.9260  143.7500 C   0  0  0  0  0  0  0  0  0  0  0  0
  185.3590  177.9340  143.2410 O   0  0  0  0  0  0  0  0  0  0  0  0
  189.3560  177.7010  137.0790 C   0  0  0  0  0  1  0  0  0  0  0  0
  191.0220  175.8400  137.1090 C   0  0  0  0  0  2  0  0  0  0  0  0
  189.1580  177.2860  141.4530 C   0  0  0  0  0  0  0  0  0  0  0  0
  188.9630  176.9620  140.1080 C   0  0  0  0  0  3  0  0  0  0  0  0
  192.2780  176.6460  137.4410 C   0  0  1  0  0  3  0  0  0  0  0  0
  187.2030  178.2300  144.6660 N   0  0  0  0  0  2  0  0  0  0  0  0
  191.8160  177.8220  143.8990 N   0  0  0  0  0  2  0  0  0  0  0  0
  192.5680  176.5170  138.9370 C   0  0  0  0  0  2  0  0  0  0  0  0
  189.8000  176.4420  137.8050 C   0  0  1  0  0  3  0  0  0  0  0  0
  190.0550  176.7360  139.2620 C   0  0  0  0  0  0  0  0  0  0  0  0
  189.4880  178.0000  144.1870 N   0  0  0  0  0  0  0  0  0  0  0  0
  190.4600  177.3830  141.9640 C   0  0  0  0  0  0  0  0  0  0  0  0
  185.7970  178.2160  144.3870 C   0  0  0  0  0  0  0  0  0  0  0  0
  187.9550  177.5060  142.3270 C   0  0  0  0  0  2  0  0  0  0  0  0
  185.5560  178.6070  146.8020 C   0  0  0  0  0  1  0  0  0  0  0  0
  184.8390  178.5750  145.4660 C   0  0  0  0  0  2  0  0  0  0  0  0
  193.4710  176.1590  136.6140 C   0  0  2  0  0  3  0  0  0  0  0  0
  193.8910  173.3760  136.6720 S   0  0  0  0  0  0  0  0  0  0  0  0
  194.9590  174.9350  138.3220 C   0  0  0  0  0  3  0  0  0  0  0  0
  195.3960  173.6940  138.6660 N   0  0  0  0  0  0  0  0  0  0  0  0
  194.1020  174.9490  137.2250 C   0  0  0  0  0  0  0  0  0  0  0  0
  194.8970  172.7380  137.8550 C   0  0  0  0  0  0  0  0  0  0  0  0
  195.4440  170.2170  138.1170 N   0  0  0  0  0  0  0  0  0  0  0  0
  195.2000  171.3420  138.0000 C   0  0  0  0  0  0  0  0  0  0  0  0
  194.4310  177.1700  136.4990 O   0  0  0  0  0  0  0  0  0  0  0  0
  194.6660  177.2700  135.1670 N   0  0  0  0  0  2  0  0  0  0  0  0
  196.0610  177.6440  135.0060 C   0  0  0  0  0  2  0  0  0  0  0  0
  196.8310  176.5040  134.3630 C   0  0  0  0  0  2  0  0  0  0  0  0
  197.7620  175.9590  136.4840 O   0  0  0  0  0  1  0  0  0  0  0  0
  197.2680  175.5390  135.4060 C   0  0  0  0  0  0  0  0  0  0  0  0
  197.1600  174.1740  135.1780 O   0  0  0  0  0  0  0  0  0  0  0  0
  1  2  1  0  0  0  0
  2 17  2  0  0  0  0
  3 12  2  0  0  0  0
  3 16  1  0  0  0  0
  4 16  2  0  0  0  0
  4 11  1  0  0  0  0
  5 18  2  0  0  0  0
  7 10  1  0  0  0  0
  7 14  1  0  0  0  0
  8 17  1  0  0  0  0
  8 19  1  0  0  0  0
  9  8  2  0  0  0  0
 10 22  1  6  0  0  0
 10 13  1  0  0  0  0
 13  1  1  0  0  0  0
 14  6  1  6  0  0  0
 14 15  1  0  0  0  0
 15  1  2  0  0  0  0
 15  9  1  0  0  0  0
 17  3  1  0  0  0  0
 18 11  1  0  0  0  0
 18 21  1  0  0  0  0
 19  4  1  0  0  0  0
 21 20  1  0  0  0  0
 22 30  1  1  0  0  0
 22 26  1  0  0  0  0
 23 26  1  0  0  0  0
 23 27  1  0  0  0  0
 24 25  1  0  0  0  0
 26 24  2  0  0  0  0
 27 29  1  0  0  0  0
 27 25  2  0  0  0  0
 29 28  3  0  0  0  0
 31 30  1  0  0  0  0
 32 31  1  0  0  0  0
 33 32  1  0  0  0  0
 33 35  1  0  0  0  0
 35 34  1  0  0  0  0
 36 35  2  0  0  0  0
M  END
>  <MODEL>
3

>  <REMARK>
 VINA RESULT:      -7.6      7.114     10.692
  Name = 
  9 active torsions:
  status: ('A' for Active; 'I' for Inactive)
    1  A    between atoms: C_3  and  C_35
    2  A    between atoms: C_4  and  C_11
    3  A    between atoms: C_4  and  C_16
    4  A    between atoms: C_13  and  C_21
    5  A    between atoms: C_13  and  C_25
    6  A    between atoms: C_13  and  O_34
    7  A    between atoms: C_16  and  N_26
    8  A    between atoms: N_26  and  O_34
    9  A    between atoms: C_28  and  C_30
                            x       y       z     vdW  Elec       q    Type
                         _______ _______ _______ _____ _____    ______ ____

>  <TORSDO>
F 9

$$$$
=
 OpenBabel10232411243D

 36 39  0  0  1  0  0  0  0  0999 V2000
  187.9930  177.5500  141.7380 C   0  0  0  0  0  0  0  0  0  0  0  0
  187.8750  177.6920  140.3540 C   0  0  0  0  0  3  0  0  0  0  0  0
  188.8640  177.5580  138.0570 C   0  0  0  0  0  0  0  0  0  0  0  0
  191.1470  176.8700  137.7170 C   0  0  0  0  0  0  0  0  0  0  0  0
  193.8940  175.9610  138.2850 O   0  0  0  0  0  0  0  0  0  0  0  0
  190.2630  178.0750  144.3130 C   0  0  0  0  0  1  0  0  0  0  0  0
  188.0600  176.9170  144.5370 C   0  0  0  0  0  2  0  0  0  0  0  0
  190.1640  176.9420  140.0640 C   0  0  0  0  0  0  0  0  0  0  0  0
  190.2790  176.7840  141.4480 C   0  0  0  0  0  3  0  0  0  0  0  0
  187.1460  178.0430  144.0550 C   0  0  1  0  0  3  0  0  0  0  0  0
  192.2180  176.6450  136.7890 N   0  0  0  0  0  2  0  0  0  0  0  0
  187.7710  177.9680  137.5040 N   0  0  0  0  0  2  0  0  0  0  0  0
  186.7810  177.7900  142.5910 C   0  0  0  0  0  2  0  0  0  0  0  0
  189.3910  176.9470  143.7840 C   0  0  1  0  0  3  0  0  0  0  0  0
  189.2050  177.0810  142.2940 C   0  0  0  0  0  0  0  0  0  0  0  0
  190.0090  177.2910  137.2460 N   0  0  0  0  0  0  0  0  0  0  0  0
  188.9570  177.3990  139.5150 C   0  0  0  0  0  0  0  0  0  0  0  0
  193.5420  176.1930  137.0980 C   0  0  0  0  0  0  0  0  0  0  0  0
  191.3400  176.5960  139.1940 C   0  0  0  0  0  2  0  0  0  0  0  0
  193.8420  176.2050  134.6590 C   0  0  0  0  0  1  0  0  0  0  0  0
  194.5290  176.0300  135.9980 C   0  0  0  0  0  2  0  0  0  0  0  0
  185.8860  178.1300  144.9200 C   0  0  2  0  0  3  0  0  0  0  0  0
  183.2260  179.0280  144.7060 S   0  0  0  0  0  0  0  0  0  0  0  0
  184.5670  178.2980  142.7150 C   0  0  0  0  0  3  0  0  0  0  0  0
  183.3540  178.6570  142.2170 N   0  0  0  0  0  0  0  0  0  0  0  0
  184.6770  178.4370  144.0960 C   0  0  0  0  0  0  0  0  0  0  0  0
  182.5140  179.0780  143.1860 C   0  0  0  0  0  0  0  0  0  0  0  0
  180.0870  179.8680  142.7250 N   0  0  0  0  0  0  0  0  0  0  0  0
  181.1710  179.5150  142.9310 C   0  0  0  0  0  0  0  0  0  0  0  0
  186.0350  179.1130  145.9040 O   0  0  0  0  0  0  0  0  0  0  0  0
  185.9470  178.4400  147.0780 N   0  0  0  0  0  2  0  0  0  0  0  0
  187.2060  178.6340  147.7770 C   0  0  0  0  0  2  0  0  0  0  0  0
  187.8930  177.2960  147.9850 C   0  0  0  0  0  2  0  0  0  0  0  0
  189.8590  178.4680  148.6370 O   0  0  0  0  0  1  0  0  0  0  0  0
  189.3670  177.4860  148.0230 C   0  0  0  0  0  0  0  0  0  0  0  0
  190.1990  176.5980  147.3550 O   0  0  0  0  0  0  0  0  0  0  0  0
  1 15  1  0  0  0  0
  1 13  1  0  0  0  0
  2  1  2  0  0  0  0
  3 17  1  0  0  0  0
  4 19  1  0  0  0  0
  8  9  1  0  0  0  0
  9 15  2  0  0  0  0
 10  7  1  0  0  0  0
 10 22  1  1  0  0  0
 11 18  1  0  0  0  0
 11  4  1  0  0  0  0
 12  3  2  0  0  0  0
 13 10  1  0  0  0  0
 14  6  1  1  0  0  0
 14  7  1  0  0  0  0
 15 14  1  0  0  0  0
 16  4  2  0  0  0  0
 16  3  1  0  0  0  0
 17  8  2  0  0  0  0
 17  2  1  0  0  0  0
 18  5  2  0  0  0  0
 19  8  1  0  0  0  0
 20 21  1  0  0  0  0
 21 18  1  0  0  0  0
 22 30  1  1  0  0  0
 24 26  2  0  0  0  0
 25 24  1  0  0  0  0
 25 27  2  0  0  0  0
 26 23  1  0  0  0  0
 26 22  1  0  0  0  0
 27 23  1  0  0  0  0
 28 29  3  0  0  0  0
 29 27  1  0  0  0  0
 30 31  1  0  0  0  0
 31 32  1  0  0  0  0
 32 33  1  0  0  0  0
 33 35  1  0  0  0  0
 35 34  1  0  0  0  0
 36 35  2  0  0  0  0
M  END
>  <MODEL>
4

>  <REMARK>
 VINA RESULT:      -7.5      4.943      8.415
  Name = 
  9 active torsions:
  status: ('A' for Active; 'I' for Inactive)
    1  A    between atoms: C_3  and  C_35
    2  A    between atoms: C_4  and  C_11
    3  A    between atoms: C_4  and  C_16
    4  A    between atoms: C_13  and  C_21
    5  A    between atoms: C_13  and  C_25
    6  A    between atoms: C_13  and  O_34
    7  A    between atoms: C_16  and  N_26
    8  A    between atoms: N_26  and  O_34
    9  A    between atoms: C_28  and  C_30
                            x       y       z     vdW  Elec       q    Type
                         _______ _______ _______ _____ _____    ______ ____

>  <TORSDO>
F 9

$$$$
=
 OpenBabel10232411243D

 36 39  0  0  1  0  0  0  0  0999 V2000
  188.9890  177.1290  141.6310 C   0  0  0  0  0  0  0  0  0  0  0  0
  188.5780  177.0220  140.3010 C   0  0  0  0  0  3  0  0  0  0  0  0
  189.1150  176.7640  137.8690 C   0  0  0  0  0  0  0  0  0  0  0  0
  191.3910  176.5790  137.1030 C   0  0  0  0  0  0  0  0  0  0  0  0
  194.3360  176.4310  137.1380 O   0  0  0  0  0  0  0  0  0  0  0  0
  191.4890  178.5600  143.5690 C   0  0  0  0  0  1  0  0  0  0  0  0
  189.7460  176.9730  144.3960 C   0  0  0  0  0  2  0  0  0  0  0  0
  190.8850  176.7860  139.5900 C   0  0  0  0  0  0  0  0  0  0  0  0
  191.2970  176.8770  140.9220 C   0  0  0  0  0  3  0  0  0  0  0  0
  188.4960  177.7680  144.0140 C   0  0  1  0  0  3  0  0  0  0  0  0
  192.2880  176.4660  135.9890 N   0  0  0  0  0  2  0  0  0  0  0  0
  187.8690  176.8190  137.5320 N   0  0  0  0  0  2  0  0  0  0  0  0
  187.9390  177.2120  142.7030 C   0  0  0  0  0  2  0  0  0  0  0  0
  190.8560  177.1930  143.3670 C   0  0  1  0  0  3  0  0  0  0  0  0
  190.3630  177.0460  141.9500 C   0  0  0  0  0  0  0  0  0  0  0  0
  190.1150  176.6460  136.8550 N   0  0  0  0  0  0  0  0  0  0  0  0
  189.5200  176.8600  139.2780 C   0  0  0  0  0  0  0  0  0  0  0  0
  193.7180  176.3870  136.0420 C   0  0  0  0  0  0  0  0  0  0  0  0
  191.9240  176.5910  138.5210 C   0  0  0  0  0  2  0  0  0  0  0  0
  195.4880  177.4230  134.6880 C   0  0  0  0  0  1  0  0  0  0  0  0
  194.4870  176.2880  134.7730 C   0  0  0  0  0  2  0  0  0  0  0  0
  187.4440  177.6940  145.1240 C   0  0  2  0  0  3  0  0  0  0  0  0
  185.4040  177.7890  143.1860 S   0  0  0  0  0  0  0  0  0  0  0  0
  185.2700  179.0550  145.3480 C   0  0  0  0  0  3  0  0  0  0  0  0
  184.1160  179.3470  144.6900 N   0  0  0  0  0  0  0  0  0  0  0  0
  186.1170  178.1960  144.6530 C   0  0  0  0  0  0  0  0  0  0  0  0
  184.0460  178.7280  143.4930 C   0  0  0  0  0  0  0  0  0  0  0  0
  182.0360  178.9770  141.8740 N   0  0  0  0  0  0  0  0  0  0  0  0
  182.9330  178.8660  142.5970 C   0  0  0  0  0  0  0  0  0  0  0  0
  187.8520  178.4400  146.2340 O   0  0  0  0  0  0  0  0  0  0  0  0
  187.9050  177.5440  147.2500 N   0  0  0  0  0  2  0  0  0  0  0  0
  189.2280  177.6470  147.8420 C   0  0  0  0  0  2  0  0  0  0  0  0
  190.0300  176.3950  147.5350 C   0  0  0  0  0  2  0  0  0  0  0  0
  192.2280  176.2690  146.6310 O   0  0  0  0  0  0  0  0  0  0  0  0
  191.4830  176.7120  147.5420 C   0  0  0  0  0  0  0  0  0  0  0  0
  192.0230  177.4720  148.5710 O   0  0  0  0  0  1  0  0  0  0  0  0
  1 15  1  0  0  0  0
  1 13  1  0  0  0  0
  2  1  2  0  0  0  0
  3 17  1  0  0  0  0
  4 19  1  0  0  0  0
  8  9  1  0  0  0  0
  9 15  2  0  0  0  0
 10  7  1  0  0  0  0
 10 22  1  1  0  0  0
 11 18  1  0  0  0  0
 11  4  1  0  0  0  0
 12  3  2  0  0  0  0
 13 10  1  0  0  0  0
 14  6  1  6  0  0  0
 14  7  1  0  0  0  0
 15 14  1  0  0  0  0
 16  4  2  0  0  0  0
 16  3  1  0  0  0  0
 17  8  2  0  0  0  0
 17  2  1  0  0  0  0
 18  5  2  0  0  0  0
 19  8  1  0  0  0  0
 20 21  1  0  0  0  0
 21 18  1  0  0  0  0
 22 30  1  1  0  0  0
 23 27  1  0  0  0  0
 23 26  1  0  0  0  0
 25 24  1  0  0  0  0
 26 22  1  0  0  0  0
 26 24  2  0  0  0  0
 27 25  2  0  0  0  0
 28 29  3  0  0  0  0
 29 27  1  0  0  0  0
 30 31  1  0  0  0  0
 31 32  1  0  0  0  0
 33 35  1  0  0  0  0
 33 32  1  0  0  0  0
 34 35  2  0  0  0  0
 35 36  1  0  0  0  0
M  END
>  <MODEL>
5

>  <REMARK>
 VINA RESULT:      -7.2      5.027      9.310
  Name = 
  9 active torsions:
  status: ('A' for Active; 'I' for Inactive)
    1  A    between atoms: C_3  and  C_35
    2  A    between atoms: C_4  and  C_11
    3  A    between atoms: C_4  and  C_16
    4  A    between atoms: C_13  and  C_21
    5  A    between atoms: C_13  and  C_25
    6  A    between atoms: C_13  and  O_34
    7  A    between atoms: C_16  and  N_26
    8  A    between atoms: N_26  and  O_34
    9  A    between atoms: C_28  and  C_30
                            x       y       z     vdW  Elec       q    Type
                         _______ _______ _______ _____ _____    ______ ____

>  <TORSDO>
F 9

$$$$
=
 OpenBabel10232411243D

 36 39  0  0  1  0  0  0  0  0999 V2000
  184.3470  178.5900  140.2200 C   0  0  0  0  0  0  0  0  0  0  0  0
  185.7440  178.6140  140.2410 C   0  0  0  0  0  3  0  0  0  0  0  0
  187.9070  178.4410  141.4890 C   0  0  0  0  0  0  0  0  0  0  0  0
  187.9530  178.0290  143.8620 C   0  0  0  0  0  0  0  0  0  0  0  0
  187.0320  177.5230  146.6180 O   0  0  0  0  0  0  0  0  0  0  0  0
  181.6100  179.5880  142.1090 C   0  0  0  0  0  1  0  0  0  0  0  0
  181.5120  178.1770  140.0490 C   0  0  0  0  0  2  0  0  0  0  0  0
  185.7330  178.1440  142.6210 C   0  0  0  0  0  0  0  0  0  0  0  0
  184.3370  178.1040  142.5990 C   0  0  0  0  0  3  0  0  0  0  0  0
  182.1800  179.1380  139.0660 C   0  0  1  0  0  3  0  0  0  0  0  0
  188.7440  177.8750  145.0490 N   0  0  0  0  0  2  0  0  0  0  0  0
  188.6020  178.6660  140.4240 N   0  0  0  0  0  2  0  0  0  0  0  0
  183.6460  178.7340  138.9000 C   0  0  0  0  0  2  0  0  0  0  0  0
  182.1260  178.3220  141.4430 C   0  0  1  0  0  3  0  0  0  0  0  0
  183.6330  178.3220  141.4090 C   0  0  0  0  0  0  0  0  0  0  0  0
  188.5720  178.2640  142.7420 N   0  0  0  0  0  0  0  0  0  0  0  0
  186.4390  178.4020  141.4380 C   0  0  0  0  0  0  0  0  0  0  0  0
  188.2640  177.6210  146.3750 C   0  0  0  0  0  0  0  0  0  0  0  0
  186.4450  177.8900  143.9200 C   0  0  0  0  0  2  0  0  0  0  0  0
  190.4110  176.6430  147.0650 C   0  0  0  0  0  1  0  0  0  0  0  0
  189.2390  177.5060  147.4910 C   0  0  0  0  0  2  0  0  0  0  0  0
  181.4590  179.1260  137.7160 C   0  0  2  0  0  3  0  0  0  0  0  0
  181.0000  181.8350  138.3290 S   0  0  0  0  0  0  0  0  0  0  0  0
  180.6430  180.8930  136.0310 C   0  0  0  0  0  3  0  0  0  0  0  0
  180.3240  182.2120  135.9320 N   0  0  0  0  0  0  0  0  0  0  0  0
  181.0420  180.5020  137.3060 C   0  0  0  0  0  0  0  0  0  0  0  0
  180.4700  182.8580  137.1080 C   0  0  0  0  0  0  0  0  0  0  0  0
  179.9820  185.3860  137.4150 N   0  0  0  0  0  0  0  0  0  0  0  0
  180.2000  184.2570  137.2780 C   0  0  0  0  0  0  0  0  0  0  0  0
  180.3310  178.3000  137.7730 O   0  0  0  0  0  0  0  0  0  0  0  0
  180.4460  177.4860  136.6950 N   0  0  0  0  0  2  0  0  0  0  0  0
  180.6730  176.1420  137.1970 C   0  0  0  0  0  2  0  0  0  0  0  0
  181.9140  175.5510  136.5530 C   0  0  0  0  0  2  0  0  0  0  0  0
  182.7560  175.4460  138.7770 O   0  0  0  0  0  1  0  0  0  0  0  0
  182.8140  175.0020  137.6010 C   0  0  0  0  0  0  0  0  0  0  0  0
  183.7410  174.0200  137.2760 O   0  0  0  0  0  0  0  0  0  0  0  0
  1  2  2  0  0  0  0
  1 15  1  0  0  0  0
  2 17  1  0  0  0  0
  3 16  1  0  0  0  0
  4 19  1  0  0  0  0
  4 11  1  0  0  0  0
  7 14  1  0  0  0  0
  8 19  1  0  0  0  0
  9  8  1  0  0  0  0
 10 22  1  6  0  0  0
 10  7  1  0  0  0  0
 11 18  1  0  0  0  0
 12  3  2  0  0  0  0
 13 10  1  0  0  0  0
 13  1  1  0  0  0  0
 14  6  1  6  0  0  0
 15 14  1  0  0  0  0
 15  9  2  0  0  0  0
 16  4  2  0  0  0  0
 17  3  1  0  0  0  0
 17  8  2  0  0  0  0
 18  5  2  0  0  0  0
 18 21  1  0  0  0  0
 20 21  1  0  0  0  0
 22 30  1  1  0  0  0
 24 26  2  0  0  0  0
 25 24  1  0  0  0  0
 25 27  2  0  0  0  0
 26 22  1  0  0  0  0
 26 23  1  0  0  0  0
 27 29  1  0  0  0  0
 27 23  1  0  0  0  0
 29 28  3  0  0  0  0
 31 32  1  0  0  0  0
 31 30  1  0  0  0  0
 33 32  1  0  0  0  0
 33 35  1  0  0  0  0
 35 34  1  0  0  0  0
 36 35  2  0  0  0  0
M  END
>  <MODEL>
6

>  <REMARK>
 VINA RESULT:      -7.2      2.452      5.011
  Name = 
  9 active torsions:
  status: ('A' for Active; 'I' for Inactive)
    1  A    between atoms: C_3  and  C_35
    2  A    between atoms: C_4  and  C_11
    3  A    between atoms: C_4  and  C_16
    4  A    between atoms: C_13  and  C_21
    5  A    between atoms: C_13  and  C_25
    6  A    between atoms: C_13  and  O_34
    7  A    between atoms: C_16  and  N_26
    8  A    between atoms: N_26  and  O_34
    9  A    between atoms: C_28  and  C_30
                            x       y       z     vdW  Elec       q    Type
                         _______ _______ _______ _____ _____    ______ ____

>  <TORSDO>
F 9

$$$$
=
 OpenBabel10232411243D

 36 39  0  0  1  0  0  0  0  0999 V2000
  191.0320  176.6590  139.3640 C   0  0  0  0  0  0  0  0  0  0  0  0
  191.2720  176.6120  140.7390 C   0  0  0  0  0  3  0  0  0  0  0  0
  190.4860  176.9020  143.0990 C   0  0  0  0  0  0  0  0  0  0  0  0
  188.2360  177.6080  143.5900 C   0  0  0  0  0  0  0  0  0  0  0  0
  185.4390  178.4580  143.2050 O   0  0  0  0  0  0  0  0  0  0  0  0
  189.3540  178.5550  136.9880 C   0  0  0  0  0  1  0  0  0  0  0  0
  190.4910  176.3720  136.5590 C   0  0  0  0  0  2  0  0  0  0  0  0
  188.9790  177.2730  141.1780 C   0  0  0  0  0  0  0  0  0  0  0  0
  188.7320  177.3050  139.8030 C   0  0  0  0  0  3  0  0  0  0  0  0
  191.9050  176.7440  137.0060 C   0  0  1  0  0  3  0  0  0  0  0  0
  187.2710  177.9660  144.5890 N   0  0  0  0  0  2  0  0  0  0  0  0
  191.6410  176.5820  143.5800 N   0  0  0  0  0  2  0  0  0  0  0  0
  192.1250  176.2280  138.4290 C   0  0  0  0  0  2  0  0  0  0  0  0
  189.4500  177.0980  137.4120 C   0  0  1  0  0  3  0  0  0  0  0  0
  189.7460  176.9990  138.8880 C   0  0  0  0  0  0  0  0  0  0  0  0
  189.4300  177.2760  143.9870 N   0  0  0  0  0  0  0  0  0  0  0  0
  190.2540  176.9260  141.6480 C   0  0  0  0  0  0  0  0  0  0  0  0
  185.9130  178.3670  144.3680 C   0  0  0  0  0  0  0  0  0  0  0  0
  187.8560  177.5960  142.1240 C   0  0  0  0  0  2  0  0  0  0  0  0
  185.8940  178.7270  146.7990 C   0  0  0  0  0  1  0  0  0  0  0  0
  185.0590  178.7160  145.5340 C   0  0  0  0  0  2  0  0  0  0  0  0
  192.9490  176.1620  136.0510 C   0  0  2  0  0  3  0  0  0  0  0  0
  194.1610  173.7130  136.7310 S   0  0  0  0  0  0  0  0  0  0  0  0
  191.9320  173.8430  135.5860 C   0  0  0  0  0  3  0  0  0  0  0  0
  192.1760  172.5140  135.7460 N   0  0  0  0  0  0  0  0  0  0  0  0
  192.9410  174.6670  136.0770 C   0  0  0  0  0  0  0  0  0  0  0  0
  193.3580  172.2860  136.3570 C   0  0  0  0  0  0  0  0  0  0  0  0
  194.2580  169.9120  136.8810 N   0  0  0  0  0  0  0  0  0  0  0  0
  193.8560  170.9720  136.6470 C   0  0  0  0  0  0  0  0  0  0  0  0
  194.2280  176.6210  136.3850 O   0  0  0  0  0  0  0  0  0  0  0  0
  194.6520  177.2880  135.2830 N   0  0  0  0  0  2  0  0  0  0  0  0
  196.1040  177.2510  135.2940 C   0  0  0  0  0  2  0  0  0  0  0  0
  196.5870  175.8350  135.0350 C   0  0  0  0  0  2  0  0  0  0  0  0
  197.6010  175.4150  137.1470 O   0  0  0  0  0  1  0  0  0  0  0  0
  197.7550  175.5330  135.9040 C   0  0  0  0  0  0  0  0  0  0  0  0
  199.0210  175.4130  135.3480 O   0  0  0  0  0  0  0  0  0  0  0  0
  1  2  1  0  0  0  0
  2 17  2  0  0  0  0
  3 12  2  0  0  0  0
  3 16  1  0  0  0  0
  4 16  2  0  0  0  0
  4 11  1  0  0  0  0
  5 18  2  0  0  0  0
  7 10  1  0  0  0  0
  7 14  1  0  0  0  0
  8 17  1  0  0  0  0
  8 19  1  0  0  0  0
  9  8  2  0  0  0  0
 10 22  1  6  0  0  0
 10 13  1  0  0  0  0
 13  1  1  0  0  0  0
 14  6  1  6  0  0  0
 14 15  1  0  0  0  0
 15  1  2  0  0  0  0
 15  9  1  0  0  0  0
 17  3  1  0  0  0  0
 18 11  1  0  0  0  0
 18 21  1  0  0  0  0
 19  4  1  0  0  0  0
 21 20  1  0  0  0  0
 22 26  1  0  0  0  0
 22 30  1  1  0  0  0
 24 25  1  0  0  0  0
 24 26  2  0  0  0  0
 25 27  2  0  0  0  0
 26 23  1  0  0  0  0
 27 29  1  0  0  0  0
 27 23  1  0  0  0  0
 29 28  3  0  0  0  0
 31 32  1  0  0  0  0
 31 30  1  0  0  0  0
 33 32  1  0  0  0  0
 33 35  1  0  0  0  0
 35 34  1  0  0  0  0
 36 35  2  0  0  0  0
M  END
>  <MODEL>
7

>  <REMARK>
 VINA RESULT:      -7.0      7.198     10.425
  Name = 
  9 active torsions:
  status: ('A' for Active; 'I' for Inactive)
    1  A    between atoms: C_3  and  C_35
    2  A    between atoms: C_4  and  C_11
    3  A    between atoms: C_4  and  C_16
    4  A    between atoms: C_13  and  C_21
    5  A    between atoms: C_13  and  C_25
    6  A    between atoms: C_13  and  O_34
    7  A    between atoms: C_16  and  N_26
    8  A    between atoms: N_26  and  O_34
    9  A    between atoms: C_28  and  C_30
                            x       y       z     vdW  Elec       q    Type
                         _______ _______ _______ _____ _____    ______ ____

>  <TORSDO>
F 9

$$$$
=
 OpenBabel10232411243D

 36 39  0  0  1  0  0  0  0  0999 V2000
  187.6060  177.9910  141.7780 C   0  0  0  0  0  0  0  0  0  0  0  0
  187.1340  177.9190  143.0910 C   0  0  0  0  0  3  0  0  0  0  0  0
  187.5310  177.5060  145.5290 C   0  0  0  0  0  0  0  0  0  0  0  0
  189.7130  176.9160  146.3590 C   0  0  0  0  0  0  0  0  0  0  0  0
  192.5930  176.2840  146.4130 O   0  0  0  0  0  0  0  0  0  0  0  0
  189.8020  176.3930  139.6170 C   0  0  0  0  0  1  0  0  0  0  0  0
  188.5870  178.5220  139.1340 C   0  0  0  0  0  2  0  0  0  0  0  0
  189.3640  177.3810  143.8800 C   0  0  0  0  0  0  0  0  0  0  0  0
  189.8410  177.4680  142.5700 C   0  0  0  0  0  3  0  0  0  0  0  0
  187.1520  178.0240  139.3040 C   0  0  1  0  0  3  0  0  0  0  0  0
  190.5210  176.5490  147.4860 N   0  0  0  0  0  2  0  0  0  0  0  0
  186.2890  177.7130  145.8210 N   0  0  0  0  0  2  0  0  0  0  0  0
  186.6550  178.4170  140.6960 C   0  0  0  0  0  2  0  0  0  0  0  0
  189.5230  177.8050  140.1080 C   0  0  1  0  0  3  0  0  0  0  0  0
  188.9760  177.7740  141.5130 C   0  0  0  0  0  0  0  0  0  0  0  0
  188.4470  177.1380  146.5620 N   0  0  0  0  0  0  0  0  0  0  0  0
  188.0050  177.6060  144.1420 C   0  0  0  0  0  0  0  0  0  0  0  0
  191.9240  176.2560  147.4790 C   0  0  0  0  0  0  0  0  0  0  0  0
  190.3330  177.0630  144.9840 C   0  0  0  0  0  2  0  0  0  0  0  0
  193.1080  177.1210  149.4520 C   0  0  0  0  0  1  0  0  0  0  0  0
  192.5930  175.8790  148.7520 C   0  0  0  0  0  2  0  0  0  0  0  0
  186.2420  178.6070  138.2200 C   0  0  2  0  0  3  0  0  0  0  0  0
  183.8030  177.2580  138.6240 S   0  0  0  0  0  0  0  0  0  0  0  0
  184.0990  179.6950  139.1430 C   0  0  0  0  0  3  0  0  0  0  0  0
  182.8080  179.4130  139.4680 N   0  0  0  0  0  0  0  0  0  0  0  0
  184.8090  178.6050  138.6500 C   0  0  0  0  0  0  0  0  0  0  0  0
  182.4990  178.1190  139.2390 C   0  0  0  0  0  0  0  0  0  0  0  0
  180.1570  177.1080  139.7020 N   0  0  0  0  0  0  0  0  0  0  0  0
  181.2030  177.5600  139.4960 C   0  0  0  0  0  0  0  0  0  0  0  0
  186.3680  177.8780  137.0330 O   0  0  0  0  0  0  0  0  0  0  0  0
  187.0810  178.6840  136.2090 N   0  0  0  0  0  2  0  0  0  0  0  0
  187.7170  177.8300  135.2200 C   0  0  0  0  0  2  0  0  0  0  0  0
  189.1880  177.6590  135.5540 C   0  0  0  0  0  2  0  0  0  0  0  0
  188.5050  175.4750  136.2070 O   0  0  0  0  0  1  0  0  0  0  0  0
  189.4590  176.2460  135.9300 C   0  0  0  0  0  0  0  0  0  0  0  0
  190.7670  175.7860  136.0060 O   0  0  0  0  0  0  0  0  0  0  0  0
  1  2  1  0  0  0  0
  2 17  2  0  0  0  0
  3 12  2  0  0  0  0
  3 16  1  0  0  0  0
  4 16  2  0  0  0  0
  4 11  1  0  0  0  0
  5 18  2  0  0  0  0
  7 10  1  0  0  0  0
  7 14  1  0  0  0  0
  8 17  1  0  0  0  0
  8 19  1  0  0  0  0
  9  8  2  0  0  0  0
 10 22  1  6  0  0  0
 10 13  1  0  0  0  0
 13  1  1  0  0  0  0
 14  6  1  6  0  0  0
 14 15  1  0  0  0  0
 15  1  2  0  0  0  0
 15  9  1  0  0  0  0
 17  3  1  0  0  0  0
 18 11  1  0  0  0  0
 18 21  1  0  0  0  0
 19  4  1  0  0  0  0
 21 20  1  0  0  0  0
 22 30  1  6  0  0  0
 22 26  1  0  0  0  0
 23 26  1  0  0  0  0
 23 27  1  0  0  0  0
 24 25  1  0  0  0  0
 26 24  2  0  0  0  0
 27 25  2  0  0  0  0
 27 29  1  0  0  0  0
 29 28  3  0  0  0  0
 31 30  1  0  0  0  0
 32 33  1  0  0  0  0
 32 31  1  0  0  0  0
 33 35  1  0  0  0  0
 35 36  2  0  0  0  0
 35 34  1  0  0  0  0
M  END
>  <MODEL>
8

>  <REMARK>
 VINA RESULT:      -6.8      3.453      5.441
  Name = 
  9 active torsions:
  status: ('A' for Active; 'I' for Inactive)
    1  A    between atoms: C_3  and  C_35
    2  A    between atoms: C_4  and  C_11
    3  A    between atoms: C_4  and  C_16
    4  A    between atoms: C_13  and  C_21
    5  A    between atoms: C_13  and  C_25
    6  A    between atoms: C_13  and  O_34
    7  A    between atoms: C_16  and  N_26
    8  A    between atoms: N_26  and  O_34
    9  A    between atoms: C_28  and  C_30
                            x       y       z     vdW  Elec       q    Type
                         _______ _______ _______ _____ _____    ______ ____

>  <TORSDO>
F 9

$$$$
=
 OpenBabel10232411243D

 36 39  0  0  1  0  0  0  0  0999 V2000
  190.8890  176.7860  140.3150 C   0  0  0  0  0  0  0  0  0  0  0  0
  191.0070  176.8190  141.7070 C   0  0  0  0  0  3  0  0  0  0  0  0
  189.9990  177.1850  143.9700 C   0  0  0  0  0  0  0  0  0  0  0  0
  187.6840  177.7980  144.2240 C   0  0  0  0  0  0  0  0  0  0  0  0
  184.8950  178.4840  143.5500 O   0  0  0  0  0  0  0  0  0  0  0  0
  189.3460  178.4740  137.7030 C   0  0  0  0  0  1  0  0  0  0  0  0
  190.6180  176.3340  137.4940 C   0  0  0  0  0  2  0  0  0  0  0  0
  188.6550  177.3830  141.9070 C   0  0  0  0  0  0  0  0  0  0  0  0
  188.5320  177.3340  140.5170 C   0  0  0  0  0  3  0  0  0  0  0  0
  191.9660  176.8000  138.0420 C   0  0  1  0  0  3  0  0  0  0  0  0
  186.6160  178.1540  145.1140 N   0  0  0  0  0  2  0  0  0  0  0  0
  191.1200  176.9480  144.5670 N   0  0  0  0  0  2  0  0  0  0  0  0
  192.0820  176.3660  139.5040 C   0  0  0  0  0  2  0  0  0  0  0  0
  189.4710  177.0470  138.2120 C   0  0  1  0  0  3  0  0  0  0  0  0
  189.6370  177.0360  139.7110 C   0  0  0  0  0  0  0  0  0  0  0  0
  188.8510  177.5480  144.7410 N   0  0  0  0  0  0  0  0  0  0  0  0
  189.8970  177.1250  142.5050 C   0  0  0  0  0  0  0  0  0  0  0  0
  185.2670  178.4740  144.7540 C   0  0  0  0  0  0  0  0  0  0  0  0
  187.4380  177.6940  142.7330 C   0  0  0  0  0  2  0  0  0  0  0  0
  184.7370  178.2380  147.1420 C   0  0  0  0  0  1  0  0  0  0  0  0
  184.2960  178.8360  145.8200 C   0  0  0  0  0  2  0  0  0  0  0  0
  193.1190  176.2250  137.2140 C   0  0  2  0  0  3  0  0  0  0  0  0
  192.4040  173.5350  136.7930 S   0  0  0  0  0  0  0  0  0  0  0  0
  192.3360  175.2500  134.9640 C   0  0  0  0  0  3  0  0  0  0  0  0
  191.9260  174.0900  134.3830 N   0  0  0  0  0  0  0  0  0  0  0  0
  192.6500  175.1270  136.3140 C   0  0  0  0  0  0  0  0  0  0  0  0
  191.9110  173.0630  135.2590 C   0  0  0  0  0  0  0  0  0  0  0  0
  191.2020  170.6530  134.6170 N   0  0  0  0  0  0  0  0  0  0  0  0
  191.5180  171.7290  134.9040 C   0  0  0  0  0  0  0  0  0  0  0  0
  194.1260  175.7360  138.0530 O   0  0  0  0  0  0  0  0  0  0  0  0
  195.1160  175.3490  137.2100 N   0  0  0  0  0  2  0  0  0  0  0  0
  195.8020  174.2340  137.8410 C   0  0  0  0  0  2  0  0  0  0  0  0
  197.2970  174.4950  137.8680 C   0  0  0  0  0  2  0  0  0  0  0  0
  196.8920  175.1230  140.1270 O   0  0  0  0  0  1  0  0  0  0  0  0
  197.6690  175.1700  139.1400 C   0  0  0  0  0  0  0  0  0  0  0  0
  198.8600  175.8780  139.2280 O   0  0  0  0  0  0  0  0  0  0  0  0
  1  2  1  0  0  0  0
  2 17  2  0  0  0  0
  3 12  2  0  0  0  0
  3 16  1  0  0  0  0
  4 16  2  0  0  0  0
  4 11  1  0  0  0  0
  5 18  2  0  0  0  0
  7 10  1  0  0  0  0
  7 14  1  0  0  0  0
  8 17  1  0  0  0  0
  8 19  1  0  0  0  0
  9  8  2  0  0  0  0
 10 22  1  6  0  0  0
 10 13  1  0  0  0  0
 13  1  1  0  0  0  0
 14  6  1  6  0  0  0
 14 15  1  0  0  0  0
 15  1  2  0  0  0  0
 15  9  1  0  0  0  0
 17  3  1  0  0  0  0
 18 11  1  0  0  0  0
 18 21  1  0  0  0  0
 19  4  1  0  0  0  0
 21 20  1  0  0  0  0
 22 30  1  1  0  0  0
 24 26  2  0  0  0  0
 25 24  1  0  0  0  0
 25 27  2  0  0  0  0
 26 23  1  0  0  0  0
 26 22  1  0  0  0  0
 27 23  1  0  0  0  0
 28 29  3  0  0  0  0
 29 27  1  0  0  0  0
 31 32  1  0  0  0  0
 31 30  1  0  0  0  0
 32 33  1  0  0  0  0
 33 35  1  0  0  0  0
 35 36  2  0  0  0  0
 35 34  1  0  0  0  0
M  END
>  <MODEL>
9

>  <REMARK>
 VINA RESULT:      -6.8      6.454     10.206
  Name = 
  9 active torsions:
  status: ('A' for Active; 'I' for Inactive)
    1  A    between atoms: C_3  and  C_35
    2  A    between atoms: C_4  and  C_11
    3  A    between atoms: C_4  and  C_16
    4  A    between atoms: C_13  and  C_21
    5  A    between atoms: C_13  and  C_25
    6  A    between atoms: C_13  and  O_34
    7  A    between atoms: C_16  and  N_26
    8  A    between atoms: N_26  and  O_34
    9  A    between atoms: C_28  and  C_30
                            x       y       z     vdW  Elec       q    Type
                         _______ _______ _______ _____ _____    ______ ____

>  <TORSDO>
F 9

$$$$
