=
 OpenBabel10232411363D

 48 54  0  0  1  0  0  0  0  0999 V2000
  187.1760  178.3260  139.2700 C   0  0  0  0  0  3  0  0  0  0  0  0
  186.0970  178.6030  141.4460 C   0  0  0  0  0  0  0  0  0  0  0  0
  187.3560  177.9170  144.8760 C   0  0  0  0  0  0  0  0  0  0  0  0
  186.1570  178.4950  142.8490 C   0  0  0  0  0  0  0  0  0  0  0  0
  187.2140  178.2310  140.6670 C   0  0  0  0  0  0  0  0  0  0  0  0
  186.2060  178.2190  147.0010 C   0  0  0  0  0  3  0  0  0  0  0  0
  188.2780  177.9630  138.5020 C   0  0  0  0  0  3  0  0  0  0  0  0
  187.3270  177.6700  149.0310 F   0  0  0  0  0  0  0  0  0  0  0  0
  187.3270  178.0150  143.4750 C   0  0  0  0  0  0  0  0  0  0  0  0
  186.2120  178.3040  145.6050 C   0  0  0  0  0  0  0  0  0  0  0  0
  188.3910  177.7500  141.2950 C   0  0  0  0  0  0  0  0  0  0  0  0
  189.5140  177.3770  140.5180 C   0  0  0  0  0  0  0  0  0  0  0  0
  189.4490  177.4970  139.1080 C   0  0  0  0  0  0  0  0  0  0  0  0
  187.3350  177.7510  147.6790 C   0  0  0  0  0  0  0  0  0  0  0  0
  185.1160  178.7570  144.9480 N   0  0  0  0  0  0  0  0  0  0  0  0
  185.0890  178.8500  143.6180 N   0  0  0  0  0  0  0  0  0  0  0  0
  188.4850  177.4490  145.5690 C   0  0  0  0  0  3  0  0  0  0  0  0
  188.4270  177.6500  142.6920 C   0  0  0  0  0  3  0  0  0  0  0  0
  188.4730  177.3670  146.9640 C   0  0  0  0  0  3  0  0  0  0  0  0
  191.4270  175.8410  143.0530 N   0  0  0  0  0  2  0  0  0  0  0  0
  190.7450  176.8440  141.2160 C   0  0  1  0  0  3  0  0  0  0  0  0
  191.4970  177.9190  141.9490 C   0  0  0  0  0  2  0  0  0  0  0  0
  191.8560  177.2210  143.2200 C   0  0  0  0  0  2  0  0  0  0  0  0
  190.4220  175.8340  142.1320 O   0  0  0  0  0  0  0  0  0  0  0  0
  183.9210  179.4880  140.3170 N   0  0  0  0  0  0  0  0  0  0  0  0
  184.8880  179.0960  140.8180 C   0  0  0  0  0  0  0  0  0  0  0  0
  190.6000  177.1170  138.2240 C   0  0  0  0  0  2  0  0  0  0  0  0
  191.4070  173.6660  136.8710 C   0  0  0  0  0  0  0  0  0  0  0  0
  189.0000  173.9420  136.9070 C   0  0  0  0  0  0  0  0  0  0  0  0
  192.4960  172.9090  136.6000 F   0  0  0  0  0  0  0  0  0  0  0  0
  189.1570  175.2290  137.4320 C   0  0  0  0  0  3  0  0  0  0  0  0
  191.5620  174.9530  137.3950 C   0  0  0  0  0  3  0  0  0  0  0  0
  190.4380  175.7360  137.6790 C   0  0  0  0  0  0  0  0  0  0  0  0
  190.1260  173.1600  136.6290 C   0  0  0  0  0  3  0  0  0  0  0  0
  187.6340  173.3960  136.6580 C   0  0  0  0  0  2  0  0  0  0  0  0
  185.3560  174.3110  137.2970 C   0  0  0  0  0  0  0  0  0  0  0  0
  185.0100  173.1980  137.7780 O   0  0  0  0  0  0  0  0  0  0  0  0
  182.7520  176.8350  137.9780 C   0  0  0  0  0  0  0  0  0  0  0  0
  183.6660  177.6040  137.3880 C   0  0  0  0  0  3  0  0  0  0  0  0
  184.8200  176.7710  136.9410 C   0  0  0  0  0  2  0  0  0  0  0  0
  186.6450  174.4630  136.6950 N   0  0  0  0  0  2  0  0  0  0  0  0
  184.4560  175.4240  137.3510 N   0  0  0  0  0  0  0  0  0  0  0  0
  183.1490  175.3980  137.9890 C   0  0  2  0  0  3  0  0  0  0  0  0
  182.2210  174.6150  135.7940 O   0  0  0  0  0  0  0  0  0  0  0  0
  181.3360  173.8610  137.7690 O   0  0  0  0  0  1  0  0  0  0  0  0
  182.1890  174.5780  137.1830 C   0  0  0  0  0  0  0  0  0  0  0  0
  181.3310  176.9690  140.0010 C   0  0  0  0  0  1  0  0  0  0  0  0
  181.4670  177.3560  138.5400 C   0  0  0  0  0  2  0  0  0  0  0  0
  1  5  1  0  0  0  0
  2  4  1  0  0  0  0
  3 17  2  0  0  0  0
  3 10  1  0  0  0  0
  4  9  2  0  0  0  0
  4 16  1  0  0  0  0
  5 11  1  0  0  0  0
  5  2  2  0  0  0  0
  6 14  1  0  0  0  0
  7 13  1  0  0  0  0
  7  1  2  0  0  0  0
  9  3  1  0  0  0  0
 10  6  2  0  0  0  0
 11 18  2  0  0  0  0
 12 11  1  0  0  0  0
 13 12  2  0  0  0  0
 14  8  1  0  0  0  0
 15 10  1  0  0  0  0
 16 15  2  0  0  0  0
 17 19  1  0  0  0  0
 18  9  1  0  0  0  0
 19 14  2  0  0  0  0
 20 23  1  0  0  0  0
 21 12  1  1  0  0  0
 21 22  1  0  0  0  0
 21 24  1  0  0  0  0
 22 23  1  0  0  0  0
 24 20  1  0  0  0  0
 25 26  3  0  0  0  0
 26  2  1  0  0  0  0
 27 13  1  0  0  0  0
 28 32  1  0  0  0  0
 29 31  2  0  0  0  0
 30 28  1  0  0  0  0
 31 33  1  0  0  0  0
 32 33  2  0  0  0  0
 33 27  1  0  0  0  0
 34 28  2  0  0  0  0
 34 29  1  0  0  0  0
 35 41  1  0  0  0  0
 35 29  1  0  0  0  0
 36 42  1  0  0  0  0
 36 37  2  0  0  0  0
 38 43  1  0  0  0  0
 38 48  1  0  0  0  0
 39 38  2  0  0  0  0
 40 42  1  0  0  0  0
 40 39  1  0  0  0  0
 41 36  1  0  0  0  0
 42 43  1  0  0  0  0
 43 46  1  6  0  0  0
 44 46  2  0  0  0  0
 46 45  1  0  0  0  0
 48 47  1  0  0  0  0
M  END
>  <MODEL>
1

>  <REMARK>
 VINA RESULT:      -9.8      0.000      0.000
  Name = 
  8 active torsions:
  status: ('A' for Active; 'I' for Inactive)
    1  A    between atoms: C_4  and  C_27
    2  A    between atoms: C_5  and  C_43
    3  A    between atoms: C_9  and  C_11
    4  A    between atoms: C_9  and  N_42
    5  A    between atoms: C_26  and  C_37
    6  A    between atoms: C_28  and  C_48
    7  A    between atoms: C_30  and  C_37
    8  A    between atoms: C_36  and  C_47
                            x       y       z     vdW  Elec       q    Type
                         _______ _______ _______ _____ _____    ______ ____

>  <TORSDO>
F 8

$$$$
=
 OpenBabel10232411363D

 48 54  0  0  1  0  0  0  0  0999 V2000
  184.7050  178.8380  142.9210 C   0  0  0  0  0  3  0  0  0  0  0  0
  185.9630  178.2240  144.9250 C   0  0  0  0  0  0  0  0  0  0  0  0
  189.4890  177.1150  145.3230 C   0  0  0  0  0  0  0  0  0  0  0  0
  187.1680  177.7920  145.5120 C   0  0  0  0  0  0  0  0  0  0  0  0
  185.8940  178.4120  143.5270 C   0  0  0  0  0  0  0  0  0  0  0  0
  190.6670  176.5160  147.3680 C   0  0  0  0  0  3  0  0  0  0  0  0
  184.6370  179.0270  141.5440 C   0  0  0  0  0  3  0  0  0  0  0  0
  192.9500  175.8420  147.2530 F   0  0  0  0  0  0  0  0  0  0  0  0
  188.3010  177.5470  144.7090 C   0  0  0  0  0  0  0  0  0  0  0  0
  189.5030  176.9440  146.7230 C   0  0  0  0  0  0  0  0  0  0  0  0
  187.0330  178.1680  142.7190 C   0  0  0  0  0  0  0  0  0  0  0  0
  186.9680  178.3570  141.3180 C   0  0  0  0  0  0  0  0  0  0  0  0
  185.7550  178.8000  140.7360 C   0  0  0  0  0  0  0  0  0  0  0  0
  191.8220  176.2560  146.6260 C   0  0  0  0  0  0  0  0  0  0  0  0
  188.3810  177.1960  147.4430 N   0  0  0  0  0  0  0  0  0  0  0  0
  187.2550  177.6050  146.8590 N   0  0  0  0  0  0  0  0  0  0  0  0
  190.6570  176.8510  144.5880 C   0  0  0  0  0  3  0  0  0  0  0  0
  188.2210  177.7380  143.3260 C   0  0  0  0  0  3  0  0  0  0  0  0
  191.8180  176.4240  145.2380 C   0  0  0  0  0  3  0  0  0  0  0  0
  189.3020  178.7290  138.6990 N   0  0  0  0  0  2  0  0  0  0  0  0
  188.1920  178.0630  140.4800 C   0  0  1  0  0  3  0  0  0  0  0  0
  187.9490  176.9670  139.4790 C   0  0  0  0  0  2  0  0  0  0  0  0
  188.6400  177.5070  138.2690 C   0  0  0  0  0  2  0  0  0  0  0  0
  188.6270  179.2010  139.7850 O   0  0  0  0  0  0  0  0  0  0  0  0
  183.8830  178.6650  146.4320 N   0  0  0  0  0  0  0  0  0  0  0  0
  184.8070  178.4690  145.7630 C   0  0  0  0  0  0  0  0  0  0  0  0
  185.6150  179.0180  139.2580 C   0  0  0  0  0  2  0  0  0  0  0  0
  182.0250  179.8890  138.3960 C   0  0  0  0  0  0  0  0  0  0  0  0
  182.3520  177.5130  138.0480 C   0  0  0  0  0  0  0  0  0  0  0  0
  181.2200  180.9780  138.3710 F   0  0  0  0  0  0  0  0  0  0  0  0
  183.6870  177.6400  138.4470 C   0  0  0  0  0  3  0  0  0  0  0  0
  183.3600  180.0140  138.7950 C   0  0  0  0  0  3  0  0  0  0  0  0
  184.1940  178.8910  138.8180 C   0  0  0  0  0  0  0  0  0  0  0  0
  181.5220  178.6390  138.0210 C   0  0  0  0  0  3  0  0  0  0  0  0
  181.8160  176.1830  137.6370 C   0  0  0  0  0  2  0  0  0  0  0  0
  183.0490  174.2740  136.5120 C   0  0  0  0  0  0  0  0  0  0  0  0
  182.2160  174.2520  135.5660 O   0  0  0  0  0  0  0  0  0  0  0  0
  185.8120  171.9320  135.8020 C   0  0  0  0  0  0  0  0  0  0  0  0
  186.2490  172.4610  136.9450 C   0  0  0  0  0  3  0  0  0  0  0  0
  185.2360  173.4140  137.4860 C   0  0  0  0  0  2  0  0  0  0  0  0
  182.8840  175.1960  137.5940 N   0  0  0  0  0  2  0  0  0  0  0  0
  184.1610  173.3700  136.5070 N   0  0  0  0  0  0  0  0  0  0  0  0
  184.4570  172.4330  135.4340 C   0  0  2  0  0  3  0  0  0  0  0  0
  183.3490  170.4630  136.5220 O   0  0  0  0  0  1  0  0  0  0  0  0
  182.7350  171.1290  134.4170 O   0  0  0  0  0  0  0  0  0  0  0  0
  183.4630  171.3120  135.4280 C   0  0  0  0  0  0  0  0  0  0  0  0
  187.8940  170.5980  135.6910 C   0  0  0  0  0  1  0  0  0  0  0  0
  186.5860  170.9350  135.0000 C   0  0  0  0  0  2  0  0  0  0  0  0
  1  5  1  0  0  0  0
  2  4  1  0  0  0  0
  2 26  1  0  0  0  0
  3 10  1  0  0  0  0
  4 16  1  0  0  0  0
  5  2  2  0  0  0  0
  7  1  2  0  0  0  0
  9  3  1  0  0  0  0
  9  4  2  0  0  0  0
 10  6  2  0  0  0  0
 10 15  1  0  0  0  0
 11 18  2  0  0  0  0
 11  5  1  0  0  0  0
 12 11  1  0  0  0  0
 13 12  2  0  0  0  0
 13  7  1  0  0  0  0
 14  8  1  0  0  0  0
 14  6  1  0  0  0  0
 16 15  2  0  0  0  0
 17 19  1  0  0  0  0
 17  3  2  0  0  0  0
 18  9  1  0  0  0  0
 19 14  2  0  0  0  0
 20 24  1  0  0  0  0
 21 12  1  6  0  0  0
 22 21  1  0  0  0  0
 23 20  1  0  0  0  0
 23 22  1  0  0  0  0
 24 21  1  0  0  0  0
 26 25  3  0  0  0  0
 27 13  1  0  0  0  0
 28 32  1  0  0  0  0
 29 31  2  0  0  0  0
 30 28  1  0  0  0  0
 31 33  1  0  0  0  0
 32 33  2  0  0  0  0
 33 27  1  0  0  0  0
 34 29  1  0  0  0  0
 34 28  2  0  0  0  0
 35 29  1  0  0  0  0
 36 41  1  0  0  0  0
 37 36  2  0  0  0  0
 38 39  2  0  0  0  0
 39 40  1  0  0  0  0
 41 35  1  0  0  0  0
 42 36  1  0  0  0  0
 42 40  1  0  0  0  0
 43 46  1  1  0  0  0
 43 38  1  0  0  0  0
 43 42  1  0  0  0  0
 45 46  2  0  0  0  0
 46 44  1  0  0  0  0
 48 47  1  0  0  0  0
 48 38  1  0  0  0  0
M  END
>  <MODEL>
2

>  <REMARK>
 VINA RESULT:      -9.7      3.016      5.713
  Name = 
  8 active torsions:
  status: ('A' for Active; 'I' for Inactive)
    1  A    between atoms: C_4  and  C_27
    2  A    between atoms: C_5  and  C_43
    3  A    between atoms: C_9  and  C_11
    4  A    between atoms: C_9  and  N_42
    5  A    between atoms: C_26  and  C_37
    6  A    between atoms: C_28  and  C_48
    7  A    between atoms: C_30  and  C_37
    8  A    between atoms: C_36  and  C_47
                            x       y       z     vdW  Elec       q    Type
                         _______ _______ _______ _____ _____    ______ ____

>  <TORSDO>
F 8

$$$$
=
 OpenBabel10232411363D

 48 54  0  0  1  0  0  0  0  0999 V2000
  191.4550  176.9930  142.2240 C   0  0  0  0  0  3  0  0  0  0  0  0
  189.8280  177.2520  144.0310 C   0  0  0  0  0  0  0  0  0  0  0  0
  186.2450  178.2370  143.9360 C   0  0  0  0  0  0  0  0  0  0  0  0
  188.5190  177.5660  144.4430 C   0  0  0  0  0  0  0  0  0  0  0  0
  190.1590  177.2980  142.6580 C   0  0  0  0  0  0  0  0  0  0  0  0
  184.6890  178.4750  145.7940 C   0  0  0  0  0  3  0  0  0  0  0  0
  191.7800  177.0350  140.8720 C   0  0  0  0  0  3  0  0  0  0  0  0
  182.4390  179.1320  145.3650 F   0  0  0  0  0  0  0  0  0  0  0  0
  187.5420  177.9270  143.4930 C   0  0  0  0  0  0  0  0  0  0  0  0
  185.9690  178.1740  145.3180 C   0  0  0  0  0  0  0  0  0  0  0  0
  189.1760  177.6590  141.7010 C   0  0  0  0  0  0  0  0  0  0  0  0
  189.5030  177.7050  140.3250 C   0  0  0  0  0  0  0  0  0  0  0  0
  190.8200  177.3790  139.9160 C   0  0  0  0  0  0  0  0  0  0  0  0
  183.6780  178.8400  144.9010 C   0  0  0  0  0  0  0  0  0  0  0  0
  186.9500  177.8200  146.1850 N   0  0  0  0  0  0  0  0  0  0  0  0
  188.1810  177.5270  145.7630 N   0  0  0  0  0  0  0  0  0  0  0  0
  185.2200  178.6050  143.0480 C   0  0  0  0  0  3  0  0  0  0  0  0
  187.8810  177.9690  142.1370 C   0  0  0  0  0  3  0  0  0  0  0  0
  183.9430  178.9050  143.5300 C   0  0  0  0  0  3  0  0  0  0  0  0
  187.4270  177.4910  137.4810 N   0  0  0  0  0  2  0  0  0  0  0  0
  188.4410  178.1190  139.3320 C   0  0  1  0  0  3  0  0  0  0  0  0
  188.9690  179.0730  138.2960 C   0  0  0  0  0  2  0  0  0  0  0  0
  188.3270  178.5500  137.0520 C   0  0  0  0  0  2  0  0  0  0  0  0
  187.8960  177.0110  138.6680 O   0  0  0  0  0  0  0  0  0  0  0  0
  191.6160  176.5910  145.8080 N   0  0  0  0  0  0  0  0  0  0  0  0
  190.8210  176.8850  145.0190 C   0  0  0  0  0  0  0  0  0  0  0  0
  191.2360  177.4110  138.4750 C   0  0  0  0  0  2  0  0  0  0  0  0
  192.8040  174.2200  137.1530 C   0  0  0  0  0  0  0  0  0  0  0  0
  190.3930  173.9890  137.0780 C   0  0  0  0  0  0  0  0  0  0  0  0
  194.0380  173.7100  136.9300 F   0  0  0  0  0  0  0  0  0  0  0  0
  190.2550  175.2740  137.6130 C   0  0  0  0  0  3  0  0  0  0  0  0
  192.6640  175.5050  137.6860 C   0  0  0  0  0  3  0  0  0  0  0  0
  191.3890  176.0340  137.9200 C   0  0  0  0  0  0  0  0  0  0  0  0
  191.6690  173.4620  136.8510 C   0  0  0  0  0  3  0  0  0  0  0  0
  189.1840  173.1730  136.7660 C   0  0  0  0  0  2  0  0  0  0  0  0
  186.8600  174.1510  136.4870 C   0  0  0  0  0  0  0  0  0  0  0  0
  186.4540  173.5620  137.5260 O   0  0  0  0  0  0  0  0  0  0  0  0
  184.2230  176.3900  135.2040 C   0  0  0  0  0  0  0  0  0  0  0  0
  185.2010  176.6760  134.3460 C   0  0  0  0  0  3  0  0  0  0  0  0
  186.3890  175.8150  134.6230 C   0  0  0  0  0  2  0  0  0  0  0  0
  188.2070  173.9690  136.0380 N   0  0  0  0  0  2  0  0  0  0  0  0
  185.9710  174.9990  135.7520 N   0  0  0  0  0  0  0  0  0  0  0  0
  184.6020  175.3000  136.1470 C   0  0  2  0  0  3  0  0  0  0  0  0
  183.8380  173.3240  134.8050 O   0  0  0  0  0  0  0  0  0  0  0  0
  182.8700  173.8050  136.8250 O   0  0  0  0  0  1  0  0  0  0  0  0
  183.7250  174.1020  135.9510 C   0  0  0  0  0  0  0  0  0  0  0  0
  182.5870  177.6500  136.5680 C   0  0  0  0  0  1  0  0  0  0  0  0
  182.8910  177.0710  135.2000 C   0  0  0  0  0  2  0  0  0  0  0  0
  1  5  1  0  0  0  0
  2  4  1  0  0  0  0
  2 26  1  0  0  0  0
  3 10  1  0  0  0  0
  4 16  1  0  0  0  0
  5  2  2  0  0  0  0
  7  1  2  0  0  0  0
  9  3  1  0  0  0  0
  9  4  2  0  0  0  0
 10  6  2  0  0  0  0
 10 15  1  0  0  0  0
 11 18  2  0  0  0  0
 11  5  1  0  0  0  0
 12 11  1  0  0  0  0
 13 12  2  0  0  0  0
 13  7  1  0  0  0  0
 14  8  1  0  0  0  0
 14  6  1  0  0  0  0
 16 15  2  0  0  0  0
 17 19  1  0  0  0  0
 17  3  2  0  0  0  0
 18  9  1  0  0  0  0
 19 14  2  0  0  0  0
 20 24  1  0  0  0  0
 21 12  1  1  0  0  0
 22 21  1  0  0  0  0
 23 20  1  0  0  0  0
 23 22  1  0  0  0  0
 24 21  1  0  0  0  0
 26 25  3  0  0  0  0
 27 13  1  0  0  0  0
 28 32  1  0  0  0  0
 29 31  2  0  0  0  0
 30 28  1  0  0  0  0
 31 33  1  0  0  0  0
 32 33  2  0  0  0  0
 33 27  1  0  0  0  0
 34 29  1  0  0  0  0
 34 28  2  0  0  0  0
 35 29  1  0  0  0  0
 36 37  2  0  0  0  0
 38 43  1  0  0  0  0
 39 40  1  0  0  0  0
 39 38  2  0  0  0  0
 40 42  1  0  0  0  0
 41 36  1  0  0  0  0
 41 35  1  0  0  0  0
 42 43  1  0  0  0  0
 42 36  1  0  0  0  0
 43 46  1  6  0  0  0
 44 46  2  0  0  0  0
 46 45  1  0  0  0  0
 48 38  1  0  0  0  0
 48 47  1  0  0  0  0
M  END
>  <MODEL>
3

>  <REMARK>
 VINA RESULT:      -9.5      2.104      3.694
  Name = 
  8 active torsions:
  status: ('A' for Active; 'I' for Inactive)
    1  A    between atoms: C_4  and  C_27
    2  A    between atoms: C_5  and  C_43
    3  A    between atoms: C_9  and  C_11
    4  A    between atoms: C_9  and  N_42
    5  A    between atoms: C_26  and  C_37
    6  A    between atoms: C_28  and  C_48
    7  A    between atoms: C_30  and  C_37
    8  A    between atoms: C_36  and  C_47
                            x       y       z     vdW  Elec       q    Type
                         _______ _______ _______ _____ _____    ______ ____

>  <TORSDO>
F 8

$$$$
=
 OpenBabel10232411363D

 48 54  0  0  1  0  0  0  0  0999 V2000
  191.0140  176.9570  140.9820 C   0  0  0  0  0  3  0  0  0  0  0  0
  189.6440  177.2740  142.9820 C   0  0  0  0  0  0  0  0  0  0  0  0
  186.0770  178.2570  143.3380 C   0  0  0  0  0  0  0  0  0  0  0  0
  188.4010  177.6010  143.5560 C   0  0  0  0  0  0  0  0  0  0  0  0
  189.7870  177.2760  141.5770 C   0  0  0  0  0  0  0  0  0  0  0  0
  184.7840  178.5550  145.3800 C   0  0  0  0  0  3  0  0  0  0  0  0
  191.1550  176.9560  139.5980 C   0  0  0  0  0  3  0  0  0  0  0  0
  182.4940  179.1980  145.2360 F   0  0  0  0  0  0  0  0  0  0  0  0
  187.3030  177.9330  142.7350 C   0  0  0  0  0  0  0  0  0  0  0  0
  185.9890  178.2380  144.7460 C   0  0  0  0  0  0  0  0  0  0  0  0
  188.6840  177.6070  140.7490 C   0  0  0  0  0  0  0  0  0  0  0  0
  188.8230  177.6090  139.3410 C   0  0  0  0  0  0  0  0  0  0  0  0
  190.0740  177.2700  138.7700 C   0  0  0  0  0  0  0  0  0  0  0  0
  183.6610  178.8920  144.6200 C   0  0  0  0  0  0  0  0  0  0  0  0
  187.0790  177.9120  145.4840 N   0  0  0  0  0  0  0  0  0  0  0  0
  188.2430  177.6050  144.9100 N   0  0  0  0  0  0  0  0  0  0  0  0
  184.9400  178.5970  142.5850 C   0  0  0  0  0  3  0  0  0  0  0  0
  187.4570  177.9310  141.3450 C   0  0  0  0  0  3  0  0  0  0  0  0
  183.7380  178.9120  143.2240 C   0  0  0  0  0  3  0  0  0  0  0  0
  186.3660  177.2910  136.8300 N   0  0  0  0  0  2  0  0  0  0  0  0
  187.6350  177.9920  138.4860 C   0  0  1  0  0  3  0  0  0  0  0  0
  188.0200  178.8860  137.3410 C   0  0  0  0  0  2  0  0  0  0  0  0
  187.2060  178.3150  136.2260 C   0  0  0  0  0  2  0  0  0  0  0  0
  186.9930  176.8620  137.9620 O   0  0  0  0  0  0  0  0  0  0  0  0
  191.6550  176.6710  144.5260 N   0  0  0  0  0  0  0  0  0  0  0  0
  190.7620  176.9390  143.8390 C   0  0  0  0  0  0  0  0  0  0  0  0
  190.2920  177.2550  137.2850 C   0  0  0  0  0  2  0  0  0  0  0  0
  189.4820  173.5970  136.6960 C   0  0  0  0  0  0  0  0  0  0  0  0
  191.4020  174.1930  135.3450 C   0  0  0  0  0  0  0  0  0  0  0  0
  188.5830  172.6740  137.1140 F   0  0  0  0  0  0  0  0  0  0  0  0
  191.3380  175.5020  135.8340 C   0  0  0  0  0  3  0  0  0  0  0  0
  189.4200  174.9050  137.1860 C   0  0  0  0  0  3  0  0  0  0  0  0
  190.3460  175.8610  136.7540 C   0  0  0  0  0  0  0  0  0  0  0  0
  190.4710  173.2410  135.7750 C   0  0  0  0  0  3  0  0  0  0  0  0
  192.4500  173.8140  134.3530 C   0  0  0  0  0  2  0  0  0  0  0  0
  194.4960  173.6720  135.8460 C   0  0  0  0  0  0  0  0  0  0  0  0
  193.9980  172.7080  136.4880 O   0  0  0  0  0  0  0  0  0  0  0  0
  197.9610  174.2680  136.9670 C   0  0  0  0  0  0  0  0  0  0  0  0
  197.8800  175.1670  135.9880 C   0  0  0  0  0  3  0  0  0  0  0  0
  196.5050  175.1690  135.4090 C   0  0  0  0  0  2  0  0  0  0  0  0
  193.7570  174.2880  134.7870 N   0  0  0  0  0  2  0  0  0  0  0  0
  195.8040  174.1530  136.1780 N   0  0  0  0  0  0  0  0  0  0  0  0
  196.6650  173.5670  137.1950 C   0  0  2  0  0  3  0  0  0  0  0  0
  196.4030  175.0840  139.1750 O   0  0  0  0  0  1  0  0  0  0  0  0
  195.4570  172.9970  139.1720 O   0  0  0  0  0  0  0  0  0  0  0  0
  196.1370  173.8640  138.5640 C   0  0  0  0  0  0  0  0  0  0  0  0
  200.0480  172.9440  137.0940 C   0  0  0  0  0  1  0  0  0  0  0  0
  199.2030  174.0140  137.7590 C   0  0  0  0  0  2  0  0  0  0  0  0
  1  5  1  0  0  0  0
  2  4  1  0  0  0  0
  2 26  1  0  0  0  0
  3 10  1  0  0  0  0
  4 16  1  0  0  0  0
  5  2  2  0  0  0  0
  7  1  2  0  0  0  0
  9  3  1  0  0  0  0
  9  4  2  0  0  0  0
 10  6  2  0  0  0  0
 10 15  1  0  0  0  0
 11 18  2  0  0  0  0
 11  5  1  0  0  0  0
 12 11  1  0  0  0  0
 13 12  2  0  0  0  0
 13  7  1  0  0  0  0
 14  8  1  0  0  0  0
 14  6  1  0  0  0  0
 16 15  2  0  0  0  0
 17 19  1  0  0  0  0
 17  3  2  0  0  0  0
 18  9  1  0  0  0  0
 19 14  2  0  0  0  0
 20 24  1  0  0  0  0
 21 12  1  6  0  0  0
 22 21  1  0  0  0  0
 23 20  1  0  0  0  0
 23 22  1  0  0  0  0
 24 21  1  0  0  0  0
 26 25  3  0  0  0  0
 27 13  1  0  0  0  0
 28 30  1  0  0  0  0
 28 32  1  0  0  0  0
 29 34  1  0  0  0  0
 29 31  2  0  0  0  0
 31 33  1  0  0  0  0
 33 32  2  0  0  0  0
 33 27  1  0  0  0  0
 34 28  2  0  0  0  0
 35 41  1  0  0  0  0
 35 29  1  0  0  0  0
 36 42  1  0  0  0  0
 36 37  2  0  0  0  0
 38 43  1  0  0  0  0
 38 48  1  0  0  0  0
 39 38  2  0  0  0  0
 40 39  1  0  0  0  0
 40 42  1  0  0  0  0
 41 36  1  0  0  0  0
 42 43  1  0  0  0  0
 43 46  1  1  0  0  0
 46 45  2  0  0  0  0
 46 44  1  0  0  0  0
 47 48  1  0  0  0  0
M  END
>  <MODEL>
4

>  <REMARK>
 VINA RESULT:      -9.4      3.893      8.026
  Name = 
  8 active torsions:
  status: ('A' for Active; 'I' for Inactive)
    1  A    between atoms: C_4  and  C_27
    2  A    between atoms: C_5  and  C_43
    3  A    between atoms: C_9  and  C_11
    4  A    between atoms: C_9  and  N_42
    5  A    between atoms: C_26  and  C_37
    6  A    between atoms: C_28  and  C_48
    7  A    between atoms: C_30  and  C_37
    8  A    between atoms: C_36  and  C_47
                            x       y       z     vdW  Elec       q    Type
                         _______ _______ _______ _____ _____    ______ ____

>  <TORSDO>
F 8

$$$$
=
 OpenBabel10232411363D

 48 54  0  0  1  0  0  0  0  0999 V2000
  187.2890  178.3410  139.7760 C   0  0  0  0  0  3  0  0  0  0  0  0
  189.2860  177.7010  141.0320 C   0  0  0  0  0  0  0  0  0  0  0  0
  189.7840  177.1680  144.6770 C   0  0  0  0  0  0  0  0  0  0  0  0
  189.8960  177.4090  142.2670 C   0  0  0  0  0  0  0  0  0  0  0  0
  187.9170  178.0440  140.9920 C   0  0  0  0  0  0  0  0  0  0  0  0
  191.8190  176.5310  145.8510 C   0  0  0  0  0  3  0  0  0  0  0  0
  185.9390  178.6760  139.7350 C   0  0  0  0  0  3  0  0  0  0  0  0
  191.7770  176.2770  148.2210 F   0  0  0  0  0  0  0  0  0  0  0  0
  189.1460  177.4620  143.4600 C   0  0  0  0  0  0  0  0  0  0  0  0
  191.1530  176.8300  144.6600 C   0  0  0  0  0  0  0  0  0  0  0  0
  187.1610  178.0950  142.1910 C   0  0  0  0  0  0  0  0  0  0  0  0
  185.7880  178.4370  142.1550 C   0  0  0  0  0  0  0  0  0  0  0  0
  185.1790  178.7200  140.9070 C   0  0  0  0  0  0  0  0  0  0  0  0
  191.1300  176.5670  147.0660 C   0  0  0  0  0  0  0  0  0  0  0  0
  191.8230  176.7960  143.4800 N   0  0  0  0  0  0  0  0  0  0  0  0
  191.2160  177.0760  142.3260 N   0  0  0  0  0  0  0  0  0  0  0  0
  189.1010  177.2000  145.9050 C   0  0  0  0  0  3  0  0  0  0  0  0
  187.7900  177.8030  143.4080 C   0  0  0  0  0  3  0  0  0  0  0  0
  189.7720  176.9000  147.0940 C   0  0  0  0  0  3  0  0  0  0  0  0
  182.9760  178.5840  144.2800 N   0  0  0  0  0  2  0  0  0  0  0  0
  185.0150  178.5090  143.4520 C   0  0  1  0  0  3  0  0  0  0  0  0
  184.8920  179.9160  143.9670 C   0  0  0  0  0  2  0  0  0  0  0  0
  183.4720  179.9440  144.4300 C   0  0  0  0  0  2  0  0  0  0  0  0
  183.7240  177.9800  143.3130 O   0  0  0  0  0  0  0  0  0  0  0  0
  190.6970  177.6010  138.8430 N   0  0  0  0  0  0  0  0  0  0  0  0
  190.0710  177.6450  139.8160 C   0  0  0  0  0  0  0  0  0  0  0  0
  183.7290  179.0930  140.7970 C   0  0  0  0  0  2  0  0  0  0  0  0
  181.1560  176.6350  139.4840 C   0  0  0  0  0  0  0  0  0  0  0  0
  182.7950  177.0430  137.7470 C   0  0  0  0  0  0  0  0  0  0  0  0
  180.0340  176.0100  139.9140 F   0  0  0  0  0  0  0  0  0  0  0  0
  183.4730  177.9250  138.5970 C   0  0  0  0  0  3  0  0  0  0  0  0
  181.8350  177.5150  140.3320 C   0  0  0  0  0  3  0  0  0  0  0  0
  182.9930  178.1640  139.8890 C   0  0  0  0  0  0  0  0  0  0  0  0
  181.6350  176.4000  138.1920 C   0  0  0  0  0  3  0  0  0  0  0  0
  183.2980  176.8000  136.3640 C   0  0  0  0  0  2  0  0  0  0  0  0
  185.7970  176.3810  136.4700 C   0  0  0  0  0  0  0  0  0  0  0  0
  186.0360  177.6190  136.4620 O   0  0  0  0  0  0  0  0  0  0  0  0
  188.9330  174.5030  136.9800 C   0  0  0  0  0  0  0  0  0  0  0  0
  188.0620  173.4950  136.9720 C   0  0  0  0  0  3  0  0  0  0  0  0
  186.6880  174.0100  136.6990 C   0  0  0  0  0  2  0  0  0  0  0  0
  184.4490  175.9090  136.3900 N   0  0  0  0  0  2  0  0  0  0  0  0
  186.8780  175.4450  136.5540 N   0  0  0  0  0  0  0  0  0  0  0  0
  188.2790  175.8130  136.6950 C   0  0  2  0  0  3  0  0  0  0  0  0
  189.2880  177.6980  135.3830 O   0  0  0  0  0  1  0  0  0  0  0  0
  188.7820  175.7080  134.3650 O   0  0  0  0  0  0  0  0  0  0  0  0
  188.7990  176.3970  135.4180 C   0  0  0  0  0  0  0  0  0  0  0  0
  191.0250  173.4990  136.1190 C   0  0  0  0  0  1  0  0  0  0  0  0
  190.3980  174.3310  137.2220 C   0  0  0  0  0  2  0  0  0  0  0  0
  1  5  1  0  0  0  0
  2  4  1  0  0  0  0
  3 17  1  0  0  0  0
  4 16  2  0  0  0  0
  4  9  1  0  0  0  0
  5  2  2  0  0  0  0
  5 11  1  0  0  0  0
  6 14  2  0  0  0  0
  7  1  2  0  0  0  0
  7 13  1  0  0  0  0
  9  3  2  0  0  0  0
 10  3  1  0  0  0  0
 10  6  1  0  0  0  0
 11 18  2  0  0  0  0
 12 11  1  0  0  0  0
 13 12  2  0  0  0  0
 14 19  1  0  0  0  0
 14  8  1  0  0  0  0
 15 10  2  0  0  0  0
 16 15  1  0  0  0  0
 17 19  2  0  0  0  0
 18  9  1  0  0  0  0
 20 23  1  0  0  0  0
 21 12  1  6  0  0  0
 21 22  1  0  0  0  0
 22 23  1  0  0  0  0
 24 21  1  0  0  0  0
 24 20  1  0  0  0  0
 25 26  3  0  0  0  0
 26  2  1  0  0  0  0
 27 13  1  0  0  0  0
 28 30  1  0  0  0  0
 28 32  1  0  0  0  0
 29 34  1  0  0  0  0
 29 31  2  0  0  0  0
 31 33  1  0  0  0  0
 33 32  2  0  0  0  0
 33 27  1  0  0  0  0
 34 28  2  0  0  0  0
 35 41  1  0  0  0  0
 35 29  1  0  0  0  0
 36 42  1  0  0  0  0
 37 36  2  0  0  0  0
 38 48  1  0  0  0  0
 39 38  2  0  0  0  0
 40 39  1  0  0  0  0
 41 36  1  0  0  0  0
 42 43  1  0  0  0  0
 42 40  1  0  0  0  0
 43 46  1  6  0  0  0
 43 38  1  0  0  0  0
 44 46  1  0  0  0  0
 45 46  2  0  0  0  0
 47 48  1  0  0  0  0
M  END
>  <MODEL>
5

>  <REMARK>
 VINA RESULT:      -9.2      2.950      6.390
  Name = 
  8 active torsions:
  status: ('A' for Active; 'I' for Inactive)
    1  A    between atoms: C_4  and  C_27
    2  A    between atoms: C_5  and  C_43
    3  A    between atoms: C_9  and  C_11
    4  A    between atoms: C_9  and  N_42
    5  A    between atoms: C_26  and  C_37
    6  A    between atoms: C_28  and  C_48
    7  A    between atoms: C_30  and  C_37
    8  A    between atoms: C_36  and  C_47
                            x       y       z     vdW  Elec       q    Type
                         _______ _______ _______ _____ _____    ______ ____

>  <TORSDO>
F 8

$$$$
=
 OpenBabel10232411363D

 48 54  0  0  1  0  0  0  0  0999 V2000
  184.2650  178.6600  140.5680 C   0  0  0  0  0  3  0  0  0  0  0  0
  184.2700  178.5990  143.0120 C   0  0  0  0  0  0  0  0  0  0  0  0
  187.0770  178.2000  145.4160 C   0  0  0  0  0  0  0  0  0  0  0  0
  184.9880  178.4820  144.2170 C   0  0  0  0  0  0  0  0  0  0  0  0
  184.9580  178.5500  141.7800 C   0  0  0  0  0  0  0  0  0  0  0  0
  186.9930  178.1460  147.8480 C   0  0  0  0  0  3  0  0  0  0  0  0
  184.9430  178.6150  139.3540 C   0  0  0  0  0  3  0  0  0  0  0  0
  189.0100  177.8710  149.0870 F   0  0  0  0  0  0  0  0  0  0  0  0
  186.3890  178.3150  144.1960 C   0  0  0  0  0  0  0  0  0  0  0  0
  186.3410  178.2570  146.6170 C   0  0  0  0  0  0  0  0  0  0  0  0
  186.3660  178.3840  141.7580 C   0  0  0  0  0  0  0  0  0  0  0  0
  187.0600  178.3350  140.5250 C   0  0  0  0  0  0  0  0  0  0  0  0
  186.3310  178.4620  139.3170 C   0  0  0  0  0  0  0  0  0  0  0  0
  188.3800  177.9780  147.8930 C   0  0  0  0  0  0  0  0  0  0  0  0
  184.9950  178.4190  146.5740 N   0  0  0  0  0  0  0  0  0  0  0  0
  184.3420  178.5270  145.4160 N   0  0  0  0  0  0  0  0  0  0  0  0
  188.4710  178.0320  145.4730 C   0  0  0  0  0  3  0  0  0  0  0  0
  187.0590  178.2690  142.9700 C   0  0  0  0  0  3  0  0  0  0  0  0
  189.1180  177.9220  146.7070 C   0  0  0  0  0  3  0  0  0  0  0  0
  190.2970  177.8380  139.2150 N   0  0  0  0  0  2  0  0  0  0  0  0
  188.5580  178.1310  140.5330 C   0  0  1  0  0  3  0  0  0  0  0  0
  188.9380  176.6940  140.7600 C   0  0  0  0  0  2  0  0  0  0  0  0
  190.0550  176.5200  139.7830 C   0  0  0  0  0  2  0  0  0  0  0  0
  189.1420  178.5530  139.3300 O   0  0  0  0  0  0  0  0  0  0  0  0
  181.6830  178.9040  143.0820 N   0  0  0  0  0  0  0  0  0  0  0  0
  182.8320  178.7680  143.0500 C   0  0  0  0  0  0  0  0  0  0  0  0
  187.0020  178.4160  137.9750 C   0  0  0  0  0  2  0  0  0  0  0  0
  185.3180  175.5510  136.1470 C   0  0  0  0  0  0  0  0  0  0  0  0
  187.6220  174.9420  136.5880 C   0  0  0  0  0  0  0  0  0  0  0  0
  184.1030  175.2460  135.6330 F   0  0  0  0  0  0  0  0  0  0  0  0
  187.8280  176.1790  137.2080 C   0  0  0  0  0  3  0  0  0  0  0  0
  185.5250  176.7860  136.7680 C   0  0  0  0  0  3  0  0  0  0  0  0
  186.7810  177.1040  137.2980 C   0  0  0  0  0  0  0  0  0  0  0  0
  186.3660  174.6300  136.0550 C   0  0  0  0  0  3  0  0  0  0  0  0
  188.7420  173.9630  136.4780 C   0  0  0  0  0  2  0  0  0  0  0  0
  191.2230  174.4840  136.5600 C   0  0  0  0  0  0  0  0  0  0  0  0
  191.3550  173.8340  137.6330 O   0  0  0  0  0  0  0  0  0  0  0  0
  194.5290  175.5840  135.3460 C   0  0  0  0  0  0  0  0  0  0  0  0
  193.7630  176.0230  134.3490 C   0  0  0  0  0  3  0  0  0  0  0  0
  192.3270  175.7540  134.6530 C   0  0  0  0  0  2  0  0  0  0  0  0
  189.9340  174.6110  135.9520 N   0  0  0  0  0  2  0  0  0  0  0  0
  192.3640  175.0990  135.9520 N   0  0  0  0  0  0  0  0  0  0  0  0
  193.7260  174.9870  136.4520 C   0  0  2  0  0  3  0  0  0  0  0  0
  193.1500  176.9380  137.9180 O   0  0  0  0  0  0  0  0  0  0  0  0
  194.7140  175.4020  138.5840 O   0  0  0  0  0  1  0  0  0  0  0  0
  193.8900  175.7800  137.7110 C   0  0  0  0  0  0  0  0  0  0  0  0
  196.6530  174.3760  135.7400 C   0  0  0  0  0  1  0  0  0  0  0  0
  196.0200  175.7010  135.3600 C   0  0  0  0  0  2  0  0  0  0  0  0
  1  5  1  0  0  0  0
  2 26  1  0  0  0  0
  2  4  1  0  0  0  0
  3 17  2  0  0  0  0
  3 10  1  0  0  0  0
  4 16  1  0  0  0  0
  5  2  2  0  0  0  0
  6 14  1  0  0  0  0
  7  1  2  0  0  0  0
  9  4  2  0  0  0  0
  9  3  1  0  0  0  0
 10  6  2  0  0  0  0
 11  5  1  0  0  0  0
 11 18  2  0  0  0  0
 12 11  1  0  0  0  0
 13  7  1  0  0  0  0
 13 12  2  0  0  0  0
 14  8  1  0  0  0  0
 15 10  1  0  0  0  0
 16 15  2  0  0  0  0
 17 19  1  0  0  0  0
 18  9  1  0  0  0  0
 19 14  2  0  0  0  0
 20 24  1  0  0  0  0
 20 23  1  0  0  0  0
 21 12  1  6  0  0  0
 21 22  1  0  0  0  0
 23 22  1  0  0  0  0
 24 21  1  0  0  0  0
 26 25  3  0  0  0  0
 27 13  1  0  0  0  0
 28 32  1  0  0  0  0
 29 31  2  0  0  0  0
 30 28  1  0  0  0  0
 31 33  1  0  0  0  0
 32 33  2  0  0  0  0
 33 27  1  0  0  0  0
 34 28  2  0  0  0  0
 34 29  1  0  0  0  0
 35 29  1  0  0  0  0
 36 37  2  0  0  0  0
 38 48  1  0  0  0  0
 38 43  1  0  0  0  0
 39 40  1  0  0  0  0
 39 38  2  0  0  0  0
 40 42  1  0  0  0  0
 41 35  1  0  0  0  0
 41 36  1  0  0  0  0
 42 43  1  0  0  0  0
 42 36  1  0  0  0  0
 43 46  1  1  0  0  0
 46 44  2  0  0  0  0
 46 45  1  0  0  0  0
 48 47  1  0  0  0  0
M  END
>  <MODEL>
6

>  <REMARK>
 VINA RESULT:      -9.1      3.221      6.302
  Name = 
  8 active torsions:
  status: ('A' for Active; 'I' for Inactive)
    1  A    between atoms: C_4  and  C_27
    2  A    between atoms: C_5  and  C_43
    3  A    between atoms: C_9  and  C_11
    4  A    between atoms: C_9  and  N_42
    5  A    between atoms: C_26  and  C_37
    6  A    between atoms: C_28  and  C_48
    7  A    between atoms: C_30  and  C_37
    8  A    between atoms: C_36  and  C_47
                            x       y       z     vdW  Elec       q    Type
                         _______ _______ _______ _____ _____    ______ ____

>  <TORSDO>
F 8

$$$$
=
 OpenBabel10232411363D

 48 54  0  0  1  0  0  0  0  0999 V2000
  188.1930  178.0430  139.9620 C   0  0  0  0  0  3  0  0  0  0  0  0
  189.3340  177.6560  142.0900 C   0  0  0  0  0  0  0  0  0  0  0  0
  188.1240  178.0290  145.5850 C   0  0  0  0  0  0  0  0  0  0  0  0
  189.3010  177.6580  143.4970 C   0  0  0  0  0  0  0  0  0  0  0  0
  188.1830  178.0330  141.3630 C   0  0  0  0  0  0  0  0  0  0  0  0
  189.3350  177.6240  147.6590 C   0  0  0  0  0  3  0  0  0  0  0  0
  187.0590  178.4100  139.2450 C   0  0  0  0  0  3  0  0  0  0  0  0
  188.2380  177.9690  149.7460 F   0  0  0  0  0  0  0  0  0  0  0  0
  188.1260  178.0360  144.1800 C   0  0  0  0  0  0  0  0  0  0  0  0
  189.3000  177.6430  146.2610 C   0  0  0  0  0  0  0  0  0  0  0  0
  187.0000  178.4110  142.0480 C   0  0  0  0  0  0  0  0  0  0  0  0
  185.8450  178.7880  141.3230 C   0  0  0  0  0  0  0  0  0  0  0  0
  185.8830  178.7760  139.9070 C   0  0  0  0  0  0  0  0  0  0  0  0
  188.2020  177.9880  148.3920 C   0  0  0  0  0  0  0  0  0  0  0  0
  190.4010  177.2900  145.5500 N   0  0  0  0  0  0  0  0  0  0  0  0
  190.4000  177.2970  144.2170 N   0  0  0  0  0  0  0  0  0  0  0  0
  186.9920  178.3920  146.3330 C   0  0  0  0  0  3  0  0  0  0  0  0
  186.9920  178.4060  143.4490 C   0  0  0  0  0  3  0  0  0  0  0  0
  187.0320  178.3710  147.7300 C   0  0  0  0  0  3  0  0  0  0  0  0
  183.8790  179.7650  144.0850 N   0  0  0  0  0  2  0  0  0  0  0  0
  184.6080  179.2110  142.0820 C   0  0  1  0  0  3  0  0  0  0  0  0
  183.7580  178.0390  142.4880 C   0  0  0  0  0  2  0  0  0  0  0  0
  183.3660  178.4190  143.8790 C   0  0  0  0  0  2  0  0  0  0  0  0
  184.9340  179.9350  143.2370 O   0  0  0  0  0  0  0  0  0  0  0  0
  191.5210  176.9590  140.8560 N   0  0  0  0  0  0  0  0  0  0  0  0
  190.5490  177.2680  141.4040 C   0  0  0  0  0  0  0  0  0  0  0  0
  184.6960  179.1670  139.0760 C   0  0  0  0  0  2  0  0  0  0  0  0
  182.4830  176.1750  138.3390 C   0  0  0  0  0  0  0  0  0  0  0  0
  184.0610  176.4400  136.5190 C   0  0  0  0  0  0  0  0  0  0  0  0
  181.4540  175.5060  138.9110 F   0  0  0  0  0  0  0  0  0  0  0  0
  184.6090  177.5570  137.1600 C   0  0  0  0  0  3  0  0  0  0  0  0
  183.0340  177.2900  138.9790 C   0  0  0  0  0  3  0  0  0  0  0  0
  184.0960  177.9840  138.3890 C   0  0  0  0  0  0  0  0  0  0  0  0
  182.9950  175.7520  137.1090 C   0  0  0  0  0  3  0  0  0  0  0  0
  184.5980  175.9940  135.2010 C   0  0  0  0  0  2  0  0  0  0  0  0
  187.0220  175.2780  135.4100 C   0  0  0  0  0  0  0  0  0  0  0  0
  186.6810  174.1340  135.8170 O   0  0  0  0  0  0  0  0  0  0  0  0
  190.6780  175.3970  134.9240 C   0  0  0  0  0  0  0  0  0  0  0  0
  190.3510  176.6130  134.4900 C   0  0  0  0  0  3  0  0  0  0  0  0
  188.8850  176.8380  134.6600 C   0  0  0  0  0  2  0  0  0  0  0  0
  186.0260  176.2620  135.1160 N   0  0  0  0  0  2  0  0  0  0  0  0
  188.4090  175.5940  135.2450 N   0  0  0  0  0  0  0  0  0  0  0  0
  189.5000  174.6550  135.4590 C   0  0  2  0  0  3  0  0  0  0  0  0
  189.9780  175.4010  137.8060 O   0  0  0  0  0  1  0  0  0  0  0  0
  189.5510  173.1970  137.3470 O   0  0  0  0  0  0  0  0  0  0  0  0
  189.6720  174.3750  136.9200 C   0  0  0  0  0  0  0  0  0  0  0  0
  193.0140  175.7760  135.6490 C   0  0  0  0  0  1  0  0  0  0  0  0
  192.0710  174.8550  134.8980 C   0  0  0  0  0  2  0  0  0  0  0  0
  1  5  1  0  0  0  0
  2  4  1  0  0  0  0
  3 10  2  0  0  0  0
  3 17  1  0  0  0  0
  4  9  2  0  0  0  0
  4 16  1  0  0  0  0
  5 11  1  0  0  0  0
  5  2  2  0  0  0  0
  6 14  2  0  0  0  0
  7 13  1  0  0  0  0
  7  1  2  0  0  0  0
  9  3  1  0  0  0  0
 10  6  1  0  0  0  0
 11 18  2  0  0  0  0
 12 11  1  0  0  0  0
 13 12  2  0  0  0  0
 14  8  1  0  0  0  0
 15 10  1  0  0  0  0
 16 15  2  0  0  0  0
 17 19  2  0  0  0  0
 18  9  1  0  0  0  0
 19 14  1  0  0  0  0
 21 12  1  1  0  0  0
 21 22  1  0  0  0  0
 21 24  1  0  0  0  0
 22 23  1  0  0  0  0
 23 20  1  0  0  0  0
 24 20  1  0  0  0  0
 25 26  3  0  0  0  0
 26  2  1  0  0  0  0
 27 13  1  0  0  0  0
 28 30  1  0  0  0  0
 28 32  1  0  0  0  0
 29 34  1  0  0  0  0
 29 31  2  0  0  0  0
 31 33  1  0  0  0  0
 33 32  2  0  0  0  0
 33 27  1  0  0  0  0
 34 28  2  0  0  0  0
 35 29  1  0  0  0  0
 36 37  2  0  0  0  0
 38 43  1  0  0  0  0
 39 40  1  0  0  0  0
 39 38  2  0  0  0  0
 40 42  1  0  0  0  0
 41 35  1  0  0  0  0
 41 36  1  0  0  0  0
 42 36  1  0  0  0  0
 42 43  1  0  0  0  0
 43 46  1  1  0  0  0
 46 45  2  0  0  0  0
 46 44  1  0  0  0  0
 48 38  1  0  0  0  0
 48 47  1  0  0  0  0
M  END
>  <MODEL>
7

>  <REMARK>
 VINA RESULT:      -8.9      2.732      6.119
  Name = 
  8 active torsions:
  status: ('A' for Active; 'I' for Inactive)
    1  A    between atoms: C_4  and  C_27
    2  A    between atoms: C_5  and  C_43
    3  A    between atoms: C_9  and  C_11
    4  A    between atoms: C_9  and  N_42
    5  A    between atoms: C_26  and  C_37
    6  A    between atoms: C_28  and  C_48
    7  A    between atoms: C_30  and  C_37
    8  A    between atoms: C_36  and  C_47
                            x       y       z     vdW  Elec       q    Type
                         _______ _______ _______ _____ _____    ______ ____

>  <TORSDO>
F 8

$$$$
=
 OpenBabel10232411363D

 48 54  0  0  1  0  0  0  0  0999 V2000
  187.3480  178.3570  139.4120 C   0  0  0  0  0  3  0  0  0  0  0  0
  186.2450  178.6160  141.5780 C   0  0  0  0  0  0  0  0  0  0  0  0
  187.4720  177.9170  145.0160 C   0  0  0  0  0  0  0  0  0  0  0  0
  186.2910  178.5010  142.9800 C   0  0  0  0  0  0  0  0  0  0  0  0
  187.3720  178.2530  140.8090 C   0  0  0  0  0  0  0  0  0  0  0  0
  186.3000  178.2020  147.1310 C   0  0  0  0  0  3  0  0  0  0  0  0
  188.4590  178.0030  138.6530 C   0  0  0  0  0  3  0  0  0  0  0  0
  187.4020  177.6470  149.1700 F   0  0  0  0  0  0  0  0  0  0  0  0
  187.4570  178.0230  143.6160 C   0  0  0  0  0  0  0  0  0  0  0  0
  186.3200  178.2940  145.7370 C   0  0  0  0  0  0  0  0  0  0  0  0
  188.5450  177.7750  141.4460 C   0  0  0  0  0  0  0  0  0  0  0  0
  189.6770  177.4120  140.6780 C   0  0  0  0  0  0  0  0  0  0  0  0
  189.6260  177.5390  139.2680 C   0  0  0  0  0  0  0  0  0  0  0  0
  187.4230  177.7360  147.8180 C   0  0  0  0  0  0  0  0  0  0  0  0
  185.2280  178.7460  145.0700 N   0  0  0  0  0  0  0  0  0  0  0  0
  185.2140  178.8450  143.7410 N   0  0  0  0  0  0  0  0  0  0  0  0
  188.5970  177.4500  145.7180 C   0  0  0  0  0  3  0  0  0  0  0  0
  188.5670  177.6680  142.8430 C   0  0  0  0  0  3  0  0  0  0  0  0
  188.5710  177.3600  147.1130 C   0  0  0  0  0  3  0  0  0  0  0  0
  191.5670  175.8390  143.2080 N   0  0  0  0  0  2  0  0  0  0  0  0
  190.9040  176.8810  141.3850 C   0  0  1  0  0  3  0  0  0  0  0  0
  191.6220  177.9480  142.1620 C   0  0  0  0  0  2  0  0  0  0  0  0
  191.9690  177.2220  143.4210 C   0  0  0  0  0  2  0  0  0  0  0  0
  190.5800  175.8400  142.2670 O   0  0  0  0  0  0  0  0  0  0  0  0
  184.0780  179.4990  140.4310 N   0  0  0  0  0  0  0  0  0  0  0  0
  185.0390  179.1060  140.9410 C   0  0  0  0  0  0  0  0  0  0  0  0
  190.7870  177.1690  138.3940 C   0  0  0  0  0  2  0  0  0  0  0  0
  191.0120  173.8170  136.6320 C   0  0  0  0  0  0  0  0  0  0  0  0
  189.0090  174.9550  135.8820 C   0  0  0  0  0  0  0  0  0  0  0  0
  191.8360  172.7430  136.5900 F   0  0  0  0  0  0  0  0  0  0  0  0
  189.3110  176.0350  136.7190 C   0  0  0  0  0  3  0  0  0  0  0  0
  191.3130  174.8980  137.4670 C   0  0  0  0  0  3  0  0  0  0  0  0
  190.4620  176.0070  137.5140 C   0  0  0  0  0  0  0  0  0  0  0  0
  189.8600  173.8460  135.8410 C   0  0  0  0  0  3  0  0  0  0  0  0
  187.7740  174.9780  135.0450 C   0  0  0  0  0  2  0  0  0  0  0  0
  185.3610  174.5760  135.7170 C   0  0  0  0  0  0  0  0  0  0  0  0
  185.0190  175.7080  135.2810 O   0  0  0  0  0  0  0  0  0  0  0  0
  182.3740  172.6830  136.7710 C   0  0  0  0  0  0  0  0  0  0  0  0
  183.3130  171.7610  136.9770 C   0  0  0  0  0  3  0  0  0  0  0  0
  184.6600  172.3300  136.6840 C   0  0  0  0  0  2  0  0  0  0  0  0
  186.7310  174.1670  135.6560 N   0  0  0  0  0  2  0  0  0  0  0  0
  184.3780  173.6980  136.2780 N   0  0  0  0  0  0  0  0  0  0  0  0
  182.9530  173.9870  136.3380 C   0  0  2  0  0  3  0  0  0  0  0  0
  181.8010  176.0920  137.0680 O   0  0  0  0  0  0  0  0  0  0  0  0
  183.2520  175.0110  138.4730 O   0  0  0  0  0  1  0  0  0  0  0  0
  182.6760  175.0520  137.3550 C   0  0  0  0  0  0  0  0  0  0  0  0
  180.4690  171.2020  136.2200 C   0  0  0  0  0  1  0  0  0  0  0  0
  180.9130  172.4400  136.9760 C   0  0  0  0  0  2  0  0  0  0  0  0
  1  5  1  0  0  0  0
  2  4  1  0  0  0  0
  3 17  2  0  0  0  0
  3 10  1  0  0  0  0
  4  9  2  0  0  0  0
  4 16  1  0  0  0  0
  5 11  1  0  0  0  0
  5  2  2  0  0  0  0
  6 14  1  0  0  0  0
  7 13  1  0  0  0  0
  7  1  2  0  0  0  0
  9  3  1  0  0  0  0
 10  6  2  0  0  0  0
 11 18  2  0  0  0  0
 12 11  1  0  0  0  0
 13 12  2  0  0  0  0
 14  8  1  0  0  0  0
 15 10  1  0  0  0  0
 16 15  2  0  0  0  0
 17 19  1  0  0  0  0
 18  9  1  0  0  0  0
 19 14  2  0  0  0  0
 20 23  1  0  0  0  0
 21 12  1  1  0  0  0
 21 22  1  0  0  0  0
 21 24  1  0  0  0  0
 22 23  1  0  0  0  0
 24 20  1  0  0  0  0
 25 26  3  0  0  0  0
 26  2  1  0  0  0  0
 27 13  1  0  0  0  0
 28 32  1  0  0  0  0
 29 31  2  0  0  0  0
 30 28  1  0  0  0  0
 31 33  1  0  0  0  0
 32 33  2  0  0  0  0
 33 27  1  0  0  0  0
 34 29  1  0  0  0  0
 34 28  2  0  0  0  0
 35 41  1  0  0  0  0
 35 29  1  0  0  0  0
 36 42  1  0  0  0  0
 37 36  2  0  0  0  0
 38 48  1  0  0  0  0
 38 39  2  0  0  0  0
 40 39  1  0  0  0  0
 41 36  1  0  0  0  0
 42 43  1  0  0  0  0
 42 40  1  0  0  0  0
 43 38  1  0  0  0  0
 43 46  1  1  0  0  0
 44 46  2  0  0  0  0
 46 45  1  0  0  0  0
 47 48  1  0  0  0  0
M  END
>  <MODEL>
8

>  <REMARK>
 VINA RESULT:      -8.8      1.288      2.015
  Name = 
  8 active torsions:
  status: ('A' for Active; 'I' for Inactive)
    1  A    between atoms: C_4  and  C_27
    2  A    between atoms: C_5  and  C_43
    3  A    between atoms: C_9  and  C_11
    4  A    between atoms: C_9  and  N_42
    5  A    between atoms: C_26  and  C_37
    6  A    between atoms: C_28  and  C_48
    7  A    between atoms: C_30  and  C_37
    8  A    between atoms: C_36  and  C_47
                            x       y       z     vdW  Elec       q    Type
                         _______ _______ _______ _____ _____    ______ ____

>  <TORSDO>
F 8

$$$$
=
 OpenBabel10232411363D

 48 54  0  0  1  0  0  0  0  0999 V2000
  185.0380  178.6480  140.8840 C   0  0  0  0  0  3  0  0  0  0  0  0
  185.7230  178.2950  143.2050 C   0  0  0  0  0  0  0  0  0  0  0  0
  189.0310  177.3960  144.6410 C   0  0  0  0  0  0  0  0  0  0  0  0
  186.7330  177.9810  144.1330 C   0  0  0  0  0  0  0  0  0  0  0  0
  186.0280  178.3410  141.8270 C   0  0  0  0  0  0  0  0  0  0  0  0
  189.6280  177.0590  146.9770 C   0  0  0  0  0  3  0  0  0  0  0  0
  185.3400  178.6960  139.5270 C   0  0  0  0  0  3  0  0  0  0  0  0
  191.8690  176.4820  147.5460 F   0  0  0  0  0  0  0  0  0  0  0  0
  188.0450  177.7090  143.6910 C   0  0  0  0  0  0  0  0  0  0  0  0
  188.6720  177.3660  146.0040 C   0  0  0  0  0  0  0  0  0  0  0  0
  187.3470  178.0700  141.3810 C   0  0  0  0  0  0  0  0  0  0  0  0
  187.6570  178.1150  140.0010 C   0  0  0  0  0  0  0  0  0  0  0  0
  186.6370  178.4420  139.0730 C   0  0  0  0  0  0  0  0  0  0  0  0
  190.9440  176.7800  146.6010 C   0  0  0  0  0  0  0  0  0  0  0  0
  187.3940  177.6360  146.3700 N   0  0  0  0  0  0  0  0  0  0  0  0
  186.4580  177.9320  145.4670 N   0  0  0  0  0  0  0  0  0  0  0  0
  190.3580  177.1150  144.2750 C   0  0  0  0  0  3  0  0  0  0  0  0
  188.3350  177.7580  142.3230 C   0  0  0  0  0  3  0  0  0  0  0  0
  191.3100  176.8080  145.2520 C   0  0  0  0  0  3  0  0  0  0  0  0
  190.5220  176.1550  139.3750 N   0  0  0  0  0  2  0  0  0  0  0  0
  189.0660  177.7970  139.5540 C   0  0  1  0  0  3  0  0  0  0  0  0
  190.0860  178.1090  140.6140 C   0  0  0  0  0  2  0  0  0  0  0  0
  190.9940  176.9260  140.5150 C   0  0  0  0  0  2  0  0  0  0  0  0
  189.2020  176.4470  139.2010 O   0  0  0  0  0  0  0  0  0  0  0  0
  183.3080  178.7880  144.0520 N   0  0  0  0  0  0  0  0  0  0  0  0
  184.3800  178.5690  143.6750 C   0  0  0  0  0  0  0  0  0  0  0  0
  186.8950  178.5050  137.5970 C   0  0  0  0  0  2  0  0  0  0  0  0
  186.3050  174.8210  136.9080 C   0  0  0  0  0  0  0  0  0  0  0  0
  188.0730  175.6090  135.4510 C   0  0  0  0  0  0  0  0  0  0  0  0
  185.5070  173.8190  137.3480 F   0  0  0  0  0  0  0  0  0  0  0  0
  187.9530  176.8900  136.0000 C   0  0  0  0  0  3  0  0  0  0  0  0
  186.1870  176.1020  137.4570 C   0  0  0  0  0  3  0  0  0  0  0  0
  187.0080  177.1390  137.0030 C   0  0  0  0  0  0  0  0  0  0  0  0
  187.2460  174.5760  135.9050 C   0  0  0  0  0  3  0  0  0  0  0  0
  189.0680  175.3470  134.3710 C   0  0  0  0  0  2  0  0  0  0  0  0
  191.2960  175.2860  135.5830 C   0  0  0  0  0  0  0  0  0  0  0  0
  191.3040  176.5420  135.6940 O   0  0  0  0  0  0  0  0  0  0  0  0
  194.1470  173.8460  137.4300 C   0  0  0  0  0  0  0  0  0  0  0  0
  193.5490  172.7260  137.0250 C   0  0  0  0  0  3  0  0  0  0  0  0
  192.3730  173.0580  136.1680 C   0  0  0  0  0  2  0  0  0  0  0  0
  190.2200  174.6330  134.9040 N   0  0  0  0  0  2  0  0  0  0  0  0
  192.3670  174.5120  136.1360 N   0  0  0  0  0  0  0  0  0  0  0  0
  193.4790  175.0660  136.8940 C   0  0  2  0  0  3  0  0  0  0  0  0
  195.0250  175.1840  134.9220 O   0  0  0  0  0  0  0  0  0  0  0  0
  194.6330  177.0390  136.2100 O   0  0  0  0  0  1  0  0  0  0  0  0
  194.4050  175.8210  135.9910 C   0  0  0  0  0  0  0  0  0  0  0  0
  196.4770  173.0490  137.6810 C   0  0  0  0  0  1  0  0  0  0  0  0
  195.3610  173.8680  138.3030 C   0  0  0  0  0  2  0  0  0  0  0  0
  1  5  1  0  0  0  0
  2 26  1  0  0  0  0
  2  4  1  0  0  0  0
  3 10  1  0  0  0  0
  4 16  1  0  0  0  0
  5  2  2  0  0  0  0
  7  1  2  0  0  0  0
  9  4  2  0  0  0  0
  9  3  1  0  0  0  0
 10 15  1  0  0  0  0
 10  6  2  0  0  0  0
 11  5  1  0  0  0  0
 11 18  2  0  0  0  0
 12 11  1  0  0  0  0
 13  7  1  0  0  0  0
 13 12  2  0  0  0  0
 14  6  1  0  0  0  0
 14  8  1  0  0  0  0
 16 15  2  0  0  0  0
 17  3  2  0  0  0  0
 17 19  1  0  0  0  0
 18  9  1  0  0  0  0
 19 14  2  0  0  0  0
 20 23  1  0  0  0  0
 21 12  1  1  0  0  0
 21 22  1  0  0  0  0
 23 22  1  0  0  0  0
 24 20  1  0  0  0  0
 24 21  1  0  0  0  0
 26 25  3  0  0  0  0
 27 13  1  0  0  0  0
 28 30  1  0  0  0  0
 28 32  1  0  0  0  0
 29 34  1  0  0  0  0
 29 31  2  0  0  0  0
 31 33  1  0  0  0  0
 33 32  2  0  0  0  0
 33 27  1  0  0  0  0
 34 28  2  0  0  0  0
 35 41  1  0  0  0  0
 35 29  1  0  0  0  0
 36 37  2  0  0  0  0
 36 42  1  0  0  0  0
 38 48  1  0  0  0  0
 39 38  2  0  0  0  0
 40 39  1  0  0  0  0
 41 36  1  0  0  0  0
 42 40  1  0  0  0  0
 42 43  1  0  0  0  0
 43 46  1  6  0  0  0
 43 38  1  0  0  0  0
 44 46  2  0  0  0  0
 46 45  1  0  0  0  0
 47 48  1  0  0  0  0
M  END
>  <MODEL>
9

>  <REMARK>
 VINA RESULT:      -8.7      3.199      6.375
  Name = 
  8 active torsions:
  status: ('A' for Active; 'I' for Inactive)
    1  A    between atoms: C_4  and  C_27
    2  A    between atoms: C_5  and  C_43
    3  A    between atoms: C_9  and  C_11
    4  A    between atoms: C_9  and  N_42
    5  A    between atoms: C_26  and  C_37
    6  A    between atoms: C_28  and  C_48
    7  A    between atoms: C_30  and  C_37
    8  A    between atoms: C_36  and  C_47
                            x       y       z     vdW  Elec       q    Type
                         _______ _______ _______ _____ _____    ______ ____

>  <TORSDO>
F 8

$$$$
