=
 OpenBabel10232409563D

 34 38  0  0  1  0  0  0  0  0999 V2000
  182.1050  178.7780  141.5420 N   0  0  0  0  0  0  0  0  0  0  0  0
  185.6280  178.4500  142.1580 C   0  0  0  0  0  3  0  0  0  0  0  0
  184.1720  178.8290  139.9080 S   0  0  0  0  0  0  0  0  0  0  0  0
  185.3160  178.3970  144.7170 C   0  0  0  0  0  0  0  0  0  0  0  0
  182.4180  178.7960  140.2900 C   0  0  0  0  0  0  0  0  0  0  0  0
  185.9240  178.1460  145.9820 C   0  0  0  0  0  0  0  0  0  0  0  0
  186.0840  178.1950  143.5380 C   0  0  0  0  0  0  0  0  0  0  0  0
  187.2590  177.6950  146.0710 C   0  0  0  0  0  0  0  0  0  0  0  0
  189.2310  177.0990  144.7560 N   0  0  0  0  0  0  0  0  0  0  0  0
  187.3690  177.7630  143.6910 N   0  0  0  0  0  0  0  0  0  0  0  0
  188.2880  177.5040  142.7410 C   0  0  0  0  0  3  0  0  0  0  0  0
  183.2050  178.7360  142.4010 N   0  0  0  0  0  0  0  0  0  0  0  0
  184.4220  178.7140  141.6720 C   0  0  0  0  0  0  0  0  0  0  0  0
  185.1440  178.3570  147.2500 C   0  0  0  0  0  1  0  0  0  0  0  0
  183.9210  178.8860  144.7470 C   0  0  0  0  0  3  0  0  0  0  0  0
  189.4270  177.0960  143.4180 C   0  0  0  0  0  0  0  0  0  0  0  0
  183.0190  179.0230  143.7830 C   0  0  0  0  0  3  0  0  0  0  0  0
  187.9530  177.5150  144.8740 C   0  0  0  0  0  0  0  0  0  0  0  0
  181.3760  178.8380  139.2310 C   0  0  0  0  0  1  0  0  0  0  0  0
  190.6640  176.7190  142.8000 N   0  0  0  0  0  0  0  0  0  0  0  0
  191.5660  175.7960  143.4670 C   0  0  0  0  0  1  0  0  0  0  0  0
  191.0880  177.3210  141.5450 C   0  0  0  0  0  2  0  0  0  0  0  0
  189.1160  177.3300  137.0560 C   0  0  2  0  0  3  0  0  0  0  0  0
  190.7310  176.4490  140.4370 N   0  0  0  0  0  2  0  0  0  0  0  0
  189.5390  175.8190  137.9800 S   0  0  0  0  0  0  0  0  0  0  0  0
  188.7350  178.4120  138.0740 C   0  0  1  0  0  3  0  0  0  0  0  0
  189.9130  176.8910  139.3540 C   0  0  0  0  0  0  0  0  0  0  0  0
  187.3710  178.3730  138.3740 O   0  0  0  0  0  1  0  0  0  0  0  0
  189.4900  178.1090  139.2750 N   0  0  0  0  0  0  0  0  0  0  0  0
  187.1950  175.9360  136.0470 C   0  0  0  0  0  1  0  0  0  0  0  0
  188.1200  177.0980  135.9510 C   0  0  0  0  0  0  0  0  0  0  0  0
  187.9750  177.9600  134.9440 C   0  0  0  0  0  2  0  0  0  0  0  0
  187.8790  177.4320  147.3870 C   0  0  0  0  0  3  0  0  0  0  0  0
  188.6980  178.2300  147.9150 O   0  0  0  0  0  0  0  0  0  0  0  0
  1 12  1  0  0  0  0
  2  7  1  0  0  0  0
  3  5  1  0  0  0  0
  3 13  1  0  0  0  0
  4 15  1  0  0  0  0
  4  6  1  0  0  0  0
  5  1  2  0  0  0  0
  6  8  2  0  0  0  0
  6 14  1  0  0  0  0
  7 10  1  0  0  0  0
  7  4  2  0  0  0  0
  8 33  1  0  0  0  0
  9 18  2  0  0  0  0
 10 18  1  0  0  0  0
 11 16  2  0  0  0  0
 11 10  1  0  0  0  0
 12 17  1  0  0  0  0
 13  2  2  0  0  0  0
 13 12  1  0  0  0  0
 16  9  1  0  0  0  0
 17 15  2  0  0  0  0
 18  8  1  0  0  0  0
 19  5  1  0  0  0  0
 20 16  1  0  0  0  0
 20 21  1  0  0  0  0
 22 20  1  0  0  0  0
 23 31  1  6  0  0  0
 23 25  1  0  0  0  0
 23 26  1  0  0  0  0
 24 22  1  0  0  0  0
 25 27  1  0  0  0  0
 26 28  1  1  0  0  0
 26 29  1  0  0  0  0
 27 24  1  0  0  0  0
 29 27  2  0  0  0  0
 31 30  1  0  0  0  0
 32 31  2  0  0  0  0
 33 34  2  0  0  0  0
M  END
>  <MODEL>
1

>  <REMARK>
 VINA RESULT:      -9.8      0.000      0.000
  Name = 
  5 active torsions:
  status: ('A' for Active; 'I' for Inactive)
    1  A    between atoms: N_2  and  C_5
    2  A    between atoms: N_2  and  C_28
    3  A    between atoms: C_5  and  N_8
    4  A    between atoms: C_7  and  C_14
    5  A    between atoms: C_13  and  C_15
                            x       y       z     vdW  Elec       q    Type
                         _______ _______ _______ _____ _____    ______ ____

>  <TORSDO>
F 5

$$$$
=
 OpenBabel10232409563D

 34 38  0  0  1  0  0  0  0  0999 V2000
  192.1660  177.3190  141.9360 N   0  0  0  0  0  0  0  0  0  0  0  0
  188.5790  177.4430  141.7910 C   0  0  0  0  0  3  0  0  0  0  0  0
  190.4980  177.1840  139.8990 S   0  0  0  0  0  0  0  0  0  0  0  0
  188.3390  177.4680  144.3580 C   0  0  0  0  0  0  0  0  0  0  0  0
  192.1270  177.3060  140.6460 C   0  0  0  0  0  0  0  0  0  0  0  0
  187.4630  177.6630  145.4660 C   0  0  0  0  0  0  0  0  0  0  0  0
  187.8270  177.6480  143.0440 C   0  0  0  0  0  0  0  0  0  0  0  0
  186.1160  178.0390  145.2720 C   0  0  0  0  0  0  0  0  0  0  0  0
  184.4370  178.5490  143.5710 N   0  0  0  0  0  0  0  0  0  0  0  0
  186.5170  178.0060  142.9220 N   0  0  0  0  0  0  0  0  0  0  0  0
  185.8070  178.2310  141.8000 C   0  0  0  0  0  3  0  0  0  0  0  0
  190.9090  177.2860  142.5410 N   0  0  0  0  0  0  0  0  0  0  0  0
  189.8740  177.2540  141.5710 C   0  0  0  0  0  0  0  0  0  0  0  0
  187.9680  177.4730  146.8700 C   0  0  0  0  0  1  0  0  0  0  0  0
  189.7210  177.0560  144.6810 C   0  0  0  0  0  3  0  0  0  0  0  0
  184.5290  178.5640  142.2220 C   0  0  0  0  0  0  0  0  0  0  0  0
  190.8140  176.9850  143.9300 C   0  0  0  0  0  3  0  0  0  0  0  0
  185.6830  178.2020  143.9560 C   0  0  0  0  0  0  0  0  0  0  0  0
  193.3700  177.3400  139.8320 C   0  0  0  0  0  1  0  0  0  0  0  0
  183.4310  178.8840  141.3580 N   0  0  0  0  0  0  0  0  0  0  0  0
  182.0720  178.5380  141.7380 C   0  0  0  0  0  1  0  0  0  0  0  0
  183.6580  179.4700  140.0460 C   0  0  0  0  0  2  0  0  0  0  0  0
  186.6800  176.7940  137.2620 C   0  0  2  0  0  3  0  0  0  0  0  0
  183.6770  178.4230  139.0370 N   0  0  0  0  0  2  0  0  0  0  0  0
  184.8660  176.7730  137.1070 S   0  0  0  0  0  0  0  0  0  0  0  0
  187.0950  178.1920  137.7380 C   0  0  1  0  0  3  0  0  0  0  0  0
  184.8550  178.1010  138.2960 C   0  0  0  0  0  0  0  0  0  0  0  0
  187.3100  179.0540  136.6600 O   0  0  0  0  0  1  0  0  0  0  0  0
  185.9820  178.6890  138.5240 N   0  0  0  0  0  0  0  0  0  0  0  0
  188.8350  175.9280  136.1390 C   0  0  0  0  0  1  0  0  0  0  0  0
  187.3930  176.2860  136.0380 C   0  0  0  0  0  0  0  0  0  0  0  0
  186.7460  176.0500  134.8960 C   0  0  0  0  0  2  0  0  0  0  0  0
  185.2170  178.2440  146.4280 C   0  0  0  0  0  3  0  0  0  0  0  0
  185.2210  179.3090  147.1010 O   0  0  0  0  0  0  0  0  0  0  0  0
  1 12  1  0  0  0  0
  2  7  1  0  0  0  0
  3  5  1  0  0  0  0
  3 13  1  0  0  0  0
  4 15  1  0  0  0  0
  4  6  1  0  0  0  0
  5  1  2  0  0  0  0
  6 14  1  0  0  0  0
  7  4  2  0  0  0  0
  8  6  2  0  0  0  0
  8 33  1  0  0  0  0
  9 18  2  0  0  0  0
 10  7  1  0  0  0  0
 10 18  1  0  0  0  0
 11 16  2  0  0  0  0
 11 10  1  0  0  0  0
 12 17  1  0  0  0  0
 13  2  2  0  0  0  0
 13 12  1  0  0  0  0
 16  9  1  0  0  0  0
 17 15  2  0  0  0  0
 18  8  1  0  0  0  0
 19  5  1  0  0  0  0
 20 21  1  0  0  0  0
 20 16  1  0  0  0  0
 22 20  1  0  0  0  0
 23 31  1  6  0  0  0
 23 26  1  0  0  0  0
 24 22  1  0  0  0  0
 25 23  1  0  0  0  0
 25 27  1  0  0  0  0
 26 28  1  6  0  0  0
 26 29  1  0  0  0  0
 27 29  2  0  0  0  0
 27 24  1  0  0  0  0
 31 30  1  0  0  0  0
 32 31  2  0  0  0  0
 33 34  2  0  0  0  0
M  END
>  <MODEL>
2

>  <REMARK>
 VINA RESULT:      -9.5      1.809      5.630
  Name = 
  5 active torsions:
  status: ('A' for Active; 'I' for Inactive)
    1  A    between atoms: N_2  and  C_5
    2  A    between atoms: N_2  and  C_28
    3  A    between atoms: C_5  and  N_8
    4  A    between atoms: C_7  and  C_14
    5  A    between atoms: C_13  and  C_15
                            x       y       z     vdW  Elec       q    Type
                         _______ _______ _______ _____ _____    ______ ____

>  <TORSDO>
F 5

$$$$
=
 OpenBabel10232409563D

 34 38  0  0  1  0  0  0  0  0999 V2000
  186.6960  178.3940  147.4430 N   0  0  0  0  0  0  0  0  0  0  0  0
  187.5250  177.7800  144.0030 C   0  0  0  0  0  3  0  0  0  0  0  0
  188.8540  177.3730  146.3260 S   0  0  0  0  0  0  0  0  0  0  0  0
  185.1860  178.4800  143.1720 C   0  0  0  0  0  0  0  0  0  0  0  0
  187.9000  178.0110  147.7070 C   0  0  0  0  0  0  0  0  0  0  0  0
  184.3760  178.8070  142.0450 C   0  0  0  0  0  0  0  0  0  0  0  0
  186.5600  178.1810  142.9600 C   0  0  0  0  0  0  0  0  0  0  0  0
  184.9220  178.8470  140.7440 C   0  0  0  0  0  0  0  0  0  0  0  0
  186.9730  178.5240  139.4540 N   0  0  0  0  0  0  0  0  0  0  0  0
  187.0260  178.2310  141.6800 N   0  0  0  0  0  0  0  0  0  0  0  0
  188.2710  177.9900  141.2270 C   0  0  0  0  0  3  0  0  0  0  0  0
  186.3510  178.2920  146.0950 N   0  0  0  0  0  0  0  0  0  0  0  0
  187.4330  177.7890  145.3270 C   0  0  0  0  0  0  0  0  0  0  0  0
  182.9170  179.1200  142.2300 C   0  0  0  0  0  1  0  0  0  0  0  0
  184.5030  178.4490  144.4820 C   0  0  0  0  0  3  0  0  0  0  0  0
  188.2170  178.1760  139.8540 C   0  0  0  0  0  0  0  0  0  0  0  0
  184.9810  178.3810  145.7190 C   0  0  0  0  0  3  0  0  0  0  0  0
  186.2780  178.5450  140.6100 C   0  0  0  0  0  0  0  0  0  0  0  0
  188.4420  178.0530  149.0900 C   0  0  0  0  0  1  0  0  0  0  0  0
  189.3230  178.0220  138.9550 N   0  0  0  0  0  0  0  0  0  0  0  0
  189.2580  178.5700  137.6110 C   0  0  0  0  0  1  0  0  0  0  0  0
  190.4880  177.2360  139.3310 C   0  0  0  0  0  2  0  0  0  0  0  0
  193.6270  173.9710  137.4520 C   0  0  2  0  0  3  0  0  0  0  0  0
  190.5560  176.0360  138.5130 N   0  0  0  0  0  2  0  0  0  0  0  0
  191.8510  174.0250  137.0520 S   0  0  0  0  0  0  0  0  0  0  0  0
  194.0840  175.4030  137.7540 C   0  0  1  0  0  3  0  0  0  0  0  0
  191.7900  175.5310  138.0040 C   0  0  0  0  0  0  0  0  0  0  0  0
  194.5010  176.0610  136.5940 O   0  0  0  0  0  1  0  0  0  0  0  0
  192.9210  176.0850  138.2890 N   0  0  0  0  0  0  0  0  0  0  0  0
  195.8260  172.7930  136.7980 C   0  0  0  0  0  1  0  0  0  0  0  0
  194.4490  173.2270  136.4340 C   0  0  0  0  0  0  0  0  0  0  0  0
  193.9420  172.8560  135.2580 C   0  0  0  0  0  2  0  0  0  0  0  0
  184.0740  179.1920  139.5810 C   0  0  0  0  0  3  0  0  0  0  0  0
  184.0980  180.3330  139.0490 O   0  0  0  0  0  0  0  0  0  0  0  0
  1  5  2  0  0  0  0
  2 13  2  0  0  0  0
  3  5  1  0  0  0  0
  4 15  1  0  0  0  0
  5 19  1  0  0  0  0
  6 14  1  0  0  0  0
  6  4  1  0  0  0  0
  7  4  2  0  0  0  0
  7  2  1  0  0  0  0
  8  6  2  0  0  0  0
  9 16  1  0  0  0  0
  9 18  2  0  0  0  0
 10  7  1  0  0  0  0
 11 10  1  0  0  0  0
 12  1  1  0  0  0  0
 13 12  1  0  0  0  0
 13  3  1  0  0  0  0
 15 17  2  0  0  0  0
 16 11  2  0  0  0  0
 17 12  1  0  0  0  0
 18  8  1  0  0  0  0
 18 10  1  0  0  0  0
 20 22  1  0  0  0  0
 20 16  1  0  0  0  0
 21 20  1  0  0  0  0
 23 31  1  6  0  0  0
 23 26  1  0  0  0  0
 24 22  1  0  0  0  0
 25 23  1  0  0  0  0
 25 27  1  0  0  0  0
 26 28  1  6  0  0  0
 26 29  1  0  0  0  0
 27 29  2  0  0  0  0
 27 24  1  0  0  0  0
 31 30  1  0  0  0  0
 32 31  2  0  0  0  0
 33  8  1  0  0  0  0
 34 33  2  0  0  0  0
M  END
>  <MODEL>
3

>  <REMARK>
 VINA RESULT:      -9.3      3.531      5.957
  Name = 
  5 active torsions:
  status: ('A' for Active; 'I' for Inactive)
    1  A    between atoms: N_2  and  C_5
    2  A    between atoms: N_2  and  C_28
    3  A    between atoms: C_5  and  N_8
    4  A    between atoms: C_7  and  C_14
    5  A    between atoms: C_13  and  C_15
                            x       y       z     vdW  Elec       q    Type
                         _______ _______ _______ _____ _____    ______ ____

>  <TORSDO>
F 5

$$$$
=
 OpenBabel10232409563D

 34 38  0  0  1  0  0  0  0  0999 V2000
  190.4590  176.9470  147.8330 N   0  0  0  0  0  0  0  0  0  0  0  0
  189.3380  176.9430  144.4210 C   0  0  0  0  0  3  0  0  0  0  0  0
  191.6070  176.0860  145.6220 S   0  0  0  0  0  0  0  0  0  0  0  0
  187.0040  177.8470  145.0430 C   0  0  0  0  0  0  0  0  0  0  0  0
  191.5740  176.4900  147.3710 C   0  0  0  0  0  0  0  0  0  0  0  0
  185.7770  178.3940  144.5650 C   0  0  0  0  0  0  0  0  0  0  0  0
  188.0310  177.5530  144.1050 C   0  0  0  0  0  0  0  0  0  0  0  0
  185.5830  178.6540  143.1910 C   0  0  0  0  0  0  0  0  0  0  0  0
  186.6340  178.5130  140.9890 N   0  0  0  0  0  0  0  0  0  0  0  0
  187.7800  177.8210  142.7910 N   0  0  0  0  0  0  0  0  0  0  0  0
  188.5820  177.6320  141.7260 C   0  0  0  0  0  3  0  0  0  0  0  0
  189.4650  177.1000  146.8650 N   0  0  0  0  0  0  0  0  0  0  0  0
  189.9360  176.7160  145.5830 C   0  0  0  0  0  0  0  0  0  0  0  0
  184.6650  178.7090  145.5270 C   0  0  0  0  0  1  0  0  0  0  0  0
  187.0870  177.5980  146.4970 C   0  0  0  0  0  3  0  0  0  0  0  0
  187.8570  178.0650  140.6260 C   0  0  0  0  0  0  0  0  0  0  0  0
  188.1170  177.2940  147.2780 C   0  0  0  0  0  3  0  0  0  0  0  0
  186.6340  178.3440  142.3280 C   0  0  0  0  0  0  0  0  0  0  0  0
  192.7460  176.2660  148.2570 C   0  0  0  0  0  1  0  0  0  0  0  0
  188.3230  178.0460  139.2700 N   0  0  0  0  0  0  0  0  0  0  0  0
  187.3800  178.1300  138.1690 C   0  0  0  0  0  1  0  0  0  0  0  0
  189.7320  177.8450  138.9660 C   0  0  0  0  0  2  0  0  0  0  0  0
  193.0400  174.4480  137.7200 C   0  0  2  0  0  3  0  0  0  0  0  0
  189.8990  176.6210  138.1990 N   0  0  0  0  0  2  0  0  0  0  0  0
  191.3590  174.5370  137.0240 S   0  0  0  0  0  0  0  0  0  0  0  0
  193.4830  175.8750  138.0620 C   0  0  1  0  0  3  0  0  0  0  0  0
  191.1850  176.0700  137.9170 C   0  0  0  0  0  0  0  0  0  0  0  0
  194.1100  176.4890  136.9740 O   0  0  0  0  0  1  0  0  0  0  0  0
  192.2690  176.6020  138.3770 N   0  0  0  0  0  0  0  0  0  0  0  0
  195.2710  173.1770  137.4800 C   0  0  0  0  0  1  0  0  0  0  0  0
  193.9980  173.6540  136.8730 C   0  0  0  0  0  0  0  0  0  0  0  0
  193.6930  173.2800  135.6300 C   0  0  0  0  0  2  0  0  0  0  0  0
  184.3080  179.2270  142.7050 C   0  0  0  0  0  3  0  0  0  0  0  0
  183.3620  178.5060  142.2910 O   0  0  0  0  0  0  0  0  0  0  0  0
  2 13  2  0  0  0  0
  3  5  1  0  0  0  0
  4 15  1  0  0  0  0
  5  1  2  0  0  0  0
  5 19  1  0  0  0  0
  6  4  1  0  0  0  0
  6 14  1  0  0  0  0
  7  2  1  0  0  0  0
  7  4  2  0  0  0  0
  8  6  2  0  0  0  0
  9 18  2  0  0  0  0
 10  7  1  0  0  0  0
 11 10  1  0  0  0  0
 12 17  1  0  0  0  0
 12  1  1  0  0  0  0
 13  3  1  0  0  0  0
 13 12  1  0  0  0  0
 15 17  2  0  0  0  0
 16  9  1  0  0  0  0
 16 11  2  0  0  0  0
 18 10  1  0  0  0  0
 18  8  1  0  0  0  0
 20 16  1  0  0  0  0
 21 20  1  0  0  0  0
 22 20  1  0  0  0  0
 23 31  1  6  0  0  0
 23 26  1  0  0  0  0
 24 22  1  0  0  0  0
 25 23  1  0  0  0  0
 25 27  1  0  0  0  0
 26 28  1  6  0  0  0
 26 29  1  0  0  0  0
 27 24  1  0  0  0  0
 27 29  2  0  0  0  0
 31 30  1  0  0  0  0
 32 31  2  0  0  0  0
 33  8  1  0  0  0  0
 34 33  2  0  0  0  0
M  END
>  <MODEL>
4

>  <REMARK>
 VINA RESULT:      -9.2      3.451      6.206
  Name = 
  5 active torsions:
  status: ('A' for Active; 'I' for Inactive)
    1  A    between atoms: N_2  and  C_5
    2  A    between atoms: N_2  and  C_28
    3  A    between atoms: C_5  and  N_8
    4  A    between atoms: C_7  and  C_14
    5  A    between atoms: C_13  and  C_15
                            x       y       z     vdW  Elec       q    Type
                         _______ _______ _______ _____ _____    ______ ____

>  <TORSDO>
F 5

$$$$
=
 OpenBabel10232409563D

 34 38  0  0  1  0  0  0  0  0999 V2000
  183.5260  178.4470  144.9260 N   0  0  0  0  0  0  0  0  0  0  0  0
  186.4020  178.4170  142.7740 C   0  0  0  0  0  3  0  0  0  0  0  0
  183.8160  179.1230  142.3950 S   0  0  0  0  0  0  0  0  0  0  0  0
  187.9950  177.7400  144.6850 C   0  0  0  0  0  0  0  0  0  0  0  0
  182.8580  178.7900  143.8760 C   0  0  0  0  0  0  0  0  0  0  0  0
  189.2990  177.2810  145.0370 C   0  0  0  0  0  0  0  0  0  0  0  0
  187.6800  177.9090  143.3090 C   0  0  0  0  0  0  0  0  0  0  0  0
  190.2590  176.9870  144.0450 C   0  0  0  0  0  0  0  0  0  0  0  0
  190.6570  176.9530  141.6340 N   0  0  0  0  0  0  0  0  0  0  0  0
  188.6520  177.6130  142.3990 N   0  0  0  0  0  0  0  0  0  0  0  0
  188.6000  177.6930  141.0560 C   0  0  0  0  0  3  0  0  0  0  0  0
  184.9020  178.3430  144.7130 N   0  0  0  0  0  0  0  0  0  0  0  0
  185.2340  178.6370  143.3650 C   0  0  0  0  0  0  0  0  0  0  0  0
  189.6700  177.0990  146.4820 C   0  0  0  0  0  1  0  0  0  0  0  0
  187.0810  178.0360  145.8070 C   0  0  0  0  0  3  0  0  0  0  0  0
  189.8440  177.2820  140.6040 C   0  0  0  0  0  0  0  0  0  0  0  0
  185.7760  178.2800  145.8350 C   0  0  0  0  0  3  0  0  0  0  0  0
  189.8800  177.1730  142.7150 C   0  0  0  0  0  0  0  0  0  0  0  0
  181.3810  178.9470  143.9150 C   0  0  0  0  0  1  0  0  0  0  0  0
  190.2410  177.2100  139.2280 N   0  0  0  0  0  0  0  0  0  0  0  0
  191.4740  176.5380  138.8540 C   0  0  0  0  0  1  0  0  0  0  0  0
  189.4750  177.8860  138.1930 C   0  0  0  0  0  2  0  0  0  0  0  0
  184.7510  177.4620  136.9490 C   0  0  2  0  0  3  0  0  0  0  0  0
  188.5090  176.9640  137.6150 N   0  0  0  0  0  2  0  0  0  0  0  0
  185.9460  176.0890  136.8960 S   0  0  0  0  0  0  0  0  0  0  0  0
  185.1750  178.4110  138.0760 C   0  0  1  0  0  3  0  0  0  0  0  0
  187.1040  177.2060  137.6630 C   0  0  0  0  0  0  0  0  0  0  0  0
  184.6030  178.0420  139.2960 O   0  0  0  0  0  1  0  0  0  0  0  0
  186.6170  178.2870  138.1760 N   0  0  0  0  0  0  0  0  0  0  0  0
  182.2360  178.0210  136.8320 C   0  0  0  0  0  1  0  0  0  0  0  0
  183.3170  177.0080  136.9870 C   0  0  0  0  0  0  0  0  0  0  0  0
  182.9900  175.7170  137.0510 C   0  0  0  0  0  2  0  0  0  0  0  0
  191.6070  176.5060  144.4200 C   0  0  0  0  0  3  0  0  0  0  0  0
  191.9820  175.3230  144.2050 O   0  0  0  0  0  0  0  0  0  0  0  0
  2  7  1  0  0  0  0
  2 13  2  0  0  0  0
  3 13  1  0  0  0  0
  3  5  1  0  0  0  0
  4  6  1  0  0  0  0
  4 15  1  0  0  0  0
  5 19  1  0  0  0  0
  5  1  2  0  0  0  0
  6 14  1  0  0  0  0
  7  4  2  0  0  0  0
  8 33  1  0  0  0  0
  8  6  2  0  0  0  0
  9 18  2  0  0  0  0
 10 18  1  0  0  0  0
 10  7  1  0  0  0  0
 11 10  1  0  0  0  0
 12  1  1  0  0  0  0
 12 17  1  0  0  0  0
 13 12  1  0  0  0  0
 15 17  2  0  0  0  0
 16 11  2  0  0  0  0
 16  9  1  0  0  0  0
 18  8  1  0  0  0  0
 20 16  1  0  0  0  0
 21 20  1  0  0  0  0
 22 20  1  0  0  0  0
 23 31  1  1  0  0  0
 23 26  1  0  0  0  0
 24 27  1  0  0  0  0
 24 22  1  0  0  0  0
 25 23  1  0  0  0  0
 25 27  1  0  0  0  0
 26 29  1  0  0  0  0
 26 28  1  1  0  0  0
 27 29  2  0  0  0  0
 30 31  1  0  0  0  0
 31 32  2  0  0  0  0
 34 33  2  0  0  0  0
M  END
>  <MODEL>
5

>  <REMARK>
 VINA RESULT:      -9.1      2.316      3.711
  Name = 
  5 active torsions:
  status: ('A' for Active; 'I' for Inactive)
    1  A    between atoms: N_2  and  C_5
    2  A    between atoms: N_2  and  C_28
    3  A    between atoms: C_5  and  N_8
    4  A    between atoms: C_7  and  C_14
    5  A    between atoms: C_13  and  C_15
                            x       y       z     vdW  Elec       q    Type
                         _______ _______ _______ _____ _____    ______ ____

>  <TORSDO>
F 5

$$$$
=
 OpenBabel10232409563D

 34 38  0  0  1  0  0  0  0  0999 V2000
  182.9090  178.6150  144.8630 N   0  0  0  0  0  0  0  0  0  0  0  0
  186.2680  178.4840  143.5980 C   0  0  0  0  0  3  0  0  0  0  0  0
  183.8920  179.1290  142.4720 S   0  0  0  0  0  0  0  0  0  0  0  0
  187.2670  177.9540  145.9150 C   0  0  0  0  0  0  0  0  0  0  0  0
  182.5590  178.8800  143.6490 C   0  0  0  0  0  0  0  0  0  0  0  0
  188.4190  177.5370  146.6430 C   0  0  0  0  0  0  0  0  0  0  0  0
  187.3460  178.0300  144.4980 C   0  0  0  0  0  0  0  0  0  0  0  0
  189.6150  177.1920  145.9770 C   0  0  0  0  0  0  0  0  0  0  0  0
  190.6650  177.0080  143.7780 N   0  0  0  0  0  0  0  0  0  0  0  0
  188.5300  177.6890  143.9140 N   0  0  0  0  0  0  0  0  0  0  0  0
  188.8520  177.6800  142.6060 C   0  0  0  0  0  3  0  0  0  0  0  0
  184.2890  178.5160  145.0460 N   0  0  0  0  0  0  0  0  0  0  0  0
  184.9830  178.7260  143.8270 C   0  0  0  0  0  0  0  0  0  0  0  0
  188.3750  177.4540  148.1440 C   0  0  0  0  0  1  0  0  0  0  0  0
  186.0780  178.3100  146.7190 C   0  0  0  0  0  3  0  0  0  0  0  0
  190.1710  177.2580  142.5440 C   0  0  0  0  0  0  0  0  0  0  0  0
  184.8180  178.5380  146.3680 C   0  0  0  0  0  3  0  0  0  0  0  0
  189.6200  177.2860  144.5850 C   0  0  0  0  0  0  0  0  0  0  0  0
  181.1300  179.0200  143.2670 C   0  0  0  0  0  1  0  0  0  0  0  0
  190.9330  177.1020  141.3400 N   0  0  0  0  0  0  0  0  0  0  0  0
  192.2620  177.6790  141.2320 C   0  0  0  0  0  1  0  0  0  0  0  0
  190.3600  176.4510  140.1720 C   0  0  0  0  0  2  0  0  0  0  0  0
  187.1230  177.1660  136.5590 C   0  0  2  0  0  3  0  0  0  0  0  0
  189.8700  177.4550  139.2410 N   0  0  0  0  0  2  0  0  0  0  0  0
  188.3870  178.3820  137.0510 S   0  0  0  0  0  0  0  0  0  0  0  0
  187.6870  175.7670  136.8310 C   0  0  1  0  0  3  0  0  0  0  0  0
  189.0210  177.1240  138.1420 C   0  0  0  0  0  0  0  0  0  0  0  0
  188.3940  175.2790  135.7290 O   0  0  0  0  0  1  0  0  0  0  0  0
  188.6010  175.9180  137.9470 N   0  0  0  0  0  0  0  0  0  0  0  0
  185.3550  176.6610  134.7510 C   0  0  0  0  0  1  0  0  0  0  0  0
  186.5810  177.3920  135.1730 C   0  0  0  0  0  0  0  0  0  0  0  0
  187.1080  178.3020  134.3520 C   0  0  0  0  0  2  0  0  0  0  0  0
  190.8040  176.7550  146.7410 C   0  0  0  0  0  3  0  0  0  0  0  0
  191.9760  177.0600  146.3930 O   0  0  0  0  0  0  0  0  0  0  0  0
  1 12  1  0  0  0  0
  2 13  2  0  0  0  0
  2  7  1  0  0  0  0
  3  5  1  0  0  0  0
  3 13  1  0  0  0  0
  4  6  1  0  0  0  0
  4 15  1  0  0  0  0
  5  1  2  0  0  0  0
  6 14  1  0  0  0  0
  7  4  2  0  0  0  0
  8  6  2  0  0  0  0
  8 33  1  0  0  0  0
  9 18  2  0  0  0  0
 10  7  1  0  0  0  0
 10 18  1  0  0  0  0
 11 10  1  0  0  0  0
 12 17  1  0  0  0  0
 13 12  1  0  0  0  0
 16 11  2  0  0  0  0
 16  9  1  0  0  0  0
 17 15  2  0  0  0  0
 18  8  1  0  0  0  0
 19  5  1  0  0  0  0
 20 16  1  0  0  0  0
 21 20  1  0  0  0  0
 22 20  1  0  0  0  0
 23 31  1  6  0  0  0
 23 26  1  0  0  0  0
 23 25  1  0  0  0  0
 24 22  1  0  0  0  0
 25 27  1  0  0  0  0
 26 28  1  6  0  0  0
 26 29  1  0  0  0  0
 27 24  1  0  0  0  0
 29 27  2  0  0  0  0
 30 31  1  0  0  0  0
 32 31  2  0  0  0  0
 34 33  2  0  0  0  0
M  END
>  <MODEL>
6

>  <REMARK>
 VINA RESULT:      -8.8      1.940      2.568
  Name = 
  5 active torsions:
  status: ('A' for Active; 'I' for Inactive)
    1  A    between atoms: N_2  and  C_5
    2  A    between atoms: N_2  and  C_28
    3  A    between atoms: C_5  and  N_8
    4  A    between atoms: C_7  and  C_14
    5  A    between atoms: C_13  and  C_15
                            x       y       z     vdW  Elec       q    Type
                         _______ _______ _______ _____ _____    ______ ____

>  <TORSDO>
F 5

$$$$
=
 OpenBabel10232409563D

 34 38  0  0  1  0  0  0  0  0999 V2000
  190.0810  177.1400  147.6230 N   0  0  0  0  0  0  0  0  0  0  0  0
  189.2090  177.0930  144.1390 C   0  0  0  0  0  3  0  0  0  0  0  0
  191.4160  176.3210  145.5030 S   0  0  0  0  0  0  0  0  0  0  0  0
  186.8040  177.9090  144.5890 C   0  0  0  0  0  0  0  0  0  0  0  0
  191.2420  176.7240  147.2450 C   0  0  0  0  0  0  0  0  0  0  0  0
  185.5960  178.4100  144.0220 C   0  0  0  0  0  0  0  0  0  0  0  0
  187.9060  177.6530  143.7280 C   0  0  0  0  0  0  0  0  0  0  0  0
  185.4910  178.6610  142.6370 C   0  0  0  0  0  0  0  0  0  0  0  0
  186.7030  178.5590  140.5170 N   0  0  0  0  0  0  0  0  0  0  0  0
  187.7410  177.9110  142.3990 N   0  0  0  0  0  0  0  0  0  0  0  0
  188.6240  177.7520  141.3950 C   0  0  0  0  0  3  0  0  0  0  0  0
  189.1540  177.2550  146.5850 N   0  0  0  0  0  0  0  0  0  0  0  0
  189.7300  176.8880  145.3420 C   0  0  0  0  0  0  0  0  0  0  0  0
  184.4070  178.6830  144.9000 C   0  0  0  0  0  1  0  0  0  0  0  0
  186.7910  177.6640  146.0460 C   0  0  0  0  0  3  0  0  0  0  0  0
  187.9650  178.1570  140.2440 C   0  0  0  0  0  0  0  0  0  0  0  0
  187.7730  177.3990  146.9000 C   0  0  0  0  0  3  0  0  0  0  0  0
  186.6130  178.3910  141.8520 C   0  0  0  0  0  0  0  0  0  0  0  0
  192.3550  176.5440  148.2130 C   0  0  0  0  0  1  0  0  0  0  0  0
  188.5280  178.1540  138.9260 N   0  0  0  0  0  0  0  0  0  0  0  0
  189.9640  178.0390  138.7410 C   0  0  0  0  0  1  0  0  0  0  0  0
  187.6900  178.3620  137.7550 C   0  0  0  0  0  2  0  0  0  0  0  0
  183.8010  175.6570  136.4900 C   0  0  2  0  0  3  0  0  0  0  0  0
  187.3100  177.0780  137.1880 N   0  0  0  0  0  2  0  0  0  0  0  0
  185.5170  175.0470  136.4690 S   0  0  0  0  0  0  0  0  0  0  0  0
  183.6890  176.7060  137.6030 C   0  0  1  0  0  3  0  0  0  0  0  0
  185.9660  176.5990  137.2230 C   0  0  0  0  0  0  0  0  0  0  0  0
  183.3550  176.1180  138.8260 O   0  0  0  0  0  1  0  0  0  0  0  0
  185.0040  177.3080  137.7140 N   0  0  0  0  0  0  0  0  0  0  0  0
  183.1900  173.1980  136.9710 C   0  0  0  0  0  1  0  0  0  0  0  0
  182.7740  174.5570  136.5270 C   0  0  0  0  0  0  0  0  0  0  0  0
  181.4860  174.7900  136.2750 C   0  0  0  0  0  2  0  0  0  0  0  0
  184.2350  179.1870  142.0590 C   0  0  0  0  0  3  0  0  0  0  0  0
  183.4260  178.4530  141.4310 O   0  0  0  0  0  0  0  0  0  0  0  0
  2 13  2  0  0  0  0
  3  5  1  0  0  0  0
  4 15  1  0  0  0  0
  5  1  2  0  0  0  0
  5 19  1  0  0  0  0
  6  4  1  0  0  0  0
  6 14  1  0  0  0  0
  7  2  1  0  0  0  0
  7  4  2  0  0  0  0
  8  6  2  0  0  0  0
  9 18  2  0  0  0  0
 10  7  1  0  0  0  0
 11 10  1  0  0  0  0
 12 17  1  0  0  0  0
 12  1  1  0  0  0  0
 13  3  1  0  0  0  0
 13 12  1  0  0  0  0
 15 17  2  0  0  0  0
 16  9  1  0  0  0  0
 16 11  2  0  0  0  0
 18 10  1  0  0  0  0
 18  8  1  0  0  0  0
 20 16  1  0  0  0  0
 21 20  1  0  0  0  0
 22 20  1  0  0  0  0
 23 31  1  1  0  0  0
 23 26  1  0  0  0  0
 24 27  1  0  0  0  0
 24 22  1  0  0  0  0
 25 23  1  0  0  0  0
 25 27  1  0  0  0  0
 26 29  1  0  0  0  0
 26 28  1  1  0  0  0
 27 29  2  0  0  0  0
 31 30  1  0  0  0  0
 32 31  2  0  0  0  0
 33  8  1  0  0  0  0
 34 33  2  0  0  0  0
M  END
>  <MODEL>
7

>  <REMARK>
 VINA RESULT:      -8.7      3.145      6.079
  Name = 
  5 active torsions:
  status: ('A' for Active; 'I' for Inactive)
    1  A    between atoms: N_2  and  C_5
    2  A    between atoms: N_2  and  C_28
    3  A    between atoms: C_5  and  N_8
    4  A    between atoms: C_7  and  C_14
    5  A    between atoms: C_13  and  C_15
                            x       y       z     vdW  Elec       q    Type
                         _______ _______ _______ _____ _____    ______ ____

>  <TORSDO>
F 5

$$$$
=
 OpenBabel10232409563D

 34 38  0  0  1  0  0  0  0  0999 V2000
  190.2260  176.9640  147.6390 N   0  0  0  0  0  0  0  0  0  0  0  0
  189.0540  177.0160  144.2450 C   0  0  0  0  0  3  0  0  0  0  0  0
  191.3570  176.1770  145.3920 S   0  0  0  0  0  0  0  0  0  0  0  0
  186.7120  177.8570  144.9210 C   0  0  0  0  0  0  0  0  0  0  0  0
  191.3430  176.5400  147.1510 C   0  0  0  0  0  0  0  0  0  0  0  0
  185.4670  178.3900  144.4740 C   0  0  0  0  0  0  0  0  0  0  0  0
  187.7300  177.6050  143.9620 C   0  0  0  0  0  0  0  0  0  0  0  0
  185.2470  178.6770  143.1090 C   0  0  0  0  0  0  0  0  0  0  0  0
  186.2680  178.6080  140.8900 N   0  0  0  0  0  0  0  0  0  0  0  0
  187.4550  177.8990  142.6590 N   0  0  0  0  0  0  0  0  0  0  0  0
  188.2440  177.7500  141.5770 C   0  0  0  0  0  3  0  0  0  0  0  0
  189.2150  177.1190  146.6890 N   0  0  0  0  0  0  0  0  0  0  0  0
  189.6740  176.7730  145.3920 C   0  0  0  0  0  0  0  0  0  0  0  0
  184.3640  178.6600  145.4590 C   0  0  0  0  0  1  0  0  0  0  0  0
  186.8210  177.5760  146.3680 C   0  0  0  0  0  3  0  0  0  0  0  0
  187.4940  178.1930  140.4990 C   0  0  0  0  0  0  0  0  0  0  0  0
  187.8690  177.2760  147.1260 C   0  0  0  0  0  3  0  0  0  0  0  0
  186.2920  178.4090  142.2240 C   0  0  0  0  0  0  0  0  0  0  0  0
  192.5320  176.3190  148.0140 C   0  0  0  0  0  1  0  0  0  0  0  0
  187.9400  178.2150  139.1360 N   0  0  0  0  0  0  0  0  0  0  0  0
  189.2670  178.7060  138.8060 C   0  0  0  0  0  1  0  0  0  0  0  0
  187.0470  177.8390  138.0510 C   0  0  0  0  0  2  0  0  0  0  0  0
  186.3990  173.6080  135.6590 C   0  0  2  0  0  3  0  0  0  0  0  0
  187.7150  176.8950  137.1700 N   0  0  0  0  0  2  0  0  0  0  0  0
  187.9920  174.4840  135.7660 S   0  0  0  0  0  0  0  0  0  0  0  0
  185.6130  173.9030  136.9420 C   0  0  1  0  0  3  0  0  0  0  0  0
  187.1820  175.5990  136.8960 C   0  0  0  0  0  0  0  0  0  0  0  0
  185.9050  172.9740  137.9440 O   0  0  0  0  0  1  0  0  0  0  0  0
  186.0450  175.2170  137.3780 N   0  0  0  0  0  0  0  0  0  0  0  0
  187.8250  171.4600  135.5890 C   0  0  0  0  0  1  0  0  0  0  0  0
  186.5380  172.1520  135.3020 C   0  0  0  0  0  0  0  0  0  0  0  0
  185.5110  171.4420  134.8330 C   0  0  0  0  0  2  0  0  0  0  0  0
  183.9550  179.2350  142.6550 C   0  0  0  0  0  3  0  0  0  0  0  0
  183.0590  178.5180  142.1350 O   0  0  0  0  0  0  0  0  0  0  0  0
  2 13  2  0  0  0  0
  3  5  1  0  0  0  0
  4 15  1  0  0  0  0
  5  1  2  0  0  0  0
  5 19  1  0  0  0  0
  6  4  1  0  0  0  0
  6 14  1  0  0  0  0
  7  2  1  0  0  0  0
  7  4  2  0  0  0  0
  8  6  2  0  0  0  0
  9 18  2  0  0  0  0
 10  7  1  0  0  0  0
 11 10  1  0  0  0  0
 12 17  1  0  0  0  0
 12  1  1  0  0  0  0
 13  3  1  0  0  0  0
 13 12  1  0  0  0  0
 15 17  2  0  0  0  0
 16  9  1  0  0  0  0
 16 11  2  0  0  0  0
 18 10  1  0  0  0  0
 18  8  1  0  0  0  0
 20 16  1  0  0  0  0
 21 20  1  0  0  0  0
 22 20  1  0  0  0  0
 23 31  1  1  0  0  0
 23 25  1  0  0  0  0
 23 26  1  0  0  0  0
 24 22  1  0  0  0  0
 25 27  1  0  0  0  0
 26 29  1  0  0  0  0
 26 28  1  1  0  0  0
 27 24  1  0  0  0  0
 27 29  2  0  0  0  0
 31 30  1  0  0  0  0
 32 31  2  0  0  0  0
 33  8  1  0  0  0  0
 34 33  2  0  0  0  0
M  END
>  <MODEL>
8

>  <REMARK>
 VINA RESULT:      -8.7      3.085      6.011
  Name = 
  5 active torsions:
  status: ('A' for Active; 'I' for Inactive)
    1  A    between atoms: N_2  and  C_5
    2  A    between atoms: N_2  and  C_28
    3  A    between atoms: C_5  and  N_8
    4  A    between atoms: C_7  and  C_14
    5  A    between atoms: C_13  and  C_15
                            x       y       z     vdW  Elec       q    Type
                         _______ _______ _______ _____ _____    ______ ____

>  <TORSDO>
F 5

$$$$
=
 OpenBabel10232409563D

 34 38  0  0  1  0  0  0  0  0999 V2000
  192.1660  177.3450  141.8150 N   0  0  0  0  0  0  0  0  0  0  0  0
  188.5880  177.4140  142.1140 C   0  0  0  0  0  3  0  0  0  0  0  0
  190.2620  177.0970  140.0100 S   0  0  0  0  0  0  0  0  0  0  0  0
  188.6680  177.5500  144.6880 C   0  0  0  0  0  0  0  0  0  0  0  0
  191.9680  177.2740  140.5420 C   0  0  0  0  0  0  0  0  0  0  0  0
  187.9320  177.7830  145.8870 C   0  0  0  0  0  0  0  0  0  0  0  0
  187.9930  177.6650  143.4410 C   0  0  0  0  0  0  0  0  0  0  0  0
  186.5650  178.1320  145.8460 C   0  0  0  0  0  0  0  0  0  0  0  0
  184.6780  178.5420  144.3480 N   0  0  0  0  0  0  0  0  0  0  0  0
  186.6710  178.0000  143.4690 N   0  0  0  0  0  0  0  0  0  0  0  0
  185.8230  178.1650  142.4360 C   0  0  0  0  0  3  0  0  0  0  0  0
  190.9950  177.3220  142.5740 N   0  0  0  0  0  0  0  0  0  0  0  0
  189.8490  177.2330  141.7430 C   0  0  0  0  0  0  0  0  0  0  0  0
  188.6110  177.6620  147.2230 C   0  0  0  0  0  1  0  0  0  0  0  0
  190.0860  177.1710  144.8530 C   0  0  0  0  0  3  0  0  0  0  0  0
  184.6020  178.4990  142.9990 C   0  0  0  0  0  0  0  0  0  0  0  0
  191.0780  177.0820  143.9750 C   0  0  0  0  0  3  0  0  0  0  0  0
  185.9680  178.2300  144.5890 C   0  0  0  0  0  0  0  0  0  0  0  0
  193.0990  177.2880  139.5790 C   0  0  0  0  0  1  0  0  0  0  0  0
  183.3990  178.7650  142.2660 N   0  0  0  0  0  0  0  0  0  0  0  0
  182.1480  179.0000  142.9670 C   0  0  0  0  0  1  0  0  0  0  0  0
  183.3820  178.7110  140.8120 C   0  0  0  0  0  2  0  0  0  0  0  0
  181.9290  174.8850  138.1120 C   0  0  2  0  0  3  0  0  0  0  0  0
  182.1980  177.9980  140.3610 N   0  0  0  0  0  2  0  0  0  0  0  0
  180.7940  176.1100  138.8370 S   0  0  0  0  0  0  0  0  0  0  0  0
  183.2530  175.5950  137.8040 C   0  0  1  0  0  3  0  0  0  0  0  0
  182.2500  177.0120  139.3300 C   0  0  0  0  0  0  0  0  0  0  0  0
  183.2470  176.1510  136.5220 O   0  0  0  0  0  1  0  0  0  0  0  0
  183.3660  176.6630  138.7790 N   0  0  0  0  0  0  0  0  0  0  0  0
  181.8630  172.7570  136.6570 C   0  0  0  0  0  1  0  0  0  0  0  0
  181.3260  174.1100  136.9720 C   0  0  0  0  0  0  0  0  0  0  0  0
  180.2610  174.5550  136.3050 C   0  0  0  0  0  2  0  0  0  0  0  0
  185.8120  178.3760  147.0960 C   0  0  0  0  0  3  0  0  0  0  0  0
  185.6060  179.5370  147.5400 O   0  0  0  0  0  0  0  0  0  0  0  0
  1 12  1  0  0  0  0
  2  7  1  0  0  0  0
  3  5  1  0  0  0  0
  3 13  1  0  0  0  0
  4 15  1  0  0  0  0
  4  6  1  0  0  0  0
  5  1  2  0  0  0  0
  6 14  1  0  0  0  0
  7 10  1  0  0  0  0
  7  4  2  0  0  0  0
  8  6  2  0  0  0  0
  8 33  1  0  0  0  0
  9 18  2  0  0  0  0
 10 18  1  0  0  0  0
 11 16  2  0  0  0  0
 11 10  1  0  0  0  0
 12 17  1  0  0  0  0
 13  2  2  0  0  0  0
 13 12  1  0  0  0  0
 16  9  1  0  0  0  0
 17 15  2  0  0  0  0
 18  8  1  0  0  0  0
 19  5  1  0  0  0  0
 20 21  1  0  0  0  0
 20 16  1  0  0  0  0
 22 20  1  0  0  0  0
 23 31  1  6  0  0  0
 23 25  1  0  0  0  0
 24 22  1  0  0  0  0
 25 27  1  0  0  0  0
 26 28  1  6  0  0  0
 26 23  1  0  0  0  0
 26 29  1  0  0  0  0
 27 24  1  0  0  0  0
 29 27  2  0  0  0  0
 30 31  1  0  0  0  0
 32 31  2  0  0  0  0
 33 34  2  0  0  0  0
M  END
>  <MODEL>
9

>  <REMARK>
 VINA RESULT:      -8.7      2.690      6.554
  Name = 
  5 active torsions:
  status: ('A' for Active; 'I' for Inactive)
    1  A    between atoms: N_2  and  C_5
    2  A    between atoms: N_2  and  C_28
    3  A    between atoms: C_5  and  N_8
    4  A    between atoms: C_7  and  C_14
    5  A    between atoms: C_13  and  C_15
                            x       y       z     vdW  Elec       q    Type
                         _______ _______ _______ _____ _____    ______ ____

>  <TORSDO>
F 5

$$$$
