=
 OpenBabel10232411173D

 50 51  0  0  1  0  0  0  0  0999 V2000
  192.1260  177.2360  139.8850 N   0  0  0  0  0  1  0  0  0  0  0  0
  190.7590  175.5350  136.8420 C   0  0  0  0  0  0  0  0  0  0  0  0
  189.3760  175.7960  136.9870 C   0  0  0  0  0  0  0  0  0  0  0  0
  193.0250  175.7930  137.7140 O   0  0  0  0  0  1  0  0  0  0  0  0
  191.6580  176.0300  137.8170 C   0  0  0  0  0  0  0  0  0  0  0  0
  191.1880  176.7720  138.9120 C   0  0  0  0  0  0  0  0  0  0  0  0
  188.9330  176.5370  138.0880 C   0  0  0  0  0  3  0  0  0  0  0  0
  189.8110  177.0310  139.0530 C   0  0  0  0  0  0  0  0  0  0  0  0
  188.4770  178.7780  139.9870 O   0  0  0  0  0  0  0  0  0  0  0  0
  189.5750  177.4220  141.5280 N   0  0  0  0  0  2  0  0  0  0  0  0
  189.2460  177.7990  140.1880 C   0  0  0  0  0  0  0  0  0  0  0  0
  189.0130  178.0910  142.6890 C   0  0  0  0  0  2  0  0  0  0  0  0
  190.1150  178.4290  143.6750 C   0  0  0  0  0  2  0  0  0  0  0  0
  190.6060  177.2070  144.2890 N   0  0  0  0  0  2  0  0  0  0  0  0
  190.4890  177.3610  145.7320 C   0  0  2  0  0  3  0  0  0  0  0  0
  191.4880  176.5060  146.4520 C   0  0  0  0  0  0  0  0  0  0  0  0
  192.2370  175.1870  145.5610 Cl  0  0  0  0  0  0  0  0  0  0  0  0
  191.7540  176.7220  147.7060 N   0  0  0  0  0  0  0  0  0  0  0  0
  192.6740  175.9340  148.4570 C   0  0  0  0  0  3  0  0  0  0  0  0
  193.8520  176.3380  148.6320 O   0  0  0  0  0  0  0  0  0  0  0  0
  189.0560  177.1080  146.2000 C   0  0  0  0  0  2  0  0  0  0  0  0
  188.4680  178.2930  146.9530 C   0  0  0  0  0  2  0  0  0  0  0  0
  187.9930  177.7710  148.6230 S   0  0  0  0  0  1  0  0  0  0  0  0
  188.4840  175.5640  134.7790 O   0  0  0  0  0  0  0  0  0  0  0  0
  188.3650  175.3180  136.0090 C   0  0  0  0  0  0  0  0  0  0  0  0
  187.2270  174.5530  136.4440 C   0  0  0  0  0  0  0  0  0  0  0  0
  186.2810  173.9080  136.8210 C   0  0  0  0  0  0  0  0  0  0  0  0
  184.9060  172.9630  137.3940 S   0  0  0  0  0  0  0  0  0  0  0  0
  183.1600  175.0870  137.0850 C   0  0  0  0  0  0  0  0  0  0  0  0
  183.7230  174.0090  136.5380 C   0  0  0  0  0  3  0  0  0  0  0  0
  183.4810  175.4940  138.4950 C   0  0  0  0  0  2  0  0  0  0  0  0
  182.7270  176.7580  138.8590 C   0  0  0  0  0  2  0  0  0  0  0  0
  182.9900  177.0930  140.1890 O   0  0  0  0  0  0  0  0  0  0  0  0
  183.1980  178.3920  140.1700 O   0  0  0  0  0  0  0  0  0  0  0  0
  185.1730  179.2590  139.4660 F   0  0  0  0  0  0  0  0  0  0  0  0
  184.5540  178.5450  140.4740 C   0  0  1  0  0  3  0  0  0  0  0  0
  184.6920  179.2670  141.7290 N   0  0  0  0  0  2  0  0  0  0  0  0
  183.1070  178.8600  143.4990 C   0  0  0  0  0  2  0  0  0  0  0  0
  184.3230  178.3540  142.8010 C   0  0  2  0  0  3  0  0  0  0  0  0
  183.3840  179.3120  144.7110 C   0  0  0  0  0  2  0  0  0  0  0  0
  185.0140  178.4330  146.3250 C   0  0  0  0  0  1  0  0  0  0  0  0
  184.8300  179.1870  145.0260 C   0  0  1  0  0  3  0  0  0  0  0  0
  185.4030  178.3780  143.8720 C   0  0  0  0  0  2  0  0  0  0  0  0
  182.2470  175.8140  136.3070 O   0  0  0  0  0  0  0  0  0  0  0  0
  182.5990  176.8130  135.3480 C   0  0  2  0  0  3  0  0  0  0  0  0
  183.9580  177.1210  135.4300 O   0  0  0  0  0  1  0  0  0  0  0  0
  181.7590  178.0680  135.5140 C   0  0  0  0  0  2  0  0  0  0  0  0
  180.4700  177.8320  135.0750 F   0  0  0  0  0  0  0  0  0  0  0  0
  191.5620  173.3850  135.6650 C   0  0  0  0  0  1  0  0  0  0  0  0
  191.2150  174.7950  135.6960 N   0  0  0  0  0  2  0  0  0  0  0  0
  2  3  2  0  0  0  0
  2  5  1  0  0  0  0
  3  7  1  0  0  0  0
  4  5  1  0  0  0  0
  5  6  2  0  0  0  0
  6  8  1  0  0  0  0
  6  1  1  0  0  0  0
  7  8  2  0  0  0  0
  8 11  1  0  0  0  0
  9 11  2  0  0  0  0
 10 12  1  0  0  0  0
 11 10  1  0  0  0  0
 12 13  1  0  0  0  0
 13 14  1  0  0  0  0
 14 15  1  0  0  0  0
 15 21  1  1  0  0  0
 15 16  1  0  0  0  0
 16 18  2  0  0  0  0
 17 16  1  0  0  0  0
 18 19  1  0  0  0  0
 19 20  2  0  0  0  0
 21 22  1  0  0  0  0
 22 23  1  0  0  0  0
 24 25  2  0  0  0  0
 25 26  1  0  0  0  0
 25  3  1  0  0  0  0
 26 27  3  0  0  0  0
 27 28  1  0  0  0  0
 29 31  1  0  0  0  0
 30 29  2  0  0  0  0
 30 28  1  0  0  0  0
 31 32  1  0  0  0  0
 32 33  1  0  0  0  0
 34 33  1  0  0  0  0
 34 36  1  0  0  0  0
 36 35  1  6  0  0  0
 36 37  1  0  0  0  0
 38 40  1  0  0  0  0
 39 37  1  6  0  0  0
 39 38  1  0  0  0  0
 39 43  1  0  0  0  0
 40 42  1  0  0  0  0
 42 41  1  1  0  0  0
 43 42  1  0  0  0  0
 44 29  1  0  0  0  0
 45 46  1  1  0  0  0
 45 47  1  0  0  0  0
 45 44  1  0  0  0  0
 48 47  1  0  0  0  0
 49 50  1  0  0  0  0
 50  2  1  0  0  0  0
M  END
>  <MODEL>
1

>  <REMARK>
 VINA RESULT:      -6.2      0.000      0.000
  Name = 
  24 active torsions:
  status: ('A' for Active; 'I' for Inactive)
    1  A    between atoms: C_1  and  N_47
    2  A    between atoms: C_5  and  N_29
    3  A    between atoms: C_5  and  C_39
    4  A    between atoms: N_7  and  C_19
    5  A    between atoms: N_7  and  C_37
    6  A    between atoms: C_8  and  C_13
    7  A    between atoms: C_9  and  C_25
    8  A    between atoms: C_9  and  O_43
    9  A    between atoms: C_10  and  N_49
   10  A    between atoms: C_11  and  C_20
   11  A    between atoms: C_11  and  O_43
   12  A    between atoms: C_12  and  C_42
   13  A    between atoms: C_13  and  N_29
   14  A    between atoms: C_13  and  C_42
   15  A    between atoms: C_15  and  C_50
   16  A    between atoms: S_16  and  C_22
   17  A    between atoms: S_16  and  C_33
   18  A    between atoms: O_18  and  O_32
   19  A    between atoms: O_18  and  C_46
   20  A    between atoms: C_21  and  C_50
   21  A    between atoms: N_23  and  C_39
   22  A    between atoms: C_25  and  C_46
   23  A    between atoms: C_27  and  C_45
   24  A    between atoms: O_32  and  C_37
                            x       y       z     vdW  Elec       q    Type
                         _______ _______ _______ _____ _____    ______ ____

>  <TORSDO>
F 24

$$$$
=
 OpenBabel10232411173D

 50 51  0  0  1  0  0  0  0  0999 V2000
  188.9360  174.0450  134.5510 N   0  0  0  0  0  1  0  0  0  0  0  0
  187.6000  177.0160  136.3990 C   0  0  0  0  0  0  0  0  0  0  0  0
  188.7760  177.4930  137.0240 C   0  0  0  0  0  0  0  0  0  0  0  0
  186.5460  175.3630  134.9430 O   0  0  0  0  0  1  0  0  0  0  0  0
  187.6780  175.8680  135.5730 C   0  0  0  0  0  0  0  0  0  0  0  0
  188.9030  175.2120  135.3740 C   0  0  0  0  0  0  0  0  0  0  0  0
  189.9840  176.8210  136.8100 C   0  0  0  0  0  3  0  0  0  0  0  0
  190.0720  175.6910  135.9970 C   0  0  0  0  0  0  0  0  0  0  0  0
  192.1530  175.3480  134.8780 O   0  0  0  0  0  0  0  0  0  0  0  0
  191.8190  174.0610  136.7880 N   0  0  0  0  0  2  0  0  0  0  0  0
  191.3950  175.0430  135.8380 C   0  0  0  0  0  0  0  0  0  0  0  0
  193.1260  173.4270  136.7280 C   0  0  0  0  0  2  0  0  0  0  0  0
  194.1730  174.3470  137.3260 C   0  0  0  0  0  2  0  0  0  0  0  0
  195.1490  174.6940  136.3080 N   0  0  0  0  0  2  0  0  0  0  0  0
  196.1500  173.6370  136.2770 C   0  0  2  0  0  3  0  0  0  0  0  0
  197.5060  174.1610  136.6460 C   0  0  0  0  0  0  0  0  0  0  0  0
  198.4580  174.9370  135.3880 Cl  0  0  0  0  0  0  0  0  0  0  0  0
  197.9630  174.0060  137.8530 N   0  0  0  0  0  0  0  0  0  0  0  0
  199.2500  174.4580  138.2640 C   0  0  0  0  0  3  0  0  0  0  0  0
  199.3630  175.2080  139.2670 O   0  0  0  0  0  0  0  0  0  0  0  0
  196.1480  172.9140  134.9310 C   0  0  0  0  0  2  0  0  0  0  0  0
  196.7130  171.5030  135.0240 C   0  0  0  0  0  2  0  0  0  0  0  0
  195.9780  170.6520  136.4460 S   0  0  0  0  0  1  0  0  0  0  0  0
  188.9810  179.8420  137.4290 O   0  0  0  0  0  0  0  0  0  0  0  0
  188.7830  178.6920  137.9020 C   0  0  0  0  0  0  0  0  0  0  0  0
  188.5580  178.5660  139.3170 C   0  0  0  0  0  0  0  0  0  0  0  0
  188.3550  178.4650  140.5010 C   0  0  0  0  0  0  0  0  0  0  0  0
  188.0340  178.3140  142.2290 S   0  0  0  0  0  0  0  0  0  0  0  0
  185.3340  178.2720  142.8290 C   0  0  0  0  0  0  0  0  0  0  0  0
  186.2950  177.9560  141.9610 C   0  0  0  0  0  3  0  0  0  0  0  0
  185.6600  178.9530  144.1280 C   0  0  0  0  0  2  0  0  0  0  0  0
  185.9790  177.9220  145.1940 C   0  0  0  0  0  2  0  0  0  0  0  0
  186.6170  178.5440  146.2690 O   0  0  0  0  0  0  0  0  0  0  0  0
  186.8940  177.5640  147.1030 O   0  0  0  0  0  0  0  0  0  0  0  0
  188.0030  177.2440  149.0560 F   0  0  0  0  0  0  0  0  0  0  0  0
  187.8500  178.0930  147.9770 C   0  0  1  0  0  3  0  0  0  0  0  0
  189.1210  178.2240  147.2840 N   0  0  0  0  0  2  0  0  0  0  0  0
  190.7800  176.4760  147.3650 C   0  0  0  0  0  2  0  0  0  0  0  0
  189.4800  176.9060  146.7780 C   0  0  2  0  0  3  0  0  0  0  0  0
  191.7560  176.4890  146.4720 C   0  0  0  0  0  2  0  0  0  0  0  0
  191.6410  175.9080  144.0880 C   0  0  0  0  0  1  0  0  0  0  0  0
  191.2730  176.9320  145.1390 C   0  0  1  0  0  3  0  0  0  0  0  0
  189.7600  177.0030  145.2850 C   0  0  0  0  0  2  0  0  0  0  0  0
  184.0140  177.9300  142.4980 O   0  0  0  0  0  0  0  0  0  0  0  0
  183.1280  178.7370  141.7200 C   0  0  2  0  0  3  0  0  0  0  0  0
  181.9450  178.9860  142.4160 O   0  0  0  0  0  1  0  0  0  0  0  0
  182.8270  178.0970  140.3750 C   0  0  0  0  0  2  0  0  0  0  0  0
  183.2070  176.7680  140.3930 F   0  0  0  0  0  0  0  0  0  0  0  0
  185.3350  177.3980  137.5730 C   0  0  0  0  0  1  0  0  0  0  0  0
  186.3640  177.7220  136.5990 N   0  0  0  0  0  2  0  0  0  0  0  0
  1  6  1  0  0  0  0
  2 50  1  0  0  0  0
  2  3  1  0  0  0  0
  3 25  1  0  0  0  0
  4  5  1  0  0  0  0
  5  2  2  0  0  0  0
  6  5  1  0  0  0  0
  6  8  2  0  0  0  0
  7  3  2  0  0  0  0
  8  7  1  0  0  0  0
  9 11  2  0  0  0  0
 11  8  1  0  0  0  0
 11 10  1  0  0  0  0
 12 10  1  0  0  0  0
 12 13  1  0  0  0  0
 14 13  1  0  0  0  0
 15 21  1  6  0  0  0
 15 14  1  0  0  0  0
 15 16  1  0  0  0  0
 16 18  2  0  0  0  0
 17 16  1  0  0  0  0
 18 19  1  0  0  0  0
 19 20  2  0  0  0  0
 21 22  1  0  0  0  0
 22 23  1  0  0  0  0
 24 25  2  0  0  0  0
 25 26  1  0  0  0  0
 26 27  3  0  0  0  0
 27 28  1  0  0  0  0
 29 31  1  0  0  0  0
 30 28  1  0  0  0  0
 30 29  2  0  0  0  0
 31 32  1  0  0  0  0
 32 33  1  0  0  0  0
 33 34  1  0  0  0  0
 34 36  1  0  0  0  0
 36 35  1  1  0  0  0
 37 36  1  0  0  0  0
 39 37  1  1  0  0  0
 39 38  1  0  0  0  0
 40 38  1  0  0  0  0
 42 41  1  6  0  0  0
 42 43  1  0  0  0  0
 42 40  1  0  0  0  0
 43 39  1  0  0  0  0
 44 29  1  0  0  0  0
 45 46  1  1  0  0  0
 45 44  1  0  0  0  0
 47 48  1  0  0  0  0
 47 45  1  0  0  0  0
 50 49  1  0  0  0  0
M  END
>  <MODEL>
2

>  <REMARK>
 VINA RESULT:      -6.2      4.361      8.252
  Name = 
  24 active torsions:
  status: ('A' for Active; 'I' for Inactive)
    1  A    between atoms: C_1  and  N_47
    2  A    between atoms: C_5  and  N_29
    3  A    between atoms: C_5  and  C_39
    4  A    between atoms: N_7  and  C_19
    5  A    between atoms: N_7  and  C_37
    6  A    between atoms: C_8  and  C_13
    7  A    between atoms: C_9  and  C_25
    8  A    between atoms: C_9  and  O_43
    9  A    between atoms: C_10  and  N_49
   10  A    between atoms: C_11  and  C_20
   11  A    between atoms: C_11  and  O_43
   12  A    between atoms: C_12  and  C_42
   13  A    between atoms: C_13  and  N_29
   14  A    between atoms: C_13  and  C_42
   15  A    between atoms: C_15  and  C_50
   16  A    between atoms: S_16  and  C_22
   17  A    between atoms: S_16  and  C_33
   18  A    between atoms: O_18  and  O_32
   19  A    between atoms: O_18  and  C_46
   20  A    between atoms: C_21  and  C_50
   21  A    between atoms: N_23  and  C_39
   22  A    between atoms: C_25  and  C_46
   23  A    between atoms: C_27  and  C_45
   24  A    between atoms: O_32  and  C_37
                            x       y       z     vdW  Elec       q    Type
                         _______ _______ _______ _____ _____    ______ ____

>  <TORSDO>
F 24

$$$$
=
 OpenBabel10232411173D

 50 51  0  0  1  0  0  0  0  0999 V2000
  183.3380  179.1950  144.2210 N   0  0  0  0  0  1  0  0  0  0  0  0
  186.5530  177.8380  145.5790 C   0  0  0  0  0  0  0  0  0  0  0  0
  187.2930  177.6600  144.3870 C   0  0  0  0  0  0  0  0  0  0  0  0
  184.4740  178.5440  146.6480 O   0  0  0  0  0  1  0  0  0  0  0  0
  185.2380  178.3570  145.5010 C   0  0  0  0  0  0  0  0  0  0  0  0
  184.6750  178.6940  144.2600 C   0  0  0  0  0  0  0  0  0  0  0  0
  186.7100  178.0030  143.1630 C   0  0  0  0  0  3  0  0  0  0  0  0
  185.4160  178.5170  143.0750 C   0  0  0  0  0  0  0  0  0  0  0  0
  185.5080  179.6140  140.9560 O   0  0  0  0  0  0  0  0  0  0  0  0
  183.6380  178.2740  141.3100 N   0  0  0  0  0  2  0  0  0  0  0  0
  184.8810  178.8430  141.7320 C   0  0  0  0  0  0  0  0  0  0  0  0
  183.0820  178.5020  139.9870 C   0  0  0  0  0  2  0  0  0  0  0  0
  183.5270  177.4020  139.0430 C   0  0  0  0  0  2  0  0  0  0  0  0
  184.1600  177.9920  137.8760 N   0  0  0  0  0  2  0  0  0  0  0  0
  184.7060  176.9070  137.0740 C   0  0  2  0  0  3  0  0  0  0  0  0
  186.0500  177.2660  136.5150 C   0  0  0  0  0  0  0  0  0  0  0  0
  186.7860  176.1570  135.3650 Cl  0  0  0  0  0  0  0  0  0  0  0  0
  186.6560  178.3460  136.9070 N   0  0  0  0  0  0  0  0  0  0  0  0
  187.9440  178.7340  136.4360 C   0  0  0  0  0  3  0  0  0  0  0  0
  188.8280  179.1020  137.2530 O   0  0  0  0  0  0  0  0  0  0  0  0
  183.7190  176.4710  135.9900 C   0  0  0  0  0  2  0  0  0  0  0  0
  183.1280  175.0940  136.2570 C   0  0  0  0  0  2  0  0  0  0  0  0
  184.2970  174.1140  137.2370 S   0  0  0  0  0  1  0  0  0  0  0  0
  189.1590  176.5500  145.3930 O   0  0  0  0  0  0  0  0  0  0  0  0
  188.6800  177.1250  144.3800 C   0  0  0  0  0  0  0  0  0  0  0  0
  189.5070  177.2470  143.2100 C   0  0  0  0  0  0  0  0  0  0  0  0
  190.2080  177.3610  142.2360 C   0  0  0  0  0  0  0  0  0  0  0  0
  191.2480  177.5410  140.8230 S   0  0  0  0  0  0  0  0  0  0  0  0
  190.3510  176.3700  138.4820 C   0  0  0  0  0  0  0  0  0  0  0  0
  190.1220  176.6180  139.7710 C   0  0  0  0  0  3  0  0  0  0  0  0
  191.5940  176.8760  137.8080 C   0  0  0  0  0  2  0  0  0  0  0  0
  192.8190  176.1960  138.3880 C   0  0  0  0  0  2  0  0  0  0  0  0
  193.9330  176.4860  137.5990 O   0  0  0  0  0  0  0  0  0  0  0  0
  193.5010  176.3790  136.3600 O   0  0  0  0  0  0  0  0  0  0  0  0
  194.9940  177.5630  135.1290 F   0  0  0  0  0  0  0  0  0  0  0  0
  194.6580  176.3000  135.5800 C   0  0  1  0  0  3  0  0  0  0  0  0
  195.7500  175.7710  136.3820 N   0  0  0  0  0  2  0  0  0  0  0  0
  194.9610  173.9370  135.0310 C   0  0  0  0  0  2  0  0  0  0  0  0
  196.0960  174.4640  135.8390 C   0  0  2  0  0  3  0  0  0  0  0  0
  194.3540  172.9250  135.6310 C   0  0  0  0  0  2  0  0  0  0  0  0
  195.3560  171.1460  136.9960 C   0  0  0  0  0  1  0  0  0  0  0  0
  194.9790  172.6100  136.9410 C   0  0  1  0  0  3  0  0  0  0  0  0
  196.2340  173.4690  136.9820 C   0  0  0  0  0  2  0  0  0  0  0  0
  189.3850  175.6400  137.7730 O   0  0  0  0  0  0  0  0  0  0  0  0
  189.6450  174.4590  137.0120 C   0  0  2  0  0  3  0  0  0  0  0  0
  190.6370  173.6870  137.6190 O   0  0  0  0  0  1  0  0  0  0  0  0
  190.0330  174.7910  135.5810 C   0  0  0  0  0  2  0  0  0  0  0  0
  191.2530  174.2150  135.2800 F   0  0  0  0  0  0  0  0  0  0  0  0
  187.6240  178.4510  147.8450 C   0  0  0  0  0  1  0  0  0  0  0  0
  187.1640  177.5090  146.8390 N   0  0  0  0  0  2  0  0  0  0  0  0
  1  6  1  0  0  0  0
  2 50  1  0  0  0  0
  3  2  2  0  0  0  0
  5  2  1  0  0  0  0
  5  4  1  0  0  0  0
  6  5  2  0  0  0  0
  7  3  1  0  0  0  0
  8  7  2  0  0  0  0
  8  6  1  0  0  0  0
  9 11  2  0  0  0  0
 10 11  1  0  0  0  0
 11  8  1  0  0  0  0
 12 10  1  0  0  0  0
 13 12  1  0  0  0  0
 14 13  1  0  0  0  0
 15 21  1  6  0  0  0
 15 14  1  0  0  0  0
 16 18  2  0  0  0  0
 16 15  1  0  0  0  0
 17 16  1  0  0  0  0
 19 18  1  0  0  0  0
 19 20  2  0  0  0  0
 21 22  1  0  0  0  0
 22 23  1  0  0  0  0
 25  3  1  0  0  0  0
 25 24  2  0  0  0  0
 26 25  1  0  0  0  0
 27 26  3  0  0  0  0
 28 27  1  0  0  0  0
 29 30  2  0  0  0  0
 30 28  1  0  0  0  0
 31 32  1  0  0  0  0
 31 29  1  0  0  0  0
 33 32  1  0  0  0  0
 34 33  1  0  0  0  0
 36 35  1  1  0  0  0
 36 34  1  0  0  0  0
 36 37  1  0  0  0  0
 38 40  1  0  0  0  0
 38 39  1  0  0  0  0
 39 37  1  1  0  0  0
 39 43  1  0  0  0  0
 40 42  1  0  0  0  0
 42 43  1  0  0  0  0
 42 41  1  6  0  0  0
 44 29  1  0  0  0  0
 45 46  1  1  0  0  0
 45 44  1  0  0  0  0
 47 45  1  0  0  0  0
 48 47  1  0  0  0  0
 50 49  1  0  0  0  0
M  END
>  <MODEL>
3

>  <REMARK>
 VINA RESULT:      -6.0      4.028     10.586
  Name = 
  24 active torsions:
  status: ('A' for Active; 'I' for Inactive)
    1  A    between atoms: C_1  and  N_47
    2  A    between atoms: C_5  and  N_29
    3  A    between atoms: C_5  and  C_39
    4  A    between atoms: N_7  and  C_19
    5  A    between atoms: N_7  and  C_37
    6  A    between atoms: C_8  and  C_13
    7  A    between atoms: C_9  and  C_25
    8  A    between atoms: C_9  and  O_43
    9  A    between atoms: C_10  and  N_49
   10  A    between atoms: C_11  and  C_20
   11  A    between atoms: C_11  and  O_43
   12  A    between atoms: C_12  and  C_42
   13  A    between atoms: C_13  and  N_29
   14  A    between atoms: C_13  and  C_42
   15  A    between atoms: C_15  and  C_50
   16  A    between atoms: S_16  and  C_22
   17  A    between atoms: S_16  and  C_33
   18  A    between atoms: O_18  and  O_32
   19  A    between atoms: O_18  and  C_46
   20  A    between atoms: C_21  and  C_50
   21  A    between atoms: N_23  and  C_39
   22  A    between atoms: C_25  and  C_46
   23  A    between atoms: C_27  and  C_45
   24  A    between atoms: O_32  and  C_37
                            x       y       z     vdW  Elec       q    Type
                         _______ _______ _______ _____ _____    ______ ____

>  <TORSDO>
F 24

$$$$
=
 OpenBabel10232411173D

 50 51  0  0  1  0  0  0  0  0999 V2000
  191.6070  177.1050  146.2620 N   0  0  0  0  0  1  0  0  0  0  0  0
  187.9420  177.7920  146.6020 C   0  0  0  0  0  0  0  0  0  0  0  0
  187.5090  177.6050  145.2680 C   0  0  0  0  0  0  0  0  0  0  0  0
  189.7790  177.7910  148.2100 O   0  0  0  0  0  1  0  0  0  0  0  0
  189.3120  177.6140  146.9120 C   0  0  0  0  0  0  0  0  0  0  0  0
  190.2300  177.2540  145.9130 C   0  0  0  0  0  0  0  0  0  0  0  0
  188.4440  177.2480  144.2900 C   0  0  0  0  0  3  0  0  0  0  0  0
  189.7960  177.0680  144.5860 C   0  0  0  0  0  0  0  0  0  0  0  0
  191.4450  175.6750  143.5650 O   0  0  0  0  0  0  0  0  0  0  0  0
  190.7620  177.5090  142.3050 N   0  0  0  0  0  2  0  0  0  0  0  0
  190.7110  176.6970  143.4810 C   0  0  0  0  0  0  0  0  0  0  0  0
  191.5920  177.1750  141.1580 C   0  0  0  0  0  2  0  0  0  0  0  0
  190.8040  177.3690  139.8770 C   0  0  0  0  0  2  0  0  0  0  0  0
  190.3940  176.0740  139.3610 N   0  0  0  0  0  2  0  0  0  0  0  0
  190.2290  176.2050  137.9210 C   0  0  2  0  0  3  0  0  0  0  0  0
  189.0110  177.0120  137.5840 C   0  0  0  0  0  0  0  0  0  0  0  0
  189.2490  178.6080  136.8840 Cl  0  0  0  0  0  0  0  0  0  0  0  0
  187.8240  176.5480  137.8410 N   0  0  0  0  0  0  0  0  0  0  0  0
  186.6270  177.2720  137.5700 C   0  0  0  0  0  3  0  0  0  0  0  0
  186.0870  177.1920  136.4370 O   0  0  0  0  0  0  0  0  0  0  0  0
  190.2330  174.8370  137.2380 C   0  0  0  0  0  2  0  0  0  0  0  0
  191.5970  174.1640  137.2840 C   0  0  0  0  0  2  0  0  0  0  0  0
  191.9380  173.3800  135.6840 S   0  0  0  0  0  1  0  0  0  0  0  0
  185.1520  177.5940  145.6800 O   0  0  0  0  0  0  0  0  0  0  0  0
  186.0900  177.7680  144.8580 C   0  0  0  0  0  0  0  0  0  0  0  0
  185.7540  178.1360  143.5080 C   0  0  0  0  0  0  0  0  0  0  0  0
  185.4610  178.4520  142.3830 C   0  0  0  0  0  0  0  0  0  0  0  0
  185.0180  178.9310  140.7440 S   0  0  0  0  0  0  0  0  0  0  0  0
  182.4960  177.9320  140.1960 C   0  0  0  0  0  0  0  0  0  0  0  0
  183.2730  178.6200  141.0340 C   0  0  0  0  0  3  0  0  0  0  0  0
  183.0480  177.3730  138.9160 C   0  0  0  0  0  2  0  0  0  0  0  0
  182.8590  175.8690  138.8770 C   0  0  0  0  0  2  0  0  0  0  0  0
  181.8750  175.5450  137.9420 O   0  0  0  0  0  0  0  0  0  0  0  0
  182.5410  175.1020  136.8970 O   0  0  0  0  0  0  0  0  0  0  0  0
  181.3980  173.1430  136.9470 F   0  0  0  0  0  0  0  0  0  0  0  0
  182.6450  173.7210  137.0920 C   0  0  1  0  0  3  0  0  0  0  0  0
  183.5530  173.1580  136.1060 N   0  0  0  0  0  2  0  0  0  0  0  0
  185.3650  173.1220  137.6960 C   0  0  0  0  0  2  0  0  0  0  0  0
  184.4890  172.2980  136.8170 C   0  0  2  0  0  3  0  0  0  0  0  0
  186.6060  173.1850  137.2410 C   0  0  0  0  0  2  0  0  0  0  0  0
  187.9030  171.4260  136.1190 C   0  0  0  0  0  1  0  0  0  0  0  0
  186.7670  172.4160  135.9810 C   0  0  1  0  0  3  0  0  0  0  0  0
  185.4500  171.6730  135.8160 C   0  0  0  0  0  2  0  0  0  0  0  0
  181.1470  177.7650  140.5410 O   0  0  0  0  0  0  0  0  0  0  0  0
  180.3150  178.7760  141.1140 C   0  0  2  0  0  3  0  0  0  0  0  0
  180.6550  180.0360  140.6180 O   0  0  0  0  0  1  0  0  0  0  0  0
  180.3880  178.7660  142.6310 C   0  0  0  0  0  2  0  0  0  0  0  0
  180.9250  179.9570  143.0830 F   0  0  0  0  0  0  0  0  0  0  0  0
  186.4500  179.4610  147.8840 C   0  0  0  0  0  1  0  0  0  0  0  0
  186.9750  178.1340  147.6100 N   0  0  0  0  0  2  0  0  0  0  0  0
  2  5  1  0  0  0  0
  2 50  1  0  0  0  0
  3  2  2  0  0  0  0
  5  4  1  0  0  0  0
  6  1  1  0  0  0  0
  6  5  2  0  0  0  0
  7  8  2  0  0  0  0
  7  3  1  0  0  0  0
  8  6  1  0  0  0  0
 10 11  1  0  0  0  0
 11  9  2  0  0  0  0
 11  8  1  0  0  0  0
 12 10  1  0  0  0  0
 13 12  1  0  0  0  0
 14 13  1  0  0  0  0
 15 21  1  6  0  0  0
 15 14  1  0  0  0  0
 16 18  2  0  0  0  0
 16 15  1  0  0  0  0
 17 16  1  0  0  0  0
 19 18  1  0  0  0  0
 20 19  2  0  0  0  0
 21 22  1  0  0  0  0
 23 22  1  0  0  0  0
 25  3  1  0  0  0  0
 25 24  2  0  0  0  0
 26 25  1  0  0  0  0
 27 26  3  0  0  0  0
 28 30  1  0  0  0  0
 28 27  1  0  0  0  0
 29 44  1  0  0  0  0
 29 30  2  0  0  0  0
 31 29  1  0  0  0  0
 32 31  1  0  0  0  0
 33 32  1  0  0  0  0
 34 36  1  0  0  0  0
 34 33  1  0  0  0  0
 36 35  1  6  0  0  0
 37 36  1  0  0  0  0
 39 37  1  6  0  0  0
 39 38  1  0  0  0  0
 40 38  1  0  0  0  0
 42 41  1  1  0  0  0
 42 40  1  0  0  0  0
 43 42  1  0  0  0  0
 43 39  1  0  0  0  0
 44 45  1  0  0  0  0
 45 46  1  6  0  0  0
 45 47  1  0  0  0  0
 47 48  1  0  0  0  0
 50 49  1  0  0  0  0
M  END
>  <MODEL>
4

>  <REMARK>
 VINA RESULT:      -6.0      3.379      8.612
  Name = 
  24 active torsions:
  status: ('A' for Active; 'I' for Inactive)
    1  A    between atoms: C_1  and  N_47
    2  A    between atoms: C_5  and  N_29
    3  A    between atoms: C_5  and  C_39
    4  A    between atoms: N_7  and  C_19
    5  A    between atoms: N_7  and  C_37
    6  A    between atoms: C_8  and  C_13
    7  A    between atoms: C_9  and  C_25
    8  A    between atoms: C_9  and  O_43
    9  A    between atoms: C_10  and  N_49
   10  A    between atoms: C_11  and  C_20
   11  A    between atoms: C_11  and  O_43
   12  A    between atoms: C_12  and  C_42
   13  A    between atoms: C_13  and  N_29
   14  A    between atoms: C_13  and  C_42
   15  A    between atoms: C_15  and  C_50
   16  A    between atoms: S_16  and  C_22
   17  A    between atoms: S_16  and  C_33
   18  A    between atoms: O_18  and  O_32
   19  A    between atoms: O_18  and  C_46
   20  A    between atoms: C_21  and  C_50
   21  A    between atoms: N_23  and  C_39
   22  A    between atoms: C_25  and  C_46
   23  A    between atoms: C_27  and  C_45
   24  A    between atoms: O_32  and  C_37
                            x       y       z     vdW  Elec       q    Type
                         _______ _______ _______ _____ _____    ______ ____

>  <TORSDO>
F 24

$$$$
=
 OpenBabel10232411173D

 50 51  0  0  1  0  0  0  0  0999 V2000
  186.3580  178.8390  147.6560 N   0  0  0  0  0  1  0  0  0  0  0  0
  189.2220  177.4460  145.6870 C   0  0  0  0  0  0  0  0  0  0  0  0
  188.6010  177.2140  144.4380 C   0  0  0  0  0  0  0  0  0  0  0  0
  189.0270  178.2350  147.9900 O   0  0  0  0  0  1  0  0  0  0  0  0
  188.4560  177.9950  146.7450 C   0  0  0  0  0  0  0  0  0  0  0  0
  187.1010  178.3070  146.5580 C   0  0  0  0  0  0  0  0  0  0  0  0
  187.2480  177.5330  144.2780 C   0  0  0  0  0  3  0  0  0  0  0  0
  186.4860  178.0760  145.3130 C   0  0  0  0  0  0  0  0  0  0  0  0
  184.2700  178.6490  145.9940 O   0  0  0  0  0  0  0  0  0  0  0  0
  184.5690  178.3500  143.7050 N   0  0  0  0  0  2  0  0  0  0  0  0
  185.0580  178.3740  145.0490 C   0  0  0  0  0  0  0  0  0  0  0  0
  183.1960  178.6880  143.3660 C   0  0  0  0  0  2  0  0  0  0  0  0
  183.0570  178.8360  141.8630 C   0  0  0  0  0  2  0  0  0  0  0  0
  183.6680  177.6930  141.2060 N   0  0  0  0  0  2  0  0  0  0  0  0
  182.8850  177.3990  140.0140 C   0  0  2  0  0  3  0  0  0  0  0  0
  183.6810  177.6400  138.7670 C   0  0  0  0  0  0  0  0  0  0  0  0
  184.8760  178.9300  138.7910 Cl  0  0  0  0  0  0  0  0  0  0  0  0
  183.4580  176.9340  137.6990 N   0  0  0  0  0  0  0  0  0  0  0  0
  184.1610  177.1270  136.4740 C   0  0  0  0  0  3  0  0  0  0  0  0
  183.5520  177.0320  135.3780 O   0  0  0  0  0  0  0  0  0  0  0  0
  181.5610  178.1630  140.0210 C   0  0  0  0  0  2  0  0  0  0  0  0
  180.3990  177.3260  139.5040 C   0  0  0  0  0  2  0  0  0  0  0  0
  180.6530  175.5910  139.9660 S   0  0  0  0  0  1  0  0  0  0  0  0
  190.1040  175.6590  143.4130 O   0  0  0  0  0  0  0  0  0  0  0  0
  189.3310  176.6450  143.2760 C   0  0  0  0  0  0  0  0  0  0  0  0
  189.1680  177.2040  141.9610 C   0  0  0  0  0  0  0  0  0  0  0  0
  189.0250  177.6860  140.8650 C   0  0  0  0  0  0  0  0  0  0  0  0
  188.8170  178.4120  139.2710 S   0  0  0  0  0  0  0  0  0  0  0  0
  189.8350  176.9760  137.1360 C   0  0  0  0  0  0  0  0  0  0  0  0
  189.7350  177.0980  138.4590 C   0  0  0  0  0  3  0  0  0  0  0  0
  189.1540  177.9500  136.2170 C   0  0  0  0  0  2  0  0  0  0  0  0
  188.0230  177.2660  135.4740 C   0  0  0  0  0  2  0  0  0  0  0  0
  187.6440  176.1100  136.1590 O   0  0  0  0  0  0  0  0  0  0  0  0
  187.1320  175.3260  135.2330 O   0  0  0  0  0  0  0  0  0  0  0  0
  188.1420  173.8520  136.6310 F   0  0  0  0  0  0  0  0  0  0  0  0
  187.0310  174.0700  135.8390 C   0  0  1  0  0  3  0  0  0  0  0  0
  185.8350  174.0260  136.6670 N   0  0  0  0  0  2  0  0  0  0  0  0
  183.5180  173.3630  136.6670 C   0  0  0  0  0  2  0  0  0  0  0  0
  184.7700  173.4410  135.8640 C   0  0  2  0  0  3  0  0  0  0  0  0
  183.2170  172.1180  136.9970 C   0  0  0  0  0  2  0  0  0  0  0  0
  183.5290  170.0760  135.6660 C   0  0  0  0  0  1  0  0  0  0  0  0
  184.2190  171.1550  136.4730 C   0  0  1  0  0  3  0  0  0  0  0  0
  185.1110  171.9880  135.5650 C   0  0  0  0  0  2  0  0  0  0  0  0
  190.5800  175.9000  136.6320 O   0  0  0  0  0  0  0  0  0  0  0  0
  191.7940  175.4040  137.2000 C   0  0  2  0  0  3  0  0  0  0  0  0
  192.8470  176.2900  136.9680 O   0  0  0  0  0  1  0  0  0  0  0  0
  192.1360  174.0230  136.6680 C   0  0  0  0  0  2  0  0  0  0  0  0
  191.2340  173.6630  135.6830 F   0  0  0  0  0  0  0  0  0  0  0  0
  191.2140  176.3470  146.9040 C   0  0  0  0  0  1  0  0  0  0  0  0
  190.6190  177.1410  145.8420 N   0  0  0  0  0  2  0  0  0  0  0  0
  2 50  1  0  0  0  0
  2  5  1  0  0  0  0
  3  2  2  0  0  0  0
  5  4  1  0  0  0  0
  6  5  2  0  0  0  0
  6  1  1  0  0  0  0
  7  3  1  0  0  0  0
  7  8  2  0  0  0  0
  8  6  1  0  0  0  0
 10 11  1  0  0  0  0
 11  8  1  0  0  0  0
 11  9  2  0  0  0  0
 12 10  1  0  0  0  0
 13 12  1  0  0  0  0
 14 13  1  0  0  0  0
 15 21  1  6  0  0  0
 15 14  1  0  0  0  0
 16 17  1  0  0  0  0
 16 15  1  0  0  0  0
 18 16  2  0  0  0  0
 19 18  1  0  0  0  0
 20 19  2  0  0  0  0
 22 23  1  0  0  0  0
 22 21  1  0  0  0  0
 25 24  2  0  0  0  0
 25  3  1  0  0  0  0
 26 25  1  0  0  0  0
 27 26  3  0  0  0  0
 28 27  1  0  0  0  0
 29 30  2  0  0  0  0
 30 28  1  0  0  0  0
 31 29  1  0  0  0  0
 32 33  1  0  0  0  0
 32 31  1  0  0  0  0
 34 36  1  0  0  0  0
 34 33  1  0  0  0  0
 36 35  1  1  0  0  0
 36 37  1  0  0  0  0
 38 40  1  0  0  0  0
 39 37  1  1  0  0  0
 39 38  1  0  0  0  0
 42 41  1  6  0  0  0
 42 40  1  0  0  0  0
 43 39  1  0  0  0  0
 43 42  1  0  0  0  0
 44 29  1  0  0  0  0
 44 45  1  0  0  0  0
 45 46  1  6  0  0  0
 47 45  1  0  0  0  0
 48 47  1  0  0  0  0
 50 49  1  0  0  0  0
M  END
>  <MODEL>
5

>  <REMARK>
 VINA RESULT:      -5.9      3.531      9.343
  Name = 
  24 active torsions:
  status: ('A' for Active; 'I' for Inactive)
    1  A    between atoms: C_1  and  N_47
    2  A    between atoms: C_5  and  N_29
    3  A    between atoms: C_5  and  C_39
    4  A    between atoms: N_7  and  C_19
    5  A    between atoms: N_7  and  C_37
    6  A    between atoms: C_8  and  C_13
    7  A    between atoms: C_9  and  C_25
    8  A    between atoms: C_9  and  O_43
    9  A    between atoms: C_10  and  N_49
   10  A    between atoms: C_11  and  C_20
   11  A    between atoms: C_11  and  O_43
   12  A    between atoms: C_12  and  C_42
   13  A    between atoms: C_13  and  N_29
   14  A    between atoms: C_13  and  C_42
   15  A    between atoms: C_15  and  C_50
   16  A    between atoms: S_16  and  C_22
   17  A    between atoms: S_16  and  C_33
   18  A    between atoms: O_18  and  O_32
   19  A    between atoms: O_18  and  C_46
   20  A    between atoms: C_21  and  C_50
   21  A    between atoms: N_23  and  C_39
   22  A    between atoms: C_25  and  C_46
   23  A    between atoms: C_27  and  C_45
   24  A    between atoms: O_32  and  C_37
                            x       y       z     vdW  Elec       q    Type
                         _______ _______ _______ _____ _____    ______ ____

>  <TORSDO>
F 24

$$$$
=
 OpenBabel10232411173D

 50 51  0  0  1  0  0  0  0  0999 V2000
  183.0880  179.0600  145.1920 N   0  0  0  0  0  1  0  0  0  0  0  0
  181.8350  178.7280  141.6790 C   0  0  0  0  0  0  0  0  0  0  0  0
  183.0360  178.4290  140.9940 C   0  0  0  0  0  0  0  0  0  0  0  0
  180.7180  179.2270  143.7930 O   0  0  0  0  0  1  0  0  0  0  0  0
  181.8750  178.9280  143.0810 C   0  0  0  0  0  0  0  0  0  0  0  0
  183.0860  178.8300  143.7820 C   0  0  0  0  0  0  0  0  0  0  0  0
  184.2300  178.3380  141.7160 C   0  0  0  0  0  3  0  0  0  0  0  0
  184.2800  178.5310  143.0970 C   0  0  0  0  0  0  0  0  0  0  0  0
  186.6680  178.5140  143.1180 O   0  0  0  0  0  0  0  0  0  0  0  0
  185.6450  178.2110  145.1860 N   0  0  0  0  0  2  0  0  0  0  0  0
  185.5940  178.4220  143.7730 C   0  0  0  0  0  0  0  0  0  0  0  0
  186.8960  178.1520  145.9240 C   0  0  0  0  0  2  0  0  0  0  0  0
  187.9580  177.4640  145.0870 C   0  0  0  0  0  2  0  0  0  0  0  0
  189.2250  178.1560  145.2500 N   0  0  0  0  0  2  0  0  0  0  0  0
  190.2860  177.1670  145.1240 C   0  0  2  0  0  3  0  0  0  0  0  0
  190.6950  176.6330  146.4640 C   0  0  0  0  0  0  0  0  0  0  0  0
  189.4400  176.4080  147.6770 Cl  0  0  0  0  0  0  0  0  0  0  0  0
  191.9450  176.3850  146.7190 N   0  0  0  0  0  0  0  0  0  0  0  0
  192.4040  175.9010  147.9780 C   0  0  0  0  0  3  0  0  0  0  0  0
  193.3260  176.5040  148.5850 O   0  0  0  0  0  0  0  0  0  0  0  0
  191.4680  177.7240  144.3300 C   0  0  0  0  0  2  0  0  0  0  0  0
  191.2270  177.6990  142.8270 C   0  0  0  0  0  2  0  0  0  0  0  0
  190.3380  176.1830  142.3830 S   0  0  0  0  0  1  0  0  0  0  0  0
  183.6240  179.0370  138.7550 O   0  0  0  0  0  0  0  0  0  0  0  0
  183.0820  178.2010  139.5260 C   0  0  0  0  0  0  0  0  0  0  0  0
  182.5130  177.0120  138.9500 C   0  0  0  0  0  0  0  0  0  0  0  0
  182.0450  176.0180  138.4540 C   0  0  0  0  0  0  0  0  0  0  0  0
  181.3770  174.5630  137.7140 S   0  0  0  0  0  0  0  0  0  0  0  0
  183.5730  174.2880  136.0540 C   0  0  0  0  0  0  0  0  0  0  0  0
  182.9980  173.9710  137.2140 C   0  0  0  0  0  3  0  0  0  0  0  0
  182.8740  175.1720  135.0610 C   0  0  0  0  0  2  0  0  0  0  0  0
  183.7850  176.3090  134.6390 C   0  0  0  0  0  2  0  0  0  0  0  0
  184.1900  177.0260  135.7660 O   0  0  0  0  0  0  0  0  0  0  0  0
  185.4670  177.2730  135.5610 O   0  0  0  0  0  0  0  0  0  0  0  0
  185.6970  176.4750  137.6720 F   0  0  0  0  0  0  0  0  0  0  0  0
  185.9930  177.5310  136.8310 C   0  0  1  0  0  3  0  0  0  0  0  0
  187.4370  177.6800  136.7370 N   0  0  0  0  0  2  0  0  0  0  0  0
  188.3870  177.7570  138.9510 C   0  0  0  0  0  2  0  0  0  0  0  0
  188.0280  176.8810  137.8010 C   0  0  2  0  0  3  0  0  0  0  0  0
  189.6970  177.9050  139.0710 C   0  0  0  0  0  2  0  0  0  0  0  0
  191.4570  176.2420  138.6580 C   0  0  0  0  0  1  0  0  0  0  0  0
  190.4320  177.1540  138.0210 C   0  0  1  0  0  3  0  0  0  0  0  0
  189.3620  176.3260  137.3250 C   0  0  0  0  0  2  0  0  0  0  0  0
  184.8420  173.7530  135.7850 O   0  0  0  0  0  0  0  0  0  0  0  0
  185.1060  172.6840  134.8740 C   0  0  2  0  0  3  0  0  0  0  0  0
  184.5490  171.4910  135.3370 O   0  0  0  0  0  1  0  0  0  0  0  0
  186.5960  172.5140  134.6300 C   0  0  0  0  0  2  0  0  0  0  0  0
  187.2080  173.7530  134.5850 F   0  0  0  0  0  0  0  0  0  0  0  0
  180.0110  179.9910  140.3630 C   0  0  0  0  0  1  0  0  0  0  0  0
  180.6040  178.7960  140.9390 N   0  0  0  0  0  2  0  0  0  0  0  0
  2  5  1  0  0  0  0
  3  2  2  0  0  0  0
  3  7  1  0  0  0  0
  5  6  2  0  0  0  0
  5  4  1  0  0  0  0
  6  1  1  0  0  0  0
  7  8  2  0  0  0  0
  8 11  1  0  0  0  0
  8  6  1  0  0  0  0
  9 11  2  0  0  0  0
 10 12  1  0  0  0  0
 11 10  1  0  0  0  0
 13 14  1  0  0  0  0
 13 12  1  0  0  0  0
 15 21  1  1  0  0  0
 15 14  1  0  0  0  0
 15 16  1  0  0  0  0
 16 18  2  0  0  0  0
 16 17  1  0  0  0  0
 18 19  1  0  0  0  0
 19 20  2  0  0  0  0
 22 21  1  0  0  0  0
 23 22  1  0  0  0  0
 24 25  2  0  0  0  0
 25  3  1  0  0  0  0
 26 25  1  0  0  0  0
 27 26  3  0  0  0  0
 28 27  1  0  0  0  0
 29 30  2  0  0  0  0
 30 28  1  0  0  0  0
 31 29  1  0  0  0  0
 32 31  1  0  0  0  0
 32 33  1  0  0  0  0
 34 33  1  0  0  0  0
 34 36  1  0  0  0  0
 36 35  1  1  0  0  0
 37 36  1  0  0  0  0
 38 40  1  0  0  0  0
 39 37  1  6  0  0  0
 39 38  1  0  0  0  0
 42 41  1  1  0  0  0
 42 40  1  0  0  0  0
 43 39  1  0  0  0  0
 43 42  1  0  0  0  0
 44 29  1  0  0  0  0
 45 46  1  1  0  0  0
 45 44  1  0  0  0  0
 47 45  1  0  0  0  0
 48 47  1  0  0  0  0
 49 50  1  0  0  0  0
 50  2  1  0  0  0  0
M  END
>  <MODEL>
6

>  <REMARK>
 VINA RESULT:      -5.8      2.820      6.742
  Name = 
  24 active torsions:
  status: ('A' for Active; 'I' for Inactive)
    1  A    between atoms: C_1  and  N_47
    2  A    between atoms: C_5  and  N_29
    3  A    between atoms: C_5  and  C_39
    4  A    between atoms: N_7  and  C_19
    5  A    between atoms: N_7  and  C_37
    6  A    between atoms: C_8  and  C_13
    7  A    between atoms: C_9  and  C_25
    8  A    between atoms: C_9  and  O_43
    9  A    between atoms: C_10  and  N_49
   10  A    between atoms: C_11  and  C_20
   11  A    between atoms: C_11  and  O_43
   12  A    between atoms: C_12  and  C_42
   13  A    between atoms: C_13  and  N_29
   14  A    between atoms: C_13  and  C_42
   15  A    between atoms: C_15  and  C_50
   16  A    between atoms: S_16  and  C_22
   17  A    between atoms: S_16  and  C_33
   18  A    between atoms: O_18  and  O_32
   19  A    between atoms: O_18  and  C_46
   20  A    between atoms: C_21  and  C_50
   21  A    between atoms: N_23  and  C_39
   22  A    between atoms: C_25  and  C_46
   23  A    between atoms: C_27  and  C_45
   24  A    between atoms: O_32  and  C_37
                            x       y       z     vdW  Elec       q    Type
                         _______ _______ _______ _____ _____    ______ ____

>  <TORSDO>
F 24

$$$$
=
 OpenBabel10232411173D

 50 51  0  0  1  0  0  0  0  0999 V2000
  185.6580  178.9290  144.5700 N   0  0  0  0  0  1  0  0  0  0  0  0
  182.2630  178.8280  142.9940 C   0  0  0  0  0  0  0  0  0  0  0  0
  182.6020  178.5980  141.6400 C   0  0  0  0  0  0  0  0  0  0  0  0
  183.0080  179.1580  145.2960 O   0  0  0  0  0  1  0  0  0  0  0  0
  183.2980  178.9290  143.9550 C   0  0  0  0  0  0  0  0  0  0  0  0
  184.6420  178.8000  143.5740 C   0  0  0  0  0  0  0  0  0  0  0  0
  183.9500  178.4740  141.2860 C   0  0  0  0  0  3  0  0  0  0  0  0
  184.9770  178.5690  142.2250 C   0  0  0  0  0  0  0  0  0  0  0  0
  186.8180  179.1640  140.8260 O   0  0  0  0  0  0  0  0  0  0  0  0
  187.2310  177.4590  142.3550 N   0  0  0  0  0  2  0  0  0  0  0  0
  186.3740  178.4320  141.7520 C   0  0  0  0  0  0  0  0  0  0  0  0
  188.6290  177.3080  141.9820 C   0  0  0  0  0  2  0  0  0  0  0  0
  189.5190  177.8020  143.1070 C   0  0  0  0  0  2  0  0  0  0  0  0
  189.0310  177.2830  144.3730 N   0  0  0  0  0  2  0  0  0  0  0  0
  189.8880  177.8110  145.4250 C   0  0  2  0  0  3  0  0  0  0  0  0
  190.9690  176.8360  145.7850 C   0  0  0  0  0  0  0  0  0  0  0  0
  191.6480  175.8480  144.4980 Cl  0  0  0  0  0  0  0  0  0  0  0  0
  191.3550  176.7110  147.0200 N   0  0  0  0  0  0  0  0  0  0  0  0
  192.3590  175.7880  147.4350 C   0  0  0  0  0  3  0  0  0  0  0  0
  192.9970  175.9890  148.5000 O   0  0  0  0  0  0  0  0  0  0  0  0
  189.0680  178.2500  146.6380 C   0  0  0  0  0  2  0  0  0  0  0  0
  187.8230  177.3980  146.8420 C   0  0  0  0  0  2  0  0  0  0  0  0
  186.6070  178.3280  147.8130 S   0  0  0  0  0  1  0  0  0  0  0  0
  180.6870  179.3520  140.4210 O   0  0  0  0  0  0  0  0  0  0  0  0
  181.5790  178.4760  140.5690 C   0  0  0  0  0  0  0  0  0  0  0  0
  181.5880  177.3530  139.6700 C   0  0  0  0  0  0  0  0  0  0  0  0
  181.5830  176.4070  138.9230 C   0  0  0  0  0  0  0  0  0  0  0  0
  181.5520  175.0190  137.8350 S   0  0  0  0  0  0  0  0  0  0  0  0
  183.6200  175.1070  135.9990 C   0  0  0  0  0  0  0  0  0  0  0  0
  182.7050  175.7860  136.6900 C   0  0  0  0  0  3  0  0  0  0  0  0
  183.7570  173.6190  136.1530 C   0  0  0  0  0  2  0  0  0  0  0  0
  184.8280  173.2940  137.1750 C   0  0  0  0  0  2  0  0  0  0  0  0
  185.9280  172.7210  136.5350 O   0  0  0  0  0  0  0  0  0  0  0  0
  186.9050  172.8030  137.4130 O   0  0  0  0  0  0  0  0  0  0  0  0
  187.4190  175.0080  137.5470 F   0  0  0  0  0  0  0  0  0  0  0  0
  187.7410  173.8150  136.9300 C   0  0  1  0  0  3  0  0  0  0  0  0
  189.1260  173.4810  137.2220 N   0  0  0  0  0  2  0  0  0  0  0  0
  191.0640  173.8950  135.8500 C   0  0  0  0  0  2  0  0  0  0  0  0
  189.9590  174.5190  136.6310 C   0  0  2  0  0  3  0  0  0  0  0  0
  192.2370  174.0470  136.4430 C   0  0  0  0  0  2  0  0  0  0  0  0
  193.0540  175.9800  137.7200 C   0  0  0  0  0  1  0  0  0  0  0  0
  192.1130  174.7950  137.7200 C   0  0  1  0  0  3  0  0  0  0  0  0
  190.6710  175.2800  137.7400 C   0  0  0  0  0  2  0  0  0  0  0  0
  184.4630  175.8300  135.1400 O   0  0  0  0  0  0  0  0  0  0  0  0
  185.6740  176.4780  135.5330 C   0  0  2  0  0  3  0  0  0  0  0  0
  185.4260  177.4320  136.5210 O   0  0  0  0  0  1  0  0  0  0  0  0
  186.3770  177.1140  134.3460 C   0  0  0  0  0  2  0  0  0  0  0  0
  186.3670  178.4900  134.4770 F   0  0  0  0  0  0  0  0  0  0  0  0
  180.1130  177.9570  144.1230 C   0  0  0  0  0  1  0  0  0  0  0  0
  180.8760  178.9300  143.3600 N   0  0  0  0  0  2  0  0  0  0  0  0
  2 50  1  0  0  0  0
  2  5  1  0  0  0  0
  3  2  2  0  0  0  0
  5  4  1  0  0  0  0
  6  5  2  0  0  0  0
  6  1  1  0  0  0  0
  7  3  1  0  0  0  0
  7  8  2  0  0  0  0
  8  6  1  0  0  0  0
  9 11  2  0  0  0  0
 11  8  1  0  0  0  0
 11 10  1  0  0  0  0
 12 10  1  0  0  0  0
 12 13  1  0  0  0  0
 13 14  1  0  0  0  0
 14 15  1  0  0  0  0
 15 16  1  0  0  0  0
 15 21  1  1  0  0  0
 16 18  2  0  0  0  0
 17 16  1  0  0  0  0
 18 19  1  0  0  0  0
 19 20  2  0  0  0  0
 21 22  1  0  0  0  0
 22 23  1  0  0  0  0
 24 25  2  0  0  0  0
 25  3  1  0  0  0  0
 26 25  1  0  0  0  0
 27 26  3  0  0  0  0
 28 27  1  0  0  0  0
 29 31  1  0  0  0  0
 29 30  2  0  0  0  0
 30 28  1  0  0  0  0
 31 32  1  0  0  0  0
 33 32  1  0  0  0  0
 33 34  1  0  0  0  0
 36 37  1  0  0  0  0
 36 34  1  0  0  0  0
 36 35  1  1  0  0  0
 38 40  1  0  0  0  0
 38 39  1  0  0  0  0
 39 37  1  1  0  0  0
 39 43  1  0  0  0  0
 40 42  1  0  0  0  0
 42 41  1  6  0  0  0
 42 43  1  0  0  0  0
 44 45  1  0  0  0  0
 44 29  1  0  0  0  0
 45 46  1  1  0  0  0
 47 48  1  0  0  0  0
 47 45  1  0  0  0  0
 50 49  1  0  0  0  0
M  END
>  <MODEL>
7

>  <REMARK>
 VINA RESULT:      -5.6      2.444      7.099
  Name = 
  24 active torsions:
  status: ('A' for Active; 'I' for Inactive)
    1  A    between atoms: C_1  and  N_47
    2  A    between atoms: C_5  and  N_29
    3  A    between atoms: C_5  and  C_39
    4  A    between atoms: N_7  and  C_19
    5  A    between atoms: N_7  and  C_37
    6  A    between atoms: C_8  and  C_13
    7  A    between atoms: C_9  and  C_25
    8  A    between atoms: C_9  and  O_43
    9  A    between atoms: C_10  and  N_49
   10  A    between atoms: C_11  and  C_20
   11  A    between atoms: C_11  and  O_43
   12  A    between atoms: C_12  and  C_42
   13  A    between atoms: C_13  and  N_29
   14  A    between atoms: C_13  and  C_42
   15  A    between atoms: C_15  and  C_50
   16  A    between atoms: S_16  and  C_22
   17  A    between atoms: S_16  and  C_33
   18  A    between atoms: O_18  and  O_32
   19  A    between atoms: O_18  and  C_46
   20  A    between atoms: C_21  and  C_50
   21  A    between atoms: N_23  and  C_39
   22  A    between atoms: C_25  and  C_46
   23  A    between atoms: C_27  and  C_45
   24  A    between atoms: O_32  and  C_37
                            x       y       z     vdW  Elec       q    Type
                         _______ _______ _______ _____ _____    ______ ____

>  <TORSDO>
F 24

$$$$
=
 OpenBabel10232411173D

 50 51  0  0  1  0  0  0  0  0999 V2000
  182.0540  177.4850  138.6450 N   0  0  0  0  0  1  0  0  0  0  0  0
  182.2050  178.5410  142.2350 C   0  0  0  0  0  0  0  0  0  0  0  0
  183.5700  178.8880  142.3540 C   0  0  0  0  0  0  0  0  0  0  0  0
  180.3840  177.7250  140.8260 O   0  0  0  0  0  1  0  0  0  0  0  0
  181.7190  178.0810  140.9860 C   0  0  0  0  0  0  0  0  0  0  0  0
  182.5780  177.9730  139.8820 C   0  0  0  0  0  0  0  0  0  0  0  0
  184.4060  178.7710  141.2380 C   0  0  0  0  0  3  0  0  0  0  0  0
  183.9370  178.3210  140.0040 C   0  0  0  0  0  0  0  0  0  0  0  0
  185.7020  179.1640  138.6340 O   0  0  0  0  0  0  0  0  0  0  0  0
  184.9210  177.0450  138.0710 N   0  0  0  0  0  2  0  0  0  0  0  0
  184.9000  178.2230  138.8820 C   0  0  0  0  0  0  0  0  0  0  0  0
  185.8770  176.8540  136.9920 C   0  0  0  0  0  2  0  0  0  0  0  0
  185.3510  175.8220  136.0130 C   0  0  0  0  0  2  0  0  0  0  0  0
  184.2420  175.1040  136.6170 N   0  0  0  0  0  2  0  0  0  0  0  0
  184.3250  173.7170  136.1810 C   0  0  2  0  0  3  0  0  0  0  0  0
  182.9620  173.1410  135.9380 C   0  0  0  0  0  0  0  0  0  0  0  0
  181.6100  173.8210  136.8330 Cl  0  0  0  0  0  0  0  0  0  0  0  0
  182.8080  172.1460  135.1170 N   0  0  0  0  0  0  0  0  0  0  0  0
  181.5460  171.5350  134.8580 C   0  0  0  0  0  3  0  0  0  0  0  0
  181.2120  170.4950  135.4810 O   0  0  0  0  0  0  0  0  0  0  0  0
  185.1500  172.8790  137.1590 C   0  0  0  0  0  2  0  0  0  0  0  0
  186.2230  172.0550  136.4620 C   0  0  0  0  0  2  0  0  0  0  0  0
  187.7960  172.9570  136.4980 S   0  0  0  0  0  1  0  0  0  0  0  0
  183.8520  180.5120  144.0890 O   0  0  0  0  0  0  0  0  0  0  0  0
  184.1610  179.3820  143.6260 C   0  0  0  0  0  0  0  0  0  0  0  0
  185.0970  178.5760  144.3620 C   0  0  0  0  0  0  0  0  0  0  0  0
  185.8730  177.9030  144.9930 C   0  0  0  0  0  0  0  0  0  0  0  0
  186.9940  176.9170  145.9320 S   0  0  0  0  0  0  0  0  0  0  0  0
  188.9140  177.8610  144.1780 C   0  0  0  0  0  0  0  0  0  0  0  0
  188.4140  177.8860  145.4140 C   0  0  0  0  0  3  0  0  0  0  0  0
  188.3100  176.9840  143.1190 C   0  0  0  0  0  2  0  0  0  0  0  0
  188.0120  177.7960  141.8740 C   0  0  0  0  0  2  0  0  0  0  0  0
  188.9590  177.5080  140.8890 O   0  0  0  0  0  0  0  0  0  0  0  0
  188.2680  177.4430  139.7710 O   0  0  0  0  0  0  0  0  0  0  0  0
  189.1360  179.1540  138.5620 F   0  0  0  0  0  0  0  0  0  0  0  0
  189.1750  177.7880  138.7650 C   0  0  1  0  0  3  0  0  0  0  0  0
  190.5180  177.4010  139.1680 N   0  0  0  0  0  2  0  0  0  0  0  0
  192.2320  176.0800  138.1070 C   0  0  0  0  0  2  0  0  0  0  0  0
  190.8090  176.1180  138.5440 C   0  0  2  0  0  3  0  0  0  0  0  0
  192.3480  176.1360  136.7900 C   0  0  0  0  0  2  0  0  0  0  0  0
  190.8870  175.1260  135.0930 C   0  0  0  0  0  1  0  0  0  0  0  0
  191.0220  176.2220  136.1260 C   0  0  1  0  0  3  0  0  0  0  0  0
  190.0190  176.0030  137.2490 C   0  0  0  0  0  2  0  0  0  0  0  0
  190.0310  178.6650  143.9070 O   0  0  0  0  0  0  0  0  0  0  0  0
  191.3870  178.2130  143.9060 C   0  0  2  0  0  3  0  0  0  0  0  0
  191.8140  177.9340  142.6070 O   0  0  0  0  0  1  0  0  0  0  0  0
  191.5700  176.9970  144.7980 C   0  0  0  0  0  2  0  0  0  0  0  0
  191.7430  175.8670  144.0200 F   0  0  0  0  0  0  0  0  0  0  0  0
  180.2160  179.5970  143.4940 C   0  0  0  0  0  1  0  0  0  0  0  0
  181.3420  178.6860  143.3760 N   0  0  0  0  0  2  0  0  0  0  0  0
  1  6  1  0  0  0  0
  2  3  1  0  0  0  0
  2 50  1  0  0  0  0
  3 25  1  0  0  0  0
  4  5  1  0  0  0  0
  5  2  2  0  0  0  0
  6  8  2  0  0  0  0
  6  5  1  0  0  0  0
  7  3  2  0  0  0  0
  8  7  1  0  0  0  0
  9 11  2  0  0  0  0
 10 11  1  0  0  0  0
 11  8  1  0  0  0  0
 12 10  1  0  0  0  0
 13 14  1  0  0  0  0
 13 12  1  0  0  0  0
 15 14  1  0  0  0  0
 15 21  1  1  0  0  0
 16 15  1  0  0  0  0
 16 17  1  0  0  0  0
 18 16  2  0  0  0  0
 19 18  1  0  0  0  0
 19 20  2  0  0  0  0
 22 23  1  0  0  0  0
 22 21  1  0  0  0  0
 25 24  2  0  0  0  0
 25 26  1  0  0  0  0
 26 27  3  0  0  0  0
 27 28  1  0  0  0  0
 29 30  2  0  0  0  0
 30 28  1  0  0  0  0
 31 29  1  0  0  0  0
 32 31  1  0  0  0  0
 33 32  1  0  0  0  0
 34 33  1  0  0  0  0
 36 35  1  1  0  0  0
 36 37  1  0  0  0  0
 36 34  1  0  0  0  0
 38 39  1  0  0  0  0
 39 37  1  6  0  0  0
 40 38  1  0  0  0  0
 42 41  1  6  0  0  0
 42 40  1  0  0  0  0
 42 43  1  0  0  0  0
 43 39  1  0  0  0  0
 44 29  1  0  0  0  0
 45 46  1  6  0  0  0
 45 44  1  0  0  0  0
 45 47  1  0  0  0  0
 48 47  1  0  0  0  0
 50 49  1  0  0  0  0
M  END
>  <MODEL>
8

>  <REMARK>
 VINA RESULT:      -5.6      3.814     10.735
  Name = 
  24 active torsions:
  status: ('A' for Active; 'I' for Inactive)
    1  A    between atoms: C_1  and  N_47
    2  A    between atoms: C_5  and  N_29
    3  A    between atoms: C_5  and  C_39
    4  A    between atoms: N_7  and  C_19
    5  A    between atoms: N_7  and  C_37
    6  A    between atoms: C_8  and  C_13
    7  A    between atoms: C_9  and  C_25
    8  A    between atoms: C_9  and  O_43
    9  A    between atoms: C_10  and  N_49
   10  A    between atoms: C_11  and  C_20
   11  A    between atoms: C_11  and  O_43
   12  A    between atoms: C_12  and  C_42
   13  A    between atoms: C_13  and  N_29
   14  A    between atoms: C_13  and  C_42
   15  A    between atoms: C_15  and  C_50
   16  A    between atoms: S_16  and  C_22
   17  A    between atoms: S_16  and  C_33
   18  A    between atoms: O_18  and  O_32
   19  A    between atoms: O_18  and  C_46
   20  A    between atoms: C_21  and  C_50
   21  A    between atoms: N_23  and  C_39
   22  A    between atoms: C_25  and  C_46
   23  A    between atoms: C_27  and  C_45
   24  A    between atoms: O_32  and  C_37
                            x       y       z     vdW  Elec       q    Type
                         _______ _______ _______ _____ _____    ______ ____

>  <TORSDO>
F 24

$$$$
=
 OpenBabel10232411173D

 50 51  0  0  1  0  0  0  0  0999 V2000
  187.2370  177.0090  148.0130 N   0  0  0  0  0  1  0  0  0  0  0  0
  190.1750  177.1990  145.6990 C   0  0  0  0  0  0  0  0  0  0  0  0
  189.6340  177.9670  144.6420 C   0  0  0  0  0  0  0  0  0  0  0  0
  189.8510  176.1420  147.8760 O   0  0  0  0  0  1  0  0  0  0  0  0
  189.3600  176.8970  146.8170 C   0  0  0  0  0  0  0  0  0  0  0  0
  188.0340  177.3540  146.8780 C   0  0  0  0  0  0  0  0  0  0  0  0
  188.3090  178.4100  144.7270 C   0  0  0  0  0  3  0  0  0  0  0  0
  187.4990  178.1190  145.8240 C   0  0  0  0  0  0  0  0  0  0  0  0
  185.6540  179.2830  146.7960 O   0  0  0  0  0  0  0  0  0  0  0  0
  185.2650  178.3660  144.6920 N   0  0  0  0  0  2  0  0  0  0  0  0
  186.1060  178.6250  145.8200 C   0  0  0  0  0  0  0  0  0  0  0  0
  183.9080  178.8800  144.5930 C   0  0  0  0  0  2  0  0  0  0  0  0
  183.4430  178.8340  143.1500 C   0  0  0  0  0  2  0  0  0  0  0  0
  184.3730  178.0380  142.3680 N   0  0  0  0  0  2  0  0  0  0  0  0
  183.9350  178.0860  140.9800 C   0  0  2  0  0  3  0  0  0  0  0  0
  185.0990  178.2440  140.0480 C   0  0  0  0  0  0  0  0  0  0  0  0
  186.6280  178.7890  140.7250 Cl  0  0  0  0  0  0  0  0  0  0  0  0
  184.9560  178.0170  138.7760 N   0  0  0  0  0  0  0  0  0  0  0  0
  186.0120  178.1700  137.8320 C   0  0  0  0  0  3  0  0  0  0  0  0
  186.2250  179.2910  137.3030 O   0  0  0  0  0  0  0  0  0  0  0  0
  182.8690  179.1630  140.7740 C   0  0  0  0  0  2  0  0  0  0  0  0
  181.6650  178.6520  139.9950 C   0  0  0  0  0  2  0  0  0  0  0  0
  180.1970  178.6910  141.0600 S   0  0  0  0  0  1  0  0  0  0  0  0
  191.3790  179.1470  143.5060 O   0  0  0  0  0  0  0  0  0  0  0  0
  190.4210  178.3320  143.4350 C   0  0  0  0  0  0  0  0  0  0  0  0
  190.1100  177.7570  142.1540 C   0  0  0  0  0  0  0  0  0  0  0  0
  189.8480  177.2880  141.0740 C   0  0  0  0  0  0  0  0  0  0  0  0
  189.4680  176.6230  139.4860 S   0  0  0  0  0  0  0  0  0  0  0  0
  191.7890  175.9860  138.1220 C   0  0  0  0  0  0  0  0  0  0  0  0
  191.1450  176.8650  138.8900 C   0  0  0  0  0  3  0  0  0  0  0  0
  191.1360  174.6980  137.7090 C   0  0  0  0  0  2  0  0  0  0  0  0
  190.2650  174.9200  136.4880 C   0  0  0  0  0  2  0  0  0  0  0  0
  189.8300  173.6890  135.9930 O   0  0  0  0  0  0  0  0  0  0  0  0
  188.5360  173.8430  135.8070 O   0  0  0  0  0  0  0  0  0  0  0  0
  188.1050  172.3380  137.4480 F   0  0  0  0  0  0  0  0  0  0  0  0
  187.9790  172.5940  136.0960 C   0  0  1  0  0  3  0  0  0  0  0  0
  186.5690  172.5970  135.7380 N   0  0  0  0  0  2  0  0  0  0  0  0
  184.4570  172.0780  136.7780 C   0  0  0  0  0  2  0  0  0  0  0  0
  185.8050  172.6830  136.9750 C   0  0  2  0  0  3  0  0  0  0  0  0
  183.5020  172.9930  136.7580 C   0  0  0  0  0  2  0  0  0  0  0  0
  183.3470  175.0570  138.0810 C   0  0  0  0  0  1  0  0  0  0  0  0
  184.0490  174.3620  136.9350 C   0  0  1  0  0  3  0  0  0  0  0  0
  185.5150  174.1450  137.2820 C   0  0  0  0  0  2  0  0  0  0  0  0
  193.1000  176.2960  137.7300 O   0  0  0  0  0  0  0  0  0  0  0  0
  193.9220  175.4780  136.8950 C   0  0  2  0  0  3  0  0  0  0  0  0
  195.2310  175.4350  137.3780 O   0  0  0  0  0  1  0  0  0  0  0  0
  193.9040  175.9560  135.4530 C   0  0  0  0  0  2  0  0  0  0  0  0
  193.1090  175.1200  134.6920 F   0  0  0  0  0  0  0  0  0  0  0  0
  192.0290  175.5500  144.9910 C   0  0  0  0  0  1  0  0  0  0  0  0
  191.5440  176.7670  145.6210 N   0  0  0  0  0  2  0  0  0  0  0  0
  2  5  1  0  0  0  0
  3  7  1  0  0  0  0
  3  2  2  0  0  0  0
  5  6  2  0  0  0  0
  5  4  1  0  0  0  0
  6  1  1  0  0  0  0
  7  8  2  0  0  0  0
  8  6  1  0  0  0  0
 10 11  1  0  0  0  0
 11  8  1  0  0  0  0
 11  9  2  0  0  0  0
 12 10  1  0  0  0  0
 13 12  1  0  0  0  0
 14 13  1  0  0  0  0
 15 21  1  1  0  0  0
 15 14  1  0  0  0  0
 16 17  1  0  0  0  0
 16 15  1  0  0  0  0
 18 16  2  0  0  0  0
 19 18  1  0  0  0  0
 20 19  2  0  0  0  0
 22 21  1  0  0  0  0
 22 23  1  0  0  0  0
 25 24  2  0  0  0  0
 25  3  1  0  0  0  0
 26 25  1  0  0  0  0
 27 26  3  0  0  0  0
 28 27  1  0  0  0  0
 29 30  2  0  0  0  0
 30 28  1  0  0  0  0
 31 29  1  0  0  0  0
 32 31  1  0  0  0  0
 33 32  1  0  0  0  0
 34 33  1  0  0  0  0
 34 36  1  0  0  0  0
 36 35  1  1  0  0  0
 37 36  1  0  0  0  0
 38 39  1  0  0  0  0
 39 37  1  6  0  0  0
 39 43  1  0  0  0  0
 40 38  1  0  0  0  0
 40 42  1  0  0  0  0
 42 43  1  0  0  0  0
 42 41  1  1  0  0  0
 44 29  1  0  0  0  0
 45 46  1  1  0  0  0
 45 44  1  0  0  0  0
 47 45  1  0  0  0  0
 48 47  1  0  0  0  0
 49 50  1  0  0  0  0
 50  2  1  0  0  0  0
M  END
>  <MODEL>
9

>  <REMARK>
 VINA RESULT:      -5.6      3.584      9.126
  Name = 
  24 active torsions:
  status: ('A' for Active; 'I' for Inactive)
    1  A    between atoms: C_1  and  N_47
    2  A    between atoms: C_5  and  N_29
    3  A    between atoms: C_5  and  C_39
    4  A    between atoms: N_7  and  C_19
    5  A    between atoms: N_7  and  C_37
    6  A    between atoms: C_8  and  C_13
    7  A    between atoms: C_9  and  C_25
    8  A    between atoms: C_9  and  O_43
    9  A    between atoms: C_10  and  N_49
   10  A    between atoms: C_11  and  C_20
   11  A    between atoms: C_11  and  O_43
   12  A    between atoms: C_12  and  C_42
   13  A    between atoms: C_13  and  N_29
   14  A    between atoms: C_13  and  C_42
   15  A    between atoms: C_15  and  C_50
   16  A    between atoms: S_16  and  C_22
   17  A    between atoms: S_16  and  C_33
   18  A    between atoms: O_18  and  O_32
   19  A    between atoms: O_18  and  C_46
   20  A    between atoms: C_21  and  C_50
   21  A    between atoms: N_23  and  C_39
   22  A    between atoms: C_25  and  C_46
   23  A    between atoms: C_27  and  C_45
   24  A    between atoms: O_32  and  C_37
                            x       y       z     vdW  Elec       q    Type
                         _______ _______ _______ _____ _____    ______ ____

>  <TORSDO>
F 24

$$$$
