=
 OpenBabel10232408413D

 40 43  0  0  1  0  0  0  0  0999 V2000
  188.5830  177.5410  139.7030 C   0  0  0  0  0  0  0  0  0  0  0  0
  186.8460  178.2230  142.5060 N   0  0  0  0  0  2  0  0  0  0  0  0
  188.4750  178.0550  140.7860 C   0  0  0  0  0  0  0  0  0  0  0  0
  185.2230  177.0400  137.0470 C   0  0  0  0  0  0  0  0  0  0  0  0
  183.1820  178.6580  141.4030 C   0  0  1  0  0  3  0  0  0  0  0  0
  184.4360  177.8910  141.8350 C   0  0  0  0  0  2  0  0  0  0  0  0
  186.1660  177.5380  138.0370 C   0  0  0  0  0  0  0  0  0  0  0  0
  183.8720  175.7440  135.0000 C   0  0  0  0  0  3  0  0  0  0  0  0
  185.2440  175.5090  135.1760 C   0  0  0  0  0  3  0  0  0  0  0  0
  183.8510  177.2990  136.8970 C   0  0  0  0  0  0  0  0  0  0  0  0
  183.1880  177.8470  139.1980 N   0  0  0  0  0  2  0  0  0  0  0  0
  185.6750  178.7360  141.8670 C   0  0  0  0  0  0  0  0  0  0  0  0
  183.2190  179.0150  139.9820 N   0  0  0  0  0  2  0  0  0  0  0  0
  188.1880  178.6320  142.1060 C   0  0  2  0  0  3  0  0  0  0  0  0
  188.5500  176.8800  138.4250 C   0  0  0  0  0  3  0  0  0  0  0  0
  185.7170  179.8490  141.2730 O   0  0  0  0  0  0  0  0  0  0  0  0
  185.8990  176.1740  136.2110 C   0  0  0  0  0  0  0  0  0  0  0  0
  187.4330  176.8700  137.6910 C   0  0  0  0  0  0  0  0  0  0  0  0
  183.1400  178.2790  137.8050 C   0  0  2  0  0  3  0  0  0  0  0  0
  186.1120  178.7410  138.5040 N   0  0  0  0  0  1  0  0  0  0  0  0
  187.2780  176.0380  136.5400 N   0  0  0  0  0  0  0  0  0  0  0  0
  183.1830  176.6280  135.8510 C   0  0  0  0  0  3  0  0  0  0  0  0
  189.6750  177.2830  145.3160 C   0  0  0  0  0  3  0  0  0  0  0  0
  189.1950  178.1740  143.1130 C   0  0  0  0  0  0  0  0  0  0  0  0
  188.7530  177.7080  144.3550 C   0  0  0  0  0  3  0  0  0  0  0  0
  191.0470  177.3210  145.0460 C   0  0  0  0  0  0  0  0  0  0  0  0
  190.5710  178.2170  142.8380 C   0  0  0  0  0  3  0  0  0  0  0  0
  191.4920  177.7920  143.8000 C   0  0  0  0  0  3  0  0  0  0  0  0
  191.5450  176.0870  147.1310 C   0  0  0  0  0  1  0  0  0  0  0  0
  191.9430  176.8880  146.0280 O   0  0  0  0  0  0  0  0  0  0  0  0
  181.7290  178.5840  137.3920 C   0  0  0  0  0  0  0  0  0  0  0  0
  180.7730  177.8950  137.8450 O   0  0  0  0  0  0  0  0  0  0  0  0
  181.4970  179.6130  136.4800 O   0  0  0  0  0  0  0  0  0  0  0  0
  181.1770  181.4940  137.9270 C   0  0  0  0  0  1  0  0  0  0  0  0
  180.6190  180.6890  136.7730 C   0  0  0  0  0  2  0  0  0  0  0  0
  181.9100  177.8880  141.7460 C   0  0  0  0  0  2  0  0  0  0  0  0
  180.8630  178.8030  142.3600 C   0  0  1  0  0  3  0  0  0  0  0  0
  181.4920  179.8510  143.0350 O   0  0  0  0  0  1  0  0  0  0  0  0
  179.9820  179.3620  141.2580 C   0  0  0  0  0  2  0  0  0  0  0  0
  179.9820  180.8130  141.3150 N   0  0  0  0  0  1  0  0  0  0  0  0
  1  3  3  0  0  0  0
  3 14  1  0  0  0  0
  4  7  2  0  0  0  0
  5 36  1  6  0  0  0
  5  6  1  0  0  0  0
  6 12  1  0  0  0  0
  7 20  1  0  0  0  0
  8  9  2  0  0  0  0
  8 22  1  0  0  0  0
  9 17  1  0  0  0  0
 10  4  1  0  0  0  0
 10 19  1  0  0  0  0
 11 13  1  0  0  0  0
 12  2  1  0  0  0  0
 13  5  1  0  0  0  0
 14  2  1  0  0  0  0
 14 24  1  1  0  0  0
 15  1  1  0  0  0  0
 16 12  2  0  0  0  0
 17 21  2  0  0  0  0
 17  4  1  0  0  0  0
 18  7  1  0  0  0  0
 18 15  2  0  0  0  0
 19 31  1  6  0  0  0
 19 11  1  0  0  0  0
 21 18  1  0  0  0  0
 22 10  2  0  0  0  0
 24 25  1  0  0  0  0
 25 23  2  0  0  0  0
 26 23  1  0  0  0  0
 26 30  1  0  0  0  0
 27 24  2  0  0  0  0
 27 28  1  0  0  0  0
 28 26  2  0  0  0  0
 30 29  1  0  0  0  0
 31 32  2  0  0  0  0
 33 35  1  0  0  0  0
 33 31  1  0  0  0  0
 35 34  1  0  0  0  0
 36 37  1  0  0  0  0
 37 38  1  6  0  0  0
 39 40  1  0  0  0  0
 39 37  1  0  0  0  0
M  END
>  <MODEL>
1

>  <REMARK>
 VINA RESULT:      -7.7      0.000      0.000
  Name = 
  8 active torsions:
  status: ('A' for Active; 'I' for Inactive)
    1  A    between atoms: C_1  and  O_28
    2  A    between atoms: C_1  and  C_33
    3  A    between atoms: C_4  and  C_7
    4  A    between atoms: C_4  and  C_10
    5  A    between atoms: C_7  and  C_19
    6  A    between atoms: C_16  and  C_25
    7  A    between atoms: C_23  and  O_34
    8  A    between atoms: C_27  and  O_28
                            x       y       z     vdW  Elec       q    Type
                         _______ _______ _______ _____ _____    ______ ____

>  <TORSDO>
F 8

$$$$
=
 OpenBabel10232408413D

 40 43  0  0  1  0  0  0  0  0999 V2000
  183.9920  178.3020  140.3250 C   0  0  0  0  0  0  0  0  0  0  0  0
  185.9100  177.3040  137.7430 N   0  0  0  0  0  2  0  0  0  0  0  0
  184.2680  178.2820  139.1540 C   0  0  0  0  0  0  0  0  0  0  0  0
  187.0030  178.0780  143.4030 C   0  0  2  0  0  3  0  0  0  0  0  0
  189.5160  177.1850  139.0860 C   0  0  1  0  0  3  0  0  0  0  0  0
  188.1020  176.6620  138.8150 C   0  0  0  0  0  2  0  0  0  0  0  0
  186.2670  178.3540  142.1790 C   0  0  0  0  0  0  0  0  0  0  0  0
  187.8730  177.4290  145.9570 C   0  0  0  0  0  3  0  0  0  0  0  0
  186.4960  177.5080  145.6980 C   0  0  0  0  0  3  0  0  0  0  0  0
  188.3870  178.0100  143.6290 C   0  0  0  0  0  0  0  0  0  0  0  0
  189.2290  177.3780  141.4100 N   0  0  0  0  0  2  0  0  0  0  0  0
  187.1660  177.7100  138.2900 C   0  0  0  0  0  0  0  0  0  0  0  0
  189.5570  178.0880  140.2400 N   0  0  0  0  0  2  0  0  0  0  0  0
  184.7380  178.1730  137.7670 C   0  0  2  0  0  3  0  0  0  0  0  0
  183.8040  178.2370  141.7510 C   0  0  0  0  0  2  0  0  0  0  0  0
  187.4400  178.9370  138.3970 O   0  0  0  0  0  0  0  0  0  0  0  0
  186.0860  177.8360  144.4080 C   0  0  0  0  0  0  0  0  0  0  0  0
  184.8540  178.2390  142.5770 C   0  0  0  0  0  0  0  0  0  0  0  0
  189.3730  178.3130  142.5210 C   0  0  2  0  0  3  0  0  0  0  0  0
  186.6810  179.2020  141.2960 N   0  0  0  0  0  1  0  0  0  0  0  0
  184.7350  177.9410  143.9700 N   0  0  0  0  0  0  0  0  0  0  0  0
  188.8080  177.6770  144.9350 C   0  0  0  0  0  3  0  0  0  0  0  0
  182.9580  175.9930  135.2330 C   0  0  0  0  0  3  0  0  0  0  0  0
  183.6620  177.6220  136.8860 C   0  0  0  0  0  0  0  0  0  0  0  0
  183.9450  176.5210  136.0720 C   0  0  0  0  0  3  0  0  0  0  0  0
  181.6810  176.5610  135.1990 C   0  0  0  0  0  0  0  0  0  0  0  0
  182.3820  178.1970  136.8520 C   0  0  0  0  0  3  0  0  0  0  0  0
  181.3970  177.6700  136.0140 C   0  0  0  0  0  3  0  0  0  0  0  0
  180.3290  174.6440  134.4130 C   0  0  0  0  0  1  0  0  0  0  0  0
  180.7170  176.0100  134.3500 O   0  0  0  0  0  0  0  0  0  0  0  0
  190.8020  178.3820  142.9740 C   0  0  0  0  0  0  0  0  0  0  0  0
  191.2270  179.4090  143.5730 O   0  0  0  0  0  0  0  0  0  0  0  0
  191.6550  177.3140  142.6980 O   0  0  0  0  0  0  0  0  0  0  0  0
  191.8190  176.2630  144.8440 C   0  0  0  0  0  1  0  0  0  0  0  0
  191.5360  176.0690  143.3690 C   0  0  0  0  0  2  0  0  0  0  0  0
  190.5140  176.0410  139.2450 C   0  0  0  0  0  2  0  0  0  0  0  0
  191.5760  176.0850  138.1580 C   0  0  1  0  0  3  0  0  0  0  0  0
  192.7630  176.6040  138.6800 O   0  0  0  0  0  1  0  0  0  0  0  0
  191.8180  174.6800  137.6410 C   0  0  0  0  0  2  0  0  0  0  0  0
  190.5500  173.9960  137.4580 N   0  0  0  0  0  1  0  0  0  0  0  0
  1 15  1  0  0  0  0
  2 14  1  0  0  0  0
  2 12  1  0  0  0  0
  3  1  3  0  0  0  0
  4  7  1  6  0  0  0
  4 10  1  0  0  0  0
  4 17  1  0  0  0  0
  5 36  1  1  0  0  0
  5 13  1  0  0  0  0
  6  5  1  0  0  0  0
  7 18  2  0  0  0  0
  9  8  2  0  0  0  0
 10 22  2  0  0  0  0
 11 19  1  0  0  0  0
 12 16  2  0  0  0  0
 12  6  1  0  0  0  0
 13 11  1  0  0  0  0
 14 24  1  6  0  0  0
 14  3  1  0  0  0  0
 15 18  1  0  0  0  0
 17  9  1  0  0  0  0
 18 21  1  0  0  0  0
 19 31  1  1  0  0  0
 19 10  1  0  0  0  0
 20  7  1  0  0  0  0
 21 17  2  0  0  0  0
 22  8  1  0  0  0  0
 23 25  1  0  0  0  0
 25 24  2  0  0  0  0
 26 23  2  0  0  0  0
 26 28  1  0  0  0  0
 27 24  1  0  0  0  0
 28 27  2  0  0  0  0
 30 29  1  0  0  0  0
 30 26  1  0  0  0  0
 31 32  2  0  0  0  0
 33 31  1  0  0  0  0
 33 35  1  0  0  0  0
 35 34  1  0  0  0  0
 37 38  1  1  0  0  0
 37 36  1  0  0  0  0
 39 37  1  0  0  0  0
 40 39  1  0  0  0  0
M  END
>  <MODEL>
2

>  <REMARK>
 VINA RESULT:      -7.4      2.617      9.840
  Name = 
  8 active torsions:
  status: ('A' for Active; 'I' for Inactive)
    1  A    between atoms: C_1  and  O_28
    2  A    between atoms: C_1  and  C_33
    3  A    between atoms: C_4  and  C_7
    4  A    between atoms: C_4  and  C_10
    5  A    between atoms: C_7  and  C_19
    6  A    between atoms: C_16  and  C_25
    7  A    between atoms: C_23  and  O_34
    8  A    between atoms: C_27  and  O_28
                            x       y       z     vdW  Elec       q    Type
                         _______ _______ _______ _____ _____    ______ ____

>  <TORSDO>
F 8

$$$$
=
 OpenBabel10232408413D

 40 43  0  0  1  0  0  0  0  0999 V2000
  187.1840  177.4990  137.9010 C   0  0  0  0  0  0  0  0  0  0  0  0
  188.8780  177.7540  140.8000 N   0  0  0  0  0  2  0  0  0  0  0  0
  188.1500  177.8260  138.5400 C   0  0  0  0  0  0  0  0  0  0  0  0
  183.2010  177.5620  139.5510 C   0  0  0  0  0  0  0  0  0  0  0  0
  186.2410  178.4860  143.5070 C   0  0  1  0  0  3  0  0  0  0  0  0
  187.0900  177.6170  142.5740 C   0  0  0  0  0  2  0  0  0  0  0  0
  184.5880  177.8550  139.2230 C   0  0  0  0  0  0  0  0  0  0  0  0
  180.5760  176.6740  139.6870 C   0  0  0  0  0  3  0  0  0  0  0  0
  181.3480  176.3690  138.5550 C   0  0  0  0  0  2  0  0  0  0  0  0
  182.4560  177.8860  140.6950 C   0  0  0  0  0  0  0  0  0  0  0  0
  184.2100  178.0590  142.4050 N   0  0  0  0  0  2  0  0  0  0  0  0
  187.8500  178.4050  141.5480 C   0  0  0  0  0  0  0  0  0  0  0  0
  185.0920  179.0760  142.8150 N   0  0  0  0  0  2  0  0  0  0  0  0
  189.2440  178.1810  139.4530 C   0  0  2  0  0  3  0  0  0  0  0  0
  185.9590  177.0650  137.2830 C   0  0  0  0  0  2  0  0  0  0  0  0
  187.5390  179.6000  141.2870 O   0  0  0  0  0  0  0  0  0  0  0  0
  182.6630  176.8280  138.5120 C   0  0  0  0  0  0  0  0  0  0  0  0
  184.7890  177.2150  137.9120 C   0  0  0  0  0  0  0  0  0  0  0  0
  183.0570  178.7220  141.8050 C   0  0  2  0  0  3  0  0  0  0  0  0
  185.1610  178.9630  139.5580 N   0  0  0  0  0  1  0  0  0  0  0  0
  183.5860  176.5940  137.4530 N   0  0  0  0  0  0  0  0  0  0  0  0
  181.1230  177.4230  140.7450 C   0  0  0  0  0  3  0  0  0  0  0  0
  192.8130  176.9190  139.5300 C   0  0  0  0  0  3  0  0  0  0  0  0
  190.5210  177.5280  139.0270 C   0  0  0  0  0  0  0  0  0  0  0  0
  191.6070  177.5160  139.9080 C   0  0  0  0  0  3  0  0  0  0  0  0
  192.9470  176.3300  138.2680 C   0  0  0  0  0  0  0  0  0  0  0  0
  190.6510  176.9410  137.7590 C   0  0  0  0  0  3  0  0  0  0  0  0
  191.8570  176.3450  137.3820 C   0  0  0  0  0  3  0  0  0  0  0  0
  194.4240  175.2150  136.6270 C   0  0  0  0  0  1  0  0  0  0  0  0
  194.1660  175.7420  137.9210 O   0  0  0  0  0  0  0  0  0  0  0  0
  182.0740  179.1370  142.8600 C   0  0  0  0  0  0  0  0  0  0  0  0
  181.9400  178.4470  143.9090 O   0  0  0  0  0  0  0  0  0  0  0  0
  181.2920  180.2730  142.6510 O   0  0  0  0  0  0  0  0  0  0  0  0
  179.9820  180.7360  140.7000 C   0  0  0  0  0  1  0  0  0  0  0  0
  179.9820  180.1910  142.1130 C   0  0  0  0  0  2  0  0  0  0  0  0
  185.7990  177.7110  144.7460 C   0  0  0  0  0  2  0  0  0  0  0  0
  185.6560  178.6310  145.9470 C   0  0  1  0  0  3  0  0  0  0  0  0
  184.3160  178.6930  146.3360 O   0  0  0  0  0  1  0  0  0  0  0  0
  186.4950  178.0920  147.0910 C   0  0  0  0  0  2  0  0  0  0  0  0
  187.7770  177.6310  146.5880 N   0  0  0  0  0  1  0  0  0  0  0  0
  1  3  3  0  0  0  0
  2 12  1  0  0  0  0
  3 14  1  0  0  0  0
  4 10  2  0  0  0  0
  5 36  1  1  0  0  0
  6  5  1  0  0  0  0
  7  4  1  0  0  0  0
  7 20  1  0  0  0  0
  8 22  2  0  0  0  0
  9  8  1  0  0  0  0
 10 22  1  0  0  0  0
 10 19  1  0  0  0  0
 11 13  1  0  0  0  0
 12  6  1  0  0  0  0
 13  5  1  0  0  0  0
 14 24  1  6  0  0  0
 14  2  1  0  0  0  0
 15  1  1  0  0  0  0
 15 18  1  0  0  0  0
 16 12  2  0  0  0  0
 17  9  1  0  0  0  0
 17  4  1  0  0  0  0
 18  7  2  0  0  0  0
 19 11  1  0  0  0  0
 19 31  1  1  0  0  0
 21 18  1  0  0  0  0
 21 17  2  0  0  0  0
 23 25  1  0  0  0  0
 24 25  2  0  0  0  0
 26 23  2  0  0  0  0
 27 24  1  0  0  0  0
 28 27  2  0  0  0  0
 28 26  1  0  0  0  0
 29 30  1  0  0  0  0
 30 26  1  0  0  0  0
 31 32  2  0  0  0  0
 33 31  1  0  0  0  0
 34 35  1  0  0  0  0
 35 33  1  0  0  0  0
 36 37  1  0  0  0  0
 37 38  1  1  0  0  0
 37 39  1  0  0  0  0
 40 39  1  0  0  0  0
M  END
>  <MODEL>
3

>  <REMARK>
 VINA RESULT:      -7.4      2.982      5.173
  Name = 
  8 active torsions:
  status: ('A' for Active; 'I' for Inactive)
    1  A    between atoms: C_1  and  O_28
    2  A    between atoms: C_1  and  C_33
    3  A    between atoms: C_4  and  C_7
    4  A    between atoms: C_4  and  C_10
    5  A    between atoms: C_7  and  C_19
    6  A    between atoms: C_16  and  C_25
    7  A    between atoms: C_23  and  O_34
    8  A    between atoms: C_27  and  O_28
                            x       y       z     vdW  Elec       q    Type
                         _______ _______ _______ _____ _____    ______ ____

>  <TORSDO>
F 8

$$$$
=
 OpenBabel10232408413D

 40 43  0  0  1  0  0  0  0  0999 V2000
  186.6970  177.6070  137.0690 C   0  0  0  0  0  0  0  0  0  0  0  0
  189.2890  177.1810  139.1770 N   0  0  0  0  0  2  0  0  0  0  0  0
  187.8670  177.6850  137.3420 C   0  0  0  0  0  0  0  0  0  0  0  0
  183.6050  178.0640  140.0400 C   0  0  0  0  0  0  0  0  0  0  0  0
  187.9250  177.9300  142.6990 C   0  0  1  0  0  3  0  0  0  0  0  0
  188.2180  177.0790  141.4590 C   0  0  0  0  0  2  0  0  0  0  0  0
  184.8270  178.1780  139.2590 C   0  0  0  0  0  0  0  0  0  0  0  0
  181.0620  177.5910  141.0430 C   0  0  0  0  0  3  0  0  0  0  0  0
  181.3280  177.3310  139.6890 C   0  0  0  0  0  2  0  0  0  0  0  0
  183.3720  178.3370  141.3970 C   0  0  0  0  0  0  0  0  0  0  0  0
  185.5990  177.9880  142.3710 N   0  0  0  0  0  2  0  0  0  0  0  0
  188.7250  177.8730  140.2920 C   0  0  0  0  0  0  0  0  0  0  0  0
  186.7500  178.7860  142.5120 N   0  0  0  0  0  2  0  0  0  0  0  0
  189.2530  177.7300  137.8260 C   0  0  2  0  0  3  0  0  0  0  0  0
  185.2750  177.4630  136.9030 C   0  0  0  0  0  2  0  0  0  0  0  0
  188.5860  179.1270  140.2520 O   0  0  0  0  0  0  0  0  0  0  0  0
  182.6130  177.5780  139.2110 C   0  0  0  0  0  0  0  0  0  0  0  0
  184.4410  177.7060  137.9190 C   0  0  0  0  0  0  0  0  0  0  0  0
  184.4660  178.9020  142.2770 C   0  0  2  0  0  3  0  0  0  0  0  0
  185.6870  179.1240  139.4500 N   0  0  0  0  0  1  0  0  0  0  0  0
  183.0570  177.3540  137.8770 N   0  0  0  0  0  0  0  0  0  0  0  0
  182.0710  178.0880  141.8870 C   0  0  0  0  0  3  0  0  0  0  0  0
  192.2080  175.7030  136.6040 C   0  0  0  0  0  3  0  0  0  0  0  0
  190.1540  176.9510  136.9210 C   0  0  0  0  0  0  0  0  0  0  0  0
  191.3460  176.4280  137.4320 C   0  0  0  0  0  3  0  0  0  0  0  0
  191.8890  175.4950  135.2590 C   0  0  0  0  0  0  0  0  0  0  0  0
  189.8310  176.7470  135.5700 C   0  0  0  0  0  3  0  0  0  0  0  0
  190.6940  176.0230  134.7440 C   0  0  0  0  0  3  0  0  0  0  0  0
  193.7130  173.8440  134.9940 C   0  0  0  0  0  1  0  0  0  0  0  0
  192.7730  174.7660  134.4580 O   0  0  0  0  0  0  0  0  0  0  0  0
  184.0010  179.3140  143.6440 C   0  0  0  0  0  0  0  0  0  0  0  0
  183.2520  180.3210  143.7810 O   0  0  0  0  0  0  0  0  0  0  0  0
  184.4330  178.5900  144.7540 O   0  0  0  0  0  0  0  0  0  0  0  0
  185.2620  178.3470  146.9880 C   0  0  0  0  0  1  0  0  0  0  0  0
  185.3370  179.1400  145.7010 C   0  0  0  0  0  2  0  0  0  0  0  0
  187.7860  177.0670  143.9500 C   0  0  0  0  0  2  0  0  0  0  0  0
  188.7670  177.5020  145.0280 C   0  0  1  0  0  3  0  0  0  0  0  0
  188.3630  176.9940  146.2640 O   0  0  0  0  0  1  0  0  0  0  0  0
  190.1480  176.9750  144.6860 C   0  0  0  0  0  2  0  0  0  0  0  0
  191.0840  178.0800  144.5770 N   0  0  0  0  0  1  0  0  0  0  0  0
  1  3  3  0  0  0  0
  2 12  1  0  0  0  0
  3 14  1  0  0  0  0
  4 10  2  0  0  0  0
  5 36  1  1  0  0  0
  6  5  1  0  0  0  0
  7 20  1  0  0  0  0
  7  4  1  0  0  0  0
  8 22  2  0  0  0  0
  9  8  1  0  0  0  0
 10 22  1  0  0  0  0
 10 19  1  0  0  0  0
 11 13  1  0  0  0  0
 12  6  1  0  0  0  0
 13  5  1  0  0  0  0
 14 24  1  6  0  0  0
 14  2  1  0  0  0  0
 15  1  1  0  0  0  0
 15 18  1  0  0  0  0
 16 12  2  0  0  0  0
 17  9  1  0  0  0  0
 17  4  1  0  0  0  0
 18  7  2  0  0  0  0
 19 11  1  0  0  0  0
 19 31  1  1  0  0  0
 21 18  1  0  0  0  0
 21 17  2  0  0  0  0
 23 25  1  0  0  0  0
 24 25  2  0  0  0  0
 26 23  2  0  0  0  0
 27 24  1  0  0  0  0
 28 26  1  0  0  0  0
 28 27  2  0  0  0  0
 30 29  1  0  0  0  0
 30 26  1  0  0  0  0
 31 32  2  0  0  0  0
 31 33  1  0  0  0  0
 33 35  1  0  0  0  0
 35 34  1  0  0  0  0
 36 37  1  0  0  0  0
 37 38  1  1  0  0  0
 39 37  1  0  0  0  0
 40 39  1  0  0  0  0
M  END
>  <MODEL>
4

>  <REMARK>
 VINA RESULT:      -7.0      3.164      6.989
  Name = 
  8 active torsions:
  status: ('A' for Active; 'I' for Inactive)
    1  A    between atoms: C_1  and  O_28
    2  A    between atoms: C_1  and  C_33
    3  A    between atoms: C_4  and  C_7
    4  A    between atoms: C_4  and  C_10
    5  A    between atoms: C_7  and  C_19
    6  A    between atoms: C_16  and  C_25
    7  A    between atoms: C_23  and  O_34
    8  A    between atoms: C_27  and  O_28
                            x       y       z     vdW  Elec       q    Type
                         _______ _______ _______ _____ _____    ______ ____

>  <TORSDO>
F 8

$$$$
=
 OpenBabel10232408413D

 40 43  0  0  1  0  0  0  0  0999 V2000
  188.9440  176.9860  137.0640 C   0  0  0  0  0  0  0  0  0  0  0  0
  190.8170  176.1320  139.7290 N   0  0  0  0  0  2  0  0  0  0  0  0
  190.0060  176.8430  137.6130 C   0  0  0  0  0  0  0  0  0  0  0  0
  185.3820  178.1370  139.2040 C   0  0  0  0  0  0  0  0  0  0  0  0
  188.8220  177.2500  142.8270 C   0  0  1  0  0  3  0  0  0  0  0  0
  189.2300  176.3170  141.6830 C   0  0  0  0  0  2  0  0  0  0  0  0
  186.7540  177.9840  138.7440 C   0  0  0  0  0  0  0  0  0  0  0  0
  182.6300  178.2020  139.5530 C   0  0  0  0  0  3  0  0  0  0  0  0
  183.1570  177.8500  138.3010 C   0  0  0  0  0  2  0  0  0  0  0  0
  184.8880  178.4950  140.4680 C   0  0  0  0  0  0  0  0  0  0  0  0
  186.7020  177.7500  141.9470 N   0  0  0  0  0  2  0  0  0  0  0  0
  190.1490  176.9580  140.6860 C   0  0  0  0  0  0  0  0  0  0  0  0
  187.9190  178.3120  142.3750 N   0  0  0  0  0  2  0  0  0  0  0  0
  191.2160  176.6330  138.4180 C   0  0  2  0  0  3  0  0  0  0  0  0
  187.6040  177.1170  136.5550 C   0  0  0  0  0  2  0  0  0  0  0  0
  190.2750  178.2120  140.6320 O   0  0  0  0  0  0  0  0  0  0  0  0
  184.5420  177.8260  138.1520 C   0  0  0  0  0  0  0  0  0  0  0  0
  186.6160  177.5510  137.3430 C   0  0  0  0  0  0  0  0  0  0  0  0
  185.8280  178.8640  141.5960 C   0  0  2  0  0  3  0  0  0  0  0  0
  187.7120  178.7490  139.1520 N   0  0  0  0  0  1  0  0  0  0  0  0
  185.2410  177.4750  136.9620 N   0  0  0  0  0  0  0  0  0  0  0  0
  183.4850  178.5200  140.6250 C   0  0  0  0  0  3  0  0  0  0  0  0
  192.4520  173.5490  136.6020 C   0  0  0  0  0  3  0  0  0  0  0  0
  192.1360  175.6630  137.7470 C   0  0  0  0  0  0  0  0  0  0  0  0
  191.6110  174.4750  137.2270 C   0  0  0  0  0  3  0  0  0  0  0  0
  193.8240  173.8000  136.4920 C   0  0  0  0  0  0  0  0  0  0  0  0
  193.5120  175.9180  137.6410 C   0  0  0  0  0  3  0  0  0  0  0  0
  194.3510  174.9910  137.0160 C   0  0  0  0  0  3  0  0  0  0  0  0
  196.0510  172.8460  135.9940 C   0  0  0  0  0  1  0  0  0  0  0  0
  194.6360  172.8530  135.8620 O   0  0  0  0  0  0  0  0  0  0  0  0
  185.1390  179.4040  142.8150 C   0  0  0  0  0  0  0  0  0  0  0  0
  185.3560  180.5890  143.1930 O   0  0  0  0  0  0  0  0  0  0  0  0
  184.2850  178.5710  143.5370 O   0  0  0  0  0  0  0  0  0  0  0  0
  181.9420  178.7420  143.9990 C   0  0  0  0  0  1  0  0  0  0  0  0
  183.3410  179.0870  144.4620 C   0  0  0  0  0  2  0  0  0  0  0  0
  188.2190  176.4720  143.9940 C   0  0  0  0  0  2  0  0  0  0  0  0
  187.9090  177.3920  145.1640 C   0  0  1  0  0  3  0  0  0  0  0  0
  186.5870  177.2040  145.5740 O   0  0  0  0  0  1  0  0  0  0  0  0
  188.8490  177.0740  146.3110 C   0  0  0  0  0  2  0  0  0  0  0  0
  188.1890  177.3340  147.5780 N   0  0  0  0  0  1  0  0  0  0  0  0
  1  3  3  0  0  0  0
  2 12  1  0  0  0  0
  3 14  1  0  0  0  0
  4 10  2  0  0  0  0
  5 36  1  1  0  0  0
  6  5  1  0  0  0  0
  7 20  1  0  0  0  0
  7  4  1  0  0  0  0
  8 22  2  0  0  0  0
  9  8  1  0  0  0  0
 10 22  1  0  0  0  0
 10 19  1  0  0  0  0
 11 13  1  0  0  0  0
 12  6  1  0  0  0  0
 13  5  1  0  0  0  0
 14 24  1  6  0  0  0
 14  2  1  0  0  0  0
 15  1  1  0  0  0  0
 15 18  1  0  0  0  0
 16 12  2  0  0  0  0
 17  9  1  0  0  0  0
 17  4  1  0  0  0  0
 18  7  2  0  0  0  0
 19 11  1  0  0  0  0
 19 31  1  1  0  0  0
 21 18  1  0  0  0  0
 21 17  2  0  0  0  0
 23 25  1  0  0  0  0
 25 24  2  0  0  0  0
 26 23  2  0  0  0  0
 26 28  1  0  0  0  0
 27 24  1  0  0  0  0
 28 27  2  0  0  0  0
 30 29  1  0  0  0  0
 30 26  1  0  0  0  0
 31 32  2  0  0  0  0
 31 33  1  0  0  0  0
 33 35  1  0  0  0  0
 34 35  1  0  0  0  0
 36 37  1  0  0  0  0
 37 38  1  1  0  0  0
 37 39  1  0  0  0  0
 39 40  1  0  0  0  0
M  END
>  <MODEL>
5

>  <REMARK>
 VINA RESULT:      -6.7      3.717      6.538
  Name = 
  8 active torsions:
  status: ('A' for Active; 'I' for Inactive)
    1  A    between atoms: C_1  and  O_28
    2  A    between atoms: C_1  and  C_33
    3  A    between atoms: C_4  and  C_7
    4  A    between atoms: C_4  and  C_10
    5  A    between atoms: C_7  and  C_19
    6  A    between atoms: C_16  and  C_25
    7  A    between atoms: C_23  and  O_34
    8  A    between atoms: C_27  and  O_28
                            x       y       z     vdW  Elec       q    Type
                         _______ _______ _______ _____ _____    ______ ____

>  <TORSDO>
F 8

$$$$
=
 OpenBabel10232408413D

 40 43  0  0  1  0  0  0  0  0999 V2000
  188.9700  174.7930  135.6980 C   0  0  0  0  0  0  0  0  0  0  0  0
  190.9880  175.9240  138.1460 N   0  0  0  0  0  2  0  0  0  0  0  0
  190.0430  175.1530  136.1080 C   0  0  0  0  0  0  0  0  0  0  0  0
  185.2700  176.4210  137.2000 C   0  0  0  0  0  0  0  0  0  0  0  0
  188.8400  178.3120  140.2700 C   0  0  1  0  0  3  0  0  0  0  0  0
  189.4080  176.9640  139.8170 C   0  0  0  0  0  2  0  0  0  0  0  0
  186.6430  176.2370  136.7550 C   0  0  0  0  0  0  0  0  0  0  0  0
  182.5570  176.2650  137.7610 C   0  0  0  0  0  3  0  0  0  0  0  0
  183.1320  175.3380  136.8770 C   0  0  0  0  0  2  0  0  0  0  0  0
  184.7260  177.3640  138.0860 C   0  0  0  0  0  0  0  0  0  0  0  0
  186.6580  177.8900  139.5090 N   0  0  0  0  0  2  0  0  0  0  0  0
  190.1840  177.0400  138.5350 C   0  0  0  0  0  0  0  0  0  0  0  0
  187.7510  178.7700  139.4030 N   0  0  0  0  0  2  0  0  0  0  0  0
  191.2770  175.6290  136.7470 C   0  0  2  0  0  3  0  0  0  0  0  0
  187.6260  174.4050  135.3610 C   0  0  0  0  0  2  0  0  0  0  0  0
  190.0720  178.0350  137.7680 O   0  0  0  0  0  0  0  0  0  0  0  0
  184.4960  175.4400  136.6120 C   0  0  0  0  0  0  0  0  0  0  0  0
  186.5790  175.0610  135.8710 C   0  0  0  0  0  0  0  0  0  0  0  0
  185.5890  178.4520  138.6910 C   0  0  2  0  0  3  0  0  0  0  0  0
  187.4440  177.2290  136.5460 N   0  0  0  0  0  1  0  0  0  0  0  0
  185.2400  174.5750  135.7590 N   0  0  0  0  0  0  0  0  0  0  0  0
  183.3450  177.2660  138.3590 C   0  0  0  0  0  3  0  0  0  0  0  0
  194.3620  173.5900  137.5590 C   0  0  0  0  0  3  0  0  0  0  0  0
  192.3570  174.6000  136.6430 C   0  0  0  0  0  0  0  0  0  0  0  0
  193.3370  174.5380  137.6380 C   0  0  0  0  0  3  0  0  0  0  0  0
  194.4190  172.6970  136.4840 C   0  0  0  0  0  0  0  0  0  0  0  0
  192.4120  173.7080  135.5610 C   0  0  0  0  0  3  0  0  0  0  0  0
  193.4370  172.7610  135.4820 C   0  0  0  0  0  3  0  0  0  0  0  0
  195.9790  171.1330  137.5970 C   0  0  0  0  0  1  0  0  0  0  0  0
  195.4560  171.7620  136.4350 O   0  0  0  0  0  0  0  0  0  0  0  0
  184.8190  179.4860  139.4590 C   0  0  0  0  0  0  0  0  0  0  0  0
  184.0900  180.3170  138.8490 O   0  0  0  0  0  0  0  0  0  0  0  0
  184.9470  179.5350  140.8470 O   0  0  0  0  0  0  0  0  0  0  0  0
  184.7760  178.5640  143.0300 C   0  0  0  0  0  1  0  0  0  0  0  0
  184.0850  178.8020  141.7040 C   0  0  0  0  0  2  0  0  0  0  0  0
  188.4010  178.2710  141.7320 C   0  0  0  0  0  2  0  0  0  0  0  0
  188.9540  177.0430  142.4360 C   0  0  1  0  0  3  0  0  0  0  0  0
  190.1080  177.3850  143.1440 O   0  0  0  0  0  1  0  0  0  0  0  0
  187.9080  176.5040  143.3930 C   0  0  0  0  0  2  0  0  0  0  0  0
  187.8950  177.2990  144.6080 N   0  0  0  0  0  1  0  0  0  0  0  0
  1  3  3  0  0  0  0
  2 12  1  0  0  0  0
  3 14  1  0  0  0  0
  4 10  2  0  0  0  0
  5 36  1  1  0  0  0
  6  5  1  0  0  0  0
  7  4  1  0  0  0  0
  8 22  2  0  0  0  0
  9  8  1  0  0  0  0
 10 22  1  0  0  0  0
 10 19  1  0  0  0  0
 12  6  1  0  0  0  0
 13 11  1  0  0  0  0
 13  5  1  0  0  0  0
 14 24  1  1  0  0  0
 14  2  1  0  0  0  0
 15  1  1  0  0  0  0
 15 18  1  0  0  0  0
 16 12  2  0  0  0  0
 17  9  1  0  0  0  0
 17  4  1  0  0  0  0
 18  7  2  0  0  0  0
 19 31  1  1  0  0  0
 19 11  1  0  0  0  0
 20  7  1  0  0  0  0
 21 18  1  0  0  0  0
 21 17  2  0  0  0  0
 23 25  1  0  0  0  0
 24 25  2  0  0  0  0
 26 23  2  0  0  0  0
 27 24  1  0  0  0  0
 28 27  2  0  0  0  0
 28 26  1  0  0  0  0
 30 26  1  0  0  0  0
 30 29  1  0  0  0  0
 31 33  1  0  0  0  0
 32 31  2  0  0  0  0
 33 35  1  0  0  0  0
 35 34  1  0  0  0  0
 36 37  1  0  0  0  0
 37 38  1  1  0  0  0
 37 39  1  0  0  0  0
 39 40  1  0  0  0  0
M  END
>  <MODEL>
6

>  <REMARK>
 VINA RESULT:      -6.5      3.948      6.471
  Name = 
  8 active torsions:
  status: ('A' for Active; 'I' for Inactive)
    1  A    between atoms: C_1  and  O_28
    2  A    between atoms: C_1  and  C_33
    3  A    between atoms: C_4  and  C_7
    4  A    between atoms: C_4  and  C_10
    5  A    between atoms: C_7  and  C_19
    6  A    between atoms: C_16  and  C_25
    7  A    between atoms: C_23  and  O_34
    8  A    between atoms: C_27  and  O_28
                            x       y       z     vdW  Elec       q    Type
                         _______ _______ _______ _____ _____    ______ ____

>  <TORSDO>
F 8

$$$$
=
 OpenBabel10232408413D

 40 43  0  0  1  0  0  0  0  0999 V2000
  188.5230  177.6540  140.1380 C   0  0  0  0  0  0  0  0  0  0  0  0
  186.0670  178.0570  142.4070 N   0  0  0  0  0  2  0  0  0  0  0  0
  188.0900  178.1110  141.1640 C   0  0  0  0  0  0  0  0  0  0  0  0
  186.0210  176.9570  136.6950 C   0  0  0  0  0  0  0  0  0  0  0  0
  182.7830  178.1980  140.4010 C   0  0  1  0  0  3  0  0  0  0  0  0
  183.9550  177.5320  141.1300 C   0  0  0  0  0  2  0  0  0  0  0  0
  186.6260  177.4980  137.9030 C   0  0  0  0  0  0  0  0  0  0  0  0
  185.3750  175.6280  134.3470 C   0  0  0  0  0  3  0  0  0  0  0  0
  186.6740  175.5140  134.8680 C   0  0  0  0  0  3  0  0  0  0  0  0
  184.7150  177.0950  136.2000 C   0  0  0  0  0  0  0  0  0  0  0  0
  183.4340  177.4830  138.2590 N   0  0  0  0  0  2  0  0  0  0  0  0
  185.0530  178.4860  141.4950 C   0  0  0  0  0  0  0  0  0  0  0  0
  183.1470  178.6150  139.0440 N   0  0  0  0  0  2  0  0  0  0  0  0
  187.4190  178.6040  142.3740 C   0  0  2  0  0  3  0  0  0  0  0  0
  188.8840  177.0470  138.8840 C   0  0  0  0  0  3  0  0  0  0  0  0
  185.1340  179.6210  140.9500 O   0  0  0  0  0  0  0  0  0  0  0  0
  186.9710  176.1920  136.0480 C   0  0  0  0  0  0  0  0  0  0  0  0
  187.9980  176.9650  137.8860 C   0  0  0  0  0  0  0  0  0  0  0  0
  183.7000  177.9670  136.9090 C   0  0  2  0  0  3  0  0  0  0  0  0
  186.3340  178.6710  138.3600 N   0  0  0  0  0  1  0  0  0  0  0  0
  188.2270  176.1710  136.7210 N   0  0  0  0  0  0  0  0  0  0  0  0
  184.4070  176.4090  135.0050 C   0  0  0  0  0  3  0  0  0  0  0  0
  190.3000  177.7540  144.6790 C   0  0  0  0  0  3  0  0  0  0  0  0
  188.1750  178.1990  143.6000 C   0  0  0  0  0  0  0  0  0  0  0  0
  189.5720  178.1380  143.5490 C   0  0  0  0  0  3  0  0  0  0  0  0
  189.6420  177.4280  145.8690 C   0  0  0  0  0  0  0  0  0  0  0  0
  187.5100  177.8700  144.7910 C   0  0  0  0  0  3  0  0  0  0  0  0
  188.2390  177.4870  145.9190 C   0  0  0  0  0  3  0  0  0  0  0  0
  191.6820  176.4480  146.8670 C   0  0  0  0  0  1  0  0  0  0  0  0
  190.4000  177.0490  146.9800 O   0  0  0  0  0  0  0  0  0  0  0  0
  182.4200  178.1570  136.1500 C   0  0  0  0  0  0  0  0  0  0  0  0
  181.9850  179.3200  135.9210 O   0  0  0  0  0  0  0  0  0  0  0  0
  181.7060  177.0350  135.7300 O   0  0  0  0  0  0  0  0  0  0  0  0
  180.2480  175.1410  135.8790 C   0  0  0  0  0  1  0  0  0  0  0  0
  180.8310  176.3360  136.6020 C   0  0  0  0  0  2  0  0  0  0  0  0
  181.5490  177.3000  140.3890 C   0  0  0  0  0  2  0  0  0  0  0  0
  180.3480  178.0110  140.9930 C   0  0  1  0  0  3  0  0  0  0  0  0
  179.9830  177.3860  142.1880 O   0  0  0  0  0  1  0  0  0  0  0  0
  180.7110  179.4590  141.2650 C   0  0  0  0  0  2  0  0  0  0  0  0
  180.6580  179.7220  142.6920 N   0  0  0  0  0  1  0  0  0  0  0  0
  1  3  3  0  0  0  0
  3 14  1  0  0  0  0
  4  7  2  0  0  0  0
  5 36  1  6  0  0  0
  5  6  1  0  0  0  0
  6 12  1  0  0  0  0
  7 20  1  0  0  0  0
  8  9  2  0  0  0  0
  8 22  1  0  0  0  0
  9 17  1  0  0  0  0
 10  4  1  0  0  0  0
 10 19  1  0  0  0  0
 11 13  1  0  0  0  0
 12  2  1  0  0  0  0
 13  5  1  0  0  0  0
 14  2  1  0  0  0  0
 14 24  1  1  0  0  0
 15  1  1  0  0  0  0
 16 12  2  0  0  0  0
 17  4  1  0  0  0  0
 17 21  2  0  0  0  0
 18  7  1  0  0  0  0
 18 15  2  0  0  0  0
 19 31  1  6  0  0  0
 19 11  1  0  0  0  0
 21 18  1  0  0  0  0
 22 10  2  0  0  0  0
 23 26  1  0  0  0  0
 24 27  2  0  0  0  0
 25 24  1  0  0  0  0
 25 23  2  0  0  0  0
 26 28  2  0  0  0  0
 26 30  1  0  0  0  0
 27 28  1  0  0  0  0
 29 30  1  0  0  0  0
 32 31  2  0  0  0  0
 33 31  1  0  0  0  0
 33 35  1  0  0  0  0
 34 35  1  0  0  0  0
 36 37  1  0  0  0  0
 37 39  1  0  0  0  0
 37 38  1  1  0  0  0
 39 40  1  0  0  0  0
M  END
>  <MODEL>
7

>  <REMARK>
 VINA RESULT:      -6.1      1.390      1.991
  Name = 
  8 active torsions:
  status: ('A' for Active; 'I' for Inactive)
    1  A    between atoms: C_1  and  O_28
    2  A    between atoms: C_1  and  C_33
    3  A    between atoms: C_4  and  C_7
    4  A    between atoms: C_4  and  C_10
    5  A    between atoms: C_7  and  C_19
    6  A    between atoms: C_16  and  C_25
    7  A    between atoms: C_23  and  O_34
    8  A    between atoms: C_27  and  O_28
                            x       y       z     vdW  Elec       q    Type
                         _______ _______ _______ _____ _____    ______ ____

>  <TORSDO>
F 8

$$$$
=
 OpenBabel10232408413D

 40 43  0  0  1  0  0  0  0  0999 V2000
  190.5320  173.1990  135.7520 C   0  0  0  0  0  0  0  0  0  0  0  0
  192.3920  174.8480  138.0240 N   0  0  0  0  0  2  0  0  0  0  0  0
  191.5760  173.6580  136.1370 C   0  0  0  0  0  0  0  0  0  0  0  0
  186.7340  175.0160  136.6850 C   0  0  0  0  0  0  0  0  0  0  0  0
  190.1000  177.5700  139.4960 C   0  0  1  0  0  3  0  0  0  0  0  0
  190.7080  176.1700  139.3590 C   0  0  0  0  0  2  0  0  0  0  0  0
  188.1330  174.7760  136.3630 C   0  0  0  0  0  0  0  0  0  0  0  0
  183.9950  174.9170  137.1170 C   0  0  0  0  0  3  0  0  0  0  0  0
  184.6300  173.8430  136.4740 C   0  0  0  0  0  2  0  0  0  0  0  0
  186.1300  176.1070  137.3300 C   0  0  0  0  0  0  0  0  0  0  0  0
  187.9700  176.9530  138.7190 N   0  0  0  0  0  2  0  0  0  0  0  0
  191.5560  176.0020  138.1330 C   0  0  0  0  0  0  0  0  0  0  0  0
  189.0590  177.8170  138.4950 N   0  0  0  0  0  2  0  0  0  0  0  0
  192.7650  174.2820  136.7320 C   0  0  2  0  0  3  0  0  0  0  0  0
  189.2130  172.7210  135.4280 C   0  0  0  0  0  2  0  0  0  0  0  0
  191.4780  176.8170  137.1730 O   0  0  0  0  0  0  0  0  0  0  0  0
  186.0060  173.9190  136.2690 C   0  0  0  0  0  0  0  0  0  0  0  0
  188.1320  173.4440  135.7350 C   0  0  0  0  0  0  0  0  0  0  0  0
  186.9440  177.3140  137.7460 C   0  0  2  0  0  3  0  0  0  0  0  0
  188.9330  175.7230  136.0000 N   0  0  0  0  0  1  0  0  0  0  0  0
  186.8070  172.9160  135.6520 N   0  0  0  0  0  0  0  0  0  0  0  0
  184.7360  176.0360  137.5410 C   0  0  0  0  0  3  0  0  0  0  0  0
  195.8400  172.5380  138.0870 C   0  0  0  0  0  3  0  0  0  0  0  0
  193.8600  173.2770  136.8990 C   0  0  0  0  0  0  0  0  0  0  0  0
  194.8020  173.4590  137.9160 C   0  0  0  0  0  3  0  0  0  0  0  0
  195.9480  171.4280  137.2430 C   0  0  0  0  0  0  0  0  0  0  0  0
  193.9660  172.1660  136.0470 C   0  0  0  0  0  3  0  0  0  0  0  0
  195.0040  171.2460  136.2190 C   0  0  0  0  0  3  0  0  0  0  0  0
  196.8050  169.1180  137.4700 C   0  0  0  0  0  1  0  0  0  0  0  0
  196.9970  170.5260  137.4410 O   0  0  0  0  0  0  0  0  0  0  0  0
  186.1210  178.4650  138.2440 C   0  0  0  0  0  0  0  0  0  0  0  0
  185.5530  179.2400  137.4250 O   0  0  0  0  0  0  0  0  0  0  0  0
  186.0200  178.6830  139.6180 O   0  0  0  0  0  0  0  0  0  0  0  0
  184.8040  178.7120  141.6810 C   0  0  0  0  0  1  0  0  0  0  0  0
  184.8080  179.1110  140.2210 C   0  0  0  0  0  2  0  0  0  0  0  0
  189.5780  177.8160  140.9090 C   0  0  0  0  0  2  0  0  0  0  0  0
  190.2920  176.9340  141.9190 C   0  0  1  0  0  3  0  0  0  0  0  0
  191.3230  177.6530  142.5280 O   0  0  0  0  0  1  0  0  0  0  0  0
  189.3000  176.4760  142.9710 C   0  0  0  0  0  2  0  0  0  0  0  0
  188.3310  177.5270  143.2260 N   0  0  0  0  0  1  0  0  0  0  0  0
  1  3  3  0  0  0  0
  2 12  1  0  0  0  0
  3 14  1  0  0  0  0
  4 10  2  0  0  0  0
  5 36  1  1  0  0  0
  6  5  1  0  0  0  0
  7  4  1  0  0  0  0
  8 22  2  0  0  0  0
  9  8  1  0  0  0  0
 10 22  1  0  0  0  0
 10 19  1  0  0  0  0
 12  6  1  0  0  0  0
 13 11  1  0  0  0  0
 13  5  1  0  0  0  0
 14 24  1  1  0  0  0
 14  2  1  0  0  0  0
 15 18  1  0  0  0  0
 15  1  1  0  0  0  0
 16 12  2  0  0  0  0
 17  9  1  0  0  0  0
 17  4  1  0  0  0  0
 18  7  2  0  0  0  0
 19 31  1  1  0  0  0
 19 11  1  0  0  0  0
 20  7  1  0  0  0  0
 21 18  1  0  0  0  0
 21 17  2  0  0  0  0
 24 25  2  0  0  0  0
 25 23  1  0  0  0  0
 26 30  1  0  0  0  0
 26 23  2  0  0  0  0
 27 28  2  0  0  0  0
 27 24  1  0  0  0  0
 28 26  1  0  0  0  0
 30 29  1  0  0  0  0
 31 33  1  0  0  0  0
 32 31  2  0  0  0  0
 33 35  1  0  0  0  0
 35 34  1  0  0  0  0
 36 37  1  0  0  0  0
 37 38  1  1  0  0  0
 37 39  1  0  0  0  0
 39 40  1  0  0  0  0
M  END
>  <MODEL>
8

>  <REMARK>
 VINA RESULT:      -5.6      4.953      7.325
  Name = 
  8 active torsions:
  status: ('A' for Active; 'I' for Inactive)
    1  A    between atoms: C_1  and  O_28
    2  A    between atoms: C_1  and  C_33
    3  A    between atoms: C_4  and  C_7
    4  A    between atoms: C_4  and  C_10
    5  A    between atoms: C_7  and  C_19
    6  A    between atoms: C_16  and  C_25
    7  A    between atoms: C_23  and  O_34
    8  A    between atoms: C_27  and  O_28
                            x       y       z     vdW  Elec       q    Type
                         _______ _______ _______ _____ _____    ______ ____

>  <TORSDO>
F 8

$$$$
=
 OpenBabel10232408413D

 40 43  0  0  1  0  0  0  0  0999 V2000
  189.0320  177.5600  141.5220 C   0  0  0  0  0  0  0  0  0  0  0  0
  185.7810  178.1120  142.2060 N   0  0  0  0  0  2  0  0  0  0  0  0
  188.1560  178.0940  142.1510 C   0  0  0  0  0  0  0  0  0  0  0  0
  188.5820  176.5380  137.3570 C   0  0  0  0  0  0  0  0  0  0  0  0
  183.9570  178.0340  138.8160 C   0  0  1  0  0  3  0  0  0  0  0  0
  184.5830  177.4500  140.0860 C   0  0  0  0  0  2  0  0  0  0  0  0
  188.5120  177.1880  138.6570 C   0  0  0  0  0  0  0  0  0  0  0  0
  189.1660  175.0070  135.1180 C   0  0  0  0  0  3  0  0  0  0  0  0
  190.0230  174.9570  136.2290 C   0  0  0  0  0  3  0  0  0  0  0  0
  187.7060  176.6130  136.2620 C   0  0  0  0  0  0  0  0  0  0  0  0
  185.5750  177.1520  137.3580 N   0  0  0  0  0  2  0  0  0  0  0  0
  185.3760  178.4480  140.8770 C   0  0  0  0  0  0  0  0  0  0  0  0
  184.9650  178.3420  137.7980 N   0  0  0  0  0  2  0  0  0  0  0  0
  186.9820  178.6760  142.8150 C   0  0  2  0  0  3  0  0  0  0  0  0
  189.9570  176.8550  140.6740 C   0  0  0  0  0  3  0  0  0  0  0  0
  185.7530  179.5350  140.3580 O   0  0  0  0  0  0  0  0  0  0  0  0
  189.7060  175.7360  137.3400 C   0  0  0  0  0  0  0  0  0  0  0  0
  189.6910  176.6760  139.3770 C   0  0  0  0  0  0  0  0  0  0  0  0
  186.4980  177.5250  136.2920 C   0  0  2  0  0  3  0  0  0  0  0  0
  188.0640  178.3900  138.8100 N   0  0  0  0  0  1  0  0  0  0  0  0
  190.4520  175.7910  138.5520 N   0  0  0  0  0  0  0  0  0  0  0  0
  188.0210  175.8250  135.1340 C   0  0  0  0  0  3  0  0  0  0  0  0
  188.2650  177.7460  146.2530 C   0  0  0  0  0  3  0  0  0  0  0  0
  187.0080  178.3870  144.2820 C   0  0  0  0  0  0  0  0  0  0  0  0
  188.2180  178.0280  144.8850 C   0  0  0  0  0  3  0  0  0  0  0  0
  187.1060  177.8170  147.0320 C   0  0  0  0  0  0  0  0  0  0  0  0
  185.8410  178.4580  145.0590 C   0  0  0  0  0  3  0  0  0  0  0  0
  185.8900  178.1750  146.4270 C   0  0  0  0  0  3  0  0  0  0  0  0
  188.2470  178.0000  149.2190 C   0  0  0  0  0  1  0  0  0  0  0  0
  187.1880  177.5290  148.3970 O   0  0  0  0  0  0  0  0  0  0  0  0
  185.7790  177.6310  134.9790 C   0  0  0  0  0  0  0  0  0  0  0  0
  185.7720  178.7240  134.3460 O   0  0  0  0  0  0  0  0  0  0  0  0
  185.0960  176.5190  134.4870 O   0  0  0  0  0  0  0  0  0  0  0  0
  183.5860  174.8950  135.3900 C   0  0  0  0  0  1  0  0  0  0  0  0
  183.7330  176.2800  134.7990 C   0  0  0  0  0  2  0  0  0  0  0  0
  182.8700  177.1190  138.2570 C   0  0  0  0  0  2  0  0  0  0  0  0
  181.5690  177.8760  138.0510 C   0  0  1  0  0  3  0  0  0  0  0  0
  181.3270  178.0340  136.6850 O   0  0  0  0  0  1  0  0  0  0  0  0
  180.4320  177.0960  138.6830 C   0  0  0  0  0  2  0  0  0  0  0  0
  180.8430  175.7210  138.9080 N   0  0  0  0  0  1  0  0  0  0  0  0
  1  3  3  0  0  0  0
  2 14  1  0  0  0  0
  3 14  1  0  0  0  0
  4  7  2  0  0  0  0
  5 36  1  6  0  0  0
  5  6  1  0  0  0  0
  6 12  1  0  0  0  0
  7 20  1  0  0  0  0
  7 18  1  0  0  0  0
  8 22  1  0  0  0  0
  8  9  2  0  0  0  0
  9 17  1  0  0  0  0
 10 19  1  0  0  0  0
 10  4  1  0  0  0  0
 11 13  1  0  0  0  0
 12  2  1  0  0  0  0
 13  5  1  0  0  0  0
 14 24  1  1  0  0  0
 15  1  1  0  0  0  0
 16 12  2  0  0  0  0
 17  4  1  0  0  0  0
 17 21  2  0  0  0  0
 18 15  2  0  0  0  0
 19 31  1  6  0  0  0
 19 11  1  0  0  0  0
 21 18  1  0  0  0  0
 22 10  2  0  0  0  0
 23 26  1  0  0  0  0
 24 25  1  0  0  0  0
 24 27  2  0  0  0  0
 25 23  2  0  0  0  0
 26 30  1  0  0  0  0
 27 28  1  0  0  0  0
 28 26  2  0  0  0  0
 30 29  1  0  0  0  0
 32 31  2  0  0  0  0
 33 35  1  0  0  0  0
 33 31  1  0  0  0  0
 35 34  1  0  0  0  0
 37 38  1  6  0  0  0
 37 36  1  0  0  0  0
 37 39  1  0  0  0  0
 39 40  1  0  0  0  0
M  END
>  <MODEL>
9

>  <REMARK>
 VINA RESULT:      -5.5      2.504      4.046
  Name = 
  8 active torsions:
  status: ('A' for Active; 'I' for Inactive)
    1  A    between atoms: C_1  and  O_28
    2  A    between atoms: C_1  and  C_33
    3  A    between atoms: C_4  and  C_7
    4  A    between atoms: C_4  and  C_10
    5  A    between atoms: C_7  and  C_19
    6  A    between atoms: C_16  and  C_25
    7  A    between atoms: C_23  and  O_34
    8  A    between atoms: C_27  and  O_28
                            x       y       z     vdW  Elec       q    Type
                         _______ _______ _______ _____ _____    ______ ____

>  <TORSDO>
F 8

$$$$
