=
 OpenBabel10232409133D

 57 63  0  0  1  0  0  0  0  0999 V2000
  186.9830  177.3760  138.5380 C   0  0  0  0  0  0  0  0  0  0  0  0
  190.3950  173.2610  136.2880 N   0  0  0  0  0  2  0  0  0  0  0  0
  189.5780  174.2680  134.3460 C   0  0  0  0  0  2  0  0  0  0  0  0
  187.0080  175.6070  135.6390 C   0  0  0  0  0  2  0  0  0  0  0  0
  189.5650  175.2940  135.4340 C   0  0  1  0  0  3  0  0  0  0  0  0
  189.2000  176.9280  139.2850 C   0  0  0  0  0  0  0  0  0  0  0  0
  188.3680  176.2540  135.3670 C   0  0  0  0  0  2  0  0  0  0  0  0
  192.1150  175.9990  139.1660 C   0  0  0  0  0  3  0  0  0  0  0  0
  186.0130  176.6530  136.1590 C   0  0  2  0  0  3  0  0  0  0  0  0
  189.1630  175.7760  138.6800 N   0  0  0  0  0  0  0  0  0  0  0  0
  190.1520  175.1590  137.8520 C   0  0  0  0  0  0  0  0  0  0  0  0
  186.4550  177.1120  137.4880 C   0  0  0  0  0  0  0  0  0  0  0  0
  190.2430  173.0840  134.8940 N   0  0  0  0  0  2  0  0  0  0  0  0
  187.8660  177.5000  139.7100 C   0  0  1  0  0  3  0  0  0  0  0  0
  190.4190  177.7950  139.2010 C   0  0  0  0  0  2  0  0  0  0  0  0
  191.6220  177.0970  139.7410 C   0  0  0  0  0  0  0  0  0  0  0  0
  189.6120  174.4300  136.6570 C   0  0  2  0  0  3  0  0  0  0  0  0
  191.4710  175.2500  138.0730 C   0  0  0  0  0  3  0  0  0  0  0  0
  182.4240  175.8020  134.9070 C   0  0  2  0  0  3  0  0  0  0  0  0
  184.2630  175.0760  137.1390 C   0  0  0  0  0  2  0  0  0  0  0  0
  181.7470  176.7450  137.1510 N   0  0  0  0  0  2  0  0  0  0  0  0
  181.3950  175.9720  135.9560 C   0  0  1  0  0  0  0  0  0  0  0  0
  183.6310  175.7310  138.3620 C   0  0  0  0  0  2  0  0  0  0  0  0
  183.7270  176.5260  135.1450 C   0  0  0  0  0  0  0  0  0  0  0  0
  184.0500  177.4670  134.3650 O   0  0  0  0  0  0  0  0  0  0  0  0
  181.5320  176.3190  139.5320 C   0  0  0  0  0  1  0  0  0  0  0  0
  181.0980  177.0390  134.4920 S   0  0  0  0  0  0  0  0  0  0  0  0
  184.6500  176.1020  136.1670 N   0  0  0  0  0  0  0  0  0  0  0  0
  182.1210  175.8260  138.2250 C   0  0  1  0  0  3  0  0  0  0  0  0
  180.7170  173.6240  136.0320 C   0  0  0  0  0  0  0  0  0  0  0  0
  182.3820  172.0010  136.2150 O   0  0  0  0  0  1  0  0  0  0  0  0
  180.0530  171.3340  135.6430 C   0  0  0  0  0  1  0  0  0  0  0  0
  181.0650  172.3700  135.9730 C   0  0  0  0  0  0  0  0  0  0  0  0
  180.3730  174.8820  136.0940 C   0  0  0  0  0  3  0  0  0  0  0  0
  192.3810  177.7480  140.8500 C   0  0  0  0  0  2  0  0  0  0  0  0
  192.0810  177.1050  142.1220 N   0  0  0  0  0  2  0  0  0  0  0  0
  191.0960  177.8840  142.7500 N   0  0  0  0  0  2  0  0  0  0  0  0
  190.3690  177.0010  143.6540 C   0  0  0  0  0  2  0  0  0  0  0  0
  187.5760  177.8860  144.8430 C   0  0  0  0  0  2  0  0  0  0  0  0
  190.3870  177.6000  147.7410 S   0  0  0  0  0  0  0  0  0  0  0  0
  188.8060  178.0360  146.9720 C   0  0  1  0  0  3  0  0  0  0  0  0
  186.2990  177.5110  145.6040 C   0  0  0  0  0  2  0  0  0  0  0  0
  188.7740  177.3600  145.6260 C   0  0  2  0  0  3  0  0  0  0  0  0
  187.5950  177.6020  147.7820 C   0  0  0  0  0  2  0  0  0  0  0  0
  186.3290  178.0510  147.0430 C   0  0  0  0  0  2  0  0  0  0  0  0
  190.1180  177.6750  145.0100 C   0  0  1  0  0  3  0  0  0  0  0  0
  191.1860  177.4340  146.0950 C   0  0  2  0  0  3  0  0  0  0  0  0
  191.8540  176.0630  146.0000 C   0  0  0  0  0  2  0  0  0  0  0  0
  192.0420  175.4440  147.3740 C   0  0  0  0  0  2  0  0  0  0  0  0
  193.3450  175.6640  147.8260 O   0  0  0  0  0  1  0  0  0  0  0  0
  187.9480  178.9530  140.1680 C   0  0  0  0  0  2  0  0  0  0  0  0
  187.4180  179.0930  141.5850 C   0  0  0  0  0  2  0  0  0  0  0  0
  185.9460  178.7280  141.6380 C   0  0  0  0  0  2  0  0  0  0  0  0
  185.2890  179.4630  142.7080 N   0  0  0  0  0  2  0  0  0  0  0  0
  184.0000  179.0880  143.1990 C   0  0  0  0  0  0  0  0  0  0  0  0
  183.4200  179.8150  144.2290 O   0  0  0  0  0  1  0  0  0  0  0  0
  183.3840  178.1000  142.7100 O   0  0  0  0  0  0  0  0  0  0  0  0
  1 14  1  0  0  0  0
  3 13  1  0  0  0  0
  5  3  1  6  0  0  0
  5 17  1  0  0  0  0
  6 14  1  0  0  0  0
  7  5  1  0  0  0  0
  7  4  1  0  0  0  0
  8 16  2  0  0  0  0
  9  4  1  1  0  0  0
  9 28  1  0  0  0  0
  9 12  1  0  0  0  0
 10  6  2  0  0  0  0
 11 18  2  0  0  0  0
 11 10  1  0  0  0  0
 12  1  3  0  0  0  0
 13  2  1  0  0  0  0
 14 51  1  6  0  0  0
 15  6  1  0  0  0  0
 15 16  1  0  0  0  0
 16 35  1  0  0  0  0
 17  2  1  6  0  0  0
 17 11  1  0  0  0  0
 18  8  1  0  0  0  0
 19 27  1  6  0  0  0
 19 24  1  0  0  0  0
 19 22  1  0  0  0  0
 20 23  1  0  0  0  0
 21 29  1  0  0  0  0
 22 34  1  1  0  0  0
 22 21  1  0  0  0  0
 24 28  1  0  0  0  0
 25 24  2  0  0  0  0
 27 22  1  0  0  0  0
 28 20  1  0  0  0  0
 29 23  1  0  0  0  0
 29 26  1  1  0  0  0
 30 34  2  0  0  0  0
 32 33  1  0  0  0  0
 33 30  2  0  0  0  0
 33 31  1  0  0  0  0
 35 36  1  0  0  0  0
 36 37  1  0  0  0  0
 37 38  1  0  0  0  0
 39 42  1  0  0  0  0
 41 40  1  0  0  0  0
 41 44  1  1  0  0  0
 42 45  1  0  0  0  0
 43 39  1  6  0  0  0
 43 41  1  0  0  0  0
 45 44  1  0  0  0  0
 46 38  1  6  0  0  0
 46 43  1  0  0  0  0
 46 47  1  0  0  0  0
 47 48  1  6  0  0  0
 47 40  1  0  0  0  0
 48 49  1  0  0  0  0
 49 50  1  0  0  0  0
 51 52  1  0  0  0  0
 52 53  1  0  0  0  0
 53 54  1  0  0  0  0
 54 55  1  0  0  0  0
 55 56  1  0  0  0  0
 57 55  2  0  0  0  0
M  END
>  <MODEL>
1

>  <REMARK>
 VINA RESULT:      -6.8      0.000      0.000
  Name = 
  13 active torsions:
  status: ('A' for Active; 'I' for Inactive)
    1  A    between atoms: N_2  and  C_27
    2  A    between atoms: N_5  and  C_22
    3  A    between atoms: N_5  and  N_48
    4  A    between atoms: C_9  and  C_26
    5  A    between atoms: C_14  and  C_27
    6  A    between atoms: C_14  and  C_50
    7  A    between atoms: C_22  and  C_54
    8  A    between atoms: C_23  and  C_46
    9  A    between atoms: C_26  and  C_52
   10  A    between atoms: C_30  and  N_53
   11  A    between atoms: C_43  and  C_50
   12  A    between atoms: C_44  and  C_47
   13  A    between atoms: C_44  and  N_48
                            x       y       z     vdW  Elec       q    Type
                         _______ _______ _______ _____ _____    ______ ____

>  <TORSDO>
F 13

$$$$
=
 OpenBabel10232409133D

 57 63  0  0  1  0  0  0  0  0999 V2000
  190.2330  176.9670  139.7630 C   0  0  0  0  0  0  0  0  0  0  0  0
  186.6470  178.0800  135.3420 N   0  0  0  0  0  2  0  0  0  0  0  0
  187.1450  175.8330  134.9520 C   0  0  0  0  0  2  0  0  0  0  0  0
  189.8360  175.7190  136.6300 C   0  0  0  0  0  2  0  0  0  0  0  0
  187.2860  176.0850  136.4200 C   0  0  1  0  0  3  0  0  0  0  0  0
  188.1610  178.1230  139.9850 C   0  0  0  0  0  0  0  0  0  0  0  0
  188.4330  175.3020  137.0770 C   0  0  0  0  0  2  0  0  0  0  0  0
  185.2880  178.9700  139.3540 C   0  0  0  0  0  3  0  0  0  0  0  0
  190.8660  175.3780  137.7140 C   0  0  2  0  0  3  0  0  0  0  0  0
  188.1430  178.3210  138.7000 N   0  0  0  0  0  0  0  0  0  0  0  0
  187.0610  178.1630  137.7770 C   0  0  0  0  0  0  0  0  0  0  0  0
  190.6090  176.2200  138.8970 C   0  0  0  0  0  0  0  0  0  0  0  0
  186.6000  177.0590  134.3660 N   0  0  0  0  0  2  0  0  0  0  0  0
  189.5270  177.9420  140.6120 C   0  0  1  0  0  3  0  0  0  0  0  0
  186.9190  177.7040  140.7120 C   0  0  0  0  0  2  0  0  0  0  0  0
  185.8280  178.7090  140.5460 C   0  0  0  0  0  0  0  0  0  0  0  0
  187.4430  177.5750  136.4510 C   0  0  2  0  0  3  0  0  0  0  0  0
  185.7870  178.4610  138.0650 C   0  0  0  0  0  3  0  0  0  0  0  0
  193.8250  175.2630  135.1830 C   0  0  2  0  0  3  0  0  0  0  0  0
  193.2150  176.3600  137.8890 C   0  0  0  0  0  2  0  0  0  0  0  0
  194.9950  174.0610  137.0730 N   0  0  0  0  0  2  0  0  0  0  0  0
  195.0790  174.7640  135.7890 C   0  0  1  0  0  0  0  0  0  0  0  0
  194.0470  175.4970  138.8300 C   0  0  0  0  0  2  0  0  0  0  0  0
  192.5570  174.9170  135.9260 C   0  0  0  0  0  0  0  0  0  0  0  0
  191.7240  174.1410  135.3760 O   0  0  0  0  0  0  0  0  0  0  0  0
  196.1810  174.2950  139.1790 C   0  0  0  0  0  1  0  0  0  0  0  0
  194.5090  173.7290  134.3840 S   0  0  0  0  0  0  0  0  0  0  0  0
  192.2300  175.5290  137.1890 N   0  0  0  0  0  0  0  0  0  0  0  0
  195.3120  174.9940  138.1530 C   0  0  1  0  0  3  0  0  0  0  0  0
  197.4370  174.8980  135.1560 C   0  0  0  0  0  0  0  0  0  0  0  0
  198.4720  172.9700  134.3490 O   0  0  0  0  0  1  0  0  0  0  0  0
  199.8460  174.9470  134.9820 C   0  0  0  0  0  1  0  0  0  0  0  0
  198.5320  174.2710  134.8310 C   0  0  0  0  0  0  0  0  0  0  0  0
  196.3370  175.5210  135.4780 C   0  0  0  0  0  3  0  0  0  0  0  0
  185.2200  179.3040  141.7730 C   0  0  0  0  0  2  0  0  0  0  0  0
  183.9440  178.6710  142.0710 N   0  0  0  0  0  2  0  0  0  0  0  0
  183.0440  179.0760  141.0720 N   0  0  0  0  0  2  0  0  0  0  0  0
  181.8320  178.2860  141.2470 C   0  0  0  0  0  2  0  0  0  0  0  0
  180.9550  180.5560  139.2270 C   0  0  0  0  0  2  0  0  0  0  0  0
  181.0100  176.9280  137.4330 S   0  0  0  0  0  0  0  0  0  0  0  0
  180.6570  178.6920  137.6440 C   0  0  1  0  0  3  0  0  0  0  0  0
  181.3200  181.4880  138.0670 C   0  0  0  0  0  2  0  0  0  0  0  0
  181.4060  179.1440  138.8710 C   0  0  2  0  0  3  0  0  0  0  0  0
  181.0770  179.5440  136.4560 C   0  0  0  0  0  2  0  0  0  0  0  0
  180.7010  181.0020  136.7460 C   0  0  0  0  0  2  0  0  0  0  0  0
  181.0920  178.0970  139.9160 C   0  0  1  0  0  3  0  0  0  0  0  0
  181.2450  176.7190  139.2430 C   0  0  2  0  0  3  0  0  0  0  0  0
  182.6020  176.0640  139.4980 C   0  0  0  0  0  2  0  0  0  0  0  0
  183.3370  175.7950  138.1960 C   0  0  0  0  0  2  0  0  0  0  0  0
  183.4630  174.4200  137.9900 O   0  0  0  0  0  1  0  0  0  0  0  0
  189.4720  177.4540  142.0560 C   0  0  0  0  0  2  0  0  0  0  0  0
  190.8590  177.0670  142.5390 C   0  0  0  0  0  2  0  0  0  0  0  0
  191.2090  177.8250  143.8060 C   0  0  0  0  0  2  0  0  0  0  0  0
  190.2600  177.5000  144.8590 N   0  0  0  0  0  2  0  0  0  0  0  0
  190.6880  177.0490  146.1470 C   0  0  0  0  0  0  0  0  0  0  0  0
  189.7430  176.7610  147.1210 O   0  0  0  0  0  1  0  0  0  0  0  0
  191.9160  176.9130  146.4080 O   0  0  0  0  0  0  0  0  0  0  0  0
  1 14  1  0  0  0  0
  4  7  1  0  0  0  0
  5  3  1  6  0  0  0
  5 17  1  0  0  0  0
  5  7  1  0  0  0  0
  6 14  1  0  0  0  0
  6 15  1  0  0  0  0
  8 16  2  0  0  0  0
  9  4  1  6  0  0  0
  9 12  1  0  0  0  0
 10  6  2  0  0  0  0
 11 18  2  0  0  0  0
 11 10  1  0  0  0  0
 12  1  3  0  0  0  0
 13  3  1  0  0  0  0
 13  2  1  0  0  0  0
 14 51  1  1  0  0  0
 16 15  1  0  0  0  0
 16 35  1  0  0  0  0
 17  2  1  6  0  0  0
 17 11  1  0  0  0  0
 18  8  1  0  0  0  0
 19 27  1  6  0  0  0
 19 22  1  0  0  0  0
 19 24  1  0  0  0  0
 20 23  1  0  0  0  0
 21 29  1  0  0  0  0
 22 34  1  6  0  0  0
 22 21  1  0  0  0  0
 24 28  1  0  0  0  0
 25 24  2  0  0  0  0
 27 22  1  0  0  0  0
 28  9  1  0  0  0  0
 28 20  1  0  0  0  0
 29 23  1  0  0  0  0
 29 26  1  1  0  0  0
 30 34  2  0  0  0  0
 31 33  1  0  0  0  0
 33 32  1  0  0  0  0
 33 30  2  0  0  0  0
 35 36  1  0  0  0  0
 37 38  1  0  0  0  0
 37 36  1  0  0  0  0
 40 41  1  0  0  0  0
 40 47  1  0  0  0  0
 41 44  1  6  0  0  0
 41 43  1  0  0  0  0
 42 39  1  0  0  0  0
 43 39  1  1  0  0  0
 43 46  1  0  0  0  0
 44 45  1  0  0  0  0
 45 42  1  0  0  0  0
 46 38  1  1  0  0  0
 47 48  1  6  0  0  0
 47 46  1  0  0  0  0
 49 48  1  0  0  0  0
 50 49  1  0  0  0  0
 51 52  1  0  0  0  0
 52 53  1  0  0  0  0
 53 54  1  0  0  0  0
 54 55  1  0  0  0  0
 55 57  2  0  0  0  0
 55 56  1  0  0  0  0
M  END
>  <MODEL>
2

>  <REMARK>
 VINA RESULT:      -6.5      4.255      9.925
  Name = 
  13 active torsions:
  status: ('A' for Active; 'I' for Inactive)
    1  A    between atoms: N_2  and  C_27
    2  A    between atoms: N_5  and  C_22
    3  A    between atoms: N_5  and  N_48
    4  A    between atoms: C_9  and  C_26
    5  A    between atoms: C_14  and  C_27
    6  A    between atoms: C_14  and  C_50
    7  A    between atoms: C_22  and  C_54
    8  A    between atoms: C_23  and  C_46
    9  A    between atoms: C_26  and  C_52
   10  A    between atoms: C_30  and  N_53
   11  A    between atoms: C_43  and  C_50
   12  A    between atoms: C_44  and  C_47
   13  A    between atoms: C_44  and  N_48
                            x       y       z     vdW  Elec       q    Type
                         _______ _______ _______ _____ _____    ______ ____

>  <TORSDO>
F 13

$$$$
=
 OpenBabel10232409133D

 57 63  0  0  1  0  0  0  0  0999 V2000
  187.8510  176.8400  137.7450 C   0  0  0  0  0  0  0  0  0  0  0  0
  185.5520  172.0880  135.3420 N   0  0  0  0  0  2  0  0  0  0  0  0
  184.2530  173.7570  134.3520 C   0  0  0  0  0  2  0  0  0  0  0  0
  184.7970  176.0220  136.5070 C   0  0  0  0  0  2  0  0  0  0  0  0
  185.5810  174.3540  134.6950 C   0  0  1  0  0  3  0  0  0  0  0  0
  189.1350  175.0620  136.8160 C   0  0  0  0  0  0  0  0  0  0  0  0
  185.5020  175.8140  135.1640 C   0  0  0  0  0  2  0  0  0  0  0  0
  189.8270  172.6830  135.0180 C   0  0  0  0  0  3  0  0  0  0  0  0
  185.2870  177.3130  137.1740 C   0  0  2  0  0  3  0  0  0  0  0  0
  188.0850  174.2950  136.8530 N   0  0  0  0  0  0  0  0  0  0  0  0
  187.5770  173.4100  135.8500 C   0  0  0  0  0  0  0  0  0  0  0  0
  186.7040  177.1500  137.5440 C   0  0  0  0  0  0  0  0  0  0  0  0
  184.3520  172.3230  134.6330 N   0  0  0  0  0  2  0  0  0  0  0  0
  189.1710  176.1910  137.8220 C   0  0  1  0  0  3  0  0  0  0  0  0
  190.0320  175.0710  135.6150 C   0  0  0  0  0  2  0  0  0  0  0  0
  190.6010  173.7180  135.3510 C   0  0  0  0  0  0  0  0  0  0  0  0
  186.0830  173.3880  135.7250 C   0  0  2  0  0  3  0  0  0  0  0  0
  188.3540  172.6830  135.0360 C   0  0  0  0  0  3  0  0  0  0  0  0
  182.7350  176.8370  140.0780 C   0  0  2  0  0  3  0  0  0  0  0  0
  184.6370  178.8980  139.0650 C   0  0  0  0  0  2  0  0  0  0  0  0
  181.6190  178.8410  139.0190 N   0  0  0  0  0  2  0  0  0  0  0  0
  181.7570  177.9430  140.1690 C   0  0  1  0  0  0  0  0  0  0  0  0
  183.7310  179.9910  138.5100 C   0  0  0  0  0  2  0  0  0  0  0  0
  183.4430  176.6980  138.7520 C   0  0  0  0  0  0  0  0  0  0  0  0
  183.2260  175.6670  138.0530 O   0  0  0  0  0  0  0  0  0  0  0  0
  181.6240  181.2570  138.7840 C   0  0  0  0  0  1  0  0  0  0  0  0
  180.9610  176.3130  139.8870 S   0  0  0  0  0  0  0  0  0  0  0  0
  184.4320  177.6530  138.3200 N   0  0  0  0  0  0  0  0  0  0  0  0
  182.4070  180.0490  139.2550 C   0  0  1  0  0  3  0  0  0  0  0  0
  182.4350  178.6680  142.4030 C   0  0  0  0  0  0  0  0  0  0  0  0
  184.7120  178.9420  142.8290 O   0  0  0  0  0  1  0  0  0  0  0  0
  183.0870  178.9320  144.7150 C   0  0  0  0  0  1  0  0  0  0  0  0
  183.3980  178.8430  143.2650 C   0  0  0  0  0  0  0  0  0  0  0  0
  181.4760  178.4950  141.5360 C   0  0  0  0  0  3  0  0  0  0  0  0
  192.0860  173.5700  135.2950 C   0  0  0  0  0  2  0  0  0  0  0  0
  192.6480  173.5450  136.6380 N   0  0  0  0  0  2  0  0  0  0  0  0
  193.9250  172.9700  136.5360 N   0  0  0  0  0  2  0  0  0  0  0  0
  194.5830  173.1650  137.8210 C   0  0  0  0  0  2  0  0  0  0  0  0
  194.8680  170.0340  138.1600 C   0  0  0  0  0  2  0  0  0  0  0  0
  198.2910  171.6820  136.7640 S   0  0  0  0  0  0  0  0  0  0  0  0
  197.2000  170.4180  137.4640 C   0  0  1  0  0  3  0  0  0  0  0  0
  194.9000  168.6450  137.5140 C   0  0  0  0  0  2  0  0  0  0  0  0
  195.7940  170.9530  137.3720 C   0  0  2  0  0  3  0  0  0  0  0  0
  197.2770  169.0810  136.7440 C   0  0  0  0  0  2  0  0  0  0  0  0
  196.3340  168.0950  137.4450 C   0  0  0  0  0  2  0  0  0  0  0  0
  195.8890  172.3640  137.9060 C   0  0  1  0  0  3  0  0  0  0  0  0
  197.1280  173.0150  137.2610 C   0  0  2  0  0  3  0  0  0  0  0  0
  196.7990  173.8720  136.0390 C   0  0  0  0  0  2  0  0  0  0  0  0
  197.3900  175.2660  136.1680 C   0  0  0  0  0  2  0  0  0  0  0  0
  197.8980  175.4560  137.4540 O   0  0  0  0  0  1  0  0  0  0  0  0
  190.2810  177.2030  137.5590 C   0  0  0  0  0  2  0  0  0  0  0  0
  191.2220  177.2800  138.7500 C   0  0  0  0  0  2  0  0  0  0  0  0
  190.6600  176.4940  139.9190 C   0  0  0  0  0  2  0  0  0  0  0  0
  190.6170  177.3310  141.1090 N   0  0  0  0  0  2  0  0  0  0  0  0
  190.5230  176.7710  142.4210 C   0  0  0  0  0  0  0  0  0  0  0  0
  190.4950  177.6130  143.5240 O   0  0  0  0  0  1  0  0  0  0  0  0
  190.4680  175.5210  142.5880 O   0  0  0  0  0  0  0  0  0  0  0  0
  1 14  1  0  0  0  0
  3 13  1  0  0  0  0
  5  3  1  1  0  0  0
  5  7  1  0  0  0  0
  5 17  1  0  0  0  0
  6 10  2  0  0  0  0
  6 14  1  0  0  0  0
  7  4  1  0  0  0  0
  8 18  1  0  0  0  0
  8 16  2  0  0  0  0
  9  4  1  1  0  0  0
  9 12  1  0  0  0  0
  9 28  1  0  0  0  0
 11 10  1  0  0  0  0
 12  1  3  0  0  0  0
 13  2  1  0  0  0  0
 14 51  1  6  0  0  0
 15  6  1  0  0  0  0
 16 15  1  0  0  0  0
 17  2  1  6  0  0  0
 17 11  1  0  0  0  0
 18 11  2  0  0  0  0
 19 24  1  6  0  0  0
 19 22  1  0  0  0  0
 21 29  1  0  0  0  0
 21 22  1  0  0  0  0
 22 34  1  1  0  0  0
 23 20  1  0  0  0  0
 23 29  1  0  0  0  0
 25 24  2  0  0  0  0
 27 19  1  0  0  0  0
 27 22  1  0  0  0  0
 28 24  1  0  0  0  0
 28 20  1  0  0  0  0
 29 26  1  6  0  0  0
 30 33  2  0  0  0  0
 31 33  1  0  0  0  0
 33 32  1  0  0  0  0
 34 30  2  0  0  0  0
 35 16  1  0  0  0  0
 35 36  1  0  0  0  0
 37 36  1  0  0  0  0
 37 38  1  0  0  0  0
 40 47  1  0  0  0  0
 40 41  1  0  0  0  0
 41 44  1  6  0  0  0
 42 39  1  0  0  0  0
 43 41  1  0  0  0  0
 43 46  1  0  0  0  0
 43 39  1  1  0  0  0
 44 45  1  0  0  0  0
 45 42  1  0  0  0  0
 46 38  1  6  0  0  0
 47 48  1  6  0  0  0
 47 46  1  0  0  0  0
 48 49  1  0  0  0  0
 49 50  1  0  0  0  0
 51 52  1  0  0  0  0
 52 53  1  0  0  0  0
 53 54  1  0  0  0  0
 54 55  1  0  0  0  0
 55 57  2  0  0  0  0
 55 56  1  0  0  0  0
M  END
>  <MODEL>
3

>  <REMARK>
 VINA RESULT:      -5.7      4.534      8.010
  Name = 
  13 active torsions:
  status: ('A' for Active; 'I' for Inactive)
    1  A    between atoms: N_2  and  C_27
    2  A    between atoms: N_5  and  C_22
    3  A    between atoms: N_5  and  N_48
    4  A    between atoms: C_9  and  C_26
    5  A    between atoms: C_14  and  C_27
    6  A    between atoms: C_14  and  C_50
    7  A    between atoms: C_22  and  C_54
    8  A    between atoms: C_23  and  C_46
    9  A    between atoms: C_26  and  C_52
   10  A    between atoms: C_30  and  N_53
   11  A    between atoms: C_43  and  C_50
   12  A    between atoms: C_44  and  C_47
   13  A    between atoms: C_44  and  N_48
                            x       y       z     vdW  Elec       q    Type
                         _______ _______ _______ _____ _____    ______ ____

>  <TORSDO>
F 13

$$$$
=
 OpenBabel10232409133D

 57 63  0  0  1  0  0  0  0  0999 V2000
  186.6040  175.8920  137.0690 C   0  0  0  0  0  0  0  0  0  0  0  0
  183.8900  170.7950  136.5270 N   0  0  0  0  0  2  0  0  0  0  0  0
  182.3530  172.2250  135.5040 C   0  0  0  0  0  2  0  0  0  0  0  0
  183.3580  174.9210  136.8440 C   0  0  0  0  0  2  0  0  0  0  0  0
  183.7120  172.8350  135.3600 C   0  0  1  0  0  3  0  0  0  0  0  0
  187.6600  173.8930  136.3180 C   0  0  0  0  0  0  0  0  0  0  0  0
  183.7190  174.3670  135.4640 C   0  0  0  0  0  2  0  0  0  0  0  0
  187.9420  171.1240  135.0420 C   0  0  0  0  0  3  0  0  0  0  0  0
  183.9690  176.3140  137.0370 C   0  0  2  0  0  3  0  0  0  0  0  0
  186.6680  173.1990  136.7940 N   0  0  0  0  0  0  0  0  0  0  0  0
  185.9490  172.1200  136.1910 C   0  0  0  0  0  0  0  0  0  0  0  0
  185.4370  176.1890  137.0820 C   0  0  0  0  0  0  0  0  0  0  0  0
  182.5480  170.8990  136.0940 N   0  0  0  0  0  2  0  0  0  0  0  0
  187.9170  175.2300  136.9790 C   0  0  1  0  0  3  0  0  0  0  0  0
  188.2360  173.5770  134.9710 C   0  0  0  0  0  2  0  0  0  0  0  0
  188.7520  172.1780  134.9150 C   0  0  0  0  0  0  0  0  0  0  0  0
  184.4700  172.1270  136.4410 C   0  0  2  0  0  3  0  0  0  0  0  0
  186.5190  171.1870  135.4150 C   0  0  0  0  0  3  0  0  0  0  0  0
  181.8390  176.7600  140.2680 C   0  0  2  0  0  3  0  0  0  0  0  0
  184.0470  178.1430  138.8160 C   0  0  0  0  0  2  0  0  0  0  0  0
  181.1480  178.9180  139.1490 N   0  0  0  0  0  2  0  0  0  0  0  0
  181.2130  178.0970  140.3620 C   0  0  1  0  0  0  0  0  0  0  0  0
  183.3900  179.4020  138.2650 C   0  0  0  0  0  2  0  0  0  0  0  0
  182.2820  176.3410  138.8880 C   0  0  0  0  0  0  0  0  0  0  0  0
  181.7000  175.3650  138.3330 O   0  0  0  0  0  0  0  0  0  0  0  0
  181.7570  181.2170  138.6620 C   0  0  0  0  0  1  0  0  0  0  0  0
  179.9820  176.7350  140.3550 S   0  0  0  0  0  0  0  0  0  0  0  0
  183.4130  176.9550  138.2380 N   0  0  0  0  0  0  0  0  0  0  0  0
  182.2540  179.8740  139.1570 C   0  0  1  0  0  3  0  0  0  0  0  0
  182.3740  178.7420  142.4140 C   0  0  0  0  0  0  0  0  0  0  0  0
  184.6740  178.3720  142.5420 O   0  0  0  0  0  1  0  0  0  0  0  0
  183.3930  178.9600  144.5940 C   0  0  0  0  0  1  0  0  0  0  0  0
  183.4590  178.6880  143.1360 C   0  0  0  0  0  0  0  0  0  0  0  0
  181.2930  178.7970  141.6870 C   0  0  0  0  0  3  0  0  0  0  0  0
  190.1810  171.9630  134.5400 C   0  0  0  0  0  2  0  0  0  0  0  0
  191.0630  172.6810  135.4480 N   0  0  0  0  0  2  0  0  0  0  0  0
  192.3610  172.1920  135.2310 N   0  0  0  0  0  2  0  0  0  0  0  0
  193.2310  172.8570  136.1910 C   0  0  0  0  0  2  0  0  0  0  0  0
  194.3510  175.5610  134.9930 C   0  0  0  0  0  2  0  0  0  0  0  0
  197.3520  173.0210  135.9530 S   0  0  0  0  0  0  0  0  0  0  0  0
  196.5460  174.4650  135.2160 C   0  0  1  0  0  3  0  0  0  0  0  0
  195.0050  176.9260  135.2310 C   0  0  0  0  0  2  0  0  0  0  0  0
  195.1420  174.5080  135.7610 C   0  0  2  0  0  3  0  0  0  0  0  0
  197.2470  175.7780  135.5260 C   0  0  0  0  0  2  0  0  0  0  0  0
  196.4880  176.9120  134.8270 C   0  0  0  0  0  2  0  0  0  0  0  0
  194.6300  173.0940  135.6050 C   0  0  1  0  0  3  0  0  0  0  0  0
  195.7420  172.1480  136.0990 C   0  0  2  0  0  3  0  0  0  0  0  0
  195.5530  171.6860  137.5430 C   0  0  0  0  0  2  0  0  0  0  0  0
  195.1550  170.2220  137.6060 C   0  0  0  0  0  2  0  0  0  0  0  0
  194.9640  169.8310  138.9320 O   0  0  0  0  0  1  0  0  0  0  0  0
  188.9070  176.1030  136.2170 C   0  0  0  0  0  2  0  0  0  0  0  0
  189.1400  177.4100  136.9560 C   0  0  0  0  0  2  0  0  0  0  0  0
  189.6890  177.1420  138.3450 C   0  0  0  0  0  2  0  0  0  0  0  0
  191.1380  177.2660  138.3400 N   0  0  0  0  0  2  0  0  0  0  0  0
  191.9930  176.1200  138.3100 C   0  0  0  0  0  0  0  0  0  0  0  0
  193.3700  176.2910  138.2970 O   0  0  0  0  0  1  0  0  0  0  0  0
  191.5090  174.9530  138.2900 O   0  0  0  0  0  0  0  0  0  0  0  0
  1 12  3  0  0  0  0
  3 13  1  0  0  0  0
  5  7  1  1  0  0  0
  5  3  1  0  0  0  0
  5 17  1  0  0  0  0
  6 10  2  0  0  0  0
  6 14  1  0  0  0  0
  7  4  1  0  0  0  0
  8 18  1  0  0  0  0
  9  4  1  1  0  0  0
  9 12  1  0  0  0  0
  9 28  1  0  0  0  0
 11 10  1  0  0  0  0
 13  2  1  0  0  0  0
 14 51  1  6  0  0  0
 14  1  1  0  0  0  0
 15  6  1  0  0  0  0
 16 15  1  0  0  0  0
 16  8  2  0  0  0  0
 17 11  1  6  0  0  0
 17  2  1  0  0  0  0
 18 11  2  0  0  0  0
 19 24  1  6  0  0  0
 19 27  1  0  0  0  0
 19 22  1  0  0  0  0
 21 29  1  0  0  0  0
 21 22  1  0  0  0  0
 22 34  1  1  0  0  0
 23 20  1  0  0  0  0
 23 29  1  0  0  0  0
 25 24  2  0  0  0  0
 27 22  1  0  0  0  0
 28 20  1  0  0  0  0
 28 24  1  0  0  0  0
 29 26  1  6  0  0  0
 30 33  2  0  0  0  0
 31 33  1  0  0  0  0
 33 32  1  0  0  0  0
 34 30  2  0  0  0  0
 35 16  1  0  0  0  0
 35 36  1  0  0  0  0
 37 36  1  0  0  0  0
 37 38  1  0  0  0  0
 39 42  1  0  0  0  0
 40 47  1  0  0  0  0
 41 44  1  1  0  0  0
 41 43  1  0  0  0  0
 41 40  1  0  0  0  0
 43 39  1  6  0  0  0
 45 42  1  0  0  0  0
 45 44  1  0  0  0  0
 46 43  1  0  0  0  0
 46 47  1  0  0  0  0
 46 38  1  1  0  0  0
 47 48  1  1  0  0  0
 48 49  1  0  0  0  0
 49 50  1  0  0  0  0
 51 52  1  0  0  0  0
 52 53  1  0  0  0  0
 54 53  1  0  0  0  0
 55 54  1  0  0  0  0
 56 55  1  0  0  0  0
 57 55  2  0  0  0  0
M  END
>  <MODEL>
4

>  <REMARK>
 VINA RESULT:      -5.7      4.458      8.441
  Name = 
  13 active torsions:
  status: ('A' for Active; 'I' for Inactive)
    1  A    between atoms: N_2  and  C_27
    2  A    between atoms: N_5  and  C_22
    3  A    between atoms: N_5  and  N_48
    4  A    between atoms: C_9  and  C_26
    5  A    between atoms: C_14  and  C_27
    6  A    between atoms: C_14  and  C_50
    7  A    between atoms: C_22  and  C_54
    8  A    between atoms: C_23  and  C_46
    9  A    between atoms: C_26  and  C_52
   10  A    between atoms: C_30  and  N_53
   11  A    between atoms: C_43  and  C_50
   12  A    between atoms: C_44  and  C_47
   13  A    between atoms: C_44  and  N_48
                            x       y       z     vdW  Elec       q    Type
                         _______ _______ _______ _____ _____    ______ ____

>  <TORSDO>
F 13

$$$$
=
 OpenBabel10232409133D

 57 63  0  0  1  0  0  0  0  0999 V2000
  187.6180  176.7180  137.6870 C   0  0  0  0  0  0  0  0  0  0  0  0
  185.2840  171.7930  135.7010 N   0  0  0  0  0  2  0  0  0  0  0  0
  183.9370  173.3790  134.6420 C   0  0  0  0  0  2  0  0  0  0  0  0
  184.5320  175.7940  136.6130 C   0  0  0  0  0  2  0  0  0  0  0  0
  185.2710  174.0080  134.8970 C   0  0  1  0  0  3  0  0  0  0  0  0
  188.8870  174.8880  136.8410 C   0  0  0  0  0  0  0  0  0  0  0  0
  185.1940  175.4970  135.2660 C   0  0  0  0  0  2  0  0  0  0  0  0
  189.5400  172.3930  135.1900 C   0  0  0  0  0  3  0  0  0  0  0  0
  185.0320  177.1320  137.1710 C   0  0  2  0  0  3  0  0  0  0  0  0
  187.8460  174.1180  136.9670 N   0  0  0  0  0  0  0  0  0  0  0  0
  187.3130  173.1610  136.0460 C   0  0  0  0  0  0  0  0  0  0  0  0
  186.4630  177.0050  137.5040 C   0  0  0  0  0  0  0  0  0  0  0  0
  184.0590  171.9700  135.0180 N   0  0  0  0  0  2  0  0  0  0  0  0
  188.9460  176.0850  137.7640 C   0  0  1  0  0  3  0  0  0  0  0  0
  189.7430  174.8190  135.6120 C   0  0  0  0  0  2  0  0  0  0  0  0
  190.3150  173.4540  135.4240 C   0  0  0  0  0  0  0  0  0  0  0  0
  185.8150  173.1200  135.9740 C   0  0  2  0  0  3  0  0  0  0  0  0
  188.0690  172.3840  135.2590 C   0  0  0  0  0  3  0  0  0  0  0  0
  182.4900  176.8680  140.1110 C   0  0  2  0  0  3  0  0  0  0  0  0
  184.5020  178.7900  139.0380 C   0  0  0  0  0  2  0  0  0  0  0  0
  181.4860  178.9160  139.0240 N   0  0  0  0  0  2  0  0  0  0  0  0
  181.5820  178.0330  140.1910 C   0  0  1  0  0  0  0  0  0  0  0  0
  183.6580  179.9250  138.4710 C   0  0  0  0  0  2  0  0  0  0  0  0
  183.1730  176.6610  138.7810 C   0  0  0  0  0  0  0  0  0  0  0  0
  182.8850  175.6320  138.1050 O   0  0  0  0  0  0  0  0  0  0  0  0
  181.6350  181.3230  138.7410 C   0  0  0  0  0  1  0  0  0  0  0  0
  180.6850  176.4500  139.9500 S   0  0  0  0  0  0  0  0  0  0  0  0
  184.2130  177.5460  138.3200 N   0  0  0  0  0  0  0  0  0  0  0  0
  182.3490  180.0780  139.2280 C   0  0  1  0  0  3  0  0  0  0  0  0
  182.3340  178.7810  142.3940 C   0  0  0  0  0  0  0  0  0  0  0  0
  184.6290  178.9680  142.7710 O   0  0  0  0  0  1  0  0  0  0  0  0
  183.0420  179.0700  144.6860 C   0  0  0  0  0  1  0  0  0  0  0  0
  183.3200  178.9350  143.2330 C   0  0  0  0  0  0  0  0  0  0  0  0
  181.3520  178.6290  141.5490 C   0  0  0  0  0  3  0  0  0  0  0  0
  191.7980  173.3130  135.3290 C   0  0  0  0  0  2  0  0  0  0  0  0
  192.4440  173.8880  136.5000 N   0  0  0  0  0  2  0  0  0  0  0  0
  193.7270  173.3230  136.5790 N   0  0  0  0  0  2  0  0  0  0  0  0
  193.9810  172.6670  135.3030 C   0  0  0  0  0  2  0  0  0  0  0  0
  196.6570  174.3480  135.4200 C   0  0  0  0  0  2  0  0  0  0  0  0
  197.3310  170.4470  136.2590 S   0  0  0  0  0  0  0  0  0  0  0  0
  197.7190  172.1690  135.8530 C   0  0  1  0  0  3  0  0  0  0  0  0
  197.7300  175.0430  136.2650 C   0  0  0  0  0  2  0  0  0  0  0  0
  196.4360  172.9480  135.9790 C   0  0  2  0  0  3  0  0  0  0  0  0
  198.7740  172.7850  136.7590 C   0  0  0  0  0  2  0  0  0  0  0  0
  199.0310  174.2250  136.2970 C   0  0  0  0  0  2  0  0  0  0  0  0
  195.4140  172.1220  135.2310 C   0  0  1  0  0  3  0  0  0  0  0  0
  195.6050  170.6560  135.6650 C   0  0  2  0  0  3  0  0  0  0  0  0
  194.6410  170.2150  136.7650 C   0  0  0  0  0  2  0  0  0  0  0  0
  195.3570  170.0610  138.0960 C   0  0  0  0  0  2  0  0  0  0  0  0
  194.7690  169.0390  138.8440 O   0  0  0  0  0  1  0  0  0  0  0  0
  190.0380  177.0840  137.3930 C   0  0  0  0  0  2  0  0  0  0  0  0
  191.1720  177.0280  138.4020 C   0  0  0  0  0  2  0  0  0  0  0  0
  190.6630  176.5350  139.7440 C   0  0  0  0  0  2  0  0  0  0  0  0
  191.2740  177.3010  140.8200 N   0  0  0  0  0  2  0  0  0  0  0  0
  191.0890  176.9500  142.1930 C   0  0  0  0  0  0  0  0  0  0  0  0
  191.7020  177.7060  143.1830 O   0  0  0  0  0  1  0  0  0  0  0  0
  190.3780  175.9580  142.5170 O   0  0  0  0  0  0  0  0  0  0  0  0
  1 14  1  0  0  0  0
  3 13  1  0  0  0  0
  5  3  1  1  0  0  0
  5  7  1  0  0  0  0
  5 17  1  0  0  0  0
  6 10  2  0  0  0  0
  6 14  1  0  0  0  0
  7  4  1  0  0  0  0
  8 18  1  0  0  0  0
  8 16  2  0  0  0  0
  9  4  1  1  0  0  0
  9 12  1  0  0  0  0
  9 28  1  0  0  0  0
 11 10  1  0  0  0  0
 12  1  3  0  0  0  0
 13  2  1  0  0  0  0
 14 51  1  6  0  0  0
 15  6  1  0  0  0  0
 16 15  1  0  0  0  0
 17  2  1  6  0  0  0
 17 11  1  0  0  0  0
 18 11  2  0  0  0  0
 19 24  1  6  0  0  0
 19 22  1  0  0  0  0
 21 29  1  0  0  0  0
 21 22  1  0  0  0  0
 22 34  1  1  0  0  0
 23 20  1  0  0  0  0
 23 29  1  0  0  0  0
 25 24  2  0  0  0  0
 27 19  1  0  0  0  0
 27 22  1  0  0  0  0
 28 24  1  0  0  0  0
 28 20  1  0  0  0  0
 29 26  1  6  0  0  0
 30 33  2  0  0  0  0
 31 33  1  0  0  0  0
 33 32  1  0  0  0  0
 34 30  2  0  0  0  0
 35 16  1  0  0  0  0
 35 36  1  0  0  0  0
 36 37  1  0  0  0  0
 38 37  1  0  0  0  0
 39 42  1  0  0  0  0
 41 43  1  0  0  0  0
 41 40  1  0  0  0  0
 41 44  1  1  0  0  0
 42 45  1  0  0  0  0
 43 39  1  6  0  0  0
 45 44  1  0  0  0  0
 46 38  1  1  0  0  0
 46 47  1  0  0  0  0
 46 43  1  0  0  0  0
 47 40  1  0  0  0  0
 47 48  1  1  0  0  0
 48 49  1  0  0  0  0
 49 50  1  0  0  0  0
 51 52  1  0  0  0  0
 52 53  1  0  0  0  0
 53 54  1  0  0  0  0
 54 55  1  0  0  0  0
 55 57  2  0  0  0  0
 55 56  1  0  0  0  0
M  END
>  <MODEL>
5

>  <REMARK>
 VINA RESULT:      -5.4      4.529      8.238
  Name = 
  13 active torsions:
  status: ('A' for Active; 'I' for Inactive)
    1  A    between atoms: N_2  and  C_27
    2  A    between atoms: N_5  and  C_22
    3  A    between atoms: N_5  and  N_48
    4  A    between atoms: C_9  and  C_26
    5  A    between atoms: C_14  and  C_27
    6  A    between atoms: C_14  and  C_50
    7  A    between atoms: C_22  and  C_54
    8  A    between atoms: C_23  and  C_46
    9  A    between atoms: C_26  and  C_52
   10  A    between atoms: C_30  and  N_53
   11  A    between atoms: C_43  and  C_50
   12  A    between atoms: C_44  and  C_47
   13  A    between atoms: C_44  and  N_48
                            x       y       z     vdW  Elec       q    Type
                         _______ _______ _______ _____ _____    ______ ____

>  <TORSDO>
F 13

$$$$
=
 OpenBabel10232409133D

 57 63  0  0  1  0  0  0  0  0999 V2000
  189.6120  177.5650  140.4070 C   0  0  0  0  0  0  0  0  0  0  0  0
  189.3470  174.7520  135.3410 N   0  0  0  0  0  2  0  0  0  0  0  0
  188.3410  176.7810  134.7740 C   0  0  0  0  0  2  0  0  0  0  0  0
  187.5470  177.6730  137.7140 C   0  0  0  0  0  2  0  0  0  0  0  0
  189.2830  177.0390  135.9070 C   0  0  1  0  0  3  0  0  0  0  0  0
  191.4380  176.3710  139.4480 C   0  0  0  0  0  0  0  0  0  0  0  0
  188.7780  178.0900  136.9060 C   0  0  0  0  0  2  0  0  0  0  0  0
  193.2000  175.1170  137.2810 C   0  0  0  0  0  3  0  0  0  0  0  0
  187.4930  178.4400  139.0410 C   0  0  2  0  0  3  0  0  0  0  0  0
  190.6100  175.7600  138.6520 N   0  0  0  0  0  0  0  0  0  0  0  0
  190.7240  175.5110  137.2480 C   0  0  0  0  0  0  0  0  0  0  0  0
  188.6260  178.0150  139.8830 C   0  0  0  0  0  0  0  0  0  0  0  0
  188.5410  175.3880  134.3700 N   0  0  0  0  0  2  0  0  0  0  0  0
  190.8610  176.8660  140.7560 C   0  0  1  0  0  3  0  0  0  0  0  0
  192.7440  176.8960  138.9350 C   0  0  0  0  0  2  0  0  0  0  0  0
  193.5810  175.8020  138.3610 C   0  0  0  0  0  0  0  0  0  0  0  0
  189.4490  175.6610  136.4730 C   0  0  2  0  0  3  0  0  0  0  0  0
  191.8790  175.2160  136.6360 C   0  0  0  0  0  3  0  0  0  0  0  0
  183.6250  178.2520  139.4590 C   0  0  2  0  0  3  0  0  0  0  0  0
  186.0920  177.5430  140.9770 C   0  0  0  0  0  2  0  0  0  0  0  0
  184.0740  179.7380  141.4530 N   0  0  0  0  0  2  0  0  0  0  0  0
  183.1540  178.8590  140.7230 C   0  0  1  0  0  0  0  0  0  0  0  0
  186.1200  178.5500  142.1200 C   0  0  0  0  0  2  0  0  0  0  0  0
  185.0000  178.6740  139.0030 C   0  0  0  0  0  0  0  0  0  0  0  0
  185.1070  179.3450  137.9360 O   0  0  0  0  0  0  0  0  0  0  0  0
  184.7960  179.8340  143.7690 C   0  0  0  0  0  1  0  0  0  0  0  0
  182.4400  179.6680  139.2390 S   0  0  0  0  0  0  0  0  0  0  0  0
  186.1900  178.2430  139.6930 N   0  0  0  0  0  0  0  0  0  0  0  0
  184.7180  178.9760  142.5220 C   0  0  1  0  0  3  0  0  0  0  0  0
  181.3820  178.6840  142.3980 C   0  0  0  0  0  0  0  0  0  0  0  0
  180.4390  180.6550  143.2150 O   0  0  0  0  0  1  0  0  0  0  0  0
  179.9820  178.4910  144.3580 C   0  0  0  0  0  1  0  0  0  0  0  0
  180.6300  179.2810  143.2800 C   0  0  0  0  0  0  0  0  0  0  0  0
  182.1330  178.0920  141.5120 C   0  0  0  0  0  3  0  0  0  0  0  0
  194.9520  175.5930  138.9150 C   0  0  0  0  0  2  0  0  0  0  0  0
  195.6490  174.5500  138.1760 N   0  0  0  0  0  2  0  0  0  0  0  0
  196.0640  175.1170  136.9610 N   0  0  0  0  0  2  0  0  0  0  0  0
  196.3610  174.0140  136.0570 C   0  0  0  0  0  2  0  0  0  0  0  0
  194.3010  171.6460  136.4460 C   0  0  0  0  0  2  0  0  0  0  0  0
  198.0930  170.4320  137.1710 S   0  0  0  0  0  0  0  0  0  0  0  0
  196.2840  170.3610  137.1410 C   0  0  1  0  0  3  0  0  0  0  0  0
  193.6580  170.3670  135.9000 C   0  0  0  0  0  2  0  0  0  0  0  0
  195.8130  171.5230  136.3060 C   0  0  2  0  0  3  0  0  0  0  0  0
  195.7350  169.0680  136.5580 C   0  0  0  0  0  2  0  0  0  0  0  0
  194.2030  169.1200  136.6150 C   0  0  0  0  0  2  0  0  0  0  0  0
  196.5950  172.7070  136.8290 C   0  0  1  0  0  3  0  0  0  0  0  0
  198.0620  172.2590  136.9740 C   0  0  2  0  0  3  0  0  0  0  0  0
  198.9390  172.6480  135.7850 C   0  0  0  0  0  2  0  0  0  0  0  0
  199.8730  173.7920  136.1390 C   0  0  0  0  0  2  0  0  0  0  0  0
  199.7160  174.1440  137.4810 O   0  0  0  0  0  1  0  0  0  0  0  0
  191.7990  177.7950  141.5200 C   0  0  0  0  0  2  0  0  0  0  0  0
  191.2670  178.0530  142.9190 C   0  0  0  0  0  2  0  0  0  0  0  0
  190.7280  176.7710  143.5250 C   0  0  0  0  0  2  0  0  0  0  0  0
  190.1060  177.0500  144.8110 N   0  0  0  0  0  2  0  0  0  0  0  0
  190.7990  176.8450  146.0440 C   0  0  0  0  0  0  0  0  0  0  0  0
  190.1650  177.1370  147.2440 O   0  0  0  0  0  1  0  0  0  0  0  0
  191.9830  176.4060  146.0550 O   0  0  0  0  0  0  0  0  0  0  0  0
  1 14  1  0  0  0  0
  5  3  1  6  0  0  0
  5 17  1  0  0  0  0
  5  7  1  0  0  0  0
  6 14  1  0  0  0  0
  7  4  1  0  0  0  0
  8 16  2  0  0  0  0
  9  4  1  6  0  0  0
  9 28  1  0  0  0  0
  9 12  1  0  0  0  0
 10  6  2  0  0  0  0
 11 10  1  0  0  0  0
 12  1  3  0  0  0  0
 13  3  1  0  0  0  0
 13  2  1  0  0  0  0
 14 51  1  6  0  0  0
 15  6  1  0  0  0  0
 16 35  1  0  0  0  0
 16 15  1  0  0  0  0
 17  2  1  6  0  0  0
 17 11  1  0  0  0  0
 18 11  2  0  0  0  0
 18  8  1  0  0  0  0
 19 24  1  6  0  0  0
 19 22  1  0  0  0  0
 20 23  1  0  0  0  0
 21 29  1  0  0  0  0
 22 21  1  0  0  0  0
 22 34  1  1  0  0  0
 23 29  1  0  0  0  0
 24 28  1  0  0  0  0
 25 24  2  0  0  0  0
 27 19  1  0  0  0  0
 27 22  1  0  0  0  0
 28 20  1  0  0  0  0
 29 26  1  1  0  0  0
 30 33  2  0  0  0  0
 31 33  1  0  0  0  0
 33 32  1  0  0  0  0
 34 30  2  0  0  0  0
 36 35  1  0  0  0  0
 37 36  1  0  0  0  0
 38 37  1  0  0  0  0
 41 44  1  6  0  0  0
 41 40  1  0  0  0  0
 42 39  1  0  0  0  0
 42 45  1  0  0  0  0
 43 39  1  1  0  0  0
 43 46  1  0  0  0  0
 43 41  1  0  0  0  0
 44 45  1  0  0  0  0
 46 38  1  6  0  0  0
 46 47  1  0  0  0  0
 47 48  1  6  0  0  0
 47 40  1  0  0  0  0
 48 49  1  0  0  0  0
 49 50  1  0  0  0  0
 51 52  1  0  0  0  0
 52 53  1  0  0  0  0
 53 54  1  0  0  0  0
 54 55  1  0  0  0  0
 55 57  2  0  0  0  0
 55 56  1  0  0  0  0
M  END
>  <MODEL>
6

>  <REMARK>
 VINA RESULT:      -5.4      4.528      8.048
  Name = 
  13 active torsions:
  status: ('A' for Active; 'I' for Inactive)
    1  A    between atoms: N_2  and  C_27
    2  A    between atoms: N_5  and  C_22
    3  A    between atoms: N_5  and  N_48
    4  A    between atoms: C_9  and  C_26
    5  A    between atoms: C_14  and  C_27
    6  A    between atoms: C_14  and  C_50
    7  A    between atoms: C_22  and  C_54
    8  A    between atoms: C_23  and  C_46
    9  A    between atoms: C_26  and  C_52
   10  A    between atoms: C_30  and  N_53
   11  A    between atoms: C_43  and  C_50
   12  A    between atoms: C_44  and  C_47
   13  A    between atoms: C_44  and  N_48
                            x       y       z     vdW  Elec       q    Type
                         _______ _______ _______ _____ _____    ______ ____

>  <TORSDO>
F 13

$$$$
=
 OpenBabel10232409133D

 57 63  0  0  1  0  0  0  0  0999 V2000
  188.9150  177.5020  138.2420 C   0  0  0  0  0  0  0  0  0  0  0  0
  190.2610  175.8060  143.6220 N   0  0  0  0  0  2  0  0  0  0  0  0
  192.1750  177.0120  143.0470 C   0  0  0  0  0  2  0  0  0  0  0  0
  191.8100  176.8690  139.8980 C   0  0  0  0  0  2  0  0  0  0  0  0
  191.0300  177.5680  142.2610 C   0  0  1  0  0  3  0  0  0  0  0  0
  187.4320  177.6620  140.1000 C   0  0  0  0  0  0  0  0  0  0  0  0
  191.4100  178.0080  140.8390 C   0  0  0  0  0  2  0  0  0  0  0  0
  186.5330  177.9200  143.0150 C   0  0  0  0  0  3  0  0  0  0  0  0
  191.5660  177.2710  138.4380 C   0  0  2  0  0  3  0  0  0  0  0  0
  188.1800  176.8270  140.7590 N   0  0  0  0  0  0  0  0  0  0  0  0
  188.6360  176.8960  142.1130 C   0  0  0  0  0  0  0  0  0  0  0  0
  190.1160  177.4130  138.2200 C   0  0  0  0  0  0  0  0  0  0  0  0
  191.6090  176.0350  143.9790 N   0  0  0  0  0  2  0  0  0  0  0  0
  187.4850  177.5570  138.5910 C   0  0  1  0  0  3  0  0  0  0  0  0
  186.8830  178.8860  140.7680 C   0  0  0  0  0  2  0  0  0  0  0  0
  186.0300  178.5300  141.9390 C   0  0  0  0  0  0  0  0  0  0  0  0
  190.0480  176.4390  142.3300 C   0  0  2  0  0  3  0  0  0  0  0  0
  187.8970  177.3760  143.1230 C   0  0  0  0  0  3  0  0  0  0  0  0
  191.8520  174.4850  135.7320 C   0  0  2  0  0  3  0  0  0  0  0  0
  193.6180  176.3780  137.2120 C   0  0  0  0  0  2  0  0  0  0  0  0
  193.3310  173.3830  137.4600 N   0  0  0  0  0  2  0  0  0  0  0  0
  192.8560  173.4540  136.0740 C   0  0  1  0  0  0  0  0  0  0  0  0
  194.4100  175.4790  138.1550 C   0  0  0  0  0  2  0  0  0  0  0  0
  191.3520  175.3180  136.8850 C   0  0  0  0  0  0  0  0  0  0  0  0
  190.1390  175.2130  137.2290 O   0  0  0  0  0  0  0  0  0  0  0  0
  195.5410  173.3010  138.4600 C   0  0  0  0  0  1  0  0  0  0  0  0
  191.1690  172.7610  135.8730 S   0  0  0  0  0  0  0  0  0  0  0  0
  192.1890  176.2990  137.5290 N   0  0  0  0  0  0  0  0  0  0  0  0
  194.6050  174.0910  137.5680 C   0  0  1  0  0  3  0  0  0  0  0  0
  194.4550  171.9010  135.0670 C   0  0  0  0  0  0  0  0  0  0  0  0
  194.6610  169.7730  135.9990 O   0  0  0  0  0  1  0  0  0  0  0  0
  196.3440  170.5770  134.3490 C   0  0  0  0  0  1  0  0  0  0  0  0
  195.1110  170.7780  135.1530 C   0  0  0  0  0  0  0  0  0  0  0  0
  193.7930  173.0220  134.9830 C   0  0  0  0  0  3  0  0  0  0  0  0
  184.6210  179.0230  141.9680 C   0  0  0  0  0  2  0  0  0  0  0  0
  183.7320  178.0690  141.3200 N   0  0  0  0  0  2  0  0  0  0  0  0
  182.6060  178.7880  140.8890 N   0  0  0  0  0  2  0  0  0  0  0  0
  182.9710  179.4370  139.6360 C   0  0  0  0  0  2  0  0  0  0  0  0
  181.2100  181.7890  138.4670 C   0  0  0  0  0  2  0  0  0  0  0  0
  181.0550  178.5140  136.0940 S   0  0  0  0  0  0  0  0  0  0  0  0
  180.6000  180.1450  136.7370 C   0  0  1  0  0  3  0  0  0  0  0  0
  181.0500  182.9240  137.4500 C   0  0  0  0  0  2  0  0  0  0  0  0
  181.6670  180.5390  137.7260 C   0  0  2  0  0  3  0  0  0  0  0  0
  180.4920  181.2150  135.6620 C   0  0  0  0  0  2  0  0  0  0  0  0
  180.0770  182.5330  136.3260 C   0  0  0  0  0  2  0  0  0  0  0  0
  181.8470  179.3170  138.5970 C   0  0  1  0  0  3  0  0  0  0  0  0
  181.9150  178.0940  137.6620 C   0  0  2  0  0  3  0  0  0  0  0  0
  183.3410  177.6480  137.3450 C   0  0  0  0  0  2  0  0  0  0  0  0
  183.5890  176.2210  137.8060 C   0  0  0  0  0  2  0  0  0  0  0  0
  183.6800  175.3680  136.7050 O   0  0  0  0  0  1  0  0  0  0  0  0
  186.8030  178.7200  137.8780 C   0  0  0  0  0  2  0  0  0  0  0  0
  187.2890  178.8200  136.4420 C   0  0  0  0  0  2  0  0  0  0  0  0
  186.5030  177.8780  135.5500 C   0  0  0  0  0  2  0  0  0  0  0  0
  187.4140  177.0320  134.7940 N   0  0  0  0  0  2  0  0  0  0  0  0
  187.5920  175.6480  135.1050 C   0  0  0  0  0  0  0  0  0  0  0  0
  188.4660  174.8810  134.3470 O   0  0  0  0  0  0  0  0  0  0  0  0
  186.9600  175.1140  136.0600 O   0  0  0  0  0  1  0  0  0  0  0  0
  1 14  1  0  0  0  0
  2 13  1  0  0  0  0
  3 13  1  0  0  0  0
  4  7  1  0  0  0  0
  5  7  1  6  0  0  0
  5 17  1  0  0  0  0
  5  3  1  0  0  0  0
  6 10  2  0  0  0  0
  6 15  1  0  0  0  0
  8 18  1  0  0  0  0
  9 28  1  6  0  0  0
  9  4  1  0  0  0  0
 10 11  1  0  0  0  0
 11 18  2  0  0  0  0
 12  1  3  0  0  0  0
 12  9  1  0  0  0  0
 14 51  1  6  0  0  0
 14  6  1  0  0  0  0
 15 16  1  0  0  0  0
 16 35  1  0  0  0  0
 16  8  2  0  0  0  0
 17 11  1  1  0  0  0
 17  2  1  0  0  0  0
 19 27  1  1  0  0  0
 19 22  1  0  0  0  0
 19 24  1  0  0  0  0
 20 28  1  0  0  0  0
 20 23  1  0  0  0  0
 21 29  1  0  0  0  0
 22 34  1  6  0  0  0
 22 21  1  0  0  0  0
 24 25  2  0  0  0  0
 24 28  1  0  0  0  0
 27 22  1  0  0  0  0
 29 23  1  0  0  0  0
 29 26  1  1  0  0  0
 30 33  2  0  0  0  0
 32 33  1  0  0  0  0
 33 31  1  0  0  0  0
 34 30  2  0  0  0  0
 36 35  1  0  0  0  0
 37 36  1  0  0  0  0
 38 37  1  0  0  0  0
 40 41  1  0  0  0  0
 40 47  1  0  0  0  0
 41 44  1  6  0  0  0
 41 43  1  0  0  0  0
 42 39  1  0  0  0  0
 43 39  1  1  0  0  0
 43 46  1  0  0  0  0
 44 45  1  0  0  0  0
 45 42  1  0  0  0  0
 46 38  1  6  0  0  0
 47 48  1  6  0  0  0
 47 46  1  0  0  0  0
 48 49  1  0  0  0  0
 50 49  1  0  0  0  0
 52 51  1  0  0  0  0
 53 52  1  0  0  0  0
 54 55  1  0  0  0  0
 54 53  1  0  0  0  0
 55 57  1  0  0  0  0
 56 55  2  0  0  0  0
M  END
>  <MODEL>
7

>  <REMARK>
 VINA RESULT:      -4.8      4.029      9.876
  Name = 
  13 active torsions:
  status: ('A' for Active; 'I' for Inactive)
    1  A    between atoms: N_2  and  C_27
    2  A    between atoms: N_5  and  C_22
    3  A    between atoms: N_5  and  N_48
    4  A    between atoms: C_9  and  C_26
    5  A    between atoms: C_14  and  C_27
    6  A    between atoms: C_14  and  C_50
    7  A    between atoms: C_22  and  C_54
    8  A    between atoms: C_23  and  C_46
    9  A    between atoms: C_26  and  C_52
   10  A    between atoms: C_30  and  N_53
   11  A    between atoms: C_43  and  C_50
   12  A    between atoms: C_44  and  C_47
   13  A    between atoms: C_44  and  N_48
                            x       y       z     vdW  Elec       q    Type
                         _______ _______ _______ _____ _____    ______ ____

>  <TORSDO>
F 13

$$$$
=
 OpenBabel10232409133D

 57 63  0  0  1  0  0  0  0  0999 V2000
  191.6170  176.6380  139.6250 C   0  0  0  0  0  0  0  0  0  0  0  0
  187.8740  176.9560  135.2060 N   0  0  0  0  0  2  0  0  0  0  0  0
  188.4310  174.6890  135.1510 C   0  0  0  0  0  2  0  0  0  0  0  0
  191.1710  174.9090  136.7360 C   0  0  0  0  0  2  0  0  0  0  0  0
  188.6060  175.1700  136.5570 C   0  0  1  0  0  3  0  0  0  0  0  0
  189.5170  177.7580  139.7350 C   0  0  0  0  0  0  0  0  0  0  0  0
  189.7950  174.5290  137.2880 C   0  0  0  0  0  2  0  0  0  0  0  0
  186.6020  178.4200  139.0760 C   0  0  0  0  0  3  0  0  0  0  0  0
  192.2410  174.7680  137.8260 C   0  0  2  0  0  3  0  0  0  0  0  0
  189.4560  177.7540  138.4350 N   0  0  0  0  0  0  0  0  0  0  0  0
  188.3540  177.4260  137.5840 C   0  0  0  0  0  0  0  0  0  0  0  0
  191.9920  175.7750  138.8730 C   0  0  0  0  0  0  0  0  0  0  0  0
  187.8310  175.7950  134.4020 N   0  0  0  0  0  2  0  0  0  0  0  0
  190.9050  177.7130  140.3370 C   0  0  1  0  0  3  0  0  0  0  0  0
  188.3100  177.4240  140.5570 C   0  0  0  0  0  2  0  0  0  0  0  0
  187.1840  178.3610  140.2750 C   0  0  0  0  0  0  0  0  0  0  0  0
  188.7160  176.6500  136.3520 C   0  0  2  0  0  3  0  0  0  0  0  0
  187.0800  177.7310  137.8650 C   0  0  0  0  0  3  0  0  0  0  0  0
  195.3310  176.3620  136.0700 C   0  0  2  0  0  3  0  0  0  0  0  0
  194.6050  173.8570  137.5170 C   0  0  0  0  0  2  0  0  0  0  0  0
  195.1560  174.3250  134.5850 N   0  0  0  0  0  2  0  0  0  0  0  0
  195.9390  175.4710  135.0580 C   0  0  1  0  0  0  0  0  0  0  0  0
  194.5900  172.7940  136.4240 C   0  0  0  0  0  2  0  0  0  0  0  0
  193.9090  176.0380  136.4570 C   0  0  0  0  0  0  0  0  0  0  0  0
  192.9970  176.8630  136.1620 O   0  0  0  0  0  0  0  0  0  0  0  0
  195.6440  171.9590  134.3480 C   0  0  0  0  0  1  0  0  0  0  0  0
  195.3590  177.0600  134.3470 S   0  0  0  0  0  0  0  0  0  0  0  0
  193.5850  174.8720  137.2390 N   0  0  0  0  0  0  0  0  0  0  0  0
  195.5710  173.1260  135.3110 C   0  0  1  0  0  3  0  0  0  0  0  0
  198.0610  174.7570  136.0430 C   0  0  0  0  0  0  0  0  0  0  0  0
  197.9970  173.2660  137.8350 O   0  0  0  0  0  1  0  0  0  0  0  0
  200.1180  174.4410  137.2700 C   0  0  0  0  0  1  0  0  0  0  0  0
  198.6800  174.1600  137.0220 C   0  0  0  0  0  0  0  0  0  0  0  0
  197.4350  175.3500  135.0630 C   0  0  0  0  0  3  0  0  0  0  0  0
  186.5920  179.1230  141.4150 C   0  0  0  0  0  2  0  0  0  0  0  0
  186.0150  178.2140  142.3940 N   0  0  0  0  0  2  0  0  0  0  0  0
  184.7360  177.8680  141.9270 N   0  0  0  0  0  2  0  0  0  0  0  0
  184.0420  179.1140  141.6300 C   0  0  0  0  0  2  0  0  0  0  0  0
  183.0240  177.4010  139.1740 C   0  0  0  0  0  2  0  0  0  0  0  0
  180.0990  177.9160  141.9230 S   0  0  0  0  0  0  0  0  0  0  0  0
  180.8550  177.4690  140.3390 C   0  0  1  0  0  3  0  0  0  0  0  0
  182.6730  176.0280  138.5920 C   0  0  0  0  0  2  0  0  0  0  0  0
  182.3480  177.5350  140.5330 C   0  0  2  0  0  3  0  0  0  0  0  0
  180.4730  176.0800  139.8520 C   0  0  0  0  0  2  0  0  0  0  0  0
  181.1500  175.8350  138.4990 C   0  0  0  0  0  2  0  0  0  0  0  0
  182.5830  178.8570  141.2280 C   0  0  1  0  0  3  0  0  0  0  0  0
  181.5380  178.9730  142.3560 C   0  0  2  0  0  3  0  0  0  0  0  0
  182.0710  178.5550  143.7250 C   0  0  0  0  0  2  0  0  0  0  0  0
  183.0260  179.5950  144.2860 C   0  0  0  0  0  2  0  0  0  0  0  0
  183.6250  179.1190  145.4540 O   0  0  0  0  0  1  0  0  0  0  0  0
  190.9060  177.4530  141.8400 C   0  0  0  0  0  2  0  0  0  0  0  0
  190.2980  176.0950  142.1440 C   0  0  0  0  0  2  0  0  0  0  0  0
  189.4870  176.1530  143.4250 C   0  0  0  0  0  2  0  0  0  0  0  0
  189.7160  177.4200  144.1020 N   0  0  0  0  0  2  0  0  0  0  0  0
  189.5570  177.5580  145.5170 C   0  0  0  0  0  0  0  0  0  0  0  0
  189.7980  178.7860  146.1170 O   0  0  0  0  0  0  0  0  0  0  0  0
  189.2050  176.5750  146.2260 O   0  0  0  0  0  1  0  0  0  0  0  0
  1 14  1  0  0  0  0
  4  7  1  0  0  0  0
  5  3  1  6  0  0  0
  5  7  1  0  0  0  0
  6 14  1  0  0  0  0
  6 15  1  0  0  0  0
  8 16  2  0  0  0  0
  9  4  1  6  0  0  0
  9 12  1  0  0  0  0
 10  6  2  0  0  0  0
 11 18  2  0  0  0  0
 11 10  1  0  0  0  0
 12  1  3  0  0  0  0
 13  3  1  0  0  0  0
 13  2  1  0  0  0  0
 14 51  1  1  0  0  0
 16 15  1  0  0  0  0
 16 35  1  0  0  0  0
 17  2  1  6  0  0  0
 17  5  1  0  0  0  0
 17 11  1  0  0  0  0
 18  8  1  0  0  0  0
 19 27  1  6  0  0  0
 19 24  1  0  0  0  0
 21 22  1  0  0  0  0
 21 29  1  0  0  0  0
 22 34  1  1  0  0  0
 22 19  1  0  0  0  0
 23 20  1  0  0  0  0
 24 28  1  0  0  0  0
 25 24  2  0  0  0  0
 27 22  1  0  0  0  0
 28 20  1  0  0  0  0
 28  9  1  0  0  0  0
 29 26  1  6  0  0  0
 29 23  1  0  0  0  0
 30 33  2  0  0  0  0
 33 32  1  0  0  0  0
 33 31  1  0  0  0  0
 34 30  2  0  0  0  0
 35 36  1  0  0  0  0
 37 36  1  0  0  0  0
 38 37  1  0  0  0  0
 40 47  1  0  0  0  0
 41 44  1  1  0  0  0
 41 43  1  0  0  0  0
 41 40  1  0  0  0  0
 42 39  1  0  0  0  0
 43 39  1  6  0  0  0
 43 46  1  0  0  0  0
 45 42  1  0  0  0  0
 45 44  1  0  0  0  0
 46 38  1  1  0  0  0
 46 47  1  0  0  0  0
 47 48  1  1  0  0  0
 48 49  1  0  0  0  0
 49 50  1  0  0  0  0
 51 52  1  0  0  0  0
 52 53  1  0  0  0  0
 53 54  1  0  0  0  0
 54 55  1  0  0  0  0
 55 56  2  0  0  0  0
 55 57  1  0  0  0  0
M  END
>  <MODEL>
8

>  <REMARK>
 VINA RESULT:      -4.8      4.251      9.486
  Name = 
  13 active torsions:
  status: ('A' for Active; 'I' for Inactive)
    1  A    between atoms: N_2  and  C_27
    2  A    between atoms: N_5  and  C_22
    3  A    between atoms: N_5  and  N_48
    4  A    between atoms: C_9  and  C_26
    5  A    between atoms: C_14  and  C_27
    6  A    between atoms: C_14  and  C_50
    7  A    between atoms: C_22  and  C_54
    8  A    between atoms: C_23  and  C_46
    9  A    between atoms: C_26  and  C_52
   10  A    between atoms: C_30  and  N_53
   11  A    between atoms: C_43  and  C_50
   12  A    between atoms: C_44  and  C_47
   13  A    between atoms: C_44  and  N_48
                            x       y       z     vdW  Elec       q    Type
                         _______ _______ _______ _____ _____    ______ ____

>  <TORSDO>
F 13

$$$$
=
 OpenBabel10232409133D

 57 63  0  0  1  0  0  0  0  0999 V2000
  185.3830  177.3900  138.1240 C   0  0  0  0  0  0  0  0  0  0  0  0
  180.4050  176.9130  141.0630 N   0  0  0  0  0  2  0  0  0  0  0  0
  180.9270  179.1570  141.4390 C   0  0  0  0  0  2  0  0  0  0  0  0
  184.0330  178.9580  140.8160 C   0  0  0  0  0  2  0  0  0  0  0  0
  181.5470  178.7550  140.1380 C   0  0  1  0  0  3  0  0  0  0  0  0
  183.4260  176.3330  137.2690 C   0  0  0  0  0  0  0  0  0  0  0  0
  182.9130  179.4060  139.8740 C   0  0  0  0  0  2  0  0  0  0  0  0
  180.4510  175.7110  136.9050 C   0  0  0  0  0  3  0  0  0  0  0  0
  185.4000  179.1350  140.1430 C   0  0  2  0  0  3  0  0  0  0  0  0
  182.9460  176.2630  138.4760 N   0  0  0  0  0  0  0  0  0  0  0  0
  181.6300  176.5700  138.9440 C   0  0  0  0  0  0  0  0  0  0  0  0
  185.4980  178.1970  139.0110 C   0  0  0  0  0  0  0  0  0  0  0  0
  180.1100  178.0260  141.8820 N   0  0  0  0  0  2  0  0  0  0  0  0
  184.9350  176.3770  137.1530 C   0  0  1  0  0  3  0  0  0  0  0  0
  182.5540  176.7460  136.1230 C   0  0  0  0  0  2  0  0  0  0  0  0
  181.3920  175.8240  135.9640 C   0  0  0  0  0  0  0  0  0  0  0  0
  181.5760  177.2630  140.2730 C   0  0  2  0  0  3  0  0  0  0  0  0
  180.5140  176.3160  138.2460 C   0  0  0  0  0  3  0  0  0  0  0  0
  188.9900  178.5630  141.5430 C   0  0  2  0  0  3  0  0  0  0  0  0
  186.2850  179.3440  142.5280 C   0  0  0  0  0  2  0  0  0  0  0  0
  187.8390  176.7850  142.9220 N   0  0  0  0  0  2  0  0  0  0  0  0
  189.0160  177.6280  142.6890 C   0  0  1  0  0  0  0  0  0  0  0  0
  185.8280  178.1360  143.3360 C   0  0  0  0  0  2  0  0  0  0  0  0
  187.7620  178.4900  140.6680 C   0  0  0  0  0  0  0  0  0  0  0  0
  187.8890  178.0910  139.4750 O   0  0  0  0  0  0  0  0  0  0  0  0
  186.4860  176.3220  144.8840 C   0  0  0  0  0  1  0  0  0  0  0  0
  190.0290  177.0440  141.2740 S   0  0  0  0  0  0  0  0  0  0  0  0
  186.4790  178.9610  141.1260 N   0  0  0  0  0  0  0  0  0  0  0  0
  187.0050  177.3990  143.9530 C   0  0  1  0  0  3  0  0  0  0  0  0
  190.6880  177.1840  144.4170 C   0  0  0  0  0  0  0  0  0  0  0  0
  191.9890  175.2570  144.2230 O   0  0  0  0  0  1  0  0  0  0  0  0
  191.9850  176.5460  146.3530 C   0  0  0  0  0  1  0  0  0  0  0  0
  191.5270  176.3430  144.9550 C   0  0  0  0  0  0  0  0  0  0  0  0
  189.8490  178.0230  143.8730 C   0  0  0  0  0  3  0  0  0  0  0  0
  181.1980  175.1450  134.6490 C   0  0  0  0  0  2  0  0  0  0  0  0
  180.3840  173.9490  134.8050 N   0  0  0  0  0  2  0  0  0  0  0  0
  181.1530  172.8680  134.3460 N   0  0  0  0  0  2  0  0  0  0  0  0
  182.3110  172.7680  135.2240 C   0  0  0  0  0  2  0  0  0  0  0  0
  185.4440  173.1020  134.9550 C   0  0  0  0  0  2  0  0  0  0  0  0
  184.3740  169.1990  134.9500 S   0  0  0  0  0  0  0  0  0  0  0  0
  185.4420  170.6470  134.7500 C   0  0  1  0  0  3  0  0  0  0  0  0
  186.8280  173.0490  135.6130 C   0  0  0  0  0  2  0  0  0  0  0  0
  184.6920  171.8260  135.3130 C   0  0  2  0  0  3  0  0  0  0  0  0
  186.7820  170.5180  135.4570 C   0  0  0  0  0  2  0  0  0  0  0  0
  187.5990  171.7880  135.1900 C   0  0  0  0  0  2  0  0  0  0  0  0
  183.3090  171.7180  134.7140 C   0  0  1  0  0  3  0  0  0  0  0  0
  182.8690  170.2460  134.8410 C   0  0  2  0  0  3  0  0  0  0  0  0
  181.9830  169.9770  136.0560 C   0  0  0  0  0  2  0  0  0  0  0  0
  180.5660  169.6220  135.6390 C   0  0  0  0  0  2  0  0  0  0  0  0
  180.5680  168.4520  134.8760 O   0  0  0  0  0  1  0  0  0  0  0  0
  185.4250  176.7230  135.7520 C   0  0  0  0  0  2  0  0  0  0  0  0
  186.9180  177.0090  135.7680 C   0  0  0  0  0  2  0  0  0  0  0  0
  187.6540  175.9340  136.5460 C   0  0  0  0  0  2  0  0  0  0  0  0
  189.0370  176.3330  136.7600 N   0  0  0  0  0  2  0  0  0  0  0  0
  189.9670  175.4890  137.4430 C   0  0  0  0  0  0  0  0  0  0  0  0
  191.2790  175.9110  137.6130 O   0  0  0  0  0  0  0  0  0  0  0  0
  189.6110  174.3630  137.8910 O   0  0  0  0  0  1  0  0  0  0  0  0
  1 12  3  0  0  0  0
  2 13  1  0  0  0  0
  3 13  1  0  0  0  0
  5  7  1  1  0  0  0
  5 17  1  0  0  0  0
  5  3  1  0  0  0  0
  6 10  2  0  0  0  0
  7  4  1  0  0  0  0
  8 18  1  0  0  0  0
  9 12  1  6  0  0  0
  9  4  1  0  0  0  0
  9 28  1  0  0  0  0
 10 11  1  0  0  0  0
 14 51  1  6  0  0  0
 14  6  1  0  0  0  0
 14  1  1  0  0  0  0
 15  6  1  0  0  0  0
 16 15  1  0  0  0  0
 16  8  2  0  0  0  0
 17 11  1  6  0  0  0
 17  2  1  0  0  0  0
 18 11  2  0  0  0  0
 19 24  1  6  0  0  0
 19 22  1  0  0  0  0
 20 23  1  0  0  0  0
 21 29  1  0  0  0  0
 22 21  1  0  0  0  0
 22 34  1  1  0  0  0
 23 29  1  0  0  0  0
 24 28  1  0  0  0  0
 25 24  2  0  0  0  0
 27 19  1  0  0  0  0
 27 22  1  0  0  0  0
 28 20  1  0  0  0  0
 29 26  1  1  0  0  0
 30 33  2  0  0  0  0
 31 33  1  0  0  0  0
 33 32  1  0  0  0  0
 34 30  2  0  0  0  0
 35 36  1  0  0  0  0
 35 16  1  0  0  0  0
 37 36  1  0  0  0  0
 37 38  1  0  0  0  0
 39 42  1  0  0  0  0
 41 40  1  0  0  0  0
 41 43  1  0  0  0  0
 41 44  1  1  0  0  0
 43 39  1  6  0  0  0
 45 44  1  0  0  0  0
 45 42  1  0  0  0  0
 46 47  1  0  0  0  0
 46 38  1  1  0  0  0
 46 43  1  0  0  0  0
 47 40  1  0  0  0  0
 47 48  1  1  0  0  0
 49 48  1  0  0  0  0
 50 49  1  0  0  0  0
 51 52  1  0  0  0  0
 52 53  1  0  0  0  0
 53 54  1  0  0  0  0
 54 55  1  0  0  0  0
 55 56  2  0  0  0  0
 55 57  1  0  0  0  0
M  END
>  <MODEL>
9

>  <REMARK>
 VINA RESULT:      -4.6      3.226     11.015
  Name = 
  13 active torsions:
  status: ('A' for Active; 'I' for Inactive)
    1  A    between atoms: N_2  and  C_27
    2  A    between atoms: N_5  and  C_22
    3  A    between atoms: N_5  and  N_48
    4  A    between atoms: C_9  and  C_26
    5  A    between atoms: C_14  and  C_27
    6  A    between atoms: C_14  and  C_50
    7  A    between atoms: C_22  and  C_54
    8  A    between atoms: C_23  and  C_46
    9  A    between atoms: C_26  and  C_52
   10  A    between atoms: C_30  and  N_53
   11  A    between atoms: C_43  and  C_50
   12  A    between atoms: C_44  and  C_47
   13  A    between atoms: C_44  and  N_48
                            x       y       z     vdW  Elec       q    Type
                         _______ _______ _______ _____ _____    ______ ____

>  <TORSDO>
F 13

$$$$
