=
 OpenBabel10232409533D

 59 63  0  0  1  0  0  0  0  0999 V2000
  188.4240  177.4880  138.6630 C   0  0  0  0  0  3  0  0  0  0  0  0
  189.3240  177.7260  139.5920 C   0  0  0  0  0  0  0  0  0  0  0  0
  188.6900  178.4950  140.7150 C   0  0  1  0  0  3  0  0  0  0  0  0
  187.1910  178.0440  139.0850 N   0  0  0  0  0  0  0  0  0  0  0  0
  187.2850  178.6820  140.3320 N   0  0  0  0  0  2  0  0  0  0  0  0
  184.8260  178.4680  138.8600 C   0  0  0  0  0  3  0  0  0  0  0  0
  185.9600  177.9670  138.3520 C   0  0  0  0  0  0  0  0  0  0  0  0
  185.9400  177.3280  136.9860 C   0  0  0  0  0  2  0  0  0  0  0  0
  183.4490  177.1010  137.3440 C   0  0  0  0  0  0  0  0  0  0  0  0
  184.6990  176.4440  136.7960 C   0  0  1  0  0  3  0  0  0  0  0  0
  182.3600  176.5710  137.1890 O   0  0  0  0  0  0  0  0  0  0  0  0
  183.5400  178.4060  138.0860 C   0  0  0  0  0  2  0  0  0  0  0  0
  184.5380  176.1480  135.3820 N   0  0  0  0  0  2  0  0  0  0  0  0
  185.8340  175.7110  134.8900 C   0  0  0  0  0  2  0  0  0  0  0  0
  184.9360  173.3150  134.7560 C   0  0  0  0  0  3  0  0  0  0  0  0
  186.7240  172.1910  135.2660 N   0  0  0  0  0  0  0  0  0  0  0  0
  187.6000  171.0580  135.5180 C   0  0  0  0  0  1  0  0  0  0  0  0
  185.4490  172.0750  134.9230 N   0  0  0  0  0  0  0  0  0  0  0  0
  185.9420  174.2290  135.0170 C   0  0  0  0  0  0  0  0  0  0  0  0
  187.0610  173.4880  135.3270 C   0  0  0  0  0  0  0  0  0  0  0  0
  188.4200  174.0140  135.6640 C   0  0  0  0  0  1  0  0  0  0  0  0
  192.6660  176.4550  138.2530 C   0  0  0  0  0  3  0  0  0  0  0  0
  191.4800  177.5880  140.5390 O   0  0  0  0  0  0  0  0  0  0  0  0
  190.7580  176.4840  137.1870 C   0  0  0  0  0  3  0  0  0  0  0  0
  192.8840  175.9380  136.9900 C   0  0  0  0  0  0  0  0  0  0  0  0
  190.7620  177.3680  139.5240 C   0  0  0  0  0  0  0  0  0  0  0  0
  191.6770  175.9420  136.3060 C   0  0  0  0  0  3  0  0  0  0  0  0
  191.3660  176.7900  138.3520 N   0  0  0  0  0  0  0  0  0  0  0  0
  194.1330  175.4100  136.4880 N   0  0  0  0  0  0  0  0  0  0  0  0
  196.2690  176.0220  135.7120 O   0  0  0  0  0  1  0  0  0  0  0  0
  194.4160  174.0030  136.6540 C   0  0  0  0  0  0  0  0  0  0  0  0
  194.5310  177.3100  134.9730 O   0  0  0  0  0  0  0  0  0  0  0  0
  193.5310  173.1560  136.3590 O   0  0  0  0  0  0  0  0  0  0  0  0
  195.0290  176.2500  135.7270 C   0  0  0  0  0  0  0  0  0  0  0  0
  195.7250  173.5050  137.2090 C   0  0  1  0  0  3  0  0  0  0  0  0
  195.8800  173.8930  138.6720 C   0  0  0  0  0  1  0  0  0  0  0  0
  195.8480  172.1200  137.0520 O   0  0  0  0  0  0  0  0  0  0  0  0
  197.1820  171.8330  137.3670 C   0  0  0  0  0  2  0  0  0  0  0  0
  198.0550  172.0630  136.1430 C   0  0  0  0  0  1  0  0  0  0  0  0
  188.8500  176.3520  141.8110 O   0  0  0  0  0  1  0  0  0  0  0  0
  188.7920  177.7340  142.0380 C   0  0  2  0  0  3  0  0  0  0  0  0
  187.6060  178.0820  142.9250 C   0  0  0  0  0  2  0  0  0  0  0  0
  186.9670  176.8220  143.4850 C   0  0  0  0  0  2  0  0  0  0  0  0
  186.9900  176.8550  145.0070 C   0  0  0  0  0  2  0  0  0  0  0  0
  187.2380  178.2610  145.5550 C   0  0  1  0  0  3  0  0  0  0  0  0
  185.9730  179.9890  147.1950 O   0  0  0  0  0  0  0  0  0  0  0  0
  184.9360  177.7810  146.8720 O   0  0  0  0  0  0  0  0  0  0  0  0
  185.6960  178.8960  146.2000 S   0  0  0  0  0  0  0  0  0  0  0  0
  184.7660  179.5350  144.8890 N   0  0  0  0  0  2  0  0  0  0  0  0
  183.4480  178.9120  144.9410 C   0  0  0  0  0  2  0  0  0  0  0  0
  181.8400  179.4840  143.2560 O   0  0  0  0  0  1  0  0  0  0  0  0
  184.0050  178.8310  142.5040 C   0  0  0  0  0  1  0  0  0  0  0  0
  182.9190  178.6420  143.5440 C   0  0  1  0  0  3  0  0  0  0  0  0
  188.1870  178.2150  146.5810 O   0  0  0  0  0  0  0  0  0  0  0  0
  191.0540  176.1880  147.1310 C   0  0  0  0  0  2  0  0  0  0  0  0
  189.0300  177.1450  146.2670 C   0  0  0  0  0  3  0  0  0  0  0  0
  191.4620  177.1800  146.0620 C   0  0  0  0  0  2  0  0  0  0  0  0
  189.6560  176.5850  147.5280 C   0  0  0  0  0  2  0  0  0  0  0  0
  190.1730  177.6280  145.3970 C   0  0  0  0  0  2  0  0  0  0  0  0
  1  4  1  0  0  0  0
  1  2  2  0  0  0  0
  2  3  1  0  0  0  0
  3 41  1  1  0  0  0
  4  5  1  0  0  0  0
  5  3  1  0  0  0  0
  7  6  2  0  0  0  0
  7  4  1  0  0  0  0
  8  7  1  0  0  0  0
  9 12  1  0  0  0  0
 10 13  1  6  0  0  0
 10  8  1  0  0  0  0
 10  9  1  0  0  0  0
 11  9  2  0  0  0  0
 12  6  1  0  0  0  0
 14 19  1  0  0  0  0
 14 13  1  0  0  0  0
 15 18  2  0  0  0  0
 15 19  1  0  0  0  0
 16 20  1  0  0  0  0
 16 17  1  0  0  0  0
 18 16  1  0  0  0  0
 19 20  2  0  0  0  0
 20 21  1  0  0  0  0
 22 28  1  0  0  0  0
 24 28  1  0  0  0  0
 25 22  2  0  0  0  0
 26  2  1  0  0  0  0
 26 23  2  0  0  0  0
 27 25  1  0  0  0  0
 27 24  2  0  0  0  0
 28 26  1  0  0  0  0
 29 31  1  0  0  0  0
 29 25  1  0  0  0  0
 30 34  1  0  0  0  0
 31 35  1  0  0  0  0
 32 34  2  0  0  0  0
 33 31  2  0  0  0  0
 34 29  1  0  0  0  0
 35 36  1  1  0  0  0
 37 35  1  0  0  0  0
 37 38  1  0  0  0  0
 39 38  1  0  0  0  0
 41 40  1  6  0  0  0
 41 42  1  0  0  0  0
 42 43  1  0  0  0  0
 43 44  1  0  0  0  0
 45 44  1  1  0  0  0
 45 48  1  0  0  0  0
 45 54  1  0  0  0  0
 48 47  2  0  0  0  0
 48 46  2  0  0  0  0
 49 50  1  0  0  0  0
 49 48  1  0  0  0  0
 51 53  1  0  0  0  0
 53 52  1  6  0  0  0
 53 50  1  0  0  0  0
 55 58  1  0  0  0  0
 56 54  1  0  0  0  0
 56 58  1  0  0  0  0
 57 55  1  0  0  0  0
 59 57  1  0  0  0  0
 59 56  1  0  0  0  0
M  END
>  <MODEL>
1

>  <REMARK>
 VINA RESULT:      -7.5      0.000      0.000
  Name = 
  20 active torsions:
  status: ('A' for Active; 'I' for Inactive)
    1  A    between atoms: O_1  and  C_7
    2  A    between atoms: O_1  and  C_29
    3  A    between atoms: N_4  and  C_5
    4  A    between atoms: N_4  and  C_38
    5  A    between atoms: C_5  and  C_46
    6  A    between atoms: C_6  and  N_48
    7  A    between atoms: C_6  and  C_52
    8  A    between atoms: C_7  and  C_39
    9  A    between atoms: C_10  and  C_15
   10  A    between atoms: C_10  and  O_17
   11  A    between atoms: C_10  and  S_51
   12  A    between atoms: N_11  and  C_22
   13  A    between atoms: C_14  and  O_17
   14  A    between atoms: C_15  and  C_24
   15  A    between atoms: C_18  and  N_42
   16  A    between atoms: C_24  and  C_31
   17  A    between atoms: C_31  and  C_54
   18  A    between atoms: C_33  and  C_34
   19  A    between atoms: C_36  and  C_54
   20  A    between atoms: N_48  and  S_51
                            x       y       z     vdW  Elec       q    Type
                         _______ _______ _______ _____ _____    ______ ____

>  <TORSDO>
F 20

$$$$
=
 OpenBabel10232409533D

 59 63  0  0  1  0  0  0  0  0999 V2000
  188.8940  177.7290  140.9840 C   0  0  0  0  0  3  0  0  0  0  0  0
  189.5530  177.5450  139.8620 C   0  0  0  0  0  0  0  0  0  0  0  0
  188.5880  177.5260  138.7120 C   0  0  1  0  0  3  0  0  0  0  0  0
  187.5160  177.8500  140.6760 N   0  0  0  0  0  0  0  0  0  0  0  0
  187.2570  177.7280  139.3020 N   0  0  0  0  0  2  0  0  0  0  0  0
  185.2520  178.4670  141.2420 C   0  0  0  0  0  3  0  0  0  0  0  0
  186.4760  178.0870  141.6350 C   0  0  0  0  0  0  0  0  0  0  0  0
  186.7530  177.8930  143.1050 C   0  0  0  0  0  2  0  0  0  0  0  0
  184.7180  179.3420  143.4800 C   0  0  0  0  0  0  0  0  0  0  0  0
  186.1180  179.0060  143.9490 C   0  0  1  0  0  3  0  0  0  0  0  0
  184.0380  180.1420  144.1040 O   0  0  0  0  0  0  0  0  0  0  0  0
  184.1570  178.6970  142.2420 C   0  0  0  0  0  2  0  0  0  0  0  0
  186.1020  178.5950  145.3440 N   0  0  0  0  0  2  0  0  0  0  0  0
  186.7640  177.3040  145.4130 C   0  0  0  0  0  2  0  0  0  0  0  0
  187.7960  177.6540  147.7330 C   0  0  0  0  0  3  0  0  0  0  0  0
  189.8830  177.2280  147.3070 N   0  0  0  0  0  0  0  0  0  0  0  0
  191.3080  177.0280  147.5210 C   0  0  0  0  0  1  0  0  0  0  0  0
  189.0330  177.5580  148.2690 N   0  0  0  0  0  0  0  0  0  0  0  0
  187.8970  177.3760  146.3810 C   0  0  0  0  0  0  0  0  0  0  0  0
  189.2260  177.1020  146.1440 C   0  0  0  0  0  0  0  0  0  0  0  0
  189.8460  176.7230  144.8380 C   0  0  0  0  0  1  0  0  0  0  0  0
  192.9240  176.4460  138.4430 C   0  0  0  0  0  3  0  0  0  0  0  0
  191.7610  177.6970  140.6790 O   0  0  0  0  0  0  0  0  0  0  0  0
  190.9660  176.1960  137.5030 C   0  0  0  0  0  3  0  0  0  0  0  0
  193.1210  175.8240  137.2240 C   0  0  0  0  0  0  0  0  0  0  0  0
  191.0130  177.3110  139.7380 C   0  0  0  0  0  0  0  0  0  0  0  0
  191.8830  175.6510  136.6220 C   0  0  0  0  0  3  0  0  0  0  0  0
  191.6050  176.6730  138.5920 N   0  0  0  0  0  0  0  0  0  0  0  0
  194.3850  175.3610  136.6970 N   0  0  0  0  0  0  0  0  0  0  0  0
  196.3780  176.0710  135.6670 O   0  0  0  0  0  1  0  0  0  0  0  0
  194.8390  174.0310  137.0340 C   0  0  0  0  0  0  0  0  0  0  0  0
  194.4570  177.0470  134.9050 O   0  0  0  0  0  0  0  0  0  0  0  0
  194.0400  173.0620  136.9350 O   0  0  0  0  0  0  0  0  0  0  0  0
  195.1240  176.1680  135.7550 C   0  0  0  0  0  0  0  0  0  0  0  0
  196.2320  173.7600  137.5400 C   0  0  1  0  0  3  0  0  0  0  0  0
  196.3930  174.2380  138.9760 C   0  0  0  0  0  1  0  0  0  0  0  0
  196.5540  172.4020  137.4350 O   0  0  0  0  0  0  0  0  0  0  0  0
  197.9370  172.3700  137.2160 C   0  0  0  0  0  2  0  0  0  0  0  0
  198.2670  173.1260  135.9390 C   0  0  0  0  0  1  0  0  0  0  0  0
  189.1550  179.8430  138.3560 O   0  0  0  0  0  1  0  0  0  0  0  0
  188.9030  178.6290  137.7010 C   0  0  2  0  0  3  0  0  0  0  0  0
  187.7470  178.7770  136.7230 C   0  0  0  0  0  2  0  0  0  0  0  0
  187.4500  177.4520  136.0400 C   0  0  0  0  0  2  0  0  0  0  0  0
  185.9560  177.3250  135.7710 C   0  0  0  0  0  2  0  0  0  0  0  0
  185.3620  176.0530  136.3760 C   0  0  1  0  0  3  0  0  0  0  0  0
  183.6100  175.5050  138.3530 O   0  0  0  0  0  0  0  0  0  0  0  0
  182.7010  176.4680  136.2780 O   0  0  0  0  0  0  0  0  0  0  0  0
  183.8590  176.4890  137.2420 S   0  0  0  0  0  0  0  0  0  0  0  0
  184.0410  178.0740  137.9090 N   0  0  0  0  0  2  0  0  0  0  0  0
  182.7200  178.5310  138.3250 C   0  0  0  0  0  2  0  0  0  0  0  0
  184.0920  180.4190  138.8720 O   0  0  0  0  0  1  0  0  0  0  0  0
  181.8130  180.8600  138.3360 C   0  0  0  0  0  1  0  0  0  0  0  0
  182.7970  179.9010  138.9720 C   0  0  1  0  0  3  0  0  0  0  0  0
  185.0660  175.1350  135.3650 O   0  0  0  0  0  0  0  0  0  0  0  0
  187.8970  173.5620  136.8300 C   0  0  0  0  0  2  0  0  0  0  0  0
  185.8840  174.0280  135.6080 C   0  0  0  0  0  3  0  0  0  0  0  0
  188.3140  173.9060  135.4150 C   0  0  0  0  0  2  0  0  0  0  0  0
  186.5100  174.1330  136.9840 C   0  0  0  0  0  2  0  0  0  0  0  0
  187.0280  174.0060  134.6140 C   0  0  0  0  0  2  0  0  0  0  0  0
  2  1  2  0  0  0  0
  3 41  1  6  0  0  0
  3  5  1  0  0  0  0
  3  2  1  0  0  0  0
  4  1  1  0  0  0  0
  4  7  1  0  0  0  0
  5  4  1  0  0  0  0
  6  7  2  0  0  0  0
  6 12  1  0  0  0  0
  7  8  1  0  0  0  0
  8 10  1  0  0  0  0
  9 10  1  0  0  0  0
  9 11  2  0  0  0  0
 10 13  1  1  0  0  0
 12  9  1  0  0  0  0
 13 14  1  0  0  0  0
 14 19  1  0  0  0  0
 15 18  2  0  0  0  0
 16 17  1  0  0  0  0
 16 18  1  0  0  0  0
 19 15  1  0  0  0  0
 20 19  2  0  0  0  0
 20 16  1  0  0  0  0
 21 20  1  0  0  0  0
 22 28  1  0  0  0  0
 24 28  1  0  0  0  0
 25 22  2  0  0  0  0
 26  2  1  0  0  0  0
 26 23  2  0  0  0  0
 27 25  1  0  0  0  0
 27 24  2  0  0  0  0
 28 26  1  0  0  0  0
 29 31  1  0  0  0  0
 29 25  1  0  0  0  0
 30 34  1  0  0  0  0
 31 35  1  0  0  0  0
 32 34  2  0  0  0  0
 33 31  2  0  0  0  0
 34 29  1  0  0  0  0
 35 36  1  1  0  0  0
 37 35  1  0  0  0  0
 38 37  1  0  0  0  0
 39 38  1  0  0  0  0
 41 40  1  1  0  0  0
 42 41  1  0  0  0  0
 43 42  1  0  0  0  0
 44 43  1  0  0  0  0
 45 44  1  6  0  0  0
 45 48  1  0  0  0  0
 47 48  2  0  0  0  0
 48 49  1  0  0  0  0
 48 46  2  0  0  0  0
 49 50  1  0  0  0  0
 50 53  1  0  0  0  0
 51 53  1  0  0  0  0
 53 52  1  6  0  0  0
 54 56  1  0  0  0  0
 54 45  1  0  0  0  0
 55 58  1  0  0  0  0
 56 58  1  0  0  0  0
 57 55  1  0  0  0  0
 59 57  1  0  0  0  0
 59 56  1  0  0  0  0
M  END
>  <MODEL>
2

>  <REMARK>
 VINA RESULT:      -7.4      2.358      7.418
  Name = 
  20 active torsions:
  status: ('A' for Active; 'I' for Inactive)
    1  A    between atoms: O_1  and  C_7
    2  A    between atoms: O_1  and  C_29
    3  A    between atoms: N_4  and  C_5
    4  A    between atoms: N_4  and  C_38
    5  A    between atoms: C_5  and  C_46
    6  A    between atoms: C_6  and  N_48
    7  A    between atoms: C_6  and  C_52
    8  A    between atoms: C_7  and  C_39
    9  A    between atoms: C_10  and  C_15
   10  A    between atoms: C_10  and  O_17
   11  A    between atoms: C_10  and  S_51
   12  A    between atoms: N_11  and  C_22
   13  A    between atoms: C_14  and  O_17
   14  A    between atoms: C_15  and  C_24
   15  A    between atoms: C_18  and  N_42
   16  A    between atoms: C_24  and  C_31
   17  A    between atoms: C_31  and  C_54
   18  A    between atoms: C_33  and  C_34
   19  A    between atoms: C_36  and  C_54
   20  A    between atoms: N_48  and  S_51
                            x       y       z     vdW  Elec       q    Type
                         _______ _______ _______ _____ _____    ______ ____

>  <TORSDO>
F 20

$$$$
=
 OpenBabel10232409533D

 59 63  0  0  1  0  0  0  0  0999 V2000
  189.1700  176.6700  138.0980 C   0  0  0  0  0  3  0  0  0  0  0  0
  190.0100  177.1720  138.9750 C   0  0  0  0  0  0  0  0  0  0  0  0
  189.2640  178.0550  139.9330 C   0  0  1  0  0  3  0  0  0  0  0  0
  187.8710  177.1490  138.4000 N   0  0  0  0  0  0  0  0  0  0  0  0
  187.8580  178.0090  139.5100 N   0  0  0  0  0  2  0  0  0  0  0  0
  185.6860  177.6900  137.5300 C   0  0  0  0  0  3  0  0  0  0  0  0
  186.6790  176.8020  137.6830 C   0  0  0  0  0  0  0  0  0  0  0  0
  186.5410  175.4270  137.0780 C   0  0  0  0  0  2  0  0  0  0  0  0
  184.0610  175.9070  137.0390 C   0  0  0  0  0  0  0  0  0  0  0  0
  185.1290  174.8610  137.2830 C   0  0  1  0  0  3  0  0  0  0  0  0
  182.8800  175.5960  137.0670 O   0  0  0  0  0  0  0  0  0  0  0  0
  184.4450  177.3350  136.7630 C   0  0  0  0  0  2  0  0  0  0  0  0
  184.9390  173.7250  136.3960 N   0  0  0  0  0  2  0  0  0  0  0  0
  184.7100  172.5630  137.2380 C   0  0  0  0  0  2  0  0  0  0  0  0
  182.2050  172.1060  136.9540 C   0  0  0  0  0  3  0  0  0  0  0  0
  182.2620  170.3890  135.6250 N   0  0  0  0  0  0  0  0  0  0  0  0
  181.8000  169.3040  134.7740 C   0  0  0  0  0  1  0  0  0  0  0  0
  181.4520  171.2180  136.2670 N   0  0  0  0  0  0  0  0  0  0  0  0
  183.5350  171.8000  136.7260 C   0  0  0  0  0  0  0  0  0  0  0  0
  183.5390  170.7160  135.8760 C   0  0  0  0  0  0  0  0  0  0  0  0
  184.7360  170.0200  135.3140 C   0  0  0  0  0  1  0  0  0  0  0  0
  193.5420  176.3010  137.8150 C   0  0  0  0  0  3  0  0  0  0  0  0
  192.1120  177.2460  140.0460 O   0  0  0  0  0  0  0  0  0  0  0  0
  191.7060  176.1490  136.6390 C   0  0  0  0  0  3  0  0  0  0  0  0
  193.8870  175.8400  136.5590 C   0  0  0  0  0  0  0  0  0  0  0  0
  191.4800  176.9740  138.9870 C   0  0  0  0  0  0  0  0  0  0  0  0
  192.7270  175.7290  135.8050 C   0  0  0  0  0  3  0  0  0  0  0  0
  192.2100  176.4910  137.8430 N   0  0  0  0  0  0  0  0  0  0  0  0
  195.2130  175.4620  136.1230 N   0  0  0  0  0  0  0  0  0  0  0  0
  197.4060  176.2610  135.8270 O   0  0  0  0  0  1  0  0  0  0  0  0
  195.5290  174.0590  135.9780 C   0  0  0  0  0  0  0  0  0  0  0  0
  195.7310  177.6800  135.1910 O   0  0  0  0  0  0  0  0  0  0  0  0
  194.7270  173.3060  135.3630 O   0  0  0  0  0  0  0  0  0  0  0  0
  196.1670  176.4700  135.7240 C   0  0  0  0  0  0  0  0  0  0  0  0
  196.7710  173.4480  136.5700 C   0  0  1  0  0  3  0  0  0  0  0  0
  196.8370  173.6950  138.0700 C   0  0  0  0  0  1  0  0  0  0  0  0
  196.8440  172.0780  136.2950 O   0  0  0  0  0  0  0  0  0  0  0  0
  196.5570  171.4440  137.5100 C   0  0  0  0  0  2  0  0  0  0  0  0
  196.2890  169.9680  137.2630 C   0  0  0  0  0  1  0  0  0  0  0  0
  189.4410  176.1620  141.4170 O   0  0  0  0  0  1  0  0  0  0  0  0
  189.4100  177.5630  141.3740 C   0  0  2  0  0  3  0  0  0  0  0  0
  188.2640  178.0990  142.2200 C   0  0  0  0  0  2  0  0  0  0  0  0
  187.4540  176.9570  142.8110 C   0  0  0  0  0  2  0  0  0  0  0  0
  187.7180  176.8480  144.3070 C   0  0  0  0  0  2  0  0  0  0  0  0
  187.7130  178.2110  145.0000 C   0  0  1  0  0  3  0  0  0  0  0  0
  186.9160  178.6180  147.5440 O   0  0  0  0  0  0  0  0  0  0  0  0
  185.7510  176.8670  146.2660 O   0  0  0  0  0  0  0  0  0  0  0  0
  186.3810  178.2350  146.1920 S   0  0  0  0  0  0  0  0  0  0  0  0
  185.2040  179.3980  145.6880 N   0  0  0  0  0  2  0  0  0  0  0  0
  185.1910  179.4060  144.2300 C   0  0  0  0  0  2  0  0  0  0  0  0
  182.8210  179.0770  144.0830 O   0  0  0  0  0  1  0  0  0  0  0  0
  184.1170  178.4580  142.1810 C   0  0  0  0  0  1  0  0  0  0  0  0
  184.0570  178.5530  143.6910 C   0  0  1  0  0  3  0  0  0  0  0  0
  188.9290  178.4180  145.6580 O   0  0  0  0  0  0  0  0  0  0  0  0
  191.0900  176.1080  147.2810 C   0  0  0  0  0  2  0  0  0  0  0  0
  189.4880  177.1470  145.8270 C   0  0  0  0  0  3  0  0  0  0  0  0
  191.8510  176.5820  146.0610 C   0  0  0  0  0  2  0  0  0  0  0  0
  189.8130  176.9080  147.2870 C   0  0  0  0  0  2  0  0  0  0  0  0
  190.8000  177.0580  145.0740 C   0  0  0  0  0  2  0  0  0  0  0  0
  1  4  1  0  0  0  0
  1  2  2  0  0  0  0
  2 26  1  0  0  0  0
  2  3  1  0  0  0  0
  3 41  1  1  0  0  0
  4  5  1  0  0  0  0
  5  3  1  0  0  0  0
  6  7  2  0  0  0  0
  7  4  1  0  0  0  0
  8 10  1  0  0  0  0
  8  7  1  0  0  0  0
  9 11  2  0  0  0  0
  9 10  1  0  0  0  0
 10 13  1  6  0  0  0
 12  9  1  0  0  0  0
 12  6  1  0  0  0  0
 13 14  1  0  0  0  0
 16 20  1  0  0  0  0
 16 18  1  0  0  0  0
 17 16  1  0  0  0  0
 18 15  2  0  0  0  0
 19 15  1  0  0  0  0
 19 14  1  0  0  0  0
 20 19  2  0  0  0  0
 21 20  1  0  0  0  0
 22 28  1  0  0  0  0
 24 28  1  0  0  0  0
 25 22  2  0  0  0  0
 26 23  2  0  0  0  0
 27 25  1  0  0  0  0
 27 24  2  0  0  0  0
 28 26  1  0  0  0  0
 29 25  1  0  0  0  0
 31 29  1  0  0  0  0
 31 35  1  0  0  0  0
 32 34  2  0  0  0  0
 33 31  2  0  0  0  0
 34 30  1  0  0  0  0
 34 29  1  0  0  0  0
 35 36  1  1  0  0  0
 37 35  1  0  0  0  0
 37 38  1  0  0  0  0
 39 38  1  0  0  0  0
 41 40  1  6  0  0  0
 41 42  1  0  0  0  0
 42 43  1  0  0  0  0
 43 44  1  0  0  0  0
 45 44  1  1  0  0  0
 45 54  1  0  0  0  0
 45 48  1  0  0  0  0
 48 47  2  0  0  0  0
 48 46  2  0  0  0  0
 49 48  1  0  0  0  0
 50 49  1  0  0  0  0
 53 52  1  6  0  0  0
 53 51  1  0  0  0  0
 53 50  1  0  0  0  0
 54 56  1  0  0  0  0
 55 58  1  0  0  0  0
 56 58  1  0  0  0  0
 57 55  1  0  0  0  0
 59 56  1  0  0  0  0
 59 57  1  0  0  0  0
M  END
>  <MODEL>
3

>  <REMARK>
 VINA RESULT:      -7.1      1.718      2.100
  Name = 
  20 active torsions:
  status: ('A' for Active; 'I' for Inactive)
    1  A    between atoms: O_1  and  C_7
    2  A    between atoms: O_1  and  C_29
    3  A    between atoms: N_4  and  C_5
    4  A    between atoms: N_4  and  C_38
    5  A    between atoms: C_5  and  C_46
    6  A    between atoms: C_6  and  N_48
    7  A    between atoms: C_6  and  C_52
    8  A    between atoms: C_7  and  C_39
    9  A    between atoms: C_10  and  C_15
   10  A    between atoms: C_10  and  O_17
   11  A    between atoms: C_10  and  S_51
   12  A    between atoms: N_11  and  C_22
   13  A    between atoms: C_14  and  O_17
   14  A    between atoms: C_15  and  C_24
   15  A    between atoms: C_18  and  N_42
   16  A    between atoms: C_24  and  C_31
   17  A    between atoms: C_31  and  C_54
   18  A    between atoms: C_33  and  C_34
   19  A    between atoms: C_36  and  C_54
   20  A    between atoms: N_48  and  S_51
                            x       y       z     vdW  Elec       q    Type
                         _______ _______ _______ _____ _____    ______ ____

>  <TORSDO>
F 20

$$$$
=
 OpenBabel10232409533D

 59 63  0  0  1  0  0  0  0  0999 V2000
  188.9160  177.7830  140.7390 C   0  0  0  0  0  3  0  0  0  0  0  0
  189.5780  177.5710  139.6240 C   0  0  0  0  0  0  0  0  0  0  0  0
  188.6160  177.5320  138.4710 C   0  0  1  0  0  3  0  0  0  0  0  0
  187.5400  177.9050  140.4240 N   0  0  0  0  0  0  0  0  0  0  0  0
  187.2850  177.7550  139.0520 N   0  0  0  0  0  2  0  0  0  0  0  0
  185.3330  178.7060  140.9850 C   0  0  0  0  0  3  0  0  0  0  0  0
  186.4990  178.1690  141.3740 C   0  0  0  0  0  0  0  0  0  0  0  0
  186.7060  177.8270  142.8280 C   0  0  0  0  0  2  0  0  0  0  0  0
  184.8170  179.4440  143.2760 C   0  0  0  0  0  0  0  0  0  0  0  0
  186.1600  178.9280  143.7490 C   0  0  1  0  0  3  0  0  0  0  0  0
  184.2010  180.2560  143.9490 O   0  0  0  0  0  0  0  0  0  0  0  0
  184.2340  178.9650  141.9750 C   0  0  0  0  0  2  0  0  0  0  0  0
  186.0560  178.4070  145.1030 N   0  0  0  0  0  2  0  0  0  0  0  0
  186.7950  177.1570  145.1350 C   0  0  0  0  0  2  0  0  0  0  0  0
  187.7050  177.4360  147.5140 C   0  0  0  0  0  3  0  0  0  0  0  0
  189.8320  177.1700  147.1600 N   0  0  0  0  0  0  0  0  0  0  0  0
  191.2570  177.0500  147.4260 C   0  0  0  0  0  1  0  0  0  0  0  0
  188.9230  177.3890  148.0990 N   0  0  0  0  0  0  0  0  0  0  0  0
  187.8800  177.2450  146.1540 C   0  0  0  0  0  0  0  0  0  0  0  0
  189.2330  177.0710  145.9630 C   0  0  0  0  0  0  0  0  0  0  0  0
  189.9300  176.8090  144.6670 C   0  0  0  0  0  1  0  0  0  0  0  0
  192.9570  176.5040  138.2010 C   0  0  0  0  0  3  0  0  0  0  0  0
  191.7750  177.6550  140.4800 O   0  0  0  0  0  0  0  0  0  0  0  0
  191.0110  176.3260  137.2200 C   0  0  0  0  0  3  0  0  0  0  0  0
  193.1650  175.9410  136.9550 C   0  0  0  0  0  0  0  0  0  0  0  0
  191.0360  177.3260  139.5090 C   0  0  0  0  0  0  0  0  0  0  0  0
  191.9350  175.8140  136.3270 C   0  0  0  0  0  3  0  0  0  0  0  0
  191.6390  176.7380  138.3410 N   0  0  0  0  0  0  0  0  0  0  0  0
  194.4320  175.4900  136.4240 N   0  0  0  0  0  0  0  0  0  0  0  0
  196.5410  176.2250  135.6820 O   0  0  0  0  0  1  0  0  0  0  0  0
  194.7690  174.0880  136.5130 C   0  0  0  0  0  0  0  0  0  0  0  0
  194.7540  177.4840  135.0170 O   0  0  0  0  0  0  0  0  0  0  0  0
  193.9160  173.2250  136.1720 O   0  0  0  0  0  0  0  0  0  0  0  0
  195.2930  176.4040  135.7110 C   0  0  0  0  0  0  0  0  0  0  0  0
  196.0970  173.6100  137.0380 C   0  0  1  0  0  3  0  0  0  0  0  0
  196.1080  173.5930  138.5590 C   0  0  0  0  0  1  0  0  0  0  0  0
  196.4190  172.3460  136.5300 O   0  0  0  0  0  0  0  0  0  0  0  0
  196.4930  171.5100  137.6500 C   0  0  0  0  0  2  0  0  0  0  0  0
  195.5960  170.3000  137.4420 C   0  0  0  0  0  1  0  0  0  0  0  0
  189.0610  179.8660  138.0520 O   0  0  0  0  0  1  0  0  0  0  0  0
  188.9410  178.6110  137.4370 C   0  0  2  0  0  3  0  0  0  0  0  0
  187.8600  178.6410  136.3670 C   0  0  0  0  0  2  0  0  0  0  0  0
  187.9030  177.3750  135.5270 C   0  0  0  0  0  2  0  0  0  0  0  0
  186.4900  176.8650  135.2770 C   0  0  0  0  0  2  0  0  0  0  0  0
  186.2450  175.4930  135.9070 C   0  0  1  0  0  3  0  0  0  0  0  0
  183.5870  175.6630  135.4860 O   0  0  0  0  0  0  0  0  0  0  0  0
  184.4520  176.5830  137.5980 O   0  0  0  0  0  0  0  0  0  0  0  0
  184.5920  175.4720  136.5890 S   0  0  0  0  0  0  0  0  0  0  0  0
  184.3250  173.9440  137.3520 N   0  0  0  0  0  2  0  0  0  0  0  0
  183.5200  173.1340  136.4450 C   0  0  0  0  0  2  0  0  0  0  0  0
  181.6970  171.8090  137.2640 O   0  0  0  0  0  1  0  0  0  0  0  0
  183.5400  170.6380  136.3090 C   0  0  0  0  0  1  0  0  0  0  0  0
  183.0870  171.8400  137.1100 C   0  0  1  0  0  3  0  0  0  0  0  0
  186.3620  174.4930  134.9380 O   0  0  0  0  0  0  0  0  0  0  0  0
  189.1660  173.2980  136.7650 C   0  0  0  0  0  2  0  0  0  0  0  0
  187.1140  173.4770  135.5320 C   0  0  0  0  0  3  0  0  0  0  0  0
  189.5130  173.0790  135.3080 C   0  0  0  0  0  2  0  0  0  0  0  0
  187.8370  174.0070  136.7550 C   0  0  0  0  0  2  0  0  0  0  0  0
  188.1860  173.0020  134.5720 C   0  0  0  0  0  2  0  0  0  0  0  0
  2  1  2  0  0  0  0
  3 41  1  6  0  0  0
  3  5  1  0  0  0  0
  3  2  1  0  0  0  0
  4  1  1  0  0  0  0
  4  7  1  0  0  0  0
  5  4  1  0  0  0  0
  6  7  2  0  0  0  0
  6 12  1  0  0  0  0
  7  8  1  0  0  0  0
  8 10  1  0  0  0  0
  9 10  1  0  0  0  0
  9 11  2  0  0  0  0
 10 13  1  1  0  0  0
 12  9  1  0  0  0  0
 13 14  1  0  0  0  0
 14 19  1  0  0  0  0
 15 18  2  0  0  0  0
 16 17  1  0  0  0  0
 16 18  1  0  0  0  0
 19 15  1  0  0  0  0
 20 19  2  0  0  0  0
 20 16  1  0  0  0  0
 21 20  1  0  0  0  0
 22 28  1  0  0  0  0
 24 28  1  0  0  0  0
 25 22  2  0  0  0  0
 26  2  1  0  0  0  0
 26 23  2  0  0  0  0
 27 25  1  0  0  0  0
 27 24  2  0  0  0  0
 28 26  1  0  0  0  0
 29 31  1  0  0  0  0
 29 25  1  0  0  0  0
 30 34  1  0  0  0  0
 31 35  1  0  0  0  0
 32 34  2  0  0  0  0
 33 31  2  0  0  0  0
 34 29  1  0  0  0  0
 35 36  1  1  0  0  0
 37 35  1  0  0  0  0
 37 38  1  0  0  0  0
 39 38  1  0  0  0  0
 41 40  1  1  0  0  0
 42 41  1  0  0  0  0
 43 42  1  0  0  0  0
 44 43  1  0  0  0  0
 45 44  1  6  0  0  0
 45 48  1  0  0  0  0
 46 48  2  0  0  0  0
 48 49  1  0  0  0  0
 48 47  2  0  0  0  0
 50 53  1  0  0  0  0
 50 49  1  0  0  0  0
 53 52  1  6  0  0  0
 53 51  1  0  0  0  0
 54 56  1  0  0  0  0
 54 45  1  0  0  0  0
 56 58  1  0  0  0  0
 57 55  1  0  0  0  0
 58 55  1  0  0  0  0
 59 57  1  0  0  0  0
 59 56  1  0  0  0  0
M  END
>  <MODEL>
4

>  <REMARK>
 VINA RESULT:      -7.0      2.443      7.802
  Name = 
  20 active torsions:
  status: ('A' for Active; 'I' for Inactive)
    1  A    between atoms: O_1  and  C_7
    2  A    between atoms: O_1  and  C_29
    3  A    between atoms: N_4  and  C_5
    4  A    between atoms: N_4  and  C_38
    5  A    between atoms: C_5  and  C_46
    6  A    between atoms: C_6  and  N_48
    7  A    between atoms: C_6  and  C_52
    8  A    between atoms: C_7  and  C_39
    9  A    between atoms: C_10  and  C_15
   10  A    between atoms: C_10  and  O_17
   11  A    between atoms: C_10  and  S_51
   12  A    between atoms: N_11  and  C_22
   13  A    between atoms: C_14  and  O_17
   14  A    between atoms: C_15  and  C_24
   15  A    between atoms: C_18  and  N_42
   16  A    between atoms: C_24  and  C_31
   17  A    between atoms: C_31  and  C_54
   18  A    between atoms: C_33  and  C_34
   19  A    between atoms: C_36  and  C_54
   20  A    between atoms: N_48  and  S_51
                            x       y       z     vdW  Elec       q    Type
                         _______ _______ _______ _____ _____    ______ ____

>  <TORSDO>
F 20

$$$$
=
 OpenBabel10232409533D

 59 63  0  0  1  0  0  0  0  0999 V2000
  188.5490  174.9610  136.6170 C   0  0  0  0  0  3  0  0  0  0  0  0
  189.7200  175.3810  137.0410 C   0  0  0  0  0  0  0  0  0  0  0  0
  189.6260  176.8350  137.4060 C   0  0  1  0  0  3  0  0  0  0  0  0
  187.6380  176.0450  136.6740 N   0  0  0  0  0  0  0  0  0  0  0  0
  188.2350  177.2260  137.1420 N   0  0  0  0  0  2  0  0  0  0  0  0
  185.8510  175.2580  135.2570 C   0  0  0  0  0  3  0  0  0  0  0  0
  186.2510  175.9740  136.3170 C   0  0  0  0  0  0  0  0  0  0  0  0
  185.2240  176.6990  137.1500 C   0  0  0  0  0  2  0  0  0  0  0  0
  183.7230  176.4900  135.1290 C   0  0  0  0  0  0  0  0  0  0  0  0
  184.1660  177.3800  136.2720 C   0  0  1  0  0  3  0  0  0  0  0  0
  182.8170  176.8450  134.3910 O   0  0  0  0  0  0  0  0  0  0  0  0
  184.3970  175.1670  134.8920 C   0  0  0  0  0  2  0  0  0  0  0  0
  183.0280  177.7500  137.0980 N   0  0  0  0  0  2  0  0  0  0  0  0
  182.8550  176.6930  138.0790 C   0  0  0  0  0  2  0  0  0  0  0  0
  180.8090  177.0040  139.5890 C   0  0  0  0  0  3  0  0  0  0  0  0
  181.6760  178.1820  141.1960 N   0  0  0  0  0  0  0  0  0  0  0  0
  181.7840  178.9170  142.4460 C   0  0  0  0  0  1  0  0  0  0  0  0
  180.5590  177.6060  140.7750 N   0  0  0  0  0  0  0  0  0  0  0  0
  182.1360  177.2310  139.2700 C   0  0  0  0  0  0  0  0  0  0  0  0
  182.6590  177.9690  140.3090 C   0  0  0  0  0  0  0  0  0  0  0  0
  184.0670  178.4510  140.4470 C   0  0  0  0  0  1  0  0  0  0  0  0
  193.3740  174.3690  136.5920 C   0  0  0  0  0  3  0  0  0  0  0  0
  190.9240  173.4340  137.6120 O   0  0  0  0  0  0  0  0  0  0  0  0
  192.4550  176.2530  135.9730 C   0  0  0  0  0  3  0  0  0  0  0  0
  194.3600  175.1450  136.0130 C   0  0  0  0  0  0  0  0  0  0  0  0
  190.9680  174.5820  137.0870 C   0  0  0  0  0  0  0  0  0  0  0  0
  193.7860  176.3410  135.6070 C   0  0  0  0  0  3  0  0  0  0  0  0
  192.2210  175.0640  136.5660 N   0  0  0  0  0  0  0  0  0  0  0  0
  195.7350  174.7550  135.7950 N   0  0  0  0  0  0  0  0  0  0  0  0
  197.9660  175.4240  136.1290 O   0  0  0  0  0  1  0  0  0  0  0  0
  196.0260  173.3850  135.4390 C   0  0  0  0  0  0  0  0  0  0  0  0
  196.5220  177.0630  135.4580 O   0  0  0  0  0  0  0  0  0  0  0  0
  195.3530  172.8260  134.5320 O   0  0  0  0  0  0  0  0  0  0  0  0
  196.7880  175.7430  135.8150 C   0  0  0  0  0  0  0  0  0  0  0  0
  197.0860  172.5790  136.1410 C   0  0  1  0  0  3  0  0  0  0  0  0
  196.4960  171.8010  137.3080 C   0  0  0  0  0  1  0  0  0  0  0  0
  197.7370  171.7130  135.2540 O   0  0  0  0  0  0  0  0  0  0  0  0
  198.9620  172.3310  134.9720 C   0  0  0  0  0  2  0  0  0  0  0  0
  199.9030  172.1560  136.1530 C   0  0  0  0  0  1  0  0  0  0  0  0
  190.7880  176.0240  139.3580 O   0  0  0  0  0  1  0  0  0  0  0  0
  189.9830  177.0660  138.8740 C   0  0  2  0  0  3  0  0  0  0  0  0
  188.7110  177.1880  139.7010 C   0  0  0  0  0  2  0  0  0  0  0  0
  188.6180  178.5640  140.3400 C   0  0  0  0  0  2  0  0  0  0  0  0
  188.2090  178.4350  141.8010 C   0  0  0  0  0  2  0  0  0  0  0  0
  188.7480  177.1580  142.4470 C   0  0  1  0  0  3  0  0  0  0  0  0
  190.4640  178.9650  143.4790 O   0  0  0  0  0  0  0  0  0  0  0  0
  191.4210  177.1640  142.1010 O   0  0  0  0  0  0  0  0  0  0  0  0
  190.3670  177.5070  143.1220 S   0  0  0  0  0  0  0  0  0  0  0  0
  190.5930  176.5510  144.5450 N   0  0  0  0  0  2  0  0  0  0  0  0
  191.4050  177.3300  145.4730 C   0  0  0  0  0  2  0  0  0  0  0  0
  189.9870  176.4210  147.1800 O   0  0  0  0  0  1  0  0  0  0  0  0
  192.2080  175.5650  147.0530 C   0  0  0  0  0  1  0  0  0  0  0  0
  191.3080  176.7710  146.8820 C   0  0  1  0  0  3  0  0  0  0  0  0
  187.8950  176.7440  143.4740 O   0  0  0  0  0  0  0  0  0  0  0  0
  186.1750  178.5820  145.9830 C   0  0  0  0  0  2  0  0  0  0  0  0
  187.3240  177.9130  143.9850 C   0  0  0  0  0  3  0  0  0  0  0  0
  185.1120  178.1730  144.9850 C   0  0  0  0  0  2  0  0  0  0  0  0
  187.4470  177.9380  145.4950 C   0  0  0  0  0  2  0  0  0  0  0  0
  185.8410  177.9410  143.6730 C   0  0  0  0  0  2  0  0  0  0  0  0
  1  4  1  0  0  0  0
  1  2  2  0  0  0  0
  2 26  1  0  0  0  0
  2  3  1  0  0  0  0
  3 41  1  1  0  0  0
  4  5  1  0  0  0  0
  5  3  1  0  0  0  0
  6  7  2  0  0  0  0
  7  4  1  0  0  0  0
  7  8  1  0  0  0  0
  9 10  1  0  0  0  0
 10 13  1  1  0  0  0
 10  8  1  0  0  0  0
 11  9  2  0  0  0  0
 12  9  1  0  0  0  0
 12  6  1  0  0  0  0
 13 14  1  0  0  0  0
 14 19  1  0  0  0  0
 15 18  2  0  0  0  0
 16 17  1  0  0  0  0
 18 16  1  0  0  0  0
 19 15  1  0  0  0  0
 19 20  2  0  0  0  0
 20 21  1  0  0  0  0
 20 16  1  0  0  0  0
 24 28  1  0  0  0  0
 25 22  2  0  0  0  0
 26 23  2  0  0  0  0
 27 24  2  0  0  0  0
 27 25  1  0  0  0  0
 28 22  1  0  0  0  0
 28 26  1  0  0  0  0
 29 34  1  0  0  0  0
 29 25  1  0  0  0  0
 31 29  1  0  0  0  0
 31 35  1  0  0  0  0
 32 34  2  0  0  0  0
 33 31  2  0  0  0  0
 34 30  1  0  0  0  0
 35 36  1  1  0  0  0
 37 35  1  0  0  0  0
 38 37  1  0  0  0  0
 38 39  1  0  0  0  0
 41 40  1  1  0  0  0
 41 42  1  0  0  0  0
 42 43  1  0  0  0  0
 43 44  1  0  0  0  0
 45 44  1  1  0  0  0
 45 48  1  0  0  0  0
 45 54  1  0  0  0  0
 47 48  2  0  0  0  0
 48 46  2  0  0  0  0
 48 49  1  0  0  0  0
 49 50  1  0  0  0  0
 50 53  1  0  0  0  0
 53 52  1  6  0  0  0
 53 51  1  0  0  0  0
 54 56  1  0  0  0  0
 56 58  1  0  0  0  0
 57 55  1  0  0  0  0
 58 55  1  0  0  0  0
 59 56  1  0  0  0  0
 59 57  1  0  0  0  0
M  END
>  <MODEL>
5

>  <REMARK>
 VINA RESULT:      -6.8      2.481      5.130
  Name = 
  20 active torsions:
  status: ('A' for Active; 'I' for Inactive)
    1  A    between atoms: O_1  and  C_7
    2  A    between atoms: O_1  and  C_29
    3  A    between atoms: N_4  and  C_5
    4  A    between atoms: N_4  and  C_38
    5  A    between atoms: C_5  and  C_46
    6  A    between atoms: C_6  and  N_48
    7  A    between atoms: C_6  and  C_52
    8  A    between atoms: C_7  and  C_39
    9  A    between atoms: C_10  and  C_15
   10  A    between atoms: C_10  and  O_17
   11  A    between atoms: C_10  and  S_51
   12  A    between atoms: N_11  and  C_22
   13  A    between atoms: C_14  and  O_17
   14  A    between atoms: C_15  and  C_24
   15  A    between atoms: C_18  and  N_42
   16  A    between atoms: C_24  and  C_31
   17  A    between atoms: C_31  and  C_54
   18  A    between atoms: C_33  and  C_34
   19  A    between atoms: C_36  and  C_54
   20  A    between atoms: N_48  and  S_51
                            x       y       z     vdW  Elec       q    Type
                         _______ _______ _______ _____ _____    ______ ____

>  <TORSDO>
F 20

$$$$
=
 OpenBabel10232409533D

 59 63  0  0  1  0  0  0  0  0999 V2000
  189.1310  176.8140  137.7330 C   0  0  0  0  0  3  0  0  0  0  0  0
  189.9450  177.3360  138.6230 C   0  0  0  0  0  0  0  0  0  0  0  0
  189.1920  178.3190  139.4730 C   0  0  1  0  0  3  0  0  0  0  0  0
  187.8440  177.3760  137.9220 N   0  0  0  0  0  0  0  0  0  0  0  0
  187.8120  178.3110  138.9690 N   0  0  0  0  0  2  0  0  0  0  0  0
  186.6960  177.0870  135.8190 C   0  0  0  0  0  3  0  0  0  0  0  0
  186.6780  177.0360  137.1590 C   0  0  0  0  0  0  0  0  0  0  0  0
  185.4190  176.6020  137.8660 C   0  0  0  0  0  2  0  0  0  0  0  0
  184.2390  177.1950  135.7120 C   0  0  0  0  0  0  0  0  0  0  0  0
  184.1700  177.2240  137.2250 C   0  0  1  0  0  3  0  0  0  0  0  0
  183.2830  177.5650  135.0490 O   0  0  0  0  0  0  0  0  0  0  0  0
  185.4820  176.7140  135.0180 C   0  0  0  0  0  2  0  0  0  0  0  0
  182.9910  176.5150  137.6940 N   0  0  0  0  0  2  0  0  0  0  0  0
  182.6420  177.0790  138.9870 C   0  0  0  0  0  2  0  0  0  0  0  0
  183.4190  179.5130  139.1810 C   0  0  0  0  0  3  0  0  0  0  0  0
  181.7010  180.5470  138.3420 N   0  0  0  0  0  0  0  0  0  0  0  0
  180.8570  181.6330  137.8710 C   0  0  0  0  0  1  0  0  0  0  0  0
  182.9100  180.7240  138.8560 N   0  0  0  0  0  0  0  0  0  0  0  0
  182.4740  178.5560  138.8570 C   0  0  0  0  0  0  0  0  0  0  0  0
  181.4040  179.2390  138.3210 C   0  0  0  0  0  0  0  0  0  0  0  0
  180.1350  178.6490  137.7960 C   0  0  0  0  0  1  0  0  0  0  0  0
  193.5010  176.2800  137.7180 C   0  0  0  0  0  3  0  0  0  0  0  0
  191.9700  177.3280  139.8330 O   0  0  0  0  0  0  0  0  0  0  0  0
  191.7430  176.1960  136.4220 C   0  0  0  0  0  3  0  0  0  0  0  0
  193.9070  175.7820  136.4940 C   0  0  0  0  0  0  0  0  0  0  0  0
  191.3990  177.0680  138.7370 C   0  0  0  0  0  0  0  0  0  0  0  0
  192.7960  175.7150  135.6650 C   0  0  0  0  0  3  0  0  0  0  0  0
  192.1810  176.5330  137.6530 N   0  0  0  0  0  0  0  0  0  0  0  0
  195.2390  175.3350  136.1540 N   0  0  0  0  0  0  0  0  0  0  0  0
  197.4950  175.9990  136.0780 O   0  0  0  0  0  1  0  0  0  0  0  0
  195.4790  173.9210  135.9750 C   0  0  0  0  0  0  0  0  0  0  0  0
  195.9730  177.5480  135.3660 O   0  0  0  0  0  0  0  0  0  0  0  0
  194.6880  173.2460  135.2640 O   0  0  0  0  0  0  0  0  0  0  0  0
  196.2850  176.2920  135.8810 C   0  0  0  0  0  0  0  0  0  0  0  0
  196.6240  173.2080  136.6430 C   0  0  1  0  0  3  0  0  0  0  0  0
  196.1600  172.4860  137.8990 C   0  0  0  0  0  1  0  0  0  0  0  0
  197.2460  172.3130  135.7640 O   0  0  0  0  0  0  0  0  0  0  0  0
  198.6200  172.5190  135.9430 C   0  0  0  0  0  2  0  0  0  0  0  0
  199.2580  171.2510  136.4890 C   0  0  0  0  0  1  0  0  0  0  0  0
  189.3270  176.5310  141.0860 O   0  0  0  0  0  1  0  0  0  0  0  0
  189.2290  177.9230  140.9490 C   0  0  2  0  0  3  0  0  0  0  0  0
  187.9850  178.4450  141.6540 C   0  0  0  0  0  2  0  0  0  0  0  0
  187.3760  177.3660  142.5340 C   0  0  0  0  0  2  0  0  0  0  0  0
  185.9500  177.7420  142.9120 C   0  0  0  0  0  2  0  0  0  0  0  0
  185.8750  178.4710  144.2540 C   0  0  1  0  0  3  0  0  0  0  0  0
  184.2660  180.6360  144.2910 O   0  0  0  0  0  0  0  0  0  0  0  0
  183.6950  178.7830  145.8070 O   0  0  0  0  0  0  0  0  0  0  0  0
  184.2270  179.1400  144.4430 S   0  0  0  0  0  0  0  0  0  0  0  0
  183.2100  178.4640  143.2190 N   0  0  0  0  0  2  0  0  0  0  0  0
  182.1680  179.4420  142.9240 C   0  0  0  0  0  2  0  0  0  0  0  0
  180.2230  178.1790  143.5300 O   0  0  0  0  0  1  0  0  0  0  0  0
  179.9850  179.7360  141.7420 C   0  0  0  0  0  1  0  0  0  0  0  0
  180.8980  178.7580  142.4510 C   0  0  1  0  0  3  0  0  0  0  0  0
  186.1370  177.5790  145.2980 O   0  0  0  0  0  0  0  0  0  0  0  0
  188.8910  177.3710  147.5360 C   0  0  0  0  0  2  0  0  0  0  0  0
  187.2020  178.1370  146.0120 C   0  0  0  0  0  3  0  0  0  0  0  0
  187.7230  177.8380  148.3780 C   0  0  0  0  0  2  0  0  0  0  0  0
  188.3170  177.1220  146.1650 C   0  0  0  0  0  2  0  0  0  0  0  0
  186.7510  178.4940  147.4140 C   0  0  0  0  0  2  0  0  0  0  0  0
  1  4  1  0  0  0  0
  1  2  2  0  0  0  0
  2 26  1  0  0  0  0
  2  3  1  0  0  0  0
  3 41  1  1  0  0  0
  4  5  1  0  0  0  0
  5  3  1  0  0  0  0
  6  7  2  0  0  0  0
  7  8  1  0  0  0  0
  7  4  1  0  0  0  0
  9 10  1  0  0  0  0
 10 13  1  6  0  0  0
 10  8  1  0  0  0  0
 11  9  2  0  0  0  0
 12  9  1  0  0  0  0
 12  6  1  0  0  0  0
 13 14  1  0  0  0  0
 16 18  1  0  0  0  0
 17 16  1  0  0  0  0
 18 15  2  0  0  0  0
 19 14  1  0  0  0  0
 19 15  1  0  0  0  0
 20 16  1  0  0  0  0
 20 19  2  0  0  0  0
 21 20  1  0  0  0  0
 24 28  1  0  0  0  0
 25 22  2  0  0  0  0
 26 23  2  0  0  0  0
 27 24  2  0  0  0  0
 27 25  1  0  0  0  0
 28 22  1  0  0  0  0
 28 26  1  0  0  0  0
 29 25  1  0  0  0  0
 31 29  1  0  0  0  0
 31 35  1  0  0  0  0
 32 34  2  0  0  0  0
 33 31  2  0  0  0  0
 34 30  1  0  0  0  0
 34 29  1  0  0  0  0
 35 36  1  1  0  0  0
 37 38  1  0  0  0  0
 37 35  1  0  0  0  0
 38 39  1  0  0  0  0
 41 40  1  6  0  0  0
 41 42  1  0  0  0  0
 42 43  1  0  0  0  0
 43 44  1  0  0  0  0
 45 44  1  6  0  0  0
 45 48  1  0  0  0  0
 45 54  1  0  0  0  0
 46 48  2  0  0  0  0
 48 47  2  0  0  0  0
 49 48  1  0  0  0  0
 50 49  1  0  0  0  0
 53 52  1  1  0  0  0
 53 50  1  0  0  0  0
 53 51  1  0  0  0  0
 54 56  1  0  0  0  0
 55 57  1  0  0  0  0
 56 58  1  0  0  0  0
 56 59  1  0  0  0  0
 58 55  1  0  0  0  0
 59 57  1  0  0  0  0
M  END
>  <MODEL>
6

>  <REMARK>
 VINA RESULT:      -6.7      2.185      3.901
  Name = 
  20 active torsions:
  status: ('A' for Active; 'I' for Inactive)
    1  A    between atoms: O_1  and  C_7
    2  A    between atoms: O_1  and  C_29
    3  A    between atoms: N_4  and  C_5
    4  A    between atoms: N_4  and  C_38
    5  A    between atoms: C_5  and  C_46
    6  A    between atoms: C_6  and  N_48
    7  A    between atoms: C_6  and  C_52
    8  A    between atoms: C_7  and  C_39
    9  A    between atoms: C_10  and  C_15
   10  A    between atoms: C_10  and  O_17
   11  A    between atoms: C_10  and  S_51
   12  A    between atoms: N_11  and  C_22
   13  A    between atoms: C_14  and  O_17
   14  A    between atoms: C_15  and  C_24
   15  A    between atoms: C_18  and  N_42
   16  A    between atoms: C_24  and  C_31
   17  A    between atoms: C_31  and  C_54
   18  A    between atoms: C_33  and  C_34
   19  A    between atoms: C_36  and  C_54
   20  A    between atoms: N_48  and  S_51
                            x       y       z     vdW  Elec       q    Type
                         _______ _______ _______ _____ _____    ______ ____

>  <TORSDO>
F 20

$$$$
=
 OpenBabel10232409533D

 59 63  0  0  1  0  0  0  0  0999 V2000
  190.8820  176.5770  138.5190 C   0  0  0  0  0  3  0  0  0  0  0  0
  190.5470  176.2420  137.2930 C   0  0  0  0  0  0  0  0  0  0  0  0
  189.0530  176.2850  137.1540 C   0  0  1  0  0  3  0  0  0  0  0  0
  189.6980  176.8620  139.2430 N   0  0  0  0  0  0  0  0  0  0  0  0
  188.5390  176.6950  138.4680 N   0  0  0  0  0  2  0  0  0  0  0  0
  188.8320  178.2770  140.9940 C   0  0  0  0  0  3  0  0  0  0  0  0
  189.6530  177.2900  140.6110 C   0  0  0  0  0  0  0  0  0  0  0  0
  190.5260  176.6130  141.6370 C   0  0  0  0  0  2  0  0  0  0  0  0
  190.1430  178.6810  143.0380 C   0  0  0  0  0  0  0  0  0  0  0  0
  191.1450  177.6300  142.6070 C   0  0  1  0  0  3  0  0  0  0  0  0
  190.4490  179.5090  143.8820 O   0  0  0  0  0  0  0  0  0  0  0  0
  188.7680  178.7140  142.4300 C   0  0  0  0  0  2  0  0  0  0  0  0
  191.6710  176.9240  143.7640 N   0  0  0  0  0  2  0  0  0  0  0  0
  190.5660  176.1820  144.3460 C   0  0  0  0  0  2  0  0  0  0  0  0
  191.3300  176.6470  146.7470 C   0  0  0  0  0  3  0  0  0  0  0  0
  189.5010  177.4550  147.5970 N   0  0  0  0  0  0  0  0  0  0  0  0
  188.5860  178.0390  148.5650 C   0  0  0  0  0  1  0  0  0  0  0  0
  190.7670  177.1630  147.8630 N   0  0  0  0  0  0  0  0  0  0  0  0
  190.3620  176.6160  145.7590 C   0  0  0  0  0  0  0  0  0  0  0  0
  189.2210  177.1410  146.3240 C   0  0  0  0  0  0  0  0  0  0  0  0
  187.9000  177.3430  145.6540 C   0  0  0  0  0  1  0  0  0  0  0  0
  193.7140  175.0290  135.5380 C   0  0  0  0  0  3  0  0  0  0  0  0
  191.0480  175.7720  135.0350 O   0  0  0  0  0  0  0  0  0  0  0  0
  193.4700  175.4110  137.6760 C   0  0  0  0  0  3  0  0  0  0  0  0
  194.9170  174.7410  136.1550 C   0  0  0  0  0  0  0  0  0  0  0  0
  191.4780  175.8100  136.2220 C   0  0  0  0  0  0  0  0  0  0  0  0
  194.7770  174.9890  137.5130 C   0  0  0  0  0  3  0  0  0  0  0  0
  192.8420  175.4280  136.4820 N   0  0  0  0  0  0  0  0  0  0  0  0
  196.1360  174.3270  135.4970 N   0  0  0  0  0  0  0  0  0  0  0  0
  198.3120  175.0240  134.9340 O   0  0  0  0  0  1  0  0  0  0  0  0
  196.3310  172.9260  135.2010 C   0  0  0  0  0  0  0  0  0  0  0  0
  196.6630  176.5840  134.6660 O   0  0  0  0  0  0  0  0  0  0  0  0
  195.3990  172.2740  134.6600 O   0  0  0  0  0  0  0  0  0  0  0  0
  197.0880  175.3100  135.0360 C   0  0  0  0  0  0  0  0  0  0  0  0
  197.6020  172.1980  135.5520 C   0  0  1  0  0  3  0  0  0  0  0  0
  197.8170  172.1720  137.0580 C   0  0  0  0  0  1  0  0  0  0  0  0
  197.6020  170.8980  135.0330 O   0  0  0  0  0  0  0  0  0  0  0  0
  197.8180  170.0640  136.1370 C   0  0  0  0  0  2  0  0  0  0  0  0
  196.6690  169.0760  136.2610 C   0  0  0  0  0  1  0  0  0  0  0  0
  189.3350  178.4770  136.1890 O   0  0  0  0  0  1  0  0  0  0  0  0
  188.6210  177.2760  136.0720 C   0  0  2  0  0  3  0  0  0  0  0  0
  187.1240  177.5300  136.1740 C   0  0  0  0  0  2  0  0  0  0  0  0
  186.3420  176.2920  135.7690 C   0  0  0  0  0  2  0  0  0  0  0  0
  184.8530  176.5160  135.9980 C   0  0  0  0  0  2  0  0  0  0  0  0
  184.2230  175.4170  136.8540 C   0  0  1  0  0  3  0  0  0  0  0  0
  182.9830  175.7490  139.2260 O   0  0  0  0  0  0  0  0  0  0  0  0
  181.5600  175.6150  137.2230 O   0  0  0  0  0  0  0  0  0  0  0  0
  182.8650  176.1280  137.7760 S   0  0  0  0  0  0  0  0  0  0  0  0
  182.9320  177.8500  137.6250 N   0  0  0  0  0  2  0  0  0  0  0  0
  183.0840  178.4030  138.9660 C   0  0  0  0  0  2  0  0  0  0  0  0
  184.4730  180.3540  138.8470 O   0  0  0  0  0  1  0  0  0  0  0  0
  184.9560  178.7890  140.5780 C   0  0  0  0  0  1  0  0  0  0  0  0
  184.4700  178.9900  139.1580 C   0  0  1  0  0  3  0  0  0  0  0  0
  183.7420  174.3910  136.0360 O   0  0  0  0  0  0  0  0  0  0  0  0
  185.0140  171.1300  135.4150 C   0  0  0  0  0  2  0  0  0  0  0  0
  184.4650  173.2500  136.3980 C   0  0  0  0  0  3  0  0  0  0  0  0
  183.7510  170.9220  136.2250 C   0  0  0  0  0  2  0  0  0  0  0  0
  185.0880  172.6150  135.1710 C   0  0  0  0  0  2  0  0  0  0  0  0
  183.5300  172.2150  136.9900 C   0  0  0  0  0  2  0  0  0  0  0  0
  1  4  1  0  0  0  0
  2  1  2  0  0  0  0
  3 41  1  6  0  0  0
  3  2  1  0  0  0  0
  3  5  1  0  0  0  0
  4  7  1  0  0  0  0
  5  4  1  0  0  0  0
  6 12  1  0  0  0  0
  7  6  2  0  0  0  0
  7  8  1  0  0  0  0
  8 10  1  0  0  0  0
  9 11  2  0  0  0  0
 10  9  1  0  0  0  0
 10 13  1  1  0  0  0
 12  9  1  0  0  0  0
 13 14  1  0  0  0  0
 14 19  1  0  0  0  0
 15 18  2  0  0  0  0
 16 18  1  0  0  0  0
 16 17  1  0  0  0  0
 19 20  2  0  0  0  0
 19 15  1  0  0  0  0
 20 16  1  0  0  0  0
 21 20  1  0  0  0  0
 22 25  2  0  0  0  0
 22 28  1  0  0  0  0
 23 26  2  0  0  0  0
 25 27  1  0  0  0  0
 26 28  1  0  0  0  0
 26  2  1  0  0  0  0
 27 24  2  0  0  0  0
 28 24  1  0  0  0  0
 29 25  1  0  0  0  0
 30 34  1  0  0  0  0
 31 29  1  0  0  0  0
 31 35  1  0  0  0  0
 32 34  2  0  0  0  0
 33 31  2  0  0  0  0
 34 29  1  0  0  0  0
 35 36  1  1  0  0  0
 37 35  1  0  0  0  0
 37 38  1  0  0  0  0
 38 39  1  0  0  0  0
 41 42  1  0  0  0  0
 41 40  1  1  0  0  0
 43 44  1  0  0  0  0
 43 42  1  0  0  0  0
 45 44  1  6  0  0  0
 45 48  1  0  0  0  0
 47 48  2  0  0  0  0
 48 46  2  0  0  0  0
 49 48  1  0  0  0  0
 49 50  1  0  0  0  0
 50 53  1  0  0  0  0
 51 53  1  0  0  0  0
 53 52  1  1  0  0  0
 54 56  1  0  0  0  0
 54 45  1  0  0  0  0
 55 57  1  0  0  0  0
 56 59  1  0  0  0  0
 57 59  1  0  0  0  0
 58 55  1  0  0  0  0
 58 56  1  0  0  0  0
M  END
>  <MODEL>
7

>  <REMARK>
 VINA RESULT:      -6.5      2.938      8.104
  Name = 
  20 active torsions:
  status: ('A' for Active; 'I' for Inactive)
    1  A    between atoms: O_1  and  C_7
    2  A    between atoms: O_1  and  C_29
    3  A    between atoms: N_4  and  C_5
    4  A    between atoms: N_4  and  C_38
    5  A    between atoms: C_5  and  C_46
    6  A    between atoms: C_6  and  N_48
    7  A    between atoms: C_6  and  C_52
    8  A    between atoms: C_7  and  C_39
    9  A    between atoms: C_10  and  C_15
   10  A    between atoms: C_10  and  O_17
   11  A    between atoms: C_10  and  S_51
   12  A    between atoms: N_11  and  C_22
   13  A    between atoms: C_14  and  O_17
   14  A    between atoms: C_15  and  C_24
   15  A    between atoms: C_18  and  N_42
   16  A    between atoms: C_24  and  C_31
   17  A    between atoms: C_31  and  C_54
   18  A    between atoms: C_33  and  C_34
   19  A    between atoms: C_36  and  C_54
   20  A    between atoms: N_48  and  S_51
                            x       y       z     vdW  Elec       q    Type
                         _______ _______ _______ _____ _____    ______ ____

>  <TORSDO>
F 20

$$$$
=
 OpenBabel10232409533D

 59 63  0  0  1  0  0  0  0  0999 V2000
  187.9980  176.5600  137.9890 C   0  0  0  0  0  3  0  0  0  0  0  0
  189.2530  176.5190  138.3780 C   0  0  0  0  0  0  0  0  0  0  0  0
  189.5600  177.7350  139.2040 C   0  0  1  0  0  3  0  0  0  0  0  0
  187.4080  177.7390  138.5100 N   0  0  0  0  0  0  0  0  0  0  0  0
  188.3130  178.5090  139.2590 N   0  0  0  0  0  2  0  0  0  0  0  0
  185.4340  178.9460  139.1950 C   0  0  0  0  0  3  0  0  0  0  0  0
  186.0400  178.1250  138.3250 C   0  0  0  0  0  0  0  0  0  0  0  0
  185.2720  177.6170  137.1310 C   0  0  0  0  0  2  0  0  0  0  0  0
  183.2030  178.2170  138.4510 C   0  0  0  0  0  0  0  0  0  0  0  0
  183.8400  177.2140  137.5110 C   0  0  1  0  0  3  0  0  0  0  0  0
  182.0330  178.0940  138.7760 O   0  0  0  0  0  0  0  0  0  0  0  0
  184.0070  179.3670  138.9940 C   0  0  0  0  0  2  0  0  0  0  0  0
  183.0470  177.0780  136.3010 N   0  0  0  0  0  2  0  0  0  0  0  0
  183.1480  175.6910  135.8810 C   0  0  0  0  0  2  0  0  0  0  0  0
  180.7740  175.3750  136.7920 C   0  0  0  0  0  3  0  0  0  0  0  0
  180.8100  173.2550  137.2680 N   0  0  0  0  0  0  0  0  0  0  0  0
  180.3540  171.9460  137.7080 C   0  0  0  0  0  1  0  0  0  0  0  0
  180.0470  174.3390  137.2690 N   0  0  0  0  0  0  0  0  0  0  0  0
  182.0400  174.9020  136.4930 C   0  0  0  0  0  0  0  0  0  0  0  0
  182.0280  173.5590  136.7960 C   0  0  0  0  0  0  0  0  0  0  0  0
  183.1560  172.5910  136.6300 C   0  0  0  0  0  1  0  0  0  0  0  0
  192.5960  174.8180  137.6650 C   0  0  0  0  0  3  0  0  0  0  0  0
  189.8240  174.3360  137.6890 O   0  0  0  0  0  0  0  0  0  0  0  0
  192.2920  176.8880  138.2980 C   0  0  0  0  0  3  0  0  0  0  0  0
  193.8410  175.4090  137.7750 C   0  0  0  0  0  0  0  0  0  0  0  0
  190.2470  175.4830  138.0050 C   0  0  0  0  0  0  0  0  0  0  0  0
  193.6600  176.7280  138.1670 C   0  0  0  0  0  3  0  0  0  0  0  0
  191.6650  175.7320  137.9950 N   0  0  0  0  0  0  0  0  0  0  0  0
  195.1100  174.7900  137.4630 N   0  0  0  0  0  0  0  0  0  0  0  0
  196.7760  173.3610  138.3100 O   0  0  0  0  0  0  0  0  0  0  0  0
  195.5620  174.7730  136.0910 C   0  0  0  0  0  0  0  0  0  0  0  0
  195.9310  174.8920  139.7820 O   0  0  0  0  0  1  0  0  0  0  0  0
  195.5080  175.8320  135.4100 O   0  0  0  0  0  0  0  0  0  0  0  0
  195.9660  174.3040  138.5190 C   0  0  0  0  0  0  0  0  0  0  0  0
  196.0620  173.5200  135.4230 C   0  0  1  0  0  3  0  0  0  0  0  0
  195.0710  173.0240  134.3810 C   0  0  0  0  0  1  0  0  0  0  0  0
  197.3220  173.7200  134.8460 O   0  0  0  0  0  0  0  0  0  0  0  0
  197.9570  172.4740  134.9120 C   0  0  0  0  0  2  0  0  0  0  0  0
  199.4640  172.6720  134.9350 C   0  0  0  0  0  1  0  0  0  0  0  0
  190.0800  175.9570  140.7490 O   0  0  0  0  0  1  0  0  0  0  0  0
  190.0190  177.3510  140.6120 C   0  0  2  0  0  3  0  0  0  0  0  0
  189.0730  177.9490  141.6430 C   0  0  0  0  0  2  0  0  0  0  0  0
  189.5210  177.5930  143.0510 C   0  0  0  0  0  2  0  0  0  0  0  0
  188.5370  178.1520  144.0700 C   0  0  0  0  0  2  0  0  0  0  0  0
  187.9880  177.0720  145.0030 C   0  0  1  0  0  3  0  0  0  0  0  0
  187.2030  177.2770  147.5750 O   0  0  0  0  0  0  0  0  0  0  0  0
  188.7710  178.9790  146.7380 O   0  0  0  0  0  0  0  0  0  0  0  0
  188.3910  177.5210  146.6860 S   0  0  0  0  0  0  0  0  0  0  0  0
  189.7180  176.5490  147.2190 N   0  0  0  0  0  2  0  0  0  0  0  0
  190.8720  176.8900  146.3960 C   0  0  0  0  0  2  0  0  0  0  0  0
  191.8070  175.2220  147.8420 O   0  0  0  0  0  1  0  0  0  0  0  0
  192.2530  175.0020  145.5110 C   0  0  0  0  0  1  0  0  0  0  0  0
  192.0330  175.9520  146.6700 C   0  0  1  0  0  3  0  0  0  0  0  0
  186.6000  176.9810  144.8660 O   0  0  0  0  0  0  0  0  0  0  0  0
  184.1560  179.4980  144.2950 C   0  0  0  0  0  2  0  0  0  0  0  0
  186.1880  178.2210  144.3720 C   0  0  0  0  0  3  0  0  0  0  0  0
  184.2180  178.6980  143.0110 C   0  0  0  0  0  2  0  0  0  0  0  0
  185.0900  178.7930  145.2460 C   0  0  0  0  0  2  0  0  0  0  0  0
  185.5920  178.0520  142.9890 C   0  0  0  0  0  2  0  0  0  0  0  0
  1  2  2  0  0  0  0
  1  4  1  0  0  0  0
  2  3  1  0  0  0  0
  3  5  1  0  0  0  0
  3 41  1  1  0  0  0
  4  5  1  0  0  0  0
  7  4  1  0  0  0  0
  7  6  2  0  0  0  0
  8 10  1  0  0  0  0
  8  7  1  0  0  0  0
  9 11  2  0  0  0  0
  9 12  1  0  0  0  0
 10 13  1  6  0  0  0
 10  9  1  0  0  0  0
 12  6  1  0  0  0  0
 14 13  1  0  0  0  0
 14 19  1  0  0  0  0
 15 18  2  0  0  0  0
 16 18  1  0  0  0  0
 16 17  1  0  0  0  0
 19 15  1  0  0  0  0
 19 20  2  0  0  0  0
 20 16  1  0  0  0  0
 21 20  1  0  0  0  0
 22 25  2  0  0  0  0
 22 28  1  0  0  0  0
 23 26  2  0  0  0  0
 25 27  1  0  0  0  0
 26  2  1  0  0  0  0
 27 24  2  0  0  0  0
 28 26  1  0  0  0  0
 28 24  1  0  0  0  0
 29 25  1  0  0  0  0
 29 34  1  0  0  0  0
 30 34  2  0  0  0  0
 31 29  1  0  0  0  0
 33 31  2  0  0  0  0
 34 32  1  0  0  0  0
 35 36  1  6  0  0  0
 35 31  1  0  0  0  0
 37 38  1  0  0  0  0
 37 35  1  0  0  0  0
 38 39  1  0  0  0  0
 41 40  1  6  0  0  0
 41 42  1  0  0  0  0
 42 43  1  0  0  0  0
 43 44  1  0  0  0  0
 45 44  1  6  0  0  0
 45 48  1  0  0  0  0
 48 47  2  0  0  0  0
 48 49  1  0  0  0  0
 48 46  2  0  0  0  0
 50 53  1  0  0  0  0
 50 49  1  0  0  0  0
 53 52  1  6  0  0  0
 53 51  1  0  0  0  0
 54 45  1  0  0  0  0
 55 58  1  0  0  0  0
 56 54  1  0  0  0  0
 56 58  1  0  0  0  0
 57 55  1  0  0  0  0
 59 57  1  0  0  0  0
 59 56  1  0  0  0  0
M  END
>  <MODEL>
8

>  <REMARK>
 VINA RESULT:      -6.5      2.357      4.389
  Name = 
  20 active torsions:
  status: ('A' for Active; 'I' for Inactive)
    1  A    between atoms: O_1  and  C_7
    2  A    between atoms: O_1  and  C_29
    3  A    between atoms: N_4  and  C_5
    4  A    between atoms: N_4  and  C_38
    5  A    between atoms: C_5  and  C_46
    6  A    between atoms: C_6  and  N_48
    7  A    between atoms: C_6  and  C_52
    8  A    between atoms: C_7  and  C_39
    9  A    between atoms: C_10  and  C_15
   10  A    between atoms: C_10  and  O_17
   11  A    between atoms: C_10  and  S_51
   12  A    between atoms: N_11  and  C_22
   13  A    between atoms: C_14  and  O_17
   14  A    between atoms: C_15  and  C_24
   15  A    between atoms: C_18  and  N_42
   16  A    between atoms: C_24  and  C_31
   17  A    between atoms: C_31  and  C_54
   18  A    between atoms: C_33  and  C_34
   19  A    between atoms: C_36  and  C_54
   20  A    between atoms: N_48  and  S_51
                            x       y       z     vdW  Elec       q    Type
                         _______ _______ _______ _____ _____    ______ ____

>  <TORSDO>
F 20

$$$$
=
 OpenBabel10232409533D

 59 63  0  0  1  0  0  0  0  0999 V2000
  190.3450  176.3000  137.4490 C   0  0  0  0  0  3  0  0  0  0  0  0
  189.4830  177.2920  137.4260 C   0  0  0  0  0  0  0  0  0  0  0  0
  189.3270  177.7850  136.0160 C   0  0  1  0  0  3  0  0  0  0  0  0
  190.7940  176.0680  136.1250 N   0  0  0  0  0  0  0  0  0  0  0  0
  190.2140  176.9480  135.1970 N   0  0  0  0  0  2  0  0  0  0  0  0
  191.4100  173.7490  135.8680 C   0  0  0  0  0  3  0  0  0  0  0  0
  191.7230  175.0470  135.7380 C   0  0  0  0  0  0  0  0  0  0  0  0
  193.0630  175.4300  135.1640 C   0  0  0  0  0  2  0  0  0  0  0  0
  193.7800  173.0890  135.7840 C   0  0  0  0  0  0  0  0  0  0  0  0
  194.1880  174.5460  135.7190 C   0  0  1  0  0  3  0  0  0  0  0  0
  194.5930  172.2390  136.1140 O   0  0  0  0  0  0  0  0  0  0  0  0
  192.3740  172.6780  135.4450 C   0  0  0  0  0  2  0  0  0  0  0  0
  195.3720  174.7060  134.8910 N   0  0  0  0  0  2  0  0  0  0  0  0
  196.1610  175.7750  135.4800 C   0  0  0  0  0  2  0  0  0  0  0  0
  198.6620  175.3980  135.0720 C   0  0  0  0  0  3  0  0  0  0  0  0
  199.2200  174.4010  136.9200 N   0  0  0  0  0  0  0  0  0  0  0  0
  200.0460  173.7590  137.9310 C   0  0  0  0  0  1  0  0  0  0  0  0
  199.6890  174.8570  135.7670 N   0  0  0  0  0  0  0  0  0  0  0  0
  197.5150  175.2590  135.8330 C   0  0  0  0  0  0  0  0  0  0  0  0
  197.9020  174.6330  136.9980 C   0  0  0  0  0  0  0  0  0  0  0  0
  197.0280  174.2760  138.1580 C   0  0  0  0  0  1  0  0  0  0  0  0
  188.5330  178.0230  141.0510 C   0  0  0  0  0  3  0  0  0  0  0  0
  187.9570  178.7990  138.4090 O   0  0  0  0  0  0  0  0  0  0  0  0
  189.9940  176.5540  140.3540 C   0  0  0  0  0  3  0  0  0  0  0  0
  189.0700  177.4040  142.1650 C   0  0  0  0  0  0  0  0  0  0  0  0
  188.8170  177.8950  138.6060 C   0  0  0  0  0  0  0  0  0  0  0  0
  189.9920  176.4620  141.7340 C   0  0  0  0  0  3  0  0  0  0  0  0
  189.1150  177.4970  139.9570 N   0  0  0  0  0  0  0  0  0  0  0  0
  188.6850  177.6390  143.5390 N   0  0  0  0  0  0  0  0  0  0  0  0
  186.9520  177.3180  145.0990 O   0  0  0  0  0  1  0  0  0  0  0  0
  189.7010  178.0100  144.4970 C   0  0  0  0  0  0  0  0  0  0  0  0
  186.3040  177.9600  143.0030 O   0  0  0  0  0  0  0  0  0  0  0  0
  190.5260  178.9160  144.2020 O   0  0  0  0  0  0  0  0  0  0  0  0
  187.2930  177.6180  143.9220 C   0  0  0  0  0  0  0  0  0  0  0  0
  189.8390  177.3250  145.8310 C   0  0  1  0  0  3  0  0  0  0  0  0
  191.2790  176.9020  146.0790 C   0  0  0  0  0  1  0  0  0  0  0  0
  189.3810  178.1420  146.8710 O   0  0  0  0  0  0  0  0  0  0  0  0
  188.9610  177.2590  147.8730 C   0  0  0  0  0  2  0  0  0  0  0  0
  188.2250  178.0310  148.9560 C   0  0  0  0  0  1  0  0  0  0  0  0
  187.1350  178.7880  135.9230 O   0  0  0  0  0  1  0  0  0  0  0  0
  187.8790  177.6630  135.5400 C   0  0  2  0  0  3  0  0  0  0  0  0
  187.2570  176.3930  136.1020 C   0  0  0  0  0  2  0  0  0  0  0  0
  186.6740  175.5420  134.9860 C   0  0  0  0  0  2  0  0  0  0  0  0
  185.1540  175.6210  135.0060 C   0  0  0  0  0  2  0  0  0  0  0  0
  184.5430  174.8030  136.1450 C   0  0  1  0  0  3  0  0  0  0  0  0
  181.9080  174.9190  136.7100 O   0  0  0  0  0  0  0  0  0  0  0  0
  183.0170  177.0240  136.0800 O   0  0  0  0  0  0  0  0  0  0  0  0
  183.1720  175.7250  136.8300 S   0  0  0  0  0  0  0  0  0  0  0  0
  183.4950  176.0430  138.4990 N   0  0  0  0  0  2  0  0  0  0  0  0
  183.0820  177.4160  138.7720 C   0  0  0  0  0  2  0  0  0  0  0  0
  184.6950  179.1890  138.8160 O   0  0  0  0  0  1  0  0  0  0  0  0
  183.5620  178.7100  140.8560 C   0  0  0  0  0  1  0  0  0  0  0  0
  184.1400  178.1520  139.5730 C   0  0  1  0  0  3  0  0  0  0  0  0
  184.0810  173.5770  135.6590 O   0  0  0  0  0  0  0  0  0  0  0  0
  186.9900  172.4160  137.3410 C   0  0  0  0  0  2  0  0  0  0  0  0
  184.8170  172.6010  136.3380 C   0  0  0  0  0  3  0  0  0  0  0  0
  187.1230  171.9190  135.9180 C   0  0  0  0  0  2  0  0  0  0  0  0
  185.7350  173.2500  137.3540 C   0  0  0  0  0  2  0  0  0  0  0  0
  185.7110  171.8600  135.3630 C   0  0  0  0  0  2  0  0  0  0  0  0
  2  1  2  0  0  0  0
  2 26  1  0  0  0  0
  3 41  1  6  0  0  0
  3  2  1  0  0  0  0
  4  1  1  0  0  0  0
  5  3  1  0  0  0  0
  5  4  1  0  0  0  0
  7  6  2  0  0  0  0
  7  4  1  0  0  0  0
  8 10  1  0  0  0  0
  8  7  1  0  0  0  0
  9 11  2  0  0  0  0
 10 13  1  6  0  0  0
 10  9  1  0  0  0  0
 12  9  1  0  0  0  0
 12  6  1  0  0  0  0
 13 14  1  0  0  0  0
 14 19  1  0  0  0  0
 15 18  2  0  0  0  0
 15 19  1  0  0  0  0
 16 20  1  0  0  0  0
 16 17  1  0  0  0  0
 18 16  1  0  0  0  0
 19 20  2  0  0  0  0
 20 21  1  0  0  0  0
 22 25  2  0  0  0  0
 23 26  2  0  0  0  0
 24 27  2  0  0  0  0
 25 29  1  0  0  0  0
 26 28  1  0  0  0  0
 27 25  1  0  0  0  0
 28 24  1  0  0  0  0
 28 22  1  0  0  0  0
 29 34  1  0  0  0  0
 29 31  1  0  0  0  0
 31 35  1  0  0  0  0
 32 34  2  0  0  0  0
 33 31  2  0  0  0  0
 34 30  1  0  0  0  0
 35 36  1  1  0  0  0
 35 37  1  0  0  0  0
 37 38  1  0  0  0  0
 38 39  1  0  0  0  0
 41 40  1  1  0  0  0
 41 42  1  0  0  0  0
 43 44  1  0  0  0  0
 43 42  1  0  0  0  0
 45 44  1  6  0  0  0
 45 48  1  0  0  0  0
 46 48  2  0  0  0  0
 47 48  2  0  0  0  0
 48 49  1  0  0  0  0
 49 50  1  0  0  0  0
 50 53  1  0  0  0  0
 51 53  1  0  0  0  0
 53 52  1  1  0  0  0
 54 45  1  0  0  0  0
 54 56  1  0  0  0  0
 55 58  1  0  0  0  0
 56 58  1  0  0  0  0
 57 55  1  0  0  0  0
 59 57  1  0  0  0  0
 59 56  1  0  0  0  0
M  END
>  <MODEL>
9

>  <REMARK>
 VINA RESULT:      -6.5      2.758      9.780
  Name = 
  20 active torsions:
  status: ('A' for Active; 'I' for Inactive)
    1  A    between atoms: O_1  and  C_7
    2  A    between atoms: O_1  and  C_29
    3  A    between atoms: N_4  and  C_5
    4  A    between atoms: N_4  and  C_38
    5  A    between atoms: C_5  and  C_46
    6  A    between atoms: C_6  and  N_48
    7  A    between atoms: C_6  and  C_52
    8  A    between atoms: C_7  and  C_39
    9  A    between atoms: C_10  and  C_15
   10  A    between atoms: C_10  and  O_17
   11  A    between atoms: C_10  and  S_51
   12  A    between atoms: N_11  and  C_22
   13  A    between atoms: C_14  and  O_17
   14  A    between atoms: C_15  and  C_24
   15  A    between atoms: C_18  and  N_42
   16  A    between atoms: C_24  and  C_31
   17  A    between atoms: C_31  and  C_54
   18  A    between atoms: C_33  and  C_34
   19  A    between atoms: C_36  and  C_54
   20  A    between atoms: N_48  and  S_51
                            x       y       z     vdW  Elec       q    Type
                         _______ _______ _______ _____ _____    ______ ____

>  <TORSDO>
F 20

$$$$
