=
 OpenBabel10232408223D

 30 34  0  0  1  0  0  0  0  0999 V2000
  192.4070  178.7670  144.8500 O   0  0  0  0  0  1  0  0  0  0  0  0
  191.3240  178.3030  144.1040 C   0  0  2  0  0  0  0  0  0  0  0  0
  190.7550  176.3680  143.0130 C   0  0  1  0  0  3  0  0  0  0  0  0
  190.1760  178.2030  144.8390 O   0  0  0  0  0  0  0  0  0  0  0  0
  190.7750  176.9510  144.4640 C   0  0  2  0  0  0  0  0  0  0  0  0
  191.1100  178.7760  142.6950 C   0  0  0  0  0  2  0  0  0  0  0  0
  189.5420  176.2090  143.8600 C   0  0  1  0  0  3  0  0  0  0  0  0
  190.8250  177.4940  141.9610 C   0  0  2  0  0  3  0  0  0  0  0  0
  188.5870  177.1700  138.8390 C   0  0  0  0  0  0  0  0  0  0  0  0
  189.6750  176.7570  139.7980 C   0  0  0  0  0  0  0  0  0  0  0  0
  192.3720  176.4030  137.1690 N   0  0  0  0  0  1  0  0  0  0  0  0
  188.4700  178.2540  141.4210 C   0  0  0  0  0  3  0  0  0  0  0  0
  187.4560  178.3800  140.5650 C   0  0  0  0  0  0  0  0  0  0  0  0
  189.9060  176.4550  136.9740 N   0  0  0  0  0  0  0  0  0  0  0  0
  188.7290  176.7690  137.4340 C   0  0  0  0  0  2  0  0  0  0  0  0
  187.5650  177.8680  139.2290 N   0  0  0  0  0  0  0  0  0  0  0  0
  191.0940  176.5200  137.7840 C   0  0  0  0  0  0  0  0  0  0  0  0
  189.6700  177.5480  141.0440 N   0  0  0  0  0  0  0  0  0  0  0  0
  191.0150  176.7280  139.1070 C   0  0  0  0  0  3  0  0  0  0  0  0
  186.2450  179.1550  140.9610 C   0  0  0  0  0  2  0  0  0  0  0  0
  185.1010  178.8650  140.0460 C   0  0  0  0  0  3  0  0  0  0  0  0
  184.5500  179.8100  139.3780 N   0  0  0  0  0  2  0  0  0  0  0  0
  188.4770  177.0680  143.4530 O   0  0  0  0  0  0  0  0  0  0  0  0
  186.2020  176.8520  143.6170 O   0  0  0  0  0  0  0  0  0  0  0  0
  187.2980  177.5740  145.5480 N   0  0  0  0  0  2  0  0  0  0  0  0
  187.2880  177.1510  144.1800 C   0  0  0  0  0  0  0  0  0  0  0  0
  186.0730  177.7040  146.3230 C   0  0  0  0  0  2  0  0  0  0  0  0
  185.4580  179.0760  146.0970 C   0  0  0  0  0  2  0  0  0  0  0  0
  184.1420  178.9600  145.3430 C   0  0  0  0  0  2  0  0  0  0  0  0
  184.2370  179.6480  144.0650 N   0  0  0  0  0  1  0  0  0  0  0  0
  2  5  1  0  0  0  0
  2  4  1  0  0  0  0
  2  1  1  1  0  0  0
  3  7  1  0  0  0  0
  3  5  1  0  0  0  0
  5  4  1  0  0  0  0
  6  2  1  0  0  0  0
  7  5  1  0  0  0  0
  8  6  1  0  0  0  0
  8  3  1  0  0  0  0
  9 16  2  0  0  0  0
  9 10  1  0  0  0  0
 10 18  1  0  0  0  0
 11 17  1  0  0  0  0
 13 20  1  0  0  0  0
 13 12  2  0  0  0  0
 14 15  1  0  0  0  0
 14 17  2  0  0  0  0
 15  9  1  0  0  0  0
 16 13  1  0  0  0  0
 17 19  1  0  0  0  0
 18 12  1  0  0  0  0
 18  8  1  0  0  0  0
 19 10  2  0  0  0  0
 21 20  1  0  0  0  0
 22 21  2  0  0  0  0
 23  7  1  0  0  0  0
 23 26  1  0  0  0  0
 24 26  2  0  0  0  0
 25 27  1  0  0  0  0
 26 25  1  0  0  0  0
 28 27  1  0  0  0  0
 29 28  1  0  0  0  0
 30 29  1  0  0  0  0
M  END
>  <MODEL>
1

>  <REMARK>
 VINA RESULT:      -6.5      0.000      0.000
  Name = 
  8 active torsions:
  status: ('A' for Active; 'I' for Inactive)
    1  A    between atoms: C_6  and  C_12
    2  A    between atoms: C_6  and  C_23
    3  A    between atoms: C_8  and  C_27
    4  A    between atoms: N_11  and  C_16
    5  A    between atoms: O_13  and  C_15
    6  A    between atoms: O_13  and  C_24
    7  A    between atoms: C_16  and  C_27
    8  A    between atoms: N_25  and  C_26
                            x       y       z     vdW  Elec       q    Type
                         _______ _______ _______ _____ _____    ______ ____

>  <TORSDO>
F 8

$$$$
=
 OpenBabel10232408223D

 30 34  0  0  1  0  0  0  0  0999 V2000
  194.3850  175.8530  134.7990 O   0  0  0  0  0  1  0  0  0  0  0  0
  193.2470  175.7940  135.6040 C   0  0  2  0  0  0  0  0  0  0  0  0
  192.0800  174.1700  136.7260 C   0  0  1  0  0  3  0  0  0  0  0  0
  193.3930  176.4750  136.7800 O   0  0  0  0  0  0  0  0  0  0  0  0
  193.3660  175.0420  136.9000 C   0  0  2  0  0  0  0  0  0  0  0  0
  191.8780  175.9020  134.9990 C   0  0  0  0  0  2  0  0  0  0  0  0
  192.2980  174.8660  138.0240 C   0  0  1  0  0  3  0  0  0  0  0  0
  191.1350  174.7790  135.6690 C   0  0  2  0  0  3  0  0  0  0  0  0
  187.4960  174.5630  136.9230 C   0  0  0  0  0  0  0  0  0  0  0  0
  188.9210  174.0990  136.7550 C   0  0  2  0  0  3  0  0  0  0  0  0
  188.0400  170.6670  135.4290 N   0  0  0  0  0  1  0  0  0  0  0  0
  189.3880  176.5180  136.2510 C   0  0  0  0  0  3  0  0  0  0  0  0
  188.1510  176.8440  136.6280 C   0  0  0  0  0  0  0  0  0  0  0  0
  186.6970  172.3180  136.6900 N   0  0  0  0  0  0  0  0  0  0  0  0
  186.4600  173.5360  137.0870 C   0  0  0  0  0  3  0  0  0  0  0  0
  187.1840  175.8220  136.9080 N   0  0  0  0  0  0  0  0  0  0  0  0
  187.9330  171.9400  136.0570 C   0  0  0  0  0  0  0  0  0  0  0  0
  189.7970  175.1370  136.1780 N   0  0  0  0  0  0  0  0  0  0  0  0
  188.9730  172.7860  136.0150 C   0  0  0  0  0  3  0  0  0  0  0  0
  187.7370  178.2760  136.6500 C   0  0  0  0  0  2  0  0  0  0  0  0
  188.8290  179.1410  137.1880 C   0  0  0  0  0  3  0  0  0  0  0  0
  188.9800  179.2810  138.4530 N   0  0  0  0  0  2  0  0  0  0  0  0
  191.4300  175.9850  138.1950 O   0  0  0  0  0  0  0  0  0  0  0  0
  192.2070  177.3250  139.8820 O   0  0  0  0  0  0  0  0  0  0  0  0
  190.0750  176.4290  140.1960 N   0  0  0  0  0  2  0  0  0  0  0  0
  191.2750  176.6060  139.4360 C   0  0  0  0  0  0  0  0  0  0  0  0
  189.8960  177.0360  141.5070 C   0  0  0  0  0  2  0  0  0  0  0  0
  190.2200  176.0240  142.5950 C   0  0  0  0  0  2  0  0  0  0  0  0
  191.5260  176.3780  143.2900 C   0  0  0  0  0  2  0  0  0  0  0  0
  191.6730  177.8220  143.3730 N   0  0  0  0  0  1  0  0  0  0  0  0
  2  1  1  6  0  0  0
  2  4  1  0  0  0  0
  2  5  1  0  0  0  0
  3  5  1  0  0  0  0
  3  7  1  0  0  0  0
  4  5  1  0  0  0  0
  5  7  1  0  0  0  0
  6  2  1  0  0  0  0
  6  8  1  0  0  0  0
  7 23  1  0  0  0  0
  8 18  1  0  0  0  0
  8  3  1  0  0  0  0
  9 15  1  0  0  0  0
 10  9  1  0  0  0  0
 11 17  1  0  0  0  0
 12 13  2  0  0  0  0
 13 20  1  0  0  0  0
 13 16  1  0  0  0  0
 14 15  2  0  0  0  0
 16  9  2  0  0  0  0
 17 14  1  0  0  0  0
 18 12  1  0  0  0  0
 18 10  1  0  0  0  0
 19 17  2  0  0  0  0
 19 10  1  0  0  0  0
 20 21  1  0  0  0  0
 21 22  2  0  0  0  0
 23 26  1  0  0  0  0
 25 27  1  0  0  0  0
 26 24  2  0  0  0  0
 26 25  1  0  0  0  0
 27 28  1  0  0  0  0
 28 29  1  0  0  0  0
 29 30  1  0  0  0  0
M  END
>  <MODEL>
2

>  <REMARK>
 VINA RESULT:      -6.3      3.971      6.480
  Name = 
  8 active torsions:
  status: ('A' for Active; 'I' for Inactive)
    1  A    between atoms: C_6  and  C_12
    2  A    between atoms: C_6  and  C_23
    3  A    between atoms: C_8  and  C_27
    4  A    between atoms: N_11  and  C_16
    5  A    between atoms: O_13  and  C_15
    6  A    between atoms: O_13  and  C_24
    7  A    between atoms: C_16  and  C_27
    8  A    between atoms: N_25  and  C_26
                            x       y       z     vdW  Elec       q    Type
                         _______ _______ _______ _____ _____    ______ ____

>  <TORSDO>
F 8

$$$$
=
 OpenBabel10232408223D

 30 34  0  0  1  0  0  0  0  0999 V2000
  181.1280  180.2320  137.7840 O   0  0  0  0  0  1  0  0  0  0  0  0
  182.0820  179.4070  138.3810 C   0  0  2  0  0  0  0  0  0  0  0  0
  182.2230  178.1180  140.2730 C   0  0  1  0  0  3  0  0  0  0  0  0
  182.3750  178.3030  137.6310 O   0  0  0  0  0  0  0  0  0  0  0  0
  181.6240  178.0470  138.8300 C   0  0  2  0  0  0  0  0  0  0  0  0
  183.2660  179.9990  139.0890 C   0  0  0  0  0  2  0  0  0  0  0  0
  182.4690  176.8960  139.4600 C   0  0  1  0  0  3  0  0  0  0  0  0
  183.3060  179.2140  140.3720 C   0  0  2  0  0  3  0  0  0  0  0  0
  186.3040  177.9340  142.4280 C   0  0  0  0  0  0  0  0  0  0  0  0
  184.8470  178.0810  142.0690 C   0  0  2  0  0  3  0  0  0  0  0  0
  183.7290  179.2000  145.5060 N   0  0  0  0  0  1  0  0  0  0  0  0
  185.7250  178.7280  139.8040 C   0  0  0  0  0  3  0  0  0  0  0  0
  186.9560  178.3650  140.1670 C   0  0  0  0  0  0  0  0  0  0  0  0
  185.7790  178.0310  144.7620 N   0  0  0  0  0  0  0  0  0  0  0  0
  186.6390  177.7060  143.8390 C   0  0  0  0  0  3  0  0  0  0  0  0
  187.2380  178.0210  141.5320 N   0  0  0  0  0  0  0  0  0  0  0  0
  184.5140  178.6470  144.4560 C   0  0  0  0  0  0  0  0  0  0  0  0
  184.6430  178.7220  140.7560 N   0  0  0  0  0  0  0  0  0  0  0  0
  184.0840  178.7430  143.1890 C   0  0  0  0  0  3  0  0  0  0  0  0
  188.0690  178.4250  139.1770 C   0  0  0  0  0  2  0  0  0  0  0  0
  189.3200  177.8390  139.7420 C   0  0  0  0  0  3  0  0  0  0  0  0
  189.9000  176.8590  139.1530 N   0  0  0  0  0  2  0  0  0  0  0  0
  183.8110  176.8180  138.9830 O   0  0  0  0  0  0  0  0  0  0  0  0
  185.0350  176.2950  137.1190 O   0  0  0  0  0  0  0  0  0  0  0  0
  183.5770  174.6380  137.8760 N   0  0  0  0  0  2  0  0  0  0  0  0
  184.1740  175.9360  137.9650 C   0  0  0  0  0  0  0  0  0  0  0  0
  183.9090  173.7070  136.8080 C   0  0  0  0  0  2  0  0  0  0  0  0
  184.7120  172.5420  137.3640 C   0  0  0  0  0  2  0  0  0  0  0  0
  186.1910  172.8940  137.4390 C   0  0  0  0  0  2  0  0  0  0  0  0
  186.6400  173.4350  136.1660 N   0  0  0  0  0  1  0  0  0  0  0  0
  2  1  1  6  0  0  0
  2  5  1  0  0  0  0
  2  6  1  0  0  0  0
  3  8  1  0  0  0  0
  4  2  1  0  0  0  0
  4  5  1  0  0  0  0
  5  7  1  0  0  0  0
  5  3  1  0  0  0  0
  6  8  1  0  0  0  0
  7  3  1  0  0  0  0
  8 18  1  0  0  0  0
  9 15  1  0  0  0  0
 10  9  1  0  0  0  0
 10 19  1  0  0  0  0
 12 13  2  0  0  0  0
 12 18  1  0  0  0  0
 13 16  1  0  0  0  0
 15 14  2  0  0  0  0
 16  9  2  0  0  0  0
 17 14  1  0  0  0  0
 17 11  1  0  0  0  0
 18 10  1  0  0  0  0
 19 17  2  0  0  0  0
 20 21  1  0  0  0  0
 20 13  1  0  0  0  0
 22 21  2  0  0  0  0
 23  7  1  0  0  0  0
 24 26  2  0  0  0  0
 25 26  1  0  0  0  0
 26 23  1  0  0  0  0
 27 28  1  0  0  0  0
 27 25  1  0  0  0  0
 28 29  1  0  0  0  0
 30 29  1  0  0  0  0
M  END
>  <MODEL>
3

>  <REMARK>
 VINA RESULT:      -6.1      3.822      8.311
  Name = 
  8 active torsions:
  status: ('A' for Active; 'I' for Inactive)
    1  A    between atoms: C_6  and  C_12
    2  A    between atoms: C_6  and  C_23
    3  A    between atoms: C_8  and  C_27
    4  A    between atoms: N_11  and  C_16
    5  A    between atoms: O_13  and  C_15
    6  A    between atoms: O_13  and  C_24
    7  A    between atoms: C_16  and  C_27
    8  A    between atoms: N_25  and  C_26
                            x       y       z     vdW  Elec       q    Type
                         _______ _______ _______ _____ _____    ______ ____

>  <TORSDO>
F 8

$$$$
=
 OpenBabel10232408223D

 30 34  0  0  1  0  0  0  0  0999 V2000
  187.4300  179.6900  136.1500 O   0  0  0  0  0  1  0  0  0  0  0  0
  188.0910  178.7590  136.9510 C   0  0  2  0  0  0  0  0  0  0  0  0
  187.5020  177.1610  138.4860 C   0  0  1  0  0  3  0  0  0  0  0  0
  188.7360  177.7960  136.2250 O   0  0  0  0  0  0  0  0  0  0  0  0
  187.5670  177.3500  136.9350 C   0  0  2  0  0  0  0  0  0  0  0  0
  188.8330  179.2000  138.1790 C   0  0  0  0  0  2  0  0  0  0  0  0
  188.1350  176.0930  137.6650 C   0  0  1  0  0  3  0  0  0  0  0  0
  188.3770  178.2040  139.2110 C   0  0  2  0  0  3  0  0  0  0  0  0
  190.3380  176.6760  142.1570 C   0  0  0  0  0  0  0  0  0  0  0  0
  189.1300  176.9090  141.2840 C   0  0  2  0  0  3  0  0  0  0  0  0
  186.8120  177.8870  144.1090 N   0  0  0  0  0  1  0  0  0  0  0  0
  190.8200  177.6400  139.5700 C   0  0  0  0  0  3  0  0  0  0  0  0
  191.8110  177.2010  140.3470 C   0  0  0  0  0  0  0  0  0  0  0  0
  188.9660  176.6680  144.1190 N   0  0  0  0  0  0  0  0  0  0  0  0
  190.1050  176.3550  143.5700 C   0  0  0  0  0  3  0  0  0  0  0  0
  191.5440  176.7700  141.6890 N   0  0  0  0  0  0  0  0  0  0  0  0
  187.9260  177.3580  143.3990 C   0  0  0  0  0  0  0  0  0  0  0  0
  189.4560  177.6310  140.0380 N   0  0  0  0  0  0  0  0  0  0  0  0
  188.0130  177.5420  142.0740 C   0  0  0  0  0  3  0  0  0  0  0  0
  193.2180  177.2650  139.8590 C   0  0  0  0  0  2  0  0  0  0  0  0
  193.3380  176.6770  138.4920 C   0  0  0  0  0  3  0  0  0  0  0  0
  194.1650  175.7230  138.2670 N   0  0  0  0  0  2  0  0  0  0  0  0
  189.5560  176.0760  137.7950 O   0  0  0  0  0  0  0  0  0  0  0  0
  190.8610  174.2000  137.9500 O   0  0  0  0  0  0  0  0  0  0  0  0
  190.5250  175.0290  135.7950 N   0  0  0  0  0  2  0  0  0  0  0  0
  190.3310  175.0720  137.2130 C   0  0  0  0  0  0  0  0  0  0  0  0
  191.3540  174.0150  135.1600 C   0  0  0  0  0  2  0  0  0  0  0  0
  192.7490  174.5660  134.9120 C   0  0  0  0  0  2  0  0  0  0  0  0
  192.6800  175.9760  134.3460 C   0  0  0  0  0  2  0  0  0  0  0  0
  193.8710  176.7230  134.7190 N   0  0  0  0  0  1  0  0  0  0  0  0
  2  1  1  6  0  0  0
  2  6  1  0  0  0  0
  3  8  1  0  0  0  0
  4  5  1  0  0  0  0
  4  2  1  0  0  0  0
  5  2  1  0  0  0  0
  5  7  1  0  0  0  0
  5  3  1  0  0  0  0
  6  8  1  0  0  0  0
  7 23  1  0  0  0  0
  7  3  1  0  0  0  0
  8 18  1  0  0  0  0
  9 15  1  0  0  0  0
 10 19  1  0  0  0  0
 10  9  1  0  0  0  0
 12 18  1  0  0  0  0
 12 13  2  0  0  0  0
 13 16  1  0  0  0  0
 15 14  2  0  0  0  0
 16  9  2  0  0  0  0
 17 11  1  0  0  0  0
 17 14  1  0  0  0  0
 18 10  1  0  0  0  0
 19 17  2  0  0  0  0
 20 13  1  0  0  0  0
 21 20  1  0  0  0  0
 22 21  2  0  0  0  0
 25 26  1  0  0  0  0
 26 23  1  0  0  0  0
 26 24  2  0  0  0  0
 27 25  1  0  0  0  0
 28 27  1  0  0  0  0
 29 30  1  0  0  0  0
 29 28  1  0  0  0  0
M  END
>  <MODEL>
4

>  <REMARK>
 VINA RESULT:      -6.0      3.416      8.139
  Name = 
  8 active torsions:
  status: ('A' for Active; 'I' for Inactive)
    1  A    between atoms: C_6  and  C_12
    2  A    between atoms: C_6  and  C_23
    3  A    between atoms: C_8  and  C_27
    4  A    between atoms: N_11  and  C_16
    5  A    between atoms: O_13  and  C_15
    6  A    between atoms: O_13  and  C_24
    7  A    between atoms: C_16  and  C_27
    8  A    between atoms: N_25  and  C_26
                            x       y       z     vdW  Elec       q    Type
                         _______ _______ _______ _____ _____    ______ ____

>  <TORSDO>
F 8

$$$$
=
 OpenBabel10232408223D

 30 34  0  0  1  0  0  0  0  0999 V2000
  185.8140  175.3990  135.9930 O   0  0  0  0  0  1  0  0  0  0  0  0
  186.5110  176.1350  136.9520 C   0  0  2  0  0  0  0  0  0  0  0  0
  188.0890  177.7990  136.9550 C   0  0  1  0  0  3  0  0  0  0  0  0
  185.6960  176.9330  137.7050 O   0  0  0  0  0  0  0  0  0  0  0  0
  186.5450  177.6280  136.7750 C   0  0  2  0  0  0  0  0  0  0  0  0
  187.6390  175.5100  137.7200 C   0  0  0  0  0  2  0  0  0  0  0  0
  187.1800  178.7030  137.7110 C   0  0  1  0  0  3  0  0  0  0  0  0
  188.7080  176.5660  137.6470 C   0  0  2  0  0  3  0  0  0  0  0  0
  191.4070  177.2880  140.3030 C   0  0  0  0  0  0  0  0  0  0  0  0
  190.7720  177.3530  138.9370 C   0  0  2  0  0  3  0  0  0  0  0  0
  193.8040  176.0890  137.0600 N   0  0  0  0  0  1  0  0  0  0  0  0
  188.6510  176.7990  140.1680 C   0  0  0  0  0  3  0  0  0  0  0  0
  189.2710  176.9750  141.3350 C   0  0  0  0  0  0  0  0  0  0  0  0
  193.5800  177.0560  139.3260 N   0  0  0  0  0  0  0  0  0  0  0  0
  192.8710  177.3520  140.3790 C   0  0  0  0  0  3  0  0  0  0  0  0
  190.6930  177.1640  141.3800 N   0  0  0  0  0  0  0  0  0  0  0  0
  192.9820  176.6290  138.0880 C   0  0  0  0  0  0  0  0  0  0  0  0
  189.3820  176.8560  138.9280 N   0  0  0  0  0  0  0  0  0  0  0  0
  191.6550  176.6960  137.9060 C   0  0  0  0  0  3  0  0  0  0  0  0
  188.5020  176.8640  142.6070 C   0  0  0  0  0  2  0  0  0  0  0  0
  189.4190  176.8130  143.7850 C   0  0  0  0  0  3  0  0  0  0  0  0
  189.4140  177.7580  144.6510 N   0  0  0  0  0  2  0  0  0  0  0  0
  187.1260  178.3840  139.1010 O   0  0  0  0  0  0  0  0  0  0  0  0
  185.1730  179.5380  139.4170 O   0  0  0  0  0  0  0  0  0  0  0  0
  186.2010  178.7290  141.3500 N   0  0  0  0  0  2  0  0  0  0  0  0
  186.1330  178.9060  139.9310 C   0  0  0  0  0  0  0  0  0  0  0  0
  185.1990  179.2890  142.2460 C   0  0  0  0  0  2  0  0  0  0  0  0
  185.0550  178.4090  143.4780 C   0  0  0  0  0  2  0  0  0  0  0  0
  183.8120  178.7880  144.2690 C   0  0  0  0  0  2  0  0  0  0  0  0
  184.1160  178.8290  145.6900 N   0  0  0  0  0  1  0  0  0  0  0  0
  2  1  1  6  0  0  0
  2  4  1  0  0  0  0
  2  6  1  0  0  0  0
  3  8  1  0  0  0  0
  3  7  1  0  0  0  0
  5  2  1  0  0  0  0
  5  3  1  0  0  0  0
  5  4  1  0  0  0  0
  5  7  1  0  0  0  0
  7 23  1  0  0  0  0
  8  6  1  0  0  0  0
  8 18  1  0  0  0  0
  9 15  1  0  0  0  0
  9 16  2  0  0  0  0
 10  9  1  0  0  0  0
 11 17  1  0  0  0  0
 12 13  2  0  0  0  0
 13 16  1  0  0  0  0
 13 20  1  0  0  0  0
 14 15  2  0  0  0  0
 17 14  1  0  0  0  0
 18 10  1  0  0  0  0
 18 12  1  0  0  0  0
 19 17  2  0  0  0  0
 19 10  1  0  0  0  0
 20 21  1  0  0  0  0
 21 22  2  0  0  0  0
 23 26  1  0  0  0  0
 24 26  2  0  0  0  0
 25 27  1  0  0  0  0
 26 25  1  0  0  0  0
 27 28  1  0  0  0  0
 28 29  1  0  0  0  0
 29 30  1  0  0  0  0
M  END
>  <MODEL>
5

>  <REMARK>
 VINA RESULT:      -6.0      2.782      5.332
  Name = 
  8 active torsions:
  status: ('A' for Active; 'I' for Inactive)
    1  A    between atoms: C_6  and  C_12
    2  A    between atoms: C_6  and  C_23
    3  A    between atoms: C_8  and  C_27
    4  A    between atoms: N_11  and  C_16
    5  A    between atoms: O_13  and  C_15
    6  A    between atoms: O_13  and  C_24
    7  A    between atoms: C_16  and  C_27
    8  A    between atoms: N_25  and  C_26
                            x       y       z     vdW  Elec       q    Type
                         _______ _______ _______ _____ _____    ______ ____

>  <TORSDO>
F 8

$$$$
=
 OpenBabel10232408223D

 30 34  0  0  1  0  0  0  0  0999 V2000
  190.3280  177.5820  134.3460 O   0  0  0  0  0  1  0  0  0  0  0  0
  189.4280  177.2160  135.3470 C   0  0  2  0  0  0  0  0  0  0  0  0
  188.9710  175.3320  136.5730 C   0  0  1  0  0  3  0  0  0  0  0  0
  189.6200  177.9040  136.5120 O   0  0  0  0  0  0  0  0  0  0  0  0
  189.9930  176.5160  136.5510 C   0  0  2  0  0  0  0  0  0  0  0  0
  187.9870  176.9570  135.0180 C   0  0  0  0  0  2  0  0  0  0  0  0
  189.2520  176.0530  137.8440 C   0  0  1  0  0  3  0  0  0  0  0  0
  187.7100  175.6720  135.7500 C   0  0  2  0  0  3  0  0  0  0  0  0
  184.5040  174.4920  137.5350 C   0  0  0  0  0  0  0  0  0  0  0  0
  185.9330  174.3850  137.0640 C   0  0  2  0  0  3  0  0  0  0  0  0
  185.5140  171.0260  135.3730 N   0  0  0  0  0  1  0  0  0  0  0  0
  185.7980  176.8900  136.8800 C   0  0  0  0  0  3  0  0  0  0  0  0
  184.6200  176.8810  137.5020 C   0  0  0  0  0  0  0  0  0  0  0  0
  184.1400  172.1700  137.0840 N   0  0  0  0  0  0  0  0  0  0  0  0
  183.7460  173.2460  137.7030 C   0  0  0  0  0  3  0  0  0  0  0  0
  183.9500  175.6410  137.7720 N   0  0  0  0  0  0  0  0  0  0  0  0
  185.2790  172.1580  136.2040 C   0  0  0  0  0  0  0  0  0  0  0  0
  186.4530  175.6560  136.5220 N   0  0  0  0  0  0  0  0  0  0  0  0
  186.1000  173.2160  136.1270 C   0  0  0  0  0  3  0  0  0  0  0  0
  183.9400  178.1700  137.8180 C   0  0  0  0  0  2  0  0  0  0  0  0
  184.1500  178.5500  139.2470 C   0  0  0  0  0  3  0  0  0  0  0  0
  184.5090  179.7410  139.5540 N   0  0  0  0  0  2  0  0  0  0  0  0
  188.1730  176.8980  138.2410 O   0  0  0  0  0  0  0  0  0  0  0  0
  187.6770  178.7880  139.4360 O   0  0  0  0  0  0  0  0  0  0  0  0
  188.9210  177.1690  140.5650 N   0  0  0  0  0  2  0  0  0  0  0  0
  188.2340  177.6600  139.4090 C   0  0  0  0  0  0  0  0  0  0  0  0
  189.0320  177.9520  141.7870 C   0  0  0  0  0  2  0  0  0  0  0  0
  188.2480  177.2830  142.9050 C   0  0  0  0  0  2  0  0  0  0  0  0
  188.8580  177.6080  144.2610 C   0  0  0  0  0  2  0  0  0  0  0  0
  187.9240  177.2710  145.3230 N   0  0  0  0  0  1  0  0  0  0  0  0
  2  1  1  6  0  0  0
  2  4  1  0  0  0  0
  2  5  1  0  0  0  0
  3  7  1  0  0  0  0
  4  5  1  0  0  0  0
  5  3  1  0  0  0  0
  5  7  1  0  0  0  0
  6  2  1  0  0  0  0
  6  8  1  0  0  0  0
  7 23  1  0  0  0  0
  8 18  1  0  0  0  0
  8  3  1  0  0  0  0
  9 15  1  0  0  0  0
  9 16  2  0  0  0  0
 10  9  1  0  0  0  0
 11 17  1  0  0  0  0
 12 13  2  0  0  0  0
 13 16  1  0  0  0  0
 13 20  1  0  0  0  0
 14 15  2  0  0  0  0
 17 14  1  0  0  0  0
 18 12  1  0  0  0  0
 18 10  1  0  0  0  0
 19 17  2  0  0  0  0
 19 10  1  0  0  0  0
 20 21  1  0  0  0  0
 21 22  2  0  0  0  0
 23 26  1  0  0  0  0
 25 27  1  0  0  0  0
 26 24  2  0  0  0  0
 26 25  1  0  0  0  0
 27 28  1  0  0  0  0
 28 29  1  0  0  0  0
 29 30  1  0  0  0  0
M  END
>  <MODEL>
6

>  <REMARK>
 VINA RESULT:      -5.9      4.105      6.267
  Name = 
  8 active torsions:
  status: ('A' for Active; 'I' for Inactive)
    1  A    between atoms: C_6  and  C_12
    2  A    between atoms: C_6  and  C_23
    3  A    between atoms: C_8  and  C_27
    4  A    between atoms: N_11  and  C_16
    5  A    between atoms: O_13  and  C_15
    6  A    between atoms: O_13  and  C_24
    7  A    between atoms: C_16  and  C_27
    8  A    between atoms: N_25  and  C_26
                            x       y       z     vdW  Elec       q    Type
                         _______ _______ _______ _____ _____    ______ ____

>  <TORSDO>
F 8

$$$$
=
 OpenBabel10232408223D

 30 34  0  0  1  0  0  0  0  0999 V2000
  190.7510  174.9910  143.3480 O   0  0  0  0  0  1  0  0  0  0  0  0
  189.8840  175.9620  142.8470 C   0  0  2  0  0  0  0  0  0  0  0  0
  189.5630  178.2150  143.1260 C   0  0  1  0  0  3  0  0  0  0  0  0
  190.0350  176.1690  141.5050 O   0  0  0  0  0  0  0  0  0  0  0  0
  190.5020  177.2380  142.3470 C   0  0  2  0  0  0  0  0  0  0  0  0
  188.4610  176.0310  143.3210 C   0  0  0  0  0  2  0  0  0  0  0  0
  189.8010  178.4610  141.6770 C   0  0  1  0  0  3  0  0  0  0  0  0
  188.2770  177.5000  143.5900 C   0  0  2  0  0  3  0  0  0  0  0  0
  184.7710  179.0810  143.3290 C   0  0  0  0  0  0  0  0  0  0  0  0
  186.1310  178.8460  143.9380 C   0  0  2  0  0  3  0  0  0  0  0  0
  184.8480  178.0180  147.4000 N   0  0  0  0  0  1  0  0  0  0  0  0
  186.7420  178.0200  141.6430 C   0  0  0  0  0  3  0  0  0  0  0  0
  185.5790  178.4610  141.1650 C   0  0  0  0  0  0  0  0  0  0  0  0
  183.7720  179.1860  145.5020 N   0  0  0  0  0  0  0  0  0  0  0  0
  183.6750  179.4540  144.2320 C   0  0  0  0  0  3  0  0  0  0  0  0
  184.5630  178.9430  142.0560 N   0  0  0  0  0  0  0  0  0  0  0  0
  184.9070  178.4970  146.0610 C   0  0  0  0  0  0  0  0  0  0  0  0
  187.0280  178.0760  143.0550 N   0  0  0  0  0  0  0  0  0  0  0  0
  186.0030  178.2650  145.3240 C   0  0  0  0  0  3  0  0  0  0  0  0
  185.2870  178.3480  139.7070 C   0  0  0  0  0  2  0  0  0  0  0  0
  184.0510  179.1050  139.3480 C   0  0  0  0  0  3  0  0  0  0  0  0
  184.1320  180.3050  138.9040 N   0  0  0  0  0  2  0  0  0  0  0  0
  188.6700  178.1270  140.8740 O   0  0  0  0  0  0  0  0  0  0  0  0
  188.9820  179.2000  138.8740 O   0  0  0  0  0  0  0  0  0  0  0  0
  188.5390  176.9120  138.7430 N   0  0  0  0  0  2  0  0  0  0  0  0
  188.7400  178.1230  139.4800 C   0  0  0  0  0  0  0  0  0  0  0  0
  188.5720  176.8800  137.2880 C   0  0  0  0  0  2  0  0  0  0  0  0
  189.9550  176.4660  136.8100 C   0  0  0  0  0  2  0  0  0  0  0  0
  190.1880  174.9820  137.0520 C   0  0  0  0  0  2  0  0  0  0  0  0
  191.1830  174.7960  138.0960 N   0  0  0  0  0  1  0  0  0  0  0  0
  2  6  1  0  0  0  0
  2  1  1  1  0  0  0
  3  8  1  0  0  0  0
  4  5  1  0  0  0  0
  4  2  1  0  0  0  0
  5  2  1  0  0  0  0
  5  3  1  0  0  0  0
  6  8  1  0  0  0  0
  7  5  1  0  0  0  0
  7  3  1  0  0  0  0
  9 10  1  0  0  0  0
  9 15  1  0  0  0  0
 10 19  1  0  0  0  0
 12 18  1  0  0  0  0
 13 12  2  0  0  0  0
 13 16  1  0  0  0  0
 14 17  1  0  0  0  0
 15 14  2  0  0  0  0
 16  9  2  0  0  0  0
 17 11  1  0  0  0  0
 18  8  1  0  0  0  0
 18 10  1  0  0  0  0
 19 17  2  0  0  0  0
 20 13  1  0  0  0  0
 21 20  1  0  0  0  0
 22 21  2  0  0  0  0
 23  7  1  0  0  0  0
 24 26  2  0  0  0  0
 25 26  1  0  0  0  0
 26 23  1  0  0  0  0
 27 25  1  0  0  0  0
 28 29  1  0  0  0  0
 28 27  1  0  0  0  0
 29 30  1  0  0  0  0
M  END
>  <MODEL>
7

>  <REMARK>
 VINA RESULT:      -5.8      1.998      6.548
  Name = 
  8 active torsions:
  status: ('A' for Active; 'I' for Inactive)
    1  A    between atoms: C_6  and  C_12
    2  A    between atoms: C_6  and  C_23
    3  A    between atoms: C_8  and  C_27
    4  A    between atoms: N_11  and  C_16
    5  A    between atoms: O_13  and  C_15
    6  A    between atoms: O_13  and  C_24
    7  A    between atoms: C_16  and  C_27
    8  A    between atoms: N_25  and  C_26
                            x       y       z     vdW  Elec       q    Type
                         _______ _______ _______ _____ _____    ______ ____

>  <TORSDO>
F 8

$$$$
=
 OpenBabel10232408223D

 30 34  0  0  1  0  0  0  0  0999 V2000
  191.9810  178.8930  144.8730 O   0  0  0  0  0  1  0  0  0  0  0  0
  191.1310  178.3250  143.9240 C   0  0  2  0  0  0  0  0  0  0  0  0
  190.9720  176.3270  142.8100 C   0  0  1  0  0  3  0  0  0  0  0  0
  189.8590  178.1450  144.3890 O   0  0  0  0  0  0  0  0  0  0  0  0
  190.6210  176.9390  144.2060 C   0  0  2  0  0  0  0  0  0  0  0  0
  191.2040  178.7490  142.4850 C   0  0  0  0  0  2  0  0  0  0  0  0
  189.6150  176.0860  143.3720 C   0  0  1  0  0  3  0  0  0  0  0  0
  191.1890  177.4330  141.7560 C   0  0  2  0  0  3  0  0  0  0  0  0
  189.7280  176.8190  138.2430 C   0  0  0  0  0  0  0  0  0  0  0  0
  190.5910  176.5210  139.4430 C   0  0  0  0  0  0  0  0  0  0  0  0
  193.8240  176.1990  137.5040 N   0  0  0  0  0  1  0  0  0  0  0  0
  188.9830  178.0220  140.6620 C   0  0  0  0  0  3  0  0  0  0  0  0
  188.1820  178.0440  139.5960 C   0  0  0  0  0  0  0  0  0  0  0  0
  191.4650  176.0930  136.7640 N   0  0  0  0  0  0  0  0  0  0  0  0
  190.2010  176.3580  136.9320 C   0  0  0  0  0  2  0  0  0  0  0  0
  188.6130  177.4730  138.3520 N   0  0  0  0  0  0  0  0  0  0  0  0
  192.4360  176.2690  137.8130 C   0  0  0  0  0  0  0  0  0  0  0  0
  190.2680  177.3720  140.6050 N   0  0  0  0  0  0  0  0  0  0  0  0
  192.0520  176.5380  139.0690 C   0  0  0  0  0  3  0  0  0  0  0  0
  186.8780  178.7640  139.6650 C   0  0  0  0  0  2  0  0  0  0  0  0
  186.0110  178.4120  138.5010 C   0  0  0  0  0  3  0  0  0  0  0  0
  184.7400  178.3230  138.6440 N   0  0  0  0  0  2  0  0  0  0  0  0
  188.6060  176.8430  142.7060 O   0  0  0  0  0  0  0  0  0  0  0  0
  187.0960  176.5390  144.4010 O   0  0  0  0  0  0  0  0  0  0  0  0
  186.3590  177.8310  142.6020 N   0  0  0  0  0  2  0  0  0  0  0  0
  187.3500  177.0500  143.2790 C   0  0  0  0  0  0  0  0  0  0  0  0
  185.0290  178.0370  143.1570 C   0  0  0  0  0  2  0  0  0  0  0  0
  184.9890  179.3410  143.9380 C   0  0  0  0  0  2  0  0  0  0  0  0
  184.2970  179.1460  145.2780 C   0  0  0  0  0  2  0  0  0  0  0  0
  185.2820  179.0920  146.3470 N   0  0  0  0  0  1  0  0  0  0  0  0
  2  5  1  0  0  0  0
  2  4  1  0  0  0  0
  2  1  1  1  0  0  0
  3  7  1  0  0  0  0
  3  5  1  0  0  0  0
  5  4  1  0  0  0  0
  6  2  1  0  0  0  0
  7  5  1  0  0  0  0
  8  6  1  0  0  0  0
  8  3  1  0  0  0  0
  9 16  2  0  0  0  0
  9 10  1  0  0  0  0
 10 18  1  0  0  0  0
 11 17  1  0  0  0  0
 13 20  1  0  0  0  0
 13 12  2  0  0  0  0
 14 15  1  0  0  0  0
 14 17  2  0  0  0  0
 15  9  1  0  0  0  0
 16 13  1  0  0  0  0
 17 19  1  0  0  0  0
 18 12  1  0  0  0  0
 18  8  1  0  0  0  0
 19 10  2  0  0  0  0
 21 22  2  0  0  0  0
 21 20  1  0  0  0  0
 23 26  1  0  0  0  0
 23  7  1  0  0  0  0
 25 27  1  0  0  0  0
 25 26  1  0  0  0  0
 26 24  2  0  0  0  0
 27 28  1  0  0  0  0
 28 29  1  0  0  0  0
 29 30  1  0  0  0  0
M  END
>  <MODEL>
8

>  <REMARK>
 VINA RESULT:      -5.7      1.318      1.454
  Name = 
  8 active torsions:
  status: ('A' for Active; 'I' for Inactive)
    1  A    between atoms: C_6  and  C_12
    2  A    between atoms: C_6  and  C_23
    3  A    between atoms: C_8  and  C_27
    4  A    between atoms: N_11  and  C_16
    5  A    between atoms: O_13  and  C_15
    6  A    between atoms: O_13  and  C_24
    7  A    between atoms: C_16  and  C_27
    8  A    between atoms: N_25  and  C_26
                            x       y       z     vdW  Elec       q    Type
                         _______ _______ _______ _____ _____    ______ ____

>  <TORSDO>
F 8

$$$$
=
 OpenBabel10232408223D

 30 34  0  0  1  0  0  0  0  0999 V2000
  181.9970  178.7890  142.4080 O   0  0  0  0  0  1  0  0  0  0  0  0
  181.9820  178.4950  141.0450 C   0  0  2  0  0  0  0  0  0  0  0  0
  180.7010  177.2280  139.6260 C   0  0  1  0  0  3  0  0  0  0  0  0
  181.7250  179.5900  140.2670 O   0  0  0  0  0  0  0  0  0  0  0  0
  180.6630  178.6220  140.3330 C   0  0  2  0  0  0  0  0  0  0  0  0
  182.9880  177.5480  140.4580 C   0  0  0  0  0  2  0  0  0  0  0  0
  180.3550  178.4280  138.8160 C   0  0  1  0  0  3  0  0  0  0  0  0
  182.1350  176.6590  139.5950 C   0  0  2  0  0  3  0  0  0  0  0  0
  182.7090  175.1900  136.0770 C   0  0  0  0  0  0  0  0  0  0  0  0
  181.8940  175.6090  137.2750 C   0  0  0  0  0  0  0  0  0  0  0  0
  180.1710  172.2730  137.7370 N   0  0  0  0  0  1  0  0  0  0  0  0
  183.8720  177.0710  137.7980 C   0  0  0  0  0  3  0  0  0  0  0  0
  184.4060  176.7900  136.6090 C   0  0  0  0  0  0  0  0  0  0  0  0
  181.3540  173.2370  135.7900 N   0  0  0  0  0  0  0  0  0  0  0  0
  182.2070  174.0720  135.2690 C   0  0  0  0  0  2  0  0  0  0  0  0
  183.8250  175.7790  135.7730 N   0  0  0  0  0  0  0  0  0  0  0  0
  180.9050  173.3440  137.1540 C   0  0  0  0  0  0  0  0  0  0  0  0
  182.6680  176.4130  138.2400 N   0  0  0  0  0  0  0  0  0  0  0  0
  181.2030  174.4210  137.8950 C   0  0  0  0  0  3  0  0  0  0  0  0
  185.6770  177.4480  136.1940 C   0  0  0  0  0  2  0  0  0  0  0  0
  186.5700  177.6780  137.3690 C   0  0  0  0  0  3  0  0  0  0  0  0
  187.2050  178.7850  137.4930 N   0  0  0  0  0  2  0  0  0  0  0  0
  181.4130  178.8200  137.9420 O   0  0  0  0  0  0  0  0  0  0  0  0
  181.2920  178.8650  135.6550 O   0  0  0  0  0  0  0  0  0  0  0  0
  180.7560  180.8600  136.7410 N   0  0  0  0  0  2  0  0  0  0  0  0
  181.1600  179.4860  136.7420 C   0  0  0  0  0  0  0  0  0  0  0  0
  180.5160  181.5930  135.5060 C   0  0  0  0  0  2  0  0  0  0  0  0
  180.6970  183.0840  135.7440 C   0  0  0  0  0  2  0  0  0  0  0  0
  180.9720  183.3660  137.2140 C   0  0  0  0  0  2  0  0  0  0  0  0
  181.8570  184.5130  137.3450 N   0  0  0  0  0  1  0  0  0  0  0  0
  2  1  1  1  0  0  0
  3  5  1  0  0  0  0
  4  5  1  0  0  0  0
  4  2  1  0  0  0  0
  5  2  1  0  0  0  0
  6  2  1  0  0  0  0
  7  3  1  0  0  0  0
  7  5  1  0  0  0  0
  8  3  1  0  0  0  0
  8  6  1  0  0  0  0
  9 10  1  0  0  0  0
 10 19  2  0  0  0  0
 10 18  1  0  0  0  0
 12 18  1  0  0  0  0
 13 12  2  0  0  0  0
 14 17  2  0  0  0  0
 15 14  1  0  0  0  0
 15  9  1  0  0  0  0
 16  9  2  0  0  0  0
 16 13  1  0  0  0  0
 17 11  1  0  0  0  0
 17 19  1  0  0  0  0
 18  8  1  0  0  0  0
 20 13  1  0  0  0  0
 20 21  1  0  0  0  0
 21 22  2  0  0  0  0
 23  7  1  0  0  0  0
 24 26  2  0  0  0  0
 25 26  1  0  0  0  0
 26 23  1  0  0  0  0
 27 28  1  0  0  0  0
 27 25  1  0  0  0  0
 28 29  1  0  0  0  0
 29 30  1  0  0  0  0
M  END
>  <MODEL>
9

>  <REMARK>
 VINA RESULT:      -5.5      5.902      9.184
  Name = 
  8 active torsions:
  status: ('A' for Active; 'I' for Inactive)
    1  A    between atoms: C_6  and  C_12
    2  A    between atoms: C_6  and  C_23
    3  A    between atoms: C_8  and  C_27
    4  A    between atoms: N_11  and  C_16
    5  A    between atoms: O_13  and  C_15
    6  A    between atoms: O_13  and  C_24
    7  A    between atoms: C_16  and  C_27
    8  A    between atoms: N_25  and  C_26
                            x       y       z     vdW  Elec       q    Type
                         _______ _______ _______ _____ _____    ______ ____

>  <TORSDO>
F 8

$$$$
