=
 OpenBabel10222421373D

 43 46  0  0  1  0  0  0  0  0999 V2000
  186.3540  178.9220  141.7030 O   0  0  0  0  0  0  0  0  0  0  0  0
  188.9260  178.6390  137.8400 O   0  0  0  0  0  0  0  0  0  0  0  0
  189.3180  177.2970  137.7350 C   0  0  2  0  0  3  0  0  0  0  0  0
  190.8510  175.9310  139.1460 O   0  0  0  0  0  1  0  0  0  0  0  0
  187.6880  178.7270  137.3690 O   0  0  0  0  0  0  0  0  0  0  0  0
  187.9560  177.9200  140.5320 C   0  0  0  0  0  0  0  0  0  0  0  0
  187.5150  178.3070  141.8040 C   0  0  0  0  0  0  0  0  0  0  0  0
  186.9660  178.3660  139.6710 C   0  0  0  0  0  0  0  0  0  0  0  0
  189.7630  176.7920  139.0850 C   0  0  0  0  0  0  0  0  0  0  0  0
  186.8740  178.1090  138.2730 N   0  0  0  0  0  2  0  0  0  0  0  0
  185.9990  178.9550  140.4430 C   0  0  0  0  0  0  0  0  0  0  0  0
  189.1600  177.0950  140.2460 C   0  0  0  0  0  3  0  0  0  0  0  0
  189.5900  177.9960  143.1790 C   0  0  0  0  0  3  0  0  0  0  0  0
  188.1900  178.0770  143.1070 C   0  0  0  0  0  0  0  0  0  0  0  0
  190.2320  177.7630  144.3960 C   0  0  0  0  0  3  0  0  0  0  0  0
  189.4840  177.6060  145.5600 C   0  0  0  0  0  3  0  0  0  0  0  0
  187.4380  177.9190  144.2920 C   0  0  0  0  0  0  0  0  0  0  0  0
  188.0850  177.6850  145.5160 C   0  0  0  0  0  0  0  0  0  0  0  0
  186.0800  178.0070  144.2650 F   0  0  0  0  0  0  0  0  0  0  0  0
  187.2770  177.5110  146.7700 C   0  0  2  0  0  3  0  0  0  0  0  0
  185.2030  178.2440  147.0580 C   0  0  0  0  0  1  0  0  0  0  0  0
  186.5340  178.6660  147.0370 O   0  0  0  0  0  0  0  0  0  0  0  0
  188.1750  177.1880  147.9250 C   0  0  0  0  0  3  0  0  0  0  0  0
  188.2470  178.0010  148.9750 C   0  0  0  0  0  2  0  0  0  0  0  0
  184.7780  179.5150  139.9500 N   0  0  0  0  0  2  0  0  0  0  0  0
  183.5120  178.8520  140.0070 C   0  0  0  0  0  0  0  0  0  0  0  0
  182.3070  179.5310  139.4640 C   0  0  0  0  0  1  0  0  0  0  0  0
  183.4040  177.7020  140.5100 O   0  0  0  0  0  0  0  0  0  0  0  0
  190.4260  177.1720  136.6940 C   0  0  0  0  0  2  0  0  0  0  0  0
  189.8720  176.7060  135.3550 C   0  0  0  0  0  2  0  0  0  0  0  0
  188.8070  175.6770  135.5430 C   0  0  0  0  0  3  0  0  0  0  0  0
  187.6570  175.7710  134.8920 C   0  0  0  0  0  3  0  0  0  0  0  0
  186.6740  174.7980  135.0650 O   0  0  0  0  0  0  0  0  0  0  0  0
  185.3220  175.1360  135.3780 C   0  0  1  0  0  3  0  0  0  0  0  0
  184.4430  172.3590  137.3850 C   0  0  0  0  0  2  0  0  0  0  0  0
  183.8940  173.4220  136.4900 C   0  0  0  0  0  2  0  0  0  0  0  0
  184.8990  174.5080  136.7050 C   0  0  1  0  0  3  0  0  0  0  0  0
  185.9940  173.8830  137.3140 O   0  0  0  0  0  0  0  0  0  0  0  0
  185.4720  172.9640  138.1190 O   0  0  0  0  0  0  0  0  0  0  0  0
  185.1320  176.6510  135.4000 C   0  0  0  0  0  2  0  0  0  0  0  0
  182.8860  176.7200  134.6010 O   0  0  0  0  0  0  0  0  0  0  0  0
  183.2240  177.6130  136.6840 O   0  0  0  0  0  1  0  0  0  0  0  0
  183.6890  177.0010  135.5290 C   0  0  0  0  0  0  0  0  0  0  0  0
  1  7  1  0  0  0  0
  3 29  1  6  0  0  0
  3  2  1  0  0  0  0
  3  9  1  0  0  0  0
  5  2  1  0  0  0  0
  5 10  1  0  0  0  0
  6  7  2  0  0  0  0
  7 14  1  0  0  0  0
  8 11  2  0  0  0  0
  8  6  1  0  0  0  0
  9  4  1  0  0  0  0
  9 12  2  0  0  0  0
 10  8  1  0  0  0  0
 11  1  1  0  0  0  0
 12  6  1  0  0  0  0
 13 15  1  0  0  0  0
 14 13  2  0  0  0  0
 14 17  1  0  0  0  0
 15 16  2  0  0  0  0
 17 18  2  0  0  0  0
 18 16  1  0  0  0  0
 18 20  1  0  0  0  0
 19 17  1  0  0  0  0
 20 22  1  0  0  0  0
 20 23  1  1  0  0  0
 22 21  1  0  0  0  0
 23 24  2  0  0  0  0
 25 26  1  0  0  0  0
 25 11  1  0  0  0  0
 26 28  2  0  0  0  0
 27 26  1  0  0  0  0
 30 31  1  0  0  0  0
 30 29  1  0  0  0  0
 32 33  1  0  0  0  0
 32 31  2  0  0  0  0
 33 34  1  0  0  0  0
 34 40  1  1  0  0  0
 35 39  1  0  0  0  0
 36 37  1  0  0  0  0
 36 35  1  0  0  0  0
 37 34  1  6  0  0  0
 37 38  1  0  0  0  0
 38 39  1  0  0  0  0
 40 43  1  0  0  0  0
 41 43  2  0  0  0  0
 43 42  1  0  0  0  0
M  END
>  <MODEL>
1

>  <REMARK>
 VINA RESULT:      -7.8      0.000      0.000
  Name = 
  13 active torsions:
  status: ('A' for Active; 'I' for Inactive)
    1  A    between atoms: O_1  and  C_5
    2  A    between atoms: O_1  and  C_42
    3  A    between atoms: N_2  and  C_40
    4  A    between atoms: C_5  and  C_22
    5  A    between atoms: C_5  and  C_24
    6  A    between atoms: C_10  and  C_27
    7  A    between atoms: C_11  and  C_41
    8  A    between atoms: C_12  and  O_30
    9  A    between atoms: C_12  and  C_32
   10  A    between atoms: C_12  and  C_33
   11  A    between atoms: C_20  and  C_21
   12  A    between atoms: C_21  and  C_41
   13  A    between atoms: C_22  and  C_38
                            x       y       z     vdW  Elec       q    Type
                         _______ _______ _______ _____ _____    ______ ____

>  <TORSDO>
F 13

$$$$
=
 OpenBabel10222421373D

 43 46  0  0  1  0  0  0  0  0999 V2000
  189.0210  177.0260  145.6590 O   0  0  0  0  0  0  0  0  0  0  0  0
  190.2250  176.2670  141.2320 O   0  0  0  0  0  0  0  0  0  0  0  0
  190.2030  177.5220  140.6060 C   0  0  2  0  0  3  0  0  0  0  0  0
  188.3070  179.0510  140.0820 O   0  0  0  0  0  1  0  0  0  0  0  0
  191.3810  176.1670  141.8780 O   0  0  0  0  0  0  0  0  0  0  0  0
  188.9520  177.6280  143.5200 C   0  0  0  0  0  0  0  0  0  0  0  0
  188.2530  177.5630  144.7320 C   0  0  0  0  0  0  0  0  0  0  0  0
  190.1910  177.0760  143.8040 C   0  0  0  0  0  0  0  0  0  0  0  0
  188.9680  178.2780  141.0280 C   0  0  0  0  0  0  0  0  0  0  0  0
  191.3200  177.0260  142.9360 N   0  0  0  0  0  2  0  0  0  0  0  0
  190.1870  176.7420  145.1330 C   0  0  0  0  0  0  0  0  0  0  0  0
  188.4680  178.2810  142.2750 C   0  0  0  0  0  3  0  0  0  0  0  0
  186.5110  178.4870  146.2820 C   0  0  0  0  0  3  0  0  0  0  0  0
  186.8680  178.0240  145.0060 C   0  0  0  0  0  0  0  0  0  0  0  0
  185.2090  178.9070  146.5540 C   0  0  0  0  0  3  0  0  0  0  0  0
  184.2410  178.8690  145.5530 C   0  0  0  0  0  3  0  0  0  0  0  0
  185.8820  177.9910  143.9950 C   0  0  0  0  0  0  0  0  0  0  0  0
  184.5710  178.4140  144.2690 C   0  0  0  0  0  0  0  0  0  0  0  0
  186.1940  177.5630  142.7410 F   0  0  0  0  0  0  0  0  0  0  0  0
  183.5280  178.3670  143.1900 C   0  0  2  0  0  3  0  0  0  0  0  0
  183.5600  178.0320  140.9980 C   0  0  0  0  0  1  0  0  0  0  0  0
  184.0380  178.8850  141.9950 O   0  0  0  0  0  0  0  0  0  0  0  0
  182.3110  179.1320  143.6130 C   0  0  0  0  0  3  0  0  0  0  0  0
  181.1210  178.5410  143.6600 C   0  0  0  0  0  2  0  0  0  0  0  0
  191.2910  176.1770  145.8450 N   0  0  0  0  0  2  0  0  0  0  0  0
  191.5640  176.4250  147.2270 C   0  0  0  0  0  0  0  0  0  0  0  0
  192.7420  175.7810  147.8650 C   0  0  0  0  0  1  0  0  0  0  0  0
  190.8210  177.1780  147.9100 O   0  0  0  0  0  0  0  0  0  0  0  0
  190.2600  177.3350  139.0940 C   0  0  0  0  0  2  0  0  0  0  0  0
  190.7090  175.9260  138.7300 C   0  0  0  0  0  2  0  0  0  0  0  0
  191.8460  175.9580  137.7630 C   0  0  0  0  0  3  0  0  0  0  0  0
  193.0780  175.6800  138.1630 C   0  0  0  0  0  3  0  0  0  0  0  0
  194.1320  175.7000  137.2500 O   0  0  0  0  0  0  0  0  0  0  0  0
  194.5700  174.5210  136.5750 C   0  0  1  0  0  3  0  0  0  0  0  0
  197.2870  175.9130  134.7860 C   0  0  0  0  0  2  0  0  0  0  0  0
  196.2570  174.8310  134.7650 C   0  0  0  0  0  2  0  0  0  0  0  0
  196.0560  174.6140  136.2310 C   0  0  1  0  0  3  0  0  0  0  0  0
  196.6260  175.7320  136.8510 O   0  0  0  0  0  0  0  0  0  0  0  0
  197.6950  176.0340  136.1210 O   0  0  0  0  0  0  0  0  0  0  0  0
  194.2730  173.2750  137.4070 C   0  0  0  0  0  2  0  0  0  0  0  0
  196.0850  171.9290  138.1750 O   0  0  0  0  0  0  0  0  0  0  0  0
  195.7230  173.8640  139.3480 O   0  0  0  0  0  1  0  0  0  0  0  0
  195.4030  172.9750  138.3310 C   0  0  0  0  0  0  0  0  0  0  0  0
  2  5  1  0  0  0  0
  3 29  1  6  0  0  0
  3  9  1  0  0  0  0
  3  2  1  0  0  0  0
  4  9  1  0  0  0  0
  5 10  1  0  0  0  0
  6  8  1  0  0  0  0
  6  7  2  0  0  0  0
  7 14  1  0  0  0  0
  7  1  1  0  0  0  0
  8 11  2  0  0  0  0
  9 12  2  0  0  0  0
 10  8  1  0  0  0  0
 11  1  1  0  0  0  0
 11 25  1  0  0  0  0
 12  6  1  0  0  0  0
 13 15  1  0  0  0  0
 14 13  2  0  0  0  0
 16 15  2  0  0  0  0
 17 18  2  0  0  0  0
 17 14  1  0  0  0  0
 18 16  1  0  0  0  0
 19 17  1  0  0  0  0
 20 23  1  1  0  0  0
 20 18  1  0  0  0  0
 21 22  1  0  0  0  0
 22 20  1  0  0  0  0
 23 24  2  0  0  0  0
 25 26  1  0  0  0  0
 26 27  1  0  0  0  0
 26 28  2  0  0  0  0
 30 29  1  0  0  0  0
 31 32  2  0  0  0  0
 31 30  1  0  0  0  0
 33 32  1  0  0  0  0
 34 33  1  0  0  0  0
 34 40  1  1  0  0  0
 35 39  1  0  0  0  0
 36 35  1  0  0  0  0
 36 37  1  0  0  0  0
 37 34  1  6  0  0  0
 37 38  1  0  0  0  0
 39 38  1  0  0  0  0
 40 43  1  0  0  0  0
 41 43  2  0  0  0  0
 43 42  1  0  0  0  0
M  END
>  <MODEL>
2

>  <REMARK>
 VINA RESULT:      -7.8      4.069      7.968
  Name = 
  13 active torsions:
  status: ('A' for Active; 'I' for Inactive)
    1  A    between atoms: O_1  and  C_5
    2  A    between atoms: O_1  and  C_42
    3  A    between atoms: N_2  and  C_40
    4  A    between atoms: C_5  and  C_22
    5  A    between atoms: C_5  and  C_24
    6  A    between atoms: C_10  and  C_27
    7  A    between atoms: C_11  and  C_41
    8  A    between atoms: C_12  and  O_30
    9  A    between atoms: C_12  and  C_32
   10  A    between atoms: C_12  and  C_33
   11  A    between atoms: C_20  and  C_21
   12  A    between atoms: C_21  and  C_41
   13  A    between atoms: C_22  and  C_38
                            x       y       z     vdW  Elec       q    Type
                         _______ _______ _______ _____ _____    ______ ____

>  <TORSDO>
F 13

$$$$
=
 OpenBabel10222421373D

 43 46  0  0  1  0  0  0  0  0999 V2000
  191.1920  176.2340  140.1240 O   0  0  0  0  0  0  0  0  0  0  0  0
  187.2060  175.9930  137.7420 O   0  0  0  0  0  0  0  0  0  0  0  0
  186.8070  177.3200  137.5220 C   0  0  2  0  0  3  0  0  0  0  0  0
  186.0320  179.0740  139.1130 O   0  0  0  0  0  1  0  0  0  0  0  0
  188.1210  175.6990  136.8250 O   0  0  0  0  0  0  0  0  0  0  0  0
  189.2420  177.1330  139.5490 C   0  0  0  0  0  0  0  0  0  0  0  0
  190.1880  176.9640  140.5680 C   0  0  0  0  0  0  0  0  0  0  0  0
  189.7640  176.4350  138.4700 C   0  0  0  0  0  0  0  0  0  0  0  0
  186.9870  178.1190  138.7880 C   0  0  0  0  0  0  0  0  0  0  0  0
  189.2450  176.4040  137.1440 N   0  0  0  0  0  2  0  0  0  0  0  0
  190.9690  175.9220  138.8710 C   0  0  0  0  0  0  0  0  0  0  0  0
  188.0320  177.9940  139.6240 C   0  0  0  0  0  3  0  0  0  0  0  0
  191.1540  178.3580  142.4140 C   0  0  0  0  0  3  0  0  0  0  0  0
  190.1400  177.5070  141.9490 C   0  0  0  0  0  0  0  0  0  0  0  0
  191.1270  178.8600  143.7160 C   0  0  0  0  0  3  0  0  0  0  0  0
  190.0840  178.5170  144.5730 C   0  0  0  0  0  3  0  0  0  0  0  0
  189.0840  177.1660  142.8230 C   0  0  0  0  0  0  0  0  0  0  0  0
  189.0570  177.6710  144.1330 C   0  0  0  0  0  0  0  0  0  0  0  0
  188.0750  176.3550  142.4030 F   0  0  0  0  0  0  0  0  0  0  0  0
  187.9350  177.2970  145.0580 C   0  0  2  0  0  3  0  0  0  0  0  0
  185.9190  177.8820  144.3430 C   0  0  0  0  0  1  0  0  0  0  0  0
  186.9900  178.3260  145.1220 O   0  0  0  0  0  0  0  0  0  0  0  0
  188.4700  176.9930  146.4240 C   0  0  0  0  0  3  0  0  0  0  0  0
  187.9850  177.6140  147.4950 C   0  0  0  0  0  2  0  0  0  0  0  0
  191.8590  175.1640  138.0460 N   0  0  0  0  0  2  0  0  0  0  0  0
  193.1160  175.6490  137.5670 C   0  0  0  0  0  0  0  0  0  0  0  0
  193.9600  174.7720  136.7140 C   0  0  0  0  0  1  0  0  0  0  0  0
  193.5180  176.8070  137.8560 O   0  0  0  0  0  0  0  0  0  0  0  0
  185.3590  177.3410  137.0450 C   0  0  0  0  0  2  0  0  0  0  0  0
  184.6380  176.0530  137.4170 C   0  0  0  0  0  2  0  0  0  0  0  0
  183.4580  176.3300  138.2890 C   0  0  0  0  0  3  0  0  0  0  0  0
  182.5800  177.2640  137.9560 C   0  0  0  0  0  3  0  0  0  0  0  0
  181.4750  177.5070  138.7710 O   0  0  0  0  0  0  0  0  0  0  0  0
  181.3710  178.6830  139.5720 C   0  0  1  0  0  3  0  0  0  0  0  0
  182.8120  179.0890  142.7790 C   0  0  0  0  0  2  0  0  0  0  0  0
  182.9110  178.3230  141.4990 C   0  0  0  0  0  2  0  0  0  0  0  0
  181.4830  178.3390  141.0570 C   0  0  1  0  0  3  0  0  0  0  0  0
  180.8680  179.3310  141.8300 O   0  0  0  0  0  0  0  0  0  0  0  0
  181.4420  179.2520  143.0260 O   0  0  0  0  0  0  0  0  0  0  0  0
  182.4210  179.7140  139.1650 C   0  0  0  0  0  2  0  0  0  0  0  0
  182.1370  182.0020  138.5570 O   0  0  0  0  0  1  0  0  0  0  0  0
  180.8880  180.4980  137.3620 O   0  0  0  0  0  0  0  0  0  0  0  0
  181.8060  180.8050  138.3560 C   0  0  0  0  0  0  0  0  0  0  0  0
  1  7  1  0  0  0  0
  3 29  1  1  0  0  0
  3  2  1  0  0  0  0
  3  9  1  0  0  0  0
  5 10  1  0  0  0  0
  5  2  1  0  0  0  0
  6 12  1  0  0  0  0
  6  7  2  0  0  0  0
  7 14  1  0  0  0  0
  8 11  2  0  0  0  0
  8  6  1  0  0  0  0
  9  4  1  0  0  0  0
  9 12  2  0  0  0  0
 10  8  1  0  0  0  0
 11  1  1  0  0  0  0
 13 15  1  0  0  0  0
 14 13  2  0  0  0  0
 14 17  1  0  0  0  0
 15 16  2  0  0  0  0
 17 18  2  0  0  0  0
 18 16  1  0  0  0  0
 18 20  1  0  0  0  0
 19 17  1  0  0  0  0
 20 22  1  0  0  0  0
 20 23  1  1  0  0  0
 21 22  1  0  0  0  0
 23 24  2  0  0  0  0
 25 11  1  0  0  0  0
 26 28  2  0  0  0  0
 26 25  1  0  0  0  0
 27 26  1  0  0  0  0
 29 30  1  0  0  0  0
 30 31  1  0  0  0  0
 32 31  2  0  0  0  0
 32 33  1  0  0  0  0
 33 34  1  0  0  0  0
 34 40  1  6  0  0  0
 35 39  1  0  0  0  0
 36 35  1  0  0  0  0
 37 34  1  6  0  0  0
 37 36  1  0  0  0  0
 37 38  1  0  0  0  0
 38 39  1  0  0  0  0
 42 43  2  0  0  0  0
 43 41  1  0  0  0  0
 43 40  1  0  0  0  0
M  END
>  <MODEL>
3

>  <REMARK>
 VINA RESULT:      -7.6      2.421      5.616
  Name = 
  13 active torsions:
  status: ('A' for Active; 'I' for Inactive)
    1  A    between atoms: O_1  and  C_5
    2  A    between atoms: O_1  and  C_42
    3  A    between atoms: N_2  and  C_40
    4  A    between atoms: C_5  and  C_22
    5  A    between atoms: C_5  and  C_24
    6  A    between atoms: C_10  and  C_27
    7  A    between atoms: C_11  and  C_41
    8  A    between atoms: C_12  and  O_30
    9  A    between atoms: C_12  and  C_32
   10  A    between atoms: C_12  and  C_33
   11  A    between atoms: C_20  and  C_21
   12  A    between atoms: C_21  and  C_41
   13  A    between atoms: C_22  and  C_38
                            x       y       z     vdW  Elec       q    Type
                         _______ _______ _______ _____ _____    ______ ____

>  <TORSDO>
F 13

$$$$
=
 OpenBabel10222421373D

 43 46  0  0  1  0  0  0  0  0999 V2000
  192.4590  176.7720  139.6240 O   0  0  0  0  0  0  0  0  0  0  0  0
  188.4320  178.8110  138.5060 O   0  0  0  0  0  0  0  0  0  0  0  0
  187.6040  177.7890  138.0200 C   0  0  2  0  0  3  0  0  0  0  0  0
  187.7590  176.4100  135.9500 O   0  0  0  0  0  1  0  0  0  0  0  0
  188.3850  178.7610  139.8320 O   0  0  0  0  0  0  0  0  0  0  0  0
  190.5960  176.8070  138.4110 C   0  0  0  0  0  0  0  0  0  0  0  0
  191.9620  176.4970  138.4340 C   0  0  0  0  0  0  0  0  0  0  0  0
  190.3290  177.2970  139.6800 C   0  0  0  0  0  0  0  0  0  0  0  0
  188.3890  176.9010  137.0870 C   0  0  0  0  0  0  0  0  0  0  0  0
  189.0510  177.6330  140.2120 N   0  0  0  0  0  2  0  0  0  0  0  0
  191.5010  177.2350  140.3880 C   0  0  0  0  0  0  0  0  0  0  0  0
  189.6620  176.5230  137.2890 C   0  0  0  0  0  3  0  0  0  0  0  0
  192.2880  175.8990  136.0200 C   0  0  0  0  0  3  0  0  0  0  0  0
  192.7820  175.9280  137.3340 C   0  0  0  0  0  0  0  0  0  0  0  0
  193.0440  175.3510  134.9830 C   0  0  0  0  0  3  0  0  0  0  0  0
  194.3060  174.8220  135.2450 C   0  0  0  0  0  3  0  0  0  0  0  0
  194.0630  175.3920  137.5920 C   0  0  0  0  0  0  0  0  0  0  0  0
  194.8230  174.8410  136.5470 C   0  0  0  0  0  0  0  0  0  0  0  0
  194.5810  175.4160  138.8500 F   0  0  0  0  0  0  0  0  0  0  0  0
  196.1810  174.2660  136.8320 C   0  0  2  0  0  3  0  0  0  0  0  0
  197.5610  175.5660  135.6810 C   0  0  0  0  0  1  0  0  0  0  0  0
  197.1240  175.2890  136.9780 O   0  0  0  0  0  0  0  0  0  0  0  0
  196.5890  173.3330  135.7330 C   0  0  0  0  0  3  0  0  0  0  0  0
  196.5070  172.0160  135.8960 C   0  0  0  0  0  2  0  0  0  0  0  0
  191.6560  177.6090  141.7590 N   0  0  0  0  0  2  0  0  0  0  0  0
  191.2460  176.7980  142.8630 C   0  0  0  0  0  0  0  0  0  0  0  0
  191.4580  177.2900  144.2500 C   0  0  0  0  0  1  0  0  0  0  0  0
  190.7080  175.6750  142.6780 O   0  0  0  0  0  0  0  0  0  0  0  0
  186.3930  178.4040  137.3260 C   0  0  0  0  0  2  0  0  0  0  0  0
  185.1030  178.0390  138.0450 C   0  0  0  0  0  2  0  0  0  0  0  0
  184.8670  178.9370  139.2140 C   0  0  0  0  0  3  0  0  0  0  0  0
  185.4380  178.6850  140.3830 C   0  0  0  0  0  3  0  0  0  0  0  0
  185.2210  179.5360  141.4660 O   0  0  0  0  0  0  0  0  0  0  0  0
  185.6410  179.2000  142.7880 C   0  0  1  0  0  3  0  0  0  0  0  0
  182.8040  178.7090  144.8460 C   0  0  0  0  0  2  0  0  0  0  0  0
  183.2510  179.1720  143.4970 C   0  0  0  0  0  2  0  0  0  0  0  0
  184.6200  179.6790  143.8190 C   0  0  1  0  0  3  0  0  0  0  0  0
  184.9220  179.1500  145.0800 O   0  0  0  0  0  0  0  0  0  0  0  0
  183.7750  179.1590  145.7510 O   0  0  0  0  0  0  0  0  0  0  0  0
  185.8890  177.6980  142.9150 C   0  0  0  0  0  2  0  0  0  0  0  0
  188.1480  178.3550  143.3020 O   0  0  0  0  0  0  0  0  0  0  0  0
  187.6680  176.1560  143.7340 O   0  0  0  0  0  1  0  0  0  0  0  0
  187.2980  177.4270  143.3170 C   0  0  0  0  0  0  0  0  0  0  0  0
  1 11  1  0  0  0  0
  2  5  1  0  0  0  0
  3 29  1  6  0  0  0
  3  2  1  0  0  0  0
  4  9  1  0  0  0  0
  5 10  1  0  0  0  0
  6  7  2  0  0  0  0
  6  8  1  0  0  0  0
  7  1  1  0  0  0  0
  8 10  1  0  0  0  0
  8 11  2  0  0  0  0
  9 12  2  0  0  0  0
  9  3  1  0  0  0  0
 11 25  1  0  0  0  0
 12  6  1  0  0  0  0
 13 14  1  0  0  0  0
 14 17  2  0  0  0  0
 14  7  1  0  0  0  0
 15 16  1  0  0  0  0
 15 13  2  0  0  0  0
 16 18  2  0  0  0  0
 17 19  1  0  0  0  0
 18 20  1  0  0  0  0
 18 17  1  0  0  0  0
 20 23  1  6  0  0  0
 20 22  1  0  0  0  0
 21 22  1  0  0  0  0
 23 24  2  0  0  0  0
 25 26  1  0  0  0  0
 26 27  1  0  0  0  0
 28 26  2  0  0  0  0
 29 30  1  0  0  0  0
 30 31  1  0  0  0  0
 31 32  2  0  0  0  0
 32 33  1  0  0  0  0
 33 34  1  0  0  0  0
 34 40  1  6  0  0  0
 35 39  1  0  0  0  0
 36 37  1  0  0  0  0
 36 35  1  0  0  0  0
 37 34  1  6  0  0  0
 37 38  1  0  0  0  0
 38 39  1  0  0  0  0
 40 43  1  0  0  0  0
 41 43  2  0  0  0  0
 43 42  1  0  0  0  0
M  END
>  <MODEL>
4

>  <REMARK>
 VINA RESULT:      -7.4      3.881      8.934
  Name = 
  13 active torsions:
  status: ('A' for Active; 'I' for Inactive)
    1  A    between atoms: O_1  and  C_5
    2  A    between atoms: O_1  and  C_42
    3  A    between atoms: N_2  and  C_40
    4  A    between atoms: C_5  and  C_22
    5  A    between atoms: C_5  and  C_24
    6  A    between atoms: C_10  and  C_27
    7  A    between atoms: C_11  and  C_41
    8  A    between atoms: C_12  and  O_30
    9  A    between atoms: C_12  and  C_32
   10  A    between atoms: C_12  and  C_33
   11  A    between atoms: C_20  and  C_21
   12  A    between atoms: C_21  and  C_41
   13  A    between atoms: C_22  and  C_38
                            x       y       z     vdW  Elec       q    Type
                         _______ _______ _______ _____ _____    ______ ____

>  <TORSDO>
F 13

$$$$
=
 OpenBabel10222421373D

 43 46  0  0  1  0  0  0  0  0999 V2000
  190.6460  176.1970  135.5970 O   0  0  0  0  0  0  0  0  0  0  0  0
  189.4980  176.7760  140.0650 O   0  0  0  0  0  0  0  0  0  0  0  0
  190.4540  177.6510  140.5990 C   0  0  2  0  0  3  0  0  0  0  0  0
  192.8920  177.3480  141.0140 O   0  0  0  0  0  1  0  0  0  0  0  0
  188.5980  177.5140  139.4270 O   0  0  0  0  0  0  0  0  0  0  0  0
  191.2400  176.6670  137.6870 C   0  0  0  0  0  0  0  0  0  0  0  0
  191.6110  176.0530  136.4830 C   0  0  0  0  0  0  0  0  0  0  0  0
  189.9740  177.1750  137.4420 C   0  0  0  0  0  0  0  0  0  0  0  0
  191.8290  177.2500  140.1250 C   0  0  0  0  0  0  0  0  0  0  0  0
  189.2070  178.0050  138.3100 N   0  0  0  0  0  2  0  0  0  0  0  0
  189.6660  176.8760  136.1410 C   0  0  0  0  0  0  0  0  0  0  0  0
  192.1100  176.8260  138.8820 C   0  0  0  0  0  3  0  0  0  0  0  0
  193.9780  176.0540  135.6570 C   0  0  0  0  0  3  0  0  0  0  0  0
  192.8820  175.3500  136.1780 C   0  0  0  0  0  0  0  0  0  0  0  0
  195.1710  175.3990  135.3510 C   0  0  0  0  0  3  0  0  0  0  0  0
  195.2860  174.0270  135.5600 C   0  0  0  0  0  3  0  0  0  0  0  0
  193.0060  173.9590  136.3910 C   0  0  0  0  0  0  0  0  0  0  0  0
  194.2080  173.3000  136.0820 C   0  0  0  0  0  0  0  0  0  0  0  0
  191.9710  173.2440  136.9090 F   0  0  0  0  0  0  0  0  0  0  0  0
  194.3280  171.8200  136.3040 C   0  0  2  0  0  3  0  0  0  0  0  0
  195.6210  170.1030  136.8540 C   0  0  0  0  0  1  0  0  0  0  0  0
  195.6520  171.4750  136.5980 O   0  0  0  0  0  0  0  0  0  0  0  0
  193.8510  171.0740  135.0950 C   0  0  0  0  0  3  0  0  0  0  0  0
  192.7270  170.3660  135.1360 C   0  0  0  0  0  2  0  0  0  0  0  0
  188.4620  177.2550  135.4700 N   0  0  0  0  0  2  0  0  0  0  0  0
  187.2000  176.6110  135.6630 C   0  0  0  0  0  0  0  0  0  0  0  0
  186.0110  177.0910  134.9100 C   0  0  0  0  0  1  0  0  0  0  0  0
  187.0810  175.6440  136.4600 O   0  0  0  0  0  0  0  0  0  0  0  0
  190.3580  177.6410  142.1210 C   0  0  0  0  0  2  0  0  0  0  0  0
  189.8240  176.3080  142.6290 C   0  0  0  0  0  2  0  0  0  0  0  0
  188.8240  176.5110  143.7190 C   0  0  0  0  0  3  0  0  0  0  0  0
  187.5870  176.8910  143.4360 C   0  0  0  0  0  3  0  0  0  0  0  0
  186.6570  177.0660  144.4600 O   0  0  0  0  0  0  0  0  0  0  0  0
  186.8260  178.0580  145.4730 C   0  0  1  0  0  3  0  0  0  0  0  0
  183.5460  179.0010  144.5400 C   0  0  0  0  0  2  0  0  0  0  0  0
  184.9850  179.0950  144.1490 C   0  0  0  0  0  2  0  0  0  0  0  0
  185.6400  179.0220  145.4910 C   0  0  1  0  0  3  0  0  0  0  0  0
  184.6490  178.5510  146.3600 O   0  0  0  0  0  0  0  0  0  0  0  0
  183.5170  179.1030  145.9370 O   0  0  0  0  0  0  0  0  0  0  0  0
  187.0300  177.4100  146.8410 C   0  0  0  0  0  2  0  0  0  0  0  0
  189.3170  178.0720  146.7040 O   0  0  0  0  0  0  0  0  0  0  0  0
  188.4270  178.0150  148.8150 O   0  0  0  0  0  1  0  0  0  0  0  0
  188.3240  177.8410  147.4420 C   0  0  0  0  0  0  0  0  0  0  0  0
  1 11  1  0  0  0  0
  1  7  1  0  0  0  0
  2  3  1  0  0  0  0
  3 29  1  1  0  0  0
  5  2  1  0  0  0  0
  6 12  1  0  0  0  0
  7  6  2  0  0  0  0
  8  6  1  0  0  0  0
  8 10  1  0  0  0  0
  9  3  1  0  0  0  0
  9  4  1  0  0  0  0
 10  5  1  0  0  0  0
 11  8  2  0  0  0  0
 12  9  2  0  0  0  0
 13 14  1  0  0  0  0
 14 17  2  0  0  0  0
 14  7  1  0  0  0  0
 15 16  1  0  0  0  0
 15 13  2  0  0  0  0
 16 18  2  0  0  0  0
 17 19  1  0  0  0  0
 18 20  1  0  0  0  0
 18 17  1  0  0  0  0
 20 23  1  6  0  0  0
 20 22  1  0  0  0  0
 22 21  1  0  0  0  0
 23 24  2  0  0  0  0
 25 26  1  0  0  0  0
 25 11  1  0  0  0  0
 26 28  2  0  0  0  0
 27 26  1  0  0  0  0
 29 30  1  0  0  0  0
 30 31  1  0  0  0  0
 32 31  2  0  0  0  0
 32 33  1  0  0  0  0
 33 34  1  0  0  0  0
 34 40  1  1  0  0  0
 35 39  1  0  0  0  0
 36 35  1  0  0  0  0
 36 37  1  0  0  0  0
 37 34  1  6  0  0  0
 37 38  1  0  0  0  0
 39 38  1  0  0  0  0
 40 43  1  0  0  0  0
 41 43  2  0  0  0  0
 43 42  1  0  0  0  0
M  END
>  <MODEL>
5

>  <REMARK>
 VINA RESULT:      -7.3      3.884      9.622
  Name = 
  13 active torsions:
  status: ('A' for Active; 'I' for Inactive)
    1  A    between atoms: O_1  and  C_5
    2  A    between atoms: O_1  and  C_42
    3  A    between atoms: N_2  and  C_40
    4  A    between atoms: C_5  and  C_22
    5  A    between atoms: C_5  and  C_24
    6  A    between atoms: C_10  and  C_27
    7  A    between atoms: C_11  and  C_41
    8  A    between atoms: C_12  and  O_30
    9  A    between atoms: C_12  and  C_32
   10  A    between atoms: C_12  and  C_33
   11  A    between atoms: C_20  and  C_21
   12  A    between atoms: C_21  and  C_41
   13  A    between atoms: C_22  and  C_38
                            x       y       z     vdW  Elec       q    Type
                         _______ _______ _______ _____ _____    ______ ____

>  <TORSDO>
F 13

$$$$
=
 OpenBabel10222421373D

 43 46  0  0  1  0  0  0  0  0999 V2000
  192.1220  176.8650  139.7120 O   0  0  0  0  0  0  0  0  0  0  0  0
  187.9730  178.7490  138.7840 O   0  0  0  0  0  0  0  0  0  0  0  0
  187.1680  177.6990  138.3200 C   0  0  2  0  0  3  0  0  0  0  0  0
  187.2930  176.3490  136.2280 O   0  0  0  0  0  1  0  0  0  0  0  0
  187.9820  178.6830  140.1100 O   0  0  0  0  0  0  0  0  0  0  0  0
  190.2110  176.8370  138.5760 C   0  0  0  0  0  0  0  0  0  0  0  0
  191.5880  176.5830  138.5400 C   0  0  0  0  0  0  0  0  0  0  0  0
  189.9770  177.3020  139.8610 C   0  0  0  0  0  0  0  0  0  0  0  0
  187.9490  176.8540  137.3440 C   0  0  0  0  0  0  0  0  0  0  0  0
  188.7090  177.5790  140.4480 N   0  0  0  0  0  2  0  0  0  0  0  0
  191.1780  177.2800  140.5200 C   0  0  0  0  0  0  0  0  0  0  0  0
  189.2440  176.5260  137.4900 C   0  0  0  0  0  3  0  0  0  0  0  0
  191.8570  176.0710  136.0990 C   0  0  0  0  0  3  0  0  0  0  0  0
  192.3840  176.0600  137.4000 C   0  0  0  0  0  0  0  0  0  0  0  0
  192.5910  175.5670  135.0250 C   0  0  0  0  0  3  0  0  0  0  0  0
  193.8640  175.0420  135.2360 C   0  0  0  0  0  3  0  0  0  0  0  0
  193.6770  175.5300  137.6060 C   0  0  0  0  0  0  0  0  0  0  0  0
  194.4150  175.0220  136.5250 C   0  0  0  0  0  0  0  0  0  0  0  0
  194.2280  175.5160  138.8510 F   0  0  0  0  0  0  0  0  0  0  0  0
  195.7850  174.4520  136.7540 C   0  0  2  0  0  3  0  0  0  0  0  0
  197.3720  175.5920  135.7040 C   0  0  0  0  0  1  0  0  0  0  0  0
  196.7180  175.4800  136.9330 O   0  0  0  0  0  0  0  0  0  0  0  0
  196.1830  173.5810  135.6020 C   0  0  0  0  0  3  0  0  0  0  0  0
  196.1880  172.2570  135.7250 C   0  0  0  0  0  2  0  0  0  0  0  0
  191.3750  177.6460  141.8880 N   0  0  0  0  0  2  0  0  0  0  0  0
  191.0270  176.8140  142.9980 C   0  0  0  0  0  0  0  0  0  0  0  0
  191.2780  177.2980  144.3810 C   0  0  0  0  0  1  0  0  0  0  0  0
  190.5120  175.6780  142.8220 O   0  0  0  0  0  0  0  0  0  0  0  0
  185.9050  178.2710  137.6830 C   0  0  0  0  0  2  0  0  0  0  0  0
  184.6700  177.9190  138.5010 C   0  0  0  0  0  2  0  0  0  0  0  0
  184.5820  178.7610  139.7300 C   0  0  0  0  0  3  0  0  0  0  0  0
  184.0490  178.2750  140.8420 C   0  0  0  0  0  3  0  0  0  0  0  0
  183.9820  179.0650  141.9890 O   0  0  0  0  0  0  0  0  0  0  0  0
  184.0360  178.5020  143.3000 C   0  0  1  0  0  3  0  0  0  0  0  0
  186.5630  177.5480  145.5850 C   0  0  0  0  0  2  0  0  0  0  0  0
  185.4220  178.4900  145.3710 C   0  0  0  0  0  2  0  0  0  0  0  0
  185.4440  178.6150  143.8820 C   0  0  1  0  0  3  0  0  0  0  0  0
  186.2380  177.5540  143.4330 O   0  0  0  0  0  0  0  0  0  0  0  0
  187.1990  177.4230  144.3420 O   0  0  0  0  0  0  0  0  0  0  0  0
  183.0050  179.1580  144.2160 C   0  0  0  0  0  2  0  0  0  0  0  0
  181.2450  179.9390  142.8110 O   0  0  0  0  0  0  0  0  0  0  0  0
  180.8100  178.0040  143.9600 O   0  0  0  0  0  1  0  0  0  0  0  0
  181.6390  179.0670  143.6280 C   0  0  0  0  0  0  0  0  0  0  0  0
  1 11  1  0  0  0  0
  2  5  1  0  0  0  0
  3 29  1  6  0  0  0
  3  2  1  0  0  0  0
  4  9  1  0  0  0  0
  5 10  1  0  0  0  0
  6  8  1  0  0  0  0
  7  6  2  0  0  0  0
  7  1  1  0  0  0  0
  8 10  1  0  0  0  0
  8 11  2  0  0  0  0
  9 12  2  0  0  0  0
  9  3  1  0  0  0  0
 11 25  1  0  0  0  0
 12  6  1  0  0  0  0
 13 14  1  0  0  0  0
 14 17  2  0  0  0  0
 14  7  1  0  0  0  0
 15 16  1  0  0  0  0
 15 13  2  0  0  0  0
 16 18  2  0  0  0  0
 17 19  1  0  0  0  0
 18 20  1  0  0  0  0
 18 17  1  0  0  0  0
 20 23  1  6  0  0  0
 20 22  1  0  0  0  0
 21 22  1  0  0  0  0
 23 24  2  0  0  0  0
 25 26  1  0  0  0  0
 26 27  1  0  0  0  0
 28 26  2  0  0  0  0
 29 30  1  0  0  0  0
 30 31  1  0  0  0  0
 31 32  2  0  0  0  0
 32 33  1  0  0  0  0
 33 34  1  0  0  0  0
 34 40  1  1  0  0  0
 36 35  1  0  0  0  0
 37 34  1  6  0  0  0
 37 36  1  0  0  0  0
 38 37  1  0  0  0  0
 38 39  1  0  0  0  0
 39 35  1  0  0  0  0
 41 43  2  0  0  0  0
 43 42  1  0  0  0  0
 43 40  1  0  0  0  0
M  END
>  <MODEL>
6

>  <REMARK>
 VINA RESULT:      -7.3      3.767      8.779
  Name = 
  13 active torsions:
  status: ('A' for Active; 'I' for Inactive)
    1  A    between atoms: O_1  and  C_5
    2  A    between atoms: O_1  and  C_42
    3  A    between atoms: N_2  and  C_40
    4  A    between atoms: C_5  and  C_22
    5  A    between atoms: C_5  and  C_24
    6  A    between atoms: C_10  and  C_27
    7  A    between atoms: C_11  and  C_41
    8  A    between atoms: C_12  and  O_30
    9  A    between atoms: C_12  and  C_32
   10  A    between atoms: C_12  and  C_33
   11  A    between atoms: C_20  and  C_21
   12  A    between atoms: C_21  and  C_41
   13  A    between atoms: C_22  and  C_38
                            x       y       z     vdW  Elec       q    Type
                         _______ _______ _______ _____ _____    ______ ____

>  <TORSDO>
F 13

$$$$
=
 OpenBabel10222421373D

 43 46  0  0  1  0  0  0  0  0999 V2000
  191.9450  176.5980  139.7840 O   0  0  0  0  0  0  0  0  0  0  0  0
  187.9760  178.7920  138.7570 O   0  0  0  0  0  0  0  0  0  0  0  0
  187.0840  177.7970  138.3330 C   0  0  2  0  0  3  0  0  0  0  0  0
  187.0950  176.3560  136.3010 O   0  0  0  0  0  1  0  0  0  0  0  0
  187.9780  178.7810  140.0850 O   0  0  0  0  0  0  0  0  0  0  0  0
  190.0400  176.6870  138.6410 C   0  0  0  0  0  0  0  0  0  0  0  0
  191.3900  176.3140  138.6220 C   0  0  0  0  0  0  0  0  0  0  0  0
  189.8460  177.2240  139.9040 C   0  0  0  0  0  0  0  0  0  0  0  0
  187.7900  176.8480  137.3980 C   0  0  0  0  0  0  0  0  0  0  0  0
  188.6060  177.6340  140.4730 N   0  0  0  0  0  2  0  0  0  0  0  0
  191.0390  177.1260  140.5690 C   0  0  0  0  0  0  0  0  0  0  0  0
  189.0510  176.4160  137.5630 C   0  0  0  0  0  3  0  0  0  0  0  0
  193.1820  176.3640  136.8680 C   0  0  0  0  0  3  0  0  0  0  0  0
  192.1400  175.6770  137.5090 C   0  0  0  0  0  0  0  0  0  0  0  0
  193.8800  175.7810  135.8100 C   0  0  0  0  0  3  0  0  0  0  0  0
  193.5460  174.5000  135.3770 C   0  0  0  0  0  3  0  0  0  0  0  0
  191.8080  174.3770  137.0670 C   0  0  0  0  0  0  0  0  0  0  0  0
  192.5120  173.7900  136.0020 C   0  0  0  0  0  0  0  0  0  0  0  0
  190.8140  173.6730  137.6740 F   0  0  0  0  0  0  0  0  0  0  0  0
  192.1470  172.4120  135.5330 C   0  0  2  0  0  3  0  0  0  0  0  0
  193.4970  170.6530  135.6070 C   0  0  0  0  0  1  0  0  0  0  0  0
  193.2310  171.8150  134.8800 O   0  0  0  0  0  0  0  0  0  0  0  0
  190.9580  172.4710  134.6230 C   0  0  0  0  0  3  0  0  0  0  0  0
  189.9830  171.5730  134.7220 C   0  0  0  0  0  2  0  0  0  0  0  0
  191.2650  177.5310  141.9220 N   0  0  0  0  0  2  0  0  0  0  0  0
  190.9590  176.7230  143.0620 C   0  0  0  0  0  0  0  0  0  0  0  0
  191.2380  177.2470  144.4250 C   0  0  0  0  0  1  0  0  0  0  0  0
  190.4590  175.5750  142.9280 O   0  0  0  0  0  0  0  0  0  0  0  0
  185.8760  178.4490  137.6670 C   0  0  0  0  0  2  0  0  0  0  0  0
  184.5810  178.0380  138.3540 C   0  0  0  0  0  2  0  0  0  0  0  0
  184.3310  178.8680  139.5690 C   0  0  0  0  0  3  0  0  0  0  0  0
  184.4690  178.3470  140.7800 C   0  0  0  0  0  3  0  0  0  0  0  0
  184.2450  179.1330  141.9090 O   0  0  0  0  0  0  0  0  0  0  0  0
  184.1420  178.5680  143.2160 C   0  0  1  0  0  3  0  0  0  0  0  0
  186.3520  177.7230  145.8470 C   0  0  0  0  0  2  0  0  0  0  0  0
  185.2370  178.6370  145.4550 C   0  0  0  0  0  2  0  0  0  0  0  0
  185.4570  178.7230  143.9790 C   0  0  1  0  0  3  0  0  0  0  0  0
  186.3200  177.6640  143.6730 O   0  0  0  0  0  0  0  0  0  0  0  0
  187.1510  177.5760  144.7060 O   0  0  0  0  0  0  0  0  0  0  0  0
  182.9800  179.1900  143.9880 C   0  0  0  0  0  2  0  0  0  0  0  0
  181.6200  178.4080  142.1930 O   0  0  0  0  0  0  0  0  0  0  0  0
  180.5210  178.8170  144.1630 O   0  0  0  0  0  1  0  0  0  0  0  0
  181.6750  178.7910  143.3910 C   0  0  0  0  0  0  0  0  0  0  0  0
  1 11  1  0  0  0  0
  2  5  1  0  0  0  0
  3 29  1  6  0  0  0
  3  2  1  0  0  0  0
  4  9  1  0  0  0  0
  5 10  1  0  0  0  0
  6  8  1  0  0  0  0
  7  6  2  0  0  0  0
  7  1  1  0  0  0  0
  8 10  1  0  0  0  0
  8 11  2  0  0  0  0
  9 12  2  0  0  0  0
  9  3  1  0  0  0  0
 11 25  1  0  0  0  0
 12  6  1  0  0  0  0
 13 14  1  0  0  0  0
 14  7  1  0  0  0  0
 15 13  2  0  0  0  0
 16 15  1  0  0  0  0
 16 18  2  0  0  0  0
 17 14  2  0  0  0  0
 17 19  1  0  0  0  0
 18 17  1  0  0  0  0
 20 23  1  6  0  0  0
 20 18  1  0  0  0  0
 22 20  1  0  0  0  0
 22 21  1  0  0  0  0
 23 24  2  0  0  0  0
 25 26  1  0  0  0  0
 26 27  1  0  0  0  0
 28 26  2  0  0  0  0
 29 30  1  0  0  0  0
 30 31  1  0  0  0  0
 31 32  2  0  0  0  0
 32 33  1  0  0  0  0
 33 34  1  0  0  0  0
 34 40  1  1  0  0  0
 36 35  1  0  0  0  0
 37 34  1  6  0  0  0
 37 36  1  0  0  0  0
 38 37  1  0  0  0  0
 38 39  1  0  0  0  0
 39 35  1  0  0  0  0
 41 43  2  0  0  0  0
 43 40  1  0  0  0  0
 43 42  1  0  0  0  0
M  END
>  <MODEL>
7

>  <REMARK>
 VINA RESULT:      -7.2      3.402      8.640
  Name = 
  13 active torsions:
  status: ('A' for Active; 'I' for Inactive)
    1  A    between atoms: O_1  and  C_5
    2  A    between atoms: O_1  and  C_42
    3  A    between atoms: N_2  and  C_40
    4  A    between atoms: C_5  and  C_22
    5  A    between atoms: C_5  and  C_24
    6  A    between atoms: C_10  and  C_27
    7  A    between atoms: C_11  and  C_41
    8  A    between atoms: C_12  and  O_30
    9  A    between atoms: C_12  and  C_32
   10  A    between atoms: C_12  and  C_33
   11  A    between atoms: C_20  and  C_21
   12  A    between atoms: C_21  and  C_41
   13  A    between atoms: C_22  and  C_38
                            x       y       z     vdW  Elec       q    Type
                         _______ _______ _______ _____ _____    ______ ____

>  <TORSDO>
F 13

$$$$
=
 OpenBabel10222421373D

 43 46  0  0  1  0  0  0  0  0999 V2000
  191.5280  176.8500  140.2570 O   0  0  0  0  0  0  0  0  0  0  0  0
  187.6260  176.2780  137.7930 O   0  0  0  0  0  0  0  0  0  0  0  0
  187.0310  177.5440  137.7130 C   0  0  2  0  0  3  0  0  0  0  0  0
  185.9970  178.9750  139.4730 O   0  0  0  0  0  1  0  0  0  0  0  0
  188.5750  176.2280  136.8660 O   0  0  0  0  0  0  0  0  0  0  0  0
  189.4640  177.5030  139.7490 C   0  0  0  0  0  0  0  0  0  0  0  0
  190.4240  177.3660  140.7600 C   0  0  0  0  0  0  0  0  0  0  0  0
  190.0870  177.0160  138.6100 C   0  0  0  0  0  0  0  0  0  0  0  0
  187.0870  178.2170  139.0620 C   0  0  0  0  0  0  0  0  0  0  0  0
  189.5790  177.0540  137.2800 N   0  0  0  0  0  2  0  0  0  0  0  0
  191.3560  176.6480  138.9740 C   0  0  0  0  0  0  0  0  0  0  0  0
  188.1380  178.1590  139.8970 C   0  0  0  0  0  3  0  0  0  0  0  0
  191.1960  178.6410  142.7770 C   0  0  0  0  0  3  0  0  0  0  0  0
  190.2940  177.7400  142.1920 C   0  0  0  0  0  0  0  0  0  0  0  0
  191.0920  178.9850  144.1250 C   0  0  0  0  0  3  0  0  0  0  0  0
  190.0830  178.4310  144.9100 C   0  0  0  0  0  3  0  0  0  0  0  0
  189.2720  177.1830  142.9920 C   0  0  0  0  0  0  0  0  0  0  0  0
  189.1670  177.5300  144.3490 C   0  0  0  0  0  0  0  0  0  0  0  0
  188.3680  176.3180  142.4570 F   0  0  0  0  0  0  0  0  0  0  0  0
  188.0820  176.9280  145.1950 C   0  0  2  0  0  3  0  0  0  0  0  0
  186.2120  178.1130  145.3240 C   0  0  0  0  0  1  0  0  0  0  0  0
  186.8350  177.1040  144.5870 O   0  0  0  0  0  0  0  0  0  0  0  0
  188.0890  177.5440  146.5610 C   0  0  0  0  0  3  0  0  0  0  0  0
  188.5310  176.8590  147.6110 C   0  0  0  0  0  2  0  0  0  0  0  0
  192.3500  176.1300  138.0860 N   0  0  0  0  0  2  0  0  0  0  0  0
  192.2950  174.8300  137.4930 C   0  0  0  0  0  0  0  0  0  0  0  0
  193.3870  174.3960  136.5820 C   0  0  0  0  0  1  0  0  0  0  0  0
  191.3360  174.0480  137.7290 O   0  0  0  0  0  0  0  0  0  0  0  0
  185.5960  177.4000  137.2160 C   0  0  0  0  0  2  0  0  0  0  0  0
  185.5410  177.3910  135.6940 C   0  0  0  0  0  2  0  0  0  0  0  0
  184.9280  176.1280  135.1870 C   0  0  0  0  0  3  0  0  0  0  0  0
  185.6360  175.0090  135.1370 C   0  0  0  0  0  3  0  0  0  0  0  0
  185.0520  173.8310  134.6730 O   0  0  0  0  0  0  0  0  0  0  0  0
  185.0270  172.6390  135.4580 C   0  0  1  0  0  3  0  0  0  0  0  0
  182.9640  169.7680  135.6080 C   0  0  0  0  0  2  0  0  0  0  0  0
  184.3700  170.2340  135.4110 C   0  0  0  0  0  2  0  0  0  0  0  0
  184.1310  171.5830  134.8120 C   0  0  1  0  0  3  0  0  0  0  0  0
  182.7850  171.8680  135.0700 O   0  0  0  0  0  0  0  0  0  0  0  0
  182.1510  170.7060  134.9590 O   0  0  0  0  0  0  0  0  0  0  0  0
  186.4400  172.1030  135.6790 C   0  0  0  0  0  2  0  0  0  0  0  0
  186.1970  172.7910  137.9490 O   0  0  0  0  0  1  0  0  0  0  0  0
  188.3490  172.7030  137.1660 O   0  0  0  0  0  0  0  0  0  0  0  0
  186.9800  172.5590  136.9910 C   0  0  0  0  0  0  0  0  0  0  0  0
  1  7  1  0  0  0  0
  3 29  1  1  0  0  0
  3  2  1  0  0  0  0
  3  9  1  0  0  0  0
  5 10  1  0  0  0  0
  5  2  1  0  0  0  0
  6 12  1  0  0  0  0
  6  7  2  0  0  0  0
  7 14  1  0  0  0  0
  8 11  2  0  0  0  0
  8  6  1  0  0  0  0
  9  4  1  0  0  0  0
  9 12  2  0  0  0  0
 10  8  1  0  0  0  0
 11  1  1  0  0  0  0
 13 15  1  0  0  0  0
 14 13  2  0  0  0  0
 14 17  1  0  0  0  0
 15 16  2  0  0  0  0
 17 18  2  0  0  0  0
 18 16  1  0  0  0  0
 18 20  1  0  0  0  0
 19 17  1  0  0  0  0
 20 23  1  1  0  0  0
 22 20  1  0  0  0  0
 22 21  1  0  0  0  0
 23 24  2  0  0  0  0
 25 11  1  0  0  0  0
 26 28  2  0  0  0  0
 26 25  1  0  0  0  0
 27 26  1  0  0  0  0
 30 29  1  0  0  0  0
 31 30  1  0  0  0  0
 32 31  2  0  0  0  0
 33 32  1  0  0  0  0
 33 34  1  0  0  0  0
 34 40  1  6  0  0  0
 36 35  1  0  0  0  0
 37 38  1  0  0  0  0
 37 36  1  0  0  0  0
 37 34  1  1  0  0  0
 39 38  1  0  0  0  0
 39 35  1  0  0  0  0
 40 43  1  0  0  0  0
 43 42  2  0  0  0  0
 43 41  1  0  0  0  0
M  END
>  <MODEL>
8

>  <REMARK>
 VINA RESULT:      -7.2      2.384      4.661
  Name = 
  13 active torsions:
  status: ('A' for Active; 'I' for Inactive)
    1  A    between atoms: O_1  and  C_5
    2  A    between atoms: O_1  and  C_42
    3  A    between atoms: N_2  and  C_40
    4  A    between atoms: C_5  and  C_22
    5  A    between atoms: C_5  and  C_24
    6  A    between atoms: C_10  and  C_27
    7  A    between atoms: C_11  and  C_41
    8  A    between atoms: C_12  and  O_30
    9  A    between atoms: C_12  and  C_32
   10  A    between atoms: C_12  and  C_33
   11  A    between atoms: C_20  and  C_21
   12  A    between atoms: C_21  and  C_41
   13  A    between atoms: C_22  and  C_38
                            x       y       z     vdW  Elec       q    Type
                         _______ _______ _______ _____ _____    ______ ____

>  <TORSDO>
F 13

$$$$
=
 OpenBabel10222421373D

 43 46  0  0  1  0  0  0  0  0999 V2000
  190.8650  175.9800  139.5500 O   0  0  0  0  0  0  0  0  0  0  0  0
  188.2600  176.4200  135.7230 O   0  0  0  0  0  0  0  0  0  0  0  0
  188.0850  177.7980  135.5320 C   0  0  2  0  0  3  0  0  0  0  0  0
  186.8320  179.4840  136.8720 O   0  0  0  0  0  1  0  0  0  0  0  0
  189.4540  176.1020  135.2380 O   0  0  0  0  0  0  0  0  0  0  0  0
  189.4100  177.1480  138.3410 C   0  0  0  0  0  0  0  0  0  0  0  0
  189.8210  176.7800  139.6290 C   0  0  0  0  0  0  0  0  0  0  0  0
  190.2910  176.4920  137.4950 C   0  0  0  0  0  0  0  0  0  0  0  0
  187.7660  178.4560  136.8510 C   0  0  0  0  0  0  0  0  0  0  0  0
  190.3820  176.6390  136.0810 N   0  0  0  0  0  2  0  0  0  0  0  0
  191.1730  175.8070  138.2880 C   0  0  0  0  0  0  0  0  0  0  0  0
  188.3460  178.1360  138.0200 C   0  0  0  0  0  3  0  0  0  0  0  0
  188.0450  177.9550  140.9550 C   0  0  0  0  0  3  0  0  0  0  0  0
  189.2290  177.2020  140.9240 C   0  0  0  0  0  0  0  0  0  0  0  0
  187.4920  178.3700  142.1660 C   0  0  0  0  0  3  0  0  0  0  0  0
  188.1150  178.0390  143.3670 C   0  0  0  0  0  3  0  0  0  0  0  0
  189.8550  176.8680  142.1460 C   0  0  0  0  0  0  0  0  0  0  0  0
  189.2970  177.2860  143.3650 C   0  0  0  0  0  0  0  0  0  0  0  0
  190.9960  176.1250  142.1570 F   0  0  0  0  0  0  0  0  0  0  0  0
  189.9730  176.9330  144.6580 C   0  0  2  0  0  3  0  0  0  0  0  0
  189.8480  176.9120  146.8720 C   0  0  0  0  0  1  0  0  0  0  0  0
  189.0650  177.0050  145.7200 O   0  0  0  0  0  0  0  0  0  0  0  0
  191.1340  177.8470  144.9020 C   0  0  0  0  0  3  0  0  0  0  0  0
  191.3720  178.8730  144.0890 C   0  0  0  0  0  2  0  0  0  0  0  0
  192.2740  175.0260  137.8140 N   0  0  0  0  0  2  0  0  0  0  0  0
  193.5740  175.5550  137.5430 C   0  0  0  0  0  0  0  0  0  0  0  0
  194.6450  174.6480  137.0520 C   0  0  0  0  0  1  0  0  0  0  0  0
  193.8260  176.7770  137.7120 O   0  0  0  0  0  0  0  0  0  0  0  0
  186.9810  178.0310  134.5050 C   0  0  0  0  0  2  0  0  0  0  0  0
  185.9980  176.8690  134.4810 C   0  0  0  0  0  2  0  0  0  0  0  0
  184.6450  177.3000  134.9410 C   0  0  0  0  0  3  0  0  0  0  0  0
  184.1510  176.8590  136.0890 C   0  0  0  0  0  3  0  0  0  0  0  0
  182.8910  177.2770  136.5150 O   0  0  0  0  0  0  0  0  0  0  0  0
  182.6990  177.9470  137.7610 C   0  0  1  0  0  3  0  0  0  0  0  0
  180.5790  175.2020  138.4620 C   0  0  0  0  0  2  0  0  0  0  0  0
  180.6720  176.4950  137.7180 C   0  0  0  0  0  2  0  0  0  0  0  0
  181.6240  177.2460  138.5920 C   0  0  1  0  0  3  0  0  0  0  0  0
  182.2080  176.2800  139.4200 O   0  0  0  0  0  0  0  0  0  0  0  0
  181.2400  175.4080  139.6800 O   0  0  0  0  0  0  0  0  0  0  0  0
  184.0130  178.0490  138.5330 C   0  0  0  0  0  2  0  0  0  0  0  0
  185.0170  179.5640  140.0760 O   0  0  0  0  0  1  0  0  0  0  0  0
  183.2800  180.4120  138.8430 O   0  0  0  0  0  0  0  0  0  0  0  0
  184.1310  179.3750  139.2020 C   0  0  0  0  0  0  0  0  0  0  0  0
  1  7  1  0  0  0  0
  3 29  1  6  0  0  0
  3  2  1  0  0  0  0
  3  9  1  0  0  0  0
  5  2  1  0  0  0  0
  5 10  1  0  0  0  0
  6  7  2  0  0  0  0
  7 14  1  0  0  0  0
  8 11  2  0  0  0  0
  8  6  1  0  0  0  0
  9  4  1  0  0  0  0
  9 12  2  0  0  0  0
 10  8  1  0  0  0  0
 11  1  1  0  0  0  0
 12  6  1  0  0  0  0
 13 15  1  0  0  0  0
 14 13  2  0  0  0  0
 14 17  1  0  0  0  0
 15 16  2  0  0  0  0
 17 19  1  0  0  0  0
 17 18  2  0  0  0  0
 18 16  1  0  0  0  0
 18 20  1  0  0  0  0
 20 23  1  1  0  0  0
 20 22  1  0  0  0  0
 22 21  1  0  0  0  0
 24 23  2  0  0  0  0
 25 11  1  0  0  0  0
 26 28  2  0  0  0  0
 26 25  1  0  0  0  0
 27 26  1  0  0  0  0
 30 29  1  0  0  0  0
 30 31  1  0  0  0  0
 31 32  2  0  0  0  0
 32 33  1  0  0  0  0
 33 34  1  0  0  0  0
 34 40  1  1  0  0  0
 35 39  1  0  0  0  0
 36 35  1  0  0  0  0
 36 37  1  0  0  0  0
 37 34  1  6  0  0  0
 37 38  1  0  0  0  0
 38 39  1  0  0  0  0
 40 43  1  0  0  0  0
 42 43  2  0  0  0  0
 43 41  1  0  0  0  0
M  END
>  <MODEL>
9

>  <REMARK>
 VINA RESULT:      -7.2      2.673      5.315
  Name = 
  13 active torsions:
  status: ('A' for Active; 'I' for Inactive)
    1  A    between atoms: O_1  and  C_5
    2  A    between atoms: O_1  and  C_42
    3  A    between atoms: N_2  and  C_40
    4  A    between atoms: C_5  and  C_22
    5  A    between atoms: C_5  and  C_24
    6  A    between atoms: C_10  and  C_27
    7  A    between atoms: C_11  and  C_41
    8  A    between atoms: C_12  and  O_30
    9  A    between atoms: C_12  and  C_32
   10  A    between atoms: C_12  and  C_33
   11  A    between atoms: C_20  and  C_21
   12  A    between atoms: C_21  and  C_41
   13  A    between atoms: C_22  and  C_38
                            x       y       z     vdW  Elec       q    Type
                         _______ _______ _______ _____ _____    ______ ____

>  <TORSDO>
F 13

$$$$
