=
 OpenBabel10222422043D

 44 49  0  0  1  0  0  0  0  0999 V2000
  186.7560  178.0400  138.3570 C   0  0  2  0  0  3  0  0  0  0  0  0
  188.9270  177.9590  141.9650 C   0  0  0  0  0  0  0  0  0  0  0  0
  190.8460  177.3140  140.6220 C   0  0  0  0  0  3  0  0  0  0  0  0
  187.4810  178.3690  142.0220 C   0  0  0  0  0  2  0  0  0  0  0  0
  188.7120  177.7570  139.5680 O   0  0  0  0  0  0  0  0  0  0  0  0
  186.7450  177.9540  140.7470 C   0  0  0  0  0  2  0  0  0  0  0  0
  189.7050  177.8670  143.1340 C   0  0  0  0  0  0  0  0  0  0  0  0
  187.4940  178.4190  139.5730 N   0  0  0  0  0  0  0  0  0  0  0  0
  189.5050  177.6880  140.7160 C   0  0  0  0  0  0  0  0  0  0  0  0
  191.6220  177.2220  141.7770 C   0  0  0  0  0  3  0  0  0  0  0  0
  191.0530  177.4940  143.0250 C   0  0  0  0  0  3  0  0  0  0  0  0
  190.4030  176.6970  145.7530 O   0  0  0  0  0  0  0  0  0  0  0  0
  189.4330  177.4950  145.6590 C   0  0  0  0  0  0  0  0  0  0  0  0
  189.1020  178.1200  144.4130 N   0  0  0  0  0  2  0  0  0  0  0  0
  188.6280  177.8100  146.8690 C   0  0  0  0  0  2  0  0  0  0  0  0
  187.1600  177.5520  146.6030 C   0  0  0  0  0  2  0  0  0  0  0  0
  186.3920  178.3560  147.4440 O   0  0  0  0  0  0  0  0  0  0  0  0
  185.8040  179.2930  146.5970 C   0  0  0  0  0  2  0  0  0  0  0  0
  183.6880  179.1100  145.5630 O   0  0  0  0  0  0  0  0  0  0  0  0
  184.5490  179.4750  144.6020 O   0  0  0  0  0  0  0  0  0  0  0  0
  184.9570  178.5790  145.5650 C   0  0  0  0  0  3  0  0  0  0  0  0
  189.6210  177.5070  136.7650 C   0  0  0  0  0  2  0  0  0  0  0  0
  187.3480  178.5990  137.0470 C   0  0  2  0  0  3  0  0  0  0  0  0
  186.6490  178.1880  135.8260 N   0  0  0  0  0  2  0  0  0  0  0  0
  187.1870  176.9520  135.2660 C   0  0  0  0  0  2  0  0  0  0  0  0
  188.4520  177.2470  134.4750 C   0  0  0  0  0  2  0  0  0  0  0  0
  188.8640  178.8160  136.9290 C   0  0  0  0  0  2  0  0  0  0  0  0
  189.7240  177.0580  135.3070 C   0  0  0  0  0  2  0  0  0  0  0  0
  184.9480  179.5800  138.9870 N   0  0  0  0  0  0  0  0  0  0  0  0
  185.2860  178.3880  138.4280 C   0  0  0  0  0  0  0  0  0  0  0  0
  184.2690  177.4950  138.0250 C   0  0  0  0  0  0  0  0  0  0  0  0
  182.6590  179.1170  138.7480 N   0  0  0  0  0  0  0  0  0  0  0  0
  183.6530  179.9470  139.1460 C   0  0  0  0  0  3  0  0  0  0  0  0
  182.9280  177.9060  138.1950 C   0  0  0  0  0  0  0  0  0  0  0  0
  181.8380  177.0780  137.7980 N   0  0  0  0  0  1  0  0  0  0  0  0
  184.1270  175.1200  137.8240 N   0  0  0  0  0  0  0  0  0  0  0  0
  184.6260  176.2290  137.4480 N   0  0  0  0  0  0  0  0  0  0  0  0
  185.7110  170.3090  135.3880 O   0  0  0  0  0  1  0  0  0  0  0  0
  185.3140  171.4950  135.9910 C   0  0  0  0  0  0  0  0  0  0  0  0
  186.2410  172.5200  136.1940 C   0  0  0  0  0  3  0  0  0  0  0  0
  185.8420  173.7130  136.8070 C   0  0  0  0  0  3  0  0  0  0  0  0
  183.9890  171.6600  136.4000 C   0  0  0  0  0  3  0  0  0  0  0  0
  183.5900  172.8530  137.0090 C   0  0  0  0  0  3  0  0  0  0  0  0
  184.5150  173.8870  137.2160 C   0  0  0  0  0  0  0  0  0  0  0  0
  1 30  1  1  0  0  0
  1  8  1  0  0  0  0
  2  4  1  0  0  0  0
  2  7  1  0  0  0  0
  3  9  1  0  0  0  0
  3 10  2  0  0  0  0
  5  8  1  0  0  0  0
  5  9  1  0  0  0  0
  6  4  1  0  0  0  0
  7 14  1  0  0  0  0
  8  6  1  0  0  0  0
  9  2  2  0  0  0  0
 10 11  1  0  0  0  0
 11  7  2  0  0  0  0
 13 12  2  0  0  0  0
 13 15  1  0  0  0  0
 14 13  1  0  0  0  0
 16 15  1  0  0  0  0
 16 17  1  0  0  0  0
 18 17  1  0  0  0  0
 19 21  1  0  0  0  0
 20 19  1  0  0  0  0
 20 21  1  0  0  0  0
 21 18  1  0  0  0  0
 22 27  1  0  0  0  0
 23  1  1  1  0  0  0
 24 23  1  0  0  0  0
 25 24  1  0  0  0  0
 26 25  1  0  0  0  0
 26 28  1  0  0  0  0
 27 23  1  0  0  0  0
 28 22  1  0  0  0  0
 29 33  1  0  0  0  0
 30 29  2  0  0  0  0
 31 34  2  0  0  0  0
 31 30  1  0  0  0  0
 32 33  2  0  0  0  0
 34 32  1  0  0  0  0
 35 34  1  0  0  0  0
 37 36  2  0  0  0  0
 37 31  1  0  0  0  0
 38 39  1  0  0  0  0
 39 40  2  0  0  0  0
 39 42  1  0  0  0  0
 40 41  1  0  0  0  0
 41 44  2  0  0  0  0
 42 43  2  0  0  0  0
 43 44  1  0  0  0  0
 44 36  1  0  0  0  0
M  END
>  <MODEL>
1

>  <REMARK>
 VINA RESULT:      -8.1      0.000      0.000
  Name = 
  11 active torsions:
  status: ('A' for Active; 'I' for Inactive)
    1  A    between atoms: C_5  and  C_41
    2  A    between atoms: N_7  and  C_24
    3  A    between atoms: C_9  and  C_41
    4  A    between atoms: O_10  and  C_37
    5  A    between atoms: O_10  and  C_43
    6  A    between atoms: C_11  and  N_27
    7  A    between atoms: C_28  and  N_39
    8  A    between atoms: N_31  and  C_41
    9  A    between atoms: C_32  and  C_37
   10  A    between atoms: C_32  and  C_38
   11  A    between atoms: C_35  and  C_43
                            x       y       z     vdW  Elec       q    Type
                         _______ _______ _______ _____ _____    ______ ____

>  <TORSDO>
F 11

$$$$
=
 OpenBabel10222422043D

 44 49  0  0  1  0  0  0  0  0999 V2000
  186.6270  178.0380  138.2830 C   0  0  2  0  0  3  0  0  0  0  0  0
  188.6420  177.9600  141.9820 C   0  0  0  0  0  0  0  0  0  0  0  0
  190.5210  177.0130  140.7670 C   0  0  0  0  0  3  0  0  0  0  0  0
  187.2520  178.5320  141.9490 C   0  0  0  0  0  2  0  0  0  0  0  0
  188.4920  177.6200  139.5940 O   0  0  0  0  0  0  0  0  0  0  0  0
  186.5200  178.1160  140.6710 C   0  0  0  0  0  2  0  0  0  0  0  0
  189.3620  177.8600  143.1870 C   0  0  0  0  0  0  0  0  0  0  0  0
  187.3590  178.4130  139.5040 N   0  0  0  0  0  0  0  0  0  0  0  0
  189.2300  177.5400  140.7790 C   0  0  0  0  0  0  0  0  0  0  0  0
  191.2390  176.9130  141.9590 C   0  0  0  0  0  3  0  0  0  0  0  0
  190.6610  177.3320  143.1600 C   0  0  0  0  0  3  0  0  0  0  0  0
  187.1910  176.5240  144.6750 O   0  0  0  0  0  0  0  0  0  0  0  0
  187.6560  177.6180  145.0900 C   0  0  0  0  0  0  0  0  0  0  0  0
  188.7450  178.2660  144.4190 N   0  0  0  0  0  2  0  0  0  0  0  0
  187.0780  178.2420  146.3100 C   0  0  0  0  0  2  0  0  0  0  0  0
  188.0290  178.0900  147.4780 C   0  0  0  0  0  2  0  0  0  0  0  0
  188.7700  176.9210  147.3180 O   0  0  0  0  0  0  0  0  0  0  0  0
  190.0540  177.2540  147.7470 C   0  0  0  0  0  2  0  0  0  0  0  0
  191.9820  176.9150  146.4240 O   0  0  0  0  0  0  0  0  0  0  0  0
  192.3060  176.5410  147.6710 O   0  0  0  0  0  0  0  0  0  0  0  0
  191.0470  176.2560  147.1900 C   0  0  0  0  0  3  0  0  0  0  0  0
  189.5580  177.5820  136.7900 C   0  0  0  0  0  2  0  0  0  0  0  0
  187.2360  178.5870  136.9770 C   0  0  2  0  0  3  0  0  0  0  0  0
  186.5900  178.1160  135.7480 N   0  0  0  0  0  2  0  0  0  0  0  0
  187.1940  176.8890  135.2360 C   0  0  0  0  0  2  0  0  0  0  0  0
  188.4690  177.2150  134.4750 C   0  0  0  0  0  2  0  0  0  0  0  0
  188.7450  178.8620  136.8970 C   0  0  0  0  0  2  0  0  0  0  0  0
  189.7220  177.1000  135.3480 C   0  0  0  0  0  2  0  0  0  0  0  0
  184.8290  179.5940  138.9020 N   0  0  0  0  0  0  0  0  0  0  0  0
  185.1600  178.4020  138.3420 C   0  0  0  0  0  0  0  0  0  0  0  0
  184.1380  177.5200  137.9250 C   0  0  0  0  0  0  0  0  0  0  0  0
  182.5380  179.1560  138.6390 N   0  0  0  0  0  0  0  0  0  0  0  0
  183.5370  179.9740  139.0500 C   0  0  0  0  0  3  0  0  0  0  0  0
  182.8000  177.9450  138.0840 C   0  0  0  0  0  0  0  0  0  0  0  0
  181.7050  177.1290  137.6730 N   0  0  0  0  0  1  0  0  0  0  0  0
  184.1580  175.1340  137.8550 N   0  0  0  0  0  0  0  0  0  0  0  0
  184.4880  176.2530  137.3470 N   0  0  0  0  0  0  0  0  0  0  0  0
  185.6820  170.3180  135.3910 O   0  0  0  0  0  1  0  0  0  0  0  0
  185.3000  171.5050  136.0000 C   0  0  0  0  0  0  0  0  0  0  0  0
  186.2520  172.4910  136.2690 C   0  0  0  0  0  3  0  0  0  0  0  0
  185.8670  173.6850  136.8890 C   0  0  0  0  0  3  0  0  0  0  0  0
  183.9640  171.7100  136.3510 C   0  0  0  0  0  3  0  0  0  0  0  0
  183.5790  172.9050  136.9670 C   0  0  0  0  0  3  0  0  0  0  0  0
  184.5300  173.9000  137.2390 C   0  0  0  0  0  0  0  0  0  0  0  0
  1 30  1  1  0  0  0
  1  8  1  0  0  0  0
  2  7  1  0  0  0  0
  3  9  1  0  0  0  0
  3 10  2  0  0  0  0
  4  2  1  0  0  0  0
  5  9  1  0  0  0  0
  6  4  1  0  0  0  0
  7 14  1  0  0  0  0
  8  5  1  0  0  0  0
  8  6  1  0  0  0  0
  9  2  2  0  0  0  0
 10 11  1  0  0  0  0
 11  7  2  0  0  0  0
 12 13  2  0  0  0  0
 13 15  1  0  0  0  0
 14 13  1  0  0  0  0
 15 16  1  0  0  0  0
 17 16  1  0  0  0  0
 17 18  1  0  0  0  0
 19 21  1  0  0  0  0
 19 20  1  0  0  0  0
 21 20  1  0  0  0  0
 21 18  1  0  0  0  0
 22 27  1  0  0  0  0
 23  1  1  1  0  0  0
 24 23  1  0  0  0  0
 25 24  1  0  0  0  0
 26 25  1  0  0  0  0
 26 28  1  0  0  0  0
 27 23  1  0  0  0  0
 28 22  1  0  0  0  0
 29 33  1  0  0  0  0
 30 29  2  0  0  0  0
 31 34  2  0  0  0  0
 31 30  1  0  0  0  0
 32 33  2  0  0  0  0
 34 32  1  0  0  0  0
 35 34  1  0  0  0  0
 37 36  2  0  0  0  0
 37 31  1  0  0  0  0
 38 39  1  0  0  0  0
 39 40  2  0  0  0  0
 39 42  1  0  0  0  0
 40 41  1  0  0  0  0
 41 44  2  0  0  0  0
 42 43  2  0  0  0  0
 43 44  1  0  0  0  0
 44 36  1  0  0  0  0
M  END
>  <MODEL>
2

>  <REMARK>
 VINA RESULT:      -8.1      1.175      2.386
  Name = 
  11 active torsions:
  status: ('A' for Active; 'I' for Inactive)
    1  A    between atoms: C_5  and  C_41
    2  A    between atoms: N_7  and  C_24
    3  A    between atoms: C_9  and  C_41
    4  A    between atoms: O_10  and  C_37
    5  A    between atoms: O_10  and  C_43
    6  A    between atoms: C_11  and  N_27
    7  A    between atoms: C_28  and  N_39
    8  A    between atoms: N_31  and  C_41
    9  A    between atoms: C_32  and  C_37
   10  A    between atoms: C_32  and  C_38
   11  A    between atoms: C_35  and  C_43
                            x       y       z     vdW  Elec       q    Type
                         _______ _______ _______ _____ _____    ______ ____

>  <TORSDO>
F 11

$$$$
=
 OpenBabel10222422043D

 44 49  0  0  1  0  0  0  0  0999 V2000
  185.4600  177.9810  139.2210 C   0  0  2  0  0  3  0  0  0  0  0  0
  185.0940  178.6100  143.3700 C   0  0  0  0  0  0  0  0  0  0  0  0
  182.6920  178.6180  143.0050 C   0  0  0  0  0  3  0  0  0  0  0  0
  186.4760  178.4450  142.8020 C   0  0  0  0  0  2  0  0  0  0  0  0
  184.2060  178.2550  141.1510 O   0  0  0  0  0  0  0  0  0  0  0  0
  186.4700  178.6440  141.2850 C   0  0  0  0  0  2  0  0  0  0  0  0
  184.8940  178.8660  144.7390 C   0  0  0  0  0  0  0  0  0  0  0  0
  185.4290  177.8020  140.6820 N   0  0  0  0  0  0  0  0  0  0  0  0
  183.9900  178.4820  142.5130 C   0  0  0  0  0  0  0  0  0  0  0  0
  182.4880  178.8720  144.3610 C   0  0  0  0  0  3  0  0  0  0  0  0
  183.5830  178.9970  145.2210 C   0  0  0  0  0  3  0  0  0  0  0  0
  186.4680  176.7680  146.0920 O   0  0  0  0  0  0  0  0  0  0  0  0
  186.7390  177.9820  146.2890 C   0  0  0  0  0  0  0  0  0  0  0  0
  186.0280  179.0230  145.6070 N   0  0  0  0  0  2  0  0  0  0  0  0
  187.8310  178.3430  147.2320 C   0  0  0  0  0  2  0  0  0  0  0  0
  188.6480  177.1170  147.5820 C   0  0  0  0  0  2  0  0  0  0  0  0
  189.9700  177.4950  147.8060 O   0  0  0  0  0  0  0  0  0  0  0  0
  190.7300  176.5250  147.1550 C   0  0  0  0  0  2  0  0  0  0  0  0
  191.8440  176.1090  145.1130 O   0  0  0  0  0  0  0  0  0  0  0  0
  190.6590  176.6510  144.7950 O   0  0  0  0  0  0  0  0  0  0  0  0
  191.3370  177.1170  145.9000 C   0  0  0  0  0  3  0  0  0  0  0  0
  188.4880  176.8200  138.5040 C   0  0  0  0  0  2  0  0  0  0  0  0
  186.7410  178.6510  138.6840 C   0  0  2  0  0  3  0  0  0  0  0  0
  186.6530  179.1380  137.3040 N   0  0  0  0  0  2  0  0  0  0  0  0
  187.0560  178.1280  136.3310 C   0  0  0  0  0  2  0  0  0  0  0  0
  188.5730  178.0670  136.2420 C   0  0  0  0  0  2  0  0  0  0  0  0
  188.1160  178.1460  139.1470 C   0  0  0  0  0  2  0  0  0  0  0  0
  189.1730  176.9880  137.1470 C   0  0  0  0  0  2  0  0  0  0  0  0
  184.0750  180.0060  139.0940 N   0  0  0  0  0  0  0  0  0  0  0  0
  184.2510  178.7200  138.6930 C   0  0  0  0  0  0  0  0  0  0  0  0
  183.2690  178.1010  137.8880 C   0  0  0  0  0  0  0  0  0  0  0  0
  182.0430  180.1600  137.9280 N   0  0  0  0  0  0  0  0  0  0  0  0
  182.9890  180.7240  138.7180 C   0  0  0  0  0  3  0  0  0  0  0  0
  182.1510  178.8750  137.5050 C   0  0  0  0  0  0  0  0  0  0  0  0
  181.1220  178.3390  136.6760 N   0  0  0  0  0  1  0  0  0  0  0  0
  182.9610  175.7440  138.1080 N   0  0  0  0  0  0  0  0  0  0  0  0
  183.4480  176.7360  137.4770 N   0  0  0  0  0  0  0  0  0  0  0  0
  183.6950  170.4540  136.3560 O   0  0  0  0  0  1  0  0  0  0  0  0
  183.5200  171.7610  136.7900 C   0  0  0  0  0  0  0  0  0  0  0  0
  182.2560  172.3530  136.7320 C   0  0  0  0  0  3  0  0  0  0  0  0
  182.0810  173.6720  137.1640 C   0  0  0  0  0  3  0  0  0  0  0  0
  184.6100  172.4860  137.2770 C   0  0  0  0  0  3  0  0  0  0  0  0
  184.4340  173.8030  137.7100 C   0  0  0  0  0  3  0  0  0  0  0  0
  183.1670  174.4040  137.6570 C   0  0  0  0  0  0  0  0  0  0  0  0
  1 30  1  1  0  0  0
  1  8  1  0  0  0  0
  2  7  1  0  0  0  0
  3 10  2  0  0  0  0
  4  2  1  0  0  0  0
  5  9  1  0  0  0  0
  6  4  1  0  0  0  0
  7 11  2  0  0  0  0
  7 14  1  0  0  0  0
  8  5  1  0  0  0  0
  8  6  1  0  0  0  0
  9  3  1  0  0  0  0
  9  2  2  0  0  0  0
 10 11  1  0  0  0  0
 12 13  2  0  0  0  0
 13 15  1  0  0  0  0
 14 13  1  0  0  0  0
 15 16  1  0  0  0  0
 16 17  1  0  0  0  0
 18 17  1  0  0  0  0
 19 21  1  0  0  0  0
 20 19  1  0  0  0  0
 20 21  1  0  0  0  0
 21 18  1  0  0  0  0
 22 27  1  0  0  0  0
 23 27  1  0  0  0  0
 23  1  1  6  0  0  0
 24 23  1  0  0  0  0
 25 24  1  0  0  0  0
 26 25  1  0  0  0  0
 26 28  1  0  0  0  0
 28 22  1  0  0  0  0
 30 29  2  0  0  0  0
 31 30  1  0  0  0  0
 32 33  2  0  0  0  0
 33 29  1  0  0  0  0
 34 31  2  0  0  0  0
 34 32  1  0  0  0  0
 35 34  1  0  0  0  0
 37 31  1  0  0  0  0
 37 36  2  0  0  0  0
 38 39  1  0  0  0  0
 39 42  1  0  0  0  0
 40 39  2  0  0  0  0
 40 41  1  0  0  0  0
 41 44  2  0  0  0  0
 42 43  2  0  0  0  0
 44 43  1  0  0  0  0
 44 36  1  0  0  0  0
M  END
>  <MODEL>
3

>  <REMARK>
 VINA RESULT:      -7.6      2.065      3.929
  Name = 
  11 active torsions:
  status: ('A' for Active; 'I' for Inactive)
    1  A    between atoms: C_5  and  C_41
    2  A    between atoms: N_7  and  C_24
    3  A    between atoms: C_9  and  C_41
    4  A    between atoms: O_10  and  C_37
    5  A    between atoms: O_10  and  C_43
    6  A    between atoms: C_11  and  N_27
    7  A    between atoms: C_28  and  N_39
    8  A    between atoms: N_31  and  C_41
    9  A    between atoms: C_32  and  C_37
   10  A    between atoms: C_32  and  C_38
   11  A    between atoms: C_35  and  C_43
                            x       y       z     vdW  Elec       q    Type
                         _______ _______ _______ _____ _____    ______ ____

>  <TORSDO>
F 11

$$$$
=
 OpenBabel10222422043D

 44 49  0  0  1  0  0  0  0  0999 V2000
  183.2930  177.4840  137.6100 C   0  0  2  0  0  3  0  0  0  0  0  0
  187.4910  177.8330  137.6130 C   0  0  0  0  0  0  0  0  0  0  0  0
  187.3720  177.4880  135.2110 C   0  0  0  0  0  3  0  0  0  0  0  0
  186.7700  177.9990  138.9210 C   0  0  0  0  0  2  0  0  0  0  0  0
  185.3470  177.5520  136.5360 O   0  0  0  0  0  0  0  0  0  0  0  0
  185.3470  177.4440  138.8350 C   0  0  0  0  0  2  0  0  0  0  0  0
  188.8960  177.8930  137.5410 C   0  0  0  0  0  0  0  0  0  0  0  0
  184.6710  178.0030  137.6590 N   0  0  0  0  0  0  0  0  0  0  0  0
  186.7390  177.6370  136.4440 C   0  0  0  0  0  0  0  0  0  0  0  0
  188.7630  177.5480  135.1340 C   0  0  0  0  0  3  0  0  0  0  0  0
  189.5190  177.7470  136.2930 C   0  0  0  0  0  3  0  0  0  0  0  0
  190.4150  175.8650  139.0540 O   0  0  0  0  0  0  0  0  0  0  0  0
  190.3480  177.0490  139.4810 C   0  0  0  0  0  0  0  0  0  0  0  0
  189.6630  178.0680  138.7430 N   0  0  0  0  0  2  0  0  0  0  0  0
  191.0090  177.4000  140.7660 C   0  0  0  0  0  2  0  0  0  0  0  0
  189.9700  177.6890  141.8280 C   0  0  0  0  0  2  0  0  0  0  0  0
  188.9610  176.7310  141.7570 O   0  0  0  0  0  0  0  0  0  0  0  0
  188.8080  176.2800  143.0670 C   0  0  0  0  0  2  0  0  0  0  0  0
  187.9950  177.7160  144.7580 O   0  0  0  0  0  0  0  0  0  0  0  0
  188.9560  176.9690  145.3230 O   0  0  0  0  0  0  0  0  0  0  0  0
  189.1200  177.4080  144.0280 C   0  0  0  0  0  3  0  0  0  0  0  0
  184.2980  174.3230  137.4420 C   0  0  0  0  0  2  0  0  0  0  0  0
  183.0680  176.3650  136.5730 C   0  0  2  0  0  3  0  0  0  0  0  0
  181.6870  175.8810  136.4750 N   0  0  0  0  0  2  0  0  0  0  0  0
  181.4210  174.7700  137.3830 C   0  0  0  0  0  2  0  0  0  0  0  0
  181.9460  173.4740  136.7870 C   0  0  0  0  0  2  0  0  0  0  0  0
  184.1760  175.3340  136.3120 C   0  0  0  0  0  2  0  0  0  0  0  0
  183.3560  173.1300  137.2770 C   0  0  0  0  0  2  0  0  0  0  0  0
  181.6680  178.6520  136.1850 N   0  0  0  0  0  0  0  0  0  0  0  0
  182.2620  178.5710  137.4040 C   0  0  0  0  0  0  0  0  0  0  0  0
  181.9690  179.5410  138.3880 C   0  0  0  0  0  0  0  0  0  0  0  0
  180.4630  180.5620  136.8290 N   0  0  0  0  0  0  0  0  0  0  0  0
  180.7770  179.6310  135.8950 C   0  0  0  0  0  3  0  0  0  0  0  0
  181.0310  180.5450  138.0610 C   0  0  0  0  0  0  0  0  0  0  0  0
  180.6600  181.5530  138.9990 N   0  0  0  0  0  1  0  0  0  0  0  0
  182.1710  178.7520  140.6330 N   0  0  0  0  0  0  0  0  0  0  0  0
  182.6090  179.4630  139.6720 N   0  0  0  0  0  0  0  0  0  0  0  0
  184.8740  178.5240  145.5550 O   0  0  0  0  0  1  0  0  0  0  0  0
  184.2020  178.5820  144.3420 C   0  0  0  0  0  0  0  0  0  0  0  0
  184.8880  178.3390  143.1500 C   0  0  0  0  0  3  0  0  0  0  0  0
  184.2100  178.4030  141.9270 C   0  0  0  0  0  3  0  0  0  0  0  0
  182.8400  178.8910  144.3140 C   0  0  0  0  0  3  0  0  0  0  0  0
  182.1630  178.9520  143.0930 C   0  0  0  0  0  3  0  0  0  0  0  0
  182.8450  178.7080  141.8910 C   0  0  0  0  0  0  0  0  0  0  0  0
  1 30  1  6  0  0  0
  1  8  1  0  0  0  0
  2  4  1  0  0  0  0
  3  9  1  0  0  0  0
  5  8  1  0  0  0  0
  6  4  1  0  0  0  0
  7  2  1  0  0  0  0
  7 14  1  0  0  0  0
  8  6  1  0  0  0  0
  9  5  1  0  0  0  0
  9  2  2  0  0  0  0
 10  3  2  0  0  0  0
 10 11  1  0  0  0  0
 11  7  2  0  0  0  0
 12 13  2  0  0  0  0
 13 15  1  0  0  0  0
 14 13  1  0  0  0  0
 15 16  1  0  0  0  0
 17 16  1  0  0  0  0
 17 18  1  0  0  0  0
 18 21  1  0  0  0  0
 19 20  1  0  0  0  0
 21 19  1  0  0  0  0
 21 20  1  0  0  0  0
 23  1  1  1  0  0  0
 24 23  1  0  0  0  0
 24 25  1  0  0  0  0
 26 28  1  0  0  0  0
 26 25  1  0  0  0  0
 27 23  1  0  0  0  0
 27 22  1  0  0  0  0
 28 22  1  0  0  0  0
 29 30  1  0  0  0  0
 30 31  2  0  0  0  0
 31 37  1  0  0  0  0
 32 34  2  0  0  0  0
 33 29  2  0  0  0  0
 33 32  1  0  0  0  0
 34 31  1  0  0  0  0
 34 35  1  0  0  0  0
 36 44  1  0  0  0  0
 37 36  2  0  0  0  0
 39 38  1  0  0  0  0
 40 39  2  0  0  0  0
 41 40  1  0  0  0  0
 42 39  1  0  0  0  0
 43 42  2  0  0  0  0
 44 41  2  0  0  0  0
 44 43  1  0  0  0  0
M  END
>  <MODEL>
4

>  <REMARK>
 VINA RESULT:      -7.3      2.247      6.252
  Name = 
  11 active torsions:
  status: ('A' for Active; 'I' for Inactive)
    1  A    between atoms: C_5  and  C_41
    2  A    between atoms: N_7  and  C_24
    3  A    between atoms: C_9  and  C_41
    4  A    between atoms: O_10  and  C_37
    5  A    between atoms: O_10  and  C_43
    6  A    between atoms: C_11  and  N_27
    7  A    between atoms: C_28  and  N_39
    8  A    between atoms: N_31  and  C_41
    9  A    between atoms: C_32  and  C_37
   10  A    between atoms: C_32  and  C_38
   11  A    between atoms: C_35  and  C_43
                            x       y       z     vdW  Elec       q    Type
                         _______ _______ _______ _____ _____    ______ ____

>  <TORSDO>
F 11

$$$$
=
 OpenBabel10222422043D

 44 49  0  0  1  0  0  0  0  0999 V2000
  188.5490  177.3100  138.8360 C   0  0  2  0  0  3  0  0  0  0  0  0
  189.2150  177.5220  142.9890 C   0  0  0  0  0  0  0  0  0  0  0  0
  191.2980  176.3460  142.5640 C   0  0  0  0  0  3  0  0  0  0  0  0
  187.9700  178.1640  142.4420 C   0  0  0  0  0  2  0  0  0  0  0  0
  189.8320  176.9340  140.7290 O   0  0  0  0  0  0  0  0  0  0  0  0
  187.6670  177.6530  141.0320 C   0  0  0  0  0  2  0  0  0  0  0  0
  189.4850  177.5140  144.3710 C   0  0  0  0  0  0  0  0  0  0  0  0
  188.8680  177.7750  140.1960 N   0  0  0  0  0  0  0  0  0  0  0  0
  190.1280  176.9430  142.0950 C   0  0  0  0  0  0  0  0  0  0  0  0
  191.5700  176.3370  143.9320 C   0  0  0  0  0  3  0  0  0  0  0  0
  190.6680  176.9150  144.8280 C   0  0  0  0  0  3  0  0  0  0  0  0
  188.9300  176.7310  147.1620 O   0  0  0  0  0  0  0  0  0  0  0  0
  188.2550  177.6460  146.6200 C   0  0  0  0  0  0  0  0  0  0  0  0
  188.5350  178.0850  145.2850 N   0  0  0  0  0  2  0  0  0  0  0  0
  187.1600  178.2970  147.3870 C   0  0  0  0  0  2  0  0  0  0  0  0
  185.8260  178.0400  146.7160 C   0  0  0  0  0  2  0  0  0  0  0  0
  185.3990  179.2040  146.0820 O   0  0  0  0  0  0  0  0  0  0  0  0
  184.9970  178.7880  144.8140 C   0  0  0  0  0  2  0  0  0  0  0  0
  183.3530  179.1600  143.1580 O   0  0  0  0  0  0  0  0  0  0  0  0
  182.7620  178.4420  144.1250 O   0  0  0  0  0  0  0  0  0  0  0  0
  183.6650  179.4220  144.4730 C   0  0  0  0  0  3  0  0  0  0  0  0
  190.5000  175.7670  136.6360 C   0  0  0  0  0  2  0  0  0  0  0  0
  189.5090  177.8230  137.7420 C   0  0  2  0  0  3  0  0  0  0  0  0
  188.8590  178.5020  136.6180 N   0  0  0  0  0  2  0  0  0  0  0  0
  188.5020  177.5810  135.5420 C   0  0  0  0  0  2  0  0  0  0  0  0
  189.7250  177.2800  134.6900 C   0  0  0  0  0  2  0  0  0  0  0  0
  190.7880  177.0360  137.4220 C   0  0  0  0  0  2  0  0  0  0  0  0
  190.4460  176.0010  135.1260 C   0  0  0  0  0  2  0  0  0  0  0  0
  186.5840  178.7840  138.8520 N   0  0  0  0  0  0  0  0  0  0  0  0
  187.1240  177.6110  138.4300 C   0  0  0  0  0  0  0  0  0  0  0  0
  186.3220  176.6910  137.7200 C   0  0  0  0  0  0  0  0  0  0  0  0
  184.5100  178.2510  137.8870 N   0  0  0  0  0  0  0  0  0  0  0  0
  185.2940  179.1080  138.5860 C   0  0  0  0  0  3  0  0  0  0  0  0
  184.9850  177.0570  137.4490 C   0  0  0  0  0  0  0  0  0  0  0  0
  184.1090  176.1990  136.7210 N   0  0  0  0  0  1  0  0  0  0  0  0
  186.2370  174.5630  136.6380 N   0  0  0  0  0  0  0  0  0  0  0  0
  186.8890  175.4440  137.2870 N   0  0  0  0  0  0  0  0  0  0  0  0
  188.5770  169.7030  135.0610 O   0  0  0  0  0  1  0  0  0  0  0  0
  188.0040  170.9060  135.4510 C   0  0  0  0  0  0  0  0  0  0  0  0
  186.6140  171.0440  135.4720 C   0  0  0  0  0  3  0  0  0  0  0  0
  186.0380  172.2590  135.8600 C   0  0  0  0  0  3  0  0  0  0  0  0
  188.8190  171.9800  135.8150 C   0  0  0  0  0  3  0  0  0  0  0  0
  188.2430  173.1930  136.2040 C   0  0  0  0  0  3  0  0  0  0  0  0
  186.8480  173.3390  136.2290 C   0  0  0  0  0  0  0  0  0  0  0  0
  1 30  1  6  0  0  0
  1  8  1  0  0  0  0
  2  7  1  0  0  0  0
  3 10  2  0  0  0  0
  4  2  1  0  0  0  0
  5  9  1  0  0  0  0
  6  4  1  0  0  0  0
  7 11  2  0  0  0  0
  7 14  1  0  0  0  0
  8  5  1  0  0  0  0
  8  6  1  0  0  0  0
  9  3  1  0  0  0  0
  9  2  2  0  0  0  0
 10 11  1  0  0  0  0
 13 12  2  0  0  0  0
 13 15  1  0  0  0  0
 14 13  1  0  0  0  0
 16 15  1  0  0  0  0
 17 16  1  0  0  0  0
 18 17  1  0  0  0  0
 19 20  1  0  0  0  0
 19 21  1  0  0  0  0
 20 21  1  0  0  0  0
 21 18  1  0  0  0  0
 22 27  1  0  0  0  0
 23  1  1  6  0  0  0
 24 23  1  0  0  0  0
 25 24  1  0  0  0  0
 26 28  1  0  0  0  0
 26 25  1  0  0  0  0
 27 23  1  0  0  0  0
 28 22  1  0  0  0  0
 30 29  2  0  0  0  0
 31 30  1  0  0  0  0
 32 33  2  0  0  0  0
 33 29  1  0  0  0  0
 34 31  2  0  0  0  0
 34 32  1  0  0  0  0
 35 34  1  0  0  0  0
 36 37  2  0  0  0  0
 37 31  1  0  0  0  0
 38 39  1  0  0  0  0
 39 40  2  0  0  0  0
 39 42  1  0  0  0  0
 40 41  1  0  0  0  0
 41 44  2  0  0  0  0
 42 43  2  0  0  0  0
 43 44  1  0  0  0  0
 44 36  1  0  0  0  0
M  END
>  <MODEL>
5

>  <REMARK>
 VINA RESULT:      -6.6      1.600      2.205
  Name = 
  11 active torsions:
  status: ('A' for Active; 'I' for Inactive)
    1  A    between atoms: C_5  and  C_41
    2  A    between atoms: N_7  and  C_24
    3  A    between atoms: C_9  and  C_41
    4  A    between atoms: O_10  and  C_37
    5  A    between atoms: O_10  and  C_43
    6  A    between atoms: C_11  and  N_27
    7  A    between atoms: C_28  and  N_39
    8  A    between atoms: N_31  and  C_41
    9  A    between atoms: C_32  and  C_37
   10  A    between atoms: C_32  and  C_38
   11  A    between atoms: C_35  and  C_43
                            x       y       z     vdW  Elec       q    Type
                         _______ _______ _______ _____ _____    ______ ____

>  <TORSDO>
F 11

$$$$
=
 OpenBabel10222422043D

 44 49  0  0  1  0  0  0  0  0999 V2000
  189.5720  175.7950  137.0790 C   0  0  2  0  0  3  0  0  0  0  0  0
  188.6240  172.0560  135.3860 C   0  0  0  0  0  0  0  0  0  0  0  0
  186.3120  172.5630  135.9330 C   0  0  0  0  0  3  0  0  0  0  0  0
  190.0620  172.4950  135.3640 C   0  0  0  0  0  2  0  0  0  0  0  0
  188.0610  174.1610  136.4300 O   0  0  0  0  0  0  0  0  0  0  0  0
  190.3000  173.6340  136.3570 C   0  0  0  0  0  2  0  0  0  0  0  0
  188.2360  170.8010  134.8790 C   0  0  0  0  0  0  0  0  0  0  0  0
  189.3070  174.6930  136.1380 N   0  0  0  0  0  0  0  0  0  0  0  0
  187.6570  172.9300  135.9050 C   0  0  0  0  0  0  0  0  0  0  0  0
  185.9220  171.3210  135.4310 C   0  0  0  0  0  3  0  0  0  0  0  0
  186.8800  170.4470  134.9100 C   0  0  0  0  0  3  0  0  0  0  0  0
  189.0980  168.2110  136.0010 O   0  0  0  0  0  0  0  0  0  0  0  0
  189.6630  168.6700  134.9730 C   0  0  0  0  0  0  0  0  0  0  0  0
  189.2330  169.8990  134.3740 N   0  0  0  0  0  2  0  0  0  0  0  0
  190.7860  167.9140  134.3580 C   0  0  0  0  0  2  0  0  0  0  0  0
  192.0040  167.9590  135.2570 C   0  0  0  0  0  2  0  0  0  0  0  0
  192.8980  168.9100  134.7700 O   0  0  0  0  0  0  0  0  0  0  0  0
  193.1300  169.7630  135.8480 C   0  0  0  0  0  2  0  0  0  0  0  0
  194.8440  170.6010  137.2410 O   0  0  0  0  0  0  0  0  0  0  0  0
  194.9330  169.2630  137.2930 O   0  0  0  0  0  0  0  0  0  0  0  0
  194.6190  169.8700  136.0960 C   0  0  0  0  0  3  0  0  0  0  0  0
  187.7580  176.7950  134.4830 C   0  0  0  0  0  2  0  0  0  0  0  0
  188.7940  177.0930  136.7800 C   0  0  2  0  0  3  0  0  0  0  0  0
  187.6200  177.3200  137.6270 N   0  0  0  0  0  2  0  0  0  0  0  0
  186.4050  176.7410  137.0610 C   0  0  0  0  0  2  0  0  0  0  0  0
  185.8430  177.6590  135.9870 C   0  0  0  0  0  2  0  0  0  0  0  0
  188.7120  177.6150  135.3380 C   0  0  0  0  0  2  0  0  0  0  0  0
  186.3090  177.2740  134.5800 C   0  0  0  0  0  2  0  0  0  0  0  0
  191.7940  176.1100  136.0790 N   0  0  0  0  0  0  0  0  0  0  0  0
  191.0440  176.1140  137.2120 C   0  0  0  0  0  0  0  0  0  0  0  0
  191.6700  176.3220  138.4610 C   0  0  0  0  0  0  0  0  0  0  0  0
  193.7530  176.5490  137.2960 N   0  0  0  0  0  0  0  0  0  0  0  0
  193.1310  176.3260  136.1130 C   0  0  0  0  0  3  0  0  0  0  0  0
  193.0640  176.5520  138.4660 C   0  0  0  0  0  0  0  0  0  0  0  0
  193.7750  176.7920  139.6780 N   0  0  0  0  0  1  0  0  0  0  0  0
  190.1740  177.2990  140.0450 N   0  0  0  0  0  0  0  0  0  0  0  0
  190.8800  176.3110  139.6600 N   0  0  0  0  0  0  0  0  0  0  0  0
  187.1250  177.1370  144.7630 O   0  0  0  0  0  1  0  0  0  0  0  0
  187.8820  177.1720  143.6000 C   0  0  0  0  0  0  0  0  0  0  0  0
  187.5110  178.0160  142.5500 C   0  0  0  0  0  3  0  0  0  0  0  0
  188.2710  178.0470  141.3750 C   0  0  0  0  0  3  0  0  0  0  0  0
  189.0100  176.3590  143.4770 C   0  0  0  0  0  3  0  0  0  0  0  0
  189.7700  176.3920  142.3050 C   0  0  0  0  0  3  0  0  0  0  0  0
  189.4050  177.2380  141.2460 C   0  0  0  0  0  0  0  0  0  0  0  0
  1 30  1  6  0  0  0
  2  9  1  0  0  0  0
  4  2  1  0  0  0  0
  4  6  1  0  0  0  0
  7 11  1  0  0  0  0
  7  2  2  0  0  0  0
  8  6  1  0  0  0  0
  8  5  1  0  0  0  0
  8  1  1  0  0  0  0
  9  3  2  0  0  0  0
  9  5  1  0  0  0  0
 10  3  1  0  0  0  0
 11 10  2  0  0  0  0
 13 12  2  0  0  0  0
 14  7  1  0  0  0  0
 14 13  1  0  0  0  0
 15 13  1  0  0  0  0
 15 16  1  0  0  0  0
 17 16  1  0  0  0  0
 17 18  1  0  0  0  0
 18 21  1  0  0  0  0
 19 20  1  0  0  0  0
 21 19  1  0  0  0  0
 21 20  1  0  0  0  0
 22 28  1  0  0  0  0
 22 27  1  0  0  0  0
 23  1  1  6  0  0  0
 23 24  1  0  0  0  0
 25 24  1  0  0  0  0
 26 25  1  0  0  0  0
 27 23  1  0  0  0  0
 28 26  1  0  0  0  0
 29 33  2  0  0  0  0
 29 30  1  0  0  0  0
 30 31  2  0  0  0  0
 31 34  1  0  0  0  0
 31 37  1  0  0  0  0
 32 34  2  0  0  0  0
 33 32  1  0  0  0  0
 34 35  1  0  0  0  0
 36 44  1  0  0  0  0
 37 36  2  0  0  0  0
 39 38  1  0  0  0  0
 40 39  2  0  0  0  0
 41 40  1  0  0  0  0
 42 39  1  0  0  0  0
 43 42  2  0  0  0  0
 44 41  2  0  0  0  0
 44 43  1  0  0  0  0
M  END
>  <MODEL>
6

>  <REMARK>
 VINA RESULT:      -6.5      4.476     10.120
  Name = 
  11 active torsions:
  status: ('A' for Active; 'I' for Inactive)
    1  A    between atoms: C_5  and  C_41
    2  A    between atoms: N_7  and  C_24
    3  A    between atoms: C_9  and  C_41
    4  A    between atoms: O_10  and  C_37
    5  A    between atoms: O_10  and  C_43
    6  A    between atoms: C_11  and  N_27
    7  A    between atoms: C_28  and  N_39
    8  A    between atoms: N_31  and  C_41
    9  A    between atoms: C_32  and  C_37
   10  A    between atoms: C_32  and  C_38
   11  A    between atoms: C_35  and  C_43
                            x       y       z     vdW  Elec       q    Type
                         _______ _______ _______ _____ _____    ______ ____

>  <TORSDO>
F 11

$$$$
=
 OpenBabel10222422043D

 44 49  0  0  1  0  0  0  0  0999 V2000
  188.6890  174.6070  137.0230 C   0  0  2  0  0  3  0  0  0  0  0  0
  192.8370  173.8710  136.9860 C   0  0  0  0  0  0  0  0  0  0  0  0
  193.0400  175.7960  138.4540 C   0  0  0  0  0  3  0  0  0  0  0  0
  191.9470  172.9290  136.2230 C   0  0  0  0  0  2  0  0  0  0  0  0
  190.8610  175.0660  137.6950 O   0  0  0  0  0  0  0  0  0  0  0  0
  190.5680  173.5480  135.9890 C   0  0  0  0  0  2  0  0  0  0  0  0
  194.2360  173.7150  136.9850 C   0  0  0  0  0  0  0  0  0  0  0  0
  190.0290  174.0450  137.2610 N   0  0  0  0  0  0  0  0  0  0  0  0
  192.2490  174.9080  137.7260 C   0  0  0  0  0  0  0  0  0  0  0  0
  194.4270  175.6450  138.4570 C   0  0  0  0  0  3  0  0  0  0  0  0
  195.0190  174.6130  137.7250 C   0  0  0  0  0  3  0  0  0  0  0  0
  195.4480  171.1940  137.9260 O   0  0  0  0  0  0  0  0  0  0  0  0
  195.4600  171.4780  136.6980 C   0  0  0  0  0  0  0  0  0  0  0  0
  194.8350  172.6680  136.2040 N   0  0  0  0  0  2  0  0  0  0  0  0
  196.1210  170.5510  135.7410 C   0  0  0  0  0  2  0  0  0  0  0  0
  197.2720  171.2470  135.0460 C   0  0  0  0  0  2  0  0  0  0  0  0
  198.1280  171.7870  136.0040 O   0  0  0  0  0  0  0  0  0  0  0  0
  198.4830  173.0360  135.4960 C   0  0  0  0  0  2  0  0  0  0  0  0
  199.5840  175.0380  136.0970 O   0  0  0  0  0  0  0  0  0  0  0  0
  198.3400  175.1250  136.5930 O   0  0  0  0  0  0  0  0  0  0  0  0
  198.9920  173.9110  136.6210 C   0  0  0  0  0  3  0  0  0  0  0  0
  186.0010  172.7870  137.7230 C   0  0  0  0  0  2  0  0  0  0  0  0
  187.7670  173.7220  136.1600 C   0  0  2  0  0  3  0  0  0  0  0  0
  186.9610  174.4470  135.1730 N   0  0  0  0  0  2  0  0  0  0  0  0
  185.6680  174.8630  135.7070 C   0  0  0  0  0  2  0  0  0  0  0  0
  184.6960  173.6950  135.6850 C   0  0  0  0  0  2  0  0  0  0  0  0
  187.1370  172.4600  136.7670 C   0  0  0  0  0  2  0  0  0  0  0  0
  184.6530  172.9380  137.0160 C   0  0  0  0  0  2  0  0  0  0  0  0
  188.9030  176.1180  135.0980 N   0  0  0  0  0  0  0  0  0  0  0  0
  188.7320  176.0020  136.4400 C   0  0  0  0  0  0  0  0  0  0  0  0
  188.6930  177.1650  137.2400 C   0  0  0  0  0  0  0  0  0  0  0  0
  188.9570  178.4610  135.2420 N   0  0  0  0  0  0  0  0  0  0  0  0
  189.0130  177.3290  134.4980 C   0  0  0  0  0  3  0  0  0  0  0  0
  188.8020  178.4140  136.5890 C   0  0  0  0  0  0  0  0  0  0  0  0
  188.7520  179.6400  137.3150 N   0  0  0  0  0  1  0  0  0  0  0  0
  189.4070  177.4080  139.5060 N   0  0  0  0  0  0  0  0  0  0  0  0
  188.5270  177.0420  138.6620 N   0  0  0  0  0  0  0  0  0  0  0  0
  188.6010  176.7700  145.0320 O   0  0  0  0  0  1  0  0  0  0  0  0
  188.7950  176.9310  143.6670 C   0  0  0  0  0  0  0  0  0  0  0  0
  189.9160  176.3710  143.0490 C   0  0  0  0  0  3  0  0  0  0  0  0
  190.1140  176.5380  141.6740 C   0  0  0  0  0  3  0  0  0  0  0  0
  187.8730  177.6600  142.9120 C   0  0  0  0  0  3  0  0  0  0  0  0
  188.0700  177.8250  141.5380 C   0  0  0  0  0  3  0  0  0  0  0  0
  189.1930  177.2640  140.9110 C   0  0  0  0  0  0  0  0  0  0  0  0
  1 30  1  6  0  0  0
  1  8  1  0  0  0  0
  2  9  1  0  0  0  0
  3 10  1  0  0  0  0
  4  2  1  0  0  0  0
  5  9  1  0  0  0  0
  6  4  1  0  0  0  0
  6  8  1  0  0  0  0
  7  2  2  0  0  0  0
  7 11  1  0  0  0  0
  8  5  1  0  0  0  0
  9  3  2  0  0  0  0
 11 10  2  0  0  0  0
 13 12  2  0  0  0  0
 14 13  1  0  0  0  0
 14  7  1  0  0  0  0
 15 13  1  0  0  0  0
 16 15  1  0  0  0  0
 16 17  1  0  0  0  0
 18 17  1  0  0  0  0
 18 21  1  0  0  0  0
 19 20  1  0  0  0  0
 19 21  1  0  0  0  0
 20 21  1  0  0  0  0
 23 27  1  0  0  0  0
 23  1  1  1  0  0  0
 24 25  1  0  0  0  0
 24 23  1  0  0  0  0
 26 25  1  0  0  0  0
 26 28  1  0  0  0  0
 27 22  1  0  0  0  0
 28 22  1  0  0  0  0
 29 30  1  0  0  0  0
 30 31  2  0  0  0  0
 31 37  1  0  0  0  0
 32 34  2  0  0  0  0
 33 29  2  0  0  0  0
 33 32  1  0  0  0  0
 34 31  1  0  0  0  0
 34 35  1  0  0  0  0
 36 44  1  0  0  0  0
 37 36  2  0  0  0  0
 39 38  1  0  0  0  0
 40 39  1  0  0  0  0
 41 40  2  0  0  0  0
 42 39  2  0  0  0  0
 43 42  1  0  0  0  0
 44 43  2  0  0  0  0
 44 41  1  0  0  0  0
M  END
>  <MODEL>
7

>  <REMARK>
 VINA RESULT:      -6.4      5.439      9.574
  Name = 
  11 active torsions:
  status: ('A' for Active; 'I' for Inactive)
    1  A    between atoms: C_5  and  C_41
    2  A    between atoms: N_7  and  C_24
    3  A    between atoms: C_9  and  C_41
    4  A    between atoms: O_10  and  C_37
    5  A    between atoms: O_10  and  C_43
    6  A    between atoms: C_11  and  N_27
    7  A    between atoms: C_28  and  N_39
    8  A    between atoms: N_31  and  C_41
    9  A    between atoms: C_32  and  C_37
   10  A    between atoms: C_32  and  C_38
   11  A    between atoms: C_35  and  C_43
                            x       y       z     vdW  Elec       q    Type
                         _______ _______ _______ _____ _____    ______ ____

>  <TORSDO>
F 11

$$$$
=
 OpenBabel10222422043D

 44 49  0  0  1  0  0  0  0  0999 V2000
  190.3000  176.5950  141.1710 C   0  0  2  0  0  3  0  0  0  0  0  0
  186.5490  178.5120  141.1280 C   0  0  0  0  0  0  0  0  0  0  0  0
  186.4810  178.1060  143.5220 C   0  0  0  0  0  3  0  0  0  0  0  0
  187.3050  178.4150  139.8320 C   0  0  0  0  0  2  0  0  0  0  0  0
  188.4050  177.4190  142.2220 O   0  0  0  0  0  0  0  0  0  0  0  0
  188.4090  177.3590  139.9210 C   0  0  0  0  0  2  0  0  0  0  0  0
  185.2710  179.1000  141.1850 C   0  0  0  0  0  0  0  0  0  0  0  0
  189.2240  177.5990  141.1180 N   0  0  0  0  0  0  0  0  0  0  0  0
  187.1480  178.0240  142.3000 C   0  0  0  0  0  0  0  0  0  0  0  0
  185.2160  178.6880  143.5840 C   0  0  0  0  0  3  0  0  0  0  0  0
  184.6150  179.1790  142.4220 C   0  0  0  0  0  3  0  0  0  0  0  0
  182.6030  178.4340  140.1130 O   0  0  0  0  0  0  0  0  0  0  0  0
  183.3720  179.1900  139.4610 C   0  0  0  0  0  0  0  0  0  0  0  0
  184.6520  179.5740  139.9780 N   0  0  0  0  0  2  0  0  0  0  0  0
  182.9350  179.7090  138.1370 C   0  0  0  0  0  2  0  0  0  0  0  0
  181.5160  180.2300  138.2210 C   0  0  0  0  0  2  0  0  0  0  0  0
  181.3310  181.2150  137.2530 O   0  0  0  0  0  0  0  0  0  0  0  0
  181.2370  182.4050  137.9730 C   0  0  0  0  0  2  0  0  0  0  0  0
  180.7450  184.7010  137.7210 O   0  0  0  0  0  0  0  0  0  0  0  0
  181.9990  184.5310  137.2740 O   0  0  0  0  0  0  0  0  0  0  0  0
  181.0540  183.5620  137.0140 C   0  0  0  0  0  3  0  0  0  0  0  0
  190.6490  178.7270  143.6930 C   0  0  0  0  0  2  0  0  0  0  0  0
  191.0250  176.5040  142.5290 C   0  0  2  0  0  3  0  0  0  0  0  0
  190.4450  175.5500  143.4780 N   0  0  0  0  0  2  0  0  0  0  0  0
  189.4270  176.1600  144.3290 C   0  0  0  0  0  2  0  0  0  0  0  0
  190.0900  176.9280  145.4620 C   0  0  0  0  0  2  0  0  0  0  0  0
  191.6770  177.7590  143.1290 C   0  0  0  0  0  2  0  0  0  0  0  0
  190.2690  178.4140  145.1410 C   0  0  0  0  0  2  0  0  0  0  0  0
  192.4000  177.5530  140.3300 N   0  0  0  0  0  0  0  0  0  0  0  0
  191.3210  176.7700  140.0690 C   0  0  0  0  0  0  0  0  0  0  0  0
  191.1480  176.2300  138.7750 C   0  0  0  0  0  0  0  0  0  0  0  0
  193.2010  177.2890  138.1390 N   0  0  0  0  0  0  0  0  0  0  0  0
  193.3340  177.8120  139.3820 C   0  0  0  0  0  3  0  0  0  0  0  0
  192.1400  176.5100  137.8090 C   0  0  0  0  0  0  0  0  0  0  0  0
  192.0570  175.9910  136.4840 N   0  0  0  0  0  1  0  0  0  0  0  0
  189.4730  175.3140  137.3410 N   0  0  0  0  0  0  0  0  0  0  0  0
  189.9990  175.4150  138.4960 N   0  0  0  0  0  0  0  0  0  0  0  0
  185.0220  172.0130  136.4050 O   0  0  0  0  0  1  0  0  0  0  0  0
  186.1170  172.8330  136.6370 C   0  0  0  0  0  0  0  0  0  0  0  0
  187.4030  172.2870  136.6800 C   0  0  0  0  0  3  0  0  0  0  0  0
  188.5060  173.1140  136.9200 C   0  0  0  0  0  3  0  0  0  0  0  0
  185.9330  174.2030  136.8350 C   0  0  0  0  0  3  0  0  0  0  0  0
  187.0360  175.0290  137.0710 C   0  0  0  0  0  3  0  0  0  0  0  0
  188.3300  174.4880  137.1150 C   0  0  0  0  0  0  0  0  0  0  0  0
  1 30  1  6  0  0  0
  2  7  2  0  0  0  0
  2  9  1  0  0  0  0
  3 10  1  0  0  0  0
  4  6  1  0  0  0  0
  4  2  1  0  0  0  0
  5  9  1  0  0  0  0
  6  8  1  0  0  0  0
  7 11  1  0  0  0  0
  8  1  1  0  0  0  0
  8  5  1  0  0  0  0
  9  3  2  0  0  0  0
 11 10  2  0  0  0  0
 13 14  1  0  0  0  0
 13 12  2  0  0  0  0
 14  7  1  0  0  0  0
 15 16  1  0  0  0  0
 15 13  1  0  0  0  0
 17 18  1  0  0  0  0
 17 16  1  0  0  0  0
 20 19  1  0  0  0  0
 21 20  1  0  0  0  0
 21 19  1  0  0  0  0
 21 18  1  0  0  0  0
 22 28  1  0  0  0  0
 23  1  1  6  0  0  0
 23 27  1  0  0  0  0
 23 24  1  0  0  0  0
 24 25  1  0  0  0  0
 25 26  1  0  0  0  0
 27 22  1  0  0  0  0
 28 26  1  0  0  0  0
 30 29  1  0  0  0  0
 31 30  2  0  0  0  0
 32 33  1  0  0  0  0
 33 29  2  0  0  0  0
 34 32  2  0  0  0  0
 34 31  1  0  0  0  0
 35 34  1  0  0  0  0
 36 37  2  0  0  0  0
 37 31  1  0  0  0  0
 38 39  1  0  0  0  0
 39 40  2  0  0  0  0
 39 42  1  0  0  0  0
 40 41  1  0  0  0  0
 41 44  2  0  0  0  0
 42 43  2  0  0  0  0
 43 44  1  0  0  0  0
 44 36  1  0  0  0  0
M  END
>  <MODEL>
8

>  <REMARK>
 VINA RESULT:      -6.3      3.525      7.381
  Name = 
  11 active torsions:
  status: ('A' for Active; 'I' for Inactive)
    1  A    between atoms: C_5  and  C_41
    2  A    between atoms: N_7  and  C_24
    3  A    between atoms: C_9  and  C_41
    4  A    between atoms: O_10  and  C_37
    5  A    between atoms: O_10  and  C_43
    6  A    between atoms: C_11  and  N_27
    7  A    between atoms: C_28  and  N_39
    8  A    between atoms: N_31  and  C_41
    9  A    between atoms: C_32  and  C_37
   10  A    between atoms: C_32  and  C_38
   11  A    between atoms: C_35  and  C_43
                            x       y       z     vdW  Elec       q    Type
                         _______ _______ _______ _____ _____    ______ ____

>  <TORSDO>
F 11

$$$$
=
 OpenBabel10222422043D

 44 49  0  0  1  0  0  0  0  0999 V2000
  188.5300  174.5730  136.9670 C   0  0  2  0  0  3  0  0  0  0  0  0
  192.5340  173.3230  136.5840 C   0  0  0  0  0  0  0  0  0  0  0  0
  193.0940  175.1640  138.0670 C   0  0  0  0  0  3  0  0  0  0  0  0
  191.4760  172.5220  135.8770 C   0  0  0  0  0  2  0  0  0  0  0  0
  190.7870  174.7350  137.4710 O   0  0  0  0  0  0  0  0  0  0  0  0
  190.1730  173.3170  135.7660 C   0  0  0  0  0  2  0  0  0  0  0  0
  193.8980  172.9930  136.4680 C   0  0  0  0  0  0  0  0  0  0  0  0
  189.8010  173.8400  137.0860 N   0  0  0  0  0  0  0  0  0  0  0  0
  192.1420  174.4040  137.3880 C   0  0  0  0  0  0  0  0  0  0  0  0
  194.4450  174.8400  137.9570 C   0  0  0  0  0  3  0  0  0  0  0  0
  194.8440  173.7630  137.1600 C   0  0  0  0  0  3  0  0  0  0  0  0
  194.5020  170.2070  137.2340 O   0  0  0  0  0  0  0  0  0  0  0  0
  194.6310  170.5720  136.0360 C   0  0  0  0  0  0  0  0  0  0  0  0
  194.2960  171.9020  135.6220 N   0  0  0  0  0  2  0  0  0  0  0  0
  195.1240  169.5980  135.0250 C   0  0  0  0  0  2  0  0  0  0  0  0
  196.4350  168.9900  135.4790 C   0  0  0  0  0  2  0  0  0  0  0  0
  197.4090  169.9840  135.5260 O   0  0  0  0  0  0  0  0  0  0  0  0
  198.4560  169.4180  136.2530 C   0  0  0  0  0  2  0  0  0  0  0  0
  198.3340  168.1110  138.2170 O   0  0  0  0  0  0  0  0  0  0  0  0
  199.2050  169.0990  138.4720 O   0  0  0  0  0  0  0  0  0  0  0  0
  198.0830  169.3690  137.7200 C   0  0  0  0  0  3  0  0  0  0  0  0
  185.8770  172.7880  137.8650 C   0  0  0  0  0  2  0  0  0  0  0  0
  187.4390  173.8360  136.1620 C   0  0  2  0  0  3  0  0  0  0  0  0
  186.5370  174.7060  135.4020 N   0  0  0  0  0  2  0  0  0  0  0  0
  185.3650  175.1050  136.1760 C   0  0  0  0  0  2  0  0  0  0  0  0
  184.3350  173.9870  136.1730 C   0  0  0  0  0  2  0  0  0  0  0  0
  186.8360  172.5350  136.7120 C   0  0  0  0  0  2  0  0  0  0  0  0
  184.4490  173.0770  137.3990 C   0  0  0  0  0  2  0  0  0  0  0  0
  188.9340  176.0880  135.0760 N   0  0  0  0  0  0  0  0  0  0  0  0
  188.7050  175.9670  136.4090 C   0  0  0  0  0  0  0  0  0  0  0  0
  188.7290  177.1190  137.2270 C   0  0  0  0  0  0  0  0  0  0  0  0
  189.1700  178.4170  135.2610 N   0  0  0  0  0  0  0  0  0  0  0  0
  189.1620  177.2950  134.5010 C   0  0  0  0  0  3  0  0  0  0  0  0
  188.9610  178.3640  136.6020 C   0  0  0  0  0  0  0  0  0  0  0  0
  188.9820  179.5800  137.3460 N   0  0  0  0  0  1  0  0  0  0  0  0
  189.2950  177.4460  139.5240 N   0  0  0  0  0  0  0  0  0  0  0  0
  188.5020  176.9890  138.6390 N   0  0  0  0  0  0  0  0  0  0  0  0
  188.1890  176.9120  145.0080 O   0  0  0  0  0  1  0  0  0  0  0  0
  188.4670  177.0400  143.6540 C   0  0  0  0  0  0  0  0  0  0  0  0
  187.6210  177.7920  142.8340 C   0  0  0  0  0  3  0  0  0  0  0  0
  187.8980  177.9150  141.4690 C   0  0  0  0  0  3  0  0  0  0  0  0
  189.5890  176.4120  143.1100 C   0  0  0  0  0  3  0  0  0  0  0  0
  189.8680  176.5380  141.7460 C   0  0  0  0  0  3  0  0  0  0  0  0
  189.0230  177.2920  140.9170 C   0  0  0  0  0  0  0  0  0  0  0  0
  1 30  1  6  0  0  0
  1  8  1  0  0  0  0
  2  9  1  0  0  0  0
  4  2  1  0  0  0  0
  6  4  1  0  0  0  0
  6  8  1  0  0  0  0
  7  2  2  0  0  0  0
  7 11  1  0  0  0  0
  8  5  1  0  0  0  0
  9  5  1  0  0  0  0
  9  3  2  0  0  0  0
 10  3  1  0  0  0  0
 11 10  2  0  0  0  0
 13 12  2  0  0  0  0
 14 13  1  0  0  0  0
 14  7  1  0  0  0  0
 15 16  1  0  0  0  0
 15 13  1  0  0  0  0
 16 17  1  0  0  0  0
 17 18  1  0  0  0  0
 18 21  1  0  0  0  0
 19 20  1  0  0  0  0
 21 19  1  0  0  0  0
 21 20  1  0  0  0  0
 23 27  1  0  0  0  0
 23  1  1  1  0  0  0
 24 23  1  0  0  0  0
 24 25  1  0  0  0  0
 26 25  1  0  0  0  0
 26 28  1  0  0  0  0
 27 22  1  0  0  0  0
 28 22  1  0  0  0  0
 29 30  1  0  0  0  0
 30 31  2  0  0  0  0
 31 37  1  0  0  0  0
 32 34  2  0  0  0  0
 33 29  2  0  0  0  0
 33 32  1  0  0  0  0
 34 31  1  0  0  0  0
 34 35  1  0  0  0  0
 36 44  1  0  0  0  0
 37 36  2  0  0  0  0
 39 38  1  0  0  0  0
 40 39  2  0  0  0  0
 41 40  1  0  0  0  0
 42 39  1  0  0  0  0
 43 42  2  0  0  0  0
 44 41  2  0  0  0  0
 44 43  1  0  0  0  0
M  END
>  <MODEL>
9

>  <REMARK>
 VINA RESULT:      -6.3      5.873      9.966
  Name = 
  11 active torsions:
  status: ('A' for Active; 'I' for Inactive)
    1  A    between atoms: C_5  and  C_41
    2  A    between atoms: N_7  and  C_24
    3  A    between atoms: C_9  and  C_41
    4  A    between atoms: O_10  and  C_37
    5  A    between atoms: O_10  and  C_43
    6  A    between atoms: C_11  and  N_27
    7  A    between atoms: C_28  and  N_39
    8  A    between atoms: N_31  and  C_41
    9  A    between atoms: C_32  and  C_37
   10  A    between atoms: C_32  and  C_38
   11  A    between atoms: C_35  and  C_43
                            x       y       z     vdW  Elec       q    Type
                         _______ _______ _______ _____ _____    ______ ____

>  <TORSDO>
F 11

$$$$
