=
 OpenBabel10232409203D

 60 66  0  0  1  0  0  0  0  0999 V2000
  188.3340  177.5040  144.7410 C   0  0  1  0  0  3  0  0  0  0  0  0
  189.7030  177.5850  144.0590 C   0  0  1  0  0  0  0  0  0  0  0  0
  189.5030  178.2230  145.4170 C   0  0  0  0  0  2  0  0  0  0  0  0
  187.4570  178.4130  144.1150 O   0  0  0  0  0  0  0  0  0  0  0  0
  186.1910  178.3230  144.7170 C   0  0  0  0  0  0  0  0  0  0  0  0
  186.2810  178.7280  146.1800 C   0  0  0  0  0  2  0  0  0  0  0  0
  186.0230  177.2760  145.8050 C   0  0  0  0  0  2  0  0  0  0  0  0
  184.9640  178.8780  143.9610 C   0  0  2  0  0  3  0  0  0  0  0  0
  182.5740  178.7990  144.1090 O   0  0  0  0  0  1  0  0  0  0  0  0
  183.7400  178.8700  144.8700 C   0  0  0  0  0  2  0  0  0  0  0  0
  184.6680  178.1050  142.6710 C   0  0  0  0  0  2  0  0  0  0  0  0
  184.8220  178.9780  141.4420 C   0  0  0  0  0  2  0  0  0  0  0  0
  183.5840  178.8360  140.5850 C   0  0  0  0  0  2  0  0  0  0  0  0
  182.6760  177.0800  139.0510 C   0  0  0  0  0  0  0  0  0  0  0  0
  183.5320  177.4590  140.0070 C   0  0  0  0  0  3  0  0  0  0  0  0
  182.9080  173.4580  136.8210 C   0  0  1  0  0  3  0  0  0  0  0  0
  181.4540  175.1400  137.9950 C   0  0  0  0  0  2  0  0  0  0  0  0
  183.1750  171.9750  136.6700 C   0  0  0  0  0  1  0  0  0  0  0  0
  183.8320  175.5050  137.6780 O   0  0  0  0  0  0  0  0  0  0  0  0
  181.6210  173.6710  137.6220 C   0  0  0  0  0  2  0  0  0  0  0  0
  182.7690  175.6530  138.5920 C   0  0  1  0  0  3  0  0  0  0  0  0
  184.0710  174.1240  137.5540 C   0  0  0  0  0  2  0  0  0  0  0  0
  180.6130  178.2840  138.9880 O   0  0  0  0  0  0  0  0  0  0  0  0
  181.7090  178.0180  138.4200 C   0  0  0  0  0  0  0  0  0  0  0  0
  182.0210  178.6220  137.1590 N   0  0  0  0  0  2  0  0  0  0  0  0
  181.0930  180.7270  136.7880 O   0  0  0  0  0  1  0  0  0  0  0  0
  181.0350  179.3860  136.4080 C   0  0  0  0  0  2  0  0  0  0  0  0
  190.4870  176.2820  144.0240 C   0  0  0  0  0  2  0  0  0  0  0  0
  191.7680  176.4520  144.6940 N   0  0  0  0  0  2  0  0  0  0  0  0
  191.8830  175.3410  145.6200 C   0  0  0  0  0  2  0  0  0  0  0  0
  193.2200  175.6390  147.7010 O   0  0  0  0  0  1  0  0  0  0  0  0
  192.0350  175.8530  147.0070 C   0  0  0  0  0  0  0  0  0  0  0  0
  191.0870  176.4730  147.5560 O   0  0  0  0  0  0  0  0  0  0  0  0
  189.7340  178.4210  142.8890 O   0  0  0  0  0  0  0  0  0  0  0  0
  187.3390  177.4930  138.7510 O   0  0  0  0  0  0  0  0  0  0  0  0
  189.6280  175.6280  136.7600 C   0  0  0  0  0  0  0  0  0  0  0  0
  187.7240  176.8110  137.6940 C   0  0  0  0  0  0  0  0  0  0  0  0
  188.3780  177.5450  139.5530 C   0  0  0  0  0  0  0  0  0  0  0  0
  186.9420  176.4910  136.6360 N   0  0  0  0  0  0  0  0  0  0  0  0
  189.0470  176.4160  137.7770 C   0  0  0  0  0  0  0  0  0  0  0  0
  189.4790  176.9270  138.9870 C   0  0  0  0  0  0  0  0  0  0  0  0
  189.6260  177.9820  141.5600 C   0  0  0  0  0  0  0  0  0  0  0  0
  187.4420  175.6920  135.6560 C   0  0  0  0  0  3  0  0  0  0  0  0
  190.6840  176.8330  139.6720 C   0  0  0  0  0  3  0  0  0  0  0  0
  188.7750  175.2470  135.7030 C   0  0  0  0  0  3  0  0  0  0  0  0
  188.4180  178.0840  140.8380 C   0  0  0  0  0  3  0  0  0  0  0  0
  190.7550  177.3830  140.9630 C   0  0  0  0  0  3  0  0  0  0  0  0
  193.1440  174.3430  137.0130 C   0  0  0  0  0  0  0  0  0  0  0  0
  191.7010  174.0360  137.2360 C   0  0  0  0  0  2  0  0  0  0  0  0
  193.2370  175.5430  136.4360 C   0  0  0  0  0  0  0  0  0  0  0  0
  191.0680  175.2680  136.6670 C   0  0  0  0  0  0  0  0  0  0  0  0
  191.9490  176.1090  136.2280 N   0  0  0  0  0  0  0  0  0  0  0  0
  194.2260  173.4850  137.4250 N   0  0  0  0  0  0  0  0  0  0  0  0
  195.0430  173.8610  138.5730 C   0  0  0  0  0  1  0  0  0  0  0  0
  194.4810  172.1920  136.8050 C   0  0  0  0  0  2  0  0  0  0  0  0
  194.9210  172.3810  135.3640 C   0  0  0  0  0  1  0  0  0  0  0  0
  194.4890  176.3290  136.1950 C   0  0  0  0  0  2  0  0  0  0  0  0
  195.0650  176.0220  134.8130 C   0  0  0  0  0  2  0  0  0  0  0  0
  196.5220  176.3380  134.7610 C   0  0  0  0  0  3  0  0  0  0  0  0
  197.2040  176.4660  135.8380 N   0  0  0  0  0  2  0  0  0  0  0  0
  1  4  1  6  0  0  0
  1  3  1  0  0  0  0
  2 28  1  6  0  0  0
  2  1  1  0  0  0  0
  2  3  1  0  0  0  0
  4  5  1  0  0  0  0
  5  7  1  0  0  0  0
  5  6  1  0  0  0  0
  7  6  1  0  0  0  0
  8 11  1  6  0  0  0
  8  5  1  0  0  0  0
  8 10  1  0  0  0  0
  9 10  1  0  0  0  0
 12 11  1  0  0  0  0
 13 12  1  0  0  0  0
 14 15  2  0  0  0  0
 15 13  1  0  0  0  0
 16 18  1  1  0  0  0
 16 22  1  0  0  0  0
 16 20  1  0  0  0  0
 17 21  1  0  0  0  0
 19 21  1  0  0  0  0
 20 17  1  0  0  0  0
 21 14  1  6  0  0  0
 22 19  1  0  0  0  0
 24 23  2  0  0  0  0
 24 14  1  0  0  0  0
 25 24  1  0  0  0  0
 27 26  1  0  0  0  0
 27 25  1  0  0  0  0
 28 29  1  0  0  0  0
 29 30  1  0  0  0  0
 30 32  1  0  0  0  0
 32 33  2  0  0  0  0
 32 31  1  0  0  0  0
 34  2  1  0  0  0  0
 35 38  1  0  0  0  0
 36 40  2  0  0  0  0
 37 40  1  0  0  0  0
 37 35  1  0  0  0  0
 38 46  1  0  0  0  0
 39 37  2  0  0  0  0
 40 41  1  0  0  0  0
 41 38  2  0  0  0  0
 41 44  1  0  0  0  0
 42 34  1  0  0  0  0
 43 45  2  0  0  0  0
 43 39  1  0  0  0  0
 44 47  2  0  0  0  0
 45 36  1  0  0  0  0
 46 42  2  0  0  0  0
 47 42  1  0  0  0  0
 48 49  1  0  0  0  0
 48 53  1  0  0  0  0
 50 48  2  0  0  0  0
 51 36  1  0  0  0  0
 51 49  1  0  0  0  0
 52 50  1  0  0  0  0
 52 51  2  0  0  0  0
 53 54  1  0  0  0  0
 55 53  1  0  0  0  0
 56 55  1  0  0  0  0
 57 50  1  0  0  0  0
 58 57  1  0  0  0  0
 59 58  1  0  0  0  0
 59 60  2  0  0  0  0
M  END
>  <MODEL>
1

>  <REMARK>
 VINA RESULT:      -7.2      0.000      0.000
  Name = 
  23 active torsions:
  status: ('A' for Active; 'I' for Inactive)
    1  A    between atoms: O_2  and  C_18
    2  A    between atoms: O_2  and  C_46
    3  A    between atoms: C_3  and  N_23
    4  A    between atoms: C_4  and  C_9
    5  A    between atoms: C_4  and  C_38
    6  A    between atoms: C_5  and  C_18
    7  A    between atoms: C_5  and  N_33
    8  A    between atoms: C_7  and  N_23
    9  A    between atoms: C_9  and  C_17
   10  A    between atoms: C_11  and  C_36
   11  A    between atoms: C_11  and  C_40
   12  A    between atoms: C_14  and  O_59
   13  A    between atoms: C_15  and  C_25
   14  A    between atoms: C_16  and  C_28
   15  A    between atoms: C_21  and  C_60
   16  A    between atoms: C_28  and  C_45
   17  A    between atoms: C_30  and  C_31
   18  A    between atoms: C_31  and  N_33
   19  A    between atoms: C_38  and  C_60
   20  A    between atoms: C_39  and  O_59
   21  A    between atoms: C_39  and  C_60
   22  A    between atoms: C_43  and  C_45
   23  A    between atoms: C_56  and  N_58
                            x       y       z     vdW  Elec       q    Type
                         _______ _______ _______ _____ _____    ______ ____

>  <TORSDO>
F 23

$$$$
=
 OpenBabel10232409203D

 60 66  0  0  1  0  0  0  0  0999 V2000
  188.4960  177.7530  143.8020 C   0  0  1  0  0  3  0  0  0  0  0  0
  189.6230  177.5820  142.7780 C   0  0  1  0  0  0  0  0  0  0  0  0
  189.7910  178.5580  143.9220 C   0  0  0  0  0  2  0  0  0  0  0  0
  187.4630  178.5160  143.2200 O   0  0  0  0  0  0  0  0  0  0  0  0
  186.2630  178.2700  143.9090 C   0  0  0  0  0  0  0  0  0  0  0  0
  186.4440  178.5720  145.3890 C   0  0  0  0  0  2  0  0  0  0  0  0
  186.2750  177.1340  144.9200 C   0  0  0  0  0  2  0  0  0  0  0  0
  184.9360  178.7690  143.2990 C   0  0  2  0  0  3  0  0  0  0  0  0
  183.0390  179.6590  144.4620 O   0  0  0  0  0  1  0  0  0  0  0  0
  183.7820  178.4970  144.2580 C   0  0  0  0  0  2  0  0  0  0  0  0
  184.6440  178.1400  141.9320 C   0  0  0  0  0  2  0  0  0  0  0  0
  185.0680  179.0450  140.7930 C   0  0  0  0  0  2  0  0  0  0  0  0
  184.0720  178.9060  139.6630 C   0  0  0  0  0  2  0  0  0  0  0  0
  182.9500  176.9540  138.5710 C   0  0  0  0  0  0  0  0  0  0  0  0
  183.9780  177.4720  139.2520 C   0  0  0  0  0  3  0  0  0  0  0  0
  183.3890  173.1460  136.7130 C   0  0  1  0  0  3  0  0  0  0  0  0
  181.8480  175.0140  137.3910 C   0  0  0  0  0  2  0  0  0  0  0  0
  183.5600  171.6410  136.7320 C   0  0  0  0  0  1  0  0  0  0  0  0
  184.2570  175.1950  137.6220 O   0  0  0  0  0  0  0  0  0  0  0  0
  181.9740  173.5100  137.1710 C   0  0  0  0  0  2  0  0  0  0  0  0
  183.0270  175.4900  138.2460 C   0  0  1  0  0  3  0  0  0  0  0  0
  184.4030  173.7960  137.6540 C   0  0  0  0  0  2  0  0  0  0  0  0
  180.7540  177.8700  138.7980 O   0  0  0  0  0  0  0  0  0  0  0  0
  181.8030  177.7750  138.1000 C   0  0  0  0  0  0  0  0  0  0  0  0
  181.8850  178.4620  136.8450 N   0  0  0  0  0  2  0  0  0  0  0  0
  180.9850  179.3820  134.9030 O   0  0  0  0  0  1  0  0  0  0  0  0
  180.7270  179.1120  136.2470 C   0  0  0  0  0  2  0  0  0  0  0  0
  190.3930  176.2730  142.8750 C   0  0  0  0  0  2  0  0  0  0  0  0
  191.6700  176.4940  143.5380 N   0  0  0  0  0  2  0  0  0  0  0  0
  191.7830  175.4520  144.5400 C   0  0  0  0  0  2  0  0  0  0  0  0
  192.2840  175.2640  146.9740 O   0  0  0  0  0  1  0  0  0  0  0  0
  191.9500  176.0620  145.8860 C   0  0  0  0  0  0  0  0  0  0  0  0
  191.7800  177.2990  146.0420 O   0  0  0  0  0  0  0  0  0  0  0  0
  189.3130  178.0840  141.4660 O   0  0  0  0  0  0  0  0  0  0  0  0
  188.0910  176.4550  137.0420 O   0  0  0  0  0  0  0  0  0  0  0  0
  190.7370  174.2630  136.1040 C   0  0  0  0  0  0  0  0  0  0  0  0
  188.7150  175.5980  136.2630 C   0  0  0  0  0  0  0  0  0  0  0  0
  188.8750  176.6430  138.0800 C   0  0  0  0  0  0  0  0  0  0  0  0
  188.2350  175.1000  135.0980 N   0  0  0  0  0  0  0  0  0  0  0  0
  189.9430  175.2190  136.7740 C   0  0  0  0  0  0  0  0  0  0  0  0
  190.0540  175.9320  137.9540 C   0  0  0  0  0  0  0  0  0  0  0  0
  189.5490  177.4200  140.2520 C   0  0  0  0  0  0  0  0  0  0  0  0
  188.9410  174.1410  134.4430 C   0  0  0  0  0  3  0  0  0  0  0  0
  191.0210  175.9550  138.9520 C   0  0  0  0  0  3  0  0  0  0  0  0
  190.1860  173.7060  134.9320 C   0  0  0  0  0  3  0  0  0  0  0  0
  188.5910  177.3980  139.2170 C   0  0  0  0  0  3  0  0  0  0  0  0
  190.7650  176.7220  140.1000 C   0  0  0  0  0  3  0  0  0  0  0  0
  194.3810  173.9170  136.9310 C   0  0  0  0  0  0  0  0  0  0  0  0
  193.2030  174.8320  136.9140 C   0  0  0  0  0  2  0  0  0  0  0  0
  193.9780  172.7030  136.5500 C   0  0  0  0  0  0  0  0  0  0  0  0
  192.1270  173.8870  136.4760 C   0  0  0  0  0  0  0  0  0  0  0  0
  192.5840  172.6950  136.2680 N   0  0  0  0  0  0  0  0  0  0  0  0
  195.7220  174.3320  137.2520 N   0  0  0  0  0  0  0  0  0  0  0  0
  196.1690  174.3070  138.6400 C   0  0  0  0  0  1  0  0  0  0  0  0
  196.7010  174.6820  136.2310 C   0  0  0  0  0  2  0  0  0  0  0  0
  195.9950  175.0750  134.9440 C   0  0  0  0  0  1  0  0  0  0  0  0
  194.8480  171.5210  136.2490 C   0  0  0  0  0  2  0  0  0  0  0  0
  195.2900  170.8300  137.5390 C   0  0  0  0  0  2  0  0  0  0  0  0
  195.7070  169.4230  137.2730 C   0  0  0  0  0  3  0  0  0  0  0  0
  196.9260  169.0600  137.4260 N   0  0  0  0  0  2  0  0  0  0  0  0
  1  4  1  6  0  0  0
  1  3  1  0  0  0  0
  2 28  1  1  0  0  0
  2  1  1  0  0  0  0
  2  3  1  0  0  0  0
  4  5  1  0  0  0  0
  5  7  1  0  0  0  0
  5  6  1  0  0  0  0
  7  6  1  0  0  0  0
  8 11  1  6  0  0  0
  8  5  1  0  0  0  0
  8 10  1  0  0  0  0
 10  9  1  0  0  0  0
 12 11  1  0  0  0  0
 13 12  1  0  0  0  0
 14 15  2  0  0  0  0
 15 13  1  0  0  0  0
 16 18  1  1  0  0  0
 16 20  1  0  0  0  0
 16 22  1  0  0  0  0
 17 21  1  0  0  0  0
 19 22  1  0  0  0  0
 19 21  1  0  0  0  0
 20 17  1  0  0  0  0
 21 14  1  6  0  0  0
 24 14  1  0  0  0  0
 24 23  2  0  0  0  0
 25 24  1  0  0  0  0
 26 27  1  0  0  0  0
 27 25  1  0  0  0  0
 28 29  1  0  0  0  0
 29 30  1  0  0  0  0
 30 32  1  0  0  0  0
 32 33  2  0  0  0  0
 32 31  1  0  0  0  0
 34  2  1  0  0  0  0
 35 38  1  0  0  0  0
 36 51  1  0  0  0  0
 36 40  2  0  0  0  0
 37 40  1  0  0  0  0
 37 35  1  0  0  0  0
 38 46  1  0  0  0  0
 39 37  2  0  0  0  0
 40 41  1  0  0  0  0
 41 38  2  0  0  0  0
 41 44  1  0  0  0  0
 42 34  1  0  0  0  0
 43 45  2  0  0  0  0
 43 39  1  0  0  0  0
 44 47  2  0  0  0  0
 45 36  1  0  0  0  0
 46 42  2  0  0  0  0
 47 42  1  0  0  0  0
 48 53  1  0  0  0  0
 49 48  1  0  0  0  0
 50 48  2  0  0  0  0
 51 49  1  0  0  0  0
 52 51  2  0  0  0  0
 52 50  1  0  0  0  0
 53 54  1  0  0  0  0
 55 53  1  0  0  0  0
 56 55  1  0  0  0  0
 57 50  1  0  0  0  0
 57 58  1  0  0  0  0
 59 60  2  0  0  0  0
 59 58  1  0  0  0  0
M  END
>  <MODEL>
2

>  <REMARK>
 VINA RESULT:      -5.9      1.395      2.248
  Name = 
  23 active torsions:
  status: ('A' for Active; 'I' for Inactive)
    1  A    between atoms: O_2  and  C_18
    2  A    between atoms: O_2  and  C_46
    3  A    between atoms: C_3  and  N_23
    4  A    between atoms: C_4  and  C_9
    5  A    between atoms: C_4  and  C_38
    6  A    between atoms: C_5  and  C_18
    7  A    between atoms: C_5  and  N_33
    8  A    between atoms: C_7  and  N_23
    9  A    between atoms: C_9  and  C_17
   10  A    between atoms: C_11  and  C_36
   11  A    between atoms: C_11  and  C_40
   12  A    between atoms: C_14  and  O_59
   13  A    between atoms: C_15  and  C_25
   14  A    between atoms: C_16  and  C_28
   15  A    between atoms: C_21  and  C_60
   16  A    between atoms: C_28  and  C_45
   17  A    between atoms: C_30  and  C_31
   18  A    between atoms: C_31  and  N_33
   19  A    between atoms: C_38  and  C_60
   20  A    between atoms: C_39  and  O_59
   21  A    between atoms: C_39  and  C_60
   22  A    between atoms: C_43  and  C_45
   23  A    between atoms: C_56  and  N_58
                            x       y       z     vdW  Elec       q    Type
                         _______ _______ _______ _____ _____    ______ ____

>  <TORSDO>
F 23

$$$$
=
 OpenBabel10232409203D

 60 66  0  0  1  0  0  0  0  0999 V2000
  188.9970  177.8140  143.2710 C   0  0  1  0  0  3  0  0  0  0  0  0
  190.1500  177.6670  142.2720 C   0  0  1  0  0  0  0  0  0  0  0  0
  190.2130  178.7400  143.3380 C   0  0  0  0  0  2  0  0  0  0  0  0
  187.9090  178.4330  142.6230 O   0  0  0  0  0  0  0  0  0  0  0  0
  186.7170  178.0690  143.2720 C   0  0  0  0  0  0  0  0  0  0  0  0
  186.9720  177.8860  144.7600 C   0  0  0  0  0  2  0  0  0  0  0  0
  186.6680  176.6790  143.8850 C   0  0  0  0  0  2  0  0  0  0  0  0
  185.4160  178.8220  142.9210 C   0  0  2  0  0  3  0  0  0  0  0  0
  183.1190  178.7080  143.5940 O   0  0  0  0  0  1  0  0  0  0  0  0
  184.4260  178.7270  144.0770 C   0  0  0  0  0  2  0  0  0  0  0  0
  184.7690  178.3080  141.6310 C   0  0  0  0  0  2  0  0  0  0  0  0
  185.5980  178.6480  140.4090 C   0  0  0  0  0  2  0  0  0  0  0  0
  184.6680  179.0250  139.2770 C   0  0  0  0  0  2  0  0  0  0  0  0
  184.6980  177.2780  137.4860 C   0  0  0  0  0  0  0  0  0  0  0  0
  184.1710  177.7860  138.6060 C   0  0  0  0  0  3  0  0  0  0  0  0
  182.0400  174.2310  136.1470 C   0  0  1  0  0  3  0  0  0  0  0  0
  183.3680  175.2070  138.0450 C   0  0  0  0  0  2  0  0  0  0  0  0
  181.7140  172.9380  135.4270 C   0  0  0  0  0  1  0  0  0  0  0  0
  183.1760  176.3350  135.9050 O   0  0  0  0  0  0  0  0  0  0  0  0
  182.8210  173.9250  137.4280 C   0  0  0  0  0  2  0  0  0  0  0  0
  184.0670  176.0250  136.9530 C   0  0  1  0  0  3  0  0  0  0  0  0
  182.8880  175.1270  135.2450 C   0  0  0  0  0  2  0  0  0  0  0  0
  186.5460  178.7890  137.3790 O   0  0  0  0  0  0  0  0  0  0  0  0
  185.8830  177.8750  136.8130 C   0  0  0  0  0  0  0  0  0  0  0  0
  186.2740  177.4130  135.5140 N   0  0  0  0  0  2  0  0  0  0  0  0
  188.5610  177.7390  135.2050 O   0  0  0  0  0  1  0  0  0  0  0  0
  187.2960  178.0930  134.7320 C   0  0  0  0  0  2  0  0  0  0  0  0
  191.0330  176.4450  142.4780 C   0  0  0  0  0  2  0  0  0  0  0  0
  190.7180  175.8100  143.7490 N   0  0  0  0  0  2  0  0  0  0  0  0
  191.9750  175.7120  144.4670 C   0  0  0  0  0  2  0  0  0  0  0  0
  192.4040  175.4820  146.9100 O   0  0  0  0  0  1  0  0  0  0  0  0
  191.7930  176.1710  145.8690 C   0  0  0  0  0  0  0  0  0  0  0  0
  191.0800  177.1780  146.1140 O   0  0  0  0  0  0  0  0  0  0  0  0
  189.8160  178.0370  140.9230 O   0  0  0  0  0  0  0  0  0  0  0  0
  188.1240  175.2300  137.3210 O   0  0  0  0  0  0  0  0  0  0  0  0
  191.0140  173.6990  135.9110 C   0  0  0  0  0  0  0  0  0  0  0  0
  188.7760  174.4310  136.5050 C   0  0  0  0  0  0  0  0  0  0  0  0
  189.0370  175.8430  138.0400 C   0  0  0  0  0  0  0  0  0  0  0  0
  188.2080  173.5840  135.6130 N   0  0  0  0  0  0  0  0  0  0  0  0
  190.1470  174.5200  136.6630 C   0  0  0  0  0  0  0  0  0  0  0  0
  190.3130  175.4720  137.6540 C   0  0  0  0  0  0  0  0  0  0  0  0
  189.9440  177.2200  139.7890 C   0  0  0  0  0  0  0  0  0  0  0  0
  188.9990  172.7380  134.9020 C   0  0  0  0  0  3  0  0  0  0  0  0
  191.4360  175.9710  138.3000 C   0  0  0  0  0  3  0  0  0  0  0  0
  190.3980  172.7750  135.0420 C   0  0  0  0  0  3  0  0  0  0  0  0
  188.8180  176.7160  139.1040 C   0  0  0  0  0  3  0  0  0  0  0  0
  191.2420  176.8660  139.3650 C   0  0  0  0  0  3  0  0  0  0  0  0
  194.7190  173.8840  136.4740 C   0  0  0  0  0  0  0  0  0  0  0  0
  193.4270  173.3090  136.9500 C   0  0  0  0  0  2  0  0  0  0  0  0
  194.4870  174.5750  135.3560 C   0  0  0  0  0  0  0  0  0  0  0  0
  192.4970  173.8060  135.8880 C   0  0  0  0  0  0  0  0  0  0  0  0
  193.1100  174.5240  135.0030 N   0  0  0  0  0  0  0  0  0  0  0  0
  195.9720  173.7430  137.1700 N   0  0  0  0  0  0  0  0  0  0  0  0
  196.3280  172.4540  137.7530 C   0  0  0  0  0  1  0  0  0  0  0  0
  196.9610  174.8110  137.2300 C   0  0  0  0  0  2  0  0  0  0  0  0
  198.3630  174.2270  137.2290 C   0  0  0  0  0  1  0  0  0  0  0  0
  195.4510  175.4660  134.6340 C   0  0  0  0  0  2  0  0  0  0  0  0
  194.9410  176.9060  134.6030 C   0  0  0  0  0  2  0  0  0  0  0  0
  196.0770  177.8730  134.6300 C   0  0  0  0  0  3  0  0  0  0  0  0
  195.9820  178.9780  135.2730 N   0  0  0  0  0  2  0  0  0  0  0  0
  1  4  1  6  0  0  0
  1  3  1  0  0  0  0
  2 28  1  1  0  0  0
  2  1  1  0  0  0  0
  2  3  1  0  0  0  0
  4  5  1  0  0  0  0
  5  7  1  0  0  0  0
  5  6  1  0  0  0  0
  7  6  1  0  0  0  0
  8 11  1  6  0  0  0
  8  5  1  0  0  0  0
  8 10  1  0  0  0  0
  9 10  1  0  0  0  0
 12 11  1  0  0  0  0
 13 12  1  0  0  0  0
 14 15  2  0  0  0  0
 15 13  1  0  0  0  0
 16 18  1  6  0  0  0
 16 20  1  0  0  0  0
 19 21  1  0  0  0  0
 20 17  1  0  0  0  0
 21 14  1  1  0  0  0
 21 17  1  0  0  0  0
 22 19  1  0  0  0  0
 22 16  1  0  0  0  0
 24 23  2  0  0  0  0
 24 14  1  0  0  0  0
 25 24  1  0  0  0  0
 27 26  1  0  0  0  0
 27 25  1  0  0  0  0
 28 29  1  0  0  0  0
 29 30  1  0  0  0  0
 30 32  1  0  0  0  0
 32 33  2  0  0  0  0
 32 31  1  0  0  0  0
 34  2  1  0  0  0  0
 35 38  1  0  0  0  0
 36 40  2  0  0  0  0
 37 40  1  0  0  0  0
 37 35  1  0  0  0  0
 38 46  1  0  0  0  0
 39 37  2  0  0  0  0
 40 41  1  0  0  0  0
 41 38  2  0  0  0  0
 41 44  1  0  0  0  0
 42 34  1  0  0  0  0
 43 45  2  0  0  0  0
 43 39  1  0  0  0  0
 44 47  2  0  0  0  0
 45 36  1  0  0  0  0
 46 42  2  0  0  0  0
 47 42  1  0  0  0  0
 48 49  1  0  0  0  0
 48 53  1  0  0  0  0
 50 48  2  0  0  0  0
 51 36  1  0  0  0  0
 51 49  1  0  0  0  0
 52 50  1  0  0  0  0
 52 51  2  0  0  0  0
 53 55  1  0  0  0  0
 53 54  1  0  0  0  0
 56 55  1  0  0  0  0
 57 50  1  0  0  0  0
 58 59  1  0  0  0  0
 58 57  1  0  0  0  0
 59 60  2  0  0  0  0
M  END
>  <MODEL>
3

>  <REMARK>
 VINA RESULT:      -5.6      1.902      2.702
  Name = 
  23 active torsions:
  status: ('A' for Active; 'I' for Inactive)
    1  A    between atoms: O_2  and  C_18
    2  A    between atoms: O_2  and  C_46
    3  A    between atoms: C_3  and  N_23
    4  A    between atoms: C_4  and  C_9
    5  A    between atoms: C_4  and  C_38
    6  A    between atoms: C_5  and  C_18
    7  A    between atoms: C_5  and  N_33
    8  A    between atoms: C_7  and  N_23
    9  A    between atoms: C_9  and  C_17
   10  A    between atoms: C_11  and  C_36
   11  A    between atoms: C_11  and  C_40
   12  A    between atoms: C_14  and  O_59
   13  A    between atoms: C_15  and  C_25
   14  A    between atoms: C_16  and  C_28
   15  A    between atoms: C_21  and  C_60
   16  A    between atoms: C_28  and  C_45
   17  A    between atoms: C_30  and  C_31
   18  A    between atoms: C_31  and  N_33
   19  A    between atoms: C_38  and  C_60
   20  A    between atoms: C_39  and  O_59
   21  A    between atoms: C_39  and  C_60
   22  A    between atoms: C_43  and  C_45
   23  A    between atoms: C_56  and  N_58
                            x       y       z     vdW  Elec       q    Type
                         _______ _______ _______ _____ _____    ______ ____

>  <TORSDO>
F 23

$$$$
=
 OpenBabel10232409203D

 60 66  0  0  1  0  0  0  0  0999 V2000
  188.7900  177.9400  143.6510 C   0  0  1  0  0  3  0  0  0  0  0  0
  190.0160  177.8490  142.7370 C   0  0  1  0  0  0  0  0  0  0  0  0
  190.0030  178.8450  143.8760 C   0  0  0  0  0  2  0  0  0  0  0  0
  187.7590  178.6150  142.9660 O   0  0  0  0  0  0  0  0  0  0  0  0
  186.5240  178.2880  143.5510 C   0  0  0  0  0  0  0  0  0  0  0  0
  186.7110  178.0110  145.0350 C   0  0  0  0  0  2  0  0  0  0  0  0
  186.3720  176.8720  144.0840 C   0  0  0  0  0  2  0  0  0  0  0  0
  185.2830  179.1350  143.1980 C   0  0  2  0  0  3  0  0  0  0  0  0
  183.1150  178.7830  144.1560 O   0  0  0  0  0  1  0  0  0  0  0  0
  184.3860  179.2890  144.4210 C   0  0  0  0  0  2  0  0  0  0  0  0
  184.4830  178.5470  142.0300 C   0  0  0  0  0  2  0  0  0  0  0  0
  185.1490  178.8190  140.6960 C   0  0  0  0  0  2  0  0  0  0  0  0
  184.0950  179.2620  139.7050 C   0  0  0  0  0  2  0  0  0  0  0  0
  182.2100  177.9880  138.6640 C   0  0  0  0  0  0  0  0  0  0  0  0
  183.4880  178.0630  139.0530 C   0  0  0  0  0  3  0  0  0  0  0  0
  180.1530  174.8860  136.5940 C   0  0  1  0  0  3  0  0  0  0  0  0
  180.6270  176.0250  138.7840 C   0  0  0  0  0  2  0  0  0  0  0  0
  180.0680  173.5320  135.9190 C   0  0  0  0  0  1  0  0  0  0  0  0
  181.4280  176.9210  136.6760 O   0  0  0  0  0  0  0  0  0  0  0  0
  180.3010  174.6990  138.1060 C   0  0  0  0  0  2  0  0  0  0  0  0
  181.7740  176.7010  138.0250 C   0  0  1  0  0  3  0  0  0  0  0  0
  181.3610  175.6570  136.0630 C   0  0  0  0  0  2  0  0  0  0  0  0
  180.5640  179.2600  139.8420 O   0  0  0  0  0  0  0  0  0  0  0  0
  181.2620  179.1270  138.7980 C   0  0  0  0  0  0  0  0  0  0  0  0
  181.1360  180.0790  137.7340 N   0  0  0  0  0  2  0  0  0  0  0  0
  180.1170  181.8000  138.9290 O   0  0  0  0  0  1  0  0  0  0  0  0
  180.0890  181.0900  137.7270 C   0  0  0  0  0  2  0  0  0  0  0  0
  190.8730  176.6060  142.9250 C   0  0  0  0  0  2  0  0  0  0  0  0
  191.8370  176.8210  143.9930 N   0  0  0  0  0  2  0  0  0  0  0  0
  191.7010  175.6870  144.8860 C   0  0  0  0  0  2  0  0  0  0  0  0
  191.6400  177.4060  146.6880 O   0  0  0  0  0  0  0  0  0  0  0  0
  191.9560  176.1140  146.2870 C   0  0  0  0  0  0  0  0  0  0  0  0
  192.4660  175.3070  147.1080 O   0  0  0  0  0  1  0  0  0  0  0  0
  189.7910  178.3150  141.3950 O   0  0  0  0  0  0  0  0  0  0  0  0
  188.3470  175.8720  137.4360 O   0  0  0  0  0  0  0  0  0  0  0  0
  191.2890  174.2820  136.2110 C   0  0  0  0  0  0  0  0  0  0  0  0
  189.0400  175.0970  136.6310 C   0  0  0  0  0  0  0  0  0  0  0  0
  189.2090  176.3790  138.2890 C   0  0  0  0  0  0  0  0  0  0  0  0
  188.5280  174.3500  135.6250 N   0  0  0  0  0  0  0  0  0  0  0  0
  190.3900  175.0960  136.9330 C   0  0  0  0  0  0  0  0  0  0  0  0
  190.4980  175.9640  138.0050 C   0  0  0  0  0  0  0  0  0  0  0  0
  189.9950  177.5740  140.2200 C   0  0  0  0  0  0  0  0  0  0  0  0
  189.3460  173.5120  134.9340 C   0  0  0  0  0  3  0  0  0  0  0  0
  191.5710  176.3510  138.7980 C   0  0  0  0  0  3  0  0  0  0  0  0
  190.7230  173.4590  135.2160 C   0  0  0  0  0  3  0  0  0  0  0  0
  188.9230  177.1860  139.3890 C   0  0  0  0  0  3  0  0  0  0  0  0
  191.3110  177.1770  139.9040 C   0  0  0  0  0  3  0  0  0  0  0  0
  195.0290  174.4020  135.9280 C   0  0  0  0  0  0  0  0  0  0  0  0
  193.7330  174.8470  135.3370 C   0  0  0  0  0  3  0  0  0  0  0  0
  194.7710  173.7300  137.0520 C   0  0  1  0  0  3  0  0  0  0  0  0
  192.7690  174.3050  136.3470 C   0  0  0  0  0  0  0  0  0  0  0  0
  193.3720  173.6720  137.3010 N   0  0  0  0  0  0  0  0  0  0  0  0
  196.3150  174.6300  135.3210 N   0  0  0  0  0  0  0  0  0  0  0  0
  197.0570  175.8430  135.6460 C   0  0  0  0  0  1  0  0  0  0  0  0
  196.9650  173.6450  134.4670 C   0  0  0  0  0  2  0  0  0  0  0  0
  198.4470  173.9540  134.3470 C   0  0  0  0  0  1  0  0  0  0  0  0
  195.7500  172.9500  137.8760 C   0  0  0  0  0  2  0  0  0  0  0  0
  195.8430  173.5210  139.2910 C   0  0  0  0  0  2  0  0  0  0  0  0
  196.5440  174.8380  139.2890 C   0  0  0  0  0  3  0  0  0  0  0  0
  196.6140  175.5450  140.3550 N   0  0  0  0  0  2  0  0  0  0  0  0
  1  4  1  6  0  0  0
  1  3  1  0  0  0  0
  2 28  1  1  0  0  0
  2  1  1  0  0  0  0
  2  3  1  0  0  0  0
  4  5  1  0  0  0  0
  5  7  1  0  0  0  0
  5  6  1  0  0  0  0
  7  6  1  0  0  0  0
  8 11  1  6  0  0  0
  8  5  1  0  0  0  0
  8 10  1  0  0  0  0
  9 10  1  0  0  0  0
 12 11  1  0  0  0  0
 13 12  1  0  0  0  0
 14 24  1  0  0  0  0
 14 15  2  0  0  0  0
 15 13  1  0  0  0  0
 16 18  1  6  0  0  0
 16 20  1  0  0  0  0
 19 21  1  0  0  0  0
 20 17  1  0  0  0  0
 21 14  1  1  0  0  0
 21 17  1  0  0  0  0
 22 16  1  0  0  0  0
 22 19  1  0  0  0  0
 24 23  2  0  0  0  0
 25 24  1  0  0  0  0
 27 25  1  0  0  0  0
 27 26  1  0  0  0  0
 28 29  1  0  0  0  0
 29 30  1  0  0  0  0
 30 32  1  0  0  0  0
 32 31  2  0  0  0  0
 32 33  1  0  0  0  0
 34  2  1  0  0  0  0
 35 38  1  0  0  0  0
 36 51  1  0  0  0  0
 36 40  2  0  0  0  0
 37 40  1  0  0  0  0
 37 35  1  0  0  0  0
 38 46  1  0  0  0  0
 39 37  2  0  0  0  0
 40 41  1  0  0  0  0
 41 38  2  0  0  0  0
 41 44  1  0  0  0  0
 42 34  1  0  0  0  0
 43 45  2  0  0  0  0
 43 39  1  0  0  0  0
 44 47  2  0  0  0  0
 45 36  1  0  0  0  0
 46 42  2  0  0  0  0
 47 42  1  0  0  0  0
 48 50  1  0  0  0  0
 49 48  2  0  0  0  0
 49 51  1  0  0  0  0
 50 52  1  0  0  0  0
 50 57  1  6  0  0  0
 51 52  2  0  0  0  0
 53 54  1  0  0  0  0
 53 48  1  0  0  0  0
 55 53  1  0  0  0  0
 56 55  1  0  0  0  0
 57 58  1  0  0  0  0
 59 58  1  0  0  0  0
 59 60  2  0  0  0  0
M  END
>  <MODEL>
4

>  <REMARK>
 VINA RESULT:      -5.4      1.626      2.387
  Name = 
  23 active torsions:
  status: ('A' for Active; 'I' for Inactive)
    1  A    between atoms: O_2  and  C_18
    2  A    between atoms: O_2  and  C_46
    3  A    between atoms: C_3  and  N_23
    4  A    between atoms: C_4  and  C_9
    5  A    between atoms: C_4  and  C_38
    6  A    between atoms: C_5  and  C_18
    7  A    between atoms: C_5  and  N_33
    8  A    between atoms: C_7  and  N_23
    9  A    between atoms: C_9  and  C_17
   10  A    between atoms: C_11  and  C_36
   11  A    between atoms: C_11  and  C_40
   12  A    between atoms: C_14  and  O_59
   13  A    between atoms: C_15  and  C_25
   14  A    between atoms: C_16  and  C_28
   15  A    between atoms: C_21  and  C_60
   16  A    between atoms: C_28  and  C_45
   17  A    between atoms: C_30  and  C_31
   18  A    between atoms: C_31  and  N_33
   19  A    between atoms: C_38  and  C_60
   20  A    between atoms: C_39  and  O_59
   21  A    between atoms: C_39  and  C_60
   22  A    between atoms: C_43  and  C_45
   23  A    between atoms: C_56  and  N_58
                            x       y       z     vdW  Elec       q    Type
                         _______ _______ _______ _____ _____    ______ ____

>  <TORSDO>
F 23

$$$$
=
 OpenBabel10232409203D

 60 66  0  0  1  0  0  0  0  0999 V2000
  187.6870  177.9890  144.0770 C   0  0  1  0  0  3  0  0  0  0  0  0
  186.2410  178.0980  143.5810 C   0  0  1  0  0  0  0  0  0  0  0  0
  187.0000  176.8010  143.4010 C   0  0  0  0  0  2  0  0  0  0  0  0
  188.5290  178.6790  143.1820 O   0  0  0  0  0  0  0  0  0  0  0  0
  189.8550  178.2550  143.3750 C   0  0  0  0  0  0  0  0  0  0  0  0
  190.1590  178.1640  144.8630 C   0  0  0  0  0  2  0  0  0  0  0  0
  190.8060  179.2520  144.0180 C   0  0  0  0  0  2  0  0  0  0  0  0
  190.3950  177.0850  142.5260 C   0  0  2  0  0  3  0  0  0  0  0  0
  191.6170  175.3500  143.6400 O   0  0  0  0  0  1  0  0  0  0  0  0
  191.7400  176.6170  143.0720 C   0  0  0  0  0  2  0  0  0  0  0  0
  190.5260  177.4460  141.0420 C   0  0  0  0  0  2  0  0  0  0  0  0
  190.5490  176.2130  140.1620 C   0  0  0  0  0  2  0  0  0  0  0  0
  190.5560  176.6470  138.7130 C   0  0  0  0  0  2  0  0  0  0  0  0
  190.1050  174.8890  136.9900 C   0  0  0  0  0  0  0  0  0  0  0  0
  189.6660  175.7480  137.9170 C   0  0  0  0  0  3  0  0  0  0  0  0
  186.5590  172.8700  135.7700 C   0  0  1  0  0  3  0  0  0  0  0  0
  188.7200  172.7800  137.0510 C   0  0  0  0  0  2  0  0  0  0  0  0
  185.7040  172.1180  134.7700 C   0  0  0  0  0  1  0  0  0  0  0  0
  187.9090  174.8380  136.0530 O   0  0  0  0  0  0  0  0  0  0  0  0
  187.7120  171.9770  136.2350 C   0  0  0  0  0  2  0  0  0  0  0  0
  189.0640  174.0650  136.2900 C   0  0  1  0  0  3  0  0  0  0  0  0
  187.1300  174.1300  135.1200 C   0  0  0  0  0  2  0  0  0  0  0  0
  192.0710  173.5530  136.7450 O   0  0  0  0  0  0  0  0  0  0  0  0
  191.5500  174.7020  136.6880 C   0  0  0  0  0  0  0  0  0  0  0  0
  192.3560  175.8320  136.3320 N   0  0  0  0  0  2  0  0  0  0  0  0
  194.1500  175.3240  134.9340 O   0  0  0  0  0  1  0  0  0  0  0  0
  193.8050  175.7380  136.2220 C   0  0  0  0  0  2  0  0  0  0  0  0
  185.1830  178.1250  144.6740 C   0  0  0  0  0  2  0  0  0  0  0  0
  184.2920  179.2580  144.4770 N   0  0  0  0  0  2  0  0  0  0  0  0
  182.9940  178.8330  144.9650 C   0  0  0  0  0  2  0  0  0  0  0  0
  182.4410  179.0350  142.5440 O   0  0  0  0  0  0  0  0  0  0  0  0
  182.0120  178.8230  143.8490 C   0  0  0  0  0  0  0  0  0  0  0  0
  180.7920  178.6300  144.0860 O   0  0  0  0  0  1  0  0  0  0  0  0
  186.0670  178.9710  142.4520 O   0  0  0  0  0  0  0  0  0  0  0  0
  187.8950  178.4790  137.9650 O   0  0  0  0  0  0  0  0  0  0  0  0
  185.1350  177.4760  135.9500 C   0  0  0  0  0  0  0  0  0  0  0  0
  187.2890  178.1540  136.8440 C   0  0  0  0  0  0  0  0  0  0  0  0
  186.9920  178.3730  138.9140 C   0  0  0  0  0  0  0  0  0  0  0  0
  187.8510  178.1680  135.6130 N   0  0  0  0  0  0  0  0  0  0  0  0
  185.9650  177.8060  137.0430 C   0  0  0  0  0  0  0  0  0  0  0  0
  185.7850  177.9230  138.4100 C   0  0  0  0  0  0  0  0  0  0  0  0
  186.0260  178.5780  141.1050 C   0  0  0  0  0  0  0  0  0  0  0  0
  187.0790  177.9060  134.5240 C   0  0  0  0  0  3  0  0  0  0  0  0
  184.6740  177.7680  139.2300 C   0  0  0  0  0  3  0  0  0  0  0  0
  185.7220  177.5670  134.6720 C   0  0  0  0  0  3  0  0  0  0  0  0
  187.1470  178.7090  140.2580 C   0  0  0  0  0  3  0  0  0  0  0  0
  184.8090  178.0840  140.5910 C   0  0  0  0  0  3  0  0  0  0  0  0
  181.8660  175.6330  135.9260 C   0  0  0  0  0  0  0  0  0  0  0  0
  183.3520  175.5060  135.9820 C   0  0  0  0  0  2  0  0  0  0  0  0
  181.5520  176.9290  135.9510 C   0  0  0  0  0  0  0  0  0  0  0  0
  183.7480  176.9480  136.0510 C   0  0  0  0  0  0  0  0  0  0  0  0
  182.7210  177.7360  136.0250 N   0  0  0  0  0  0  0  0  0  0  0  0
  180.9640  174.5160  135.8060 N   0  0  0  0  0  0  0  0  0  0  0  0
  180.4860  174.1190  134.4860 C   0  0  0  0  0  1  0  0  0  0  0  0
  180.5820  173.6900  136.9430 C   0  0  0  0  0  2  0  0  0  0  0  0
  180.4760  174.5420  138.1960 C   0  0  0  0  0  1  0  0  0  0  0  0
  180.1960  177.5290  135.7340 C   0  0  0  0  0  2  0  0  0  0  0  0
  180.2690  179.0550  135.7480 C   0  0  0  0  0  2  0  0  0  0  0  0
  179.9870  179.5890  137.1120 C   0  0  0  0  0  3  0  0  0  0  0  0
  180.0720  180.8440  137.3560 N   0  0  0  0  0  2  0  0  0  0  0  0
  1  4  1  6  0  0  0
  2  1  1  0  0  0  0
  2 28  1  1  0  0  0
  3  2  1  0  0  0  0
  3  1  1  0  0  0  0
  4  5  1  0  0  0  0
  5  7  1  0  0  0  0
  5  6  1  0  0  0  0
  7  6  1  0  0  0  0
  8 11  1  6  0  0  0
  8 10  1  0  0  0  0
  8  5  1  0  0  0  0
 10  9  1  0  0  0  0
 12 11  1  0  0  0  0
 13 12  1  0  0  0  0
 14 15  2  0  0  0  0
 15 13  1  0  0  0  0
 16 18  1  6  0  0  0
 16 20  1  0  0  0  0
 19 21  1  0  0  0  0
 20 17  1  0  0  0  0
 21 14  1  1  0  0  0
 21 17  1  0  0  0  0
 22 16  1  0  0  0  0
 22 19  1  0  0  0  0
 24 23  2  0  0  0  0
 24 14  1  0  0  0  0
 25 24  1  0  0  0  0
 26 27  1  0  0  0  0
 27 25  1  0  0  0  0
 29 28  1  0  0  0  0
 29 30  1  0  0  0  0
 31 32  2  0  0  0  0
 32 33  1  0  0  0  0
 32 30  1  0  0  0  0
 34  2  1  0  0  0  0
 35 38  1  0  0  0  0
 36 51  1  0  0  0  0
 36 40  2  0  0  0  0
 37 40  1  0  0  0  0
 37 35  1  0  0  0  0
 38 46  1  0  0  0  0
 39 37  2  0  0  0  0
 40 41  1  0  0  0  0
 41 38  2  0  0  0  0
 41 44  1  0  0  0  0
 42 34  1  0  0  0  0
 43 45  2  0  0  0  0
 43 39  1  0  0  0  0
 44 47  2  0  0  0  0
 45 36  1  0  0  0  0
 46 42  2  0  0  0  0
 47 42  1  0  0  0  0
 48 50  2  0  0  0  0
 48 49  1  0  0  0  0
 49 51  1  0  0  0  0
 50 52  1  0  0  0  0
 52 51  2  0  0  0  0
 53 48  1  0  0  0  0
 53 55  1  0  0  0  0
 54 53  1  0  0  0  0
 55 56  1  0  0  0  0
 57 58  1  0  0  0  0
 57 50  1  0  0  0  0
 58 59  1  0  0  0  0
 59 60  2  0  0  0  0
M  END
>  <MODEL>
5

>  <REMARK>
 VINA RESULT:      -5.3      2.608      8.787
  Name = 
  23 active torsions:
  status: ('A' for Active; 'I' for Inactive)
    1  A    between atoms: O_2  and  C_18
    2  A    between atoms: O_2  and  C_46
    3  A    between atoms: C_3  and  N_23
    4  A    between atoms: C_4  and  C_9
    5  A    between atoms: C_4  and  C_38
    6  A    between atoms: C_5  and  C_18
    7  A    between atoms: C_5  and  N_33
    8  A    between atoms: C_7  and  N_23
    9  A    between atoms: C_9  and  C_17
   10  A    between atoms: C_11  and  C_36
   11  A    between atoms: C_11  and  C_40
   12  A    between atoms: C_14  and  O_59
   13  A    between atoms: C_15  and  C_25
   14  A    between atoms: C_16  and  C_28
   15  A    between atoms: C_21  and  C_60
   16  A    between atoms: C_28  and  C_45
   17  A    between atoms: C_30  and  C_31
   18  A    between atoms: C_31  and  N_33
   19  A    between atoms: C_38  and  C_60
   20  A    between atoms: C_39  and  O_59
   21  A    between atoms: C_39  and  C_60
   22  A    between atoms: C_43  and  C_45
   23  A    between atoms: C_56  and  N_58
                            x       y       z     vdW  Elec       q    Type
                         _______ _______ _______ _____ _____    ______ ____

>  <TORSDO>
F 23

$$$$
=
 OpenBabel10232409203D

 60 66  0  0  1  0  0  0  0  0999 V2000
  188.8970  176.6140  144.3020 C   0  0  1  0  0  3  0  0  0  0  0  0
  187.8390  177.6650  143.9460 C   0  0  1  0  0  0  0  0  0  0  0  0
  187.5080  176.1940  143.8170 C   0  0  0  0  0  2  0  0  0  0  0  0
  189.8490  176.5560  143.2630 O   0  0  0  0  0  0  0  0  0  0  0  0
  191.1340  176.7260  143.8050 C   0  0  0  0  0  0  0  0  0  0  0  0
  191.7790  175.3710  144.0470 C   0  0  0  0  0  2  0  0  0  0  0  0
  191.3490  176.2320  145.2260 C   0  0  0  0  0  2  0  0  0  0  0  0
  192.0670  177.7920  143.1910 C   0  0  2  0  0  3  0  0  0  0  0  0
  190.9640  179.6910  144.1490 O   0  0  0  0  0  1  0  0  0  0  0  0
  191.2960  179.0830  142.9400 C   0  0  0  0  0  2  0  0  0  0  0  0
  192.7320  177.3150  141.8950 C   0  0  0  0  0  2  0  0  0  0  0  0
  191.8970  177.6520  140.6760 C   0  0  0  0  0  2  0  0  0  0  0  0
  192.6570  177.2380  139.4340 C   0  0  0  0  0  2  0  0  0  0  0  0
  192.1850  175.7950  137.4450 C   0  0  0  0  0  0  0  0  0  0  0  0
  191.7770  176.3960  138.5680 C   0  0  0  0  0  3  0  0  0  0  0  0
  189.6860  172.7290  135.8640 C   0  0  1  0  0  3  0  0  0  0  0  0
  191.7830  174.0950  135.6230 C   0  0  0  0  0  2  0  0  0  0  0  0
  188.4690  172.2250  135.1160 C   0  0  0  0  0  1  0  0  0  0  0  0
  190.3920  174.2260  137.6070 O   0  0  0  0  0  0  0  0  0  0  0  0
  190.6680  173.3690  134.8790 C   0  0  0  0  0  2  0  0  0  0  0  0
  191.1610  174.9870  136.7030 C   0  0  1  0  0  3  0  0  0  0  0  0
  189.2650  173.7720  136.9000 C   0  0  0  0  0  2  0  0  0  0  0  0
  194.4960  175.1910  137.5380 O   0  0  0  0  0  0  0  0  0  0  0  0
  193.5920  175.8610  136.9650 C   0  0  0  0  0  0  0  0  0  0  0  0
  193.9250  176.6920  135.8460 N   0  0  0  0  0  2  0  0  0  0  0  0
  195.3530  178.0250  134.5760 O   0  0  0  0  0  1  0  0  0  0  0  0
  195.3060  176.9470  135.4620 C   0  0  0  0  0  2  0  0  0  0  0  0
  187.2340  178.4020  145.1310 C   0  0  0  0  0  2  0  0  0  0  0  0
  185.9650  177.7940  145.5020 N   0  0  0  0  0  2  0  0  0  0  0  0
  185.0730  178.8940  145.8140 C   0  0  0  0  0  2  0  0  0  0  0  0
  182.7860  178.7860  144.8310 O   0  0  0  0  0  1  0  0  0  0  0  0
  184.1290  179.1150  144.6870 C   0  0  0  0  0  0  0  0  0  0  0  0
  184.5470  179.5910  143.6000 O   0  0  0  0  0  0  0  0  0  0  0  0
  188.1340  178.4240  142.7600 O   0  0  0  0  0  0  0  0  0  0  0  0
  188.6060  177.2910  138.0470 O   0  0  0  0  0  0  0  0  0  0  0  0
  185.3780  177.8300  136.6420 C   0  0  0  0  0  0  0  0  0  0  0  0
  187.7180  177.3450  137.0790 C   0  0  0  0  0  0  0  0  0  0  0  0
  187.9640  177.5960  139.1520 C   0  0  0  0  0  0  0  0  0  0  0  0
  187.9710  177.1340  135.7660 N   0  0  0  0  0  0  0  0  0  0  0  0
  186.4560  177.6720  137.5400 C   0  0  0  0  0  0  0  0  0  0  0  0
  186.6190  177.8070  138.9070 C   0  0  0  0  0  0  0  0  0  0  0  0
  187.6530  178.1540  141.4690 C   0  0  0  0  0  0  0  0  0  0  0  0
  186.9780  177.3230  134.8570 C   0  0  0  0  0  3  0  0  0  0  0  0
  185.7500  178.1750  139.9270 C   0  0  0  0  0  3  0  0  0  0  0  0
  185.6820  177.6760  135.2730 C   0  0  0  0  0  3  0  0  0  0  0  0
  188.5140  177.7610  140.4220 C   0  0  0  0  0  3  0  0  0  0  0  0
  186.2770  178.3310  141.2190 C   0  0  0  0  0  3  0  0  0  0  0  0
  182.0270  178.5980  138.1440 C   0  0  0  0  0  0  0  0  0  0  0  0
  183.4620  179.0000  138.0610 C   0  0  0  0  0  2  0  0  0  0  0  0
  181.8230  177.5830  137.3020 C   0  0  0  0  0  0  0  0  0  0  0  0
  183.9580  178.0350  137.0290 C   0  0  0  0  0  0  0  0  0  0  0  0
  183.0230  177.2400  136.6190 N   0  0  0  0  0  0  0  0  0  0  0  0
  181.0720  179.1930  139.0430 N   0  0  0  0  0  0  0  0  0  0  0  0
  181.1800  178.9400  140.4760 C   0  0  0  0  0  1  0  0  0  0  0  0
  180.0510  180.1310  138.5950 C   0  0  0  0  0  2  0  0  0  0  0  0
  180.5930  181.5490  138.6330 C   0  0  0  0  0  1  0  0  0  0  0  0
  180.5850  176.7480  137.1850 C   0  0  0  0  0  2  0  0  0  0  0  0
  180.8810  175.2890  137.5300 C   0  0  0  0  0  2  0  0  0  0  0  0
  180.9970  175.1030  139.0060 C   0  0  0  0  0  3  0  0  0  0  0  0
  180.0430  175.4520  139.7870 N   0  0  0  0  0  2  0  0  0  0  0  0
  1  4  1  6  0  0  0
  2  1  1  0  0  0  0
  2 28  1  1  0  0  0
  3  2  1  0  0  0  0
  3  1  1  0  0  0  0
  4  5  1  0  0  0  0
  5  6  1  0  0  0  0
  5  7  1  0  0  0  0
  6  7  1  0  0  0  0
  8 11  1  6  0  0  0
  8  5  1  0  0  0  0
 10  8  1  0  0  0  0
 10  9  1  0  0  0  0
 12 11  1  0  0  0  0
 13 12  1  0  0  0  0
 14 15  2  0  0  0  0
 15 13  1  0  0  0  0
 16 18  1  6  0  0  0
 16 22  1  0  0  0  0
 17 21  1  0  0  0  0
 20 17  1  0  0  0  0
 20 16  1  0  0  0  0
 21 14  1  1  0  0  0
 21 19  1  0  0  0  0
 22 19  1  0  0  0  0
 24 14  1  0  0  0  0
 24 23  2  0  0  0  0
 25 24  1  0  0  0  0
 26 27  1  0  0  0  0
 27 25  1  0  0  0  0
 28 29  1  0  0  0  0
 29 30  1  0  0  0  0
 32 31  1  0  0  0  0
 32 30  1  0  0  0  0
 33 32  2  0  0  0  0
 34  2  1  0  0  0  0
 35 38  1  0  0  0  0
 36 51  1  0  0  0  0
 36 40  2  0  0  0  0
 37 40  1  0  0  0  0
 37 35  1  0  0  0  0
 38 46  1  0  0  0  0
 39 37  2  0  0  0  0
 40 41  1  0  0  0  0
 41 38  2  0  0  0  0
 41 44  1  0  0  0  0
 42 34  1  0  0  0  0
 43 45  2  0  0  0  0
 43 39  1  0  0  0  0
 44 47  2  0  0  0  0
 45 36  1  0  0  0  0
 46 42  2  0  0  0  0
 47 42  1  0  0  0  0
 48 53  1  0  0  0  0
 49 48  1  0  0  0  0
 50 48  2  0  0  0  0
 51 49  1  0  0  0  0
 52 51  2  0  0  0  0
 52 50  1  0  0  0  0
 53 54  1  0  0  0  0
 55 56  1  0  0  0  0
 55 53  1  0  0  0  0
 57 50  1  0  0  0  0
 57 58  1  0  0  0  0
 58 59  1  0  0  0  0
 59 60  2  0  0  0  0
M  END
>  <MODEL>
6

>  <REMARK>
 VINA RESULT:      -5.0      2.620      9.157
  Name = 
  23 active torsions:
  status: ('A' for Active; 'I' for Inactive)
    1  A    between atoms: O_2  and  C_18
    2  A    between atoms: O_2  and  C_46
    3  A    between atoms: C_3  and  N_23
    4  A    between atoms: C_4  and  C_9
    5  A    between atoms: C_4  and  C_38
    6  A    between atoms: C_5  and  C_18
    7  A    between atoms: C_5  and  N_33
    8  A    between atoms: C_7  and  N_23
    9  A    between atoms: C_9  and  C_17
   10  A    between atoms: C_11  and  C_36
   11  A    between atoms: C_11  and  C_40
   12  A    between atoms: C_14  and  O_59
   13  A    between atoms: C_15  and  C_25
   14  A    between atoms: C_16  and  C_28
   15  A    between atoms: C_21  and  C_60
   16  A    between atoms: C_28  and  C_45
   17  A    between atoms: C_30  and  C_31
   18  A    between atoms: C_31  and  N_33
   19  A    between atoms: C_38  and  C_60
   20  A    between atoms: C_39  and  O_59
   21  A    between atoms: C_39  and  C_60
   22  A    between atoms: C_43  and  C_45
   23  A    between atoms: C_56  and  N_58
                            x       y       z     vdW  Elec       q    Type
                         _______ _______ _______ _____ _____    ______ ____

>  <TORSDO>
F 23

$$$$
=
 OpenBabel10232409203D

 60 66  0  0  1  0  0  0  0  0999 V2000
  188.3770  177.6950  144.2960 C   0  0  1  0  0  3  0  0  0  0  0  0
  186.8850  177.9060  144.0150 C   0  0  1  0  0  0  0  0  0  0  0  0
  187.5220  176.5660  143.7160 C   0  0  0  0  0  2  0  0  0  0  0  0
  189.1250  178.3460  143.2940 O   0  0  0  0  0  0  0  0  0  0  0  0
  190.4630  177.9230  143.3700 C   0  0  0  0  0  0  0  0  0  0  0  0
  190.9290  177.9310  144.8170 C   0  0  0  0  0  2  0  0  0  0  0  0
  191.4810  178.9530  143.8340 C   0  0  0  0  0  2  0  0  0  0  0  0
  190.9050  176.6920  142.5490 C   0  0  2  0  0  3  0  0  0  0  0  0
  191.6970  175.2380  144.2820 O   0  0  0  0  0  1  0  0  0  0  0  0
  192.1080  176.0260  143.2080 C   0  0  0  0  0  2  0  0  0  0  0  0
  191.2290  177.0420  141.0930 C   0  0  0  0  0  2  0  0  0  0  0  0
  192.6930  177.3860  140.9070 C   0  0  0  0  0  2  0  0  0  0  0  0
  193.0010  177.4300  139.4270 C   0  0  0  0  0  2  0  0  0  0  0  0
  192.2970  175.8180  137.6470 C   0  0  0  0  0  0  0  0  0  0  0  0
  191.9970  176.6080  138.6840 C   0  0  0  0  0  3  0  0  0  0  0  0
  188.7970  174.6110  135.5410 C   0  0  1  0  0  3  0  0  0  0  0  0
  189.8210  175.3370  137.7190 C   0  0  0  0  0  2  0  0  0  0  0  0
  187.8850  173.5800  134.9080 C   0  0  0  0  0  1  0  0  0  0  0  0
  191.0790  175.3570  135.6450 O   0  0  0  0  0  0  0  0  0  0  0  0
  188.7400  174.4820  137.0650 C   0  0  0  0  0  2  0  0  0  0  0  0
  191.1580  175.0660  137.0220 C   0  0  1  0  0  3  0  0  0  0  0  0
  190.2360  174.3890  135.0720 C   0  0  0  0  0  2  0  0  0  0  0  0
  194.1860  176.4460  136.3240 O   0  0  0  0  0  0  0  0  0  0  0  0
  193.6890  175.6330  137.1530 C   0  0  0  0  0  0  0  0  0  0  0  0
  194.4700  174.5260  137.6190 N   0  0  0  0  0  2  0  0  0  0  0  0
  195.5880  173.9420  135.6590 O   0  0  0  0  0  1  0  0  0  0  0  0
  195.7550  174.1880  137.0230 C   0  0  0  0  0  2  0  0  0  0  0  0
  185.9990  177.9820  145.2500 C   0  0  0  0  0  2  0  0  0  0  0  0
  186.6040  177.2390  146.3450 N   0  0  0  0  0  2  0  0  0  0  0  0
  186.9240  178.2210  147.3630 C   0  0  0  0  0  2  0  0  0  0  0  0
  188.2330  176.3200  148.3000 O   0  0  0  0  0  0  0  0  0  0  0  0
  187.9690  177.6850  148.2730 C   0  0  0  0  0  0  0  0  0  0  0  0
  188.6100  178.4640  149.0250 O   0  0  0  0  0  1  0  0  0  0  0  0
  186.6080  178.8080  142.9300 O   0  0  0  0  0  0  0  0  0  0  0  0
  188.6390  178.3880  138.5240 O   0  0  0  0  0  0  0  0  0  0  0  0
  185.9290  177.6860  136.3230 C   0  0  0  0  0  0  0  0  0  0  0  0
  188.0740  178.1610  137.3590 C   0  0  0  0  0  0  0  0  0  0  0  0
  187.6810  178.3060  139.4190 C   0  0  0  0  0  0  0  0  0  0  0  0
  188.7030  178.1890  136.1600 N   0  0  0  0  0  0  0  0  0  0  0  0
  186.7200  177.9030  137.4720 C   0  0  0  0  0  0  0  0  0  0  0  0
  186.4740  177.9710  138.8320 C   0  0  0  0  0  0  0  0  0  0  0  0
  186.6130  178.4820  141.5650 C   0  0  0  0  0  0  0  0  0  0  0  0
  187.9750  178.0360  135.0220 C   0  0  0  0  0  3  0  0  0  0  0  0
  185.3120  177.8610  139.5850 C   0  0  0  0  0  3  0  0  0  0  0  0
  186.5910  177.7920  135.0820 C   0  0  0  0  0  3  0  0  0  0  0  0
  187.7850  178.5680  140.7840 C   0  0  0  0  0  3  0  0  0  0  0  0
  185.3940  178.1030  140.9650 C   0  0  0  0  0  3  0  0  0  0  0  0
  182.2480  177.0830  136.7330 C   0  0  0  0  0  0  0  0  0  0  0  0
  183.3390  178.1020  136.7420 C   0  0  0  0  0  2  0  0  0  0  0  0
  182.7720  175.9070  136.3820 C   0  0  0  0  0  0  0  0  0  0  0  0
  184.5050  177.2590  136.3260 C   0  0  0  0  0  0  0  0  0  0  0  0
  184.1680  176.0240  136.1350 N   0  0  0  0  0  0  0  0  0  0  0  0
  180.8840  177.3560  137.1070 N   0  0  0  0  0  0  0  0  0  0  0  0
  180.0060  178.0430  136.1670 C   0  0  0  0  0  1  0  0  0  0  0  0
  180.3030  176.8800  138.3550 C   0  0  0  0  0  2  0  0  0  0  0  0
  181.1050  177.3990  139.5360 C   0  0  0  0  0  1  0  0  0  0  0  0
  182.0890  174.5740  136.4150 C   0  0  0  0  0  2  0  0  0  0  0  0
  182.9460  173.5430  137.1490 C   0  0  0  0  0  2  0  0  0  0  0  0
  183.2380  172.3720  136.2720 C   0  0  0  0  0  3  0  0  0  0  0  0
  183.5470  171.2360  136.7770 N   0  0  0  0  0  2  0  0  0  0  0  0
  1  4  1  6  0  0  0
  2  1  1  0  0  0  0
  2 28  1  1  0  0  0
  3  2  1  0  0  0  0
  3  1  1  0  0  0  0
  4  5  1  0  0  0  0
  5  7  1  0  0  0  0
  5  6  1  0  0  0  0
  7  6  1  0  0  0  0
  8 11  1  6  0  0  0
  8 10  1  0  0  0  0
  8  5  1  0  0  0  0
 10  9  1  0  0  0  0
 12 11  1  0  0  0  0
 13 12  1  0  0  0  0
 14 15  2  0  0  0  0
 15 13  1  0  0  0  0
 16 18  1  6  0  0  0
 16 20  1  0  0  0  0
 19 21  1  0  0  0  0
 20 17  1  0  0  0  0
 21 14  1  1  0  0  0
 21 17  1  0  0  0  0
 22 16  1  0  0  0  0
 22 19  1  0  0  0  0
 23 24  2  0  0  0  0
 24 25  1  0  0  0  0
 24 14  1  0  0  0  0
 26 27  1  0  0  0  0
 27 25  1  0  0  0  0
 28 29  1  0  0  0  0
 29 30  1  0  0  0  0
 30 32  1  0  0  0  0
 32 31  2  0  0  0  0
 32 33  1  0  0  0  0
 34  2  1  0  0  0  0
 35 38  1  0  0  0  0
 36 51  1  0  0  0  0
 36 40  2  0  0  0  0
 37 40  1  0  0  0  0
 37 35  1  0  0  0  0
 38 46  1  0  0  0  0
 39 37  2  0  0  0  0
 40 41  1  0  0  0  0
 41 38  2  0  0  0  0
 41 44  1  0  0  0  0
 42 34  1  0  0  0  0
 43 45  2  0  0  0  0
 43 39  1  0  0  0  0
 44 47  2  0  0  0  0
 45 36  1  0  0  0  0
 46 42  2  0  0  0  0
 47 42  1  0  0  0  0
 48 49  1  0  0  0  0
 48 53  1  0  0  0  0
 50 57  1  0  0  0  0
 50 48  2  0  0  0  0
 51 49  1  0  0  0  0
 52 51  2  0  0  0  0
 52 50  1  0  0  0  0
 53 55  1  0  0  0  0
 54 53  1  0  0  0  0
 55 56  1  0  0  0  0
 57 58  1  0  0  0  0
 59 60  2  0  0  0  0
 59 58  1  0  0  0  0
M  END
>  <MODEL>
7

>  <REMARK>
 VINA RESULT:      -5.0      2.677      8.589
  Name = 
  23 active torsions:
  status: ('A' for Active; 'I' for Inactive)
    1  A    between atoms: O_2  and  C_18
    2  A    between atoms: O_2  and  C_46
    3  A    between atoms: C_3  and  N_23
    4  A    between atoms: C_4  and  C_9
    5  A    between atoms: C_4  and  C_38
    6  A    between atoms: C_5  and  C_18
    7  A    between atoms: C_5  and  N_33
    8  A    between atoms: C_7  and  N_23
    9  A    between atoms: C_9  and  C_17
   10  A    between atoms: C_11  and  C_36
   11  A    between atoms: C_11  and  C_40
   12  A    between atoms: C_14  and  O_59
   13  A    between atoms: C_15  and  C_25
   14  A    between atoms: C_16  and  C_28
   15  A    between atoms: C_21  and  C_60
   16  A    between atoms: C_28  and  C_45
   17  A    between atoms: C_30  and  C_31
   18  A    between atoms: C_31  and  N_33
   19  A    between atoms: C_38  and  C_60
   20  A    between atoms: C_39  and  O_59
   21  A    between atoms: C_39  and  C_60
   22  A    between atoms: C_43  and  C_45
   23  A    between atoms: C_56  and  N_58
                            x       y       z     vdW  Elec       q    Type
                         _______ _______ _______ _____ _____    ______ ____

>  <TORSDO>
F 23

$$$$
=
 OpenBabel10232409203D

 60 66  0  0  1  0  0  0  0  0999 V2000
  188.4530  178.2360  143.9200 C   0  0  1  0  0  3  0  0  0  0  0  0
  189.7350  177.7670  143.2240 C   0  0  1  0  0  0  0  0  0  0  0  0
  189.1600  179.1290  142.8980 C   0  0  0  0  0  2  0  0  0  0  0  0
  187.3530  177.5650  143.3480 O   0  0  0  0  0  0  0  0  0  0  0  0
  186.3130  178.4850  143.1330 C   0  0  0  0  0  0  0  0  0  0  0  0
  185.3860  177.9740  142.0400 C   0  0  0  0  0  2  0  0  0  0  0  0
  186.2810  179.1780  141.7800 C   0  0  0  0  0  2  0  0  0  0  0  0
  185.6000  179.1060  144.3540 C   0  0  2  0  0  3  0  0  0  0  0  0
  186.1440  178.0760  146.4480 O   0  0  0  0  0  1  0  0  0  0  0  0
  185.2600  178.0220  145.3710 C   0  0  0  0  0  2  0  0  0  0  0  0
  184.3350  179.8790  143.9660 C   0  0  0  0  0  2  0  0  0  0  0  0
  183.0780  179.0790  144.2420 C   0  0  0  0  0  2  0  0  0  0  0  0
  182.0910  179.3190  143.1210 C   0  0  0  0  0  2  0  0  0  0  0  0
  181.5800  178.1770  140.9530 C   0  0  0  0  0  0  0  0  0  0  0  0
  182.1100  178.1560  142.1810 C   0  0  0  0  0  3  0  0  0  0  0  0
  181.7600  175.2280  137.8860 C   0  0  1  0  0  3  0  0  0  0  0  0
  180.3520  176.4720  139.5560 C   0  0  0  0  0  2  0  0  0  0  0  0
  182.0790  173.8470  137.3510 C   0  0  0  0  0  1  0  0  0  0  0  0
  182.6680  177.0640  139.1420 O   0  0  0  0  0  0  0  0  0  0  0  0
  180.5490  175.1510  138.8190 C   0  0  0  0  0  2  0  0  0  0  0  0
  181.6930  176.9140  140.1500 C   0  0  1  0  0  3  0  0  0  0  0  0
  182.9580  175.7750  138.6620 C   0  0  0  0  0  2  0  0  0  0  0  0
  179.9860  179.9580  140.9520 O   0  0  0  0  0  0  0  0  0  0  0  0
  180.9550  179.3940  140.3690 C   0  0  0  0  0  0  0  0  0  0  0  0
  181.4510  179.9290  139.1360 N   0  0  0  0  0  2  0  0  0  0  0  0
  181.4480  181.3010  137.2520 O   0  0  0  0  0  1  0  0  0  0  0  0
  180.7550  180.9910  138.4230 C   0  0  0  0  0  2  0  0  0  0  0  0
  190.9760  177.7410  144.1030 C   0  0  0  0  0  2  0  0  0  0  0  0
  190.8960  176.6360  145.0460 N   0  0  0  0  0  2  0  0  0  0  0  0
  191.9830  176.8350  145.9850 C   0  0  0  0  0  2  0  0  0  0  0  0
  190.3150  176.7040  147.8310 O   0  0  0  0  0  0  0  0  0  0  0  0
  191.5730  176.3770  147.3390 C   0  0  0  0  0  0  0  0  0  0  0  0
  192.3670  175.7000  148.0420 O   0  0  0  0  0  1  0  0  0  0  0  0
  189.5440  176.6850  142.2960 O   0  0  0  0  0  0  0  0  0  0  0  0
  187.8630  177.7750  137.8560 O   0  0  0  0  0  0  0  0  0  0  0  0
  190.2020  176.3170  135.6020 C   0  0  0  0  0  0  0  0  0  0  0  0
  188.3410  177.4480  136.6760 C   0  0  0  0  0  0  0  0  0  0  0  0
  188.7310  177.3320  138.7390 C   0  0  0  0  0  0  0  0  0  0  0  0
  187.7350  177.6850  135.4880 N   0  0  0  0  0  0  0  0  0  0  0  0
  189.5560  176.7930  136.7630 C   0  0  0  0  0  0  0  0  0  0  0  0
  189.8200  176.7470  138.1200 C   0  0  0  0  0  0  0  0  0  0  0  0
  189.6280  176.7740  140.8970 C   0  0  0  0  0  0  0  0  0  0  0  0
  188.2930  177.2010  134.3470 C   0  0  0  0  0  3  0  0  0  0  0  0
  190.8500  176.1790  138.8600 C   0  0  0  0  0  3  0  0  0  0  0  0
  189.5180  176.5110  134.3840 C   0  0  0  0  0  3  0  0  0  0  0  0
  188.6030  177.3630  140.1260 C   0  0  0  0  0  3  0  0  0  0  0  0
  190.7530  176.2120  140.2600 C   0  0  0  0  0  3  0  0  0  0  0  0
  193.3860  174.3360  135.7420 C   0  0  0  0  0  0  0  0  0  0  0  0
  191.9000  174.2740  135.6150 C   0  0  0  0  0  3  0  0  0  0  0  0
  193.7550  175.6180  135.7590 C   0  0  1  0  0  3  0  0  0  0  0  0
  191.5690  175.7320  135.5560 C   0  0  0  0  0  0  0  0  0  0  0  0
  192.6250  176.4750  135.6460 N   0  0  0  0  0  0  0  0  0  0  0  0
  194.2340  173.1800  135.8830 N   0  0  0  0  0  0  0  0  0  0  0  0
  194.1960  172.1330  134.8680 C   0  0  0  0  0  1  0  0  0  0  0  0
  195.2160  173.0530  136.9520 C   0  0  0  0  0  2  0  0  0  0  0  0
  196.6110  172.9170  136.3650 C   0  0  0  0  0  1  0  0  0  0  0  0
  195.1230  176.1550  136.0510 C   0  0  0  0  0  2  0  0  0  0  0  0
  195.9660  176.2140  134.7780 C   0  0  0  0  0  2  0  0  0  0  0  0
  196.3080  177.6240  134.4310 C   0  0  0  0  0  3  0  0  0  0  0  0
  195.7850  178.6020  135.0720 N   0  0  0  0  0  2  0  0  0  0  0  0
  1  4  1  6  0  0  0
  2  1  1  0  0  0  0
  2 28  1  1  0  0  0
  3  2  1  0  0  0  0
  3  1  1  0  0  0  0
  5  4  1  0  0  0  0
  5  8  1  0  0  0  0
  6  5  1  0  0  0  0
  7  6  1  0  0  0  0
  7  5  1  0  0  0  0
  8 11  1  6  0  0  0
  8 10  1  0  0  0  0
 10  9  1  0  0  0  0
 11 12  1  0  0  0  0
 13 12  1  0  0  0  0
 14 15  2  0  0  0  0
 15 13  1  0  0  0  0
 16 18  1  1  0  0  0
 16 22  1  0  0  0  0
 16 20  1  0  0  0  0
 17 21  1  0  0  0  0
 19 21  1  0  0  0  0
 20 17  1  0  0  0  0
 21 14  1  6  0  0  0
 22 19  1  0  0  0  0
 24 23  2  0  0  0  0
 24 14  1  0  0  0  0
 25 24  1  0  0  0  0
 26 27  1  0  0  0  0
 27 25  1  0  0  0  0
 28 29  1  0  0  0  0
 29 30  1  0  0  0  0
 30 32  1  0  0  0  0
 32 31  2  0  0  0  0
 32 33  1  0  0  0  0
 34  2  1  0  0  0  0
 35 38  1  0  0  0  0
 36 40  2  0  0  0  0
 37 40  1  0  0  0  0
 37 35  1  0  0  0  0
 38 46  1  0  0  0  0
 39 37  2  0  0  0  0
 40 41  1  0  0  0  0
 41 38  2  0  0  0  0
 41 44  1  0  0  0  0
 42 34  1  0  0  0  0
 43 45  2  0  0  0  0
 43 39  1  0  0  0  0
 44 47  2  0  0  0  0
 45 36  1  0  0  0  0
 46 42  2  0  0  0  0
 47 42  1  0  0  0  0
 48 50  1  0  0  0  0
 48 53  1  0  0  0  0
 49 48  2  0  0  0  0
 50 57  1  1  0  0  0
 51 36  1  0  0  0  0
 51 49  1  0  0  0  0
 51 52  2  0  0  0  0
 52 50  1  0  0  0  0
 53 55  1  0  0  0  0
 54 53  1  0  0  0  0
 56 55  1  0  0  0  0
 58 57  1  0  0  0  0
 59 58  1  0  0  0  0
 59 60  2  0  0  0  0
M  END
>  <MODEL>
8

>  <REMARK>
 VINA RESULT:      -4.9      1.540      2.111
  Name = 
  23 active torsions:
  status: ('A' for Active; 'I' for Inactive)
    1  A    between atoms: O_2  and  C_18
    2  A    between atoms: O_2  and  C_46
    3  A    between atoms: C_3  and  N_23
    4  A    between atoms: C_4  and  C_9
    5  A    between atoms: C_4  and  C_38
    6  A    between atoms: C_5  and  C_18
    7  A    between atoms: C_5  and  N_33
    8  A    between atoms: C_7  and  N_23
    9  A    between atoms: C_9  and  C_17
   10  A    between atoms: C_11  and  C_36
   11  A    between atoms: C_11  and  C_40
   12  A    between atoms: C_14  and  O_59
   13  A    between atoms: C_15  and  C_25
   14  A    between atoms: C_16  and  C_28
   15  A    between atoms: C_21  and  C_60
   16  A    between atoms: C_28  and  C_45
   17  A    between atoms: C_30  and  C_31
   18  A    between atoms: C_31  and  N_33
   19  A    between atoms: C_38  and  C_60
   20  A    between atoms: C_39  and  O_59
   21  A    between atoms: C_39  and  C_60
   22  A    between atoms: C_43  and  C_45
   23  A    between atoms: C_56  and  N_58
                            x       y       z     vdW  Elec       q    Type
                         _______ _______ _______ _____ _____    ______ ____

>  <TORSDO>
F 23

$$$$
=
 OpenBabel10232409203D

 60 66  0  0  1  0  0  0  0  0999 V2000
  187.7680  177.9300  144.6490 C   0  0  1  0  0  3  0  0  0  0  0  0
  186.3950  178.1520  144.0060 C   0  0  1  0  0  0  0  0  0  0  0  0
  187.0670  176.8010  143.8910 C   0  0  0  0  0  2  0  0  0  0  0  0
  188.7500  178.5570  143.8540 O   0  0  0  0  0  0  0  0  0  0  0  0
  189.9530  177.8370  143.9540 C   0  0  0  0  0  0  0  0  0  0  0  0
  190.4890  177.9170  145.3750 C   0  0  0  0  0  2  0  0  0  0  0  0
  191.2090  178.6410  144.2470 C   0  0  0  0  0  2  0  0  0  0  0  0
  190.0440  176.4420  143.3010 C   0  0  2  0  0  3  0  0  0  0  0  0
  191.2690  174.3830  143.3620 O   0  0  0  0  0  1  0  0  0  0  0  0
  191.0520  175.5760  144.0490 C   0  0  0  0  0  2  0  0  0  0  0  0
  190.4100  176.5110  141.8140 C   0  0  0  0  0  2  0  0  0  0  0  0
  191.8440  176.9560  141.6060 C   0  0  0  0  0  2  0  0  0  0  0  0
  192.0090  177.4170  140.1750 C   0  0  0  0  0  2  0  0  0  0  0  0
  191.7020  175.9380  138.1810 C   0  0  0  0  0  0  0  0  0  0  0  0
  191.2090  176.5360  139.2710 C   0  0  0  0  0  3  0  0  0  0  0  0
  188.7910  174.4100  135.4710 C   0  0  1  0  0  3  0  0  0  0  0  0
  189.2830  175.3600  137.7470 C   0  0  0  0  0  2  0  0  0  0  0  0
  188.0680  173.2920  134.7490 C   0  0  0  0  0  1  0  0  0  0  0  0
  190.9740  175.2590  136.0090 O   0  0  0  0  0  0  0  0  0  0  0  0
  188.3970  174.4080  136.9510 C   0  0  0  0  0  2  0  0  0  0  0  0
  190.7490  175.0880  137.3910 C   0  0  1  0  0  3  0  0  0  0  0  0
  190.3020  174.2110  135.3550 C   0  0  0  0  0  2  0  0  0  0  0  0
  193.5650  177.1060  137.2450 O   0  0  0  0  0  0  0  0  0  0  0  0
  193.1300  176.0480  137.7800 C   0  0  0  0  0  0  0  0  0  0  0  0
  194.0190  174.9460  137.9980 N   0  0  0  0  0  2  0  0  0  0  0  0
  195.4420  173.9760  136.4280 O   0  0  0  0  0  1  0  0  0  0  0  0
  195.3670  174.9250  137.4490 C   0  0  0  0  0  2  0  0  0  0  0  0
  185.2330  178.2580  144.9820 C   0  0  0  0  0  2  0  0  0  0  0  0
  184.2470  179.2060  144.4840 N   0  0  0  0  0  2  0  0  0  0  0  0
  183.5800  178.5430  143.3810 C   0  0  0  0  0  2  0  0  0  0  0  0
  181.3400  178.7370  142.3070 O   0  0  0  0  0  0  0  0  0  0  0  0
  182.1150  178.7800  143.4600 C   0  0  0  0  0  0  0  0  0  0  0  0
  181.5770  179.0270  144.5700 O   0  0  0  0  0  1  0  0  0  0  0  0
  186.4070  179.0410  142.8750 O   0  0  0  0  0  0  0  0  0  0  0  0
  188.5870  178.6570  138.5360 O   0  0  0  0  0  0  0  0  0  0  0  0
  186.0290  177.5590  136.3140 C   0  0  0  0  0  0  0  0  0  0  0  0
  188.0800  178.3160  137.3710 C   0  0  0  0  0  0  0  0  0  0  0  0
  187.6200  178.5070  139.4140 C   0  0  0  0  0  0  0  0  0  0  0  0
  188.7330  178.3620  136.1860 N   0  0  0  0  0  0  0  0  0  0  0  0
  186.7610  177.9140  137.4680 C   0  0  0  0  0  0  0  0  0  0  0  0
  186.4740  178.0140  138.8180 C   0  0  0  0  0  0  0  0  0  0  0  0
  186.4840  178.6570  141.5270 C   0  0  0  0  0  0  0  0  0  0  0  0
  188.0570  178.0780  135.0410 C   0  0  0  0  0  3  0  0  0  0  0  0
  185.3110  177.8070  139.5510 C   0  0  0  0  0  3  0  0  0  0  0  0
  186.7070  177.6830  135.0840 C   0  0  0  0  0  3  0  0  0  0  0  0
  187.6590  178.8390  140.7670 C   0  0  0  0  0  3  0  0  0  0  0  0
  185.3310  178.1180  140.9200 C   0  0  0  0  0  3  0  0  0  0  0  0
  182.4100  176.6100  136.6010 C   0  0  0  0  0  0  0  0  0  0  0  0
  183.3840  177.7350  136.4930 C   0  0  0  0  0  3  0  0  0  0  0  0
  183.0800  175.4600  136.5010 C   0  0  1  0  0  3  0  0  0  0  0  0
  184.6610  176.9760  136.3080 C   0  0  0  0  0  0  0  0  0  0  0  0
  184.4720  175.6960  136.3230 N   0  0  0  0  0  0  0  0  0  0  0  0
  180.9990  176.7820  136.8360 N   0  0  0  0  0  0  0  0  0  0  0  0
  180.0400  176.0730  135.9970 C   0  0  0  0  0  1  0  0  0  0  0  0
  180.4790  177.5600  137.9520 C   0  0  0  0  0  2  0  0  0  0  0  0
  180.8010  176.8690  139.2660 C   0  0  0  0  0  1  0  0  0  0  0  0
  182.5390  174.0830  136.7320 C   0  0  0  0  0  2  0  0  0  0  0  0
  182.8020  173.1860  135.5230 C   0  0  0  0  0  2  0  0  0  0  0  0
  182.4810  171.7630  135.8360 C   0  0  0  0  0  3  0  0  0  0  0  0
  183.0470  171.1630  136.8160 N   0  0  0  0  0  2  0  0  0  0  0  0
  1  4  1  6  0  0  0
  2  1  1  0  0  0  0
  2 28  1  1  0  0  0
  3  2  1  0  0  0  0
  3  1  1  0  0  0  0
  4  5  1  0  0  0  0
  5  7  1  0  0  0  0
  5  6  1  0  0  0  0
  7  6  1  0  0  0  0
  8 11  1  6  0  0  0
  8  5  1  0  0  0  0
  8 10  1  0  0  0  0
  9 10  1  0  0  0  0
 12 11  1  0  0  0  0
 13 12  1  0  0  0  0
 14 15  2  0  0  0  0
 15 13  1  0  0  0  0
 16 18  1  6  0  0  0
 16 20  1  0  0  0  0
 19 21  1  0  0  0  0
 20 17  1  0  0  0  0
 21 17  1  0  0  0  0
 21 14  1  1  0  0  0
 22 16  1  0  0  0  0
 22 19  1  0  0  0  0
 23 24  2  0  0  0  0
 24 25  1  0  0  0  0
 24 14  1  0  0  0  0
 26 27  1  0  0  0  0
 27 25  1  0  0  0  0
 29 28  1  0  0  0  0
 30 32  1  0  0  0  0
 30 29  1  0  0  0  0
 31 32  2  0  0  0  0
 32 33  1  0  0  0  0
 34  2  1  0  0  0  0
 35 38  1  0  0  0  0
 36 40  2  0  0  0  0
 37 40  1  0  0  0  0
 37 35  1  0  0  0  0
 38 46  1  0  0  0  0
 39 37  2  0  0  0  0
 40 41  1  0  0  0  0
 41 38  2  0  0  0  0
 41 44  1  0  0  0  0
 42 34  1  0  0  0  0
 43 45  2  0  0  0  0
 43 39  1  0  0  0  0
 44 47  2  0  0  0  0
 45 36  1  0  0  0  0
 46 42  2  0  0  0  0
 47 42  1  0  0  0  0
 48 53  1  0  0  0  0
 49 48  2  0  0  0  0
 50 48  1  0  0  0  0
 50 57  1  1  0  0  0
 51 36  1  0  0  0  0
 51 52  2  0  0  0  0
 51 49  1  0  0  0  0
 52 50  1  0  0  0  0
 53 55  1  0  0  0  0
 54 53  1  0  0  0  0
 55 56  1  0  0  0  0
 58 59  1  0  0  0  0
 58 57  1  0  0  0  0
 59 60  2  0  0  0  0
M  END
>  <MODEL>
9

>  <REMARK>
 VINA RESULT:      -4.7      2.670      8.804
  Name = 
  23 active torsions:
  status: ('A' for Active; 'I' for Inactive)
    1  A    between atoms: O_2  and  C_18
    2  A    between atoms: O_2  and  C_46
    3  A    between atoms: C_3  and  N_23
    4  A    between atoms: C_4  and  C_9
    5  A    between atoms: C_4  and  C_38
    6  A    between atoms: C_5  and  C_18
    7  A    between atoms: C_5  and  N_33
    8  A    between atoms: C_7  and  N_23
    9  A    between atoms: C_9  and  C_17
   10  A    between atoms: C_11  and  C_36
   11  A    between atoms: C_11  and  C_40
   12  A    between atoms: C_14  and  O_59
   13  A    between atoms: C_15  and  C_25
   14  A    between atoms: C_16  and  C_28
   15  A    between atoms: C_21  and  C_60
   16  A    between atoms: C_28  and  C_45
   17  A    between atoms: C_30  and  C_31
   18  A    between atoms: C_31  and  N_33
   19  A    between atoms: C_38  and  C_60
   20  A    between atoms: C_39  and  O_59
   21  A    between atoms: C_39  and  C_60
   22  A    between atoms: C_43  and  C_45
   23  A    between atoms: C_56  and  N_58
                            x       y       z     vdW  Elec       q    Type
                         _______ _______ _______ _____ _____    ______ ____

>  <TORSDO>
F 23

$$$$
