=
 OpenBabel10232409133D

 57 62  0  0  1  0  0  0  0  0999 V2000
  189.6130  174.8490  136.1490 C   0  0  1  0  0  3  0  0  0  0  0  0
  189.5540  175.3890  137.5630 C   0  0  1  0  0  3  0  0  0  0  0  0
  190.6600  174.4100  137.1560 C   0  0  2  0  0  3  0  0  0  0  0  0
  195.1070  174.4560  136.0580 C   0  0  0  0  0  0  0  0  0  0  0  0
  192.3620  174.9430  135.4100 C   0  0  1  0  0  3  0  0  0  0  0  0
  192.3380  176.0460  134.3640 C   0  0  0  0  0  2  0  0  0  0  0  0
  194.6430  175.2780  135.1500 N   0  0  0  0  0  0  0  0  0  0  0  0
  194.3770  174.1480  137.3450 C   0  0  0  0  0  3  0  0  0  0  0  0
  193.4280  176.0250  135.3940 C   0  0  2  0  0  3  0  0  0  0  0  0
  192.0080  175.0710  136.8680 C   0  0  2  0  0  3  0  0  0  0  0  0
  193.0880  174.3900  137.6950 C   0  0  0  0  0  3  0  0  0  0  0  0
  196.3290  173.8310  135.7990 O   0  0  0  0  0  0  0  0  0  0  0  0
  196.8280  172.7670  136.5940 C   0  0  0  0  0  1  0  0  0  0  0  0
  186.7570  171.6280  135.6190 C   0  0  0  0  0  1  0  0  0  0  0  0
  186.2910  173.0050  135.6890 N   0  0  0  0  0  0  0  0  0  0  0  0
  187.2290  174.0790  135.8540 C   0  0  0  0  0  0  0  0  0  0  0  0
  188.6240  173.7960  136.0000 N   0  0  0  0  0  2  0  0  0  0  0  0
  186.8260  175.2740  135.8660 O   0  0  0  0  0  0  0  0  0  0  0  0
  184.8800  173.2810  135.4330 C   0  0  0  0  0  2  0  0  0  0  0  0
  183.0210  174.3520  136.6600 C   0  0  1  0  0  3  0  0  0  0  0  0
  184.0240  173.2120  136.7010 C   0  0  1  0  0  0  0  0  0  0  0  0
  183.1360  171.9800  136.6920 C   0  0  0  0  0  2  0  0  0  0  0  0
  184.8920  173.1850  137.9570 C   0  0  0  0  0  1  0  0  0  0  0  0
  181.6850  173.6780  136.8470 C   0  0  0  0  0  2  0  0  0  0  0  0
  181.8130  172.3570  136.3980 O   0  0  0  0  0  0  0  0  0  0  0  0
  184.2650  177.5710  138.1440 C   0  0  0  0  0  3  0  0  0  0  0  0
  182.5420  175.5080  138.8280 C   0  0  0  0  0  3  0  0  0  0  0  0
  183.5920  177.6170  139.3670 C   0  0  0  0  0  3  0  0  0  0  0  0
  184.0770  176.5200  137.3010 N   0  0  0  0  0  0  0  0  0  0  0  0
  182.7230  176.5770  139.7060 C   0  0  0  0  0  3  0  0  0  0  0  0
  183.2420  175.4880  137.6200 C   0  0  0  0  0  0  0  0  0  0  0  0
  189.9930  176.7790  137.5550 N   0  0  0  0  0  2  0  0  0  0  0  0
  189.3660  177.4360  138.6870 C   0  0  1  0  0  3  0  0  0  0  0  0
  187.8810  177.5940  138.4220 C   0  0  0  0  0  1  0  0  0  0  0  0
  189.6080  176.6020  139.9400 C   0  0  0  0  0  2  0  0  0  0  0  0
  190.4310  178.3470  143.0390 O   0  0  0  0  0  0  0  0  0  0  0  0
  190.3820  177.3490  140.9260 N   0  0  0  0  0  0  0  0  0  0  0  0
  189.8700  177.5320  142.2580 C   0  0  0  0  0  0  0  0  0  0  0  0
  188.8450  175.4040  142.5580 O   0  0  0  0  0  1  0  0  0  0  0  0
  188.6610  176.7780  142.7270 C   0  0  1  0  0  3  0  0  0  0  0  0
  187.3190  178.1220  148.4920 Cl  0  0  0  0  0  0  0  0  0  0  0  0
  189.2730  176.9100  145.1580 C   0  0  0  0  0  3  0  0  0  0  0  0
  187.0520  177.5980  144.4770 C   0  0  0  0  0  0  0  0  0  0  0  0
  187.7090  177.7280  146.8180 C   0  0  0  0  0  0  0  0  0  0  0  0
  186.1300  177.7430  143.4920 F   0  0  0  0  0  0  0  0  0  0  0  0
  188.3210  177.0970  144.1510 C   0  0  0  0  0  0  0  0  0  0  0  0
  186.7420  177.9330  145.8160 C   0  0  0  0  0  0  0  0  0  0  0  0
  188.9740  177.2140  146.4860 C   0  0  0  0  0  0  0  0  0  0  0  0
  184.5520  179.0260  145.2970 C   0  0  0  0  0  1  0  0  0  0  0  0
  185.5000  178.4650  146.1960 O   0  0  0  0  0  0  0  0  0  0  0  0
  190.0240  176.9940  147.5270 C   0  0  0  0  0  2  0  0  0  0  0  0
  192.5680  175.9950  148.2170 C   0  0  0  0  0  1  0  0  0  0  0  0
  191.4430  176.1350  146.8210 S   0  0  2  0  0  0  0  0  0  0  0  0
  192.1050  177.1930  145.9490 O   0  0  0  0  0  0  0  0  0  0  0  0
  191.6500  177.9500  140.5140 C   0  0  0  0  0  2  0  0  0  0  0  0
  192.7740  176.9270  140.5610 C   0  0  0  0  0  2  0  0  0  0  0  0
  193.8380  177.3130  139.6520 N   0  0  0  0  0  1  0  0  0  0  0  0
  1 17  1  1  0  0  0
  1  3  1  0  0  0  0
  1  2  1  0  0  0  0
  2 32  1  6  0  0  0
  3 10  1  6  0  0  0
  3  2  1  0  0  0  0
  4  8  1  0  0  0  0
  5  6  1  6  0  0  0
  5 10  1  0  0  0  0
  7  9  1  0  0  0  0
  7  4  2  0  0  0  0
  8 11  2  0  0  0  0
  9  6  1  6  0  0  0
  9  5  1  0  0  0  0
 10 11  1  1  0  0  0
 12  4  1  0  0  0  0
 12 13  1  0  0  0  0
 14 15  1  0  0  0  0
 15 16  1  0  0  0  0
 16 18  2  0  0  0  0
 16 17  1  0  0  0  0
 19 15  1  0  0  0  0
 19 21  1  0  0  0  0
 20 21  1  0  0  0  0
 20 24  1  0  0  0  0
 20 31  1  1  0  0  0
 21 23  1  1  0  0  0
 22 21  1  0  0  0  0
 25 22  1  0  0  0  0
 25 24  1  0  0  0  0
 26 28  1  0  0  0  0
 27 30  1  0  0  0  0
 28 30  2  0  0  0  0
 29 31  1  0  0  0  0
 29 26  2  0  0  0  0
 31 27  2  0  0  0  0
 32 33  1  0  0  0  0
 33 34  1  6  0  0  0
 33 35  1  0  0  0  0
 35 37  1  0  0  0  0
 37 38  1  0  0  0  0
 38 40  1  0  0  0  0
 38 36  2  0  0  0  0
 40 39  1  1  0  0  0
 40 46  1  0  0  0  0
 42 48  1  0  0  0  0
 43 47  2  0  0  0  0
 44 41  1  0  0  0  0
 45 43  1  0  0  0  0
 46 43  1  0  0  0  0
 46 42  2  0  0  0  0
 47 50  1  0  0  0  0
 47 44  1  0  0  0  0
 48 44  2  0  0  0  0
 48 51  1  0  0  0  0
 49 50  1  0  0  0  0
 53 51  1  0  0  0  0
 53 52  1  1  0  0  0
 54 53  2  0  0  0  0
 55 56  1  0  0  0  0
 55 37  1  0  0  0  0
 57 56  1  0  0  0  0
M  END
>  <MODEL>
1

>  <REMARK>
 VINA RESULT:      -7.4      0.000      0.000
  Name = 
  17 active torsions:
  status: ('A' for Active; 'I' for Inactive)
    1  A    between atoms: C_5  and  O_8
    2  A    between atoms: N_7  and  C_11
    3  A    between atoms: C_11  and  C_30
    4  A    between atoms: C_12  and  N_47
    5  A    between atoms: C_12  and  C_55
    6  A    between atoms: C_14  and  C_24
    7  A    between atoms: C_14  and  C_35
    8  A    between atoms: N_16  and  C_44
    9  A    between atoms: N_16  and  C_55
   10  A    between atoms: C_19  and  C_57
   11  A    between atoms: C_22  and  N_41
   12  A    between atoms: C_33  and  C_44
   13  A    between atoms: S_34  and  C_43
   14  A    between atoms: C_38  and  N_47
   15  A    between atoms: C_39  and  O_48
   16  A    between atoms: C_43  and  C_45
   17  A    between atoms: C_50  and  C_52
                            x       y       z     vdW  Elec       q    Type
                         _______ _______ _______ _____ _____    ______ ____

>  <TORSDO>
F 17

$$$$
=
 OpenBabel10232409133D

 57 62  0  0  1  0  0  0  0  0999 V2000
  190.9420  176.0200  138.4110 C   0  0  1  0  0  3  0  0  0  0  0  0
  190.5860  177.0710  137.3800 C   0  0  1  0  0  3  0  0  0  0  0  0
  192.0290  176.5730  137.5090 C   0  0  2  0  0  3  0  0  0  0  0  0
  194.6870  173.3100  135.6980 C   0  0  0  0  0  0  0  0  0  0  0  0
  192.2640  174.1460  136.9730 C   0  0  1  0  0  3  0  0  0  0  0  0
  191.1850  173.1500  136.5800 C   0  0  0  0  0  2  0  0  0  0  0  0
  193.5310  172.6940  135.6820 N   0  0  0  0  0  0  0  0  0  0  0  0
  194.8200  174.8140  135.7650 C   0  0  0  0  0  3  0  0  0  0  0  0
  192.3000  173.4510  135.6240 C   0  0  2  0  0  3  0  0  0  0  0  0
  192.4350  175.5480  136.4490 C   0  0  2  0  0  3  0  0  0  0  0  0
  193.8970  175.7580  136.0820 C   0  0  0  0  0  3  0  0  0  0  0  0
  195.8400  172.5220  135.6660 O   0  0  0  0  0  0  0  0  0  0  0  0
  197.1260  173.0370  135.9700 C   0  0  0  0  0  1  0  0  0  0  0  0
  191.3350  177.7900  142.3520 C   0  0  0  0  0  1  0  0  0  0  0  0
  190.0540  177.8310  141.6630 N   0  0  0  0  0  0  0  0  0  0  0  0
  189.9100  177.2390  140.3630 C   0  0  0  0  0  0  0  0  0  0  0  0
  191.0420  176.6490  139.7170 N   0  0  0  0  0  2  0  0  0  0  0  0
  188.7870  177.2350  139.7910 O   0  0  0  0  0  0  0  0  0  0  0  0
  188.8890  178.3430  142.3810 C   0  0  0  0  0  2  0  0  0  0  0  0
  188.5460  177.9260  144.7930 C   0  0  1  0  0  3  0  0  0  0  0  0
  188.3400  177.3460  143.4050 C   0  0  1  0  0  0  0  0  0  0  0  0
  186.8280  177.2390  143.3040 C   0  0  0  0  0  2  0  0  0  0  0  0
  188.9450  175.9580  143.2080 C   0  0  0  0  0  1  0  0  0  0  0  0
  187.1740  177.8920  145.4170 C   0  0  0  0  0  2  0  0  0  0  0  0
  186.2360  177.9310  144.3770 O   0  0  0  0  0  0  0  0  0  0  0  0
  191.8450  176.5740  145.9760 C   0  0  0  0  0  3  0  0  0  0  0  0
  189.2640  176.8740  146.9470 C   0  0  0  0  0  3  0  0  0  0  0  0
  191.5460  176.1450  147.2720 C   0  0  0  0  0  3  0  0  0  0  0  0
  190.8750  177.1300  145.2010 N   0  0  0  0  0  0  0  0  0  0  0  0
  190.2450  176.3000  147.7570 C   0  0  0  0  0  3  0  0  0  0  0  0
  189.5960  177.2790  145.6530 C   0  0  0  0  0  0  0  0  0  0  0  0
  189.8580  176.4330  136.2900 N   0  0  0  0  0  2  0  0  0  0  0  0
  188.4730  176.8510  136.3930 C   0  0  1  0  0  3  0  0  0  0  0  0
  188.3790  178.3510  136.1880 C   0  0  0  0  0  1  0  0  0  0  0  0
  187.6510  176.1080  135.3450 C   0  0  0  0  0  2  0  0  0  0  0  0
  184.8420  174.5670  137.0970 O   0  0  0  0  0  0  0  0  0  0  0  0
  186.8210  175.0780  135.9610 N   0  0  0  0  0  0  0  0  0  0  0  0
  185.4800  175.3850  136.3790 C   0  0  0  0  0  0  0  0  0  0  0  0
  184.1470  176.5400  134.7780 O   0  0  0  0  0  1  0  0  0  0  0  0
  184.8310  176.6810  135.9880 C   0  0  1  0  0  3  0  0  0  0  0  0
  181.1250  178.7010  140.3500 Cl  0  0  0  0  0  0  0  0  0  0  0  0
  182.5520  176.8910  137.0190 C   0  0  0  0  0  3  0  0  0  0  0  0
  184.4290  177.9660  138.1120 C   0  0  0  0  0  0  0  0  0  0  0  0
  182.2000  178.1160  139.0800 C   0  0  0  0  0  0  0  0  0  0  0  0
  185.7500  178.2760  138.1160 F   0  0  0  0  0  0  0  0  0  0  0  0
  183.9160  177.1930  137.0590 C   0  0  0  0  0  0  0  0  0  0  0  0
  183.5720  178.4220  139.1410 C   0  0  0  0  0  0  0  0  0  0  0  0
  181.6910  177.3530  138.0160 C   0  0  0  0  0  0  0  0  0  0  0  0
  185.3390  179.0740  140.7880 C   0  0  0  0  0  1  0  0  0  0  0  0
  184.0340  179.1720  140.2340 O   0  0  0  0  0  0  0  0  0  0  0  0
  180.2400  177.0050  137.9290 C   0  0  0  0  0  2  0  0  0  0  0  0
  180.3290  175.1910  140.0850 C   0  0  0  0  0  1  0  0  0  0  0  0
  179.9830  175.2640  138.3220 S   0  0  2  0  0  0  0  0  0  0  0  0
  181.1910  174.5740  137.7040 O   0  0  0  0  0  0  0  0  0  0  0  0
  187.4020  173.7560  136.1960 C   0  0  0  0  0  2  0  0  0  0  0  0
  187.0760  172.8120  135.0490 C   0  0  0  0  0  2  0  0  0  0  0  0
  186.2070  171.7450  135.5140 N   0  0  0  0  0  1  0  0  0  0  0  0
  1 17  1  1  0  0  0
  2 32  1  6  0  0  0
  2  3  1  0  0  0  0
  2  1  1  0  0  0  0
  3 10  1  6  0  0  0
  3  1  1  0  0  0  0
  4  8  1  0  0  0  0
  5  6  1  6  0  0  0
  7  4  2  0  0  0  0
  8 11  2  0  0  0  0
  9  7  1  0  0  0  0
  9  6  1  1  0  0  0
  9  5  1  0  0  0  0
 10 11  1  1  0  0  0
 10  5  1  0  0  0  0
 12  4  1  0  0  0  0
 12 13  1  0  0  0  0
 15 14  1  0  0  0  0
 15 19  1  0  0  0  0
 16 15  1  0  0  0  0
 17 16  1  0  0  0  0
 18 16  2  0  0  0  0
 19 21  1  0  0  0  0
 20 24  1  0  0  0  0
 20 31  1  1  0  0  0
 21 23  1  6  0  0  0
 21 20  1  0  0  0  0
 22 21  1  0  0  0  0
 22 25  1  0  0  0  0
 25 24  1  0  0  0  0
 26 28  1  0  0  0  0
 27 30  1  0  0  0  0
 28 30  2  0  0  0  0
 29 31  1  0  0  0  0
 29 26  2  0  0  0  0
 31 27  2  0  0  0  0
 32 33  1  0  0  0  0
 33 34  1  6  0  0  0
 35 37  1  0  0  0  0
 35 33  1  0  0  0  0
 37 55  1  0  0  0  0
 37 38  1  0  0  0  0
 38 36  2  0  0  0  0
 40 39  1  6  0  0  0
 40 38  1  0  0  0  0
 40 46  1  0  0  0  0
 42 46  2  0  0  0  0
 42 48  1  0  0  0  0
 43 45  1  0  0  0  0
 43 47  2  0  0  0  0
 44 47  1  0  0  0  0
 44 41  1  0  0  0  0
 46 43  1  0  0  0  0
 47 50  1  0  0  0  0
 48 44  2  0  0  0  0
 50 49  1  0  0  0  0
 51 48  1  0  0  0  0
 51 53  1  0  0  0  0
 53 52  1  1  0  0  0
 54 53  2  0  0  0  0
 56 57  1  0  0  0  0
 56 55  1  0  0  0  0
M  END
>  <MODEL>
2

>  <REMARK>
 VINA RESULT:      -7.0      3.207      8.147
  Name = 
  17 active torsions:
  status: ('A' for Active; 'I' for Inactive)
    1  A    between atoms: C_5  and  O_8
    2  A    between atoms: N_7  and  C_11
    3  A    between atoms: C_11  and  C_30
    4  A    between atoms: C_12  and  N_47
    5  A    between atoms: C_12  and  C_55
    6  A    between atoms: C_14  and  C_24
    7  A    between atoms: C_14  and  C_35
    8  A    between atoms: N_16  and  C_44
    9  A    between atoms: N_16  and  C_55
   10  A    between atoms: C_19  and  C_57
   11  A    between atoms: C_22  and  N_41
   12  A    between atoms: C_33  and  C_44
   13  A    between atoms: S_34  and  C_43
   14  A    between atoms: C_38  and  N_47
   15  A    between atoms: C_39  and  O_48
   16  A    between atoms: C_43  and  C_45
   17  A    between atoms: C_50  and  C_52
                            x       y       z     vdW  Elec       q    Type
                         _______ _______ _______ _____ _____    ______ ____

>  <TORSDO>
F 17

$$$$
=
 OpenBabel10232409133D

 57 62  0  0  1  0  0  0  0  0999 V2000
  191.2100  175.8160  138.3360 C   0  0  1  0  0  3  0  0  0  0  0  0
  190.5410  176.7370  137.3370 C   0  0  1  0  0  3  0  0  0  0  0  0
  192.0630  176.5730  137.3370 C   0  0  2  0  0  3  0  0  0  0  0  0
  195.3220  174.3960  134.9640 C   0  0  0  0  0  0  0  0  0  0  0  0
  193.1780  174.3910  136.8590 C   0  0  1  0  0  3  0  0  0  0  0  0
  192.5710  172.9970  136.8460 C   0  0  0  0  0  2  0  0  0  0  0  0
  194.5800  173.3760  135.3160 N   0  0  0  0  0  0  0  0  0  0  0  0
  194.8080  175.8170  134.9240 C   0  0  0  0  0  3  0  0  0  0  0  0
  193.1710  173.5570  135.5910 C   0  0  2  0  0  3  0  0  0  0  0  0
  192.5930  175.6380  136.2500 C   0  0  2  0  0  3  0  0  0  0  0  0
  193.6800  176.3510  135.4590 C   0  0  0  0  0  3  0  0  0  0  0  0
  196.6530  174.1410  134.6270 O   0  0  0  0  0  0  0  0  0  0  0  0
  197.6220  173.7430  135.5850 C   0  0  0  0  0  1  0  0  0  0  0  0
  191.5180  177.7030  142.2300 C   0  0  0  0  0  1  0  0  0  0  0  0
  190.2480  177.7110  141.5190 N   0  0  0  0  0  0  0  0  0  0  0  0
  190.1320  177.0800  140.2350 C   0  0  0  0  0  0  0  0  0  0  0  0
  191.2810  176.4830  139.6250 N   0  0  0  0  0  2  0  0  0  0  0  0
  189.0190  177.0480  139.6450 O   0  0  0  0  0  0  0  0  0  0  0  0
  189.0660  178.2300  142.2030 C   0  0  0  0  0  2  0  0  0  0  0  0
  188.6550  177.8710  144.6130 C   0  0  1  0  0  3  0  0  0  0  0  0
  188.5020  177.2510  143.2360 C   0  0  1  0  0  0  0  0  0  0  0  0
  186.9950  177.1160  143.0910 C   0  0  0  0  0  2  0  0  0  0  0  0
  189.1360  175.8690  143.0960 C   0  0  0  0  0  1  0  0  0  0  0  0
  187.2640  177.8300  145.1960 C   0  0  0  0  0  2  0  0  0  0  0  0
  186.3600  177.8250  144.1270 O   0  0  0  0  0  0  0  0  0  0  0  0
  191.9390  176.6180  145.9380 C   0  0  0  0  0  3  0  0  0  0  0  0
  189.3190  176.8790  146.8130 C   0  0  0  0  0  3  0  0  0  0  0  0
  191.6030  176.2090  147.2320 C   0  0  0  0  0  3  0  0  0  0  0  0
  190.9850  177.1360  145.1190 N   0  0  0  0  0  0  0  0  0  0  0  0
  190.2840  176.3440  147.6680 C   0  0  0  0  0  3  0  0  0  0  0  0
  189.6880  177.2650  145.5230 C   0  0  0  0  0  0  0  0  0  0  0  0
  189.8800  175.9270  136.3200 N   0  0  0  0  0  2  0  0  0  0  0  0
  188.4500  176.0560  136.5280 C   0  0  1  0  0  3  0  0  0  0  0  0
  188.0120  177.4670  136.1810 C   0  0  0  0  0  1  0  0  0  0  0  0
  187.7280  175.0340  135.6560 C   0  0  0  0  0  2  0  0  0  0  0  0
  185.3760  173.1600  137.7260 O   0  0  0  0  0  0  0  0  0  0  0  0
  187.1770  173.9500  136.4630 N   0  0  0  0  0  0  0  0  0  0  0  0
  185.7950  173.9760  136.8610 C   0  0  0  0  0  0  0  0  0  0  0  0
  184.3380  174.5160  135.0570 O   0  0  0  0  0  1  0  0  0  0  0  0
  184.8450  174.9780  136.2730 C   0  0  1  0  0  3  0  0  0  0  0  0
  180.3320  176.3940  140.0770 Cl  0  0  0  0  0  0  0  0  0  0  0  0
  183.9030  176.3300  138.1680 C   0  0  0  0  0  3  0  0  0  0  0  0
  182.5150  174.6240  137.1500 C   0  0  0  0  0  0  0  0  0  0  0  0
  181.6450  175.9810  138.9750 C   0  0  0  0  0  0  0  0  0  0  0  0
  182.3800  173.6210  136.2460 F   0  0  0  0  0  0  0  0  0  0  0  0
  183.7330  175.3150  137.2200 C   0  0  0  0  0  0  0  0  0  0  0  0
  181.4530  174.9650  138.0210 C   0  0  0  0  0  0  0  0  0  0  0  0
  182.8730  176.6610  139.0480 C   0  0  0  0  0  0  0  0  0  0  0  0
  179.9830  172.9570  138.2820 C   0  0  0  0  0  1  0  0  0  0  0  0
  180.2030  174.3280  137.9760 O   0  0  0  0  0  0  0  0  0  0  0  0
  183.1020  177.7510  140.0450 C   0  0  0  0  0  2  0  0  0  0  0  0
  185.3260  179.1700  141.0390 C   0  0  0  0  0  1  0  0  0  0  0  0
  184.4490  178.8240  139.5080 S   0  0  2  0  0  0  0  0  0  0  0  0
  183.7560  180.1440  139.2000 O   0  0  0  0  0  0  0  0  0  0  0  0
  188.0710  172.8790  136.9020 C   0  0  0  0  0  2  0  0  0  0  0  0
  188.2890  171.8670  135.7890 C   0  0  0  0  0  2  0  0  0  0  0  0
  189.5610  172.1130  135.1340 N   0  0  0  0  0  1  0  0  0  0  0  0
  1 17  1  1  0  0  0
  2 32  1  6  0  0  0
  2  3  1  0  0  0  0
  2  1  1  0  0  0  0
  3 10  1  6  0  0  0
  3  1  1  0  0  0  0
  4  7  2  0  0  0  0
  5  6  1  1  0  0  0
  7  9  1  0  0  0  0
  8  4  1  0  0  0  0
  8 11  2  0  0  0  0
  9  6  1  1  0  0  0
  9  5  1  0  0  0  0
 10 11  1  1  0  0  0
 10  5  1  0  0  0  0
 12  4  1  0  0  0  0
 12 13  1  0  0  0  0
 15 19  1  0  0  0  0
 15 14  1  0  0  0  0
 16 15  1  0  0  0  0
 17 16  1  0  0  0  0
 18 16  2  0  0  0  0
 19 21  1  0  0  0  0
 20 24  1  0  0  0  0
 20 31  1  1  0  0  0
 21 23  1  6  0  0  0
 21 20  1  0  0  0  0
 22 21  1  0  0  0  0
 22 25  1  0  0  0  0
 25 24  1  0  0  0  0
 26 28  1  0  0  0  0
 27 30  1  0  0  0  0
 28 30  2  0  0  0  0
 29 31  1  0  0  0  0
 29 26  2  0  0  0  0
 31 27  2  0  0  0  0
 32 33  1  0  0  0  0
 33 34  1  6  0  0  0
 35 37  1  0  0  0  0
 35 33  1  0  0  0  0
 37 38  1  0  0  0  0
 37 55  1  0  0  0  0
 38 36  2  0  0  0  0
 40 39  1  6  0  0  0
 40 38  1  0  0  0  0
 40 46  1  0  0  0  0
 42 48  1  0  0  0  0
 43 46  1  0  0  0  0
 43 47  2  0  0  0  0
 44 48  2  0  0  0  0
 44 41  1  0  0  0  0
 45 43  1  0  0  0  0
 46 42  2  0  0  0  0
 47 44  1  0  0  0  0
 48 51  1  0  0  0  0
 50 47  1  0  0  0  0
 50 49  1  0  0  0  0
 53 51  1  0  0  0  0
 53 52  1  1  0  0  0
 54 53  2  0  0  0  0
 56 55  1  0  0  0  0
 57 56  1  0  0  0  0
M  END
>  <MODEL>
3

>  <REMARK>
 VINA RESULT:      -7.0      3.025      7.960
  Name = 
  17 active torsions:
  status: ('A' for Active; 'I' for Inactive)
    1  A    between atoms: C_5  and  O_8
    2  A    between atoms: N_7  and  C_11
    3  A    between atoms: C_11  and  C_30
    4  A    between atoms: C_12  and  N_47
    5  A    between atoms: C_12  and  C_55
    6  A    between atoms: C_14  and  C_24
    7  A    between atoms: C_14  and  C_35
    8  A    between atoms: N_16  and  C_44
    9  A    between atoms: N_16  and  C_55
   10  A    between atoms: C_19  and  C_57
   11  A    between atoms: C_22  and  N_41
   12  A    between atoms: C_33  and  C_44
   13  A    between atoms: S_34  and  C_43
   14  A    between atoms: C_38  and  N_47
   15  A    between atoms: C_39  and  O_48
   16  A    between atoms: C_43  and  C_45
   17  A    between atoms: C_50  and  C_52
                            x       y       z     vdW  Elec       q    Type
                         _______ _______ _______ _____ _____    ______ ____

>  <TORSDO>
F 17

$$$$
=
 OpenBabel10232409133D

 57 62  0  0  1  0  0  0  0  0999 V2000
  189.2210  174.7600  136.1260 C   0  0  1  0  0  3  0  0  0  0  0  0
  189.6130  175.2470  137.5050 C   0  0  1  0  0  3  0  0  0  0  0  0
  190.1820  173.9340  136.9600 C   0  0  2  0  0  3  0  0  0  0  0  0
  194.6800  173.0620  136.9170 C   0  0  0  0  0  0  0  0  0  0  0  0
  192.0550  172.7360  135.8230 C   0  0  1  0  0  3  0  0  0  0  0  0
  192.2210  172.4170  134.3460 C   0  0  0  0  0  2  0  0  0  0  0  0
  194.3700  172.7110  135.6930 N   0  0  0  0  0  0  0  0  0  0  0  0
  193.8290  173.9940  137.7490 C   0  0  0  0  0  3  0  0  0  0  0  0
  193.2240  173.2960  135.0330 C   0  0  2  0  0  3  0  0  0  0  0  0
  191.6090  174.0450  136.4210 C   0  0  2  0  0  3  0  0  0  0  0  0
  192.5490  174.4070  137.5610 C   0  0  0  0  0  3  0  0  0  0  0  0
  195.8470  172.5270  137.4670 O   0  0  0  0  0  0  0  0  0  0  0  0
  195.9970  171.1440  137.7480 C   0  0  0  0  0  1  0  0  0  0  0  0
  185.3330  172.8410  136.2790 C   0  0  0  0  0  1  0  0  0  0  0  0
  185.4440  174.2220  135.8310 N   0  0  0  0  0  0  0  0  0  0  0  0
  186.7260  174.8620  135.7670 C   0  0  0  0  0  0  0  0  0  0  0  0
  187.8990  174.1610  136.1910 N   0  0  0  0  0  2  0  0  0  0  0  0
  186.8220  176.0420  135.3320 O   0  0  0  0  0  0  0  0  0  0  0  0
  184.2530  174.8830  135.3030 C   0  0  0  0  0  2  0  0  0  0  0  0
  182.9060  176.6960  136.3080 C   0  0  1  0  0  3  0  0  0  0  0  0
  183.2280  175.2140  136.3920 C   0  0  1  0  0  0  0  0  0  0  0  0
  181.8890  174.5590  136.0960 C   0  0  0  0  0  2  0  0  0  0  0  0
  183.7090  174.7530  137.7660 C   0  0  0  0  0  1  0  0  0  0  0  0
  181.4030  176.7430  136.1900 C   0  0  0  0  0  2  0  0  0  0  0  0
  180.9870  175.5300  135.6260 O   0  0  0  0  0  0  0  0  0  0  0  0
  185.2620  178.6400  138.4940 C   0  0  0  0  0  3  0  0  0  0  0  0
  182.5360  178.1680  138.2980 C   0  0  0  0  0  3  0  0  0  0  0  0
  184.3940  179.2440  139.4080 C   0  0  0  0  0  3  0  0  0  0  0  0
  184.7700  177.8270  137.5210 N   0  0  0  0  0  0  0  0  0  0  0  0
  183.0220  179.0050  139.3030 C   0  0  0  0  0  3  0  0  0  0  0  0
  183.4340  177.5710  137.4110 C   0  0  0  0  0  0  0  0  0  0  0  0
  190.5330  176.3690  137.3640 N   0  0  0  0  0  2  0  0  0  0  0  0
  190.1670  177.3560  138.3620 C   0  0  1  0  0  3  0  0  0  0  0  0
  188.9360  178.1120  137.8990 C   0  0  0  0  0  1  0  0  0  0  0  0
  189.9030  176.6480  139.6860 C   0  0  0  0  0  2  0  0  0  0  0  0
  190.2090  178.2270  142.9640 O   0  0  0  0  0  0  0  0  0  0  0  0
  190.4900  177.3830  140.8020 N   0  0  0  0  0  0  0  0  0  0  0  0
  189.8160  177.4270  142.0720 C   0  0  0  0  0  0  0  0  0  0  0  0
  189.0580  175.2910  142.8030 O   0  0  0  0  0  1  0  0  0  0  0  0
  188.6360  176.5420  142.3470 C   0  0  1  0  0  3  0  0  0  0  0  0
  184.8150  179.1230  146.2940 Cl  0  0  0  0  0  0  0  0  0  0  0  0
  187.8980  177.0400  144.6940 C   0  0  0  0  0  3  0  0  0  0  0  0
  186.5790  177.8980  142.8520 C   0  0  0  0  0  0  0  0  0  0  0  0
  185.9240  178.3700  145.1490 C   0  0  0  0  0  0  0  0  0  0  0  0
  186.3680  177.9840  141.5140 F   0  0  0  0  0  0  0  0  0  0  0  0
  187.6820  177.1690  143.3190 C   0  0  0  0  0  0  0  0  0  0  0  0
  185.6970  178.5190  143.7670 C   0  0  0  0  0  0  0  0  0  0  0  0
  187.0240  177.6270  145.6100 C   0  0  0  0  0  0  0  0  0  0  0  0
  183.3260  178.7500  143.0040 C   0  0  0  0  0  1  0  0  0  0  0  0
  184.5950  179.2850  143.3580 O   0  0  0  0  0  0  0  0  0  0  0  0
  187.2950  177.4600  147.0700 C   0  0  0  0  0  2  0  0  0  0  0  0
  189.3920  178.2190  148.7950 C   0  0  0  0  0  1  0  0  0  0  0  0
  189.0550  177.1900  147.3590 S   0  0  2  0  0  0  0  0  0  0  0  0
  189.7250  177.9510  146.2230 O   0  0  0  0  0  0  0  0  0  0  0  0
  191.7350  178.1170  140.5810 C   0  0  0  0  0  2  0  0  0  0  0  0
  192.9350  177.1880  140.6790 C   0  0  0  0  0  2  0  0  0  0  0  0
  193.6520  177.1640  139.4170 N   0  0  0  0  0  1  0  0  0  0  0  0
  1 17  1  1  0  0  0
  1  3  1  0  0  0  0
  1  2  1  0  0  0  0
  2 32  1  6  0  0  0
  3 10  1  6  0  0  0
  3  2  1  0  0  0  0
  4 12  1  0  0  0  0
  4  8  1  0  0  0  0
  5  6  1  6  0  0  0
  5 10  1  0  0  0  0
  7  4  2  0  0  0  0
  9  6  1  6  0  0  0
  9  7  1  0  0  0  0
  9  5  1  0  0  0  0
 10 11  1  1  0  0  0
 11  8  2  0  0  0  0
 12 13  1  0  0  0  0
 15 14  1  0  0  0  0
 16 15  1  0  0  0  0
 16 17  1  0  0  0  0
 18 16  2  0  0  0  0
 19 15  1  0  0  0  0
 19 21  1  0  0  0  0
 20 21  1  0  0  0  0
 20 31  1  1  0  0  0
 21 23  1  1  0  0  0
 22 21  1  0  0  0  0
 24 20  1  0  0  0  0
 25 22  1  0  0  0  0
 25 24  1  0  0  0  0
 26 28  1  0  0  0  0
 27 30  1  0  0  0  0
 29 26  2  0  0  0  0
 30 28  2  0  0  0  0
 31 29  1  0  0  0  0
 31 27  2  0  0  0  0
 32 33  1  0  0  0  0
 33 34  1  6  0  0  0
 33 35  1  0  0  0  0
 35 37  1  0  0  0  0
 37 38  1  0  0  0  0
 38 40  1  0  0  0  0
 38 36  2  0  0  0  0
 40 39  1  1  0  0  0
 40 46  1  0  0  0  0
 42 48  1  0  0  0  0
 43 46  1  0  0  0  0
 43 47  2  0  0  0  0
 44 48  2  0  0  0  0
 44 41  1  0  0  0  0
 45 43  1  0  0  0  0
 46 42  2  0  0  0  0
 47 44  1  0  0  0  0
 48 51  1  0  0  0  0
 49 50  1  0  0  0  0
 50 47  1  0  0  0  0
 51 53  1  0  0  0  0
 53 52  1  1  0  0  0
 54 53  2  0  0  0  0
 55 56  1  0  0  0  0
 55 37  1  0  0  0  0
 57 56  1  0  0  0  0
M  END
>  <MODEL>
4

>  <REMARK>
 VINA RESULT:      -6.6      1.678      1.988
  Name = 
  17 active torsions:
  status: ('A' for Active; 'I' for Inactive)
    1  A    between atoms: C_5  and  O_8
    2  A    between atoms: N_7  and  C_11
    3  A    between atoms: C_11  and  C_30
    4  A    between atoms: C_12  and  N_47
    5  A    between atoms: C_12  and  C_55
    6  A    between atoms: C_14  and  C_24
    7  A    between atoms: C_14  and  C_35
    8  A    between atoms: N_16  and  C_44
    9  A    between atoms: N_16  and  C_55
   10  A    between atoms: C_19  and  C_57
   11  A    between atoms: C_22  and  N_41
   12  A    between atoms: C_33  and  C_44
   13  A    between atoms: S_34  and  C_43
   14  A    between atoms: C_38  and  N_47
   15  A    between atoms: C_39  and  O_48
   16  A    between atoms: C_43  and  C_45
   17  A    between atoms: C_50  and  C_52
                            x       y       z     vdW  Elec       q    Type
                         _______ _______ _______ _____ _____    ______ ____

>  <TORSDO>
F 17

$$$$
=
 OpenBabel10232409133D

 57 62  0  0  1  0  0  0  0  0999 V2000
  189.6490  173.7010  135.3710 C   0  0  1  0  0  3  0  0  0  0  0  0
  189.3130  174.6840  136.4730 C   0  0  1  0  0  3  0  0  0  0  0  0
  190.4890  173.7170  136.6350 C   0  0  2  0  0  3  0  0  0  0  0  0
  194.9680  174.3560  137.3600 C   0  0  0  0  0  0  0  0  0  0  0  0
  192.8060  173.3340  135.7870 C   0  0  1  0  0  3  0  0  0  0  0  0
  193.2930  173.2660  134.3480 C   0  0  0  0  0  2  0  0  0  0  0  0
  194.9850  174.0740  136.0810 N   0  0  0  0  0  0  0  0  0  0  0  0
  193.7360  174.8560  138.0800 C   0  0  0  0  0  3  0  0  0  0  0  0
  193.8220  174.3320  135.2600 C   0  0  2  0  0  3  0  0  0  0  0  0
  191.8580  174.3470  136.3740 C   0  0  2  0  0  3  0  0  0  0  0  0
  192.4360  174.8530  137.6870 C   0  0  0  0  0  3  0  0  0  0  0  0
  196.1490  174.1650  138.0800 O   0  0  0  0  0  0  0  0  0  0  0  0
  197.3350  173.6620  137.4860 C   0  0  0  0  0  1  0  0  0  0  0  0
  186.9950  170.2730  135.5150 C   0  0  0  0  0  1  0  0  0  0  0  0
  186.5120  171.5430  134.9940 N   0  0  0  0  0  0  0  0  0  0  0  0
  187.3850  172.6800  134.9320 C   0  0  0  0  0  0  0  0  0  0  0  0
  188.7230  172.5840  135.4300 N   0  0  0  0  0  2  0  0  0  0  0  0
  186.9760  173.7650  134.4350 O   0  0  0  0  0  0  0  0  0  0  0  0
  185.1800  171.5920  134.3940 C   0  0  0  0  0  2  0  0  0  0  0  0
  182.7310  171.4540  134.6940 C   0  0  1  0  0  3  0  0  0  0  0  0
  184.0650  171.3120  135.4050 C   0  0  1  0  0  0  0  0  0  0  0  0
  184.0690  169.8530  135.8290 C   0  0  0  0  0  2  0  0  0  0  0  0
  184.2100  172.1860  136.6480 C   0  0  0  0  0  1  0  0  0  0  0  0
  182.0250  170.1490  134.9650 C   0  0  0  0  0  2  0  0  0  0  0  0
  183.0080  169.1780  135.1980 O   0  0  0  0  0  0  0  0  0  0  0  0
  181.2780  174.9170  134.6520 C   0  0  0  0  0  3  0  0  0  0  0  0
  180.9240  172.5420  136.0400 C   0  0  0  0  0  3  0  0  0  0  0  0
  180.3040  174.8460  135.6520 C   0  0  0  0  0  3  0  0  0  0  0  0
  182.0450  173.8300  134.3690 N   0  0  0  0  0  0  0  0  0  0  0  0
  180.1280  173.6470  136.3460 C   0  0  0  0  0  3  0  0  0  0  0  0
  181.8960  172.6540  135.0450 C   0  0  0  0  0  0  0  0  0  0  0  0
  189.7240  176.0190  136.0550 N   0  0  0  0  0  2  0  0  0  0  0  0
  188.5530  176.8710  136.1180 C   0  0  1  0  0  3  0  0  0  0  0  0
  187.9860  177.0580  134.7220 C   0  0  0  0  0  1  0  0  0  0  0  0
  187.5210  176.2310  137.0400 C   0  0  0  0  0  2  0  0  0  0  0  0
  186.1480  178.7570  139.2900 O   0  0  0  0  0  0  0  0  0  0  0  0
  186.6050  177.2300  137.5800 N   0  0  0  0  0  0  0  0  0  0  0  0
  187.0040  178.0490  138.6930 C   0  0  0  0  0  0  0  0  0  0  0  0
  189.0770  179.2200  138.7460 O   0  0  0  0  0  1  0  0  0  0  0  0
  188.4270  178.0590  139.1690 C   0  0  1  0  0  3  0  0  0  0  0  0
  188.7730  177.4020  145.1930 Cl  0  0  0  0  0  0  0  0  0  0  0  0
  187.3710  178.0320  141.4460 C   0  0  0  0  0  3  0  0  0  0  0  0
  189.7540  177.6340  141.2630 C   0  0  0  0  0  0  0  0  0  0  0  0
  188.6720  177.5970  143.4440 C   0  0  0  0  0  0  0  0  0  0  0  0
  190.8620  177.5520  140.4850 F   0  0  0  0  0  0  0  0  0  0  0  0
  188.5190  177.9100  140.6580 C   0  0  0  0  0  0  0  0  0  0  0  0
  189.8360  177.4600  142.6650 C   0  0  0  0  0  0  0  0  0  0  0  0
  187.4400  177.8850  142.8320 C   0  0  0  0  0  0  0  0  0  0  0  0
  191.5250  175.8360  143.5410 C   0  0  0  0  0  1  0  0  0  0  0  0
  191.0380  177.1540  143.3210 O   0  0  0  0  0  0  0  0  0  0  0  0
  186.1860  178.0270  143.6320 C   0  0  0  0  0  2  0  0  0  0  0  0
  183.8890  179.6130  144.0240 C   0  0  0  0  0  1  0  0  0  0  0  0
  184.9610  178.9890  142.7230 S   0  0  2  0  0  0  0  0  0  0  0  0
  184.1030  177.9290  142.0460 O   0  0  0  0  0  0  0  0  0  0  0  0
  185.2650  177.3360  137.0050 C   0  0  0  0  0  2  0  0  0  0  0  0
  184.8910  176.0610  136.2650 C   0  0  0  0  0  2  0  0  0  0  0  0
  184.4610  176.3760  134.9140 N   0  0  0  0  0  1  0  0  0  0  0  0
  1 17  1  1  0  0  0
  1  2  1  0  0  0  0
  1  3  1  0  0  0  0
  2 32  1  6  0  0  0
  2  3  1  0  0  0  0
  3 10  1  6  0  0  0
  4 12  1  0  0  0  0
  4  8  1  0  0  0  0
  5  6  1  6  0  0  0
  5 10  1  0  0  0  0
  7  4  2  0  0  0  0
  9  6  1  6  0  0  0
  9  5  1  0  0  0  0
  9  7  1  0  0  0  0
 10 11  1  1  0  0  0
 11  8  2  0  0  0  0
 13 12  1  0  0  0  0
 15 14  1  0  0  0  0
 16 15  1  0  0  0  0
 16 17  1  0  0  0  0
 18 16  2  0  0  0  0
 19 15  1  0  0  0  0
 19 21  1  0  0  0  0
 20 24  1  0  0  0  0
 20 31  1  1  0  0  0
 20 21  1  0  0  0  0
 21 22  1  0  0  0  0
 21 23  1  1  0  0  0
 24 25  1  0  0  0  0
 25 22  1  0  0  0  0
 26 28  1  0  0  0  0
 27 30  1  0  0  0  0
 28 30  2  0  0  0  0
 29 26  2  0  0  0  0
 29 31  1  0  0  0  0
 31 27  2  0  0  0  0
 32 33  1  0  0  0  0
 33 34  1  6  0  0  0
 33 35  1  0  0  0  0
 35 37  1  0  0  0  0
 37 38  1  0  0  0  0
 38 40  1  0  0  0  0
 38 36  2  0  0  0  0
 40 39  1  1  0  0  0
 40 46  1  0  0  0  0
 42 48  1  0  0  0  0
 43 47  2  0  0  0  0
 44 41  1  0  0  0  0
 45 43  1  0  0  0  0
 46 43  1  0  0  0  0
 46 42  2  0  0  0  0
 47 50  1  0  0  0  0
 47 44  1  0  0  0  0
 48 44  2  0  0  0  0
 48 51  1  0  0  0  0
 50 49  1  0  0  0  0
 53 51  1  0  0  0  0
 53 52  1  1  0  0  0
 54 53  2  0  0  0  0
 55 37  1  0  0  0  0
 56 55  1  0  0  0  0
 57 56  1  0  0  0  0
M  END
>  <MODEL>
5

>  <REMARK>
 VINA RESULT:      -6.6      2.714      4.558
  Name = 
  17 active torsions:
  status: ('A' for Active; 'I' for Inactive)
    1  A    between atoms: C_5  and  O_8
    2  A    between atoms: N_7  and  C_11
    3  A    between atoms: C_11  and  C_30
    4  A    between atoms: C_12  and  N_47
    5  A    between atoms: C_12  and  C_55
    6  A    between atoms: C_14  and  C_24
    7  A    between atoms: C_14  and  C_35
    8  A    between atoms: N_16  and  C_44
    9  A    between atoms: N_16  and  C_55
   10  A    between atoms: C_19  and  C_57
   11  A    between atoms: C_22  and  N_41
   12  A    between atoms: C_33  and  C_44
   13  A    between atoms: S_34  and  C_43
   14  A    between atoms: C_38  and  N_47
   15  A    between atoms: C_39  and  O_48
   16  A    between atoms: C_43  and  C_45
   17  A    between atoms: C_50  and  C_52
                            x       y       z     vdW  Elec       q    Type
                         _______ _______ _______ _____ _____    ______ ____

>  <TORSDO>
F 17

$$$$
=
 OpenBabel10232409133D

 57 62  0  0  1  0  0  0  0  0999 V2000
  190.0750  174.7020  136.3020 C   0  0  1  0  0  3  0  0  0  0  0  0
  190.1660  175.3140  137.6850 C   0  0  1  0  0  3  0  0  0  0  0  0
  191.1910  174.2690  137.2340 C   0  0  2  0  0  3  0  0  0  0  0  0
  195.3830  174.1140  135.3930 C   0  0  0  0  0  0  0  0  0  0  0  0
  192.6300  174.8880  135.2900 C   0  0  1  0  0  3  0  0  0  0  0  0
  192.5430  176.1140  134.3950 C   0  0  0  0  0  2  0  0  0  0  0  0
  194.8590  175.0780  134.6780 N   0  0  0  0  0  0  0  0  0  0  0  0
  194.8460  173.7010  136.7450 C   0  0  0  0  0  3  0  0  0  0  0  0
  193.7780  175.8780  135.2110 C   0  0  2  0  0  3  0  0  0  0  0  0
  192.5320  174.8570  136.7930 C   0  0  2  0  0  3  0  0  0  0  0  0
  193.6610  173.9950  137.3380 C   0  0  0  0  0  3  0  0  0  0  0  0
  196.4800  173.4350  134.8570 O   0  0  0  0  0  0  0  0  0  0  0  0
  197.7080  173.2940  135.5550 C   0  0  0  0  0  1  0  0  0  0  0  0
  187.0780  171.5660  136.2570 C   0  0  0  0  0  1  0  0  0  0  0  0
  186.7430  172.8970  135.7720 N   0  0  0  0  0  0  0  0  0  0  0  0
  187.7300  173.9390  135.7730 C   0  0  0  0  0  0  0  0  0  0  0  0
  189.0370  173.6870  136.2980 N   0  0  0  0  0  2  0  0  0  0  0  0
  187.4480  175.0760  135.3080 O   0  0  0  0  0  0  0  0  0  0  0  0
  185.4400  173.1050  135.1450 C   0  0  0  0  0  2  0  0  0  0  0  0
  183.1300  173.8290  135.6430 C   0  0  1  0  0  3  0  0  0  0  0  0
  184.2780  172.9630  136.1320 C   0  0  1  0  0  0  0  0  0  0  0  0
  183.6910  171.5630  136.0830 C   0  0  0  0  0  2  0  0  0  0  0  0
  184.7250  173.2610  137.5610 C   0  0  0  0  0  1  0  0  0  0  0  0
  181.9570  172.8830  135.5720 C   0  0  0  0  0  2  0  0  0  0  0  0
  182.4670  171.5920  135.3900 O   0  0  0  0  0  0  0  0  0  0  0  0
  183.4940  177.2150  137.2280 C   0  0  0  0  0  3  0  0  0  0  0  0
  181.5710  175.2270  137.0130 C   0  0  0  0  0  3  0  0  0  0  0  0
  182.2480  177.3980  137.8330 C   0  0  0  0  0  3  0  0  0  0  0  0
  183.7570  176.0690  136.5430 N   0  0  0  0  0  0  0  0  0  0  0  0
  181.2820  176.3950  137.7200 C   0  0  0  0  0  3  0  0  0  0  0  0
  182.8310  175.0730  136.4320 C   0  0  0  0  0  0  0  0  0  0  0  0
  190.6550  176.6820  137.5640 N   0  0  0  0  0  2  0  0  0  0  0  0
  190.2750  177.3850  138.7740 C   0  0  1  0  0  3  0  0  0  0  0  0
  188.8070  177.7630  138.7010 C   0  0  0  0  0  1  0  0  0  0  0  0
  190.5430  176.4850  139.9760 C   0  0  0  0  0  2  0  0  0  0  0  0
  191.8280  177.9760  143.0510 O   0  0  0  0  0  0  0  0  0  0  0  0
  191.4740  177.1150  140.9070 N   0  0  0  0  0  0  0  0  0  0  0  0
  191.1260  177.2500  142.2960 C   0  0  0  0  0  0  0  0  0  0  0  0
  190.0710  175.1660  142.7600 O   0  0  0  0  0  1  0  0  0  0  0  0
  189.9220  176.5510  142.8580 C   0  0  1  0  0  3  0  0  0  0  0  0
  188.7780  178.1620  148.5970 Cl  0  0  0  0  0  0  0  0  0  0  0  0
  188.5220  177.7260  144.5790 C   0  0  0  0  0  3  0  0  0  0  0  0
  190.5200  176.5610  145.3000 C   0  0  0  0  0  0  0  0  0  0  0  0
  189.1110  177.6980  146.9290 C   0  0  0  0  0  0  0  0  0  0  0  0
  191.6280  175.8450  144.9810 F   0  0  0  0  0  0  0  0  0  0  0  0
  189.6510  176.9590  144.2740 C   0  0  0  0  0  0  0  0  0  0  0  0
  190.2460  176.9160  146.6420 C   0  0  0  0  0  0  0  0  0  0  0  0
  188.2520  178.1040  145.8940 C   0  0  0  0  0  0  0  0  0  0  0  0
  192.2830  175.8040  147.5760 C   0  0  0  0  0  1  0  0  0  0  0  0
  191.0640  176.5210  147.7130 O   0  0  0  0  0  0  0  0  0  0  0  0
  187.0340  178.9250  146.1690 C   0  0  0  0  0  2  0  0  0  0  0  0
  184.7060  179.1500  144.5960 C   0  0  0  0  0  1  0  0  0  0  0  0
  185.5430  178.0180  145.7140 S   0  0  2  0  0  0  0  0  0  0  0  0
  184.6880  178.0790  146.9720 O   0  0  0  0  0  0  0  0  0  0  0  0
  192.7300  177.6540  140.3860 C   0  0  0  0  0  2  0  0  0  0  0  0
  193.5620  176.5570  139.7410 C   0  0  0  0  0  2  0  0  0  0  0  0
  194.9380  176.6420  140.1970 N   0  0  0  0  0  1  0  0  0  0  0  0
  1 17  1  1  0  0  0
  1  3  1  0  0  0  0
  1  2  1  0  0  0  0
  2 32  1  6  0  0  0
  3 10  1  6  0  0  0
  3  2  1  0  0  0  0
  4  8  1  0  0  0  0
  5  6  1  6  0  0  0
  5 10  1  0  0  0  0
  7  9  1  0  0  0  0
  7  4  2  0  0  0  0
  8 11  2  0  0  0  0
  9  6  1  6  0  0  0
  9  5  1  0  0  0  0
 10 11  1  1  0  0  0
 12  4  1  0  0  0  0
 12 13  1  0  0  0  0
 15 16  1  0  0  0  0
 15 14  1  0  0  0  0
 16 17  1  0  0  0  0
 18 16  2  0  0  0  0
 19 15  1  0  0  0  0
 19 21  1  0  0  0  0
 20 21  1  0  0  0  0
 20 31  1  1  0  0  0
 21 23  1  1  0  0  0
 22 21  1  0  0  0  0
 24 20  1  0  0  0  0
 25 24  1  0  0  0  0
 25 22  1  0  0  0  0
 26 28  1  0  0  0  0
 27 30  1  0  0  0  0
 29 26  2  0  0  0  0
 30 28  2  0  0  0  0
 31 29  1  0  0  0  0
 31 27  2  0  0  0  0
 32 33  1  0  0  0  0
 33 34  1  6  0  0  0
 33 35  1  0  0  0  0
 35 37  1  0  0  0  0
 37 38  1  0  0  0  0
 38 40  1  0  0  0  0
 38 36  2  0  0  0  0
 40 39  1  1  0  0  0
 40 46  1  0  0  0  0
 42 48  1  0  0  0  0
 43 47  2  0  0  0  0
 44 41  1  0  0  0  0
 45 43  1  0  0  0  0
 46 42  2  0  0  0  0
 46 43  1  0  0  0  0
 47 44  1  0  0  0  0
 47 50  1  0  0  0  0
 48 51  1  0  0  0  0
 48 44  2  0  0  0  0
 49 50  1  0  0  0  0
 53 52  1  6  0  0  0
 53 51  1  0  0  0  0
 53 54  2  0  0  0  0
 55 37  1  0  0  0  0
 56 57  1  0  0  0  0
 56 55  1  0  0  0  0
M  END
>  <MODEL>
6

>  <REMARK>
 VINA RESULT:      -6.4      1.562      2.755
  Name = 
  17 active torsions:
  status: ('A' for Active; 'I' for Inactive)
    1  A    between atoms: C_5  and  O_8
    2  A    between atoms: N_7  and  C_11
    3  A    between atoms: C_11  and  C_30
    4  A    between atoms: C_12  and  N_47
    5  A    between atoms: C_12  and  C_55
    6  A    between atoms: C_14  and  C_24
    7  A    between atoms: C_14  and  C_35
    8  A    between atoms: N_16  and  C_44
    9  A    between atoms: N_16  and  C_55
   10  A    between atoms: C_19  and  C_57
   11  A    between atoms: C_22  and  N_41
   12  A    between atoms: C_33  and  C_44
   13  A    between atoms: S_34  and  C_43
   14  A    between atoms: C_38  and  N_47
   15  A    between atoms: C_39  and  O_48
   16  A    between atoms: C_43  and  C_45
   17  A    between atoms: C_50  and  C_52
                            x       y       z     vdW  Elec       q    Type
                         _______ _______ _______ _____ _____    ______ ____

>  <TORSDO>
F 17

$$$$
=
 OpenBabel10232409133D

 57 62  0  0  1  0  0  0  0  0999 V2000
  190.8450  177.1530  139.5880 C   0  0  1  0  0  3  0  0  0  0  0  0
  189.3700  177.2190  139.2540 C   0  0  1  0  0  3  0  0  0  0  0  0
  189.8380  176.5530  140.5510 C   0  0  2  0  0  3  0  0  0  0  0  0
  188.9930  177.3450  144.9830 C   0  0  0  0  0  0  0  0  0  0  0  0
  190.8010  177.1640  142.7720 C   0  0  1  0  0  3  0  0  0  0  0  0
  191.9770  178.0770  143.0790 C   0  0  0  0  0  2  0  0  0  0  0  0
  190.1670  177.9160  144.8720 N   0  0  0  0  0  0  0  0  0  0  0  0
  188.0860  177.0830  143.8020 C   0  0  0  0  0  3  0  0  0  0  0  0
  190.6130  178.4260  143.5940 C   0  0  2  0  0  3  0  0  0  0  0  0
  189.6840  177.4260  141.7960 C   0  0  2  0  0  3  0  0  0  0  0  0
  188.3590  177.1060  142.4720 C   0  0  0  0  0  3  0  0  0  0  0  0
  188.5840  176.9510  146.2590 O   0  0  0  0  0  0  0  0  0  0  0  0
  187.6060  177.6620  147.0020 C   0  0  0  0  0  1  0  0  0  0  0  0
  192.6120  173.8700  137.3710 C   0  0  0  0  0  1  0  0  0  0  0  0
  193.3750  175.0900  137.5910 N   0  0  0  0  0  0  0  0  0  0  0  0
  192.8040  176.1780  138.3320 C   0  0  0  0  0  0  0  0  0  0  0  0
  191.4600  176.0870  138.8160 N   0  0  0  0  0  2  0  0  0  0  0  0
  193.4860  177.2130  138.5610 O   0  0  0  0  0  0  0  0  0  0  0  0
  194.7770  175.1220  137.1810 C   0  0  0  0  0  2  0  0  0  0  0  0
  197.0940  174.3450  137.5460 C   0  0  1  0  0  3  0  0  0  0  0  0
  195.6590  174.1910  138.0180 C   0  0  1  0  0  0  0  0  0  0  0  0
  195.7260  174.6570  139.4620 C   0  0  0  0  0  2  0  0  0  0  0  0
  195.1390  172.7560  137.9870 C   0  0  0  0  0  1  0  0  0  0  0  0
  197.8650  174.6700  138.8010 C   0  0  0  0  0  2  0  0  0  0  0  0
  196.9720  175.2650  139.7010 O   0  0  0  0  0  0  0  0  0  0  0  0
  199.1170  171.2970  136.6920 C   0  0  0  0  0  3  0  0  0  0  0  0
  197.2590  172.9560  135.4710 C   0  0  0  0  0  3  0  0  0  0  0  0
  198.7220  171.0340  135.3770 C   0  0  0  0  0  3  0  0  0  0  0  0
  198.5930  172.3590  137.3610 N   0  0  0  0  0  0  0  0  0  0  0  0
  197.7850  171.8710  134.7670 C   0  0  0  0  0  3  0  0  0  0  0  0
  197.6860  173.1950  136.7780 C   0  0  0  0  0  0  0  0  0  0  0  0
  188.9030  178.5870  139.4520 N   0  0  0  0  0  2  0  0  0  0  0  0
  187.9680  178.8830  138.3830 C   0  0  1  0  0  3  0  0  0  0  0  0
  188.7240  179.0340  137.0760 C   0  0  0  0  0  1  0  0  0  0  0  0
  186.9460  177.7550  138.2910 C   0  0  0  0  0  2  0  0  0  0  0  0
  183.4090  178.6560  138.3640 O   0  0  0  0  0  0  0  0  0  0  0  0
  185.6510  178.1750  138.8170 N   0  0  0  0  0  0  0  0  0  0  0  0
  184.4770  178.1010  137.9890 C   0  0  0  0  0  0  0  0  0  0  0  0
  185.7420  177.5770  136.0410 O   0  0  0  0  0  1  0  0  0  0  0  0
  184.5100  177.3840  136.6710 C   0  0  1  0  0  3  0  0  0  0  0  0
  183.3260  171.4690  137.3390 Cl  0  0  0  0  0  0  0  0  0  0  0  0
  185.2570  174.9930  136.8370 C   0  0  0  0  0  3  0  0  0  0  0  0
  182.8880  175.4850  136.9630 C   0  0  0  0  0  0  0  0  0  0  0  0
  183.6710  173.1870  137.1410 C   0  0  0  0  0  0  0  0  0  0  0  0
  181.8860  176.3990  136.9130 F   0  0  0  0  0  0  0  0  0  0  0  0
  184.2130  175.9230  136.8220 C   0  0  0  0  0  0  0  0  0  0  0  0
  182.6080  174.1100  137.1390 C   0  0  0  0  0  0  0  0  0  0  0  0
  184.9950  173.6310  136.9870 C   0  0  0  0  0  0  0  0  0  0  0  0
  180.4390  173.2310  136.2570 C   0  0  0  0  0  1  0  0  0  0  0  0
  181.3050  173.6170  137.3150 O   0  0  0  0  0  0  0  0  0  0  0  0
  186.1440  172.6760  136.9950 C   0  0  0  0  0  2  0  0  0  0  0  0
  187.8390  170.9390  135.5610 C   0  0  0  0  0  1  0  0  0  0  0  0
  186.5770  172.1950  135.3110 S   0  0  2  0  0  0  0  0  0  0  0  0
  187.3720  173.3850  134.7920 O   0  0  0  0  0  0  0  0  0  0  0  0
  185.5890  178.7250  140.1710 C   0  0  0  0  0  2  0  0  0  0  0  0
  184.3960  178.1620  140.9280 C   0  0  0  0  0  2  0  0  0  0  0  0
  184.6580  178.1800  142.3560 N   0  0  0  0  0  1  0  0  0  0  0  0
  1 17  1  6  0  0  0
  1  3  1  0  0  0  0
  2 32  1  1  0  0  0
  2  1  1  0  0  0  0
  2  3  1  0  0  0  0
  3 10  1  1  0  0  0
  4 12  1  0  0  0  0
  5  6  1  6  0  0  0
  5  9  1  0  0  0  0
  7  4  2  0  0  0  0
  8  4  1  0  0  0  0
  9  6  1  1  0  0  0
  9  7  1  0  0  0  0
 10 11  1  1  0  0  0
 10  5  1  0  0  0  0
 11  8  2  0  0  0  0
 12 13  1  0  0  0  0
 14 15  1  0  0  0  0
 15 16  1  0  0  0  0
 16 18  2  0  0  0  0
 16 17  1  0  0  0  0
 19 15  1  0  0  0  0
 19 21  1  0  0  0  0
 20 31  1  1  0  0  0
 20 21  1  0  0  0  0
 20 24  1  0  0  0  0
 21 23  1  6  0  0  0
 21 22  1  0  0  0  0
 22 25  1  0  0  0  0
 24 25  1  0  0  0  0
 26 29  1  0  0  0  0
 27 31  1  0  0  0  0
 28 26  2  0  0  0  0
 30 28  1  0  0  0  0
 30 27  2  0  0  0  0
 31 29  2  0  0  0  0
 33 34  1  6  0  0  0
 33 32  1  0  0  0  0
 35 33  1  0  0  0  0
 35 37  1  0  0  0  0
 37 55  1  0  0  0  0
 38 36  2  0  0  0  0
 38 37  1  0  0  0  0
 40 39  1  1  0  0  0
 40 46  1  0  0  0  0
 40 38  1  0  0  0  0
 42 48  1  0  0  0  0
 43 47  2  0  0  0  0
 44 41  1  0  0  0  0
 45 43  1  0  0  0  0
 46 42  2  0  0  0  0
 46 43  1  0  0  0  0
 47 44  1  0  0  0  0
 47 50  1  0  0  0  0
 48 51  1  0  0  0  0
 48 44  2  0  0  0  0
 49 50  1  0  0  0  0
 53 52  1  1  0  0  0
 53 51  1  0  0  0  0
 54 53  2  0  0  0  0
 55 56  1  0  0  0  0
 56 57  1  0  0  0  0
M  END
>  <MODEL>
7

>  <REMARK>
 VINA RESULT:      -6.4      3.591     10.521
  Name = 
  17 active torsions:
  status: ('A' for Active; 'I' for Inactive)
    1  A    between atoms: C_5  and  O_8
    2  A    between atoms: N_7  and  C_11
    3  A    between atoms: C_11  and  C_30
    4  A    between atoms: C_12  and  N_47
    5  A    between atoms: C_12  and  C_55
    6  A    between atoms: C_14  and  C_24
    7  A    between atoms: C_14  and  C_35
    8  A    between atoms: N_16  and  C_44
    9  A    between atoms: N_16  and  C_55
   10  A    between atoms: C_19  and  C_57
   11  A    between atoms: C_22  and  N_41
   12  A    between atoms: C_33  and  C_44
   13  A    between atoms: S_34  and  C_43
   14  A    between atoms: C_38  and  N_47
   15  A    between atoms: C_39  and  O_48
   16  A    between atoms: C_43  and  C_45
   17  A    between atoms: C_50  and  C_52
                            x       y       z     vdW  Elec       q    Type
                         _______ _______ _______ _____ _____    ______ ____

>  <TORSDO>
F 17

$$$$
=
 OpenBabel10232409133D

 57 62  0  0  1  0  0  0  0  0999 V2000
  191.0590  177.0000  139.3610 C   0  0  1  0  0  3  0  0  0  0  0  0
  189.5990  177.0470  138.9600 C   0  0  1  0  0  3  0  0  0  0  0  0
  190.0080  176.4680  140.3180 C   0  0  2  0  0  3  0  0  0  0  0  0
  188.6400  177.6240  144.5350 C   0  0  0  0  0  0  0  0  0  0  0  0
  190.7090  177.0580  142.6400 C   0  0  1  0  0  3  0  0  0  0  0  0
  191.9510  177.8060  143.0970 C   0  0  0  0  0  2  0  0  0  0  0  0
  189.8900  178.0120  144.5890 N   0  0  0  0  0  0  0  0  0  0  0  0
  187.8910  177.4300  143.2360 C   0  0  0  0  0  3  0  0  0  0  0  0
  190.5950  178.3790  143.3810 C   0  0  2  0  0  3  0  0  0  0  0  0
  189.8040  177.4240  141.4930 C   0  0  2  0  0  3  0  0  0  0  0  0
  188.3590  177.3380  141.9650 C   0  0  0  0  0  3  0  0  0  0  0  0
  187.9890  177.3670  145.7440 O   0  0  0  0  0  0  0  0  0  0  0  0
  186.5820  177.4700  145.8920 C   0  0  0  0  0  1  0  0  0  0  0  0
  192.9210  173.5740  137.4620 C   0  0  0  0  0  1  0  0  0  0  0  0
  193.6100  174.8560  137.4820 N   0  0  0  0  0  0  0  0  0  0  0  0
  193.0080  175.9930  138.1170 C   0  0  0  0  0  0  0  0  0  0  0  0
  191.7020  175.8840  138.6910 N   0  0  0  0  0  2  0  0  0  0  0  0
  193.6290  177.0880  138.1730 O   0  0  0  0  0  0  0  0  0  0  0  0
  194.9820  174.9200  136.9850 C   0  0  0  0  0  2  0  0  0  0  0  0
  197.3680  174.5260  137.4950 C   0  0  1  0  0  3  0  0  0  0  0  0
  195.9540  174.0800  137.8190 C   0  0  1  0  0  0  0  0  0  0  0  0
  195.8250  174.4070  139.2970 C   0  0  0  0  0  2  0  0  0  0  0  0
  195.7060  172.5860  137.6220 C   0  0  0  0  0  1  0  0  0  0  0  0
  197.9700  174.8560  138.8380 C   0  0  0  0  0  2  0  0  0  0  0  0
  196.9190  175.1960  139.6990 O   0  0  0  0  0  0  0  0  0  0  0  0
  198.9080  172.7150  134.5860 C   0  0  0  0  0  3  0  0  0  0  0  0
  199.1340  172.7580  137.3500 C   0  0  0  0  0  3  0  0  0  0  0  0
  199.8300  171.8720  135.2120 C   0  0  0  0  0  3  0  0  0  0  0  0
  198.1290  173.5450  135.3310 N   0  0  0  0  0  0  0  0  0  0  0  0
  199.9420  171.8990  136.6040 C   0  0  0  0  0  3  0  0  0  0  0  0
  198.2150  173.5770  136.6920 C   0  0  0  0  0  0  0  0  0  0  0  0
  189.1310  178.4250  139.0450 N   0  0  0  0  0  2  0  0  0  0  0  0
  188.1630  178.6180  137.9810 C   0  0  1  0  0  3  0  0  0  0  0  0
  188.8890  178.9470  136.6900 C   0  0  0  0  0  1  0  0  0  0  0  0
  187.3330  177.3490  137.8290 C   0  0  0  0  0  2  0  0  0  0  0  0
  184.7890  177.3320  135.2100 O   0  0  0  0  0  0  0  0  0  0  0  0
  186.0760  177.6220  137.1400 N   0  0  0  0  0  0  0  0  0  0  0  0
  185.7640  176.9450  135.9100 C   0  0  0  0  0  0  0  0  0  0  0  0
  187.8410  175.7920  136.0710 O   0  0  0  0  0  1  0  0  0  0  0  0
  186.5980  175.7910  135.4350 C   0  0  1  0  0  3  0  0  0  0  0  0
  183.7300  170.4950  136.1920 Cl  0  0  0  0  0  0  0  0  0  0  0  0
  184.6850  174.4290  136.3240 C   0  0  0  0  0  3  0  0  0  0  0  0
  186.4550  173.3010  135.1130 C   0  0  0  0  0  0  0  0  0  0  0  0
  184.5640  172.0340  135.9760 C   0  0  0  0  0  0  0  0  0  0  0  0
  187.6510  173.3650  134.4730 F   0  0  0  0  0  0  0  0  0  0  0  0
  185.9000  174.4800  135.6320 C   0  0  0  0  0  0  0  0  0  0  0  0
  185.7800  172.0680  135.2690 C   0  0  0  0  0  0  0  0  0  0  0  0
  184.0200  173.2160  136.5050 C   0  0  0  0  0  0  0  0  0  0  0  0
  187.3980  170.1590  135.2560 C   0  0  0  0  0  1  0  0  0  0  0  0
  186.2730  170.8620  134.7440 O   0  0  0  0  0  0  0  0  0  0  0  0
  182.7250  173.2130  137.2530 C   0  0  0  0  0  2  0  0  0  0  0  0
  182.1220  175.5710  138.6750 C   0  0  0  0  0  1  0  0  0  0  0  0
  181.8860  174.7980  137.0680 S   0  0  2  0  0  0  0  0  0  0  0  0
  180.4100  174.4250  137.0780 O   0  0  0  0  0  0  0  0  0  0  0  0
  185.1790  178.6360  137.6940 C   0  0  0  0  0  2  0  0  0  0  0  0
  184.7610  178.2720  139.1100 C   0  0  0  0  0  2  0  0  0  0  0  0
  184.9390  179.4130  139.9910 N   0  0  0  0  0  1  0  0  0  0  0  0
  1 17  1  6  0  0  0
  1  3  1  0  0  0  0
  2 32  1  1  0  0  0
  2  1  1  0  0  0  0
  2  3  1  0  0  0  0
  3 10  1  1  0  0  0
  4  7  2  0  0  0  0
  4 12  1  0  0  0  0
  5  6  1  6  0  0  0
  5  9  1  0  0  0  0
  8  4  1  0  0  0  0
  9  6  1  1  0  0  0
  9  7  1  0  0  0  0
 10 11  1  1  0  0  0
 10  5  1  0  0  0  0
 11  8  2  0  0  0  0
 12 13  1  0  0  0  0
 14 15  1  0  0  0  0
 15 16  1  0  0  0  0
 16 18  2  0  0  0  0
 16 17  1  0  0  0  0
 19 15  1  0  0  0  0
 19 21  1  0  0  0  0
 20 31  1  1  0  0  0
 20 21  1  0  0  0  0
 20 24  1  0  0  0  0
 21 23  1  6  0  0  0
 21 22  1  0  0  0  0
 22 25  1  0  0  0  0
 24 25  1  0  0  0  0
 26 28  2  0  0  0  0
 26 29  1  0  0  0  0
 28 30  1  0  0  0  0
 29 31  2  0  0  0  0
 30 27  2  0  0  0  0
 31 27  1  0  0  0  0
 33 34  1  6  0  0  0
 33 32  1  0  0  0  0
 35 33  1  0  0  0  0
 36 38  2  0  0  0  0
 37 55  1  0  0  0  0
 37 35  1  0  0  0  0
 38 37  1  0  0  0  0
 40 46  1  0  0  0  0
 40 38  1  0  0  0  0
 40 39  1  1  0  0  0
 42 48  1  0  0  0  0
 43 47  2  0  0  0  0
 43 46  1  0  0  0  0
 44 41  1  0  0  0  0
 44 48  2  0  0  0  0
 45 43  1  0  0  0  0
 46 42  2  0  0  0  0
 47 44  1  0  0  0  0
 48 51  1  0  0  0  0
 50 49  1  0  0  0  0
 50 47  1  0  0  0  0
 53 54  2  0  0  0  0
 53 51  1  0  0  0  0
 53 52  1  1  0  0  0
 55 56  1  0  0  0  0
 56 57  1  0  0  0  0
M  END
>  <MODEL>
8

>  <REMARK>
 VINA RESULT:      -6.3      3.781     11.010
  Name = 
  17 active torsions:
  status: ('A' for Active; 'I' for Inactive)
    1  A    between atoms: C_5  and  O_8
    2  A    between atoms: N_7  and  C_11
    3  A    between atoms: C_11  and  C_30
    4  A    between atoms: C_12  and  N_47
    5  A    between atoms: C_12  and  C_55
    6  A    between atoms: C_14  and  C_24
    7  A    between atoms: C_14  and  C_35
    8  A    between atoms: N_16  and  C_44
    9  A    between atoms: N_16  and  C_55
   10  A    between atoms: C_19  and  C_57
   11  A    between atoms: C_22  and  N_41
   12  A    between atoms: C_33  and  C_44
   13  A    between atoms: S_34  and  C_43
   14  A    between atoms: C_38  and  N_47
   15  A    between atoms: C_39  and  O_48
   16  A    between atoms: C_43  and  C_45
   17  A    between atoms: C_50  and  C_52
                            x       y       z     vdW  Elec       q    Type
                         _______ _______ _______ _____ _____    ______ ____

>  <TORSDO>
F 17

$$$$
=
 OpenBabel10232409133D

 57 62  0  0  1  0  0  0  0  0999 V2000
  191.5460  175.8480  137.8590 C   0  0  1  0  0  3  0  0  0  0  0  0
  191.0480  176.8400  136.8300 C   0  0  1  0  0  3  0  0  0  0  0  0
  192.5220  176.4230  136.8500 C   0  0  2  0  0  3  0  0  0  0  0  0
  195.3190  173.4770  134.7320 C   0  0  0  0  0  0  0  0  0  0  0  0
  193.0770  174.0260  136.4230 C   0  0  1  0  0  3  0  0  0  0  0  0
  192.1360  172.8370  136.3200 C   0  0  0  0  0  2  0  0  0  0  0  0
  194.3100  172.6830  134.9900 N   0  0  0  0  0  0  0  0  0  0  0  0
  195.1940  174.9830  134.6800 C   0  0  0  0  0  3  0  0  0  0  0  0
  192.9760  173.2220  135.1400 C   0  0  2  0  0  3  0  0  0  0  0  0
  192.8930  175.3820  135.7930 C   0  0  2  0  0  3  0  0  0  0  0  0
  194.1960  175.7900  135.1230 C   0  0  0  0  0  3  0  0  0  0  0  0
  196.5660  172.8870  134.5130 O   0  0  0  0  0  0  0  0  0  0  0  0
  197.3340  172.3100  135.5570 C   0  0  0  0  0  1  0  0  0  0  0  0
  192.1700  177.7780  141.6940 C   0  0  0  0  0  1  0  0  0  0  0  0
  190.8350  177.7290  141.1150 N   0  0  0  0  0  0  0  0  0  0  0  0
  190.6160  177.0830  139.8530 C   0  0  0  0  0  0  0  0  0  0  0  0
  191.7200  176.5280  139.1310 N   0  0  0  0  0  2  0  0  0  0  0  0
  189.4500  177.0010  139.3780 O   0  0  0  0  0  0  0  0  0  0  0  0
  189.7090  178.2060  141.9140 C   0  0  0  0  0  2  0  0  0  0  0  0
  188.0980  176.9220  143.2780 C   0  0  1  0  0  3  0  0  0  0  0  0
  189.5310  177.4210  143.2160 C   0  0  1  0  0  0  0  0  0  0  0  0
  190.3360  176.1330  143.1890 C   0  0  0  0  0  2  0  0  0  0  0  0
  189.9620  178.2460  144.4260 C   0  0  0  0  0  1  0  0  0  0  0  0
  188.2310  175.4360  143.4960 C   0  0  0  0  0  2  0  0  0  0  0  0
  189.4720  175.0440  142.9770 O   0  0  0  0  0  0  0  0  0  0  0  0
  185.2610  178.8840  144.7660 C   0  0  0  0  0  3  0  0  0  0  0  0
  187.4340  177.4000  145.6440 C   0  0  0  0  0  3  0  0  0  0  0  0
  185.4810  178.7350  146.1380 C   0  0  0  0  0  3  0  0  0  0  0  0
  186.1100  178.3060  143.8730 N   0  0  0  0  0  0  0  0  0  0  0  0
  186.5750  177.9860  146.5750 C   0  0  0  0  0  3  0  0  0  0  0  0
  187.1910  177.5810  144.2810 C   0  0  0  0  0  0  0  0  0  0  0  0
  190.2670  176.1270  135.8260 N   0  0  0  0  0  2  0  0  0  0  0  0
  188.8740  176.4720  136.0380 C   0  0  1  0  0  3  0  0  0  0  0  0
  188.6430  177.9160  135.6350 C   0  0  0  0  0  1  0  0  0  0  0  0
  188.0000  175.5330  135.2140 C   0  0  0  0  0  2  0  0  0  0  0  0
  185.2080  174.5810  137.3650 O   0  0  0  0  0  0  0  0  0  0  0  0
  187.1520  174.7140  136.0740 N   0  0  0  0  0  0  0  0  0  0  0  0
  185.8480  175.1820  136.4600 C   0  0  0  0  0  0  0  0  0  0  0  0
  184.4910  176.0280  134.6950 O   0  0  0  0  0  1  0  0  0  0  0  0
  185.2440  176.3940  135.8130 C   0  0  1  0  0  3  0  0  0  0  0  0
  181.8700  179.5520  139.7480 Cl  0  0  0  0  0  0  0  0  0  0  0  0
  183.0190  177.0870  136.7470 C   0  0  0  0  0  3  0  0  0  0  0  0
  185.0330  178.0190  137.7210 C   0  0  0  0  0  0  0  0  0  0  0  0
  182.8490  178.6370  138.6020 C   0  0  0  0  0  0  0  0  0  0  0  0
  186.3850  178.1270  137.7130 F   0  0  0  0  0  0  0  0  0  0  0  0
  184.4140  177.1860  136.7770 C   0  0  0  0  0  0  0  0  0  0  0  0
  184.2510  178.7410  138.6530 C   0  0  0  0  0  0  0  0  0  0  0  0
  182.2350  177.8110  137.6450 C   0  0  0  0  0  0  0  0  0  0  0  0
  185.3090  179.1060  140.8910 C   0  0  0  0  0  1  0  0  0  0  0  0
  184.8170  179.5650  139.6390 O   0  0  0  0  0  0  0  0  0  0  0  0
  180.7480  177.6730  137.5730 C   0  0  0  0  0  2  0  0  0  0  0  0
  180.1470  176.6180  140.1170 C   0  0  0  0  0  1  0  0  0  0  0  0
  180.2150  176.1520  138.3810 S   0  0  2  0  0  0  0  0  0  0  0  0
  181.4450  175.2580  138.3110 O   0  0  0  0  0  0  0  0  0  0  0  0
  187.6790  173.4460  136.5760 C   0  0  0  0  0  2  0  0  0  0  0  0
  188.5070  172.7440  135.5100 C   0  0  0  0  0  2  0  0  0  0  0  0
  187.8500  171.5180  135.0960 N   0  0  0  0  0  1  0  0  0  0  0  0
  1 17  1  1  0  0  0
  2 32  1  6  0  0  0
  2  3  1  0  0  0  0
  2  1  1  0  0  0  0
  3 10  1  6  0  0  0
  3  1  1  0  0  0  0
  4  7  2  0  0  0  0
  5  6  1  1  0  0  0
  7  9  1  0  0  0  0
  8  4  1  0  0  0  0
  8 11  2  0  0  0  0
  9  6  1  1  0  0  0
  9  5  1  0  0  0  0
 10 11  1  1  0  0  0
 10  5  1  0  0  0  0
 12  4  1  0  0  0  0
 12 13  1  0  0  0  0
 15 14  1  0  0  0  0
 15 19  1  0  0  0  0
 16 15  1  0  0  0  0
 17 16  1  0  0  0  0
 18 16  2  0  0  0  0
 19 21  1  0  0  0  0
 20 24  1  0  0  0  0
 20 31  1  1  0  0  0
 21 20  1  0  0  0  0
 21 23  1  1  0  0  0
 22 21  1  0  0  0  0
 25 22  1  0  0  0  0
 25 24  1  0  0  0  0
 26 28  1  0  0  0  0
 27 30  1  0  0  0  0
 28 30  2  0  0  0  0
 29 31  1  0  0  0  0
 29 26  2  0  0  0  0
 31 27  2  0  0  0  0
 32 33  1  0  0  0  0
 33 34  1  6  0  0  0
 35 33  1  0  0  0  0
 35 37  1  0  0  0  0
 37 38  1  0  0  0  0
 37 55  1  0  0  0  0
 38 36  2  0  0  0  0
 40 39  1  6  0  0  0
 40 38  1  0  0  0  0
 40 46  1  0  0  0  0
 42 46  2  0  0  0  0
 42 48  1  0  0  0  0
 43 47  2  0  0  0  0
 44 47  1  0  0  0  0
 44 41  1  0  0  0  0
 45 43  1  0  0  0  0
 46 43  1  0  0  0  0
 47 50  1  0  0  0  0
 48 44  2  0  0  0  0
 50 49  1  0  0  0  0
 51 48  1  0  0  0  0
 51 53  1  0  0  0  0
 53 52  1  1  0  0  0
 54 53  2  0  0  0  0
 56 55  1  0  0  0  0
 57 56  1  0  0  0  0
M  END
>  <MODEL>
9

>  <REMARK>
 VINA RESULT:      -6.2      3.346      7.723
  Name = 
  17 active torsions:
  status: ('A' for Active; 'I' for Inactive)
    1  A    between atoms: C_5  and  O_8
    2  A    between atoms: N_7  and  C_11
    3  A    between atoms: C_11  and  C_30
    4  A    between atoms: C_12  and  N_47
    5  A    between atoms: C_12  and  C_55
    6  A    between atoms: C_14  and  C_24
    7  A    between atoms: C_14  and  C_35
    8  A    between atoms: N_16  and  C_44
    9  A    between atoms: N_16  and  C_55
   10  A    between atoms: C_19  and  C_57
   11  A    between atoms: C_22  and  N_41
   12  A    between atoms: C_33  and  C_44
   13  A    between atoms: S_34  and  C_43
   14  A    between atoms: C_38  and  N_47
   15  A    between atoms: C_39  and  O_48
   16  A    between atoms: C_43  and  C_45
   17  A    between atoms: C_50  and  C_52
                            x       y       z     vdW  Elec       q    Type
                         _______ _______ _______ _____ _____    ______ ____

>  <TORSDO>
F 17

$$$$
