=
 OpenBabel10232409233D

 52 61  0  0  1  0  0  0  0  0999 V2000
  185.8780  178.2650  146.4430 N   0  0  0  0  0  0  0  0  0  0  0  0
  189.1700  177.4620  144.3500 C   0  0  1  0  0  3  0  0  0  0  0  0
  187.1470  177.8880  146.8060 C   0  0  0  0  0  0  0  0  0  0  0  0
  189.9410  177.1280  147.0040 C   0  0  0  0  0  0  0  0  0  0  0  0
  186.5670  178.2100  144.0540 C   0  0  0  0  0  0  0  0  0  0  0  0
  189.1140  177.2960  148.1750 C   0  0  0  0  0  3  0  0  0  0  0  0
  189.3170  177.3530  145.7780 C   0  0  0  0  0  0  0  0  0  0  0  0
  184.2570  178.7950  144.7080 C   0  0  0  0  0  3  0  0  0  0  0  0
  187.9870  177.7040  145.8020 C   0  0  1  0  0  0  0  0  0  0  0  0
  185.5600  178.4260  145.0890 C   0  0  0  0  0  0  0  0  0  0  0  0
  187.8010  177.8390  144.4770 N   0  0  0  0  0  0  0  0  0  0  0  0
  186.5130  178.5140  139.1720 C   0  0  0  0  0  2  0  0  0  0  0  0
  187.7150  177.6770  148.0850 C   0  0  0  0  0  3  0  0  0  0  0  0
  186.2040  178.3860  142.7190 C   0  0  0  0  0  0  0  0  0  0  0  0
  188.7390  177.9250  140.0060 C   0  0  0  0  0  0  0  0  0  0  0  0
  184.8090  178.8410  141.0080 C   0  0  0  0  0  0  0  0  0  0  0  0
  186.0680  178.5460  140.4920 C   0  0  0  0  0  0  0  0  0  0  0  0
  187.8610  178.1970  138.9370 C   0  0  0  0  0  3  0  0  0  0  0  0
  183.9230  178.9540  143.3510 C   0  0  0  0  0  3  0  0  0  0  0  0
  191.3750  176.7510  147.1020 C   0  0  0  0  0  1  0  0  0  0  0  0
  186.9230  178.2690  141.5450 C   0  0  0  0  0  0  0  0  0  0  0  0
  184.9090  178.7440  142.3850 C   0  0  0  0  0  0  0  0  0  0  0  0
  188.2640  177.9560  141.3330 C   0  0  0  0  0  3  0  0  0  0  0  0
  183.6420  179.1760  140.3110 O   0  0  0  0  0  0  0  0  0  0  0  0
  183.2880  177.3540  138.7650 C   0  0  0  0  0  2  0  0  0  0  0  0
  181.0300  177.7650  138.2410 C   0  0  0  0  0  2  0  0  0  0  0  0
  182.2180  177.0150  137.8280 N   0  0  2  0  0  0  0  0  0  0  0  0
  182.7020  178.2060  139.8640 C   0  0  2  0  0  3  0  0  0  0  0  0
  181.4440  178.8090  139.2600 C   0  0  1  0  0  3  0  0  0  0  0  0
  181.0040  181.1580  139.3220 F   0  0  0  0  0  0  0  0  0  0  0  0
  182.9830  180.4860  138.5150 F   0  0  0  0  0  0  0  0  0  0  0  0
  181.1100  180.1740  137.2970 F   0  0  0  0  0  0  0  0  0  0  0  0
  181.6380  180.1770  138.5790 C   0  0  0  0  0  0  0  0  0  0  0  0
  183.1560  174.7760  137.7110 C   0  0  0  0  0  2  0  0  0  0  0  0
  182.0640  174.8810  136.6710 C   0  0  0  0  0  2  0  0  0  0  0  0
  181.9170  175.6000  138.0020 C   0  0  0  0  0  3  0  0  0  0  0  0
  190.1060  177.6190  139.7190 N   0  0  0  0  0  2  0  0  0  0  0  0
  190.5770  176.3020  139.3160 C   0  0  0  0  0  2  0  0  0  0  0  0
  190.9270  176.3040  137.8370 C   0  0  1  0  0  3  0  0  0  0  0  0
  192.4350  176.3530  137.6640 C   0  0  0  0  0  2  0  0  0  0  0  0
  193.0040  174.9500  137.6210 C   0  0  0  0  0  1  0  0  0  0  0  0
  190.3740  175.0470  137.1820 C   0  0  0  0  0  2  0  0  0  0  0  0
  189.8490  175.3910  135.5110 S   0  0  0  0  0  0  0  0  0  0  0  0
  190.8430  176.3120  134.8630 O   0  0  0  0  0  0  0  0  0  0  0  0
  189.7680  174.1100  134.7300 O   0  0  0  0  0  0  0  0  0  0  0  0
  188.2150  177.5790  135.4810 C   0  0  0  0  0  2  0  0  0  0  0  0
  188.2910  176.1470  135.5380 N   0  0  0  0  0  0  0  0  0  0  0  0
  185.8100  177.3880  135.2230 C   0  0  0  0  0  3  0  0  0  0  0  0
  187.0110  174.9030  137.2100 C   0  0  0  0  0  1  0  0  0  0  0  0
  185.8320  176.0630  135.3840 C   0  0  0  0  0  3  0  0  0  0  0  0
  187.0390  178.1850  135.3390 C   0  0  0  0  0  3  0  0  0  0  0  0
  187.0920  175.3280  135.7540 C   0  0  0  0  0  0  0  0  0  0  0  0
  1  3  2  0  0  0  0
  2 11  1  0  0  0  0
  2  7  1  1  0  0  0
  2  9  1  0  0  0  0
  3 13  1  0  0  0  0
  4 20  1  0  0  0  0
  4  6  1  0  0  0  0
  5 11  1  0  0  0  0
  5 10  1  0  0  0  0
  7  4  2  0  0  0  0
  8 10  2  0  0  0  0
  9  7  1  1  0  0  0
  9  3  1  0  0  0  0
 10  1  1  0  0  0  0
 11  9  1  0  0  0  0
 12 17  1  0  0  0  0
 13  6  2  0  0  0  0
 14  5  2  0  0  0  0
 15 23  1  0  0  0  0
 16 22  1  0  0  0  0
 17 16  2  0  0  0  0
 17 21  1  0  0  0  0
 18 12  1  0  0  0  0
 18 15  2  0  0  0  0
 19  8  1  0  0  0  0
 21 14  1  0  0  0  0
 22 14  1  0  0  0  0
 22 19  2  0  0  0  0
 23 21  2  0  0  0  0
 24 16  1  0  0  0  0
 25 28  1  0  0  0  0
 26 29  1  0  0  0  0
 27 36  1  1  0  0  0
 27 26  1  0  0  0  0
 27 25  1  0  0  0  0
 28 24  1  6  0  0  0
 29 33  1  6  0  0  0
 29 28  1  0  0  0  0
 31 33  1  0  0  0  0
 32 33  1  0  0  0  0
 33 30  1  0  0  0  0
 34 36  1  0  0  0  0
 35 34  1  0  0  0  0
 35 36  1  0  0  0  0
 37 15  1  0  0  0  0
 38 37  1  0  0  0  0
 39 42  1  1  0  0  0
 39 38  1  0  0  0  0
 40 39  1  0  0  0  0
 41 40  1  0  0  0  0
 43 47  1  0  0  0  0
 43 42  1  0  0  0  0
 44 43  2  0  0  0  0
 45 43  2  0  0  0  0
 46 47  1  0  0  0  0
 47 52  1  0  0  0  0
 48 51  2  0  0  0  0
 48 50  1  0  0  0  0
 50 52  2  0  0  0  0
 51 46  1  0  0  0  0
 52 49  1  0  0  0  0
M  END
>  <MODEL>
1

>  <REMARK>
 VINA RESULT:      -9.7      0.000      0.000
  Name = 
  11 active torsions:
  status: ('A' for Active; 'I' for Inactive)
    1  A    between atoms: C_2  and  C_49
    2  A    between atoms: N_8  and  S_23
    3  A    between atoms: O_13  and  C_32
    4  A    between atoms: O_13  and  C_37
    5  A    between atoms: C_20  and  C_49
    6  A    between atoms: C_20  and  N_51
    7  A    between atoms: S_23  and  C_50
    8  A    between atoms: N_27  and  C_30
    9  A    between atoms: C_34  and  C_46
   10  A    between atoms: C_36  and  N_51
   11  A    between atoms: C_49  and  C_50
                            x       y       z     vdW  Elec       q    Type
                         _______ _______ _______ _____ _____    ______ ____

>  <TORSDO>
F 11

$$$$
=
 OpenBabel10232409233D

 52 61  0  0  1  0  0  0  0  0999 V2000
  189.3860  177.0770  144.4340 N   0  0  0  0  0  0  0  0  0  0  0  0
  186.1610  178.3160  142.4530 C   0  0  1  0  0  3  0  0  0  0  0  0
  188.1410  177.4880  144.8400 C   0  0  0  0  0  0  0  0  0  0  0  0
  185.3980  178.3910  145.1300 C   0  0  0  0  0  0  0  0  0  0  0  0
  188.7150  177.4480  142.0690 C   0  0  0  0  0  0  0  0  0  0  0  0
  186.2080  178.0380  146.2720 C   0  0  0  0  0  3  0  0  0  0  0  0
  186.0140  178.2700  143.8850 C   0  0  0  0  0  0  0  0  0  0  0  0
  190.9810  176.6510  142.6470 C   0  0  0  0  0  3  0  0  0  0  0  0
  187.3190  177.8360  143.8660 C   0  0  1  0  0  0  0  0  0  0  0  0
  189.7010  177.0530  143.0700 C   0  0  0  0  0  0  0  0  0  0  0  0
  187.5030  177.8440  142.5330 N   0  0  0  0  0  0  0  0  0  0  0  0
  188.7750  177.7040  137.1840 C   0  0  0  0  0  2  0  0  0  0  0  0
  187.5800  177.5840  146.1360 C   0  0  0  0  0  3  0  0  0  0  0  0
  189.0730  177.4050  140.7220 C   0  0  0  0  0  0  0  0  0  0  0  0
  186.5860  178.3290  138.0850 C   0  0  0  0  0  0  0  0  0  0  0  0
  190.4460  177.0630  138.9670 C   0  0  0  0  0  0  0  0  0  0  0  0
  189.2100  177.4930  138.4910 C   0  0  0  0  0  0  0  0  0  0  0  0
  187.4500  178.1280  136.9900 C   0  0  0  0  0  3  0  0  0  0  0  0
  191.3120  176.6280  141.2800 C   0  0  0  0  0  3  0  0  0  0  0  0
  183.9900  178.8410  145.2730 C   0  0  0  0  0  1  0  0  0  0  0  0
  188.3680  177.7000  139.5700 C   0  0  0  0  0  0  0  0  0  0  0  0
  190.3450  177.0080  140.3460 C   0  0  0  0  0  0  0  0  0  0  0  0
  187.0510  178.1170  139.3980 C   0  0  0  0  0  3  0  0  0  0  0  0
  191.5940  176.7400  138.2340 O   0  0  0  0  0  0  0  0  0  0  0  0
  193.7150  175.5860  138.1590 C   0  0  0  0  0  2  0  0  0  0  0  0
  193.0370  173.6710  136.9710 C   0  0  0  0  0  2  0  0  0  0  0  0
  194.2080  174.4220  137.4260 N   0  0  2  0  0  0  0  0  0  0  0  0
  192.2160  175.4620  138.2910 C   0  0  2  0  0  3  0  0  0  0  0  0
  191.8030  174.5320  137.1620 C   0  0  1  0  0  3  0  0  0  0  0  0
  191.9480  174.5200  134.7770 F   0  0  0  0  0  0  0  0  0  0  0  0
  190.0520  175.2690  135.7050 F   0  0  0  0  0  0  0  0  0  0  0  0
  191.9240  176.5250  135.8060 F   0  0  0  0  0  0  0  0  0  0  0  0
  191.4260  175.2310  135.8430 C   0  0  0  0  0  0  0  0  0  0  0  0
  195.8830  174.4220  139.1880 C   0  0  0  0  0  2  0  0  0  0  0  0
  196.4050  173.5810  138.0460 C   0  0  0  0  0  2  0  0  0  0  0  0
  194.9220  173.5770  138.3750 C   0  0  0  0  0  3  0  0  0  0  0  0
  185.2410  178.7490  137.8370 N   0  0  0  0  0  2  0  0  0  0  0  0
  184.3200  179.1810  138.8780 C   0  0  0  0  0  2  0  0  0  0  0  0
  183.0520  178.3430  138.8320 C   0  0  1  0  0  3  0  0  0  0  0  0
  181.8440  179.2210  139.1070 C   0  0  0  0  0  2  0  0  0  0  0  0
  181.5290  180.0730  137.8950 C   0  0  0  0  0  1  0  0  0  0  0  0
  182.9190  177.6980  137.4610 C   0  0  0  0  0  2  0  0  0  0  0  0
  182.9410  175.9190  137.6020 S   0  0  0  0  0  0  0  0  0  0  0  0
  182.9080  175.5400  139.0550 O   0  0  0  0  0  0  0  0  0  0  0  0
  181.7420  175.3390  136.9060 O   0  0  0  0  0  0  0  0  0  0  0  0
  184.7850  175.8010  135.5920 C   0  0  0  0  0  2  0  0  0  0  0  0
  184.3840  175.2980  136.8740 N   0  0  0  0  0  0  0  0  0  0  0  0
  186.8740  174.5890  135.8300 C   0  0  0  0  0  3  0  0  0  0  0  0
  184.3210  172.8890  137.2970 C   0  0  0  0  0  1  0  0  0  0  0  0
  186.4880  174.0160  136.9710 C   0  0  0  0  0  3  0  0  0  0  0  0
  185.9650  175.4660  135.0770 C   0  0  0  0  0  3  0  0  0  0  0  0
  185.0930  174.1800  137.5110 C   0  0  0  0  0  0  0  0  0  0  0  0
  1  3  2  0  0  0  0
  2 11  1  0  0  0  0
  2  9  1  0  0  0  0
  2  7  1  6  0  0  0
  3 13  1  0  0  0  0
  4 20  1  0  0  0  0
  4  6  1  0  0  0  0
  5 11  1  0  0  0  0
  5 10  1  0  0  0  0
  7  4  2  0  0  0  0
  8 10  2  0  0  0  0
  9  7  1  6  0  0  0
  9  3  1  0  0  0  0
 10  1  1  0  0  0  0
 11  9  1  0  0  0  0
 12 17  1  0  0  0  0
 13  6  2  0  0  0  0
 14  5  2  0  0  0  0
 15 23  1  0  0  0  0
 16 22  1  0  0  0  0
 17 16  2  0  0  0  0
 17 21  1  0  0  0  0
 18 12  1  0  0  0  0
 18 15  2  0  0  0  0
 19  8  1  0  0  0  0
 21 14  1  0  0  0  0
 22 14  1  0  0  0  0
 22 19  2  0  0  0  0
 23 21  2  0  0  0  0
 24 16  1  0  0  0  0
 25 28  1  0  0  0  0
 26 29  1  0  0  0  0
 26 27  1  0  0  0  0
 27 25  1  0  0  0  0
 27 36  1  1  0  0  0
 28 24  1  6  0  0  0
 29 33  1  6  0  0  0
 29 28  1  0  0  0  0
 30 33  1  0  0  0  0
 31 33  1  0  0  0  0
 32 33  1  0  0  0  0
 35 36  1  0  0  0  0
 35 34  1  0  0  0  0
 36 34  1  0  0  0  0
 37 15  1  0  0  0  0
 37 38  1  0  0  0  0
 39 42  1  6  0  0  0
 39 38  1  0  0  0  0
 39 40  1  0  0  0  0
 41 40  1  0  0  0  0
 42 43  1  0  0  0  0
 43 44  2  0  0  0  0
 45 43  2  0  0  0  0
 46 47  1  0  0  0  0
 47 52  1  0  0  0  0
 47 43  1  0  0  0  0
 48 50  1  0  0  0  0
 49 52  1  0  0  0  0
 50 52  2  0  0  0  0
 51 46  1  0  0  0  0
 51 48  2  0  0  0  0
M  END
>  <MODEL>
2

>  <REMARK>
 VINA RESULT:      -9.4      3.355      7.629
  Name = 
  11 active torsions:
  status: ('A' for Active; 'I' for Inactive)
    1  A    between atoms: C_2  and  C_49
    2  A    between atoms: N_8  and  S_23
    3  A    between atoms: O_13  and  C_32
    4  A    between atoms: O_13  and  C_37
    5  A    between atoms: C_20  and  C_49
    6  A    between atoms: C_20  and  N_51
    7  A    between atoms: S_23  and  C_50
    8  A    between atoms: N_27  and  C_30
    9  A    between atoms: C_34  and  C_46
   10  A    between atoms: C_36  and  N_51
   11  A    between atoms: C_49  and  C_50
                            x       y       z     vdW  Elec       q    Type
                         _______ _______ _______ _____ _____    ______ ____

>  <TORSDO>
F 11

$$$$
=
 OpenBabel10232409233D

 52 61  0  0  1  0  0  0  0  0999 V2000
  190.8580  176.7130  139.6250 N   0  0  0  0  0  0  0  0  0  0  0  0
  187.3010  177.9780  138.3590 C   0  0  1  0  0  3  0  0  0  0  0  0
  190.3390  176.9400  138.3750 C   0  0  0  0  0  0  0  0  0  0  0  0
  188.7720  177.6050  136.0240 C   0  0  0  0  0  0  0  0  0  0  0  0
  188.6940  177.4120  140.6300 C   0  0  0  0  0  0  0  0  0  0  0  0
  190.1370  177.1480  135.9240 C   0  0  0  0  0  3  0  0  0  0  0  0
  188.2560  177.7080  137.3150 C   0  0  0  0  0  0  0  0  0  0  0  0
  190.5870  176.6830  142.0420 C   0  0  0  0  0  3  0  0  0  0  0  0
  189.0860  177.3630  138.3560 C   0  0  1  0  0  0  0  0  0  0  0  0
  190.0670  176.9310  140.7580 C   0  0  0  0  0  0  0  0  0  0  0  0
  188.2390  177.6170  139.3690 N   0  0  0  0  0  0  0  0  0  0  0  0
  185.1760  178.4890  143.8540 C   0  0  0  0  0  3  0  0  0  0  0  0
  190.9280  176.8140  137.0950 C   0  0  0  0  0  3  0  0  0  0  0  0
  187.9450  177.6170  141.7880 C   0  0  0  0  0  0  0  0  0  0  0  0
  184.4440  178.9160  141.5560 C   0  0  0  0  0  0  0  0  0  0  0  0
  187.5470  177.6290  144.0070 C   0  0  0  0  0  0  0  0  0  0  0  0
  186.4050  178.0740  143.3450 C   0  0  0  0  0  0  0  0  0  0  0  0
  184.1920  178.9100  142.9430 C   0  0  0  0  0  3  0  0  0  0  0  0
  189.7990  176.8920  143.1890 C   0  0  0  0  0  3  0  0  0  0  0  0
  187.9700  177.9590  134.8240 C   0  0  0  0  0  1  0  0  0  0  0  0
  186.6530  178.0680  141.9830 C   0  0  0  0  0  0  0  0  0  0  0  0
  188.4910  177.3560  143.0330 C   0  0  2  0  0  3  0  0  0  0  0  0
  185.6930  178.4840  141.0650 C   0  0  0  0  0  3  0  0  0  0  0  0
  187.7450  177.4720  145.3840 O   0  0  0  0  0  0  0  0  0  0  0  0
  189.7150  176.4660  146.3560 C   0  0  0  0  0  2  0  0  0  0  0  0
  190.0420  177.9730  148.1350 C   0  0  0  0  0  2  0  0  0  0  0  0
  190.4360  176.6640  147.6130 N   0  0  2  0  0  0  0  0  0  0  0  0
  188.9850  177.7460  146.0240 C   0  0  2  0  0  3  0  0  0  0  0  0
  188.8390  178.4660  147.3540 C   0  0  1  0  0  3  0  0  0  0  0  0
  187.7590  178.3090  149.4810 F   0  0  0  0  0  0  0  0  0  0  0  0
  186.5510  179.0530  147.7470 F   0  0  0  0  0  0  0  0  0  0  0  0
  187.1050  176.8700  147.8750 F   0  0  0  0  0  0  0  0  0  0  0  0
  187.5390  178.1630  148.1220 C   0  0  0  0  0  0  0  0  0  0  0  0
  192.2880  175.4570  146.6000 C   0  0  0  0  0  2  0  0  0  0  0  0
  192.6040  175.6590  148.0640 C   0  0  0  0  0  2  0  0  0  0  0  0
  191.8560  176.7340  147.2950 C   0  0  0  0  0  3  0  0  0  0  0  0
  183.4160  179.3650  140.6680 N   0  0  0  0  0  2  0  0  0  0  0  0
  183.5650  179.4310  139.2220 C   0  0  0  0  0  2  0  0  0  0  0  0
  182.7410  178.3360  138.5630 C   0  0  1  0  0  3  0  0  0  0  0  0
  181.5800  178.9520  137.8030 C   0  0  0  0  0  2  0  0  0  0  0  0
  180.2800  178.2800  138.1940 C   0  0  0  0  0  1  0  0  0  0  0  0
  183.6200  177.5440  137.6080 C   0  0  0  0  0  2  0  0  0  0  0  0
  183.1410  175.8240  137.5970 S   0  0  0  0  0  0  0  0  0  0  0  0
  182.6260  175.4490  138.9570 O   0  0  0  0  0  0  0  0  0  0  0  0
  182.0630  175.6030  136.5740 O   0  0  0  0  0  0  0  0  0  0  0  0
  185.4730  175.3390  136.2620 C   0  0  0  0  0  2  0  0  0  0  0  0
  184.5130  174.8440  137.2060 N   0  0  0  0  0  0  0  0  0  0  0  0
  186.9070  173.4610  136.8150 C   0  0  0  0  0  3  0  0  0  0  0  0
  183.6300  172.5710  137.0020 C   0  0  0  0  0  1  0  0  0  0  0  0
  185.9920  172.9130  137.6170 C   0  0  0  0  0  3  0  0  0  0  0  0
  186.6140  174.6870  136.0580 C   0  0  0  0  0  3  0  0  0  0  0  0
  184.6020  173.4770  137.7390 C   0  0  0  0  0  0  0  0  0  0  0  0
  1 10  1  0  0  0  0
  2  7  1  1  0  0  0
  2 11  1  0  0  0  0
  3  1  2  0  0  0  0
  4  7  2  0  0  0  0
  5 10  2  0  0  0  0
  5 14  1  0  0  0  0
  6  4  1  0  0  0  0
  6 13  2  0  0  0  0
  8 19  2  0  0  0  0
  9  7  1  1  0  0  0
  9  2  1  0  0  0  0
  9  3  1  0  0  0  0
  9 11  1  0  0  0  0
 10  8  1  0  0  0  0
 11  5  1  0  0  0  0
 13  3  1  0  0  0  0
 14 21  2  0  0  0  0
 14 22  1  0  0  0  0
 15 18  1  0  0  0  0
 16 24  1  0  0  0  0
 17 12  1  0  0  0  0
 17 16  2  0  0  0  0
 18 12  2  0  0  0  0
 20  4  1  0  0  0  0
 21 17  1  0  0  0  0
 22 19  1  1  0  0  0
 22 16  1  0  0  0  0
 23 15  2  0  0  0  0
 23 21  1  0  0  0  0
 25 27  1  0  0  0  0
 27 36  1  6  0  0  0
 27 26  1  0  0  0  0
 28 24  1  1  0  0  0
 28 25  1  0  0  0  0
 28 29  1  0  0  0  0
 29 33  1  1  0  0  0
 29 26  1  0  0  0  0
 31 33  1  0  0  0  0
 32 33  1  0  0  0  0
 33 30  1  0  0  0  0
 34 36  1  0  0  0  0
 34 35  1  0  0  0  0
 36 35  1  0  0  0  0
 37 15  1  0  0  0  0
 38 37  1  0  0  0  0
 39 42  1  6  0  0  0
 39 38  1  0  0  0  0
 40 41  1  0  0  0  0
 40 39  1  0  0  0  0
 43 42  1  0  0  0  0
 43 44  2  0  0  0  0
 45 43  2  0  0  0  0
 46 47  1  0  0  0  0
 47 43  1  0  0  0  0
 47 52  1  0  0  0  0
 48 50  1  0  0  0  0
 49 52  1  0  0  0  0
 50 52  2  0  0  0  0
 51 46  1  0  0  0  0
 51 48  2  0  0  0  0
M  END
>  <MODEL>
3

>  <REMARK>
 VINA RESULT:      -9.3      3.673      8.614
  Name = 
  11 active torsions:
  status: ('A' for Active; 'I' for Inactive)
    1  A    between atoms: C_2  and  C_49
    2  A    between atoms: N_8  and  S_23
    3  A    between atoms: O_13  and  C_32
    4  A    between atoms: O_13  and  C_37
    5  A    between atoms: C_20  and  C_49
    6  A    between atoms: C_20  and  N_51
    7  A    between atoms: S_23  and  C_50
    8  A    between atoms: N_27  and  C_30
    9  A    between atoms: C_34  and  C_46
   10  A    between atoms: C_36  and  N_51
   11  A    between atoms: C_49  and  C_50
                            x       y       z     vdW  Elec       q    Type
                         _______ _______ _______ _____ _____    ______ ____

>  <TORSDO>
F 11

$$$$
=
 OpenBabel10232409233D

 52 61  0  0  1  0  0  0  0  0999 V2000
  190.0180  177.0760  144.2700 N   0  0  0  0  0  0  0  0  0  0  0  0
  186.3360  178.1640  143.2140 C   0  0  1  0  0  3  0  0  0  0  0  0
  188.8850  177.3590  144.9910 C   0  0  0  0  0  0  0  0  0  0  0  0
  186.2420  178.0170  145.9920 C   0  0  0  0  0  0  0  0  0  0  0  0
  188.7700  177.5310  142.1680 C   0  0  0  0  0  0  0  0  0  0  0  0
  187.3250  177.6640  146.8790 C   0  0  0  0  0  3  0  0  0  0  0  0
  186.5430  178.0210  144.6320 C   0  0  0  0  0  0  0  0  0  0  0  0
  191.1550  176.8870  142.1280 C   0  0  0  0  0  3  0  0  0  0  0  0
  187.8300  177.6970  144.2700 C   0  0  1  0  0  0  0  0  0  0  0  0
  189.9930  177.1580  142.8730 C   0  0  0  0  0  0  0  0  0  0  0  0
  187.6840  177.7980  142.9360 N   0  0  0  0  0  0  0  0  0  0  0  0
  187.6270  178.0810  137.4440 C   0  0  0  0  0  2  0  0  0  0  0  0
  188.6500  177.3330  146.3860 C   0  0  0  0  0  3  0  0  0  0  0  0
  188.7930  177.5970  140.7750 C   0  0  0  0  0  0  0  0  0  0  0  0
  185.6860  178.4720  138.8840 C   0  0  0  0  0  0  0  0  0  0  0  0
  189.7190  177.4730  138.7240 C   0  0  0  0  0  0  0  0  0  0  0  0
  188.3790  177.8280  138.5890 C   0  0  0  0  0  0  0  0  0  0  0  0
  186.2700  178.4070  137.6030 C   0  0  0  0  0  3  0  0  0  0  0  0
  191.1460  176.9730  140.7240 C   0  0  0  0  0  3  0  0  0  0  0  0
  184.8840  178.3430  146.5000 C   0  0  0  0  0  1  0  0  0  0  0  0
  187.8120  177.9020  139.8500 C   0  0  0  0  0  0  0  0  0  0  0  0
  189.9590  177.3280  140.0790 C   0  0  0  0  0  0  0  0  0  0  0  0
  186.4690  178.2200  140.0290 C   0  0  0  0  0  3  0  0  0  0  0  0
  190.6730  177.2880  137.7160 O   0  0  0  0  0  0  0  0  0  0  0  0
  189.8380  175.0750  137.2230 C   0  0  0  0  0  2  0  0  0  0  0  0
  191.5480  174.3670  135.7680 C   0  0  0  0  0  2  0  0  0  0  0  0
  190.4100  173.9030  136.5630 N   0  0  2  0  0  0  0  0  0  0  0  0
  190.5430  176.3030  136.6980 C   0  0  2  0  0  3  0  0  0  0  0  0
  191.8740  175.7920  136.1710 C   0  0  1  0  0  3  0  0  0  0  0  0
  193.3210  177.1180  137.5350 F   0  0  0  0  0  0  0  0  0  0  0  0
  192.6610  175.1330  138.3350 F   0  0  0  0  0  0  0  0  0  0  0  0
  194.1690  175.2220  136.6600 F   0  0  0  0  0  0  0  0  0  0  0  0
  193.0310  175.8100  137.1890 C   0  0  0  0  0  0  0  0  0  0  0  0
  188.0370  173.8950  136.0340 C   0  0  0  0  0  2  0  0  0  0  0  0
  188.4470  172.4800  136.3680 C   0  0  0  0  0  2  0  0  0  0  0  0
  189.4110  173.3950  135.6320 C   0  0  0  0  0  3  0  0  0  0  0  0
  184.2970  178.7950  138.9950 N   0  0  0  0  0  2  0  0  0  0  0  0
  183.6490  179.1740  140.2430 C   0  0  0  0  0  2  0  0  0  0  0  0
  182.4560  178.2700  140.5050 C   0  0  1  0  0  3  0  0  0  0  0  0
  181.6550  178.8010  141.6810 C   0  0  0  0  0  2  0  0  0  0  0  0
  182.5300  178.8870  142.9150 C   0  0  0  0  0  1  0  0  0  0  0  0
  181.5760  178.2170  139.2650 C   0  0  0  0  0  2  0  0  0  0  0  0
  181.4190  176.5390  138.6800 S   0  0  0  0  0  0  0  0  0  0  0  0
  181.7170  175.5950  139.8090 O   0  0  0  0  0  0  0  0  0  0  0  0
  180.0200  176.3020  138.1850 O   0  0  0  0  0  0  0  0  0  0  0  0
  182.6070  177.2230  136.3180 C   0  0  0  0  0  2  0  0  0  0  0  0
  182.5390  176.2690  137.3880 N   0  0  0  0  0  0  0  0  0  0  0  0
  184.5640  176.0610  135.4770 C   0  0  0  0  0  3  0  0  0  0  0  0
  182.3860  173.8750  136.9070 C   0  0  0  0  0  1  0  0  0  0  0  0
  184.4650  175.0940  136.3920 C   0  0  0  0  0  3  0  0  0  0  0  0
  183.5610  177.1320  135.3960 C   0  0  0  0  0  3  0  0  0  0  0  0
  183.2970  175.0120  137.3380 C   0  0  0  0  0  0  0  0  0  0  0  0
  1  3  2  0  0  0  0
  2  9  1  0  0  0  0
  2  7  1  6  0  0  0
  3 13  1  0  0  0  0
  4 20  1  0  0  0  0
  4  6  1  0  0  0  0
  5 10  1  0  0  0  0
  5 11  1  0  0  0  0
  7  4  2  0  0  0  0
  8 10  2  0  0  0  0
  9  7  1  6  0  0  0
  9  3  1  0  0  0  0
 10  1  1  0  0  0  0
 11  2  1  0  0  0  0
 11  9  1  0  0  0  0
 12 18  1  0  0  0  0
 12 17  1  0  0  0  0
 13  6  2  0  0  0  0
 14  5  2  0  0  0  0
 15 37  1  0  0  0  0
 15 23  1  0  0  0  0
 16 22  1  0  0  0  0
 17 16  2  0  0  0  0
 17 21  1  0  0  0  0
 18 15  2  0  0  0  0
 19  8  1  0  0  0  0
 21 23  2  0  0  0  0
 21 14  1  0  0  0  0
 22 19  2  0  0  0  0
 22 14  1  0  0  0  0
 24 16  1  0  0  0  0
 26 29  1  0  0  0  0
 26 27  1  0  0  0  0
 27 36  1  6  0  0  0
 27 25  1  0  0  0  0
 28 25  1  0  0  0  0
 28 24  1  1  0  0  0
 29 28  1  0  0  0  0
 29 33  1  1  0  0  0
 32 33  1  0  0  0  0
 33 30  1  0  0  0  0
 33 31  1  0  0  0  0
 34 35  1  0  0  0  0
 36 34  1  0  0  0  0
 36 35  1  0  0  0  0
 37 38  1  0  0  0  0
 38 39  1  0  0  0  0
 39 42  1  6  0  0  0
 39 40  1  0  0  0  0
 40 41  1  0  0  0  0
 43 42  1  0  0  0  0
 43 44  2  0  0  0  0
 45 43  2  0  0  0  0
 46 47  1  0  0  0  0
 47 43  1  0  0  0  0
 48 50  1  0  0  0  0
 49 52  1  0  0  0  0
 50 52  2  0  0  0  0
 51 48  2  0  0  0  0
 51 46  1  0  0  0  0
 52 47  1  0  0  0  0
M  END
>  <MODEL>
4

>  <REMARK>
 VINA RESULT:      -9.1      3.670      7.182
  Name = 
  11 active torsions:
  status: ('A' for Active; 'I' for Inactive)
    1  A    between atoms: C_2  and  C_49
    2  A    between atoms: N_8  and  S_23
    3  A    between atoms: O_13  and  C_32
    4  A    between atoms: O_13  and  C_37
    5  A    between atoms: C_20  and  C_49
    6  A    between atoms: C_20  and  N_51
    7  A    between atoms: S_23  and  C_50
    8  A    between atoms: N_27  and  C_30
    9  A    between atoms: C_34  and  C_46
   10  A    between atoms: C_36  and  N_51
   11  A    between atoms: C_49  and  C_50
                            x       y       z     vdW  Elec       q    Type
                         _______ _______ _______ _____ _____    ______ ____

>  <TORSDO>
F 11

$$$$
=
 OpenBabel10232409233D

 52 61  0  0  1  0  0  0  0  0999 V2000
  181.4490  179.0440  142.6680 N   0  0  0  0  0  0  0  0  0  0  0  0
  183.9260  179.0600  139.5500 C   0  0  1  0  0  3  0  0  0  0  0  0
  181.2560  179.2380  141.3230 C   0  0  0  0  0  0  0  0  0  0  0  0
  181.4180  179.5350  138.4400 C   0  0  0  0  0  0  0  0  0  0  0  0
  183.8810  178.7320  142.2550 C   0  0  0  0  0  0  0  0  0  0  0  0
  180.1620  179.6310  139.1460 C   0  0  0  0  0  3  0  0  0  0  0  0
  182.5430  179.2920  139.2270 C   0  0  0  0  0  0  0  0  0  0  0  0
  182.9440  178.6150  144.5380 C   0  0  0  0  0  3  0  0  0  0  0  0
  182.3500  179.1720  140.5840 C   0  0  1  0  0  0  0  0  0  0  0  0
  182.7360  178.7980  143.1590 C   0  0  0  0  0  0  0  0  0  0  0  0
  183.6260  178.9330  140.9370 N   0  0  0  0  0  0  0  0  0  0  0  0
  188.6630  177.9340  142.9080 C   0  0  0  0  0  3  0  0  0  0  0  0
  180.0720  179.4830  140.5880 C   0  0  0  0  0  3  0  0  0  0  0  0
  185.1440  178.4820  142.7900 C   0  0  0  0  0  0  0  0  0  0  0  0
  188.1210  178.2250  140.5380 C   0  0  0  0  0  0  0  0  0  0  0  0
  186.6470  178.0910  144.4240 C   0  0  0  0  0  0  0  0  0  0  0  0
  187.3120  178.1150  143.2000 C   0  0  0  0  0  0  0  0  0  0  0  0
  189.0610  177.9940  141.5630 C   0  0  0  0  0  3  0  0  0  0  0  0
  184.2340  178.3740  145.0450 C   0  0  0  0  0  3  0  0  0  0  0  0
  181.5030  179.6740  136.9640 C   0  0  0  0  0  1  0  0  0  0  0  0
  186.3870  178.3530  142.1990 C   0  0  1  0  0  3  0  0  0  0  0  0
  185.3080  178.3130  144.1530 C   0  0  0  0  0  0  0  0  0  0  0  0
  186.7610  178.4130  140.8590 C   0  0  0  0  0  3  0  0  0  0  0  0
  187.1850  177.8860  145.7000 O   0  0  0  0  0  0  0  0  0  0  0  0
  189.2740  176.6840  145.8580 C   0  0  0  0  0  2  0  0  0  0  0  0
  190.2000  177.8210  147.6990 C   0  0  0  0  0  2  0  0  0  0  0  0
  190.3360  176.6280  146.8610 N   0  0  2  0  0  0  0  0  0  0  0  0
  188.5720  178.0150  145.9860 C   0  0  2  0  0  3  0  0  0  0  0  0
  188.8620  178.4720  147.4060 C   0  0  1  0  0  3  0  0  0  0  0  0
  187.6640  176.6730  148.4270 F   0  0  0  0  0  0  0  0  0  0  0  0
  188.2450  178.4080  149.7190 F   0  0  0  0  0  0  0  0  0  0  0  0
  186.5900  178.6420  148.2040 F   0  0  0  0  0  0  0  0  0  0  0  0
  187.8170  178.0480  148.4550 C   0  0  0  0  0  0  0  0  0  0  0  0
  191.6180  175.7880  144.9750 C   0  0  0  0  0  2  0  0  0  0  0  0
  192.3500  175.4130  146.2420 C   0  0  0  0  0  2  0  0  0  0  0  0
  191.6070  176.7360  146.1580 C   0  0  0  0  0  3  0  0  0  0  0  0
  188.5720  178.2650  139.1810 N   0  0  0  0  0  2  0  0  0  0  0  0
  189.7910  177.6230  138.7110 C   0  0  0  0  0  2  0  0  0  0  0  0
  189.5670  177.0290  137.3300 C   0  0  1  0  0  3  0  0  0  0  0  0
  190.8080  176.2740  136.8870 C   0  0  0  0  0  2  0  0  0  0  0  0
  191.8080  176.1970  138.0210 C   0  0  0  0  0  1  0  0  0  0  0  0
  188.3760  176.0840  137.3710 C   0  0  0  0  0  2  0  0  0  0  0  0
  187.1140  176.6180  136.2290 S   0  0  0  0  0  0  0  0  0  0  0  0
  187.0030  178.1150  136.2840 O   0  0  0  0  0  0  0  0  0  0  0  0
  187.4770  176.1940  134.8340 O   0  0  0  0  0  0  0  0  0  0  0  0
  185.5470  174.5060  136.9620 C   0  0  0  0  0  2  0  0  0  0  0  0
  185.5970  175.9100  136.6690 N   0  0  0  0  0  0  0  0  0  0  0  0
  183.2600  174.8000  137.7200 C   0  0  0  0  0  3  0  0  0  0  0  0
  183.9620  176.9200  135.1550 C   0  0  0  0  0  1  0  0  0  0  0  0
  183.2350  176.0840  137.3560 C   0  0  0  0  0  3  0  0  0  0  0  0
  184.4380  173.9610  137.4550 C   0  0  0  0  0  3  0  0  0  0  0  0
  184.3730  176.7190  136.6040 C   0  0  0  0  0  0  0  0  0  0  0  0
  1 10  1  0  0  0  0
  2  7  1  6  0  0  0
  2  9  1  0  0  0  0
  2 11  1  0  0  0  0
  3  1  2  0  0  0  0
  4  6  1  0  0  0  0
  4  7  2  0  0  0  0
  5 14  2  0  0  0  0
  5 10  1  0  0  0  0
  6 13  2  0  0  0  0
  8 19  1  0  0  0  0
  9  7  1  6  0  0  0
  9 11  1  0  0  0  0
  9  3  1  0  0  0  0
 10  8  2  0  0  0  0
 11  5  1  0  0  0  0
 12 17  1  0  0  0  0
 13  3  1  0  0  0  0
 14 22  1  0  0  0  0
 15 23  2  0  0  0  0
 15 18  1  0  0  0  0
 16 24  1  0  0  0  0
 17 16  2  0  0  0  0
 18 12  2  0  0  0  0
 20  4  1  0  0  0  0
 21 23  1  6  0  0  0
 21 14  1  0  0  0  0
 21 17  1  0  0  0  0
 22 16  1  0  0  0  0
 22 19  2  0  0  0  0
 25 28  1  0  0  0  0
 25 27  1  0  0  0  0
 27 36  1  6  0  0  0
 27 26  1  0  0  0  0
 28 24  1  1  0  0  0
 28 29  1  0  0  0  0
 29 26  1  0  0  0  0
 29 33  1  1  0  0  0
 30 33  1  0  0  0  0
 32 33  1  0  0  0  0
 33 31  1  0  0  0  0
 34 36  1  0  0  0  0
 34 35  1  0  0  0  0
 36 35  1  0  0  0  0
 37 15  1  0  0  0  0
 38 37  1  0  0  0  0
 39 40  1  1  0  0  0
 39 42  1  0  0  0  0
 39 38  1  0  0  0  0
 40 41  1  0  0  0  0
 43 44  2  0  0  0  0
 43 47  1  0  0  0  0
 43 42  1  0  0  0  0
 45 43  2  0  0  0  0
 46 51  1  0  0  0  0
 47 46  1  0  0  0  0
 49 52  1  0  0  0  0
 50 48  1  0  0  0  0
 51 48  2  0  0  0  0
 52 47  1  0  0  0  0
 52 50  2  0  0  0  0
M  END
>  <MODEL>
5

>  <REMARK>
 VINA RESULT:      -9.1      3.464      7.560
  Name = 
  11 active torsions:
  status: ('A' for Active; 'I' for Inactive)
    1  A    between atoms: C_2  and  C_49
    2  A    between atoms: N_8  and  S_23
    3  A    between atoms: O_13  and  C_32
    4  A    between atoms: O_13  and  C_37
    5  A    between atoms: C_20  and  C_49
    6  A    between atoms: C_20  and  N_51
    7  A    between atoms: S_23  and  C_50
    8  A    between atoms: N_27  and  C_30
    9  A    between atoms: C_34  and  C_46
   10  A    between atoms: C_36  and  N_51
   11  A    between atoms: C_49  and  C_50
                            x       y       z     vdW  Elec       q    Type
                         _______ _______ _______ _____ _____    ______ ____

>  <TORSDO>
F 11

$$$$
=
 OpenBabel10232409233D

 52 61  0  0  1  0  0  0  0  0999 V2000
  185.4300  178.3090  137.4100 N   0  0  0  0  0  0  0  0  0  0  0  0
  186.1940  178.3500  141.3180 C   0  0  1  0  0  3  0  0  0  0  0  0
  184.6430  178.5270  138.5130 C   0  0  0  0  0  0  0  0  0  0  0  0
  183.4780  178.9350  141.1400 C   0  0  0  0  0  0  0  0  0  0  0  0
  187.3930  177.9810  138.8990 C   0  0  0  0  0  0  0  0  0  0  0  0
  182.6910  179.0400  139.9340 C   0  0  0  0  0  3  0  0  0  0  0  0
  184.8260  178.6280  140.9640 C   0  0  0  0  0  0  0  0  0  0  0  0
  187.6010  177.7880  136.4450 C   0  0  0  0  0  3  0  0  0  0  0  0
  185.2700  178.4510  139.6740 C   0  0  1  0  0  0  0  0  0  0  0  0
  186.7920  178.0300  137.5700 C   0  0  0  0  0  0  0  0  0  0  0  0
  186.5630  178.2050  139.9490 N   0  0  0  0  0  0  0  0  0  0  0  0
  191.9280  177.1350  140.5290 C   0  0  0  0  0  3  0  0  0  0  0  0
  183.2660  178.8380  138.6160 C   0  0  0  0  0  3  0  0  0  0  0  0
  188.7550  177.7020  139.0090 C   0  0  0  0  0  0  0  0  0  0  0  0
  190.3930  177.6270  142.3720 C   0  0  0  0  0  0  0  0  0  0  0  0
  190.8210  177.2040  138.2580 C   0  0  0  0  0  0  0  0  0  0  0  0
  190.8600  177.2940  139.6470 C   0  0  0  0  0  0  0  0  0  0  0  0
  191.6820  177.3030  141.9010 C   0  0  0  0  0  2  0  0  0  0  0  0
  188.9700  177.5000  136.5930 C   0  0  0  0  0  3  0  0  0  0  0  0
  182.8880  179.1560  142.4850 C   0  0  0  0  0  1  0  0  0  0  0  0
  189.5910  177.6020  140.1060 C   0  0  0  0  0  0  0  0  0  0  0  0
  189.5160  177.4640  137.8780 C   0  0  0  0  0  0  0  0  0  0  0  0
  189.3270  177.7760  141.4620 C   0  0  0  0  0  3  0  0  0  0  0  0
  191.8700  176.9100  137.3780 O   0  0  0  0  0  0  0  0  0  0  0  0
  193.9950  176.0280  136.6430 C   0  0  0  0  0  2  0  0  0  0  0  0
  193.6930  173.7860  137.2930 C   0  0  0  0  0  2  0  0  0  0  0  0
  194.5300  174.6760  136.4870 N   0  0  2  0  0  0  0  0  0  0  0  0
  192.9070  175.9880  137.6890 C   0  0  2  0  0  3  0  0  0  0  0  0
  192.4470  174.5390  137.7150 C   0  0  1  0  0  3  0  0  0  0  0  0
  191.2530  175.1130  135.7260 F   0  0  0  0  0  0  0  0  0  0  0  0
  191.4350  172.9420  136.2460 F   0  0  0  0  0  0  0  0  0  0  0  0
  190.0630  174.2720  137.4450 F   0  0  0  0  0  0  0  0  0  0  0  0
  191.2740  174.2090  136.7730 C   0  0  0  0  0  0  0  0  0  0  0  0
  196.8150  175.4500  136.1910 C   0  0  0  0  0  2  0  0  0  0  0  0
  196.8220  173.9400  136.1410 C   0  0  0  0  0  2  0  0  0  0  0  0
  195.8640  174.6640  137.0720 C   0  0  0  0  0  3  0  0  0  0  0  0
  190.1930  177.8000  143.7780 N   0  0  0  0  0  2  0  0  0  0  0  0
  191.1710  177.4260  144.7900 C   0  0  0  0  0  2  0  0  0  0  0  0
  190.4630  177.0110  146.0690 C   0  0  1  0  0  3  0  0  0  0  0  0
  191.4770  176.4930  147.0740 C   0  0  0  0  0  2  0  0  0  0  0  0
  192.3460  175.4270  146.4400 C   0  0  0  0  0  1  0  0  0  0  0  0
  189.7250  178.2060  146.6520 C   0  0  0  0  0  2  0  0  0  0  0  0
  188.2990  177.6690  147.5820 S   0  0  0  0  0  0  0  0  0  0  0  0
  188.4120  176.1940  147.8460 O   0  0  0  0  0  0  0  0  0  0  0  0
  188.2360  178.4080  148.8880 O   0  0  0  0  0  0  0  0  0  0  0  0
  185.6010  178.0220  147.3570 C   0  0  0  0  0  2  0  0  0  0  0  0
  186.8610  177.9850  146.6710 N   0  0  0  0  0  0  0  0  0  0  0  0
  184.5740  178.8360  145.3140 C   0  0  0  0  0  3  0  0  0  0  0  0
  187.1160  176.6890  144.6120 C   0  0  0  0  0  1  0  0  0  0  0  0
  185.7050  178.7090  144.6170 C   0  0  0  0  0  3  0  0  0  0  0  0
  184.5010  178.4170  146.7210 C   0  0  0  0  0  3  0  0  0  0  0  0
  186.9360  178.0740  145.2070 C   0  0  0  0  0  0  0  0  0  0  0  0
  1 10  1  0  0  0  0
  1  3  2  0  0  0  0
  2  7  1  6  0  0  0
  3 13  1  0  0  0  0
  4 20  1  0  0  0  0
  5 14  1  0  0  0  0
  5 11  1  0  0  0  0
  6  4  1  0  0  0  0
  7  4  2  0  0  0  0
  8 19  2  0  0  0  0
  8 10  1  0  0  0  0
  9  3  1  1  0  0  0
  9 11  1  0  0  0  0
  9  7  1  0  0  0  0
  9  2  1  0  0  0  0
 10  5  2  0  0  0  0
 11  2  1  0  0  0  0
 12 18  1  0  0  0  0
 13  6  2  0  0  0  0
 14 21  2  0  0  0  0
 15 37  1  0  0  0  0
 16 17  1  0  0  0  0
 17 21  1  0  0  0  0
 17 12  2  0  0  0  0
 18 15  1  0  0  0  0
 19 22  1  0  0  0  0
 21 23  1  0  0  0  0
 22 16  2  0  0  0  0
 22 14  1  0  0  0  0
 23 15  2  0  0  0  0
 24 16  1  0  0  0  0
 25 28  1  0  0  0  0
 26 29  1  0  0  0  0
 27 25  1  0  0  0  0
 27 36  1  1  0  0  0
 27 26  1  0  0  0  0
 28 24  1  6  0  0  0
 28 29  1  0  0  0  0
 29 33  1  6  0  0  0
 30 33  1  0  0  0  0
 31 33  1  0  0  0  0
 33 32  1  0  0  0  0
 34 36  1  0  0  0  0
 35 34  1  0  0  0  0
 35 36  1  0  0  0  0
 37 38  1  0  0  0  0
 39 38  1  6  0  0  0
 39 42  1  0  0  0  0
 39 40  1  0  0  0  0
 41 40  1  0  0  0  0
 42 43  1  0  0  0  0
 43 44  2  0  0  0  0
 43 45  2  0  0  0  0
 47 46  1  0  0  0  0
 47 43  1  0  0  0  0
 48 51  2  0  0  0  0
 49 52  1  0  0  0  0
 50 52  2  0  0  0  0
 50 48  1  0  0  0  0
 51 46  1  0  0  0  0
 52 47  1  0  0  0  0
M  END
>  <MODEL>
6

>  <REMARK>
 VINA RESULT:      -8.8      4.071      9.582
  Name = 
  11 active torsions:
  status: ('A' for Active; 'I' for Inactive)
    1  A    between atoms: C_2  and  C_49
    2  A    between atoms: N_8  and  S_23
    3  A    between atoms: O_13  and  C_32
    4  A    between atoms: O_13  and  C_37
    5  A    between atoms: C_20  and  C_49
    6  A    between atoms: C_20  and  N_51
    7  A    between atoms: S_23  and  C_50
    8  A    between atoms: N_27  and  C_30
    9  A    between atoms: C_34  and  C_46
   10  A    between atoms: C_36  and  N_51
   11  A    between atoms: C_49  and  C_50
                            x       y       z     vdW  Elec       q    Type
                         _______ _______ _______ _____ _____    ______ ____

>  <TORSDO>
F 11

$$$$
=
 OpenBabel10232409233D

 52 61  0  0  1  0  0  0  0  0999 V2000
  181.4260  179.0920  142.6960 N   0  0  0  0  0  0  0  0  0  0  0  0
  183.8690  178.9880  139.5530 C   0  0  1  0  0  3  0  0  0  0  0  0
  181.2230  179.2640  141.3490 C   0  0  0  0  0  0  0  0  0  0  0  0
  181.3610  179.4990  138.4600 C   0  0  0  0  0  0  0  0  0  0  0  0
  183.8450  178.7170  142.2640 C   0  0  0  0  0  0  0  0  0  0  0  0
  180.1140  179.6380  139.1760 C   0  0  0  0  0  3  0  0  0  0  0  0
  182.4880  179.2450  139.2390 C   0  0  0  0  0  0  0  0  0  0  0  0
  182.9310  178.6670  144.5590 C   0  0  0  0  0  3  0  0  0  0  0  0
  182.3070  179.1580  140.6000 C   0  0  1  0  0  0  0  0  0  0  0  0
  182.7120  178.8270  143.1780 C   0  0  0  0  0  0  0  0  0  0  0  0
  183.5810  178.8960  140.9450 N   0  0  0  0  0  0  0  0  0  0  0  0
  188.6140  177.8220  142.8840 C   0  0  0  0  0  3  0  0  0  0  0  0
  180.0370  179.5210  140.6210 C   0  0  0  0  0  3  0  0  0  0  0  0
  185.1080  178.4480  142.7900 C   0  0  0  0  0  0  0  0  0  0  0  0
  188.0540  178.0770  140.5140 C   0  0  0  0  0  0  0  0  0  0  0  0
  186.6190  178.0550  144.4160 C   0  0  0  0  0  0  0  0  0  0  0  0
  187.2720  178.0390  143.1860 C   0  0  0  0  0  0  0  0  0  0  0  0
  189.0000  177.8450  141.5330 C   0  0  0  0  0  3  0  0  0  0  0  0
  184.2210  178.4060  145.0570 C   0  0  0  0  0  3  0  0  0  0  0  0
  181.4330  179.6060  136.9800 C   0  0  0  0  0  1  0  0  0  0  0  0
  186.3410  178.2790  142.1890 C   0  0  1  0  0  3  0  0  0  0  0  0
  185.2830  178.3030  144.1560 C   0  0  0  0  0  0  0  0  0  0  0  0
  186.7030  178.3020  140.8450 C   0  0  0  0  0  3  0  0  0  0  0  0
  187.1660  177.8640  145.6910 O   0  0  0  0  0  0  0  0  0  0  0  0
  189.2710  176.6800  145.7170 C   0  0  0  0  0  2  0  0  0  0  0  0
  190.2160  177.6760  147.6290 C   0  0  0  0  0  2  0  0  0  0  0  0
  190.3510  176.5560  146.6950 N   0  0  2  0  0  0  0  0  0  0  0  0
  188.5560  177.9870  145.9640 C   0  0  2  0  0  3  0  0  0  0  0  0
  188.8660  178.3310  147.4120 C   0  0  1  0  0  3  0  0  0  0  0  0
  187.8730  176.4280  148.4620 F   0  0  0  0  0  0  0  0  0  0  0  0
  188.1700  178.2700  149.7020 F   0  0  0  0  0  0  0  0  0  0  0  0
  186.5610  178.2280  148.1210 F   0  0  0  0  0  0  0  0  0  0  0  0
  187.8440  177.8110  148.4400 C   0  0  0  0  0  0  0  0  0  0  0  0
  191.6220  175.8650  144.7430 C   0  0  0  0  0  2  0  0  0  0  0  0
  192.3810  175.4290  145.9740 C   0  0  0  0  0  2  0  0  0  0  0  0
  191.6090  176.7370  145.9830 C   0  0  0  0  0  3  0  0  0  0  0  0
  188.4910  178.0790  139.1520 N   0  0  0  0  0  2  0  0  0  0  0  0
  187.6550  177.6760  138.0300 C   0  0  0  0  0  2  0  0  0  0  0  0
  188.2250  176.4270  137.3790 C   0  0  1  0  0  3  0  0  0  0  0  0
  187.3390  175.9990  136.2220 C   0  0  0  0  0  2  0  0  0  0  0  0
  185.8910  176.3200  136.5250 C   0  0  0  0  0  1  0  0  0  0  0  0
  189.6310  176.7130  136.8720 C   0  0  0  0  0  2  0  0  0  0  0  0
  190.7880  175.5240  137.5280 S   0  0  0  0  0  0  0  0  0  0  0  0
  191.1080  175.8820  138.9510 O   0  0  0  0  0  0  0  0  0  0  0  0
  190.1850  174.1490  137.4810 O   0  0  0  0  0  0  0  0  0  0  0  0
  192.1490  175.8210  135.1790 C   0  0  0  0  0  2  0  0  0  0  0  0
  192.2400  175.5470  136.5850 N   0  0  0  0  0  0  0  0  0  0  0  0
  194.5710  175.9430  135.1010 C   0  0  0  0  0  3  0  0  0  0  0  0
  193.5540  173.6500  137.3970 C   0  0  0  0  0  1  0  0  0  0  0  0
  194.6970  175.5820  136.3790 C   0  0  0  0  0  3  0  0  0  0  0  0
  193.2510  176.0030  134.4570 C   0  0  0  0  0  3  0  0  0  0  0  0
  193.5120  175.1560  137.2050 C   0  0  0  0  0  0  0  0  0  0  0  0
  1 10  1  0  0  0  0
  2  7  1  6  0  0  0
  2  9  1  0  0  0  0
  2 11  1  0  0  0  0
  3  1  2  0  0  0  0
  4  6  1  0  0  0  0
  4  7  2  0  0  0  0
  5 14  2  0  0  0  0
  5 10  1  0  0  0  0
  6 13  2  0  0  0  0
  8 19  1  0  0  0  0
  9  7  1  6  0  0  0
  9 11  1  0  0  0  0
  9  3  1  0  0  0  0
 10  8  2  0  0  0  0
 11  5  1  0  0  0  0
 12 17  1  0  0  0  0
 13  3  1  0  0  0  0
 14 22  1  0  0  0  0
 15 23  2  0  0  0  0
 15 18  1  0  0  0  0
 16 24  1  0  0  0  0
 17 16  2  0  0  0  0
 18 12  2  0  0  0  0
 20  4  1  0  0  0  0
 21 23  1  6  0  0  0
 21 14  1  0  0  0  0
 21 17  1  0  0  0  0
 22 16  1  0  0  0  0
 22 19  2  0  0  0  0
 25 28  1  0  0  0  0
 25 27  1  0  0  0  0
 27 36  1  6  0  0  0
 27 26  1  0  0  0  0
 28 24  1  1  0  0  0
 28 29  1  0  0  0  0
 29 26  1  0  0  0  0
 29 33  1  1  0  0  0
 32 33  1  0  0  0  0
 33 30  1  0  0  0  0
 33 31  1  0  0  0  0
 34 35  1  0  0  0  0
 34 36  1  0  0  0  0
 35 36  1  0  0  0  0
 37 15  1  0  0  0  0
 38 37  1  0  0  0  0
 39 40  1  6  0  0  0
 39 38  1  0  0  0  0
 40 41  1  0  0  0  0
 42 39  1  0  0  0  0
 42 43  1  0  0  0  0
 43 44  2  0  0  0  0
 45 43  2  0  0  0  0
 46 47  1  0  0  0  0
 47 52  1  0  0  0  0
 47 43  1  0  0  0  0
 48 50  1  0  0  0  0
 50 52  2  0  0  0  0
 51 48  2  0  0  0  0
 51 46  1  0  0  0  0
 52 49  1  0  0  0  0
M  END
>  <MODEL>
7

>  <REMARK>
 VINA RESULT:      -8.8      3.530      7.912
  Name = 
  11 active torsions:
  status: ('A' for Active; 'I' for Inactive)
    1  A    between atoms: C_2  and  C_49
    2  A    between atoms: N_8  and  S_23
    3  A    between atoms: O_13  and  C_32
    4  A    between atoms: O_13  and  C_37
    5  A    between atoms: C_20  and  C_49
    6  A    between atoms: C_20  and  N_51
    7  A    between atoms: S_23  and  C_50
    8  A    between atoms: N_27  and  C_30
    9  A    between atoms: C_34  and  C_46
   10  A    between atoms: C_36  and  N_51
   11  A    between atoms: C_49  and  C_50
                            x       y       z     vdW  Elec       q    Type
                         _______ _______ _______ _____ _____    ______ ____

>  <TORSDO>
F 11

$$$$
=
 OpenBabel10232409233D

 52 61  0  0  1  0  0  0  0  0999 V2000
  186.0150  178.0420  146.2940 N   0  0  0  0  0  0  0  0  0  0  0  0
  189.1730  177.3990  143.9550 C   0  0  1  0  0  3  0  0  0  0  0  0
  187.3080  177.6640  146.5540 C   0  0  0  0  0  0  0  0  0  0  0  0
  190.1170  176.9340  146.5320 C   0  0  0  0  0  0  0  0  0  0  0  0
  186.5480  178.1250  143.8670 C   0  0  0  0  0  0  0  0  0  0  0  0
  189.3650  177.0280  147.7610 C   0  0  0  0  0  3  0  0  0  0  0  0
  189.4130  177.2150  145.3630 C   0  0  0  0  0  0  0  0  0  0  0  0
  184.2790  178.6410  144.6980 C   0  0  0  0  0  3  0  0  0  0  0  0
  188.0840  177.5470  145.4910 C   0  0  1  0  0  0  0  0  0  0  0  0
  185.6080  178.2710  144.9750 C   0  0  0  0  0  0  0  0  0  0  0  0
  187.8110  177.7490  144.1890 N   0  0  0  0  0  0  0  0  0  0  0  0
  186.1760  178.6890  139.0220 C   0  0  0  0  0  2  0  0  0  0  0  0
  187.9600  177.3930  147.7810 C   0  0  0  0  0  3  0  0  0  0  0  0
  186.0980  178.3660  142.5690 C   0  0  0  0  0  0  0  0  0  0  0  0
  188.4570  178.0880  139.6790 C   0  0  0  0  0  0  0  0  0  0  0  0
  184.5900  178.8940  140.9790 C   0  0  0  0  0  0  0  0  0  0  0  0
  185.8170  178.6440  140.3680 C   0  0  0  0  0  0  0  0  0  0  0  0
  187.5100  178.4040  138.6850 C   0  0  0  0  0  3  0  0  0  0  0  0
  183.8560  178.8680  143.3760 C   0  0  0  0  0  3  0  0  0  0  0  0
  191.5580  176.5730  146.5170 C   0  0  0  0  0  1  0  0  0  0  0  0
  186.7410  178.3230  141.3470 C   0  0  0  0  0  0  0  0  0  0  0  0
  184.7810  178.7240  142.3390 C   0  0  0  0  0  0  0  0  0  0  0  0
  188.0680  178.0410  141.0330 C   0  0  0  0  0  3  0  0  0  0  0  0
  183.3770  179.2480  140.3760 O   0  0  0  0  0  0  0  0  0  0  0  0
  183.0900  177.2890  138.9930 C   0  0  0  0  0  2  0  0  0  0  0  0
  180.9490  177.7680  138.1380 C   0  0  0  0  0  2  0  0  0  0  0  0
  182.1230  176.9090  137.9650 N   0  0  2  0  0  0  0  0  0  0  0  0
  182.4340  178.2910  139.9130 C   0  0  2  0  0  3  0  0  0  0  0  0
  181.3070  178.8930  139.0900 C   0  0  1  0  0  3  0  0  0  0  0  0
  180.8940  181.2200  138.7290 F   0  0  0  0  0  0  0  0  0  0  0  0
  183.0030  180.4900  138.5330 F   0  0  0  0  0  0  0  0  0  0  0  0
  181.4860  179.9810  136.9420 F   0  0  0  0  0  0  0  0  0  0  0  0
  181.6800  180.1640  138.3030 C   0  0  0  0  0  0  0  0  0  0  0  0
  182.7830  174.5760  137.7960 C   0  0  0  0  0  2  0  0  0  0  0  0
  181.5570  174.7790  136.9370 C   0  0  0  0  0  2  0  0  0  0  0  0
  181.7030  175.5420  138.2420 C   0  0  0  0  0  3  0  0  0  0  0  0
  189.8060  177.8170  139.2890 N   0  0  0  0  0  2  0  0  0  0  0  0
  190.4560  176.5240  139.4530 C   0  0  0  0  0  2  0  0  0  0  0  0
  190.8950  175.9870  138.1000 C   0  0  1  0  0  3  0  0  0  0  0  0
  190.1980  176.7540  136.9900 C   0  0  0  0  0  2  0  0  0  0  0  0
  189.1880  175.8660  136.2940 C   0  0  0  0  0  1  0  0  0  0  0  0
  192.4020  176.1340  137.9600 C   0  0  0  0  0  2  0  0  0  0  0  0
  193.0580  174.8690  136.8860 S   0  0  0  0  0  0  0  0  0  0  0  0
  192.3840  173.5630  137.1970 O   0  0  0  0  0  0  0  0  0  0  0  0
  192.8010  175.2360  135.4520 O   0  0  0  0  0  0  0  0  0  0  0  0
  195.2510  174.5750  138.4860 C   0  0  0  0  0  2  0  0  0  0  0  0
  194.7630  174.7160  137.1440 N   0  0  0  0  0  0  0  0  0  0  0  0
  197.4540  174.1150  137.5810 C   0  0  0  0  0  3  0  0  0  0  0  0
  195.7830  176.3330  135.6180 C   0  0  0  0  0  1  0  0  0  0  0  0
  197.0600  174.3480  136.3270 C   0  0  0  0  0  3  0  0  0  0  0  0
  196.5320  174.2970  138.7100 C   0  0  0  0  0  3  0  0  0  0  0  0
  195.6840  174.8690  136.0100 C   0  0  0  0  0  0  0  0  0  0  0  0
  1  3  2  0  0  0  0
  2 11  1  0  0  0  0
  2  7  1  1  0  0  0
  2  9  1  0  0  0  0
  3 13  1  0  0  0  0
  4  6  1  0  0  0  0
  5 11  1  0  0  0  0
  5 10  1  0  0  0  0
  6 13  2  0  0  0  0
  7  4  2  0  0  0  0
  8 10  2  0  0  0  0
  9  7  1  1  0  0  0
  9  3  1  0  0  0  0
 10  1  1  0  0  0  0
 11  9  1  0  0  0  0
 12 17  1  0  0  0  0
 14  5  2  0  0  0  0
 15 23  1  0  0  0  0
 16 22  1  0  0  0  0
 17 16  2  0  0  0  0
 17 21  1  0  0  0  0
 18 12  1  0  0  0  0
 18 15  2  0  0  0  0
 19  8  1  0  0  0  0
 20  4  1  0  0  0  0
 21 14  1  0  0  0  0
 22 14  1  0  0  0  0
 22 19  2  0  0  0  0
 23 21  2  0  0  0  0
 24 16  1  0  0  0  0
 25 28  1  0  0  0  0
 26 29  1  0  0  0  0
 27 26  1  0  0  0  0
 27 36  1  1  0  0  0
 27 25  1  0  0  0  0
 28 24  1  6  0  0  0
 29 33  1  6  0  0  0
 29 28  1  0  0  0  0
 32 33  1  0  0  0  0
 33 31  1  0  0  0  0
 33 30  1  0  0  0  0
 34 36  1  0  0  0  0
 35 34  1  0  0  0  0
 35 36  1  0  0  0  0
 37 38  1  0  0  0  0
 37 15  1  0  0  0  0
 39 40  1  6  0  0  0
 39 38  1  0  0  0  0
 41 40  1  0  0  0  0
 42 39  1  0  0  0  0
 43 47  1  0  0  0  0
 43 44  2  0  0  0  0
 43 42  1  0  0  0  0
 45 43  2  0  0  0  0
 46 51  1  0  0  0  0
 47 46  1  0  0  0  0
 48 51  2  0  0  0  0
 49 52  1  0  0  0  0
 50 48  1  0  0  0  0
 52 50  2  0  0  0  0
 52 47  1  0  0  0  0
M  END
>  <MODEL>
8

>  <REMARK>
 VINA RESULT:      -8.7      1.755      3.775
  Name = 
  11 active torsions:
  status: ('A' for Active; 'I' for Inactive)
    1  A    between atoms: C_2  and  C_49
    2  A    between atoms: N_8  and  S_23
    3  A    between atoms: O_13  and  C_32
    4  A    between atoms: O_13  and  C_37
    5  A    between atoms: C_20  and  C_49
    6  A    between atoms: C_20  and  N_51
    7  A    between atoms: S_23  and  C_50
    8  A    between atoms: N_27  and  C_30
    9  A    between atoms: C_34  and  C_46
   10  A    between atoms: C_36  and  N_51
   11  A    between atoms: C_49  and  C_50
                            x       y       z     vdW  Elec       q    Type
                         _______ _______ _______ _____ _____    ______ ____

>  <TORSDO>
F 11

$$$$
=
 OpenBabel10232409233D

 52 61  0  0  1  0  0  0  0  0999 V2000
  190.9110  175.8600  135.0420 N   0  0  0  0  0  0  0  0  0  0  0  0
  192.4360  176.1110  138.7120 C   0  0  1  0  0  3  0  0  0  0  0  0
  192.1320  175.5240  135.5710 C   0  0  0  0  0  0  0  0  0  0  0  0
  194.4760  174.9780  137.1930 C   0  0  0  0  0  0  0  0  0  0  0  0
  190.1730  176.6330  137.2870 C   0  0  0  0  0  0  0  0  0  0  0  0
  194.4390  174.6730  135.7830 C   0  0  0  0  0  3  0  0  0  0  0  0
  193.3200  175.5480  137.7250 C   0  0  0  0  0  0  0  0  0  0  0  0
  188.6760  176.7790  135.3270 C   0  0  0  0  0  3  0  0  0  0  0  0
  192.2700  175.7660  136.8630 C   0  0  1  0  0  0  0  0  0  0  0  0
  189.9240  176.4160  135.8650 C   0  0  0  0  0  0  0  0  0  0  0  0
  191.3990  176.2810  137.7490 N   0  0  0  0  0  0  0  0  0  0  0  0
  187.4830  178.4420  140.9510 C   0  0  0  0  0  3  0  0  0  0  0  0
  193.2700  174.9420  134.9640 C   0  0  0  0  0  3  0  0  0  0  0  0
  189.1590  177.1870  138.0680 C   0  0  0  0  0  0  0  0  0  0  0  0
  189.6840  177.7110  141.7350 C   0  0  0  0  0  0  0  0  0  0  0  0
  187.1260  178.0700  138.4770 C   0  0  0  0  0  0  0  0  0  0  0  0
  187.8470  178.0380  139.6680 C   0  0  0  0  0  0  0  0  0  0  0  0
  188.4170  178.2750  141.9860 C   0  0  0  0  0  2  0  0  0  0  0  0
  187.6790  177.3450  136.1420 C   0  0  0  0  0  3  0  0  0  0  0  0
  195.6690  174.6890  138.0300 C   0  0  0  0  0  1  0  0  0  0  0  0
  189.0950  177.4930  139.4140 C   0  0  0  0  0  0  0  0  0  0  0  0
  187.9470  177.5360  137.4990 C   0  0  0  0  0  0  0  0  0  0  0  0
  190.0340  177.3170  140.4270 C   0  0  0  0  0  3  0  0  0  0  0  0
  185.8250  178.5400  138.2640 O   0  0  0  0  0  0  0  0  0  0  0  0
  183.9320  177.9450  136.8850 C   0  0  0  0  0  2  0  0  0  0  0  0
  182.3710  177.5110  138.5930 C   0  0  0  0  0  2  0  0  0  0  0  0
  182.5100  177.7410  137.1540 N   0  0  2  0  0  0  0  0  0  0  0  0
  184.6970  177.6800  138.1600 C   0  0  2  0  0  3  0  0  0  0  0  0
  183.6780  177.8740  139.2710 C   0  0  1  0  0  3  0  0  0  0  0  0
  184.6040  179.4670  140.7930 F   0  0  0  0  0  0  0  0  0  0  0  0
  183.8010  180.2270  138.8450 F   0  0  0  0  0  0  0  0  0  0  0  0
  182.3770  179.5300  140.4500 F   0  0  0  0  0  0  0  0  0  0  0  0
  183.6050  179.2990  139.8500 C   0  0  0  0  0  0  0  0  0  0  0  0
  182.5010  176.5830  135.0160 C   0  0  0  0  0  2  0  0  0  0  0  0
  181.0670  176.8280  135.4220 C   0  0  0  0  0  2  0  0  0  0  0  0
  182.1100  176.5120  136.4790 C   0  0  0  0  0  3  0  0  0  0  0  0
  190.5980  177.5500  142.8230 N   0  0  0  0  0  2  0  0  0  0  0  0
  190.7810  176.3030  143.5520 C   0  0  0  0  0  2  0  0  0  0  0  0
  190.6180  176.5440  145.0450 C   0  0  1  0  0  3  0  0  0  0  0  0
  191.9830  176.6140  145.7070 C   0  0  0  0  0  2  0  0  0  0  0  0
  192.1020  175.5490  146.7770 C   0  0  0  0  0  1  0  0  0  0  0  0
  189.8680  177.8470  145.2700 C   0  0  0  0  0  2  0  0  0  0  0  0
  188.7480  177.6950  146.6510 S   0  0  0  0  0  0  0  0  0  0  0  0
  188.8510  176.3070  147.2160 O   0  0  0  0  0  0  0  0  0  0  0  0
  189.1090  178.6960  147.7110 O   0  0  0  0  0  0  0  0  0  0  0  0
  186.0850  178.1030  147.0960 C   0  0  0  0  0  2  0  0  0  0  0  0
  187.1270  177.9830  146.1160 N   0  0  0  0  0  0  0  0  0  0  0  0
  184.5750  178.7940  145.3270 C   0  0  0  0  0  3  0  0  0  0  0  0
  186.8350  176.5340  144.1660 C   0  0  0  0  0  1  0  0  0  0  0  0
  185.4870  178.5870  144.3760 C   0  0  0  0  0  3  0  0  0  0  0  0
  184.8620  178.4810  146.7330 C   0  0  0  0  0  3  0  0  0  0  0  0
  186.8240  177.9640  144.6790 C   0  0  0  0  0  0  0  0  0  0  0  0
  1  3  2  0  0  0  0
  1 10  1  0  0  0  0
  2  7  1  1  0  0  0
  4  7  2  0  0  0  0
  4 20  1  0  0  0  0
  5 11  1  0  0  0  0
  5 14  1  0  0  0  0
  6  4  1  0  0  0  0
  8 10  1  0  0  0  0
  8 19  2  0  0  0  0
  9  3  1  6  0  0  0
  9  7  1  0  0  0  0
  9 11  1  0  0  0  0
  9  2  1  0  0  0  0
 10  5  2  0  0  0  0
 11  2  1  0  0  0  0
 12 18  1  0  0  0  0
 13  3  1  0  0  0  0
 13  6  2  0  0  0  0
 14 21  2  0  0  0  0
 15 18  1  0  0  0  0
 15 37  1  0  0  0  0
 16 17  1  0  0  0  0
 17 12  2  0  0  0  0
 19 22  1  0  0  0  0
 21 17  1  0  0  0  0
 21 23  1  0  0  0  0
 22 14  1  0  0  0  0
 22 16  2  0  0  0  0
 23 15  2  0  0  0  0
 24 16  1  0  0  0  0
 25 27  1  0  0  0  0
 25 28  1  0  0  0  0
 26 29  1  0  0  0  0
 27 36  1  6  0  0  0
 27 26  1  0  0  0  0
 28 24  1  1  0  0  0
 28 29  1  0  0  0  0
 29 33  1  6  0  0  0
 31 33  1  0  0  0  0
 33 32  1  0  0  0  0
 33 30  1  0  0  0  0
 34 35  1  0  0  0  0
 34 36  1  0  0  0  0
 35 36  1  0  0  0  0
 37 38  1  0  0  0  0
 39 38  1  6  0  0  0
 39 42  1  0  0  0  0
 39 40  1  0  0  0  0
 40 41  1  0  0  0  0
 42 43  1  0  0  0  0
 43 44  2  0  0  0  0
 43 45  2  0  0  0  0
 47 43  1  0  0  0  0
 47 46  1  0  0  0  0
 48 51  2  0  0  0  0
 49 52  1  0  0  0  0
 50 52  2  0  0  0  0
 50 48  1  0  0  0  0
 51 46  1  0  0  0  0
 52 47  1  0  0  0  0
M  END
>  <MODEL>
9

>  <REMARK>
 VINA RESULT:      -8.5      2.932      7.952
  Name = 
  11 active torsions:
  status: ('A' for Active; 'I' for Inactive)
    1  A    between atoms: C_2  and  C_49
    2  A    between atoms: N_8  and  S_23
    3  A    between atoms: O_13  and  C_32
    4  A    between atoms: O_13  and  C_37
    5  A    between atoms: C_20  and  C_49
    6  A    between atoms: C_20  and  N_51
    7  A    between atoms: S_23  and  C_50
    8  A    between atoms: N_27  and  C_30
    9  A    between atoms: C_34  and  C_46
   10  A    between atoms: C_36  and  N_51
   11  A    between atoms: C_49  and  C_50
                            x       y       z     vdW  Elec       q    Type
                         _______ _______ _______ _____ _____    ______ ____

>  <TORSDO>
F 11

$$$$
