=
 OpenBabel10232411133D

 54 58  0  0  1  0  0  0  0  0999 V2000
  188.7910  178.0690  139.9310 C   0  0  1  0  0  3  0  0  0  0  0  0
  191.0820  176.2660  137.6160 C   0  0  2  0  0  3  0  0  0  0  0  0
  190.5450  176.0860  139.0590 C   0  0  0  0  0  2  0  0  0  0  0  0
  190.1990  177.5470  137.4920 C   0  0  0  0  0  2  0  0  0  0  0  0
  189.7280  177.3090  138.8870 C   0  0  2  0  0  3  0  0  0  0  0  0
  190.7530  175.1290  136.6030 C   0  0  0  0  0  0  0  0  0  0  0  0
  189.5520  173.3070  134.7610 C   0  0  0  0  0  3  0  0  0  0  0  0
  189.7130  174.2280  136.9670 C   0  0  0  0  0  3  0  0  0  0  0  0
  189.1220  173.3350  136.0760 C   0  0  0  0  0  3  0  0  0  0  0  0
  191.2550  175.0410  135.2720 C   0  0  0  0  0  0  0  0  0  0  0  0
  190.6140  174.1580  134.3620 C   0  0  0  0  0  3  0  0  0  0  0  0
  192.7860  175.8420  134.6090 S   0  0  0  0  0  0  0  0  0  0  0  0
  193.6160  174.2070  134.3460 C   0  0  0  0  0  2  0  0  0  0  0  0
  193.6820  173.0510  135.3760 C   0  0  0  0  0  2  0  0  0  0  0  0
  194.1670  173.4720  136.8150 C   0  0  0  0  0  2  0  0  0  0  0  0
  196.0590  173.1890  136.8350 P   0  0  2  0  0  0  0  0  0  0  0  0
  196.8610  173.0230  138.1240 O   0  0  0  0  0  0  0  0  0  0  0  0
  197.9200  175.3240  137.3780 O   0  0  0  0  0  1  0  0  0  0  0  0
  196.6160  175.1930  136.1620 P   0  0  0  0  0  0  0  0  0  0  0  0
  197.6270  175.0590  134.7120 O   0  0  0  0  0  1  0  0  0  0  0  0
  196.1820  171.4880  136.2430 C   0  0  0  0  0  2  0  0  0  0  0  0
  196.2310  170.4750  137.3540 N   0  0  0  0  0  0  0  0  0  0  0  0
  197.1170  167.9150  138.5670 C   0  0  0  0  0  2  0  0  0  0  0  0
  195.2870  168.7160  140.0200 O   0  0  0  0  0  1  0  0  0  0  0  0
  197.4590  169.7680  136.9560 C   0  0  0  0  0  2  0  0  0  0  0  0
  195.2420  169.3820  137.5450 C   0  0  0  0  0  2  0  0  0  0  0  0
  198.0510  169.0460  138.1910 C   0  0  0  0  0  2  0  0  0  0  0  0
  195.6910  168.3980  138.6510 C   0  0  1  0  0  3  0  0  0  0  0  0
  187.4390  178.3710  139.3670 N   0  0  0  0  0  2  0  0  0  0  0  0
  186.4570  178.2890  140.2210 C   0  0  0  0  0  2  0  0  0  0  0  0
  183.9540  178.0980  140.8870 C   0  0  0  0  0  3  0  0  0  0  0  0
  184.5750  179.5100  139.1060 C   0  0  0  0  0  3  0  0  0  0  0  0
  183.3030  179.8970  138.8550 N   0  0  0  0  0  0  0  0  0  0  0  0
  182.3000  179.3810  139.6670 C   0  0  0  0  0  3  0  0  0  0  0  0
  182.5910  178.4840  140.6610 C   0  0  0  0  0  3  0  0  0  0  0  0
  184.9920  178.6210  140.1010 C   0  0  0  0  0  0  0  0  0  0  0  0
  188.7080  177.3310  141.1690 N   0  0  0  0  0  2  0  0  0  0  0  0
  189.2260  178.1800  142.2260 C   0  0  0  0  0  2  0  0  0  0  0  0
  190.8030  177.9030  142.2870 C   0  0  0  0  0  2  0  0  0  0  0  0
  191.1770  176.3290  144.2000 N   0  0  0  0  0  0  0  0  0  0  0  0
  190.9380  176.5630  142.9510 C   0  0  0  0  0  3  0  0  0  0  0  0
  191.3870  177.1740  145.3720 C   0  0  0  0  0  0  0  0  0  0  0  0
  192.0580  178.2170  145.2160 O   0  0  0  0  0  0  0  0  0  0  0  0
  190.7860  176.5350  146.9830 S   0  0  0  0  0  0  0  0  0  0  0  0
  188.4560  177.6850  145.9300 N   0  0  0  0  0  2  0  0  0  0  0  0
  188.3220  177.0230  148.2220 N   0  0  0  0  0  2  0  0  0  0  0  0
  189.0400  177.1500  147.1260 C   0  0  0  0  0  0  0  0  0  0  0  0
  185.1500  178.1180  144.1700 C   0  0  0  0  0  3  0  0  0  0  0  0
  187.0670  177.9340  145.7250 C   0  0  0  0  0  0  0  0  0  0  0  0
  184.8010  178.6060  146.5730 C   0  0  0  0  0  2  0  0  0  0  0  0
  184.4510  179.0310  145.1340 C   0  0  2  0  0  3  0  0  0  0  0  0
  186.3270  178.3990  146.7130 C   0  0  0  0  0  3  0  0  0  0  0  0
  186.4000  177.6670  144.4230 C   0  0  0  0  0  3  0  0  0  0  0  0
  183.1080  179.0060  144.9270 F   0  0  0  0  0  0  0  0  0  0  0  0
  1 29  1  6  0  0  0
  1 37  1  0  0  0  0
  2  6  1  6  0  0  0
  2  3  1  0  0  0  0
  4  2  1  0  0  0  0
  4  5  1  0  0  0  0
  5  3  1  0  0  0  0
  5  1  1  1  0  0  0
  6  8  1  0  0  0  0
  7  9  1  0  0  0  0
  9  8  2  0  0  0  0
 10  6  2  0  0  0  0
 11  7  2  0  0  0  0
 11 10  1  0  0  0  0
 12 10  1  0  0  0  0
 13 12  1  0  0  0  0
 13 14  1  0  0  0  0
 14 15  1  0  0  0  0
 15 16  1  0  0  0  0
 16 17  2  1  0  0  0
 19 16  1  0  0  0  0
 19 18  1  0  0  0  0
 20 19  1  0  0  0  0
 21 16  1  0  0  0  0
 21 22  1  0  0  0  0
 22 26  1  0  0  0  0
 23 28  1  0  0  0  0
 25 22  1  0  0  0  0
 25 27  1  0  0  0  0
 26 28  1  0  0  0  0
 27 23  1  0  0  0  0
 28 24  1  1  0  0  0
 29 30  1  0  0  0  0
 32 36  1  0  0  0  0
 33 32  2  0  0  0  0
 33 34  1  0  0  0  0
 34 35  2  0  0  0  0
 35 31  1  0  0  0  0
 36 30  1  0  0  0  0
 36 31  2  0  0  0  0
 37 38  1  0  0  0  0
 38 39  1  0  0  0  0
 39 41  1  0  0  0  0
 40 42  1  0  0  0  0
 41 40  2  0  0  0  0
 42 44  1  0  0  0  0
 43 42  2  0  0  0  0
 44 47  1  0  0  0  0
 45 47  1  0  0  0  0
 47 46  2  0  0  0  0
 48 53  2  0  0  0  0
 48 51  1  0  0  0  0
 49 45  1  0  0  0  0
 49 52  2  0  0  0  0
 50 52  1  0  0  0  0
 51 54  1  1  0  0  0
 51 50  1  0  0  0  0
 53 49  1  0  0  0  0
M  END
>  <MODEL>
1

>  <REMARK>
 VINA RESULT:      -7.3      0.000      0.000
  Name = 
  20 active torsions:
  status: ('A' for Active; 'I' for Inactive)
    1  A    between atoms: C_3  and  N_5
    2  A    between atoms: C_3  and  P_11
    3  A    between atoms: N_6  and  C_10
    4  A    between atoms: N_8  and  C_13
    5  A    between atoms: C_9  and  C_22
    6  A    between atoms: C_10  and  S_53
    7  A    between atoms: P_11  and  P_25
    8  A    between atoms: P_11  and  C_35
    9  A    between atoms: C_15  and  N_17
   10  A    between atoms: C_15  and  N_29
   11  A    between atoms: C_15  and  C_48
   12  A    between atoms: N_17  and  C_23
   13  A    between atoms: C_20  and  S_33
   14  A    between atoms: C_20  and  C_34
   15  A    between atoms: C_23  and  C_39
   16  A    between atoms: S_33  and  C_37
   17  A    between atoms: C_34  and  C_35
   18  A    between atoms: C_39  and  C_51
   19  A    between atoms: C_42  and  S_53
   20  A    between atoms: C_45  and  C_47
                            x       y       z     vdW  Elec       q    Type
                         _______ _______ _______ _____ _____    ______ ____

>  <TORSDO>
F 20

$$$$
=
 OpenBabel10232411133D

 54 58  0  0  1  0  0  0  0  0999 V2000
  188.2700  178.3770  139.9590 C   0  0  1  0  0  3  0  0  0  0  0  0
  188.5460  176.5150  136.7470 C   0  0  2  0  0  3  0  0  0  0  0  0
  189.2160  176.4840  138.1450 C   0  0  0  0  0  2  0  0  0  0  0  0
  187.6270  177.6680  137.2590 C   0  0  0  0  0  2  0  0  0  0  0  0
  188.3190  177.5790  138.5780 C   0  0  2  0  0  3  0  0  0  0  0  0
  187.8060  175.2200  136.3000 C   0  0  0  0  0  0  0  0  0  0  0  0
  185.9970  173.2670  135.2680 C   0  0  0  0  0  3  0  0  0  0  0  0
  186.4990  175.0150  136.8260 C   0  0  0  0  0  3  0  0  0  0  0  0
  185.6110  174.0640  136.3300 C   0  0  0  0  0  3  0  0  0  0  0  0
  188.2360  174.3410  135.2640 C   0  0  0  0  0  0  0  0  0  0  0  0
  187.3040  173.4060  134.7370 C   0  0  0  0  0  3  0  0  0  0  0  0
  189.9570  174.1560  134.6100 S   0  0  0  0  0  0  0  0  0  0  0  0
  190.5740  173.4770  136.2200 C   0  0  0  0  0  2  0  0  0  0  0  0
  191.8040  173.9940  137.0070 C   0  0  0  0  0  2  0  0  0  0  0  0
  192.8090  174.8690  136.1650 C   0  0  0  0  0  2  0  0  0  0  0  0
  194.5160  174.6600  137.0030 P   0  0  2  0  0  0  0  0  0  0  0  0
  194.9100  175.3950  138.2830 O   0  0  0  0  0  0  0  0  0  0  0  0
  194.8610  177.2500  135.7830 O   0  0  0  0  0  1  0  0  0  0  0  0
  195.6760  175.6920  135.4650 P   0  0  0  0  0  0  0  0  0  0  0  0
  197.2740  176.0980  136.1150 O   0  0  0  0  0  1  0  0  0  0  0  0
  194.3820  172.9990  137.7000 C   0  0  0  0  0  2  0  0  0  0  0  0
  195.5110  172.0920  137.2920 N   0  0  0  0  0  0  0  0  0  0  0  0
  196.7630  170.0380  135.5520 C   0  0  0  0  0  2  0  0  0  0  0  0
  198.2180  170.1680  137.5430 O   0  0  0  0  0  1  0  0  0  0  0  0
  195.1140  171.8600  135.8930 C   0  0  0  0  0  2  0  0  0  0  0  0
  195.7310  170.7230  137.8270 C   0  0  0  0  0  2  0  0  0  0  0  0
  196.3570  171.4200  135.0810 C   0  0  0  0  0  2  0  0  0  0  0  0
  196.8510  169.9860  137.0560 C   0  0  1  0  0  3  0  0  0  0  0  0
  186.8720  178.5700  140.4550 N   0  0  0  0  0  2  0  0  0  0  0  0
  185.9680  178.6750  139.5210 C   0  0  0  0  0  2  0  0  0  0  0  0
  183.6580  179.7320  138.9790 C   0  0  0  0  0  3  0  0  0  0  0  0
  183.7620  177.8050  140.3300 C   0  0  0  0  0  3  0  0  0  0  0  0
  182.4210  177.7480  140.5020 N   0  0  0  0  0  0  0  0  0  0  0  0
  181.6480  178.7140  139.8690 C   0  0  0  0  0  3  0  0  0  0  0  0
  182.2320  179.7080  139.1290 C   0  0  0  0  0  3  0  0  0  0  0  0
  184.4640  178.7560  139.5840 C   0  0  0  0  0  0  0  0  0  0  0  0
  189.1090  177.7370  140.9440 N   0  0  0  0  0  2  0  0  0  0  0  0
  190.4900  178.0170  140.5970 C   0  0  0  0  0  2  0  0  0  0  0  0
  191.3850  177.2690  141.6970 C   0  0  0  0  0  2  0  0  0  0  0  0
  190.7200  175.3790  143.2020 N   0  0  0  0  0  0  0  0  0  0  0  0
  190.5620  176.0910  142.1340 C   0  0  0  0  0  3  0  0  0  0  0  0
  191.6580  175.4150  144.3200 C   0  0  0  0  0  0  0  0  0  0  0  0
  192.4800  174.4780  144.4120 O   0  0  0  0  0  0  0  0  0  0  0  0
  191.4250  176.7430  145.5640 S   0  0  0  0  0  0  0  0  0  0  0  0
  188.6350  176.9030  145.3420 N   0  0  0  0  0  2  0  0  0  0  0  0
  189.8320  178.8260  144.5800 N   0  0  0  0  0  2  0  0  0  0  0  0
  189.8570  177.6030  145.0670 C   0  0  0  0  0  0  0  0  0  0  0  0
  185.4130  178.3530  144.0270 C   0  0  0  0  0  3  0  0  0  0  0  0
  187.3290  177.4750  145.3250 C   0  0  0  0  0  0  0  0  0  0  0  0
  185.3310  178.4370  146.5020 C   0  0  0  0  0  2  0  0  0  0  0  0
  184.9990  179.1920  145.2000 C   0  0  2  0  0  3  0  0  0  0  0  0
  186.7750  177.8890  146.4480 C   0  0  0  0  0  3  0  0  0  0  0  0
  186.5410  177.6080  144.0710 C   0  0  0  0  0  3  0  0  0  0  0  0
  183.6750  179.4920  145.1280 F   0  0  0  0  0  0  0  0  0  0  0  0
  1 29  1  1  0  0  0
  1 37  1  0  0  0  0
  2  6  1  1  0  0  0
  2  4  1  0  0  0  0
  2  3  1  0  0  0  0
  3  5  1  0  0  0  0
  4  5  1  0  0  0  0
  5  1  1  6  0  0  0
  6  8  1  0  0  0  0
  7  9  1  0  0  0  0
  9  8  2  0  0  0  0
 10  6  2  0  0  0  0
 11 10  1  0  0  0  0
 11  7  2  0  0  0  0
 12 10  1  0  0  0  0
 12 13  1  0  0  0  0
 13 14  1  0  0  0  0
 15 16  1  0  0  0  0
 15 14  1  0  0  0  0
 16 21  1  0  0  0  0
 16 17  2  1  0  0  0
 19 18  1  0  0  0  0
 19 20  1  0  0  0  0
 19 16  1  0  0  0  0
 22 21  1  0  0  0  0
 22 26  1  0  0  0  0
 23 28  1  0  0  0  0
 25 22  1  0  0  0  0
 27 23  1  0  0  0  0
 27 25  1  0  0  0  0
 28 24  1  6  0  0  0
 28 26  1  0  0  0  0
 30 36  1  0  0  0  0
 30 29  1  0  0  0  0
 31 35  2  0  0  0  0
 31 36  1  0  0  0  0
 32 33  1  0  0  0  0
 34 33  2  0  0  0  0
 35 34  1  0  0  0  0
 36 32  2  0  0  0  0
 38 37  1  0  0  0  0
 38 39  1  0  0  0  0
 39 41  1  0  0  0  0
 40 42  1  0  0  0  0
 41 40  2  0  0  0  0
 42 43  2  0  0  0  0
 42 44  1  0  0  0  0
 46 47  2  0  0  0  0
 47 45  1  0  0  0  0
 47 44  1  0  0  0  0
 48 53  2  0  0  0  0
 48 51  1  0  0  0  0
 49 45  1  0  0  0  0
 49 52  2  0  0  0  0
 51 54  1  6  0  0  0
 51 50  1  0  0  0  0
 52 50  1  0  0  0  0
 53 49  1  0  0  0  0
M  END
>  <MODEL>
2

>  <REMARK>
 VINA RESULT:      -7.3      1.863      2.435
  Name = 
  20 active torsions:
  status: ('A' for Active; 'I' for Inactive)
    1  A    between atoms: C_3  and  N_5
    2  A    between atoms: C_3  and  P_11
    3  A    between atoms: N_6  and  C_10
    4  A    between atoms: N_8  and  C_13
    5  A    between atoms: C_9  and  C_22
    6  A    between atoms: C_10  and  S_53
    7  A    between atoms: P_11  and  P_25
    8  A    between atoms: P_11  and  C_35
    9  A    between atoms: C_15  and  N_17
   10  A    between atoms: C_15  and  N_29
   11  A    between atoms: C_15  and  C_48
   12  A    between atoms: N_17  and  C_23
   13  A    between atoms: C_20  and  S_33
   14  A    between atoms: C_20  and  C_34
   15  A    between atoms: C_23  and  C_39
   16  A    between atoms: S_33  and  C_37
   17  A    between atoms: C_34  and  C_35
   18  A    between atoms: C_39  and  C_51
   19  A    between atoms: C_42  and  S_53
   20  A    between atoms: C_45  and  C_47
                            x       y       z     vdW  Elec       q    Type
                         _______ _______ _______ _____ _____    ______ ____

>  <TORSDO>
F 20

$$$$
=
 OpenBabel10232411133D

 54 58  0  0  1  0  0  0  0  0999 V2000
  190.2960  176.2980  141.8030 C   0  0  1  0  0  3  0  0  0  0  0  0
  187.5040  177.5550  143.9210 C   0  0  2  0  0  3  0  0  0  0  0  0
  187.9770  176.1960  143.3470 C   0  0  0  0  0  2  0  0  0  0  0  0
  188.7530  178.2200  143.2640 C   0  0  0  0  0  2  0  0  0  0  0  0
  189.1450  176.8780  142.7440 C   0  0  2  0  0  3  0  0  0  0  0  0
  187.4270  177.6680  145.4720 C   0  0  0  0  0  0  0  0  0  0  0  0
  187.7850  178.2890  148.2360 C   0  0  0  0  0  3  0  0  0  0  0  0
  188.6060  177.3350  146.1980 C   0  0  0  0  0  3  0  0  0  0  0  0
  188.7890  177.6320  147.5470 C   0  0  0  0  0  3  0  0  0  0  0  0
  186.3600  178.2650  146.2030 C   0  0  0  0  0  0  0  0  0  0  0  0
  186.5760  178.6040  147.5670 C   0  0  0  0  0  3  0  0  0  0  0  0
  184.6210  178.5170  145.6200 S   0  0  0  0  0  0  0  0  0  0  0  0
  185.1880  179.2080  143.9970 C   0  0  0  0  0  2  0  0  0  0  0  0
  184.3760  179.2000  142.6780 C   0  0  0  0  0  2  0  0  0  0  0  0
  182.9230  178.5990  142.7980 C   0  0  0  0  0  2  0  0  0  0  0  0
  182.2140  178.5820  141.0220 P   0  0  2  0  0  0  0  0  0  0  0  0
  182.5730  179.6320  139.9730 O   0  0  0  0  0  0  0  0  0  0  0  0
  180.2160  178.1090  143.0460 O   0  0  0  0  0  1  0  0  0  0  0  0
  180.1650  179.1120  141.5680 P   0  0  0  0  0  0  0  0  0  0  0  0
  180.1620  180.7080  142.3390 O   0  0  0  0  0  1  0  0  0  0  0  0
  183.0920  177.1860  140.2890 C   0  0  0  0  0  2  0  0  0  0  0  0
  182.9140  177.0880  138.7980 N   0  0  0  0  0  0  0  0  0  0  0  0
  181.5820  176.0660  136.3500 C   0  0  0  0  0  2  0  0  0  0  0  0
  183.6670  177.1230  135.5540 O   0  0  0  0  0  1  0  0  0  0  0  0
  181.5270  176.5960  138.7720 C   0  0  0  0  0  2  0  0  0  0  0  0
  183.6420  176.1360  137.9200 C   0  0  0  0  0  2  0  0  0  0  0  0
  180.8990  176.9240  137.3950 C   0  0  0  0  0  2  0  0  0  0  0  0
  183.0820  176.1520  136.4790 C   0  0  1  0  0  3  0  0  0  0  0  0
  189.9390  176.3810  140.3520 N   0  0  0  0  0  2  0  0  0  0  0  0
  188.9960  177.2340  140.0660 C   0  0  0  0  0  2  0  0  0  0  0  0
  187.0900  177.6370  138.3490 C   0  0  0  0  0  3  0  0  0  0  0  0
  189.2980  178.2410  137.7920 C   0  0  0  0  0  3  0  0  0  0  0  0
  188.9570  178.6890  136.5620 N   0  0  0  0  0  0  0  0  0  0  0  0
  187.6150  178.6320  136.2030 C   0  0  0  0  0  3  0  0  0  0  0  0
  186.6810  178.1060  137.0560 C   0  0  0  0  0  3  0  0  0  0  0  0
  188.4330  177.7040  138.7500 C   0  0  0  0  0  0  0  0  0  0  0  0
  191.5550  176.9420  142.0870 N   0  0  0  0  0  2  0  0  0  0  0  0
  191.9290  177.7190  140.9190 C   0  0  0  0  0  2  0  0  0  0  0  0
  193.2090  176.9880  140.2900 C   0  0  0  0  0  2  0  0  0  0  0  0
  193.5480  176.4030  137.8770 N   0  0  0  0  0  0  0  0  0  0  0  0
  193.0690  177.1660  138.8050 C   0  0  0  0  0  3  0  0  0  0  0  0
  194.3370  175.1740  137.8750 C   0  0  0  0  0  0  0  0  0  0  0  0
  195.0780  174.9650  138.8590 O   0  0  0  0  0  0  0  0  0  0  0  0
  194.2830  174.1480  136.3550 S   0  0  0  0  0  0  0  0  0  0  0  0
  191.5140  174.4610  136.6650 N   0  0  0  0  0  2  0  0  0  0  0  0
  192.2070  172.3800  135.7170 N   0  0  0  0  0  2  0  0  0  0  0  0
  192.5310  173.5420  136.2430 C   0  0  0  0  0  0  0  0  0  0  0  0
  188.0930  175.1770  135.2510 C   0  0  0  0  0  3  0  0  0  0  0  0
  190.1190  174.3350  136.3970 C   0  0  0  0  0  0  0  0  0  0  0  0
  187.8950  173.2330  136.7740 C   0  0  0  0  0  2  0  0  0  0  0  0
  187.2310  174.5410  136.3010 C   0  0  2  0  0  3  0  0  0  0  0  0
  189.3910  173.4730  137.0800 C   0  0  0  0  0  3  0  0  0  0  0  0
  189.4420  175.1350  135.3410 C   0  0  0  0  0  3  0  0  0  0  0  0
  185.9810  174.3120  135.8180 F   0  0  0  0  0  0  0  0  0  0  0  0
  1 29  1  6  0  0  0
  1 37  1  0  0  0  0
  2  6  1  1  0  0  0
  3  2  1  0  0  0  0
  4  2  1  0  0  0  0
  5  1  1  6  0  0  0
  5  4  1  0  0  0  0
  5  3  1  0  0  0  0
  6  8  2  0  0  0  0
  6 10  1  0  0  0  0
  8  9  1  0  0  0  0
  9  7  2  0  0  0  0
 10 11  2  0  0  0  0
 11  7  1  0  0  0  0
 12 10  1  0  0  0  0
 13 12  1  0  0  0  0
 14 15  1  0  0  0  0
 14 13  1  0  0  0  0
 16 17  2  6  0  0  0
 16 19  1  0  0  0  0
 16 15  1  0  0  0  0
 19 20  1  0  0  0  0
 19 18  1  0  0  0  0
 21 16  1  0  0  0  0
 22 21  1  0  0  0  0
 23 28  1  0  0  0  0
 23 27  1  0  0  0  0
 25 22  1  0  0  0  0
 26 22  1  0  0  0  0
 27 25  1  0  0  0  0
 28 24  1  1  0  0  0
 28 26  1  0  0  0  0
 30 29  1  0  0  0  0
 31 36  1  0  0  0  0
 32 36  2  0  0  0  0
 33 32  1  0  0  0  0
 34 33  2  0  0  0  0
 34 35  1  0  0  0  0
 35 31  2  0  0  0  0
 36 30  1  0  0  0  0
 38 37  1  0  0  0  0
 39 38  1  0  0  0  0
 40 41  2  0  0  0  0
 41 39  1  0  0  0  0
 42 40  1  0  0  0  0
 42 43  2  0  0  0  0
 44 42  1  0  0  0  0
 46 47  2  0  0  0  0
 47 44  1  0  0  0  0
 47 45  1  0  0  0  0
 48 53  2  0  0  0  0
 48 51  1  0  0  0  0
 49 45  1  0  0  0  0
 49 52  2  0  0  0  0
 50 52  1  0  0  0  0
 51 54  1  6  0  0  0
 51 50  1  0  0  0  0
 53 49  1  0  0  0  0
M  END
>  <MODEL>
3

>  <REMARK>
 VINA RESULT:      -7.1      5.451     11.526
  Name = 
  20 active torsions:
  status: ('A' for Active; 'I' for Inactive)
    1  A    between atoms: C_3  and  N_5
    2  A    between atoms: C_3  and  P_11
    3  A    between atoms: N_6  and  C_10
    4  A    between atoms: N_8  and  C_13
    5  A    between atoms: C_9  and  C_22
    6  A    between atoms: C_10  and  S_53
    7  A    between atoms: P_11  and  P_25
    8  A    between atoms: P_11  and  C_35
    9  A    between atoms: C_15  and  N_17
   10  A    between atoms: C_15  and  N_29
   11  A    between atoms: C_15  and  C_48
   12  A    between atoms: N_17  and  C_23
   13  A    between atoms: C_20  and  S_33
   14  A    between atoms: C_20  and  C_34
   15  A    between atoms: C_23  and  C_39
   16  A    between atoms: S_33  and  C_37
   17  A    between atoms: C_34  and  C_35
   18  A    between atoms: C_39  and  C_51
   19  A    between atoms: C_42  and  S_53
   20  A    between atoms: C_45  and  C_47
                            x       y       z     vdW  Elec       q    Type
                         _______ _______ _______ _____ _____    ______ ____

>  <TORSDO>
F 20

$$$$
=
 OpenBabel10232411133D

 54 58  0  0  1  0  0  0  0  0999 V2000
  190.3510  176.6450  140.8550 C   0  0  1  0  0  3  0  0  0  0  0  0
  188.6380  177.2710  144.1000 C   0  0  2  0  0  3  0  0  0  0  0  0
  189.4200  178.0950  143.0460 C   0  0  0  0  0  2  0  0  0  0  0  0
  188.8220  176.0140  143.1940 C   0  0  0  0  0  2  0  0  0  0  0  0
  189.5650  176.8710  142.2250 C   0  0  2  0  0  3  0  0  0  0  0  0
  187.1630  177.6950  144.3620 C   0  0  0  0  0  0  0  0  0  0  0  0
  184.7290  178.8730  145.2810 C   0  0  0  0  0  3  0  0  0  0  0  0
  186.6770  177.5400  145.6910 C   0  0  0  0  0  3  0  0  0  0  0  0
  185.4900  178.1080  146.1480 C   0  0  0  0  0  3  0  0  0  0  0  0
  186.3360  178.4090  143.4460 C   0  0  0  0  0  0  0  0  0  0  0  0
  185.1510  179.0220  143.9360 C   0  0  0  0  0  3  0  0  0  0  0  0
  186.5410  178.5040  141.6090 S   0  0  0  0  0  0  0  0  0  0  0  0
  184.7550  178.9280  141.3580 C   0  0  0  0  0  2  0  0  0  0  0  0
  183.9460  178.7000  140.0570 C   0  0  0  0  0  2  0  0  0  0  0  0
  182.3850  178.6040  140.2550 C   0  0  0  0  0  2  0  0  0  0  0  0
  181.6410  178.4530  138.5000 P   0  0  2  0  0  0  0  0  0  0  0  0
  182.4960  178.4150  137.2350 O   0  0  0  0  0  0  0  0  0  0  0  0
  180.3850  180.4300  140.1830 O   0  0  0  0  0  1  0  0  0  0  0  0
  180.7540  180.4500  138.4340 P   0  0  0  0  0  0  0  0  0  0  0  0
  182.0470  181.6620  138.4570 O   0  0  0  0  0  1  0  0  0  0  0  0
  181.0890  176.7350  138.4810 C   0  0  0  0  0  2  0  0  0  0  0  0
  182.0500  175.8100  137.7850 N   0  0  0  0  0  0  0  0  0  0  0  0
  183.0520  173.1250  137.0100 C   0  0  0  0  0  2  0  0  0  0  0  0
  184.8810  174.6840  136.4400 O   0  0  0  0  0  1  0  0  0  0  0  0
  181.1990  174.6100  137.7250 C   0  0  0  0  0  2  0  0  0  0  0  0
  183.3200  175.3110  138.3740 C   0  0  0  0  0  2  0  0  0  0  0  0
  181.7080  173.6850  136.5920 C   0  0  0  0  0  2  0  0  0  0  0  0
  183.9680  174.2240  137.4860 C   0  0  1  0  0  3  0  0  0  0  0  0
  189.4290  176.3520  139.7120 N   0  0  0  0  0  2  0  0  0  0  0  0
  189.0730  177.3940  139.0140 C   0  0  0  0  0  2  0  0  0  0  0  0
  188.7910  177.5770  136.4390 C   0  0  0  0  0  3  0  0  0  0  0  0
  186.8840  177.6370  137.8210 C   0  0  0  0  0  3  0  0  0  0  0  0
  186.0290  177.7790  136.7820 N   0  0  0  0  0  0  0  0  0  0  0  0
  186.5680  177.8010  135.5010 C   0  0  0  0  0  3  0  0  0  0  0  0
  187.9210  177.7200  135.3060 C   0  0  0  0  0  3  0  0  0  0  0  0
  188.2750  177.5250  137.7420 C   0  0  0  0  0  0  0  0  0  0  0  0
  191.2180  177.7640  140.5760 N   0  0  0  0  0  2  0  0  0  0  0  0
  192.5550  177.2440  140.3570 C   0  0  0  0  0  2  0  0  0  0  0  0
  192.7300  177.1210  138.7680 C   0  0  0  0  0  2  0  0  0  0  0  0
  194.2940  175.6610  137.4630 N   0  0  0  0  0  0  0  0  0  0  0  0
  193.7230  176.0120  138.5700 C   0  0  0  0  0  3  0  0  0  0  0  0
  194.2290  176.1440  136.0870 C   0  0  0  0  0  0  0  0  0  0  0  0
  194.8510  177.1930  135.8150 O   0  0  0  0  0  0  0  0  0  0  0  0
  193.1090  175.2520  134.9400 S   0  0  0  0  0  0  0  0  0  0  0  0
  194.1120  172.6860  135.4580 N   0  0  0  0  0  2  0  0  0  0  0  0
  191.9370  173.1300  136.3430 N   0  0  0  0  0  2  0  0  0  0  0  0
  192.9710  173.5360  135.6360 C   0  0  0  0  0  0  0  0  0  0  0  0
  193.7010  169.1140  136.5930 C   0  0  0  0  0  3  0  0  0  0  0  0
  194.3500  171.4610  136.1480 C   0  0  0  0  0  0  0  0  0  0  0  0
  195.5970  170.0970  137.8470 C   0  0  0  0  0  2  0  0  0  0  0  0
  194.3590  169.1830  137.9390 C   0  0  2  0  0  3  0  0  0  0  0  0
  195.2370  171.4150  137.1240 C   0  0  0  0  0  3  0  0  0  0  0  0
  193.6410  170.2030  135.7930 C   0  0  0  0  0  3  0  0  0  0  0  0
  194.6970  167.9390  138.3690 F   0  0  0  0  0  0  0  0  0  0  0  0
  1 29  1  6  0  0  0
  2  6  1  6  0  0  0
  3  2  1  0  0  0  0
  4  2  1  0  0  0  0
  5  1  1  1  0  0  0
  5  3  1  0  0  0  0
  5  4  1  0  0  0  0
  6  8  1  0  0  0  0
  7  9  1  0  0  0  0
  8  9  2  0  0  0  0
 10 11  1  0  0  0  0
 10  6  2  0  0  0  0
 11  7  2  0  0  0  0
 12 10  1  0  0  0  0
 13 12  1  0  0  0  0
 14 15  1  0  0  0  0
 14 13  1  0  0  0  0
 16 17  2  6  0  0  0
 16 15  1  0  0  0  0
 19 20  1  0  0  0  0
 19 16  1  0  0  0  0
 19 18  1  0  0  0  0
 21 16  1  0  0  0  0
 22 26  1  0  0  0  0
 22 21  1  0  0  0  0
 23 28  1  0  0  0  0
 25 22  1  0  0  0  0
 27 23  1  0  0  0  0
 27 25  1  0  0  0  0
 28 24  1  6  0  0  0
 28 26  1  0  0  0  0
 30 29  1  0  0  0  0
 31 36  1  0  0  0  0
 33 32  1  0  0  0  0
 34 33  2  0  0  0  0
 35 34  1  0  0  0  0
 35 31  2  0  0  0  0
 36 32  2  0  0  0  0
 36 30  1  0  0  0  0
 37  1  1  0  0  0  0
 38 37  1  0  0  0  0
 39 38  1  0  0  0  0
 40 41  2  0  0  0  0
 41 39  1  0  0  0  0
 42 40  1  0  0  0  0
 43 42  2  0  0  0  0
 44 47  1  0  0  0  0
 44 42  1  0  0  0  0
 45 47  1  0  0  0  0
 45 49  1  0  0  0  0
 47 46  2  0  0  0  0
 48 51  1  0  0  0  0
 49 52  2  0  0  0  0
 50 51  1  0  0  0  0
 51 54  1  6  0  0  0
 52 50  1  0  0  0  0
 53 49  1  0  0  0  0
 53 48  2  0  0  0  0
M  END
>  <MODEL>
4

>  <REMARK>
 VINA RESULT:      -7.0      5.899     11.708
  Name = 
  20 active torsions:
  status: ('A' for Active; 'I' for Inactive)
    1  A    between atoms: C_3  and  N_5
    2  A    between atoms: C_3  and  P_11
    3  A    between atoms: N_6  and  C_10
    4  A    between atoms: N_8  and  C_13
    5  A    between atoms: C_9  and  C_22
    6  A    between atoms: C_10  and  S_53
    7  A    between atoms: P_11  and  P_25
    8  A    between atoms: P_11  and  C_35
    9  A    between atoms: C_15  and  N_17
   10  A    between atoms: C_15  and  N_29
   11  A    between atoms: C_15  and  C_48
   12  A    between atoms: N_17  and  C_23
   13  A    between atoms: C_20  and  S_33
   14  A    between atoms: C_20  and  C_34
   15  A    between atoms: C_23  and  C_39
   16  A    between atoms: S_33  and  C_37
   17  A    between atoms: C_34  and  C_35
   18  A    between atoms: C_39  and  C_51
   19  A    between atoms: C_42  and  S_53
   20  A    between atoms: C_45  and  C_47
                            x       y       z     vdW  Elec       q    Type
                         _______ _______ _______ _____ _____    ______ ____

>  <TORSDO>
F 20

$$$$
=
 OpenBabel10232411133D

 54 58  0  0  1  0  0  0  0  0999 V2000
  187.7280  177.8240  141.3390 C   0  0  1  0  0  3  0  0  0  0  0  0
  190.3640  177.1900  138.7890 C   0  0  2  0  0  3  0  0  0  0  0  0
  190.1380  176.8930  140.2930 C   0  0  0  0  0  2  0  0  0  0  0  0
  188.9540  177.8560  138.7500 C   0  0  0  0  0  2  0  0  0  0  0  0
  188.8070  177.5370  140.2000 C   0  0  2  0  0  3  0  0  0  0  0  0
  190.5450  175.9570  137.8550 C   0  0  0  0  0  0  0  0  0  0  0  0
  190.4400  174.0080  135.7710 C   0  0  0  0  0  3  0  0  0  0  0  0
  189.3740  175.2060  137.5500 C   0  0  0  0  0  3  0  0  0  0  0  0
  189.3150  174.2530  136.5360 C   0  0  0  0  0  3  0  0  0  0  0  0
  191.7280  175.6430  137.1250 C   0  0  0  0  0  0  0  0  0  0  0  0
  191.6420  174.7010  136.0640 C   0  0  0  0  0  3  0  0  0  0  0  0
  193.4490  176.2110  137.5030 S   0  0  0  0  0  0  0  0  0  0  0  0
  194.0310  175.8270  135.7860 C   0  0  0  0  0  2  0  0  0  0  0  0
  195.1610  174.8350  135.4160 C   0  0  0  0  0  2  0  0  0  0  0  0
  196.6120  175.3040  135.8140 C   0  0  0  0  0  2  0  0  0  0  0  0
  197.1320  174.2060  137.2920 P   0  0  2  0  0  0  0  0  0  0  0  0
  197.1250  174.6990  138.7370 O   0  0  0  0  0  0  0  0  0  0  0  0
  199.7250  174.8510  138.3750 O   0  0  0  0  0  1  0  0  0  0  0  0
  199.2620  174.1300  136.8070 P   0  0  0  0  0  0  0  0  0  0  0  0
  199.8650  172.4880  137.0890 O   0  0  0  0  0  1  0  0  0  0  0  0
  195.7380  173.0650  137.4090 C   0  0  0  0  0  2  0  0  0  0  0  0
  196.1520  171.6180  137.3960 N   0  0  0  0  0  0  0  0  0  0  0  0
  196.3120  168.9190  136.1720 C   0  0  0  0  0  2  0  0  0  0  0  0
  196.9830  168.5970  138.5270 O   0  0  0  0  0  1  0  0  0  0  0  0
  196.0700  171.3770  135.9470 C   0  0  0  0  0  2  0  0  0  0  0  0
  195.3600  170.5070  137.9840 C   0  0  0  0  0  2  0  0  0  0  0  0
  196.9550  170.1590  135.5850 C   0  0  0  0  0  2  0  0  0  0  0  0
  195.9630  169.1290  137.6230 C   0  0  1  0  0  3  0  0  0  0  0  0
  188.3610  178.2080  142.6390 N   0  0  0  0  0  2  0  0  0  0  0  0
  188.5300  177.2250  143.4790 C   0  0  0  0  0  2  0  0  0  0  0  0
  188.6210  177.3280  146.0720 C   0  0  0  0  0  3  0  0  0  0  0  0
  190.5990  176.9240  144.8580 C   0  0  0  0  0  3  0  0  0  0  0  0
  191.3690  176.8500  145.9690 N   0  0  0  0  0  0  0  0  0  0  0  0
  190.7410  177.0010  147.2000 C   0  0  0  0  0  3  0  0  0  0  0  0
  189.3970  177.2520  147.2770 C   0  0  0  0  0  3  0  0  0  0  0  0
  189.2210  177.1540  144.8160 C   0  0  0  0  0  0  0  0  0  0  0  0
  186.7700  178.8070  140.8940 N   0  0  0  0  0  2  0  0  0  0  0  0
  185.9370  179.1590  142.0290 C   0  0  0  0  0  2  0  0  0  0  0  0
  184.6700  178.1800  141.9720 C   0  0  0  0  0  2  0  0  0  0  0  0
  182.3850  178.9590  142.6450 N   0  0  0  0  0  0  0  0  0  0  0  0
  183.6490  178.8090  142.8760 C   0  0  0  0  0  3  0  0  0  0  0  0
  181.5050  178.6130  141.5320 C   0  0  0  0  0  0  0  0  0  0  0  0
  180.5760  177.8090  141.7610 O   0  0  0  0  0  0  0  0  0  0  0  0
  181.9540  179.2640  139.8770 S   0  0  0  0  0  0  0  0  0  0  0  0
  183.2340  178.0920  137.6750 N   0  0  0  0  0  2  0  0  0  0  0  0
  182.7380  176.6050  139.4790 N   0  0  0  0  0  2  0  0  0  0  0  0
  182.6620  177.8130  138.9610 C   0  0  0  0  0  0  0  0  0  0  0  0
  186.3670  176.5150  136.2940 C   0  0  0  0  0  3  0  0  0  0  0  0
  184.0820  177.2160  136.9360 C   0  0  0  0  0  0  0  0  0  0  0  0
  184.4250  175.3630  135.2780 C   0  0  0  0  0  2  0  0  0  0  0  0
  185.8340  175.9310  135.0190 C   0  0  2  0  0  3  0  0  0  0  0  0
  183.5650  176.3930  136.0440 C   0  0  0  0  0  3  0  0  0  0  0  0
  185.5540  177.1740  137.1500 C   0  0  0  0  0  3  0  0  0  0  0  0
  186.6720  174.9710  134.5460 F   0  0  0  0  0  0  0  0  0  0  0  0
  1 37  1  6  0  0  0
  1 29  1  0  0  0  0
  2  6  1  6  0  0  0
  2  3  1  0  0  0  0
  4  2  1  0  0  0  0
  4  5  1  0  0  0  0
  5  3  1  0  0  0  0
  5  1  1  1  0  0  0
  7 11  2  0  0  0  0
  7  9  1  0  0  0  0
  8  6  1  0  0  0  0
  9  8  2  0  0  0  0
 10 12  1  0  0  0  0
 10  6  2  0  0  0  0
 11 10  1  0  0  0  0
 13 12  1  0  0  0  0
 14 13  1  0  0  0  0
 14 15  1  0  0  0  0
 15 16  1  0  0  0  0
 16 21  1  0  0  0  0
 16 17  2  1  0  0  0
 19 20  1  0  0  0  0
 19 16  1  0  0  0  0
 19 18  1  0  0  0  0
 22 21  1  0  0  0  0
 22 26  1  0  0  0  0
 23 28  1  0  0  0  0
 25 22  1  0  0  0  0
 27 25  1  0  0  0  0
 27 23  1  0  0  0  0
 28 26  1  0  0  0  0
 28 24  1  1  0  0  0
 29 30  1  0  0  0  0
 30 36  1  0  0  0  0
 31 35  1  0  0  0  0
 32 33  2  0  0  0  0
 33 34  1  0  0  0  0
 34 35  2  0  0  0  0
 36 32  1  0  0  0  0
 36 31  2  0  0  0  0
 37 38  1  0  0  0  0
 39 38  1  0  0  0  0
 39 41  1  0  0  0  0
 40 41  2  0  0  0  0
 42 43  2  0  0  0  0
 42 40  1  0  0  0  0
 44 42  1  0  0  0  0
 45 47  1  0  0  0  0
 47 46  2  0  0  0  0
 47 44  1  0  0  0  0
 48 53  2  0  0  0  0
 49 53  1  0  0  0  0
 49 45  1  0  0  0  0
 50 52  1  0  0  0  0
 51 54  1  1  0  0  0
 51 50  1  0  0  0  0
 51 48  1  0  0  0  0
 52 49  2  0  0  0  0
M  END
>  <MODEL>
5

>  <REMARK>
 VINA RESULT:      -6.9      3.540      6.531
  Name = 
  20 active torsions:
  status: ('A' for Active; 'I' for Inactive)
    1  A    between atoms: C_3  and  N_5
    2  A    between atoms: C_3  and  P_11
    3  A    between atoms: N_6  and  C_10
    4  A    between atoms: N_8  and  C_13
    5  A    between atoms: C_9  and  C_22
    6  A    between atoms: C_10  and  S_53
    7  A    between atoms: P_11  and  P_25
    8  A    between atoms: P_11  and  C_35
    9  A    between atoms: C_15  and  N_17
   10  A    between atoms: C_15  and  N_29
   11  A    between atoms: C_15  and  C_48
   12  A    between atoms: N_17  and  C_23
   13  A    between atoms: C_20  and  S_33
   14  A    between atoms: C_20  and  C_34
   15  A    between atoms: C_23  and  C_39
   16  A    between atoms: S_33  and  C_37
   17  A    between atoms: C_34  and  C_35
   18  A    between atoms: C_39  and  C_51
   19  A    between atoms: C_42  and  S_53
   20  A    between atoms: C_45  and  C_47
                            x       y       z     vdW  Elec       q    Type
                         _______ _______ _______ _____ _____    ______ ____

>  <TORSDO>
F 20

$$$$
=
 OpenBabel10232411133D

 54 58  0  0  1  0  0  0  0  0999 V2000
  188.2050  178.2770  141.7210 C   0  0  1  0  0  3  0  0  0  0  0  0
  185.0430  178.9100  143.5820 C   0  0  2  0  0  3  0  0  0  0  0  0
  185.9580  179.6770  142.5940 C   0  0  0  0  0  2  0  0  0  0  0  0
  185.9970  177.6820  143.4470 C   0  0  0  0  0  2  0  0  0  0  0  0
  186.8290  178.4830  142.5030 C   0  0  2  0  0  3  0  0  0  0  0  0
  183.5740  178.6670  143.1260 C   0  0  0  0  0  0  0  0  0  0  0  0
  180.7900  178.8280  142.5130 C   0  0  0  0  0  3  0  0  0  0  0  0
  182.5640  178.7900  144.1220 C   0  0  0  0  0  3  0  0  0  0  0  0
  181.2040  178.8670  143.8330 C   0  0  0  0  0  3  0  0  0  0  0  0
  183.1420  178.5380  141.7730 C   0  0  0  0  0  0  0  0  0  0  0  0
  181.7550  178.6640  141.4880 C   0  0  0  0  0  3  0  0  0  0  0  0
  184.1800  178.0550  140.3190 S   0  0  0  0  0  0  0  0  0  0  0  0
  182.7490  177.2280  139.4810 C   0  0  0  0  0  2  0  0  0  0  0  0
  182.7320  175.7730  138.9490 C   0  0  0  0  0  2  0  0  0  0  0  0
  181.5840  175.4590  137.9150 C   0  0  0  0  0  2  0  0  0  0  0  0
  182.3790  174.3570  136.5680 P   0  0  2  0  0  0  0  0  0  0  0  0
  182.3130  174.6880  135.0790 O   0  0  0  0  0  0  0  0  0  0  0  0
  182.2720  171.5730  137.3150 O   0  0  0  0  0  1  0  0  0  0  0  0
  180.9850  172.6840  136.7640 P   0  0  0  0  0  0  0  0  0  0  0  0
  180.1040  172.8370  138.2940 O   0  0  0  0  0  1  0  0  0  0  0  0
  184.1370  174.6790  136.8200 C   0  0  0  0  0  2  0  0  0  0  0  0
  185.0120  173.5070  136.4660 N   0  0  0  0  0  0  0  0  0  0  0  0
  187.6410  172.1900  136.0620 C   0  0  0  0  0  2  0  0  0  0  0  0
  185.9920  170.6590  135.0450 O   0  0  0  0  0  1  0  0  0  0  0  0
  186.2520  173.9500  137.1230 C   0  0  0  0  0  2  0  0  0  0  0  0
  185.4480  173.1630  135.0870 C   0  0  0  0  0  2  0  0  0  0  0  0
  187.1490  172.7170  137.3950 C   0  0  0  0  0  2  0  0  0  0  0  0
  186.4990  172.0300  135.0910 C   0  0  1  0  0  3  0  0  0  0  0  0
  189.2620  177.6630  142.5830 N   0  0  0  0  0  2  0  0  0  0  0  0
  189.1590  177.9320  143.8550 C   0  0  0  0  0  2  0  0  0  0  0  0
  191.2250  176.9070  145.0480 C   0  0  0  0  0  3  0  0  0  0  0  0
  189.3070  177.4420  146.3070 C   0  0  0  0  0  3  0  0  0  0  0  0
  189.8460  177.0130  147.4710 N   0  0  0  0  0  0  0  0  0  0  0  0
  191.1460  176.5230  147.4390 C   0  0  0  0  0  3  0  0  0  0  0  0
  191.8400  176.4460  146.2600 C   0  0  0  0  0  3  0  0  0  0  0  0
  189.9240  177.4300  145.0530 C   0  0  0  0  0  0  0  0  0  0  0  0
  187.9910  177.5240  140.5090 N   0  0  0  0  0  2  0  0  0  0  0  0
  188.1950  178.4230  139.3880 C   0  0  0  0  0  2  0  0  0  0  0  0
  187.3250  177.8320  138.1790 C   0  0  0  0  0  2  0  0  0  0  0  0
  188.9570  177.7070  136.2810 N   0  0  0  0  0  0  0  0  0  0  0  0
  188.0140  178.3080  136.9330 C   0  0  0  0  0  3  0  0  0  0  0  0
  189.6710  176.4460  136.4560 C   0  0  0  0  0  0  0  0  0  0  0  0
  189.4560  175.5420  135.6200 O   0  0  0  0  0  0  0  0  0  0  0  0
  190.6830  176.2630  137.9750 S   0  0  0  0  0  0  0  0  0  0  0  0
  193.3700  175.5110  137.6910 N   0  0  0  0  0  2  0  0  0  0  0  0
  191.7730  173.8140  137.1620 N   0  0  0  0  0  2  0  0  0  0  0  0
  192.0200  175.0560  137.5220 C   0  0  0  0  0  0  0  0  0  0  0  0
  196.5870  173.9160  138.8370 C   0  0  0  0  0  3  0  0  0  0  0  0
  194.5300  174.6830  137.6940 C   0  0  0  0  0  0  0  0  0  0  0  0
  196.0710  173.0460  136.5760 C   0  0  0  0  0  2  0  0  0  0  0  0
  197.1880  173.5440  137.5140 C   0  0  2  0  0  3  0  0  0  0  0  0
  194.8740  174.0240  136.6040 C   0  0  0  0  0  3  0  0  0  0  0  0
  195.3750  174.5110  138.9060 C   0  0  0  0  0  3  0  0  0  0  0  0
  198.1520  172.5990  137.6760 F   0  0  0  0  0  0  0  0  0  0  0  0
  1 37  1  6  0  0  0
  1 29  1  0  0  0  0
  2  6  1  6  0  0  0
  3  2  1  0  0  0  0
  4  2  1  0  0  0  0
  5  1  1  1  0  0  0
  5  3  1  0  0  0  0
  5  4  1  0  0  0  0
  6  8  1  0  0  0  0
  7  9  1  0  0  0  0
  9  8  2  0  0  0  0
 10  6  2  0  0  0  0
 11 10  1  0  0  0  0
 11  7  2  0  0  0  0
 12 10  1  0  0  0  0
 13 12  1  0  0  0  0
 14 13  1  0  0  0  0
 15 14  1  0  0  0  0
 16 17  2  6  0  0  0
 16 19  1  0  0  0  0
 16 21  1  0  0  0  0
 16 15  1  0  0  0  0
 19 18  1  0  0  0  0
 19 20  1  0  0  0  0
 22 21  1  0  0  0  0
 22 25  1  0  0  0  0
 23 27  1  0  0  0  0
 25 27  1  0  0  0  0
 26 28  1  0  0  0  0
 26 22  1  0  0  0  0
 28 24  1  1  0  0  0
 28 23  1  0  0  0  0
 29 30  1  0  0  0  0
 30 36  1  0  0  0  0
 31 36  2  0  0  0  0
 31 35  1  0  0  0  0
 32 33  2  0  0  0  0
 34 33  1  0  0  0  0
 35 34  2  0  0  0  0
 36 32  1  0  0  0  0
 38 37  1  0  0  0  0
 39 38  1  0  0  0  0
 40 42  1  0  0  0  0
 40 41  2  0  0  0  0
 41 39  1  0  0  0  0
 42 44  1  0  0  0  0
 43 42  2  0  0  0  0
 45 49  1  0  0  0  0
 46 47  2  0  0  0  0
 47 45  1  0  0  0  0
 47 44  1  0  0  0  0
 48 53  2  0  0  0  0
 49 53  1  0  0  0  0
 50 52  1  0  0  0  0
 50 51  1  0  0  0  0
 51 54  1  1  0  0  0
 51 48  1  0  0  0  0
 52 49  2  0  0  0  0
M  END
>  <MODEL>
6

>  <REMARK>
 VINA RESULT:      -6.9      6.031     11.153
  Name = 
  20 active torsions:
  status: ('A' for Active; 'I' for Inactive)
    1  A    between atoms: C_3  and  N_5
    2  A    between atoms: C_3  and  P_11
    3  A    between atoms: N_6  and  C_10
    4  A    between atoms: N_8  and  C_13
    5  A    between atoms: C_9  and  C_22
    6  A    between atoms: C_10  and  S_53
    7  A    between atoms: P_11  and  P_25
    8  A    between atoms: P_11  and  C_35
    9  A    between atoms: C_15  and  N_17
   10  A    between atoms: C_15  and  N_29
   11  A    between atoms: C_15  and  C_48
   12  A    between atoms: N_17  and  C_23
   13  A    between atoms: C_20  and  S_33
   14  A    between atoms: C_20  and  C_34
   15  A    between atoms: C_23  and  C_39
   16  A    between atoms: S_33  and  C_37
   17  A    between atoms: C_34  and  C_35
   18  A    between atoms: C_39  and  C_51
   19  A    between atoms: C_42  and  S_53
   20  A    between atoms: C_45  and  C_47
                            x       y       z     vdW  Elec       q    Type
                         _______ _______ _______ _____ _____    ______ ____

>  <TORSDO>
F 20

$$$$
=
 OpenBabel10232411133D

 54 58  0  0  1  0  0  0  0  0999 V2000
  187.9950  178.5380  141.5860 C   0  0  1  0  0  3  0  0  0  0  0  0
  184.8110  178.8660  143.4880 C   0  0  2  0  0  3  0  0  0  0  0  0
  185.7530  179.7880  142.6720 C   0  0  0  0  0  2  0  0  0  0  0  0
  185.7510  177.6690  143.1400 C   0  0  0  0  0  2  0  0  0  0  0  0
  186.6090  178.6180  142.3730 C   0  0  2  0  0  3  0  0  0  0  0  0
  183.3470  178.7350  142.9730 C   0  0  0  0  0  0  0  0  0  0  0  0
  180.5880  179.0760  142.3200 C   0  0  0  0  0  3  0  0  0  0  0  0
  182.3160  178.7860  143.9540 C   0  0  0  0  0  3  0  0  0  0  0  0
  180.9680  178.9500  143.6450 C   0  0  0  0  0  3  0  0  0  0  0  0
  182.9470  178.7770  141.6060 C   0  0  0  0  0  0  0  0  0  0  0  0
  181.5740  178.9910  141.3060 C   0  0  0  0  0  3  0  0  0  0  0  0
  184.0050  178.4200  140.1290 S   0  0  0  0  0  0  0  0  0  0  0  0
  182.7860  177.1940  139.4620 C   0  0  0  0  0  2  0  0  0  0  0  0
  182.8580  176.5130  138.0720 C   0  0  0  0  0  2  0  0  0  0  0  0
  183.3270  175.0090  138.0960 C   0  0  0  0  0  2  0  0  0  0  0  0
  184.3770  174.7620  136.5160 P   0  0  2  0  0  0  0  0  0  0  0  0
  183.7670  174.6610  135.1200 O   0  0  0  0  0  0  0  0  0  0  0  0
  185.2910  172.3560  135.2140 O   0  0  0  0  0  1  0  0  0  0  0  0
  184.9820  172.7040  136.9400 P   0  0  0  0  0  0  0  0  0  0  0  0
  186.6600  172.6970  137.5100 O   0  0  0  0  0  1  0  0  0  0  0  0
  185.1530  176.3810  136.3330 C   0  0  0  0  0  2  0  0  0  0  0  0
  186.6050  176.3040  135.9480 N   0  0  0  0  0  0  0  0  0  0  0  0
  188.9690  177.1160  134.3460 C   0  0  0  0  0  2  0  0  0  0  0  0
  189.6510  175.0370  135.4900 O   0  0  0  0  0  1  0  0  0  0  0  0
  186.7320  177.6160  135.2930 C   0  0  0  0  0  2  0  0  0  0  0  0
  187.1660  175.3560  134.9500 C   0  0  0  0  0  2  0  0  0  0  0  0
  188.2210  178.0380  135.2880 C   0  0  0  0  0  2  0  0  0  0  0  0
  188.6470  175.6720  134.6380 C   0  0  1  0  0  3  0  0  0  0  0  0
  189.0890  177.9470  142.4190 N   0  0  0  0  0  2  0  0  0  0  0  0
  188.9340  178.0860  143.7060 C   0  0  0  0  0  2  0  0  0  0  0  0
  190.9850  176.9460  144.8190 C   0  0  0  0  0  3  0  0  0  0  0  0
  189.1610  177.6080  146.1550 C   0  0  0  0  0  3  0  0  0  0  0  0
  189.7230  177.1560  147.2990 N   0  0  0  0  0  0  0  0  0  0  0  0
  190.9890  176.5870  147.2150 C   0  0  0  0  0  3  0  0  0  0  0  0
  191.6230  176.4580  146.0080 C   0  0  0  0  0  3  0  0  0  0  0  0
  189.7200  177.5480  144.8750 C   0  0  0  0  0  0  0  0  0  0  0  0
  187.8280  177.8370  140.3360 N   0  0  0  0  0  2  0  0  0  0  0  0
  188.6290  178.5180  139.3360 C   0  0  0  0  0  2  0  0  0  0  0  0
  189.3980  177.3710  138.5230 C   0  0  0  0  0  2  0  0  0  0  0  0
  191.2970  176.2350  139.6980 N   0  0  0  0  0  0  0  0  0  0  0  0
  190.0400  176.5120  139.5740 C   0  0  0  0  0  3  0  0  0  0  0  0
  192.4990  176.6020  138.9540 C   0  0  0  0  0  0  0  0  0  0  0  0
  193.3590  177.2850  139.5510 O   0  0  0  0  0  0  0  0  0  0  0  0
  192.5470  176.1640  137.1740 S   0  0  0  0  0  0  0  0  0  0  0  0
  195.0510  174.9360  137.4610 N   0  0  0  0  0  2  0  0  0  0  0  0
  194.9510  176.6840  135.8340 N   0  0  0  0  0  2  0  0  0  0  0  0
  194.3490  175.9790  136.7690 C   0  0  0  0  0  0  0  0  0  0  0  0
  198.7650  174.2970  137.5440 C   0  0  0  0  0  3  0  0  0  0  0  0
  196.3330  174.4220  137.1060 C   0  0  0  0  0  0  0  0  0  0  0  0
  197.8340  173.1100  135.5800 C   0  0  0  0  0  2  0  0  0  0  0  0
  199.0110  173.9560  136.1040 C   0  0  2  0  0  3  0  0  0  0  0  0
  196.4890  173.7630  135.9740 C   0  0  0  0  0  3  0  0  0  0  0  0
  197.5200  174.5820  137.9870 C   0  0  0  0  0  3  0  0  0  0  0  0
  200.1910  173.2960  135.9640 F   0  0  0  0  0  0  0  0  0  0  0  0
  1 37  1  6  0  0  0
  1 29  1  0  0  0  0
  2  6  1  6  0  0  0
  3  2  1  0  0  0  0
  4  2  1  0  0  0  0
  5  1  1  1  0  0  0
  5  3  1  0  0  0  0
  5  4  1  0  0  0  0
  6  8  1  0  0  0  0
  7  9  1  0  0  0  0
  9  8  2  0  0  0  0
 10  6  2  0  0  0  0
 11 10  1  0  0  0  0
 11  7  2  0  0  0  0
 12 10  1  0  0  0  0
 13 12  1  0  0  0  0
 14 15  1  0  0  0  0
 14 13  1  0  0  0  0
 16 17  2  6  0  0  0
 16 19  1  0  0  0  0
 16 15  1  0  0  0  0
 18 19  1  0  0  0  0
 19 20  1  0  0  0  0
 21 16  1  0  0  0  0
 22 21  1  0  0  0  0
 23 28  1  0  0  0  0
 23 27  1  0  0  0  0
 25 22  1  0  0  0  0
 26 22  1  0  0  0  0
 27 25  1  0  0  0  0
 28 26  1  0  0  0  0
 28 24  1  1  0  0  0
 29 30  1  0  0  0  0
 30 36  1  0  0  0  0
 31 36  2  0  0  0  0
 31 35  1  0  0  0  0
 32 33  2  0  0  0  0
 34 33  1  0  0  0  0
 35 34  2  0  0  0  0
 36 32  1  0  0  0  0
 38 37  1  0  0  0  0
 39 38  1  0  0  0  0
 39 41  1  0  0  0  0
 41 40  2  0  0  0  0
 42 43  2  0  0  0  0
 42 40  1  0  0  0  0
 44 42  1  0  0  0  0
 46 47  2  0  0  0  0
 47 44  1  0  0  0  0
 47 45  1  0  0  0  0
 48 53  2  0  0  0  0
 49 45  1  0  0  0  0
 49 53  1  0  0  0  0
 50 52  1  0  0  0  0
 50 51  1  0  0  0  0
 51 54  1  1  0  0  0
 51 48  1  0  0  0  0
 52 49  2  0  0  0  0
M  END
>  <MODEL>
7

>  <REMARK>
 VINA RESULT:      -6.9      5.458     11.079
  Name = 
  20 active torsions:
  status: ('A' for Active; 'I' for Inactive)
    1  A    between atoms: C_3  and  N_5
    2  A    between atoms: C_3  and  P_11
    3  A    between atoms: N_6  and  C_10
    4  A    between atoms: N_8  and  C_13
    5  A    between atoms: C_9  and  C_22
    6  A    between atoms: C_10  and  S_53
    7  A    between atoms: P_11  and  P_25
    8  A    between atoms: P_11  and  C_35
    9  A    between atoms: C_15  and  N_17
   10  A    between atoms: C_15  and  N_29
   11  A    between atoms: C_15  and  C_48
   12  A    between atoms: N_17  and  C_23
   13  A    between atoms: C_20  and  S_33
   14  A    between atoms: C_20  and  C_34
   15  A    between atoms: C_23  and  C_39
   16  A    between atoms: S_33  and  C_37
   17  A    between atoms: C_34  and  C_35
   18  A    between atoms: C_39  and  C_51
   19  A    between atoms: C_42  and  S_53
   20  A    between atoms: C_45  and  C_47
                            x       y       z     vdW  Elec       q    Type
                         _______ _______ _______ _____ _____    ______ ____

>  <TORSDO>
F 20

$$$$
=
 OpenBabel10232411133D

 54 58  0  0  1  0  0  0  0  0999 V2000
  191.1300  173.5560  135.0460 C   0  0  1  0  0  3  0  0  0  0  0  0
  191.5310  176.5220  137.2590 C   0  0  2  0  0  3  0  0  0  0  0  0
  191.1370  176.2430  135.7860 C   0  0  0  0  0  2  0  0  0  0  0  0
  191.6550  174.9820  137.4740 C   0  0  0  0  0  2  0  0  0  0  0  0
  191.2700  174.7910  136.0460 C   0  0  2  0  0  3  0  0  0  0  0  0
  190.4640  177.2350  138.1430 C   0  0  0  0  0  0  0  0  0  0  0  0
  188.1340  178.0350  139.5860 C   0  0  0  0  0  3  0  0  0  0  0  0
  189.2390  177.5890  137.5090 C   0  0  0  0  0  3  0  0  0  0  0  0
  188.0990  177.9830  138.2040 C   0  0  0  0  0  3  0  0  0  0  0  0
  190.5270  177.3730  139.5600 C   0  0  0  0  0  0  0  0  0  0  0  0
  189.3430  177.7310  140.2610 C   0  0  0  0  0  3  0  0  0  0  0  0
  192.0450  177.2950  140.6160 S   0  0  0  0  0  0  0  0  0  0  0  0
  191.0480  177.3070  142.1770 C   0  0  0  0  0  2  0  0  0  0  0  0
  191.6060  177.5360  143.6040 C   0  0  0  0  0  2  0  0  0  0  0  0
  191.0830  176.5220  144.6910 C   0  0  0  0  0  2  0  0  0  0  0  0
  189.4480  177.2600  145.3540 P   0  0  2  0  0  0  0  0  0  0  0  0
  189.1350  178.7550  145.3160 O   0  0  0  0  0  0  0  0  0  0  0  0
  191.6210  176.9310  147.2210 O   0  0  0  0  0  1  0  0  0  0  0  0
  189.8520  176.8960  147.4710 P   0  0  0  0  0  0  0  0  0  0  0  0
  189.6880  178.4180  148.3650 O   0  0  0  0  0  1  0  0  0  0  0  0
  188.2660  176.7240  144.0990 C   0  0  0  0  0  2  0  0  0  0  0  0
  187.1650  177.7200  143.8570 N   0  0  0  0  0  0  0  0  0  0  0  0
  184.4180  178.7780  144.2420 C   0  0  0  0  0  2  0  0  0  0  0  0
  185.3240  180.0270  142.3130 O   0  0  0  0  0  1  0  0  0  0  0  0
  186.3410  177.4330  145.0430 C   0  0  0  0  0  2  0  0  0  0  0  0
  186.1970  177.6530  142.7310 C   0  0  0  0  0  2  0  0  0  0  0  0
  185.4470  178.6590  145.3470 C   0  0  0  0  0  2  0  0  0  0  0  0
  185.0740  178.7050  142.8860 C   0  0  1  0  0  3  0  0  0  0  0  0
  191.7080  172.2980  135.6130 N   0  0  0  0  0  2  0  0  0  0  0  0
  193.0020  172.3110  135.7700 C   0  0  0  0  0  2  0  0  0  0  0  0
  193.8040  169.9260  136.4170 C   0  0  0  0  0  3  0  0  0  0  0  0
  195.0730  171.7960  137.0840 C   0  0  0  0  0  3  0  0  0  0  0  0
  196.0030  171.0470  137.7190 N   0  0  0  0  0  0  0  0  0  0  0  0
  195.8480  169.6660  137.6910 C   0  0  0  0  0  3  0  0  0  0  0  0
  194.7690  169.0920  137.0720 C   0  0  0  0  0  3  0  0  0  0  0  0
  193.9470  171.3220  136.4050 C   0  0  0  0  0  0  0  0  0  0  0  0
  189.7560  173.3840  134.6420 N   0  0  0  0  0  2  0  0  0  0  0  0
  189.1670  172.3680  135.4940 C   0  0  0  0  0  2  0  0  0  0  0  0
  188.3350  173.1560  136.6150 C   0  0  0  0  0  2  0  0  0  0  0  0
  186.4120  174.3380  135.5270 N   0  0  0  0  0  0  0  0  0  0  0  0
  187.6550  174.2760  135.8810 C   0  0  0  0  0  3  0  0  0  0  0  0
  185.2650  173.4480  135.6760 C   0  0  0  0  0  0  0  0  0  0  0  0
  184.8030  172.9260  134.6380 O   0  0  0  0  0  0  0  0  0  0  0  0
  184.5190  173.3170  137.3460 S   0  0  0  0  0  0  0  0  0  0  0  0
  183.1780  175.2970  138.8100 N   0  0  0  0  0  2  0  0  0  0  0  0
  182.8750  175.3970  136.4420 N   0  0  0  0  0  2  0  0  0  0  0  0
  183.3880  174.7830  137.4870 C   0  0  0  0  0  0  0  0  0  0  0  0
  182.9150  178.9230  139.8080 C   0  0  0  0  0  3  0  0  0  0  0  0
  182.6050  176.5640  139.1270 C   0  0  0  0  0  0  0  0  0  0  0  0
  180.6170  178.0440  139.5250 C   0  0  0  0  0  2  0  0  0  0  0  0
  181.5300  178.9430  140.3820 C   0  0  2  0  0  3  0  0  0  0  0  0
  181.2990  176.6810  139.2670 C   0  0  0  0  0  3  0  0  0  0  0  0
  183.4350  177.7880  139.2870 C   0  0  0  0  0  3  0  0  0  0  0  0
  181.0550  180.2160  140.4370 F   0  0  0  0  0  0  0  0  0  0  0  0
  1 37  1  1  0  0  0
  1 29  1  0  0  0  0
  2  4  1  0  0  0  0
  2  6  1  1  0  0  0
  3  5  1  0  0  0  0
  3  2  1  0  0  0  0
  5  1  1  6  0  0  0
  5  4  1  0  0  0  0
  6 10  1  0  0  0  0
  7 11  1  0  0  0  0
  8  6  2  0  0  0  0
  8  9  1  0  0  0  0
  9  7  2  0  0  0  0
 10 11  2  0  0  0  0
 10 12  1  0  0  0  0
 12 13  1  0  0  0  0
 13 14  1  0  0  0  0
 14 15  1  0  0  0  0
 15 16  1  0  0  0  0
 16 17  2  6  0  0  0
 16 19  1  0  0  0  0
 18 19  1  0  0  0  0
 19 20  1  0  0  0  0
 21 16  1  0  0  0  0
 22 21  1  0  0  0  0
 22 25  1  0  0  0  0
 23 27  1  0  0  0  0
 25 27  1  0  0  0  0
 26 28  1  0  0  0  0
 26 22  1  0  0  0  0
 28 24  1  1  0  0  0
 28 23  1  0  0  0  0
 29 30  1  0  0  0  0
 30 36  1  0  0  0  0
 31 35  1  0  0  0  0
 32 33  2  0  0  0  0
 34 33  1  0  0  0  0
 35 34  2  0  0  0  0
 36 31  2  0  0  0  0
 36 32  1  0  0  0  0
 37 38  1  0  0  0  0
 38 39  1  0  0  0  0
 40 42  1  0  0  0  0
 40 41  2  0  0  0  0
 41 39  1  0  0  0  0
 42 44  1  0  0  0  0
 43 42  2  0  0  0  0
 44 47  1  0  0  0  0
 45 49  1  0  0  0  0
 46 47  2  0  0  0  0
 47 45  1  0  0  0  0
 48 51  1  0  0  0  0
 49 52  2  0  0  0  0
 49 53  1  0  0  0  0
 50 51  1  0  0  0  0
 51 54  1  6  0  0  0
 52 50  1  0  0  0  0
 53 48  2  0  0  0  0
M  END
>  <MODEL>
8

>  <REMARK>
 VINA RESULT:      -6.7      4.579     10.754
  Name = 
  20 active torsions:
  status: ('A' for Active; 'I' for Inactive)
    1  A    between atoms: C_3  and  N_5
    2  A    between atoms: C_3  and  P_11
    3  A    between atoms: N_6  and  C_10
    4  A    between atoms: N_8  and  C_13
    5  A    between atoms: C_9  and  C_22
    6  A    between atoms: C_10  and  S_53
    7  A    between atoms: P_11  and  P_25
    8  A    between atoms: P_11  and  C_35
    9  A    between atoms: C_15  and  N_17
   10  A    between atoms: C_15  and  N_29
   11  A    between atoms: C_15  and  C_48
   12  A    between atoms: N_17  and  C_23
   13  A    between atoms: C_20  and  S_33
   14  A    between atoms: C_20  and  C_34
   15  A    between atoms: C_23  and  C_39
   16  A    between atoms: S_33  and  C_37
   17  A    between atoms: C_34  and  C_35
   18  A    between atoms: C_39  and  C_51
   19  A    between atoms: C_42  and  S_53
   20  A    between atoms: C_45  and  C_47
                            x       y       z     vdW  Elec       q    Type
                         _______ _______ _______ _____ _____    ______ ____

>  <TORSDO>
F 20

$$$$
=
 OpenBabel10232411133D

 54 58  0  0  1  0  0  0  0  0999 V2000
  188.8260  178.3310  140.6430 C   0  0  1  0  0  3  0  0  0  0  0  0
  190.3060  176.8150  137.5810 C   0  0  2  0  0  3  0  0  0  0  0  0
  190.1990  176.4680  139.0880 C   0  0  0  0  0  2  0  0  0  0  0  0
  189.4620  178.0980  137.8590 C   0  0  0  0  0  2  0  0  0  0  0  0
  189.4030  177.6990  139.2950 C   0  0  2  0  0  3  0  0  0  0  0  0
  189.6680  175.8000  136.5860 C   0  0  0  0  0  0  0  0  0  0  0  0
  187.9720  174.3190  134.8300 C   0  0  0  0  0  3  0  0  0  0  0  0
  188.4960  175.1220  137.0250 C   0  0  0  0  0  3  0  0  0  0  0  0
  187.6640  174.3960  136.1770 C   0  0  0  0  0  3  0  0  0  0  0  0
  190.0330  175.6490  135.2170 C   0  0  0  0  0  0  0  0  0  0  0  0
  189.1520  174.9440  134.3530 C   0  0  0  0  0  3  0  0  0  0  0  0
  191.6390  176.1370  134.4360 S   0  0  0  0  0  0  0  0  0  0  0  0
  192.3230  174.4230  134.5990 C   0  0  0  0  0  2  0  0  0  0  0  0
  193.0500  173.8540  135.8430 C   0  0  0  0  0  2  0  0  0  0  0  0
  192.7150  172.3510  136.1770 C   0  0  0  0  0  2  0  0  0  0  0  0
  194.3140  171.3640  135.8180 P   0  0  2  0  0  0  0  0  0  0  0  0
  195.3500  171.8060  134.7870 O   0  0  0  0  0  0  0  0  0  0  0  0
  193.1430  168.7920  136.3910 O   0  0  0  0  0  1  0  0  0  0  0  0
  193.3430  169.6650  134.8450 P   0  0  0  0  0  0  0  0  0  0  0  0
  191.6400  170.0590  134.5490 O   0  0  0  0  0  1  0  0  0  0  0  0
  195.2860  171.6870  137.3050 C   0  0  0  0  0  2  0  0  0  0  0  0
  196.3520  172.7300  137.1020 N   0  0  0  0  0  0  0  0  0  0  0  0
  199.0730  173.8480  137.4960 C   0  0  0  0  0  2  0  0  0  0  0  0
  197.7460  175.7030  136.5490 O   0  0  0  0  0  1  0  0  0  0  0  0
  197.5300  171.9070  137.4220 C   0  0  0  0  0  2  0  0  0  0  0  0
  196.5240  173.9380  137.9500 C   0  0  0  0  0  2  0  0  0  0  0  0
  198.7840  172.5460  136.7760 C   0  0  0  0  0  2  0  0  0  0  0  0
  197.8290  174.6920  137.6030 C   0  0  1  0  0  3  0  0  0  0  0  0
  187.3900  178.7280  140.5150 N   0  0  0  0  0  2  0  0  0  0  0  0
  186.7900  178.2850  139.4460 C   0  0  0  0  0  2  0  0  0  0  0  0
  184.7470  177.5480  138.0220 C   0  0  0  0  0  3  0  0  0  0  0  0
  184.5060  179.3050  139.5720 C   0  0  0  0  0  3  0  0  0  0  0  0
  183.2010  179.5050  139.2730 N   0  0  0  0  0  0  0  0  0  0  0  0
  182.6250  178.6780  138.3160 C   0  0  0  0  0  3  0  0  0  0  0  0
  183.3650  177.7200  137.6760 C   0  0  0  0  0  3  0  0  0  0  0  0
  185.3510  178.3500  139.0010 C   0  0  0  0  0  0  0  0  0  0  0  0
  189.0430  177.4370  141.7550 N   0  0  0  0  0  2  0  0  0  0  0  0
  189.5160  178.2310  142.8740 C   0  0  0  0  0  2  0  0  0  0  0  0
  191.0720  177.8840  143.0410 C   0  0  0  0  0  2  0  0  0  0  0  0
  191.0680  176.0940  144.7940 N   0  0  0  0  0  0  0  0  0  0  0  0
  191.1030  176.4740  143.5580 C   0  0  0  0  0  3  0  0  0  0  0  0
  190.9860  176.7930  146.0730 C   0  0  0  0  0  0  0  0  0  0  0  0
  191.9860  177.4510  146.4340 O   0  0  0  0  0  0  0  0  0  0  0  0
  189.4890  176.5020  147.0910 S   0  0  0  0  0  0  0  0  0  0  0  0
  187.3190  177.1510  145.4390 N   0  0  0  0  0  2  0  0  0  0  0  0
  188.0570  178.9000  146.8900 N   0  0  0  0  0  2  0  0  0  0  0  0
  188.2150  177.6780  146.4270 C   0  0  0  0  0  0  0  0  0  0  0  0
  184.7160  178.6810  143.1820 C   0  0  0  0  0  3  0  0  0  0  0  0
  186.1020  177.7600  145.0140 C   0  0  0  0  0  0  0  0  0  0  0  0
  183.8640  178.7860  145.5050 C   0  0  0  0  0  2  0  0  0  0  0  0
  183.9800  179.5410  144.1660 C   0  0  2  0  0  3  0  0  0  0  0  0
  185.2350  178.1970  145.9070 C   0  0  0  0  0  3  0  0  0  0  0  0
  185.7510  177.9050  143.5760 C   0  0  0  0  0  3  0  0  0  0  0  0
  182.7540  179.8770  143.6830 F   0  0  0  0  0  0  0  0  0  0  0  0
  1 29  1  6  0  0  0
  1 37  1  0  0  0  0
  2  6  1  6  0  0  0
  2  4  1  0  0  0  0
  2  3  1  0  0  0  0
  3  5  1  0  0  0  0
  4  5  1  0  0  0  0
  5  1  1  1  0  0  0
  6  8  1  0  0  0  0
  7  9  1  0  0  0  0
  9  8  2  0  0  0  0
 10  6  2  0  0  0  0
 11  7  2  0  0  0  0
 11 10  1  0  0  0  0
 12 13  1  0  0  0  0
 12 10  1  0  0  0  0
 13 14  1  0  0  0  0
 14 15  1  0  0  0  0
 16 17  2  6  0  0  0
 16 15  1  0  0  0  0
 16 21  1  0  0  0  0
 19 16  1  0  0  0  0
 19 18  1  0  0  0  0
 20 19  1  0  0  0  0
 22 21  1  0  0  0  0
 22 25  1  0  0  0  0
 22 26  1  0  0  0  0
 23 28  1  0  0  0  0
 27 25  1  0  0  0  0
 27 23  1  0  0  0  0
 28 24  1  6  0  0  0
 28 26  1  0  0  0  0
 30 29  1  0  0  0  0
 31 36  1  0  0  0  0
 33 32  1  0  0  0  0
 34 33  2  0  0  0  0
 35 31  2  0  0  0  0
 35 34  1  0  0  0  0
 36 30  1  0  0  0  0
 36 32  2  0  0  0  0
 37 38  1  0  0  0  0
 38 39  1  0  0  0  0
 39 41  1  0  0  0  0
 40 42  1  0  0  0  0
 41 40  2  0  0  0  0
 42 43  2  0  0  0  0
 42 44  1  0  0  0  0
 45 47  1  0  0  0  0
 47 46  2  0  0  0  0
 47 44  1  0  0  0  0
 48 53  2  0  0  0  0
 48 51  1  0  0  0  0
 49 45  1  0  0  0  0
 49 52  2  0  0  0  0
 50 52  1  0  0  0  0
 51 54  1  6  0  0  0
 51 50  1  0  0  0  0
 53 49  1  0  0  0  0
M  END
>  <MODEL>
9

>  <REMARK>
 VINA RESULT:      -6.6      2.062      2.964
  Name = 
  20 active torsions:
  status: ('A' for Active; 'I' for Inactive)
    1  A    between atoms: C_3  and  N_5
    2  A    between atoms: C_3  and  P_11
    3  A    between atoms: N_6  and  C_10
    4  A    between atoms: N_8  and  C_13
    5  A    between atoms: C_9  and  C_22
    6  A    between atoms: C_10  and  S_53
    7  A    between atoms: P_11  and  P_25
    8  A    between atoms: P_11  and  C_35
    9  A    between atoms: C_15  and  N_17
   10  A    between atoms: C_15  and  N_29
   11  A    between atoms: C_15  and  C_48
   12  A    between atoms: N_17  and  C_23
   13  A    between atoms: C_20  and  S_33
   14  A    between atoms: C_20  and  C_34
   15  A    between atoms: C_23  and  C_39
   16  A    between atoms: S_33  and  C_37
   17  A    between atoms: C_34  and  C_35
   18  A    between atoms: C_39  and  C_51
   19  A    between atoms: C_42  and  S_53
   20  A    between atoms: C_45  and  C_47
                            x       y       z     vdW  Elec       q    Type
                         _______ _______ _______ _____ _____    ______ ____

>  <TORSDO>
F 20

$$$$
