=
 OpenBabel10232412333D

 29 30  0  0  1  0  0  0  0  0999 V2000
  190.2940  177.2580  140.1870 C   0  0  0  0  0  3  0  0  0  0  0  0
  188.0340  177.5640  143.9140 C   0  0  1  0  0  3  0  0  0  0  0  0
  191.0860  176.7380  142.8080 C   0  0  0  0  0  0  0  0  0  0  0  0
  189.7320  176.6060  142.4080 C   0  0  0  0  0  0  0  0  0  0  0  0
  190.0730  178.0420  145.3420 C   0  0  0  0  0  2  0  0  0  0  0  0
  191.6290  176.4010  144.1760 C   0  0  0  0  0  2  0  0  0  0  0  0
  189.3830  176.8810  141.1210 N   0  0  0  0  0  0  0  0  0  0  0  0
  192.0280  177.1150  141.8470 C   0  0  0  0  0  3  0  0  0  0  0  0
  188.5580  177.8850  145.3130 C   0  0  0  0  0  2  0  0  0  0  0  0
  188.6360  176.2710  143.3660 C   0  0  0  0  0  2  0  0  0  0  0  0
  191.6380  177.3760  140.5340 C   0  0  0  0  0  0  0  0  0  0  0  0
  190.7080  176.6600  145.3680 C   0  0  1  0  0  3  0  0  0  0  0  0
  192.2760  175.4620  146.7480 N   0  0  0  0  0  2  0  0  0  0  0  0
  191.2150  177.2930  147.7690 N   0  0  0  0  0  1  0  0  0  0  0  0
  191.4360  176.4370  146.6510 C   0  0  0  0  0  0  0  0  0  0  0  0
  185.7730  178.4220  143.4760 C   0  0  0  0  0  3  0  0  0  0  0  0
  186.5460  177.4550  143.9670 C   0  0  0  0  0  3  0  0  0  0  0  0
  184.2870  178.3070  143.5320 C   0  0  0  0  0  2  0  0  0  0  0  0
  183.7000  179.3550  142.8210 O   0  0  0  0  0  0  0  0  0  0  0  0
  183.8330  177.1410  141.1780 F   0  0  0  0  0  0  0  0  0  0  0  0
  183.5810  178.7960  141.2260 P   0  0  1  0  0  0  0  0  0  0  0  0
  182.0460  179.1510  140.6070 O   0  0  0  0  0  1  0  0  0  0  0  0
  184.6280  179.4810  140.3790 O   0  0  0  0  0  0  0  0  0  0  0  0
  192.6410  177.8070  139.5240 C   0  0  0  0  0  2  0  0  0  0  0  0
  193.5020  176.6890  139.1780 N   0  0  0  0  0  2  0  0  0  0  0  0
  193.1720  176.3140  137.8160 C   0  0  0  0  0  2  0  0  0  0  0  0
  193.2940  174.8100  137.6630 C   0  0  0  0  0  2  0  0  0  0  0  0
  191.9770  174.2220  137.1920 C   0  0  0  0  0  2  0  0  0  0  0  0
  190.9540  174.5720  138.0750 O   0  0  0  0  0  1  0  0  0  0  0  0
  1 11  2  0  0  0  0
  1  7  1  0  0  0  0
  2 17  1  1  0  0  0
  2  9  1  0  0  0  0
  3  6  1  0  0  0  0
  4  3  1  0  0  0  0
  4 10  1  0  0  0  0
  5 12  1  0  0  0  0
  6 12  1  0  0  0  0
  7  4  2  0  0  0  0
  8  3  2  0  0  0  0
  9  5  1  0  0  0  0
 10  2  1  0  0  0  0
 11  8  1  0  0  0  0
 12 15  1  1  0  0  0
 15 13  2  0  0  0  0
 15 14  1  0  0  0  0
 16 18  1  0  0  0  0
 16 17  2  0  0  0  0
 19 18  1  0  0  0  0
 20 21  1  0  0  0  0
 21 23  2  6  0  0  0
 21 19  1  0  0  0  0
 22 21  1  0  0  0  0
 24 11  1  0  0  0  0
 25 24  1  0  0  0  0
 26 25  1  0  0  0  0
 27 26  1  0  0  0  0
 28 27  1  0  0  0  0
 28 29  1  0  0  0  0
M  END
>  <MODEL>
1

>  <REMARK>
 VINA RESULT:      -7.1      0.000      0.000
  Name = 
  10 active torsions:
  status: ('A' for Active; 'I' for Inactive)
    1  A    between atoms: C_2  and  C_23
    2  A    between atoms: P_7  and  O_19
    3  A    between atoms: C_13  and  C_16
    4  A    between atoms: C_14  and  C_24
    5  A    between atoms: C_16  and  O_19
    6  A    between atoms: N_18  and  C_20
    7  A    between atoms: N_18  and  C_25
    8  A    between atoms: C_20  and  C_28
    9  A    between atoms: C_24  and  C_25
   10  A    between atoms: C_27  and  C_29
                            x       y       z     vdW  Elec       q    Type
                         _______ _______ _______ _____ _____    ______ ____

>  <TORSDO>
F 10

$$$$
=
 OpenBabel10232412333D

 29 30  0  0  1  0  0  0  0  0999 V2000
  188.9110  177.3200  140.5660 C   0  0  0  0  0  3  0  0  0  0  0  0
  187.6520  177.8860  144.7120 C   0  0  1  0  0  3  0  0  0  0  0  0
  190.2390  176.7110  142.9390 C   0  0  0  0  0  0  0  0  0  0  0  0
  188.8230  176.7370  142.8740 C   0  0  0  0  0  0  0  0  0  0  0  0
  190.0120  178.1240  145.6040 C   0  0  0  0  0  2  0  0  0  0  0  0
  191.0500  176.3130  144.1490 C   0  0  0  0  0  2  0  0  0  0  0  0
  188.2120  177.0520  141.6990 N   0  0  0  0  0  0  0  0  0  0  0  0
  190.9620  176.9760  141.7730 C   0  0  0  0  0  3  0  0  0  0  0  0
  188.5260  178.1440  145.9370 C   0  0  0  0  0  2  0  0  0  0  0  0
  187.9560  176.5320  144.0730 C   0  0  0  0  0  2  0  0  0  0  0  0
  190.3040  177.2810  140.5820 C   0  0  0  0  0  0  0  0  0  0  0  0
  190.4750  176.6770  145.5170 C   0  0  1  0  0  3  0  0  0  0  0  0
  192.2750  175.3830  146.4550 N   0  0  0  0  0  2  0  0  0  0  0  0
  191.5010  177.1610  147.7830 N   0  0  0  0  0  1  0  0  0  0  0  0
  191.4570  176.3710  146.5970 C   0  0  0  0  0  0  0  0  0  0  0  0
  185.3500  178.7070  144.4440 C   0  0  0  0  0  3  0  0  0  0  0  0
  186.2170  177.9510  145.1180 C   0  0  0  0  0  3  0  0  0  0  0  0
  183.9180  178.7660  144.8550 C   0  0  0  0  0  2  0  0  0  0  0  0
  183.2780  179.8200  144.1990 O   0  0  0  0  0  0  0  0  0  0  0  0
  181.3070  177.8890  144.2760 F   0  0  0  0  0  0  0  0  0  0  0  0
  181.9980  179.1040  143.3520 P   0  0  1  0  0  0  0  0  0  0  0  0
  180.8270  180.2690  142.9870 O   0  0  0  0  0  1  0  0  0  0  0  0
  182.5240  178.5090  142.0660 O   0  0  0  0  0  0  0  0  0  0  0  0
  191.0800  177.5920  139.3520 C   0  0  0  0  0  2  0  0  0  0  0  0
  190.3660  177.1060  138.1850 N   0  0  0  0  0  2  0  0  0  0  0  0
  191.3630  176.5570  137.2850 C   0  0  0  0  0  2  0  0  0  0  0  0
  192.6130  176.2050  138.0700 C   0  0  0  0  0  2  0  0  0  0  0  0
  193.7280  175.7990  137.1260 C   0  0  0  0  0  2  0  0  0  0  0  0
  194.8450  175.3880  137.8540 O   0  0  0  0  0  1  0  0  0  0  0  0
  1 11  2  0  0  0  0
  1  7  1  0  0  0  0
  2 17  1  1  0  0  0
  2  9  1  0  0  0  0
  3  6  1  0  0  0  0
  4  3  1  0  0  0  0
  4 10  1  0  0  0  0
  5  9  1  0  0  0  0
  6 12  1  0  0  0  0
  7  4  2  0  0  0  0
  8  3  2  0  0  0  0
 10  2  1  0  0  0  0
 11  8  1  0  0  0  0
 12  5  1  0  0  0  0
 12 15  1  1  0  0  0
 13 15  2  0  0  0  0
 15 14  1  0  0  0  0
 16 18  1  0  0  0  0
 16 17  2  0  0  0  0
 19 18  1  0  0  0  0
 21 23  2  6  0  0  0
 21 19  1  0  0  0  0
 21 20  1  0  0  0  0
 22 21  1  0  0  0  0
 24 11  1  0  0  0  0
 25 24  1  0  0  0  0
 26 27  1  0  0  0  0
 26 25  1  0  0  0  0
 28 29  1  0  0  0  0
 28 27  1  0  0  0  0
M  END
>  <MODEL>
2

>  <REMARK>
 VINA RESULT:      -7.0      1.731      1.859
  Name = 
  10 active torsions:
  status: ('A' for Active; 'I' for Inactive)
    1  A    between atoms: C_2  and  C_23
    2  A    between atoms: P_7  and  O_19
    3  A    between atoms: C_13  and  C_16
    4  A    between atoms: C_14  and  C_24
    5  A    between atoms: C_16  and  O_19
    6  A    between atoms: N_18  and  C_20
    7  A    between atoms: N_18  and  C_25
    8  A    between atoms: C_20  and  C_28
    9  A    between atoms: C_24  and  C_25
   10  A    between atoms: C_27  and  C_29
                            x       y       z     vdW  Elec       q    Type
                         _______ _______ _______ _____ _____    ______ ____

>  <TORSDO>
F 10

$$$$
=
 OpenBabel10232412333D

 29 30  0  0  1  0  0  0  0  0999 V2000
  184.3470  178.8800  140.3720 C   0  0  0  0  0  3  0  0  0  0  0  0
  188.3570  177.4040  141.2820 C   0  0  1  0  0  3  0  0  0  0  0  0
  185.5930  178.4850  142.8340 C   0  0  0  0  0  0  0  0  0  0  0  0
  186.3440  178.7710  141.6650 C   0  0  0  0  0  0  0  0  0  0  0  0
  187.7060  176.4370  143.5320 C   0  0  0  0  0  2  0  0  0  0  0  0
  186.1630  178.3380  144.2240 C   0  0  0  0  0  2  0  0  0  0  0  0
  185.6990  178.9450  140.4790 N   0  0  0  0  0  0  0  0  0  0  0  0
  184.2010  178.4280  142.7300 C   0  0  0  0  0  3  0  0  0  0  0  0
  188.8210  176.6270  142.5120 C   0  0  0  0  0  2  0  0  0  0  0  0
  187.8380  178.7920  141.6520 C   0  0  0  0  0  2  0  0  0  0  0  0
  183.5710  178.6250  141.5020 C   0  0  0  0  0  0  0  0  0  0  0  0
  187.5550  177.7190  144.3380 C   0  0  1  0  0  3  0  0  0  0  0  0
  187.0340  177.7100  146.6890 N   0  0  0  0  0  1  0  0  0  0  0  0
  189.2100  177.0220  146.1270 N   0  0  0  0  0  2  0  0  0  0  0  0
  187.9120  177.4880  145.7690 C   0  0  0  0  0  0  0  0  0  0  0  0
  190.6670  176.9390  140.5830 C   0  0  0  0  0  3  0  0  0  0  0  0
  189.4970  177.5200  140.3250 C   0  0  0  0  0  3  0  0  0  0  0  0
  191.8020  177.0590  139.6220 C   0  0  0  0  0  2  0  0  0  0  0  0
  191.3170  177.0790  138.3130 O   0  0  0  0  0  0  0  0  0  0  0  0
  191.9240  176.0250  135.8360 F   0  0  0  0  0  0  0  0  0  0  0  0
  192.2480  175.9380  137.4770 P   0  0  1  0  0  0  0  0  0  0  0  0
  193.8940  176.2340  137.7420 O   0  0  0  0  0  0  0  0  0  0  0  0
  191.9060  174.5540  137.9770 O   0  0  0  0  0  1  0  0  0  0  0  0
  182.0900  178.5320  141.3920 C   0  0  0  0  0  2  0  0  0  0  0  0
  181.7150  178.2760  140.0130 N   0  0  0  0  0  2  0  0  0  0  0  0
  180.8910  177.0810  140.0200 C   0  0  0  0  0  2  0  0  0  0  0  0
  181.7090  175.9000  139.5330 C   0  0  0  0  0  2  0  0  0  0  0  0
  182.2490  176.1740  138.1420 C   0  0  0  0  0  2  0  0  0  0  0  0
  183.6440  176.1760  138.1620 O   0  0  0  0  0  1  0  0  0  0  0  0
  1  7  2  0  0  0  0
  1 11  1  0  0  0  0
  2 17  1  6  0  0  0
  2 10  1  0  0  0  0
  2  9  1  0  0  0  0
  3  6  1  0  0  0  0
  4  3  2  0  0  0  0
  5 12  1  0  0  0  0
  6 12  1  0  0  0  0
  7  4  1  0  0  0  0
  8  3  1  0  0  0  0
  9  5  1  0  0  0  0
 10  4  1  0  0  0  0
 11  8  2  0  0  0  0
 12 15  1  1  0  0  0
 15 14  2  0  0  0  0
 15 13  1  0  0  0  0
 17 16  2  0  0  0  0
 18 16  1  0  0  0  0
 19 18  1  0  0  0  0
 21 20  1  6  0  0  0
 21 22  2  0  0  0  0
 21 23  1  0  0  0  0
 21 19  1  0  0  0  0
 24 11  1  0  0  0  0
 25 26  1  0  0  0  0
 25 24  1  0  0  0  0
 27 26  1  0  0  0  0
 28 29  1  0  0  0  0
 28 27  1  0  0  0  0
M  END
>  <MODEL>
3

>  <REMARK>
 VINA RESULT:      -6.9      4.031      7.721
  Name = 
  10 active torsions:
  status: ('A' for Active; 'I' for Inactive)
    1  A    between atoms: C_2  and  C_23
    2  A    between atoms: P_7  and  O_19
    3  A    between atoms: C_13  and  C_16
    4  A    between atoms: C_14  and  C_24
    5  A    between atoms: C_16  and  O_19
    6  A    between atoms: N_18  and  C_20
    7  A    between atoms: N_18  and  C_25
    8  A    between atoms: C_20  and  C_28
    9  A    between atoms: C_24  and  C_25
   10  A    between atoms: C_27  and  C_29
                            x       y       z     vdW  Elec       q    Type
                         _______ _______ _______ _____ _____    ______ ____

>  <TORSDO>
F 10

$$$$
=
 OpenBabel10232412333D

 29 30  0  0  1  0  0  0  0  0999 V2000
  186.5410  178.2930  138.9720 C   0  0  0  0  0  3  0  0  0  0  0  0
  188.1760  177.3760  142.9190 C   0  0  1  0  0  3  0  0  0  0  0  0
  185.5180  178.8440  141.5050 C   0  0  0  0  0  0  0  0  0  0  0  0
  186.9140  178.7200  141.2860 C   0  0  0  0  0  0  0  0  0  0  0  0
  185.9100  177.2520  144.0470 C   0  0  0  0  0  2  0  0  0  0  0  0
  184.8710  179.2220  142.8160 C   0  0  0  0  0  2  0  0  0  0  0  0
  187.3730  178.4380  140.0360 N   0  0  0  0  0  0  0  0  0  0  0  0
  184.6600  178.7070  140.4110 C   0  0  0  0  0  3  0  0  0  0  0  0
  187.4160  177.1040  144.2160 C   0  0  0  0  0  2  0  0  0  0  0  0
  187.9140  178.7860  142.3930 C   0  0  0  0  0  2  0  0  0  0  0  0
  185.1650  178.4310  139.1410 C   0  0  0  0  0  0  0  0  0  0  0  0
  185.5550  178.7310  144.0910 C   0  0  1  0  0  3  0  0  0  0  0  0
  185.2750  179.1520  146.4450 N   0  0  0  0  0  1  0  0  0  0  0  0
  183.3080  179.2080  145.1620 N   0  0  0  0  0  2  0  0  0  0  0  0
  184.7170  179.0380  145.2870 C   0  0  0  0  0  0  0  0  0  0  0  0
  190.1150  177.1010  144.4030 C   0  0  0  0  0  3  0  0  0  0  0  0
  189.6360  177.1820  143.1630 C   0  0  0  0  0  3  0  0  0  0  0  0
  191.5750  176.9070  144.6400 C   0  0  0  0  0  2  0  0  0  0  0  0
  191.9420  177.4850  145.8570 O   0  0  0  0  0  0  0  0  0  0  0  0
  190.1210  176.1170  147.4170 F   0  0  0  0  0  0  0  0  0  0  0  0
  191.7390  176.2600  147.0090 P   0  0  1  0  0  0  0  0  0  0  0  0
  192.2950  174.7870  146.3850 O   0  0  0  0  0  0  0  0  0  0  0  0
  192.5340  176.6050  148.2470 O   0  0  0  0  0  1  0  0  0  0  0  0
  184.2440  178.2550  137.9870 C   0  0  0  0  0  2  0  0  0  0  0  0
  184.8520  177.3780  137.0020 N   0  0  0  0  0  2  0  0  0  0  0  0
  184.1580  176.1070  137.0910 C   0  0  0  0  0  2  0  0  0  0  0  0
  185.1620  174.9750  136.9830 C   0  0  0  0  0  2  0  0  0  0  0  0
  184.6430  173.7420  137.6990 C   0  0  0  0  0  2  0  0  0  0  0  0
  185.7050  172.9040  138.0400 O   0  0  0  0  0  1  0  0  0  0  0  0
  1 11  2  0  0  0  0
  1  7  1  0  0  0  0
  2 17  1  1  0  0  0
  2  9  1  0  0  0  0
  3  6  1  0  0  0  0
  4  3  1  0  0  0  0
  4 10  1  0  0  0  0
  5 12  1  0  0  0  0
  5  9  1  0  0  0  0
  6 12  1  0  0  0  0
  7  4  2  0  0  0  0
  8  3  2  0  0  0  0
 10  2  1  0  0  0  0
 11  8  1  0  0  0  0
 12 15  1  1  0  0  0
 14 15  2  0  0  0  0
 15 13  1  0  0  0  0
 16 18  1  0  0  0  0
 17 16  2  0  0  0  0
 18 19  1  0  0  0  0
 19 21  1  0  0  0  0
 21 22  2  6  0  0  0
 21 20  1  0  0  0  0
 21 23  1  0  0  0  0
 24 11  1  0  0  0  0
 25 26  1  0  0  0  0
 25 24  1  0  0  0  0
 27 26  1  0  0  0  0
 27 28  1  0  0  0  0
 28 29  1  0  0  0  0
M  END
>  <MODEL>
4

>  <REMARK>
 VINA RESULT:      -6.8      5.421      7.237
  Name = 
  10 active torsions:
  status: ('A' for Active; 'I' for Inactive)
    1  A    between atoms: C_2  and  C_23
    2  A    between atoms: P_7  and  O_19
    3  A    between atoms: C_13  and  C_16
    4  A    between atoms: C_14  and  C_24
    5  A    between atoms: C_16  and  O_19
    6  A    between atoms: N_18  and  C_20
    7  A    between atoms: N_18  and  C_25
    8  A    between atoms: C_20  and  C_28
    9  A    between atoms: C_24  and  C_25
   10  A    between atoms: C_27  and  C_29
                            x       y       z     vdW  Elec       q    Type
                         _______ _______ _______ _____ _____    ______ ____

>  <TORSDO>
F 10

$$$$
=
 OpenBabel10232412333D

 29 30  0  0  1  0  0  0  0  0999 V2000
  184.6600  178.7180  139.6840 C   0  0  0  0  0  3  0  0  0  0  0  0
  188.0670  177.3150  142.0330 C   0  0  1  0  0  3  0  0  0  0  0  0
  185.0690  178.7520  142.4410 C   0  0  0  0  0  0  0  0  0  0  0  0
  186.1590  178.7910  141.5340 C   0  0  0  0  0  0  0  0  0  0  0  0
  186.6870  176.8050  144.0960 C   0  0  0  0  0  2  0  0  0  0  0  0
  185.1790  178.8490  143.9430 C   0  0  0  0  0  2  0  0  0  0  0  0
  185.9180  178.7600  140.1950 N   0  0  0  0  0  0  0  0  0  0  0  0
  183.7730  178.7190  141.9190 C   0  0  0  0  0  3  0  0  0  0  0  0
  188.0700  176.7670  143.4590 C   0  0  0  0  0  2  0  0  0  0  0  0
  187.5830  178.7640  141.9830 C   0  0  0  0  0  2  0  0  0  0  0  0
  183.5620  178.7020  140.5410 C   0  0  0  0  0  0  0  0  0  0  0  0
  186.4130  178.2190  144.5880 C   0  0  1  0  0  3  0  0  0  0  0  0
  187.2410  177.7370  146.7970 N   0  0  0  0  0  1  0  0  0  0  0  0
  185.1670  178.8380  146.7060 N   0  0  0  0  0  2  0  0  0  0  0  0
  186.3010  178.2480  146.0760 C   0  0  0  0  0  0  0  0  0  0  0  0
  189.6590  177.3010  140.1610 C   0  0  0  0  0  3  0  0  0  0  0  0
  189.4480  177.2160  141.4730 C   0  0  0  0  0  3  0  0  0  0  0  0
  191.0410  177.2020  139.6080 C   0  0  0  0  0  2  0  0  0  0  0  0
  190.9980  177.2110  138.2130 O   0  0  0  0  0  0  0  0  0  0  0  0
  193.4460  175.9840  138.5590 F   0  0  0  0  0  0  0  0  0  0  0  0
  191.9920  175.9270  137.7300 P   0  0  1  0  0  0  0  0  0  0  0  0
  191.2210  174.4540  138.0450 O   0  0  0  0  0  1  0  0  0  0  0  0
  192.2620  176.0380  136.2470 O   0  0  0  0  0  0  0  0  0  0  0  0
  182.1810  178.6360  139.9930 C   0  0  0  0  0  2  0  0  0  0  0  0
  181.2380  178.3710  141.0650 N   0  0  0  0  0  2  0  0  0  0  0  0
  180.4220  179.5620  141.2080 C   0  0  0  0  0  2  0  0  0  0  0  0
  180.1940  179.8450  142.6800 C   0  0  0  0  0  2  0  0  0  0  0  0
  180.2850  178.5610  143.4820 C   0  0  0  0  0  2  0  0  0  0  0  0
  181.3440  178.6370  144.3890 O   0  0  0  0  0  1  0  0  0  0  0  0
  1  7  2  0  0  0  0
  1 11  1  0  0  0  0
  2 17  1  1  0  0  0
  2  9  1  0  0  0  0
  3  6  1  0  0  0  0
  4 10  1  0  0  0  0
  4  3  2  0  0  0  0
  5 12  1  0  0  0  0
  6 12  1  0  0  0  0
  7  4  1  0  0  0  0
  8  3  1  0  0  0  0
  9  5  1  0  0  0  0
 10  2  1  0  0  0  0
 11  8  2  0  0  0  0
 12 15  1  1  0  0  0
 15 14  2  0  0  0  0
 15 13  1  0  0  0  0
 16 17  2  0  0  0  0
 18 16  1  0  0  0  0
 19 18  1  0  0  0  0
 21 23  2  6  0  0  0
 21 22  1  0  0  0  0
 21 19  1  0  0  0  0
 21 20  1  0  0  0  0
 24 11  1  0  0  0  0
 24 25  1  0  0  0  0
 25 26  1  0  0  0  0
 26 27  1  0  0  0  0
 27 28  1  0  0  0  0
 28 29  1  0  0  0  0
M  END
>  <MODEL>
5

>  <REMARK>
 VINA RESULT:      -6.8      4.102      8.391
  Name = 
  10 active torsions:
  status: ('A' for Active; 'I' for Inactive)
    1  A    between atoms: C_2  and  C_23
    2  A    between atoms: P_7  and  O_19
    3  A    between atoms: C_13  and  C_16
    4  A    between atoms: C_14  and  C_24
    5  A    between atoms: C_16  and  O_19
    6  A    between atoms: N_18  and  C_20
    7  A    between atoms: N_18  and  C_25
    8  A    between atoms: C_20  and  C_28
    9  A    between atoms: C_24  and  C_25
   10  A    between atoms: C_27  and  C_29
                            x       y       z     vdW  Elec       q    Type
                         _______ _______ _______ _____ _____    ______ ____

>  <TORSDO>
F 10

$$$$
=
 OpenBabel10232412333D

 29 30  0  0  1  0  0  0  0  0999 V2000
  184.2920  178.9290  140.5940 C   0  0  0  0  0  3  0  0  0  0  0  0
  188.2800  177.3440  141.4170 C   0  0  1  0  0  3  0  0  0  0  0  0
  185.5930  178.5330  143.0260 C   0  0  0  0  0  0  0  0  0  0  0  0
  186.3210  178.7780  141.8340 C   0  0  0  0  0  0  0  0  0  0  0  0
  187.6620  176.4310  143.6990 C   0  0  0  0  0  2  0  0  0  0  0  0
  186.1980  178.3890  144.4030 C   0  0  0  0  0  2  0  0  0  0  0  0
  185.6480  178.9540  140.6630 N   0  0  0  0  0  0  0  0  0  0  0  0
  184.1980  178.5180  142.9620 C   0  0  0  0  0  3  0  0  0  0  0  0
  188.7540  176.5710  142.6460 C   0  0  0  0  0  2  0  0  0  0  0  0
  187.8130  178.7530  141.7780 C   0  0  0  0  0  2  0  0  0  0  0  0
  183.5400  178.7150  141.7480 C   0  0  0  0  0  0  0  0  0  0  0  0
  187.5730  177.7290  144.4880 C   0  0  1  0  0  3  0  0  0  0  0  0
  187.1050  177.7360  146.8500 N   0  0  0  0  0  1  0  0  0  0  0  0
  189.2690  177.0470  146.2440 N   0  0  0  0  0  2  0  0  0  0  0  0
  187.9620  177.5090  145.9120 C   0  0  0  0  0  0  0  0  0  0  0  0
  190.6380  177.0840  140.7770 C   0  0  0  0  0  3  0  0  0  0  0  0
  189.3950  177.4110  140.4270 C   0  0  0  0  0  3  0  0  0  0  0  0
  191.7480  177.1530  139.7820 C   0  0  0  0  0  2  0  0  0  0  0  0
  191.2280  177.1490  138.4870 O   0  0  0  0  0  0  0  0  0  0  0  0
  191.9580  176.2060  135.9980 F   0  0  0  0  0  0  0  0  0  0  0  0
  192.1320  175.9870  137.6500 P   0  0  1  0  0  0  0  0  0  0  0  0
  193.7670  176.1200  138.0660 O   0  0  0  0  0  1  0  0  0  0  0  0
  191.6360  174.6090  138.0210 O   0  0  0  0  0  0  0  0  0  0  0  0
  182.0550  178.6670  141.6810 C   0  0  0  0  0  2  0  0  0  0  0  0
  181.6200  178.8330  140.3050 N   0  0  0  0  0  2  0  0  0  0  0  0
  180.5700  179.8340  140.3180 C   0  0  0  0  0  2  0  0  0  0  0  0
  180.8310  180.8550  139.2280 C   0  0  0  0  0  2  0  0  0  0  0  0
  181.7580  180.2750  138.1770 C   0  0  0  0  0  2  0  0  0  0  0  0
  181.2090  180.4500  136.9060 O   0  0  0  0  0  1  0  0  0  0  0  0
  1  7  2  0  0  0  0
  1 11  1  0  0  0  0
  2 17  1  6  0  0  0
  2 10  1  0  0  0  0
  2  9  1  0  0  0  0
  3  6  1  0  0  0  0
  4  3  2  0  0  0  0
  5 12  1  0  0  0  0
  6 12  1  0  0  0  0
  7  4  1  0  0  0  0
  8  3  1  0  0  0  0
  9  5  1  0  0  0  0
 10  4  1  0  0  0  0
 11  8  2  0  0  0  0
 12 15  1  1  0  0  0
 15 14  2  0  0  0  0
 15 13  1  0  0  0  0
 17 16  2  0  0  0  0
 18 16  1  0  0  0  0
 19 18  1  0  0  0  0
 21 20  1  6  0  0  0
 21 23  2  0  0  0  0
 21 22  1  0  0  0  0
 21 19  1  0  0  0  0
 24 11  1  0  0  0  0
 25 26  1  0  0  0  0
 25 24  1  0  0  0  0
 27 26  1  0  0  0  0
 28 27  1  0  0  0  0
 29 28  1  0  0  0  0
M  END
>  <MODEL>
6

>  <REMARK>
 VINA RESULT:      -6.8      4.034      8.108
  Name = 
  10 active torsions:
  status: ('A' for Active; 'I' for Inactive)
    1  A    between atoms: C_2  and  C_23
    2  A    between atoms: P_7  and  O_19
    3  A    between atoms: C_13  and  C_16
    4  A    between atoms: C_14  and  C_24
    5  A    between atoms: C_16  and  O_19
    6  A    between atoms: N_18  and  C_20
    7  A    between atoms: N_18  and  C_25
    8  A    between atoms: C_20  and  C_28
    9  A    between atoms: C_24  and  C_25
   10  A    between atoms: C_27  and  C_29
                            x       y       z     vdW  Elec       q    Type
                         _______ _______ _______ _____ _____    ______ ____

>  <TORSDO>
F 10

$$$$
=
 OpenBabel10232412333D

 29 30  0  0  1  0  0  0  0  0999 V2000
  191.0690  177.0350  140.2190 C   0  0  0  0  0  3  0  0  0  0  0  0
  189.1670  177.2800  144.1450 C   0  0  1  0  0  3  0  0  0  0  0  0
  188.5330  177.9500  140.9250 C   0  0  0  0  0  0  0  0  0  0  0  0
  189.6180  178.0120  141.8370 C   0  0  0  0  0  0  0  0  0  0  0  0
  186.8130  177.0370  143.2400 C   0  0  0  0  0  2  0  0  0  0  0  0
  187.1480  178.4940  141.1810 C   0  0  0  0  0  2  0  0  0  0  0  0
  190.8390  177.5430  141.4580 N   0  0  0  0  0  0  0  0  0  0  0  0
  188.7690  177.4390  139.6470 C   0  0  0  0  0  3  0  0  0  0  0  0
  187.6820  177.1780  144.4830 C   0  0  0  0  0  2  0  0  0  0  0  0
  189.4630  178.4800  143.2470 C   0  0  0  0  0  2  0  0  0  0  0  0
  190.0350  176.9800  139.2870 C   0  0  0  0  0  0  0  0  0  0  0  0
  186.6260  178.4110  142.6150 C   0  0  1  0  0  3  0  0  0  0  0  0
  184.8530  179.8220  143.4280 N   0  0  0  0  0  1  0  0  0  0  0  0
  184.2050  178.1470  141.9140 N   0  0  0  0  0  2  0  0  0  0  0  0
  185.1960  178.8300  142.6770 C   0  0  0  0  0  0  0  0  0  0  0  0
  189.3980  177.0520  146.5820 C   0  0  0  0  0  3  0  0  0  0  0  0
  189.9460  177.3860  145.4150 C   0  0  0  0  0  3  0  0  0  0  0  0
  190.1820  177.1600  147.8460 C   0  0  0  0  0  2  0  0  0  0  0  0
  191.5400  177.3040  147.5540 O   0  0  0  0  0  0  0  0  0  0  0  0
  191.0850  174.6650  148.2210 F   0  0  0  0  0  0  0  0  0  0  0  0
  192.1470  175.7250  147.4760 P   0  0  1  0  0  0  0  0  0  0  0  0
  192.3570  175.2690  145.8600 O   0  0  0  0  0  0  0  0  0  0  0  0
  193.4800  175.6690  148.1850 O   0  0  0  0  0  1  0  0  0  0  0  0
  190.2720  176.4080  137.9340 C   0  0  0  0  0  2  0  0  0  0  0  0
  190.4330  174.9690  138.0310 N   0  0  0  0  0  2  0  0  0  0  0  0
  191.7270  174.6540  137.4550 C   0  0  0  0  0  2  0  0  0  0  0  0
  192.0620  175.6690  136.3780 C   0  0  0  0  0  2  0  0  0  0  0  0
  193.5650  175.8120  136.2400 C   0  0  0  0  0  2  0  0  0  0  0  0
  194.0100  176.9150  136.9690 O   0  0  0  0  0  1  0  0  0  0  0  0
  1  7  1  0  0  0  0
  2  9  1  0  0  0  0
  2 17  1  1  0  0  0
  3  6  1  0  0  0  0
  3  4  1  0  0  0  0
  4 10  1  0  0  0  0
  5  9  1  0  0  0  0
  6 12  1  0  0  0  0
  7  4  2  0  0  0  0
  8  3  2  0  0  0  0
 10  2  1  0  0  0  0
 11  8  1  0  0  0  0
 11  1  2  0  0  0  0
 12 15  1  6  0  0  0
 12  5  1  0  0  0  0
 14 15  2  0  0  0  0
 15 13  1  0  0  0  0
 16 18  1  0  0  0  0
 17 16  2  0  0  0  0
 19 18  1  0  0  0  0
 21 22  2  6  0  0  0
 21 19  1  0  0  0  0
 21 23  1  0  0  0  0
 21 20  1  0  0  0  0
 24 25  1  0  0  0  0
 24 11  1  0  0  0  0
 26 25  1  0  0  0  0
 27 26  1  0  0  0  0
 28 27  1  0  0  0  0
 28 29  1  0  0  0  0
M  END
>  <MODEL>
7

>  <REMARK>
 VINA RESULT:      -6.7      4.948      6.218
  Name = 
  10 active torsions:
  status: ('A' for Active; 'I' for Inactive)
    1  A    between atoms: C_2  and  C_23
    2  A    between atoms: P_7  and  O_19
    3  A    between atoms: C_13  and  C_16
    4  A    between atoms: C_14  and  C_24
    5  A    between atoms: C_16  and  O_19
    6  A    between atoms: N_18  and  C_20
    7  A    between atoms: N_18  and  C_25
    8  A    between atoms: C_20  and  C_28
    9  A    between atoms: C_24  and  C_25
   10  A    between atoms: C_27  and  C_29
                            x       y       z     vdW  Elec       q    Type
                         _______ _______ _______ _____ _____    ______ ____

>  <TORSDO>
F 10

$$$$
=
 OpenBabel10232412333D

 29 30  0  0  1  0  0  0  0  0999 V2000
  191.2360  176.3080  144.2340 C   0  0  0  0  0  3  0  0  0  0  0  0
  189.9250  177.6280  140.2810 C   0  0  1  0  0  3  0  0  0  0  0  0
  188.7440  177.2260  143.3900 C   0  0  0  0  0  0  0  0  0  0  0  0
  189.6350  176.5830  142.4930 C   0  0  0  0  0  0  0  0  0  0  0  0
  188.1510  179.2010  141.1760 C   0  0  0  0  0  2  0  0  0  0  0  0
  187.3450  177.6830  143.0520 C   0  0  0  0  0  2  0  0  0  0  0  0
  190.8480  176.1600  142.9410 N   0  0  0  0  0  0  0  0  0  0  0  0
  189.1350  177.3710  144.7230 C   0  0  0  0  0  3  0  0  0  0  0  0
  188.8510  178.6580  139.9370 C   0  0  0  0  0  2  0  0  0  0  0  0
  189.3440  176.4330  141.0350 C   0  0  0  0  0  2  0  0  0  0  0  0
  190.3800  176.9130  145.1520 C   0  0  0  0  0  0  0  0  0  0  0  0
  187.1070  178.1910  141.6310 C   0  0  1  0  0  3  0  0  0  0  0  0
  184.9900  178.8810  142.5470 N   0  0  0  0  0  1  0  0  0  0  0  0
  185.2350  179.1640  140.2280 N   0  0  0  0  0  2  0  0  0  0  0  0
  185.7330  178.7570  141.4990 C   0  0  0  0  0  0  0  0  0  0  0  0
  191.7760  176.5880  139.0440 C   0  0  0  0  0  3  0  0  0  0  0  0
  190.5780  177.1700  139.0190 C   0  0  0  0  0  3  0  0  0  0  0  0
  192.4230  176.1320  137.7790 C   0  0  0  0  0  2  0  0  0  0  0  0
  193.7860  176.4340  137.8050 O   0  0  0  0  0  0  0  0  0  0  0  0
  194.6010  173.8840  138.4760 F   0  0  0  0  0  0  0  0  0  0  0  0
  194.5620  175.0320  137.2570 P   0  0  1  0  0  0  0  0  0  0  0  0
  193.7370  174.4040  135.9190 O   0  0  0  0  0  0  0  0  0  0  0  0
  195.9770  175.3730  136.8510 O   0  0  0  0  0  1  0  0  0  0  0  0
  190.8020  177.0980  146.5660 C   0  0  0  0  0  2  0  0  0  0  0  0
  189.6910  176.8060  147.4540 N   0  0  0  0  0  2  0  0  0  0  0  0
  189.3820  178.0380  148.1550 C   0  0  0  0  0  2  0  0  0  0  0  0
  187.9280  178.0230  148.5880 C   0  0  0  0  0  2  0  0  0  0  0  0
  187.0190  178.0390  147.3730 C   0  0  0  0  0  2  0  0  0  0  0  0
  186.1090  179.0930  147.4710 O   0  0  0  0  0  1  0  0  0  0  0  0
  1 11  1  0  0  0  0
  2 17  1  6  0  0  0
  2 10  1  0  0  0  0
  3  8  1  0  0  0  0
  4  7  1  0  0  0  0
  4  3  2  0  0  0  0
  5 12  1  0  0  0  0
  6  3  1  0  0  0  0
  7  1  2  0  0  0  0
  8 11  2  0  0  0  0
  9  2  1  0  0  0  0
  9  5  1  0  0  0  0
 10  4  1  0  0  0  0
 11 24  1  0  0  0  0
 12 15  1  1  0  0  0
 12  6  1  0  0  0  0
 14 15  2  0  0  0  0
 15 13  1  0  0  0  0
 17 16  2  0  0  0  0
 18 19  1  0  0  0  0
 18 16  1  0  0  0  0
 21 22  2  6  0  0  0
 21 19  1  0  0  0  0
 21 20  1  0  0  0  0
 23 21  1  0  0  0  0
 24 25  1  0  0  0  0
 25 26  1  0  0  0  0
 26 27  1  0  0  0  0
 28 29  1  0  0  0  0
 28 27  1  0  0  0  0
M  END
>  <MODEL>
8

>  <REMARK>
 VINA RESULT:      -6.6      4.222      8.500
  Name = 
  10 active torsions:
  status: ('A' for Active; 'I' for Inactive)
    1  A    between atoms: C_2  and  C_23
    2  A    between atoms: P_7  and  O_19
    3  A    between atoms: C_13  and  C_16
    4  A    between atoms: C_14  and  C_24
    5  A    between atoms: C_16  and  O_19
    6  A    between atoms: N_18  and  C_20
    7  A    between atoms: N_18  and  C_25
    8  A    between atoms: C_20  and  C_28
    9  A    between atoms: C_24  and  C_25
   10  A    between atoms: C_27  and  C_29
                            x       y       z     vdW  Elec       q    Type
                         _______ _______ _______ _____ _____    ______ ____

>  <TORSDO>
F 10

$$$$
=
 OpenBabel10232412333D

 29 30  0  0  1  0  0  0  0  0999 V2000
  189.8930  176.9720  144.9100 C   0  0  0  0  0  3  0  0  0  0  0  0
  187.2760  178.5400  141.7820 C   0  0  1  0  0  3  0  0  0  0  0  0
  187.1850  177.6230  145.0030 C   0  0  0  0  0  0  0  0  0  0  0  0
  187.8040  177.2180  143.7930 C   0  0  0  0  0  0  0  0  0  0  0  0
  185.7330  179.7370  143.3970 C   0  0  0  0  0  2  0  0  0  0  0  0
  185.7140  177.9160  145.1750 C   0  0  0  0  0  2  0  0  0  0  0  0
  189.1320  176.9200  143.7870 N   0  0  0  0  0  0  0  0  0  0  0  0
  187.9620  177.6670  146.1630 C   0  0  0  0  0  3  0  0  0  0  0  0
  186.0540  179.4420  141.9380 C   0  0  0  0  0  2  0  0  0  0  0  0
  187.0830  177.1970  142.4850 C   0  0  0  0  0  2  0  0  0  0  0  0
  189.3170  177.3420  146.1240 C   0  0  0  0  0  0  0  0  0  0  0  0
  184.9900  178.5460  143.9850 C   0  0  1  0  0  3  0  0  0  0  0  0
  183.3020  179.1300  145.5990 N   0  0  0  0  0  1  0  0  0  0  0  0
  182.5900  179.0670  143.3610 N   0  0  0  0  0  2  0  0  0  0  0  0
  183.5970  178.9250  144.3600 C   0  0  0  0  0  0  0  0  0  0  0  0
  188.7780  178.3680  139.8440 C   0  0  0  0  0  3  0  0  0  0  0  0
  187.5380  178.3250  140.3280 C   0  0  0  0  0  3  0  0  0  0  0  0
  189.0330  178.1520  138.3900 C   0  0  0  0  0  2  0  0  0  0  0  0
  188.9730  176.7900  138.0930 O   0  0  0  0  0  0  0  0  0  0  0  0
  190.7090  176.1440  140.1390 F   0  0  0  0  0  0  0  0  0  0  0  0
  190.5070  176.1830  138.4770 P   0  0  1  0  0  0  0  0  0  0  0  0
  190.6800  174.6200  137.8510 O   0  0  0  0  0  0  0  0  0  0  0  0
  191.5620  177.0800  137.8710 O   0  0  0  0  0  1  0  0  0  0  0  0
  190.1450  177.4210  147.3570 C   0  0  0  0  0  2  0  0  0  0  0  0
  191.5300  177.1220  147.0390 N   0  0  0  0  0  2  0  0  0  0  0  0
  191.8060  175.8030  147.5750 C   0  0  0  0  0  2  0  0  0  0  0  0
  193.1950  175.7850  148.1840 C   0  0  0  0  0  2  0  0  0  0  0  0
  193.1400  176.2400  149.6300 C   0  0  0  0  0  2  0  0  0  0  0  0
  193.6210  177.5460  149.7390 O   0  0  0  0  0  1  0  0  0  0  0  0
  1 11  1  0  0  0  0
  2 17  1  6  0  0  0
  2  9  1  0  0  0  0
  2 10  1  0  0  0  0
  3  6  1  0  0  0  0
  3  8  1  0  0  0  0
  4  3  2  0  0  0  0
  5 12  1  0  0  0  0
  7  4  1  0  0  0  0
  7  1  2  0  0  0  0
  9  5  1  0  0  0  0
 10  4  1  0  0  0  0
 11  8  2  0  0  0  0
 11 24  1  0  0  0  0
 12 15  1  1  0  0  0
 12  6  1  0  0  0  0
 14 15  2  0  0  0  0
 15 13  1  0  0  0  0
 16 17  2  0  0  0  0
 18 16  1  0  0  0  0
 19 18  1  0  0  0  0
 19 21  1  0  0  0  0
 21 22  2  6  0  0  0
 21 20  1  0  0  0  0
 23 21  1  0  0  0  0
 25 24  1  0  0  0  0
 25 26  1  0  0  0  0
 26 27  1  0  0  0  0
 27 28  1  0  0  0  0
 28 29  1  0  0  0  0
M  END
>  <MODEL>
9

>  <REMARK>
 VINA RESULT:      -6.5      4.008      7.423
  Name = 
  10 active torsions:
  status: ('A' for Active; 'I' for Inactive)
    1  A    between atoms: C_2  and  C_23
    2  A    between atoms: P_7  and  O_19
    3  A    between atoms: C_13  and  C_16
    4  A    between atoms: C_14  and  C_24
    5  A    between atoms: C_16  and  O_19
    6  A    between atoms: N_18  and  C_20
    7  A    between atoms: N_18  and  C_25
    8  A    between atoms: C_20  and  C_28
    9  A    between atoms: C_24  and  C_25
   10  A    between atoms: C_27  and  C_29
                            x       y       z     vdW  Elec       q    Type
                         _______ _______ _______ _____ _____    ______ ____

>  <TORSDO>
F 10

$$$$
