=
 OpenBabel10232412293D

 29 32  0  0  1  0  0  0  0  0999 V2000
  187.9490  177.7020  146.8650 C   0  0  0  0  0  3  0  0  0  0  0  0
  187.8450  177.4230  144.4780 C   0  0  0  0  0  3  0  0  0  0  0  0
  187.2090  177.7170  145.6860 C   0  0  0  0  0  0  0  0  0  0  0  0
  189.9220  177.1130  145.6340 N   0  0  0  0  0  0  0  0  0  0  0  0
  191.6310  176.7290  145.6310 Cl  0  0  0  0  0  0  0  0  0  0  0  0
  189.3100  177.3960  146.8250 C   0  0  0  0  0  0  0  0  0  0  0  0
  189.2140  177.1210  144.4590 C   0  0  0  0  0  0  0  0  0  0  0  0
  189.9670  177.3840  147.9000 O   0  0  0  0  0  0  0  0  0  0  0  0
  189.8830  176.8130  143.1800 C   0  0  0  0  0  3  0  0  0  0  0  0
  189.7390  177.5600  142.0870 C   0  0  0  0  0  3  0  0  0  0  0  0
  193.2240  176.8270  138.7250 C   0  0  0  0  0  3  0  0  0  0  0  0
  191.9600  176.1050  136.7580 C   0  0  0  0  0  3  0  0  0  0  0  0
  192.0100  176.9280  139.3990 C   0  0  0  0  0  0  0  0  0  0  0  0
  189.8140  176.8320  139.7110 C   0  0  0  0  0  3  0  0  0  0  0  0
  190.8170  176.6340  138.7920 C   0  0  0  0  0  0  0  0  0  0  0  0
  190.7500  176.2180  137.4650 C   0  0  0  0  0  3  0  0  0  0  0  0
  190.4030  177.2410  140.8620 N   0  0  0  0  0  0  0  0  0  0  0  0
  193.1900  176.4080  137.3820 C   0  0  0  0  0  0  0  0  0  0  0  0
  194.3740  176.2920  136.6670 O   0  0  0  0  0  1  0  0  0  0  0  0
  191.7450  177.3070  140.6950 C   0  0  0  0  0  3  0  0  0  0  0  0
  185.8120  178.0190  145.7380 N   0  0  0  0  0  2  0  0  0  0  0  0
  185.2350  178.3570  143.4840 O   0  0  0  0  0  0  0  0  0  0  0  0
  181.5680  178.7840  143.9000 C   0  0  0  0  0  1  0  0  0  0  0  0
  183.9550  178.3880  143.0270 N   0  0  0  0  0  0  0  0  0  0  0  0
  185.1450  178.9040  144.7910 C   0  0  1  0  0  3  0  0  0  0  0  0
  183.0500  178.7350  144.0480 C   0  0  0  0  0  0  0  0  0  0  0  0
  183.6940  179.0330  145.1380 C   0  0  0  0  0  3  0  0  0  0  0  0
  183.6710  178.6260  141.6200 C   0  0  0  0  0  2  0  0  0  0  0  0
  184.9470  179.0080  140.8950 C   0  0  0  0  0  1  0  0  0  0  0  0
  2  3  1  0  0  0  0
  3 21  1  0  0  0  0
  3  1  2  0  0  0  0
  4  6  1  0  0  0  0
  5  4  1  0  0  0  0
  6  1  1  0  0  0  0
  6  8  2  0  0  0  0
  7  2  2  0  0  0  0
  7  4  1  0  0  0  0
  9  7  1  0  0  0  0
 10  9  2  0  0  0  0
 11 13  1  0  0  0  0
 12 18  1  0  0  0  0
 12 16  2  0  0  0  0
 13 20  2  0  0  0  0
 14 17  1  0  0  0  0
 15 13  1  0  0  0  0
 15 14  2  0  0  0  0
 16 15  1  0  0  0  0
 17 10  1  0  0  0  0
 18 11  2  0  0  0  0
 19 18  1  0  0  0  0
 20 17  1  0  0  0  0
 22 25  1  0  0  0  0
 23 26  1  0  0  0  0
 24 22  1  0  0  0  0
 24 26  1  0  0  0  0
 25 27  1  0  0  0  0
 25 21  1  1  0  0  0
 26 27  2  0  0  0  0
 28 24  1  0  0  0  0
 29 28  1  0  0  0  0
M  END
>  <MODEL>
1

>  <REMARK>
 VINA RESULT:      -9.3      0.000      0.000
  Name = 
  5 active torsions:
  status: ('A' for Active; 'I' for Inactive)
    1  A    between atoms: C_2  and  C_22
    2  A    between atoms: C_7  and  N_18
    3  A    between atoms: C_10  and  N_17
    4  A    between atoms: C_11  and  N_26
    5  A    between atoms: C_24  and  N_26
                            x       y       z     vdW  Elec       q    Type
                         _______ _______ _______ _____ _____    ______ ____

>  <TORSDO>
F 5

$$$$
=
 OpenBabel10232412293D

 29 32  0  0  1  0  0  0  0  0999 V2000
  185.7560  178.2330  146.5680 C   0  0  0  0  0  3  0  0  0  0  0  0
  187.3380  177.5710  144.8810 C   0  0  0  0  0  3  0  0  0  0  0  0
  186.9940  177.6960  146.2290 C   0  0  0  0  0  0  0  0  0  0  0  0
  185.2240  178.5060  144.2450 N   0  0  0  0  0  0  0  0  0  0  0  0
  184.0920  179.0310  143.0150 Cl  0  0  0  0  0  0  0  0  0  0  0  0
  184.8770  178.6360  145.5620 C   0  0  0  0  0  0  0  0  0  0  0  0
  186.4390  177.9810  143.8860 C   0  0  0  0  0  0  0  0  0  0  0  0
  183.7590  179.1220  145.8830 O   0  0  0  0  0  0  0  0  0  0  0  0
  186.8050  177.8470  142.4620 C   0  0  0  0  0  3  0  0  0  0  0  0
  188.0600  177.9320  142.0250 C   0  0  0  0  0  3  0  0  0  0  0  0
  190.3170  176.6510  137.8710 C   0  0  0  0  0  3  0  0  0  0  0  0
  188.9310  177.6860  136.1400 C   0  0  0  0  0  3  0  0  0  0  0  0
  189.4420  177.1870  138.8130 C   0  0  0  0  0  0  0  0  0  0  0  0
  187.6990  178.3180  139.5950 C   0  0  0  0  0  3  0  0  0  0  0  0
  188.3570  177.9390  138.4480 C   0  0  0  0  0  0  0  0  0  0  0  0
  188.0660  178.2140  137.1150 C   0  0  0  0  0  3  0  0  0  0  0  0
  188.3870  177.7930  140.6400 N   0  0  0  0  0  0  0  0  0  0  0  0
  190.0510  176.9100  136.5140 C   0  0  0  0  0  0  0  0  0  0  0  0
  190.8940  176.3990  135.5370 O   0  0  0  0  0  1  0  0  0  0  0  0
  189.4560  177.0980  140.1860 C   0  0  0  0  0  3  0  0  0  0  0  0
  187.8940  177.2960  147.2660 N   0  0  0  0  0  2  0  0  0  0  0  0
  190.0440  176.3720  147.4920 O   0  0  0  0  0  0  0  0  0  0  0  0
  191.4710  177.4660  144.2410 C   0  0  0  0  0  1  0  0  0  0  0  0
  190.9530  176.3160  146.4840 N   0  0  0  0  0  0  0  0  0  0  0  0
  189.3250  177.5690  147.2400 C   0  0  1  0  0  3  0  0  0  0  0  0
  190.7080  177.3030  145.5100 C   0  0  0  0  0  0  0  0  0  0  0  0
  189.7300  178.0740  145.8880 C   0  0  0  0  0  3  0  0  0  0  0  0
  192.2760  175.7510  146.7020 C   0  0  0  0  0  2  0  0  0  0  0  0
  192.6100  175.7800  148.1810 C   0  0  0  0  0  1  0  0  0  0  0  0
  2  3  1  0  0  0  0
  3  1  2  0  0  0  0
  3 21  1  0  0  0  0
  4  6  1  0  0  0  0
  5  4  1  0  0  0  0
  6  8  2  0  0  0  0
  6  1  1  0  0  0  0
  7  4  1  0  0  0  0
  7  2  2  0  0  0  0
  9  7  1  0  0  0  0
 10  9  2  0  0  0  0
 11 13  1  0  0  0  0
 12 18  1  0  0  0  0
 12 16  2  0  0  0  0
 13 20  2  0  0  0  0
 14 17  1  0  0  0  0
 15 13  1  0  0  0  0
 15 14  2  0  0  0  0
 16 15  1  0  0  0  0
 17 10  1  0  0  0  0
 18 11  2  0  0  0  0
 19 18  1  0  0  0  0
 20 17  1  0  0  0  0
 23 26  1  0  0  0  0
 24 28  1  0  0  0  0
 24 22  1  0  0  0  0
 25 21  1  6  0  0  0
 25 22  1  0  0  0  0
 26 27  2  0  0  0  0
 26 24  1  0  0  0  0
 27 25  1  0  0  0  0
 28 29  1  0  0  0  0
M  END
>  <MODEL>
2

>  <REMARK>
 VINA RESULT:      -8.9      2.588      5.421
  Name = 
  5 active torsions:
  status: ('A' for Active; 'I' for Inactive)
    1  A    between atoms: C_2  and  C_22
    2  A    between atoms: C_7  and  N_18
    3  A    between atoms: C_10  and  N_17
    4  A    between atoms: C_11  and  N_26
    5  A    between atoms: C_24  and  N_26
                            x       y       z     vdW  Elec       q    Type
                         _______ _______ _______ _____ _____    ______ ____

>  <TORSDO>
F 5

$$$$
=
 OpenBabel10232412293D

 29 32  0  0  1  0  0  0  0  0999 V2000
  191.2070  176.5820  136.9750 C   0  0  0  0  0  3  0  0  0  0  0  0
  191.2970  176.8590  139.3620 C   0  0  0  0  0  3  0  0  0  0  0  0
  191.9420  176.5800  138.1560 C   0  0  0  0  0  0  0  0  0  0  0  0
  189.2190  177.1360  138.1980 N   0  0  0  0  0  0  0  0  0  0  0  0
  187.5010  177.4760  138.1970 Cl  0  0  0  0  0  0  0  0  0  0  0  0
  189.8400  176.8620  137.0100 C   0  0  0  0  0  0  0  0  0  0  0  0
  189.9230  177.1400  139.3760 C   0  0  0  0  0  0  0  0  0  0  0  0
  189.1860  176.8570  135.9330 O   0  0  0  0  0  0  0  0  0  0  0  0
  189.2430  177.4360  140.6520 C   0  0  0  0  0  3  0  0  0  0  0  0
  189.5080  176.7830  141.7830 C   0  0  0  0  0  3  0  0  0  0  0  0
  186.0480  178.0140  145.0230 C   0  0  0  0  0  3  0  0  0  0  0  0
  187.2420  177.9750  147.1590 C   0  0  0  0  0  3  0  0  0  0  0  0
  187.2440  177.6490  144.4110 C   0  0  0  0  0  0  0  0  0  0  0  0
  189.3900  177.1050  144.2460 C   0  0  0  0  0  3  0  0  0  0  0  0
  188.3940  177.4530  145.1290 C   0  0  0  0  0  0  0  0  0  0  0  0
  188.4350  177.6070  146.5110 C   0  0  0  0  0  3  0  0  0  0  0  0
  188.8380  177.0930  143.0070 N   0  0  0  0  0  0  0  0  0  0  0  0
  186.0550  178.1780  146.4200 C   0  0  0  0  0  0  0  0  0  0  0  0
  184.8880  178.5420  147.0770 O   0  0  0  0  0  1  0  0  0  0  0  0
  187.5270  177.4220  143.0840 C   0  0  0  0  0  3  0  0  0  0  0  0
  193.3410  176.2810  138.1130 N   0  0  0  0  0  2  0  0  0  0  0  0
  195.2900  175.7330  136.9200 O   0  0  0  0  0  0  0  0  0  0  0  0
  195.6120  172.1830  137.9660 C   0  0  0  0  0  1  0  0  0  0  0  0
  195.9780  174.5730  137.0840 N   0  0  0  0  0  0  0  0  0  0  0  0
  193.9380  175.3670  137.1490 C   0  0  1  0  0  3  0  0  0  0  0  0
  195.1540  173.5520  137.5980 C   0  0  0  0  0  0  0  0  0  0  0  0
  193.9240  173.9680  137.6850 C   0  0  0  0  0  3  0  0  0  0  0  0
  197.1650  174.2900  136.2920 C   0  0  0  0  0  2  0  0  0  0  0  0
  197.5910  175.5350  135.5400 C   0  0  0  0  0  1  0  0  0  0  0  0
  1  6  1  0  0  0  0
  1  3  2  0  0  0  0
  2  7  2  0  0  0  0
  3  2  1  0  0  0  0
  4  7  1  0  0  0  0
  5  4  1  0  0  0  0
  6  4  1  0  0  0  0
  7  9  1  0  0  0  0
  8  6  2  0  0  0  0
  9 10  2  0  0  0  0
 10 17  1  0  0  0  0
 11 18  2  0  0  0  0
 13 11  1  0  0  0  0
 13 15  1  0  0  0  0
 14 15  2  0  0  0  0
 15 16  1  0  0  0  0
 16 12  2  0  0  0  0
 17 20  1  0  0  0  0
 17 14  1  0  0  0  0
 18 19  1  0  0  0  0
 18 12  1  0  0  0  0
 20 13  2  0  0  0  0
 21  3  1  0  0  0  0
 22 24  1  0  0  0  0
 22 25  1  0  0  0  0
 24 26  1  0  0  0  0
 25 27  1  0  0  0  0
 25 21  1  1  0  0  0
 26 27  2  0  0  0  0
 26 23  1  0  0  0  0
 28 24  1  0  0  0  0
 29 28  1  0  0  0  0
M  END
>  <MODEL>
3

>  <REMARK>
 VINA RESULT:      -8.8      3.239     10.425
  Name = 
  5 active torsions:
  status: ('A' for Active; 'I' for Inactive)
    1  A    between atoms: C_2  and  C_22
    2  A    between atoms: C_7  and  N_18
    3  A    between atoms: C_10  and  N_17
    4  A    between atoms: C_11  and  N_26
    5  A    between atoms: C_24  and  N_26
                            x       y       z     vdW  Elec       q    Type
                         _______ _______ _______ _____ _____    ______ ____

>  <TORSDO>
F 5

$$$$
=
 OpenBabel10232412293D

 29 32  0  0  1  0  0  0  0  0999 V2000
  182.4530  178.6020  140.0950 C   0  0  0  0  0  3  0  0  0  0  0  0
  184.6870  178.2450  140.9110 C   0  0  0  0  0  3  0  0  0  0  0  0
  183.7940  178.3280  139.8410 C   0  0  0  0  0  0  0  0  0  0  0  0
  182.9070  178.7080  142.4480 N   0  0  0  0  0  0  0  0  0  0  0  0
  182.3200  178.9440  144.0810 Cl  0  0  0  0  0  0  0  0  0  0  0  0
  182.0210  178.7900  141.4080 C   0  0  0  0  0  0  0  0  0  0  0  0
  184.2330  178.4390  142.2230 C   0  0  0  0  0  0  0  0  0  0  0  0
  180.8040  179.0350  141.6230 O   0  0  0  0  0  0  0  0  0  0  0  0
  185.1810  178.3510  143.3510 C   0  0  0  0  0  3  0  0  0  0  0  0
  186.3530  177.7250  143.2670 C   0  0  0  0  0  3  0  0  0  0  0  0
  190.3720  177.0120  145.9740 C   0  0  0  0  0  3  0  0  0  0  0  0
  189.6530  177.6580  148.2220 C   0  0  0  0  0  3  0  0  0  0  0  0
  189.0870  177.3210  145.5350 C   0  0  0  0  0  0  0  0  0  0  0  0
  186.9730  177.9890  145.6600 C   0  0  0  0  0  3  0  0  0  0  0  0
  188.1200  177.7790  146.3910 C   0  0  0  0  0  0  0  0  0  0  0  0
  188.3640  177.9610  147.7490 C   0  0  0  0  0  3  0  0  0  0  0  0
  187.2540  177.6590  144.3750 N   0  0  0  0  0  0  0  0  0  0  0  0
  190.6520  177.1860  147.3420 C   0  0  0  0  0  0  0  0  0  0  0  0
  191.9180  176.8910  147.8280 O   0  0  0  0  0  1  0  0  0  0  0  0
  188.5400  177.2480  144.2750 C   0  0  0  0  0  3  0  0  0  0  0  0
  184.2270  178.1260  138.4920 N   0  0  0  0  0  2  0  0  0  0  0  0
  186.4130  178.7230  139.1160 O   0  0  0  0  0  0  0  0  0  0  0  0
  188.2690  176.1140  137.2310 C   0  0  0  0  0  1  0  0  0  0  0  0
  187.5100  177.9680  138.8460 N   0  0  0  0  0  0  0  0  0  0  0  0
  185.5530  178.4860  138.0110 C   0  0  1  0  0  3  0  0  0  0  0  0
  187.2970  177.1230  137.7400 C   0  0  0  0  0  0  0  0  0  0  0  0
  186.1350  177.3640  137.2070 C   0  0  0  0  0  3  0  0  0  0  0  0
  188.8370  178.4130  139.2410 C   0  0  0  0  0  2  0  0  0  0  0  0
  189.1880  177.8420  140.6020 C   0  0  0  0  0  1  0  0  0  0  0  0
  1  6  1  0  0  0  0
  2  7  2  0  0  0  0
  3  1  2  0  0  0  0
  3  2  1  0  0  0  0
  4  5  1  0  0  0  0
  6  8  2  0  0  0  0
  6  4  1  0  0  0  0
  7  4  1  0  0  0  0
  7  9  1  0  0  0  0
 10  9  2  0  0  0  0
 10 17  1  0  0  0  0
 11 18  2  0  0  0  0
 13 11  1  0  0  0  0
 13 15  1  0  0  0  0
 14 15  2  0  0  0  0
 15 16  1  0  0  0  0
 16 12  2  0  0  0  0
 17 14  1  0  0  0  0
 18 19  1  0  0  0  0
 18 12  1  0  0  0  0
 20 17  1  0  0  0  0
 20 13  2  0  0  0  0
 21  3  1  0  0  0  0
 23 26  1  0  0  0  0
 24 22  1  0  0  0  0
 24 28  1  0  0  0  0
 25 21  1  1  0  0  0
 25 22  1  0  0  0  0
 26 24  1  0  0  0  0
 27 26  2  0  0  0  0
 27 25  1  0  0  0  0
 28 29  1  0  0  0  0
M  END
>  <MODEL>
4

>  <REMARK>
 VINA RESULT:      -8.7      3.440      7.810
  Name = 
  5 active torsions:
  status: ('A' for Active; 'I' for Inactive)
    1  A    between atoms: C_2  and  C_22
    2  A    between atoms: C_7  and  N_18
    3  A    between atoms: C_10  and  N_17
    4  A    between atoms: C_11  and  N_26
    5  A    between atoms: C_24  and  N_26
                            x       y       z     vdW  Elec       q    Type
                         _______ _______ _______ _____ _____    ______ ____

>  <TORSDO>
F 5

$$$$
=
 OpenBabel10232412293D

 29 32  0  0  1  0  0  0  0  0999 V2000
  191.3350  176.6210  137.1300 C   0  0  0  0  0  3  0  0  0  0  0  0
  191.5250  176.8760  139.5140 C   0  0  0  0  0  3  0  0  0  0  0  0
  192.1170  176.5970  138.2810 C   0  0  0  0  0  0  0  0  0  0  0  0
  189.4080  177.1970  138.4370 N   0  0  0  0  0  0  0  0  0  0  0  0
  187.6960  177.5650  138.5070 Cl  0  0  0  0  0  0  0  0  0  0  0  0
  189.9760  176.9240  137.2230 C   0  0  0  0  0  0  0  0  0  0  0  0
  190.1580  177.1790  139.5850 C   0  0  0  0  0  0  0  0  0  0  0  0
  189.2790  176.9400  136.1730 O   0  0  0  0  0  0  0  0  0  0  0  0
  189.5350  177.4740  140.8910 C   0  0  0  0  0  3  0  0  0  0  0  0
  189.6630  176.6790  141.9520 C   0  0  0  0  0  3  0  0  0  0  0  0
  188.9710  177.4460  146.7390 C   0  0  0  0  0  3  0  0  0  0  0  0
  186.6120  178.0820  146.8680 C   0  0  0  0  0  3  0  0  0  0  0  0
  188.8050  177.3210  145.3620 C   0  0  0  0  0  0  0  0  0  0  0  0
  187.7610  177.3550  143.4030 C   0  0  0  0  0  3  0  0  0  0  0  0
  187.6010  177.5630  144.7530 C   0  0  0  0  0  0  0  0  0  0  0  0
  186.4750  177.9470  145.4750 C   0  0  0  0  0  3  0  0  0  0  0  0
  189.0530  176.9920  143.2060 N   0  0  0  0  0  0  0  0  0  0  0  0
  187.8520  177.8330  147.4980 C   0  0  0  0  0  0  0  0  0  0  0  0
  187.9670  177.9700  148.8740 O   0  0  0  0  0  1  0  0  0  0  0  0
  189.7100  176.9640  144.3890 C   0  0  0  0  0  3  0  0  0  0  0  0
  193.5080  176.2750  138.1790 N   0  0  0  0  0  2  0  0  0  0  0  0
  195.4210  175.6340  136.9750 O   0  0  0  0  0  0  0  0  0  0  0  0
  195.5180  172.0470  137.9390 C   0  0  0  0  0  1  0  0  0  0  0  0
  196.0340  174.4290  137.1130 N   0  0  0  0  0  0  0  0  0  0  0  0
  194.0490  175.3480  137.1940 C   0  0  1  0  0  3  0  0  0  0  0  0
  195.1470  173.4510  137.6030 C   0  0  0  0  0  0  0  0  0  0  0  0
  193.9460  173.9400  137.6980 C   0  0  0  0  0  3  0  0  0  0  0  0
  197.2030  174.0900  136.3150 C   0  0  0  0  0  2  0  0  0  0  0  0
  197.6770  175.3120  135.5530 C   0  0  0  0  0  1  0  0  0  0  0  0
  1  6  1  0  0  0  0
  1  3  2  0  0  0  0
  2  7  2  0  0  0  0
  3  2  1  0  0  0  0
  4  5  1  0  0  0  0
  4  7  1  0  0  0  0
  6  4  1  0  0  0  0
  7  9  1  0  0  0  0
  8  6  2  0  0  0  0
  9 10  2  0  0  0  0
 10 17  1  0  0  0  0
 11 18  2  0  0  0  0
 12 18  1  0  0  0  0
 13 11  1  0  0  0  0
 14 15  2  0  0  0  0
 15 13  1  0  0  0  0
 15 16  1  0  0  0  0
 16 12  2  0  0  0  0
 17 14  1  0  0  0  0
 17 20  1  0  0  0  0
 18 19  1  0  0  0  0
 20 13  2  0  0  0  0
 21  3  1  0  0  0  0
 22 24  1  0  0  0  0
 22 25  1  0  0  0  0
 24 26  1  0  0  0  0
 25 27  1  0  0  0  0
 25 21  1  1  0  0  0
 26 27  2  0  0  0  0
 26 23  1  0  0  0  0
 28 24  1  0  0  0  0
 29 28  1  0  0  0  0
M  END
>  <MODEL>
5

>  <REMARK>
 VINA RESULT:      -8.7      3.164     10.347
  Name = 
  5 active torsions:
  status: ('A' for Active; 'I' for Inactive)
    1  A    between atoms: C_2  and  C_22
    2  A    between atoms: C_7  and  N_18
    3  A    between atoms: C_10  and  N_17
    4  A    between atoms: C_11  and  N_26
    5  A    between atoms: C_24  and  N_26
                            x       y       z     vdW  Elec       q    Type
                         _______ _______ _______ _____ _____    ______ ____

>  <TORSDO>
F 5

$$$$
=
 OpenBabel10232412293D

 29 32  0  0  1  0  0  0  0  0999 V2000
  181.9530  178.8470  139.9940 C   0  0  0  0  0  3  0  0  0  0  0  0
  184.1700  178.3800  140.7990 C   0  0  0  0  0  3  0  0  0  0  0  0
  183.2890  178.5610  139.7320 C   0  0  0  0  0  0  0  0  0  0  0  0
  182.3860  178.7720  142.3520 N   0  0  0  0  0  0  0  0  0  0  0  0
  181.7890  178.9040  143.9930 Cl  0  0  0  0  0  0  0  0  0  0  0  0
  181.5130  178.9490  141.3140 C   0  0  0  0  0  0  0  0  0  0  0  0
  183.7080  178.4890  142.1190 C   0  0  0  0  0  0  0  0  0  0  0  0
  180.2990  179.2060  141.5370 O   0  0  0  0  0  0  0  0  0  0  0  0
  184.6420  178.2980  143.2450 C   0  0  0  0  0  3  0  0  0  0  0  0
  185.9500  178.1050  143.0790 C   0  0  0  0  0  3  0  0  0  0  0  0
  189.9520  177.2200  145.7590 C   0  0  0  0  0  3  0  0  0  0  0  0
  189.1590  177.4970  148.0570 C   0  0  0  0  0  3  0  0  0  0  0  0
  188.6610  177.5210  145.3350 C   0  0  0  0  0  0  0  0  0  0  0  0
  186.5110  178.0540  145.5010 C   0  0  0  0  0  3  0  0  0  0  0  0
  187.6540  177.8000  146.2230 C   0  0  0  0  0  0  0  0  0  0  0  0
  187.8640  177.7970  147.5990 C   0  0  0  0  0  3  0  0  0  0  0  0
  186.8330  177.9270  144.1890 N   0  0  0  0  0  0  0  0  0  0  0  0
  190.1980  177.2090  147.1440 C   0  0  0  0  0  0  0  0  0  0  0  0
  191.4690  176.9130  147.6160 O   0  0  0  0  0  1  0  0  0  0  0  0
  188.1410  177.6030  144.0640 C   0  0  0  0  0  3  0  0  0  0  0  0
  183.7310  178.4460  138.3750 N   0  0  0  0  0  2  0  0  0  0  0  0
  184.5880  177.2020  136.5750 O   0  0  0  0  0  0  0  0  0  0  0  0
  188.0710  178.4960  136.6040 C   0  0  0  0  0  1  0  0  0  0  0  0
  185.8080  177.4200  136.0170 N   0  0  0  0  0  0  0  0  0  0  0  0
  184.7740  177.5250  137.9440 C   0  0  1  0  0  3  0  0  0  0  0  0
  186.6850  178.0490  136.9220 C   0  0  0  0  0  0  0  0  0  0  0  0
  186.1210  178.1650  138.0880 C   0  0  0  0  0  3  0  0  0  0  0  0
  186.2840  176.5930  134.9190 C   0  0  0  0  0  2  0  0  0  0  0  0
  185.7020  175.1980  135.0340 C   0  0  0  0  0  1  0  0  0  0  0  0
  1  6  1  0  0  0  0
  2  7  2  0  0  0  0
  3  1  2  0  0  0  0
  3  2  1  0  0  0  0
  4  5  1  0  0  0  0
  6  8  2  0  0  0  0
  6  4  1  0  0  0  0
  7  4  1  0  0  0  0
  7  9  1  0  0  0  0
 10  9  2  0  0  0  0
 10 17  1  0  0  0  0
 11 18  2  0  0  0  0
 13 11  1  0  0  0  0
 13 15  1  0  0  0  0
 14 15  2  0  0  0  0
 15 16  1  0  0  0  0
 16 12  2  0  0  0  0
 17 14  1  0  0  0  0
 18 19  1  0  0  0  0
 18 12  1  0  0  0  0
 20 17  1  0  0  0  0
 20 13  2  0  0  0  0
 21  3  1  0  0  0  0
 22 25  1  0  0  0  0
 23 26  1  0  0  0  0
 24 22  1  0  0  0  0
 24 26  1  0  0  0  0
 25 27  1  0  0  0  0
 25 21  1  6  0  0  0
 26 27  2  0  0  0  0
 28 29  1  0  0  0  0
 28 24  1  0  0  0  0
M  END
>  <MODEL>
6

>  <REMARK>
 VINA RESULT:      -8.5      4.109      8.174
  Name = 
  5 active torsions:
  status: ('A' for Active; 'I' for Inactive)
    1  A    between atoms: C_2  and  C_22
    2  A    between atoms: C_7  and  N_18
    3  A    between atoms: C_10  and  N_17
    4  A    between atoms: C_11  and  N_26
    5  A    between atoms: C_24  and  N_26
                            x       y       z     vdW  Elec       q    Type
                         _______ _______ _______ _____ _____    ______ ____

>  <TORSDO>
F 5

$$$$
=
 OpenBabel10232412293D

 29 32  0  0  1  0  0  0  0  0999 V2000
  189.9010  176.9640  137.0430 C   0  0  0  0  0  3  0  0  0  0  0  0
  188.2050  177.4870  138.6670 C   0  0  0  0  0  3  0  0  0  0  0  0
  188.5650  177.2060  137.3470 C   0  0  0  0  0  0  0  0  0  0  0  0
  190.4950  177.2790  139.3460 N   0  0  0  0  0  0  0  0  0  0  0  0
  191.7330  177.3250  140.5840 Cl  0  0  0  0  0  0  0  0  0  0  0  0
  190.8600  177.0040  138.0560 C   0  0  0  0  0  0  0  0  0  0  0  0
  189.1840  177.5210  139.6700 C   0  0  0  0  0  0  0  0  0  0  0  0
  192.0670  176.7860  137.7660 O   0  0  0  0  0  0  0  0  0  0  0  0
  188.8010  177.8180  141.0640 C   0  0  0  0  0  3  0  0  0  0  0  0
  188.6030  176.8700  141.9790 C   0  0  0  0  0  3  0  0  0  0  0  0
  188.7660  177.4870  146.8350 C   0  0  0  0  0  3  0  0  0  0  0  0
  186.5400  178.3530  147.3640 C   0  0  0  0  0  3  0  0  0  0  0  0
  188.3710  177.4420  145.5010 C   0  0  0  0  0  0  0  0  0  0  0  0
  187.0390  177.6710  143.7390 C   0  0  0  0  0  3  0  0  0  0  0  0
  187.1200  177.8320  145.1030 C   0  0  0  0  0  0  0  0  0  0  0  0
  186.1700  178.2960  146.0090 C   0  0  0  0  0  3  0  0  0  0  0  0
  188.2370  177.1860  143.3250 N   0  0  0  0  0  0  0  0  0  0  0  0
  187.8290  177.9500  147.7770 C   0  0  0  0  0  0  0  0  0  0  0  0
  188.1750  178.0130  149.1190 O   0  0  0  0  0  1  0  0  0  0  0  0
  189.0660  177.0390  144.3840 C   0  0  0  0  0  3  0  0  0  0  0  0
  187.5890  177.1740  136.3010 N   0  0  0  0  0  2  0  0  0  0  0  0
  187.2510  174.8890  136.7340 O   0  0  0  0  0  0  0  0  0  0  0  0
  183.6700  175.0270  137.7170 C   0  0  0  0  0  1  0  0  0  0  0  0
  186.1310  174.3870  137.3170 N   0  0  0  0  0  0  0  0  0  0  0  0
  186.7810  176.0030  135.9900 C   0  0  1  0  0  3  0  0  0  0  0  0
  185.0270  175.2430  137.1390 C   0  0  0  0  0  0  0  0  0  0  0  0
  185.3520  176.2440  136.3740 C   0  0  0  0  0  3  0  0  0  0  0  0
  185.9790  172.9560  137.5330 C   0  0  0  0  0  2  0  0  0  0  0  0
  185.7390  172.2590  136.2080 C   0  0  0  0  0  1  0  0  0  0  0  0
  1  3  2  0  0  0  0
  1  6  1  0  0  0  0
  2  7  2  0  0  0  0
  3  2  1  0  0  0  0
  4  7  1  0  0  0  0
  4  5  1  0  0  0  0
  6  4  1  0  0  0  0
  7  9  1  0  0  0  0
  8  6  2  0  0  0  0
  9 10  2  0  0  0  0
 10 17  1  0  0  0  0
 11 18  2  0  0  0  0
 12 18  1  0  0  0  0
 13 11  1  0  0  0  0
 14 15  2  0  0  0  0
 15 13  1  0  0  0  0
 15 16  1  0  0  0  0
 16 12  2  0  0  0  0
 17 14  1  0  0  0  0
 17 20  1  0  0  0  0
 18 19  1  0  0  0  0
 20 13  2  0  0  0  0
 21  3  1  0  0  0  0
 22 24  1  0  0  0  0
 24 28  1  0  0  0  0
 25 21  1  1  0  0  0
 25 27  1  0  0  0  0
 25 22  1  0  0  0  0
 26 24  1  0  0  0  0
 26 23  1  0  0  0  0
 27 26  2  0  0  0  0
 29 28  1  0  0  0  0
M  END
>  <MODEL>
7

>  <REMARK>
 VINA RESULT:      -8.5      3.579      8.192
  Name = 
  5 active torsions:
  status: ('A' for Active; 'I' for Inactive)
    1  A    between atoms: C_2  and  C_22
    2  A    between atoms: C_7  and  N_18
    3  A    between atoms: C_10  and  N_17
    4  A    between atoms: C_11  and  N_26
    5  A    between atoms: C_24  and  N_26
                            x       y       z     vdW  Elec       q    Type
                         _______ _______ _______ _____ _____    ______ ____

>  <TORSDO>
F 5

$$$$
=
 OpenBabel10232412293D

 29 32  0  0  1  0  0  0  0  0999 V2000
  188.2350  177.8010  137.0190 C   0  0  0  0  0  3  0  0  0  0  0  0
  187.8410  178.0380  139.3800 C   0  0  0  0  0  3  0  0  0  0  0  0
  187.4010  178.1890  138.0630 C   0  0  0  0  0  0  0  0  0  0  0  0
  189.9120  177.1220  138.5930 N   0  0  0  0  0  0  0  0  0  0  0  0
  191.5030  176.4540  138.8990 Cl  0  0  0  0  0  0  0  0  0  0  0  0
  189.4930  177.2670  137.2990 C   0  0  0  0  0  0  0  0  0  0  0  0
  189.1090  177.4980  139.6400 C   0  0  0  0  0  0  0  0  0  0  0  0
  190.2390  176.9220  136.3430 O   0  0  0  0  0  0  0  0  0  0  0  0
  189.5710  177.3390  141.0330 C   0  0  0  0  0  3  0  0  0  0  0  0
  188.7860  177.5590  142.0870 C   0  0  0  0  0  3  0  0  0  0  0  0
  191.6430  176.5350  145.9310 C   0  0  0  0  0  3  0  0  0  0  0  0
  190.2170  177.0700  147.8460 C   0  0  0  0  0  3  0  0  0  0  0  0
  190.5870  176.9170  145.1080 C   0  0  0  0  0  0  0  0  0  0  0  0
  188.5650  177.6550  144.5610 C   0  0  0  0  0  3  0  0  0  0  0  0
  189.3940  177.3580  145.6180 C   0  0  0  0  0  0  0  0  0  0  0  0
  189.1680  177.4490  146.9890 C   0  0  0  0  0  3  0  0  0  0  0  0
  189.2590  177.3930  143.4260 N   0  0  0  0  0  0  0  0  0  0  0  0
  191.4470  176.6150  147.3220 C   0  0  0  0  0  0  0  0  0  0  0  0
  192.4700  176.2450  148.1840 O   0  0  0  0  0  1  0  0  0  0  0  0
  190.4970  176.9410  143.7350 C   0  0  0  0  0  3  0  0  0  0  0  0
  186.1170  178.7460  137.7680 N   0  0  0  0  0  2  0  0  0  0  0  0
  184.3120  179.8060  138.8370 O   0  0  0  0  0  0  0  0  0  0  0  0
  181.5430  177.7820  137.4090 C   0  0  0  0  0  1  0  0  0  0  0  0
  183.0080  179.5760  138.5290 N   0  0  0  0  0  0  0  0  0  0  0  0
  184.9440  178.5550  138.6110 C   0  0  1  0  0  3  0  0  0  0  0  0
  182.8330  178.3120  137.9340 C   0  0  0  0  0  0  0  0  0  0  0  0
  183.9570  177.6570  137.9290 C   0  0  0  0  0  3  0  0  0  0  0  0
  181.9410  180.2510  139.2510 C   0  0  0  0  0  2  0  0  0  0  0  0
  181.4810  181.4670  138.4710 C   0  0  0  0  0  1  0  0  0  0  0  0
  1  6  1  0  0  0  0
  1  3  2  0  0  0  0
  2  7  2  0  0  0  0
  3  2  1  0  0  0  0
  4  5  1  0  0  0  0
  4  7  1  0  0  0  0
  6  4  1  0  0  0  0
  7  9  1  0  0  0  0
  8  6  2  0  0  0  0
  9 10  2  0  0  0  0
 10 17  1  0  0  0  0
 11 18  2  0  0  0  0
 13 15  1  0  0  0  0
 13 11  1  0  0  0  0
 14 15  2  0  0  0  0
 15 16  1  0  0  0  0
 16 12  2  0  0  0  0
 17 20  1  0  0  0  0
 17 14  1  0  0  0  0
 18 12  1  0  0  0  0
 18 19  1  0  0  0  0
 20 13  2  0  0  0  0
 21  3  1  0  0  0  0
 23 26  1  0  0  0  0
 24 22  1  0  0  0  0
 24 28  1  0  0  0  0
 25 21  1  6  0  0  0
 25 22  1  0  0  0  0
 26 24  1  0  0  0  0
 27 26  2  0  0  0  0
 27 25  1  0  0  0  0
 29 28  1  0  0  0  0
M  END
>  <MODEL>
8

>  <REMARK>
 VINA RESULT:      -8.5      3.319      7.174
  Name = 
  5 active torsions:
  status: ('A' for Active; 'I' for Inactive)
    1  A    between atoms: C_2  and  C_22
    2  A    between atoms: C_7  and  N_18
    3  A    between atoms: C_10  and  N_17
    4  A    between atoms: C_11  and  N_26
    5  A    between atoms: C_24  and  N_26
                            x       y       z     vdW  Elec       q    Type
                         _______ _______ _______ _____ _____    ______ ____

>  <TORSDO>
F 5

$$$$
=
 OpenBabel10232412293D

 29 32  0  0  1  0  0  0  0  0999 V2000
  187.1240  178.2010  147.0640 C   0  0  0  0  0  3  0  0  0  0  0  0
  187.0920  177.8910  144.6790 C   0  0  0  0  0  3  0  0  0  0  0  0
  186.4370  178.2620  145.8550 C   0  0  0  0  0  0  0  0  0  0  0  0
  189.0840  177.4160  145.9260 N   0  0  0  0  0  0  0  0  0  0  0  0
  190.7500  176.8790  146.0000 Cl  0  0  0  0  0  0  0  0  0  0  0  0
  188.4520  177.7740  147.0850 C   0  0  0  0  0  0  0  0  0  0  0  0
  188.4270  177.4660  144.7220 C   0  0  0  0  0  0  0  0  0  0  0  0
  189.0610  177.7220  148.1870 O   0  0  0  0  0  0  0  0  0  0  0  0
  189.1170  177.0760  143.4770 C   0  0  0  0  0  3  0  0  0  0  0  0
  189.5990  177.9610  142.6060 C   0  0  0  0  0  3  0  0  0  0  0  0
  193.0990  176.9420  139.3350 C   0  0  0  0  0  3  0  0  0  0  0  0
  191.8360  176.1480  137.3950 C   0  0  0  0  0  3  0  0  0  0  0  0
  191.8800  177.1160  139.9860 C   0  0  0  0  0  0  0  0  0  0  0  0
  189.6790  177.0990  140.2750 C   0  0  0  0  0  3  0  0  0  0  0  0
  190.6870  176.8220  139.3810 C   0  0  0  0  0  0  0  0  0  0  0  0
  190.6220  176.3350  138.0790 C   0  0  0  0  0  3  0  0  0  0  0  0
  190.2670  177.5550  141.4090 N   0  0  0  0  0  0  0  0  0  0  0  0
  193.0680  176.4500  138.0170 C   0  0  0  0  0  0  0  0  0  0  0  0
  194.2560  176.2610  137.3250 O   0  0  0  0  0  1  0  0  0  0  0  0
  191.6120  177.5730  141.2560 C   0  0  0  0  0  3  0  0  0  0  0  0
  185.0720  178.6900  145.8430 N   0  0  0  0  0  2  0  0  0  0  0  0
  182.9070  178.9560  144.9670 O   0  0  0  0  0  0  0  0  0  0  0  0
  183.7460  178.8380  141.3490 C   0  0  0  0  0  1  0  0  0  0  0  0
  182.6440  179.1710  143.6510 N   0  0  0  0  0  0  0  0  0  0  0  0
  184.0610  178.1300  144.9560 C   0  0  1  0  0  3  0  0  0  0  0  0
  183.6840  178.6920  142.8310 C   0  0  0  0  0  0  0  0  0  0  0  0
  184.5780  178.0790  143.5500 C   0  0  0  0  0  3  0  0  0  0  0  0
  181.2760  179.3030  143.1750 C   0  0  0  0  0  2  0  0  0  0  0  0
  180.3440  178.5000  144.0620 C   0  0  0  0  0  1  0  0  0  0  0  0
  1  6  1  0  0  0  0
  2  7  2  0  0  0  0
  2  3  1  0  0  0  0
  3  1  2  0  0  0  0
  4  5  1  0  0  0  0
  4  6  1  0  0  0  0
  6  8  2  0  0  0  0
  7  4  1  0  0  0  0
  9  7  1  0  0  0  0
 10  9  2  0  0  0  0
 11 13  1  0  0  0  0
 12 18  1  0  0  0  0
 12 16  2  0  0  0  0
 13 20  2  0  0  0  0
 14 17  1  0  0  0  0
 15 13  1  0  0  0  0
 15 14  2  0  0  0  0
 16 15  1  0  0  0  0
 17 10  1  0  0  0  0
 18 11  2  0  0  0  0
 19 18  1  0  0  0  0
 20 17  1  0  0  0  0
 21  3  1  0  0  0  0
 23 26  1  0  0  0  0
 24 22  1  0  0  0  0
 25 22  1  0  0  0  0
 25 21  1  1  0  0  0
 26 27  2  0  0  0  0
 26 24  1  0  0  0  0
 27 25  1  0  0  0  0
 28 24  1  0  0  0  0
 28 29  1  0  0  0  0
M  END
>  <MODEL>
9

>  <REMARK>
 VINA RESULT:      -8.3      1.032      1.698
  Name = 
  5 active torsions:
  status: ('A' for Active; 'I' for Inactive)
    1  A    between atoms: C_2  and  C_22
    2  A    between atoms: C_7  and  N_18
    3  A    between atoms: C_10  and  N_17
    4  A    between atoms: C_11  and  N_26
    5  A    between atoms: C_24  and  N_26
                            x       y       z     vdW  Elec       q    Type
                         _______ _______ _______ _____ _____    ______ ____

>  <TORSDO>
F 5

$$$$
