=
 OpenBabel10232411283D

 36 41  0  0  1  0  0  0  0  0999 V2000
  188.5410  177.6950  144.4210 C   0  0  0  0  0  0  0  0  0  0  0  0
  187.4710  178.9300  141.2530 C   0  0  0  0  0  3  0  0  0  0  0  0
  187.0590  178.2940  142.5240 C   0  0  0  0  0  0  0  0  0  0  0  0
  185.4320  178.1290  144.3710 C   0  0  0  0  0  0  0  0  0  0  0  0
  189.0140  176.7010  142.1640 C   0  0  0  0  0  0  0  0  0  0  0  0
  184.0790  178.2040  144.7160 C   0  0  0  0  0  3  0  0  0  0  0  0
  189.6590  175.5270  142.5370 O   0  0  0  0  0  1  0  0  0  0  0  0
  189.3190  177.3240  141.0040 C   0  0  0  0  0  0  0  0  0  0  0  0
  183.5640  179.2350  142.6360 N   0  0  0  0  0  0  0  0  0  0  0  0
  187.9690  177.2490  143.1140 C   0  0  0  0  0  0  0  0  0  0  0  0
  184.8600  179.1420  142.2420 C   0  0  0  0  0  3  0  0  0  0  0  0
  181.4660  178.8510  144.2850 Cl  0  0  0  0  0  0  0  0  0  0  0  0
  185.8360  178.5380  143.0590 C   0  0  0  0  0  0  0  0  0  0  0  0
  187.7230  177.8730  145.4540 C   0  0  0  0  0  2  0  0  0  0  0  0
  188.5230  178.4910  140.5680 C   0  0  0  0  0  3  0  0  0  0  0  0
  186.2500  177.8390  145.3990 C   0  0  0  0  0  3  0  0  0  0  0  0
  183.1530  178.7430  143.8290 C   0  0  0  0  0  0  0  0  0  0  0  0
  192.5010  176.4170  138.8280 C   0  0  0  0  0  0  0  0  0  0  0  0
  190.8340  173.4740  137.1160 O   0  0  0  0  0  0  0  0  0  0  0  0
  193.2940  174.4900  136.6840 C   0  0  0  0  0  2  0  0  0  0  0  0
  193.8370  176.7360  136.0170 O   0  0  0  0  0  1  0  0  0  0  0  0
  191.5400  174.7800  136.8820 S   0  0  0  0  0  0  0  0  0  0  0  0
  193.8300  176.2910  138.3160 N   0  0  0  0  0  2  0  0  0  0  0  0
  190.9830  175.4610  135.6630 O   0  0  0  0  0  0  0  0  0  0  0  0
  192.0530  177.2630  140.2020 S   0  0  0  0  0  0  0  0  0  0  0  0
  190.4050  176.8660  140.1010 C   0  0  0  0  0  0  0  0  0  0  0  0
  194.1040  175.7590  136.9780 C   0  0  1  0  0  3  0  0  0  0  0  0
  190.2040  176.0590  138.9760 C   0  0  0  0  0  3  0  0  0  0  0  0
  191.3900  175.8140  138.2790 C   0  0  0  0  0  0  0  0  0  0  0  0
  189.9660  177.8460  144.5650 N   0  0  0  0  0  2  0  0  0  0  0  0
  192.4560  175.9760  148.2780 C   0  0  0  0  0  1  0  0  0  0  0  0
  192.3270  175.4220  145.7970 C   0  0  0  0  0  3  0  0  0  0  0  0
  191.6170  175.9540  144.7310 C   0  0  0  0  0  3  0  0  0  0  0  0
  191.0890  177.0970  146.5570 O   0  0  0  0  0  0  0  0  0  0  0  0
  190.8720  176.9870  145.2720 C   0  0  0  0  0  0  0  0  0  0  0  0
  191.9530  176.1750  146.8930 C   0  0  0  0  0  0  0  0  0  0  0  0
  1 30  1  0  0  0  0
  1 14  1  0  0  0  0
  2  3  1  0  0  0  0
  3 13  2  0  0  0  0
  3 10  1  0  0  0  0
  4  6  1  0  0  0  0
  4 16  2  0  0  0  0
  5  7  1  0  0  0  0
  5 10  1  0  0  0  0
  8  5  2  0  0  0  0
  9 17  1  0  0  0  0
 10  1  2  0  0  0  0
 11  9  2  0  0  0  0
 11 13  1  0  0  0  0
 13  4  1  0  0  0  0
 15  8  1  0  0  0  0
 15  2  2  0  0  0  0
 16 14  1  0  0  0  0
 17 12  1  0  0  0  0
 17  6  2  0  0  0  0
 18 25  1  0  0  0  0
 20 22  1  0  0  0  0
 20 27  1  0  0  0  0
 22 19  2  0  0  0  0
 22 29  1  0  0  0  0
 23 18  1  0  0  0  0
 24 22  2  0  0  0  0
 26 25  1  0  0  0  0
 26  8  1  0  0  0  0
 27 21  1  6  0  0  0
 27 23  1  0  0  0  0
 28 26  2  0  0  0  0
 29 18  2  0  0  0  0
 29 28  1  0  0  0  0
 30 35  1  0  0  0  0
 32 36  2  0  0  0  0
 33 35  2  0  0  0  0
 33 32  1  0  0  0  0
 34 36  1  0  0  0  0
 35 34  1  0  0  0  0
 36 31  1  0  0  0  0
M  END
>  <MODEL>
1

>  <REMARK>
 VINA RESULT:     -10.5      0.000      0.000
  Name = 
  3 active torsions:
  status: ('A' for Active; 'I' for Inactive)
    1  A    between atoms: C_1  and  N_30
    2  A    between atoms: C_18  and  C_29
    3  A    between atoms: N_30  and  C_32
                            x       y       z     vdW  Elec       q    Type
                         _______ _______ _______ _____ _____    ______ ____

>  <TORSDO>
F 3

$$$$
=
 OpenBabel10232411283D

 36 41  0  0  1  0  0  0  0  0999 V2000
  187.9680  177.5740  144.9490 C   0  0  0  0  0  0  0  0  0  0  0  0
  190.6710  175.6780  143.6040 C   0  0  0  0  0  3  0  0  0  0  0  0
  190.2420  176.6220  144.6600 C   0  0  0  0  0  0  0  0  0  0  0  0
  190.3090  177.3160  147.0260 C   0  0  0  0  0  0  0  0  0  0  0  0
  189.1720  177.9700  142.7810 C   0  0  0  0  0  0  0  0  0  0  0  0
  191.1040  177.4010  148.1730 C   0  0  0  0  0  3  0  0  0  0  0  0
  188.5780  179.1610  142.3780 O   0  0  0  0  0  1  0  0  0  0  0  0
  189.6140  177.0710  141.8730 C   0  0  0  0  0  0  0  0  0  0  0  0
  192.7110  175.9330  147.2160 N   0  0  0  0  0  0  0  0  0  0  0  0
  189.2920  177.7250  144.2710 C   0  0  0  0  0  0  0  0  0  0  0  0
  191.9930  175.8560  146.0670 C   0  0  0  0  0  3  0  0  0  0  0  0
  193.2890  176.8180  149.6960 Cl  0  0  0  0  0  0  0  0  0  0  0  0
  190.7980  176.5830  145.8970 C   0  0  0  0  0  0  0  0  0  0  0  0
  187.9060  177.6950  146.2710 C   0  0  0  0  0  2  0  0  0  0  0  0
  190.3630  175.8800  142.3270 C   0  0  0  0  0  3  0  0  0  0  0  0
  189.0620  177.7970  147.1810 C   0  0  0  0  0  3  0  0  0  0  0  0
  192.3150  176.7190  148.2440 C   0  0  0  0  0  0  0  0  0  0  0  0
  188.7020  177.7650  138.0830 C   0  0  0  0  0  0  0  0  0  0  0  0
  191.9750  176.3890  136.7550 O   0  0  0  0  0  0  0  0  0  0  0  0
  189.8540  177.3030  135.3630 C   0  0  0  0  0  2  0  0  0  0  0  0
  187.5970  176.4780  135.4530 O   0  0  0  0  0  1  0  0  0  0  0  0
  190.4790  176.2630  136.6780 S   0  0  0  0  0  0  0  0  0  0  0  0
  188.1260  178.2640  136.8730 N   0  0  0  0  0  2  0  0  0  0  0  0
  190.0900  174.8320  136.4400 O   0  0  0  0  0  0  0  0  0  0  0  0
  188.2710  178.2170  139.6360 S   0  0  0  0  0  0  0  0  0  0  0  0
  189.4220  177.2380  140.4100 C   0  0  0  0  0  0  0  0  0  0  0  0
  188.3710  177.6330  135.5730 C   0  0  1  0  0  3  0  0  0  0  0  0
  190.1540  176.5480  139.4380 C   0  0  0  0  0  3  0  0  0  0  0  0
  189.7400  176.8600  138.1400 C   0  0  0  0  0  0  0  0  0  0  0  0
  186.7790  177.3810  144.1610 N   0  0  0  0  0  2  0  0  0  0  0  0
  182.3560  179.0090  143.0300 C   0  0  0  0  0  1  0  0  0  0  0  0
  183.7700  179.1010  145.1430 C   0  0  0  0  0  3  0  0  0  0  0  0
  185.0360  178.6380  145.4730 C   0  0  0  0  0  3  0  0  0  0  0  0
  184.6220  178.0910  143.3630 O   0  0  0  0  0  0  0  0  0  0  0  0
  185.5060  178.0240  144.3250 C   0  0  0  0  0  0  0  0  0  0  0  0
  183.5790  178.7290  143.8280 C   0  0  0  0  0  0  0  0  0  0  0  0
  1 14  1  0  0  0  0
  2  3  1  0  0  0  0
  3 13  2  0  0  0  0
  4 16  2  0  0  0  0
  4  6  1  0  0  0  0
  5 10  1  0  0  0  0
  6 17  2  0  0  0  0
  7  5  1  0  0  0  0
  8 15  1  0  0  0  0
  8  5  2  0  0  0  0
  9 17  1  0  0  0  0
 10  3  1  0  0  0  0
 10  1  2  0  0  0  0
 11  9  2  0  0  0  0
 13 11  1  0  0  0  0
 13  4  1  0  0  0  0
 14 16  1  0  0  0  0
 15  2  2  0  0  0  0
 17 12  1  0  0  0  0
 18 29  2  0  0  0  0
 18 25  1  0  0  0  0
 20 27  1  0  0  0  0
 20 22  1  0  0  0  0
 22 19  2  0  0  0  0
 22 29  1  0  0  0  0
 23 18  1  0  0  0  0
 24 22  2  0  0  0  0
 25 26  1  0  0  0  0
 26  8  1  0  0  0  0
 27 21  1  1  0  0  0
 27 23  1  0  0  0  0
 28 26  2  0  0  0  0
 29 28  1  0  0  0  0
 30 35  1  0  0  0  0
 30  1  1  0  0  0  0
 31 36  1  0  0  0  0
 32 33  1  0  0  0  0
 34 36  1  0  0  0  0
 34 35  1  0  0  0  0
 35 33  2  0  0  0  0
 36 32  2  0  0  0  0
M  END
>  <MODEL>
2

>  <REMARK>
 VINA RESULT:      -9.7      3.298      6.102
  Name = 
  3 active torsions:
  status: ('A' for Active; 'I' for Inactive)
    1  A    between atoms: C_1  and  N_30
    2  A    between atoms: C_18  and  C_29
    3  A    between atoms: N_30  and  C_32
                            x       y       z     vdW  Elec       q    Type
                         _______ _______ _______ _____ _____    ______ ____

>  <TORSDO>
F 3

$$$$
=
 OpenBabel10232411283D

 36 41  0  0  1  0  0  0  0  0999 V2000
  187.9860  177.5450  145.0280 C   0  0  0  0  0  0  0  0  0  0  0  0
  190.7330  175.5850  143.8790 C   0  0  0  0  0  3  0  0  0  0  0  0
  190.2730  176.5980  144.8540 C   0  0  0  0  0  0  0  0  0  0  0  0
  190.2850  177.4620  147.1650 C   0  0  0  0  0  0  0  0  0  0  0  0
  189.2310  177.7960  142.8620 C   0  0  0  0  0  0  0  0  0  0  0  0
  191.0560  177.6390  148.3180 C   0  0  0  0  0  3  0  0  0  0  0  0
  188.6350  178.9490  142.3620 O   0  0  0  0  0  1  0  0  0  0  0  0
  189.6990  176.8390  142.0310 C   0  0  0  0  0  0  0  0  0  0  0  0
  192.6950  176.1220  147.5030 N   0  0  0  0  0  0  0  0  0  0  0  0
  189.3220  177.6610  144.3680 C   0  0  0  0  0  0  0  0  0  0  0  0
  192.0020  175.9550  146.3480 C   0  0  0  0  0  3  0  0  0  0  0  0
  193.2130  177.1900  149.9230 Cl  0  0  0  0  0  0  0  0  0  0  0  0
  190.8040  176.6550  146.1020 C   0  0  0  0  0  0  0  0  0  0  0  0
  187.8950  177.7600  146.3370 C   0  0  0  0  0  2  0  0  0  0  0  0
  190.4500  175.6920  142.5840 C   0  0  0  0  0  3  0  0  0  0  0  0
  189.0310  177.9410  147.2600 C   0  0  0  0  0  3  0  0  0  0  0  0
  192.2700  176.9760  148.4640 C   0  0  0  0  0  0  0  0  0  0  0  0
  189.7420  176.9180  138.0720 C   0  0  0  0  0  0  0  0  0  0  0  0
  185.9650  176.9870  137.7560 O   0  0  0  0  0  0  0  0  0  0  0  0
  187.8130  177.1290  135.7970 C   0  0  0  0  0  2  0  0  0  0  0  0
  189.5480  178.7760  135.5610 O   0  0  0  0  0  1  0  0  0  0  0  0
  187.2320  177.7060  137.3880 S   0  0  0  0  0  0  0  0  0  0  0  0
  190.1110  176.8060  136.6950 N   0  0  0  0  0  2  0  0  0  0  0  0
  186.9940  179.1890  137.3490 O   0  0  0  0  0  0  0  0  0  0  0  0
  190.7090  176.5360  139.3840 S   0  0  0  0  0  0  0  0  0  0  0  0
  189.5360  176.8980  140.5560 C   0  0  0  0  0  0  0  0  0  0  0  0
  189.3110  177.4020  135.6210 C   0  0  1  0  0  3  0  0  0  0  0  0
  188.3700  177.3230  139.9110 C   0  0  0  0  0  3  0  0  0  0  0  0
  188.5030  177.3230  138.5190 C   0  0  0  0  0  0  0  0  0  0  0  0
  186.8140  177.2840  144.2330 N   0  0  0  0  0  2  0  0  0  0  0  0
  182.5200  178.9610  142.7380 C   0  0  0  0  0  1  0  0  0  0  0  0
  183.7990  179.1240  144.9320 C   0  0  0  0  0  3  0  0  0  0  0  0
  185.0270  178.6470  145.3660 C   0  0  0  0  0  3  0  0  0  0  0  0
  184.7340  178.0060  143.2620 O   0  0  0  0  0  0  0  0  0  0  0  0
  185.5520  177.9650  144.2820 C   0  0  0  0  0  0  0  0  0  0  0  0
  183.6820  178.6920  143.6270 C   0  0  0  0  0  0  0  0  0  0  0  0
  1 14  1  0  0  0  0
  2  3  1  0  0  0  0
  3 13  2  0  0  0  0
  4 16  2  0  0  0  0
  4  6  1  0  0  0  0
  5 10  1  0  0  0  0
  6 17  2  0  0  0  0
  7  5  1  0  0  0  0
  8 15  1  0  0  0  0
  8  5  2  0  0  0  0
  9 17  1  0  0  0  0
 10  3  1  0  0  0  0
 10  1  2  0  0  0  0
 11  9  2  0  0  0  0
 13 11  1  0  0  0  0
 13  4  1  0  0  0  0
 14 16  1  0  0  0  0
 15  2  2  0  0  0  0
 17 12  1  0  0  0  0
 18 29  2  0  0  0  0
 18 25  1  0  0  0  0
 20 22  1  0  0  0  0
 22 19  2  0  0  0  0
 22 29  1  0  0  0  0
 23 18  1  0  0  0  0
 24 22  2  0  0  0  0
 25 26  1  0  0  0  0
 26  8  1  0  0  0  0
 27 21  1  1  0  0  0
 27 20  1  0  0  0  0
 27 23  1  0  0  0  0
 28 26  2  0  0  0  0
 29 28  1  0  0  0  0
 30 35  1  0  0  0  0
 30  1  1  0  0  0  0
 31 36  1  0  0  0  0
 32 33  1  0  0  0  0
 34 36  1  0  0  0  0
 34 35  1  0  0  0  0
 35 33  2  0  0  0  0
 36 32  2  0  0  0  0
M  END
>  <MODEL>
3

>  <REMARK>
 VINA RESULT:      -9.0      3.496      6.206
  Name = 
  3 active torsions:
  status: ('A' for Active; 'I' for Inactive)
    1  A    between atoms: C_1  and  N_30
    2  A    between atoms: C_18  and  C_29
    3  A    between atoms: N_30  and  C_32
                            x       y       z     vdW  Elec       q    Type
                         _______ _______ _______ _____ _____    ______ ____

>  <TORSDO>
F 3

$$$$
=
 OpenBabel10232411283D

 36 41  0  0  1  0  0  0  0  0999 V2000
  185.7630  178.0850  143.0310 C   0  0  0  0  0  0  0  0  0  0  0  0
  188.7100  176.1650  143.6110 C   0  0  0  0  0  3  0  0  0  0  0  0
  187.8440  177.2600  144.1020 C   0  0  0  0  0  0  0  0  0  0  0  0
  186.7440  178.3930  145.9980 C   0  0  0  0  0  0  0  0  0  0  0  0
  187.9010  178.1470  141.7150 C   0  0  0  0  0  0  0  0  0  0  0  0
  186.8640  178.7510  147.3440 C   0  0  0  0  0  3  0  0  0  0  0  0
  187.6280  179.1960  140.8430 O   0  0  0  0  0  1  0  0  0  0  0  0
  188.7060  177.1260  141.3460 C   0  0  0  0  0  0  0  0  0  0  0  0
  188.6830  177.2450  147.6240 N   0  0  0  0  0  0  0  0  0  0  0  0
  187.2530  178.1990  143.0830 C   0  0  0  0  0  0  0  0  0  0  0  0
  188.6320  176.9010  146.3120 C   0  0  0  0  0  3  0  0  0  0  0  0
  187.9750  178.6240  149.8300 Cl  0  0  0  0  0  0  0  0  0  0  0  0
  187.7060  177.4960  145.4320 C   0  0  0  0  0  0  0  0  0  0  0  0
  185.0530  178.4500  144.0940 C   0  0  0  0  0  2  0  0  0  0  0  0
  189.0880  176.1000  142.3390 C   0  0  0  0  0  3  0  0  0  0  0  0
  185.6040  178.8060  145.4150 C   0  0  0  0  0  3  0  0  0  0  0  0
  187.8530  178.1820  148.1410 C   0  0  0  0  0  0  0  0  0  0  0  0
  189.7760  176.8640  137.5430 C   0  0  0  0  0  0  0  0  0  0  0  0
  193.4870  176.7630  138.3060 O   0  0  0  0  0  0  0  0  0  0  0  0
  192.2630  176.5390  135.9140 C   0  0  0  0  0  2  0  0  0  0  0  0
  190.6340  174.8920  135.2690 O   0  0  0  0  0  1  0  0  0  0  0  0
  192.3620  176.0330  137.6270 S   0  0  0  0  0  0  0  0  0  0  0  0
  189.8110  176.9150  136.1140 N   0  0  0  0  0  2  0  0  0  0  0  0
  192.5760  174.5490  137.7200 O   0  0  0  0  0  0  0  0  0  0  0  0
  188.4860  177.3110  138.5110 S   0  0  0  0  0  0  0  0  0  0  0  0
  189.2760  176.9980  139.9800 C   0  0  0  0  0  0  0  0  0  0  0  0
  190.8690  176.2670  135.3350 C   0  0  1  0  0  3  0  0  0  0  0  0
  190.5680  176.5380  139.7090 C   0  0  0  0  0  3  0  0  0  0  0  0
  190.8320  176.4740  138.3370 C   0  0  0  0  0  0  0  0  0  0  0  0
  185.1190  177.6630  141.8150 N   0  0  0  0  0  2  0  0  0  0  0  0
  180.7190  179.3460  140.6760 C   0  0  0  0  0  1  0  0  0  0  0  0
  183.0100  179.5470  139.5850 C   0  0  0  0  0  3  0  0  0  0  0  0
  184.2710  179.0680  139.9060 C   0  0  0  0  0  3  0  0  0  0  0  0
  182.8480  178.3780  141.4620 O   0  0  0  0  0  0  0  0  0  0  0  0
  184.0990  178.3520  141.0780 C   0  0  0  0  0  0  0  0  0  0  0  0
  182.1800  179.0840  140.5870 C   0  0  0  0  0  0  0  0  0  0  0  0
  1 10  2  0  0  0  0
  1 14  1  0  0  0  0
  2  3  1  0  0  0  0
  3 13  2  0  0  0  0
  4  6  1  0  0  0  0
  5 10  1  0  0  0  0
  6 17  2  0  0  0  0
  7  5  1  0  0  0  0
  8  5  2  0  0  0  0
  8 15  1  0  0  0  0
  9 17  1  0  0  0  0
 10  3  1  0  0  0  0
 11  9  2  0  0  0  0
 13  4  1  0  0  0  0
 13 11  1  0  0  0  0
 14 16  1  0  0  0  0
 15  2  2  0  0  0  0
 16  4  2  0  0  0  0
 17 12  1  0  0  0  0
 18 29  2  0  0  0  0
 18 25  1  0  0  0  0
 20 22  1  0  0  0  0
 22 24  2  0  0  0  0
 22 19  2  0  0  0  0
 22 29  1  0  0  0  0
 23 18  1  0  0  0  0
 25 26  1  0  0  0  0
 26  8  1  0  0  0  0
 27 21  1  1  0  0  0
 27 20  1  0  0  0  0
 27 23  1  0  0  0  0
 28 26  2  0  0  0  0
 29 28  1  0  0  0  0
 30  1  1  0  0  0  0
 32 33  1  0  0  0  0
 32 36  2  0  0  0  0
 33 35  2  0  0  0  0
 35 34  1  0  0  0  0
 35 30  1  0  0  0  0
 36 31  1  0  0  0  0
 36 34  1  0  0  0  0
M  END
>  <MODEL>
4

>  <REMARK>
 VINA RESULT:      -8.8      2.905      5.758
  Name = 
  3 active torsions:
  status: ('A' for Active; 'I' for Inactive)
    1  A    between atoms: C_1  and  N_30
    2  A    between atoms: C_18  and  C_29
    3  A    between atoms: N_30  and  C_32
                            x       y       z     vdW  Elec       q    Type
                         _______ _______ _______ _____ _____    ______ ____

>  <TORSDO>
F 3

$$$$
=
 OpenBabel10232411283D

 36 41  0  0  1  0  0  0  0  0999 V2000
  185.4930  178.9910  141.2200 C   0  0  0  0  0  0  0  0  0  0  0  0
  188.8010  178.4920  139.9920 C   0  0  0  0  0  2  0  0  0  0  0  0
  187.3620  178.2210  139.7820 C   0  0  0  0  0  0  0  0  0  0  0  0
  185.4540  178.0360  138.2290 C   0  0  0  0  0  0  0  0  0  0  0  0
  187.2970  177.5780  142.2460 C   0  0  0  0  0  0  0  0  0  0  0  0
  185.0540  177.6520  136.9460 C   0  0  0  0  0  3  0  0  0  0  0  0
  186.5920  176.9890  143.2900 O   0  0  0  0  0  1  0  0  0  0  0  0
  188.6210  177.8310  142.3550 C   0  0  0  0  0  0  0  0  0  0  0  0
  187.3170  177.5870  136.2180 N   0  0  0  0  0  0  0  0  0  0  0  0
  186.5180  177.9270  140.9950 C   0  0  0  0  0  0  0  0  0  0  0  0
  187.7520  177.9160  137.4600 C   0  0  0  0  0  3  0  0  0  0  0  0
  185.4840  176.9520  134.3460 Cl  0  0  0  0  0  0  0  0  0  0  0  0
  186.8530  178.0980  138.5300 C   0  0  0  0  0  0  0  0  0  0  0  0
  184.5260  179.1530  140.3220 C   0  0  0  0  0  3  0  0  0  0  0  0
  189.3700  178.3280  141.1820 C   0  0  0  0  0  3  0  0  0  0  0  0
  184.4540  178.4880  139.0070 C   0  0  0  0  0  3  0  0  0  0  0  0
  186.0010  177.4110  135.9540 C   0  0  0  0  0  0  0  0  0  0  0  0
  191.0150  177.0030  145.3980 C   0  0  0  0  0  0  0  0  0  0  0  0
  188.8810  178.8370  147.9370 O   0  0  0  0  0  0  0  0  0  0  0  0
  191.1220  177.3980  148.3600 C   0  0  0  0  0  2  0  0  0  0  0  0
  191.4770  175.0810  147.8240 O   0  0  0  0  0  1  0  0  0  0  0  0
  189.5060  177.5120  147.6000 S   0  0  0  0  0  0  0  0  0  0  0  0
  192.1350  176.6490  146.2140 N   0  0  0  0  0  2  0  0  0  0  0  0
  188.6270  176.3890  148.0720 O   0  0  0  0  0  0  0  0  0  0  0  0
  191.0000  177.0670  143.7250 S   0  0  0  0  0  0  0  0  0  0  0  0
  189.3890  177.5900  143.6030 C   0  0  0  0  0  0  0  0  0  0  0  0
  191.9990  176.3630  147.6450 C   0  0  1  0  0  3  0  0  0  0  0  0
  188.8570  177.7160  144.8900 C   0  0  0  0  0  3  0  0  0  0  0  0
  189.7850  177.3880  145.8830 C   0  0  0  0  0  0  0  0  0  0  0  0
  185.5180  179.7640  142.4340 N   0  0  0  0  0  2  0  0  0  0  0  0
  185.4780  178.7880  147.1810 C   0  0  0  0  0  1  0  0  0  0  0  0
  183.6840  178.7900  145.3770 C   0  0  0  0  0  3  0  0  0  0  0  0
  183.6890  179.0680  144.0170 C   0  0  0  0  0  3  0  0  0  0  0  0
  185.7530  179.3290  144.7890 O   0  0  0  0  0  0  0  0  0  0  0  0
  185.0020  179.3940  143.7210 C   0  0  0  0  0  0  0  0  0  0  0  0
  184.9890  178.9710  145.7890 C   0  0  0  0  0  0  0  0  0  0  0  0
  1 30  1  0  0  0  0
  2 15  1  0  0  0  0
  3  2  1  0  0  0  0
  3 10  1  0  0  0  0
  4 13  1  0  0  0  0
  4 16  2  0  0  0  0
  5  8  1  0  0  0  0
  5  7  1  0  0  0  0
  6  4  1  0  0  0  0
  8 26  1  0  0  0  0
  9 11  2  0  0  0  0
 10  1  1  0  0  0  0
 10  5  2  0  0  0  0
 11 13  1  0  0  0  0
 12 17  1  0  0  0  0
 13  3  2  0  0  0  0
 14  1  2  0  0  0  0
 15  8  2  0  0  0  0
 16 14  1  0  0  0  0
 17  9  1  0  0  0  0
 17  6  2  0  0  0  0
 18 29  2  0  0  0  0
 18 23  1  0  0  0  0
 22 19  2  0  0  0  0
 22 24  2  0  0  0  0
 22 20  1  0  0  0  0
 23 27  1  0  0  0  0
 25 18  1  0  0  0  0
 26 25  1  0  0  0  0
 26 28  2  0  0  0  0
 27 21  1  6  0  0  0
 27 20  1  0  0  0  0
 28 29  1  0  0  0  0
 29 22  1  0  0  0  0
 30 35  1  0  0  0  0
 32 36  2  0  0  0  0
 33 32  1  0  0  0  0
 34 36  1  0  0  0  0
 35 33  2  0  0  0  0
 35 34  1  0  0  0  0
 36 31  1  0  0  0  0
M  END
>  <MODEL>
5

>  <REMARK>
 VINA RESULT:      -8.5      4.349      7.489
  Name = 
  3 active torsions:
  status: ('A' for Active; 'I' for Inactive)
    1  A    between atoms: C_1  and  N_30
    2  A    between atoms: C_18  and  C_29
    3  A    between atoms: N_30  and  C_32
                            x       y       z     vdW  Elec       q    Type
                         _______ _______ _______ _____ _____    ______ ____

>  <TORSDO>
F 3

$$$$
=
 OpenBabel10232411283D

 36 41  0  0  1  0  0  0  0  0999 V2000
  189.7160  177.7990  142.9580 C   0  0  0  0  0  0  0  0  0  0  0  0
  187.9660  178.5700  145.9660 C   0  0  0  0  0  3  0  0  0  0  0  0
  188.9870  177.7100  145.3280 C   0  0  0  0  0  0  0  0  0  0  0  0
  191.1780  176.5850  145.4570 C   0  0  0  0  0  0  0  0  0  0  0  0
  187.2920  177.3770  143.4560 C   0  0  0  0  0  0  0  0  0  0  0  0
  192.0820  175.9290  146.3000 C   0  0  0  0  0  3  0  0  0  0  0  0
  186.9200  176.6710  142.3170 O   0  0  0  0  0  1  0  0  0  0  0  0
  186.4050  178.1620  144.1080 C   0  0  0  0  0  0  0  0  0  0  0  0
  190.9250  176.7190  148.2210 N   0  0  0  0  0  0  0  0  0  0  0  0
  188.7250  177.2330  143.9230 C   0  0  1  0  0  3  0  0  0  0  0  0
  190.0000  177.3340  147.4420 C   0  0  0  0  0  3  0  0  0  0  0  0
  193.0820  175.1820  148.7230 Cl  0  0  0  0  0  0  0  0  0  0  0  0
  190.0490  177.2490  146.0360 C   0  0  0  0  0  0  0  0  0  0  0  0
  190.9940  177.4480  143.0680 C   0  0  0  0  0  3  0  0  0  0  0  0
  186.7870  178.7880  145.3910 C   0  0  0  0  0  3  0  0  0  0  0  0
  191.5790  176.6700  144.1760 C   0  0  0  0  0  3  0  0  0  0  0  0
  191.9300  175.9890  147.6810 C   0  0  0  0  0  0  0  0  0  0  0  0
  182.5860  178.7880  143.2700 C   0  0  0  0  0  0  0  0  0  0  0  0
  183.2180  179.4720  139.5960 O   0  0  0  0  0  0  0  0  0  0  0  0
  180.8580  179.3470  140.8940 C   0  0  0  0  0  2  0  0  0  0  0  0
  179.9820  177.4790  142.1290 O   0  0  0  0  0  1  0  0  0  0  0  0
  182.4540  178.6090  140.5610 S   0  0  0  0  0  0  0  0  0  0  0  0
  181.1870  179.0770  143.3460 N   0  0  0  0  0  2  0  0  0  0  0  0
  182.2820  177.2270  139.9980 O   0  0  0  0  0  0  0  0  0  0  0  0
  183.6520  178.7440  144.5600 S   0  0  0  0  0  0  0  0  0  0  0  0
  185.0230  178.4000  143.6190 C   0  0  0  0  0  0  0  0  0  0  0  0
  180.2790  178.8400  142.2210 C   0  0  1  0  0  3  0  0  0  0  0  0
  184.6400  178.3180  142.2770 C   0  0  0  0  0  3  0  0  0  0  0  0
  183.2710  178.5440  142.1000 C   0  0  0  0  0  0  0  0  0  0  0  0
  189.2670  178.6450  141.8840 N   0  0  0  0  0  2  0  0  0  0  0  0
  186.7850  178.0770  137.7590 C   0  0  0  0  0  1  0  0  0  0  0  0
  189.1600  177.5040  138.4700 C   0  0  0  0  0  3  0  0  0  0  0  0
  189.8760  177.6630  139.6480 C   0  0  0  0  0  3  0  0  0  0  0  0
  187.8330  178.4720  139.9580 O   0  0  0  0  0  0  0  0  0  0  0  0
  188.9930  178.2680  140.5260 C   0  0  0  0  0  0  0  0  0  0  0  0
  187.9090  178.0240  138.7310 C   0  0  0  0  0  0  0  0  0  0  0  0
  1 14  2  0  0  0  0
  3  2  1  0  0  0  0
  3 13  2  0  0  0  0
  4 13  1  0  0  0  0
  4  6  1  0  0  0  0
  5 10  1  0  0  0  0
  5  8  2  0  0  0  0
  6 17  2  0  0  0  0
  7  5  1  0  0  0  0
  8 15  1  0  0  0  0
 10  1  1  6  0  0  0
 10  3  1  0  0  0  0
 11  9  2  0  0  0  0
 13 11  1  0  0  0  0
 14 16  1  0  0  0  0
 15  2  2  0  0  0  0
 16  4  2  0  0  0  0
 17  9  1  0  0  0  0
 17 12  1  0  0  0  0
 18 23  1  0  0  0  0
 18 25  1  0  0  0  0
 19 22  2  0  0  0  0
 20 27  1  0  0  0  0
 22 20  1  0  0  0  0
 22 29  1  0  0  0  0
 24 22  2  0  0  0  0
 26  8  1  0  0  0  0
 26 25  1  0  0  0  0
 27 21  1  6  0  0  0
 27 23  1  0  0  0  0
 28 26  2  0  0  0  0
 29 28  1  0  0  0  0
 29 18  2  0  0  0  0
 30  1  1  0  0  0  0
 31 36  1  0  0  0  0
 32 36  2  0  0  0  0
 32 33  1  0  0  0  0
 33 35  2  0  0  0  0
 34 35  1  0  0  0  0
 35 30  1  0  0  0  0
 36 34  1  0  0  0  0
M  END
>  <MODEL>
6

>  <REMARK>
 VINA RESULT:      -8.5      4.441      8.618
  Name = 
  3 active torsions:
  status: ('A' for Active; 'I' for Inactive)
    1  A    between atoms: C_1  and  N_30
    2  A    between atoms: C_18  and  C_29
    3  A    between atoms: N_30  and  C_32
                            x       y       z     vdW  Elec       q    Type
                         _______ _______ _______ _____ _____    ______ ____

>  <TORSDO>
F 3

$$$$
=
 OpenBabel10232411283D

 36 41  0  0  1  0  0  0  0  0999 V2000
  185.5910  178.0430  143.2470 C   0  0  0  0  0  0  0  0  0  0  0  0
  188.7290  176.3550  143.3490 C   0  0  0  0  0  3  0  0  0  0  0  0
  187.8480  177.3450  144.0070 C   0  0  0  0  0  0  0  0  0  0  0  0
  186.9090  178.2820  146.0870 C   0  0  0  0  0  0  0  0  0  0  0  0
  187.5360  178.3550  141.6890 C   0  0  0  0  0  0  0  0  0  0  0  0
  187.1680  178.5790  147.4290 C   0  0  0  0  0  3  0  0  0  0  0  0
  187.0750  179.4190  140.9220 O   0  0  0  0  0  1  0  0  0  0  0  0
  188.3660  177.4260  141.1640 C   0  0  0  0  0  0  0  0  0  0  0  0
  189.1200  177.2220  147.3940 N   0  0  0  0  0  0  0  0  0  0  0  0
  187.0620  178.2810  143.1260 C   0  0  0  0  0  0  0  0  0  0  0  0
  188.9320  176.9420  146.0800 C   0  0  0  0  0  3  0  0  0  0  0  0
  188.5880  178.4210  149.7500 Cl  0  0  0  0  0  0  0  0  0  0  0  0
  187.8600  177.5000  145.3550 C   0  0  0  0  0  0  0  0  0  0  0  0
  184.9930  178.2920  144.4090 C   0  0  0  0  0  2  0  0  0  0  0  0
  188.9490  176.3870  142.0380 C   0  0  0  0  0  3  0  0  0  0  0  0
  185.6760  178.6250  145.6730 C   0  0  0  0  0  3  0  0  0  0  0  0
  188.2900  178.0570  148.0640 C   0  0  0  0  0  0  0  0  0  0  0  0
  189.3400  177.8770  137.3530 C   0  0  0  0  0  0  0  0  0  0  0  0
  190.7480  174.3740  137.0110 O   0  0  0  0  0  0  0  0  0  0  0  0
  190.4690  176.2600  135.1040 C   0  0  0  0  0  2  0  0  0  0  0  0
  188.4290  177.3260  134.4100 O   0  0  0  0  0  1  0  0  0  0  0  0
  189.7410  175.3420  136.4560 S   0  0  0  0  0  0  0  0  0  0  0  0
  189.6740  178.4120  136.0690 N   0  0  0  0  0  2  0  0  0  0  0  0
  188.5180  174.6070  135.9880 O   0  0  0  0  0  0  0  0  0  0  0  0
  188.9750  178.7650  138.7230 S   0  0  0  0  0  0  0  0  0  0  0  0
  188.7680  177.4170  139.7340 C   0  0  0  0  0  0  0  0  0  0  0  0
  189.7240  177.5790  134.8650 C   0  0  1  0  0  3  0  0  0  0  0  0
  188.9890  176.2550  138.9880 C   0  0  0  0  0  3  0  0  0  0  0  0
  189.3140  176.5330  137.6560 C   0  0  0  0  0  0  0  0  0  0  0  0
  184.8350  177.6300  142.0940 N   0  0  0  0  0  2  0  0  0  0  0  0
  182.1690  179.9370  138.7680 C   0  0  0  0  0  1  0  0  0  0  0  0
  181.7180  179.1670  141.1510 C   0  0  0  0  0  3  0  0  0  0  0  0
  182.4760  178.5080  142.1070 C   0  0  0  0  0  3  0  0  0  0  0  0
  183.7190  178.7620  140.2870 O   0  0  0  0  0  0  0  0  0  0  0  0
  183.7030  178.2880  141.5060 C   0  0  0  0  0  0  0  0  0  0  0  0
  182.5450  179.2910  140.0530 C   0  0  0  0  0  0  0  0  0  0  0  0
  1 14  1  0  0  0  0
  2  3  1  0  0  0  0
  3 13  2  0  0  0  0
  4  6  1  0  0  0  0
  5 10  1  0  0  0  0
  6 17  2  0  0  0  0
  7  5  1  0  0  0  0
  8  5  2  0  0  0  0
  8 15  1  0  0  0  0
  9 17  1  0  0  0  0
 10  1  2  0  0  0  0
 10  3  1  0  0  0  0
 11  9  2  0  0  0  0
 13 11  1  0  0  0  0
 13  4  1  0  0  0  0
 14 16  1  0  0  0  0
 15  2  2  0  0  0  0
 16  4  2  0  0  0  0
 17 12  1  0  0  0  0
 18 29  2  0  0  0  0
 18 25  1  0  0  0  0
 20 22  1  0  0  0  0
 22 19  2  0  0  0  0
 22 29  1  0  0  0  0
 23 18  1  0  0  0  0
 24 22  2  0  0  0  0
 25 26  1  0  0  0  0
 26  8  1  0  0  0  0
 27 21  1  1  0  0  0
 27 20  1  0  0  0  0
 27 23  1  0  0  0  0
 28 26  2  0  0  0  0
 29 28  1  0  0  0  0
 30  1  1  0  0  0  0
 31 36  1  0  0  0  0
 32 33  1  0  0  0  0
 34 35  1  0  0  0  0
 35 30  1  0  0  0  0
 35 33  2  0  0  0  0
 36 34  1  0  0  0  0
 36 32  2  0  0  0  0
M  END
>  <MODEL>
7

>  <REMARK>
 VINA RESULT:      -8.0      3.159      5.950
  Name = 
  3 active torsions:
  status: ('A' for Active; 'I' for Inactive)
    1  A    between atoms: C_1  and  N_30
    2  A    between atoms: C_18  and  C_29
    3  A    between atoms: N_30  and  C_32
                            x       y       z     vdW  Elec       q    Type
                         _______ _______ _______ _____ _____    ______ ____

>  <TORSDO>
F 3

$$$$
=
 OpenBabel10232411283D

 36 41  0  0  1  0  0  0  0  0999 V2000
  189.4520  177.4150  139.5670 C   0  0  0  0  0  0  0  0  0  0  0  0
  188.7220  174.7420  137.3250 C   0  0  0  0  0  3  0  0  0  0  0  0
  189.7340  175.7240  137.7730 C   0  0  0  0  0  0  0  0  0  0  0  0
  192.0830  176.2300  138.3290 C   0  0  0  0  0  0  0  0  0  0  0  0
  187.8730  177.4580  137.6140 C   0  0  0  0  0  0  0  0  0  0  0  0
  193.4180  175.9670  138.0090 C   0  0  0  0  0  3  0  0  0  0  0  0
  187.5140  178.8010  137.6110 O   0  0  0  0  0  1  0  0  0  0  0  0
  187.0110  176.5050  137.1930 C   0  0  0  0  0  0  0  0  0  0  0  0
  192.7790  174.0670  136.7290 N   0  0  0  0  0  0  0  0  0  0  0  0
  189.2600  177.1130  138.1150 C   0  0  0  0  0  0  0  0  0  0  0  0
  191.4670  174.3110  136.9780 C   0  0  0  0  0  3  0  0  0  0  0  0
  195.4280  174.5620  136.8160 Cl  0  0  0  0  0  0  0  0  0  0  0  0
  191.0570  175.4270  137.7350 C   0  0  0  0  0  0  0  0  0  0  0  0
  190.6880  177.4860  140.0510 C   0  0  0  0  0  2  0  0  0  0  0  0
  187.4670  175.1040  137.0770 C   0  0  0  0  0  3  0  0  0  0  0  0
  191.9190  177.1200  139.3240 C   0  0  0  0  0  3  0  0  0  0  0  0
  193.7490  174.8920  137.1900 C   0  0  0  0  0  0  0  0  0  0  0  0
  183.4520  177.3280  135.6650 C   0  0  0  0  0  0  0  0  0  0  0  0
  181.5990  176.6560  138.9030 O   0  0  0  0  0  0  0  0  0  0  0  0
  180.6070  177.5470  136.5600 C   0  0  0  0  0  2  0  0  0  0  0  0
  181.2540  179.5370  135.3760 O   0  0  0  0  0  1  0  0  0  0  0  0
  181.8540  177.6820  137.8350 S   0  0  0  0  0  0  0  0  0  0  0  0
  182.3490  177.5530  134.7830 N   0  0  0  0  0  2  0  0  0  0  0  0
  181.8440  179.0620  138.4290 O   0  0  0  0  0  0  0  0  0  0  0  0
  185.0090  176.9210  135.2080 S   0  0  0  0  0  0  0  0  0  0  0  0
  185.6130  176.8020  136.7900 C   0  0  0  0  0  0  0  0  0  0  0  0
  181.0940  178.1570  135.2400 C   0  0  1  0  0  3  0  0  0  0  0  0
  184.5790  177.0850  137.6890 C   0  0  0  0  0  3  0  0  0  0  0  0
  183.3740  177.3720  137.0400 C   0  0  0  0  0  0  0  0  0  0  0  0
  188.3100  177.7030  140.3950 N   0  0  0  0  0  2  0  0  0  0  0  0
  186.4170  177.8470  144.8540 C   0  0  0  0  0  1  0  0  0  0  0  0
  188.3460  176.5580  143.8090 C   0  0  0  0  0  3  0  0  0  0  0  0
  188.8930  176.5130  142.5340 C   0  0  0  0  0  3  0  0  0  0  0  0
  187.2020  177.9500  142.5170 O   0  0  0  0  0  0  0  0  0  0  0  0
  188.1370  177.3990  141.7860 C   0  0  0  0  0  0  0  0  0  0  0  0
  187.3080  177.4640  143.7270 C   0  0  0  0  0  0  0  0  0  0  0  0
  1 14  1  0  0  0  0
  1 30  1  0  0  0  0
  2  3  1  0  0  0  0
  3 10  1  0  0  0  0
  4 16  2  0  0  0  0
  5 10  1  0  0  0  0
  6  4  1  0  0  0  0
  7  5  1  0  0  0  0
  8  5  2  0  0  0  0
  9 11  2  0  0  0  0
  9 17  1  0  0  0  0
 10  1  2  0  0  0  0
 11 13  1  0  0  0  0
 12 17  1  0  0  0  0
 13  3  2  0  0  0  0
 13  4  1  0  0  0  0
 15  8  1  0  0  0  0
 15  2  2  0  0  0  0
 16 14  1  0  0  0  0
 17  6  2  0  0  0  0
 18 29  2  0  0  0  0
 20 22  1  0  0  0  0
 22 24  2  0  0  0  0
 22 19  2  0  0  0  0
 23 27  1  0  0  0  0
 23 18  1  0  0  0  0
 25 18  1  0  0  0  0
 25 26  1  0  0  0  0
 26  8  1  0  0  0  0
 26 28  2  0  0  0  0
 27 21  1  1  0  0  0
 27 20  1  0  0  0  0
 29 28  1  0  0  0  0
 29 22  1  0  0  0  0
 30 35  1  0  0  0  0
 33 32  1  0  0  0  0
 34 36  1  0  0  0  0
 35 34  1  0  0  0  0
 35 33  2  0  0  0  0
 36 32  2  0  0  0  0
 36 31  1  0  0  0  0
M  END
>  <MODEL>
8

>  <REMARK>
 VINA RESULT:      -7.8      5.639      8.767
  Name = 
  3 active torsions:
  status: ('A' for Active; 'I' for Inactive)
    1  A    between atoms: C_1  and  N_30
    2  A    between atoms: C_18  and  C_29
    3  A    between atoms: N_30  and  C_32
                            x       y       z     vdW  Elec       q    Type
                         _______ _______ _______ _____ _____    ______ ____

>  <TORSDO>
F 3

$$$$
=
 OpenBabel10232411283D

 36 41  0  0  1  0  0  0  0  0999 V2000
  189.7110  177.9300  142.5760 C   0  0  0  0  0  0  0  0  0  0  0  0
  187.6480  178.4980  145.4260 C   0  0  0  0  0  3  0  0  0  0  0  0
  188.7820  177.7300  144.8680 C   0  0  0  0  0  0  0  0  0  0  0  0
  191.0300  176.7610  145.1740 C   0  0  0  0  0  0  0  0  0  0  0  0
  187.2900  177.3220  142.8430 C   0  0  0  0  0  0  0  0  0  0  0  0
  191.9010  176.1510  146.0820 C   0  0  0  0  0  3  0  0  0  0  0  0
  187.0740  176.6210  141.6620 O   0  0  0  0  0  1  0  0  0  0  0  0
  186.2930  178.0250  143.4270 C   0  0  0  0  0  0  0  0  0  0  0  0
  190.5230  176.8080  147.9050 N   0  0  0  0  0  0  0  0  0  0  0  0
  188.6820  177.2700  143.4360 C   0  0  1  0  0  3  0  0  0  0  0  0
  189.6280  177.3740  147.0570 C   0  0  0  0  0  3  0  0  0  0  0  0
  192.7340  175.4170  148.5720 Cl  0  0  0  0  0  0  0  0  0  0  0  0
  189.8080  177.3280  145.6600 C   0  0  0  0  0  0  0  0  0  0  0  0
  190.9960  177.6690  142.7940 C   0  0  0  0  0  3  0  0  0  0  0  0
  186.5120  178.6450  144.7510 C   0  0  0  0  0  3  0  0  0  0  0  0
  191.5360  176.9070  143.9360 C   0  0  0  0  0  3  0  0  0  0  0  0
  191.6230  176.1660  147.4450 C   0  0  0  0  0  0  0  0  0  0  0  0
  182.9260  178.4070  141.3780 C   0  0  0  0  0  0  0  0  0  0  0  0
  180.7040  178.0490  144.4280 O   0  0  0  0  0  0  0  0  0  0  0  0
  179.9820  178.5580  141.8800 C   0  0  0  0  0  2  0  0  0  0  0  0
  180.6820  180.4130  140.5190 O   0  0  0  0  0  1  0  0  0  0  0  0
  181.0460  178.9400  143.2670 S   0  0  0  0  0  0  0  0  0  0  0  0
  181.9380  178.4430  140.3450 N   0  0  0  0  0  2  0  0  0  0  0  0
  180.8940  180.3830  143.6580 O   0  0  0  0  0  0  0  0  0  0  0  0
  184.5480  178.0450  141.1740 S   0  0  0  0  0  0  0  0  0  0  0  0
  184.9460  178.1750  142.8190 C   0  0  0  0  0  0  0  0  0  0  0  0
  180.6070  179.0190  140.5570 C   0  0  1  0  0  3  0  0  0  0  0  0
  183.7930  178.5060  143.5380 C   0  0  0  0  0  3  0  0  0  0  0  0
  182.6700  178.6270  142.7140 C   0  0  0  0  0  0  0  0  0  0  0  0
  189.2980  178.7680  141.4800 N   0  0  0  0  0  2  0  0  0  0  0  0
  187.4900  178.5240  136.9900 C   0  0  0  0  0  1  0  0  0  0  0  0
  189.5890  177.5960  138.0880 C   0  0  0  0  0  3  0  0  0  0  0  0
  190.1120  177.6620  139.3710 C   0  0  0  0  0  3  0  0  0  0  0  0
  188.2010  178.7890  139.3390 O   0  0  0  0  0  0  0  0  0  0  0  0
  189.2010  178.4140  140.0930 C   0  0  0  0  0  0  0  0  0  0  0  0
  188.4110  178.3120  138.1380 C   0  0  0  0  0  0  0  0  0  0  0  0
  1 14  2  0  0  0  0
  3  2  1  0  0  0  0
  3 13  2  0  0  0  0
  4 13  1  0  0  0  0
  4  6  1  0  0  0  0
  5  8  2  0  0  0  0
  5 10  1  0  0  0  0
  6 17  2  0  0  0  0
  7  5  1  0  0  0  0
  8 15  1  0  0  0  0
 10  1  1  6  0  0  0
 10  3  1  0  0  0  0
 11  9  2  0  0  0  0
 13 11  1  0  0  0  0
 14 16  1  0  0  0  0
 15  2  2  0  0  0  0
 16  4  2  0  0  0  0
 17  9  1  0  0  0  0
 17 12  1  0  0  0  0
 18 29  2  0  0  0  0
 20 22  1  0  0  0  0
 22 24  2  0  0  0  0
 22 19  2  0  0  0  0
 23 27  1  0  0  0  0
 23 18  1  0  0  0  0
 25 18  1  0  0  0  0
 25 26  1  0  0  0  0
 26  8  1  0  0  0  0
 26 28  2  0  0  0  0
 27 21  1  1  0  0  0
 27 20  1  0  0  0  0
 29 22  1  0  0  0  0
 29 28  1  0  0  0  0
 30  1  1  0  0  0  0
 31 36  1  0  0  0  0
 32 36  2  0  0  0  0
 32 33  1  0  0  0  0
 33 35  2  0  0  0  0
 34 35  1  0  0  0  0
 35 30  1  0  0  0  0
 36 34  1  0  0  0  0
M  END
>  <MODEL>
9

>  <REMARK>
 VINA RESULT:      -7.6      4.704      8.800
  Name = 
  3 active torsions:
  status: ('A' for Active; 'I' for Inactive)
    1  A    between atoms: C_1  and  N_30
    2  A    between atoms: C_18  and  C_29
    3  A    between atoms: N_30  and  C_32
                            x       y       z     vdW  Elec       q    Type
                         _______ _______ _______ _____ _____    ______ ____

>  <TORSDO>
F 3

$$$$
