=
 OpenBabel10232411153D

 33 36  0  0  1  0  0  0  0  0999 V2000
  187.2140  178.1130  143.6840 C   0  0  0  0  0  0  0  0  0  0  0  0
  188.4860  176.9530  146.7500 C   0  0  0  0  0  3  0  0  0  0  0  0
  188.8950  177.9460  141.9700 N   0  0  0  0  0  0  0  0  0  0  0  0
  189.5890  176.3860  147.3930 C   0  0  0  0  0  3  0  0  0  0  0  0
  189.9540  177.9550  145.0860 C   0  0  0  0  0  0  0  0  0  0  0  0
  188.6500  177.7070  145.5830 C   0  0  0  0  0  0  0  0  0  0  0  0
  187.4780  178.2420  144.9490 N   0  0  0  0  0  0  0  0  0  0  0  0
  191.4310  179.6720  143.9770 C   0  0  0  0  0  1  0  0  0  0  0  0
  188.0340  177.3380  142.8580 O   0  0  0  0  0  0  0  0  0  0  0  0
  190.8710  176.5770  146.8750 C   0  0  0  0  0  0  0  0  0  0  0  0
  190.2100  177.9910  142.6010 C   0  0  0  0  0  2  0  0  0  0  0  0
  191.0530  177.3610  145.7310 C   0  0  0  0  0  3  0  0  0  0  0  0
  190.1730  178.8280  143.8720 C   0  0  1  0  0  3  0  0  0  0  0  0
  192.9180  175.5030  148.0560 N   0  0  0  0  0  0  0  0  0  0  0  0
  192.0040  175.9830  147.5300 C   0  0  0  0  0  0  0  0  0  0  0  0
  189.0200  177.0440  140.8380 C   0  0  0  0  0  2  0  0  0  0  0  0
  188.9190  177.8140  139.5360 C   0  0  0  0  0  2  0  0  0  0  0  0
  188.3110  177.7020  137.1380 C   0  0  0  0  0  2  0  0  0  0  0  0
  188.3540  176.9250  138.4350 C   0  0  2  0  0  3  0  0  0  0  0  0
  187.0170  177.4090  137.8690 C   0  0  1  0  0  3  0  0  0  0  0  0
  186.5550  178.5910  138.5160 O   0  0  0  0  0  0  0  0  0  0  0  0
  185.0100  179.6000  139.8740 O   0  0  0  0  0  0  0  0  0  0  0  0
  185.2740  178.6730  139.0640 C   0  0  0  0  0  0  0  0  0  0  0  0
  184.2670  177.7170  138.7060 N   0  0  0  0  0  2  0  0  0  0  0  0
  182.4960  176.3250  139.6350 C   0  0  0  0  0  1  0  0  0  0  0  0
  182.9180  177.7350  139.2510 C   0  0  2  0  0  3  0  0  0  0  0  0
  181.5450  179.5580  138.5580 O   0  0  0  0  0  1  0  0  0  0  0  0
  181.9660  178.2760  138.2000 C   0  0  0  0  0  2  0  0  0  0  0  0
  186.0200  178.7920  143.1140 C   0  0  0  0  0  2  0  0  0  0  0  0
  184.7580  178.0130  143.4310 C   0  0  2  0  0  3  0  0  0  0  0  0
  183.6430  178.7060  142.9610 N   0  0  0  0  0  2  0  0  0  0  0  0
  184.0720  178.6840  144.4300 C   0  0  0  0  0  0  0  0  0  0  0  0
  183.9290  179.0530  145.6570 N   0  0  0  0  0  2  0  0  0  0  0  0
  1  7  2  0  0  0  0
  2  4  1  0  0  0  0
  3 11  1  0  0  0  0
  3  9  1  0  0  0  0
  5  6  1  0  0  0  0
  5 12  2  0  0  0  0
  6  2  2  0  0  0  0
  7  6  1  0  0  0  0
  9  1  1  0  0  0  0
 10  4  2  0  0  0  0
 10 15  1  0  0  0  0
 11 13  1  0  0  0  0
 12 10  1  0  0  0  0
 13  8  1  1  0  0  0
 13  5  1  0  0  0  0
 15 14  3  0  0  0  0
 16  3  1  0  0  0  0
 17 16  1  0  0  0  0
 18 20  1  0  0  0  0
 18 19  1  0  0  0  0
 19 17  1  1  0  0  0
 20 19  1  0  0  0  0
 20 21  1  1  0  0  0
 21 23  1  0  0  0  0
 23 22  2  0  0  0  0
 24 23  1  0  0  0  0
 24 26  1  0  0  0  0
 26 25  1  6  0  0  0
 28 27  1  0  0  0  0
 28 26  1  0  0  0  0
 29  1  1  0  0  0  0
 30 29  1  6  0  0  0
 30 32  1  0  0  0  0
 31 30  1  0  0  0  0
 31 32  1  0  0  0  0
 32 33  2  0  0  0  0
M  END
>  <MODEL>
1

>  <REMARK>
 VINA RESULT:      -7.9      0.000      0.000
  Name = 
  10 active torsions:
  status: ('A' for Active; 'I' for Inactive)
    1  A    between atoms: C_3  and  C_23
    2  A    between atoms: C_5  and  C_23
    3  A    between atoms: O_6  and  C_12
    4  A    between atoms: O_6  and  C_30
    5  A    between atoms: C_10  and  C_22
    6  A    between atoms: C_13  and  C_29
    7  A    between atoms: N_14  and  C_20
    8  A    between atoms: CA_16  and  C_26
    9  A    between atoms: CA_16  and  N_27
   10  A    between atoms: C_20  and  C_22
                            x       y       z     vdW  Elec       q    Type
                         _______ _______ _______ _____ _____    ______ ____

>  <TORSDO>
F 10

$$$$
=
 OpenBabel10232411153D

 33 36  0  0  1  0  0  0  0  0999 V2000
  187.2400  178.0500  143.7700 C   0  0  0  0  0  0  0  0  0  0  0  0
  188.5160  176.9750  146.8650 C   0  0  0  0  0  3  0  0  0  0  0  0
  188.9060  177.8010  142.0520 N   0  0  0  0  0  0  0  0  0  0  0  0
  189.6160  176.4140  147.5190 C   0  0  0  0  0  3  0  0  0  0  0  0
  189.9870  177.8990  145.1590 C   0  0  0  0  0  0  0  0  0  0  0  0
  188.6830  177.6870  145.6720 C   0  0  0  0  0  0  0  0  0  0  0  0
  187.5150  178.2180  145.0280 N   0  0  0  0  0  0  0  0  0  0  0  0
  191.4810  179.5570  143.9830 C   0  0  0  0  0  1  0  0  0  0  0  0
  188.0420  177.2360  142.9650 O   0  0  0  0  0  0  0  0  0  0  0  0
  190.8970  176.5690  146.9870 C   0  0  0  0  0  0  0  0  0  0  0  0
  190.2260  177.8480  142.6720 C   0  0  0  0  0  2  0  0  0  0  0  0
  191.0820  177.3110  145.8160 C   0  0  0  0  0  3  0  0  0  0  0  0
  190.2100  178.7280  143.9150 C   0  0  1  0  0  3  0  0  0  0  0  0
  192.9380  175.5100  148.1910 N   0  0  0  0  0  0  0  0  0  0  0  0
  192.0250  175.9810  147.6550 C   0  0  0  0  0  0  0  0  0  0  0  0
  189.0100  176.8600  140.9500 C   0  0  0  0  0  2  0  0  0  0  0  0
  190.3070  177.0740  140.1940 C   0  0  0  0  0  2  0  0  0  0  0  0
  189.2620  176.6550  137.9890 C   0  0  0  0  0  2  0  0  0  0  0  0
  190.0280  177.6630  138.8170 C   0  0  2  0  0  3  0  0  0  0  0  0
  190.7190  176.9210  137.6690 C   0  0  1  0  0  3  0  0  0  0  0  0
  191.5150  175.8350  138.1340 O   0  0  0  0  0  0  0  0  0  0  0  0
  193.5430  176.8510  137.8180 O   0  0  0  0  0  0  0  0  0  0  0  0
  192.8890  175.7790  137.8940 C   0  0  0  0  0  0  0  0  0  0  0  0
  193.5500  174.5150  137.7410 N   0  0  0  0  0  2  0  0  0  0  0  0
  195.1970  173.4440  136.3000 C   0  0  0  0  0  1  0  0  0  0  0  0
  194.9740  174.3850  137.4730 C   0  0  2  0  0  3  0  0  0  0  0  0
  195.3150  172.4820  138.8700 O   0  0  0  0  0  1  0  0  0  0  0  0
  195.6610  173.8250  138.7060 C   0  0  0  0  0  2  0  0  0  0  0  0
  186.0510  178.7270  143.1850 C   0  0  0  0  0  2  0  0  0  0  0  0
  184.7780  177.9970  143.5650 C   0  0  2  0  0  3  0  0  0  0  0  0
  183.6690  178.7510  143.1840 N   0  0  0  0  0  2  0  0  0  0  0  0
  184.1880  178.6710  144.6210 C   0  0  0  0  0  0  0  0  0  0  0  0
  184.1410  179.0140  145.8640 N   0  0  0  0  0  2  0  0  0  0  0  0
  1  7  2  0  0  0  0
  2  4  1  0  0  0  0
  3 11  1  0  0  0  0
  3  9  1  0  0  0  0
  5  6  1  0  0  0  0
  5 12  2  0  0  0  0
  6  2  2  0  0  0  0
  7  6  1  0  0  0  0
  9  1  1  0  0  0  0
 10  4  2  0  0  0  0
 10 15  1  0  0  0  0
 11 13  1  0  0  0  0
 12 10  1  0  0  0  0
 13  8  1  1  0  0  0
 13  5  1  0  0  0  0
 15 14  3  0  0  0  0
 16  3  1  0  0  0  0
 17 16  1  0  0  0  0
 18 19  1  0  0  0  0
 19 17  1  1  0  0  0
 20 18  1  0  0  0  0
 20 21  1  1  0  0  0
 20 19  1  0  0  0  0
 22 23  2  0  0  0  0
 23 21  1  0  0  0  0
 24 23  1  0  0  0  0
 26 25  1  6  0  0  0
 26 24  1  0  0  0  0
 26 28  1  0  0  0  0
 28 27  1  0  0  0  0
 29  1  1  0  0  0  0
 30 29  1  6  0  0  0
 30 32  1  0  0  0  0
 31 30  1  0  0  0  0
 31 32  1  0  0  0  0
 32 33  2  0  0  0  0
M  END
>  <MODEL>
2

>  <REMARK>
 VINA RESULT:      -7.8      3.635      5.756
  Name = 
  10 active torsions:
  status: ('A' for Active; 'I' for Inactive)
    1  A    between atoms: C_3  and  C_23
    2  A    between atoms: C_5  and  C_23
    3  A    between atoms: O_6  and  C_12
    4  A    between atoms: O_6  and  C_30
    5  A    between atoms: C_10  and  C_22
    6  A    between atoms: C_13  and  C_29
    7  A    between atoms: N_14  and  C_20
    8  A    between atoms: CA_16  and  C_26
    9  A    between atoms: CA_16  and  N_27
   10  A    between atoms: C_20  and  C_22
                            x       y       z     vdW  Elec       q    Type
                         _______ _______ _______ _____ _____    ______ ____

>  <TORSDO>
F 10

$$$$
=
 OpenBabel10232411153D

 33 36  0  0  1  0  0  0  0  0999 V2000
  189.4380  177.7440  146.9970 C   0  0  0  0  0  0  0  0  0  0  0  0
  186.0080  178.5100  147.0830 C   0  0  0  0  0  3  0  0  0  0  0  0
  190.2710  177.9100  144.7460 N   0  0  0  0  0  0  0  0  0  0  0  0
  184.9040  178.9170  146.3290 C   0  0  0  0  0  3  0  0  0  0  0  0
  187.0210  177.5320  145.0970 C   0  0  0  0  0  0  0  0  0  0  0  0
  187.0830  177.8500  146.4770 C   0  0  0  0  0  0  0  0  0  0  0  0
  188.2020  177.4800  147.2950 N   0  0  0  0  0  0  0  0  0  0  0  0
  187.6130  175.7940  143.3680 C   0  0  0  0  0  1  0  0  0  0  0  0
  189.7540  178.5120  145.8730 O   0  0  0  0  0  0  0  0  0  0  0  0
  184.8650  178.6590  144.9580 C   0  0  0  0  0  0  0  0  0  0  0  0
  189.1640  177.6930  143.8210 C   0  0  0  0  0  2  0  0  0  0  0  0
  185.9140  177.9660  144.3460 C   0  0  0  0  0  3  0  0  0  0  0  0
  188.1290  176.7540  144.4270 C   0  0  1  0  0  3  0  0  0  0  0  0
  182.8240  179.4390  143.5550 N   0  0  0  0  0  0  0  0  0  0  0  0
  183.7340  179.0890  144.1810 C   0  0  0  0  0  0  0  0  0  0  0  0
  191.1360  178.8950  144.1160 C   0  0  0  0  0  2  0  0  0  0  0  0
  191.0350  178.7960  142.6060 C   0  0  0  0  0  2  0  0  0  0  0  0
  192.2490  177.6320  140.7890 C   0  0  0  0  0  2  0  0  0  0  0  0
  191.5650  177.4510  142.1260 C   0  0  2  0  0  3  0  0  0  0  0  0
  190.9010  176.9420  140.8440 C   0  0  1  0  0  3  0  0  0  0  0  0
  189.8900  177.8290  140.3730 O   0  0  0  0  0  0  0  0  0  0  0  0
  189.3080  176.4630  138.6290 O   0  0  0  0  0  0  0  0  0  0  0  0
  189.0430  177.4800  139.3210 C   0  0  0  0  0  0  0  0  0  0  0  0
  187.8780  178.2660  139.0330 N   0  0  0  0  0  2  0  0  0  0  0  0
  187.3670  178.7440  136.6990 C   0  0  0  0  0  1  0  0  0  0  0  0
  186.9620  177.9680  137.9430 C   0  0  2  0  0  3  0  0  0  0  0  0
  185.5860  178.9760  139.6100 O   0  0  0  0  0  1  0  0  0  0  0  0
  185.5570  178.3720  138.3520 C   0  0  0  0  0  2  0  0  0  0  0  0
  190.5260  177.2270  147.8690 C   0  0  0  0  0  2  0  0  0  0  0  0
  191.5590  176.4780  147.0520 C   0  0  2  0  0  3  0  0  0  0  0  0
  191.3920  175.1040  147.2210 N   0  0  0  0  0  2  0  0  0  0  0  0
  192.4810  175.9190  147.9210 C   0  0  0  0  0  0  0  0  0  0  0  0
  193.4740  176.0170  148.7400 N   0  0  0  0  0  2  0  0  0  0  0  0
  1  7  2  0  0  0  0
  1 29  1  0  0  0  0
  3  9  1  0  0  0  0
  4  2  2  0  0  0  0
  5  6  2  0  0  0  0
  6  2  1  0  0  0  0
  6  7  1  0  0  0  0
  9  1  1  0  0  0  0
 10  4  1  0  0  0  0
 11 13  1  0  0  0  0
 11  3  1  0  0  0  0
 12 10  2  0  0  0  0
 12  5  1  0  0  0  0
 13  8  1  6  0  0  0
 13  5  1  0  0  0  0
 14 15  3  0  0  0  0
 15 10  1  0  0  0  0
 16  3  1  0  0  0  0
 17 16  1  0  0  0  0
 18 20  1  0  0  0  0
 18 19  1  0  0  0  0
 19 17  1  6  0  0  0
 20 21  1  6  0  0  0
 20 19  1  0  0  0  0
 22 23  2  0  0  0  0
 23 21  1  0  0  0  0
 24 23  1  0  0  0  0
 26 25  1  6  0  0  0
 26 28  1  0  0  0  0
 26 24  1  0  0  0  0
 28 27  1  0  0  0  0
 30 31  1  0  0  0  0
 30 29  1  1  0  0  0
 30 32  1  0  0  0  0
 31 32  1  0  0  0  0
 32 33  2  0  0  0  0
M  END
>  <MODEL>
3

>  <REMARK>
 VINA RESULT:      -7.2      2.017      5.793
  Name = 
  10 active torsions:
  status: ('A' for Active; 'I' for Inactive)
    1  A    between atoms: C_3  and  C_23
    2  A    between atoms: C_5  and  C_23
    3  A    between atoms: O_6  and  C_12
    4  A    between atoms: O_6  and  C_30
    5  A    between atoms: C_10  and  C_22
    6  A    between atoms: C_13  and  C_29
    7  A    between atoms: N_14  and  C_20
    8  A    between atoms: CA_16  and  C_26
    9  A    between atoms: CA_16  and  N_27
   10  A    between atoms: C_20  and  C_22
                            x       y       z     vdW  Elec       q    Type
                         _______ _______ _______ _____ _____    ______ ____

>  <TORSDO>
F 10

$$$$
=
 OpenBabel10232411153D

 33 36  0  0  1  0  0  0  0  0999 V2000
  187.0540  178.0290  144.0790 C   0  0  0  0  0  0  0  0  0  0  0  0
  188.5580  176.8700  147.0380 C   0  0  0  0  0  3  0  0  0  0  0  0
  188.6110  177.9000  142.2490 N   0  0  0  0  0  0  0  0  0  0  0  0
  189.7130  176.3170  147.5970 C   0  0  0  0  0  3  0  0  0  0  0  0
  189.8880  177.9060  145.2820 C   0  0  0  0  0  0  0  0  0  0  0  0
  188.6270  177.6340  145.8680 C   0  0  0  0  0  0  0  0  0  0  0  0
  187.4050  178.1540  145.3230 N   0  0  0  0  0  0  0  0  0  0  0  0
  191.2570  179.6530  144.0830 C   0  0  0  0  0  1  0  0  0  0  0  0
  187.8240  177.2720  143.1910 O   0  0  0  0  0  0  0  0  0  0  0  0
  190.9520  176.5320  146.9910 C   0  0  0  0  0  0  0  0  0  0  0  0
  189.9660  177.9610  142.7850 C   0  0  0  0  0  2  0  0  0  0  0  0
  191.0400  177.3250  145.8430 C   0  0  0  0  0  3  0  0  0  0  0  0
  190.0070  178.7900  144.0620 C   0  0  1  0  0  3  0  0  0  0  0  0
  193.0910  175.4820  148.0190 N   0  0  0  0  0  0  0  0  0  0  0  0
  192.1370  175.9520  147.5600 C   0  0  0  0  0  0  0  0  0  0  0  0
  188.6690  177.0060  141.1040 C   0  0  0  0  0  2  0  0  0  0  0  0
  189.8600  177.3460  140.2300 C   0  0  0  0  0  2  0  0  0  0  0  0
  188.2630  177.5290  138.3460 C   0  0  0  0  0  2  0  0  0  0  0  0
  189.4240  178.2010  139.0470 C   0  0  2  0  0  3  0  0  0  0  0  0
  189.6270  177.5310  137.6850 C   0  0  1  0  0  3  0  0  0  0  0  0
  190.2170  176.2400  137.8040 O   0  0  0  0  0  0  0  0  0  0  0  0
  190.7670  176.1530  135.5820 O   0  0  0  0  0  0  0  0  0  0  0  0
  190.7470  175.5730  136.6990 C   0  0  0  0  0  0  0  0  0  0  0  0
  191.2690  174.2430  136.8320 N   0  0  0  0  0  2  0  0  0  0  0  0
  190.7590  172.5640  135.1430 C   0  0  0  0  0  1  0  0  0  0  0  0
  191.8210  173.4860  135.7200 C   0  0  2  0  0  3  0  0  0  0  0  0
  194.0290  173.4950  136.6230 O   0  0  0  0  0  1  0  0  0  0  0  0
  192.9900  172.6550  136.2180 C   0  0  0  0  0  2  0  0  0  0  0  0
  185.8120  178.6920  143.6000 C   0  0  0  0  0  2  0  0  0  0  0  0
  185.3430  178.0760  142.2970 C   0  0  2  0  0  3  0  0  0  0  0  0
  185.3910  179.0270  141.2790 N   0  0  0  0  0  2  0  0  0  0  0  0
  184.1010  178.6050  141.9870 C   0  0  0  0  0  0  0  0  0  0  0  0
  182.8300  178.7070  142.1800 N   0  0  0  0  0  2  0  0  0  0  0  0
  1  7  2  0  0  0  0
  2  4  1  0  0  0  0
  3 11  1  0  0  0  0
  3  9  1  0  0  0  0
  5 12  2  0  0  0  0
  5  6  1  0  0  0  0
  6  2  2  0  0  0  0
  7  6  1  0  0  0  0
  9  1  1  0  0  0  0
 10 15  1  0  0  0  0
 10  4  2  0  0  0  0
 11 13  1  0  0  0  0
 12 10  1  0  0  0  0
 13  8  1  1  0  0  0
 13  5  1  0  0  0  0
 15 14  3  0  0  0  0
 16  3  1  0  0  0  0
 17 16  1  0  0  0  0
 18 19  1  0  0  0  0
 19 17  1  1  0  0  0
 20 21  1  1  0  0  0
 20 18  1  0  0  0  0
 20 19  1  0  0  0  0
 22 23  2  0  0  0  0
 23 24  1  0  0  0  0
 23 21  1  0  0  0  0
 26 25  1  1  0  0  0
 26 28  1  0  0  0  0
 26 24  1  0  0  0  0
 28 27  1  0  0  0  0
 29  1  1  0  0  0  0
 30 29  1  1  0  0  0
 31 32  1  0  0  0  0
 31 30  1  0  0  0  0
 32 33  2  0  0  0  0
 32 30  1  0  0  0  0
M  END
>  <MODEL>
4

>  <REMARK>
 VINA RESULT:      -6.8      3.127      4.925
  Name = 
  10 active torsions:
  status: ('A' for Active; 'I' for Inactive)
    1  A    between atoms: C_3  and  C_23
    2  A    between atoms: C_5  and  C_23
    3  A    between atoms: O_6  and  C_12
    4  A    between atoms: O_6  and  C_30
    5  A    between atoms: C_10  and  C_22
    6  A    between atoms: C_13  and  C_29
    7  A    between atoms: N_14  and  C_20
    8  A    between atoms: CA_16  and  C_26
    9  A    between atoms: CA_16  and  N_27
   10  A    between atoms: C_20  and  C_22
                            x       y       z     vdW  Elec       q    Type
                         _______ _______ _______ _____ _____    ______ ____

>  <TORSDO>
F 10

$$$$
=
 OpenBabel10232411153D

 33 36  0  0  1  0  0  0  0  0999 V2000
  187.1090  177.9270  143.9770 C   0  0  0  0  0  0  0  0  0  0  0  0
  188.5920  176.7830  146.9520 C   0  0  0  0  0  3  0  0  0  0  0  0
  188.6970  177.8500  142.1720 N   0  0  0  0  0  0  0  0  0  0  0  0
  189.7510  176.2530  147.5250 C   0  0  0  0  0  3  0  0  0  0  0  0
  189.9250  177.8640  145.2250 C   0  0  0  0  0  0  0  0  0  0  0  0
  188.6610  177.5570  145.7880 C   0  0  0  0  0  0  0  0  0  0  0  0
  187.4370  178.0520  145.2270 N   0  0  0  0  0  0  0  0  0  0  0  0
  191.2700  179.6530  144.0620 C   0  0  0  0  0  1  0  0  0  0  0  0
  187.9110  177.1970  143.0960 O   0  0  0  0  0  0  0  0  0  0  0  0
  190.9940  176.5030  146.9410 C   0  0  0  0  0  0  0  0  0  0  0  0
  190.0420  177.9410  142.7300 C   0  0  0  0  0  2  0  0  0  0  0  0
  191.0810  177.3070  145.8010 C   0  0  0  0  0  3  0  0  0  0  0  0
  190.0420  178.7600  144.0140 C   0  0  1  0  0  3  0  0  0  0  0  0
  193.1440  175.5030  147.9970 N   0  0  0  0  0  0  0  0  0  0  0  0
  192.1840  175.9470  147.5250 C   0  0  0  0  0  0  0  0  0  0  0  0
  188.7960  176.9680  141.0210 C   0  0  0  0  0  2  0  0  0  0  0  0
  189.7430  177.5490  139.9900 C   0  0  0  0  0  2  0  0  0  0  0  0
  187.7000  178.0320  138.6760 C   0  0  0  0  0  2  0  0  0  0  0  0
  189.0270  178.5910  139.1400 C   0  0  2  0  0  3  0  0  0  0  0  0
  188.8320  178.1770  137.6790 C   0  0  1  0  0  3  0  0  0  0  0  0
  189.3930  176.8960  137.4040 O   0  0  0  0  0  0  0  0  0  0  0  0
  187.8900  176.1800  135.8300 O   0  0  0  0  0  0  0  0  0  0  0  0
  188.6480  175.8870  136.7920 C   0  0  0  0  0  0  0  0  0  0  0  0
  188.7470  174.5310  137.2470 N   0  0  0  0  0  2  0  0  0  0  0  0
  188.4400  173.1960  135.2320 C   0  0  0  0  0  1  0  0  0  0  0  0
  187.9890  173.4340  136.6650 C   0  0  2  0  0  3  0  0  0  0  0  0
  185.8580  173.0680  137.6710 O   0  0  0  0  0  1  0  0  0  0  0  0
  186.5140  173.7920  136.6740 C   0  0  0  0  0  2  0  0  0  0  0  0
  185.8580  178.5640  143.4830 C   0  0  0  0  0  2  0  0  0  0  0  0
  185.6830  178.3200  141.9970 C   0  0  2  0  0  3  0  0  0  0  0  0
  185.6180  179.5390  141.3220 N   0  0  0  0  0  2  0  0  0  0  0  0
  184.3930  178.6800  141.6460 C   0  0  0  0  0  0  0  0  0  0  0  0
  183.1190  178.4750  141.6400 N   0  0  0  0  0  2  0  0  0  0  0  0
  1  7  2  0  0  0  0
  2  4  1  0  0  0  0
  3 11  1  0  0  0  0
  3  9  1  0  0  0  0
  5  6  1  0  0  0  0
  5 12  2  0  0  0  0
  6  2  2  0  0  0  0
  7  6  1  0  0  0  0
  9  1  1  0  0  0  0
 10  4  2  0  0  0  0
 10 15  1  0  0  0  0
 11 13  1  0  0  0  0
 12 10  1  0  0  0  0
 13  8  1  1  0  0  0
 13  5  1  0  0  0  0
 15 14  3  0  0  0  0
 16  3  1  0  0  0  0
 17 16  1  0  0  0  0
 18 19  1  0  0  0  0
 19 17  1  1  0  0  0
 20 21  1  1  0  0  0
 20 18  1  0  0  0  0
 20 19  1  0  0  0  0
 22 23  2  0  0  0  0
 23 24  1  0  0  0  0
 23 21  1  0  0  0  0
 26 25  1  6  0  0  0
 26 28  1  0  0  0  0
 26 24  1  0  0  0  0
 28 27  1  0  0  0  0
 29  1  1  0  0  0  0
 30 29  1  1  0  0  0
 31 32  1  0  0  0  0
 31 30  1  0  0  0  0
 32 30  1  0  0  0  0
 33 32  2  0  0  0  0
M  END
>  <MODEL>
5

>  <REMARK>
 VINA RESULT:      -6.6      2.335      3.363
  Name = 
  10 active torsions:
  status: ('A' for Active; 'I' for Inactive)
    1  A    between atoms: C_3  and  C_23
    2  A    between atoms: C_5  and  C_23
    3  A    between atoms: O_6  and  C_12
    4  A    between atoms: O_6  and  C_30
    5  A    between atoms: C_10  and  C_22
    6  A    between atoms: C_13  and  C_29
    7  A    between atoms: N_14  and  C_20
    8  A    between atoms: CA_16  and  C_26
    9  A    between atoms: CA_16  and  N_27
   10  A    between atoms: C_20  and  C_22
                            x       y       z     vdW  Elec       q    Type
                         _______ _______ _______ _____ _____    ______ ____

>  <TORSDO>
F 10

$$$$
=
 OpenBabel10232411153D

 33 36  0  0  1  0  0  0  0  0999 V2000
  190.1690  176.0070  137.4970 C   0  0  0  0  0  0  0  0  0  0  0  0
  188.3660  173.0380  136.9540 C   0  0  0  0  0  3  0  0  0  0  0  0
  188.7110  177.7230  138.3440 N   0  0  0  0  0  0  0  0  0  0  0  0
  187.1180  172.4180  137.0640 C   0  0  0  0  0  3  0  0  0  0  0  0
  187.2830  175.2110  136.7690 C   0  0  0  0  0  0  0  0  0  0  0  0
  188.4630  174.4300  136.8410 C   0  0  0  0  0  0  0  0  0  0  0  0
  189.7710  175.0150  136.7600 N   0  0  0  0  0  0  0  0  0  0  0  0
  186.2270  177.2330  135.6920 C   0  0  0  0  0  1  0  0  0  0  0  0
  189.3540  176.5160  138.5120 O   0  0  0  0  0  0  0  0  0  0  0  0
  185.9540  173.1880  137.0530 C   0  0  0  0  0  0  0  0  0  0  0  0
  187.3490  177.4340  137.9100 C   0  0  0  0  0  2  0  0  0  0  0  0
  186.0350  174.5750  136.9020 C   0  0  0  0  0  3  0  0  0  0  0  0
  187.3500  176.7070  136.5710 C   0  0  1  0  0  3  0  0  0  0  0  0
  183.6410  172.0310  137.2790 N   0  0  0  0  0  0  0  0  0  0  0  0
  184.6730  172.5490  137.1790 C   0  0  0  0  0  0  0  0  0  0  0  0
  188.5960  178.3140  139.6670 C   0  0  0  0  0  2  0  0  0  0  0  0
  188.9420  177.2920  140.7330 C   0  0  0  0  0  2  0  0  0  0  0  0
  190.7090  176.4210  142.2310 C   0  0  0  0  0  2  0  0  0  0  0  0
  190.3920  177.4510  141.1700 C   0  0  2  0  0  3  0  0  0  0  0  0
  190.5600  177.8740  142.6320 C   0  0  1  0  0  3  0  0  0  0  0  0
  189.3070  178.0630  143.2840 O   0  0  0  0  0  0  0  0  0  0  0  0
  187.9520  176.7960  144.6280 O   0  0  0  0  0  0  0  0  0  0  0  0
  189.0180  177.4540  144.5060 C   0  0  0  0  0  0  0  0  0  0  0  0
  189.9270  177.5700  145.6090 N   0  0  0  0  0  2  0  0  0  0  0  0
  189.0160  177.9890  147.8300 C   0  0  0  0  0  1  0  0  0  0  0  0
  189.6810  176.9740  146.9130 C   0  0  2  0  0  3  0  0  0  0  0  0
  192.0380  176.7740  146.6100 O   0  0  0  0  0  1  0  0  0  0  0  0
  191.0050  176.5420  147.5190 C   0  0  0  0  0  2  0  0  0  0  0  0
  191.5130  176.5990  137.2610 C   0  0  0  0  0  2  0  0  0  0  0  0
  192.5780  175.8330  138.0200 C   0  0  2  0  0  3  0  0  0  0  0  0
  193.3840  176.7220  138.7310 N   0  0  0  0  0  2  0  0  0  0  0  0
  193.8000  176.0660  137.4120 C   0  0  0  0  0  0  0  0  0  0  0  0
  194.6360  175.9000  136.4440 N   0  0  0  0  0  2  0  0  0  0  0  0
  1  9  1  0  0  0  0
  2  4  1  0  0  0  0
  3  9  1  0  0  0  0
  3 16  1  0  0  0  0
  5  6  1  0  0  0  0
  5 12  2  0  0  0  0
  6  2  2  0  0  0  0
  7  6  1  0  0  0  0
  7  1  2  0  0  0  0
 10  4  2  0  0  0  0
 10 15  1  0  0  0  0
 11  3  1  0  0  0  0
 12 10  1  0  0  0  0
 13  8  1  6  0  0  0
 13  5  1  0  0  0  0
 13 11  1  0  0  0  0
 15 14  3  0  0  0  0
 16 17  1  0  0  0  0
 18 20  1  0  0  0  0
 19 17  1  1  0  0  0
 19 18  1  0  0  0  0
 19 20  1  0  0  0  0
 20 21  1  1  0  0  0
 21 23  1  0  0  0  0
 23 22  2  0  0  0  0
 23 24  1  0  0  0  0
 24 26  1  0  0  0  0
 26 28  1  0  0  0  0
 26 25  1  1  0  0  0
 27 28  1  0  0  0  0
 29  1  1  0  0  0  0
 30 29  1  6  0  0  0
 30 31  1  0  0  0  0
 32 30  1  0  0  0  0
 32 31  1  0  0  0  0
 33 32  2  0  0  0  0
M  END
>  <MODEL>
6

>  <REMARK>
 VINA RESULT:      -6.6      3.632      9.375
  Name = 
  10 active torsions:
  status: ('A' for Active; 'I' for Inactive)
    1  A    between atoms: C_3  and  C_23
    2  A    between atoms: C_5  and  C_23
    3  A    between atoms: O_6  and  C_12
    4  A    between atoms: O_6  and  C_30
    5  A    between atoms: C_10  and  C_22
    6  A    between atoms: C_13  and  C_29
    7  A    between atoms: N_14  and  C_20
    8  A    between atoms: CA_16  and  C_26
    9  A    between atoms: CA_16  and  N_27
   10  A    between atoms: C_20  and  C_22
                            x       y       z     vdW  Elec       q    Type
                         _______ _______ _______ _____ _____    ______ ____

>  <TORSDO>
F 10

$$$$
=
 OpenBabel10232411153D

 33 36  0  0  1  0  0  0  0  0999 V2000
  190.7300  175.2780  137.6020 C   0  0  0  0  0  0  0  0  0  0  0  0
  187.6970  174.9840  135.8500 C   0  0  0  0  0  3  0  0  0  0  0  0
  190.4760  176.7880  139.4590 N   0  0  0  0  0  0  0  0  0  0  0  0
  186.3540  175.3710  135.8090 C   0  0  0  0  0  3  0  0  0  0  0  0
  188.2620  177.0340  137.0360 C   0  0  0  0  0  0  0  0  0  0  0  0
  188.6510  175.7860  136.4870 C   0  0  0  0  0  0  0  0  0  0  0  0
  190.0090  175.3270  136.5230 N   0  0  0  0  0  0  0  0  0  0  0  0
  188.9800  179.4250  137.3980 C   0  0  0  0  0  1  0  0  0  0  0  0
  190.1770  175.5890  138.8470 O   0  0  0  0  0  0  0  0  0  0  0  0
  185.9560  176.5700  136.4000 C   0  0  0  0  0  0  0  0  0  0  0  0
  189.3870  177.7120  139.1620 C   0  0  0  0  0  2  0  0  0  0  0  0
  186.9050  177.4000  137.0060 C   0  0  0  0  0  3  0  0  0  0  0  0
  189.2790  177.9590  137.6640 C   0  0  1  0  0  3  0  0  0  0  0  0
  183.4590  177.2750  136.3440 N   0  0  0  0  0  0  0  0  0  0  0  0
  184.5730  176.9600  136.3670 C   0  0  0  0  0  0  0  0  0  0  0  0
  190.4200  176.5420  140.8900 C   0  0  0  0  0  2  0  0  0  0  0  0
  190.9420  177.7450  141.6520 C   0  0  0  0  0  2  0  0  0  0  0  0
  191.1030  176.0960  143.4920 C   0  0  0  0  0  2  0  0  0  0  0  0
  191.7660  177.2960  142.8530 C   0  0  2  0  0  3  0  0  0  0  0  0
  191.0420  177.4370  144.1940 C   0  0  1  0  0  3  0  0  0  0  0  0
  189.7390  177.9950  144.0450 O   0  0  0  0  0  0  0  0  0  0  0  0
  187.8100  176.8010  144.3600 O   0  0  0  0  0  0  0  0  0  0  0  0
  188.6700  177.5830  144.8420 C   0  0  0  0  0  0  0  0  0  0  0  0
  188.5550  178.0370  146.1970 N   0  0  0  0  0  2  0  0  0  0  0  0
  186.2230  178.4780  146.7470 C   0  0  0  0  0  1  0  0  0  0  0  0
  187.4610  177.6580  147.0770 C   0  0  2  0  0  3  0  0  0  0  0  0
  189.2550  178.0480  148.6000 O   0  0  0  0  0  1  0  0  0  0  0  0
  187.8670  177.9210  148.5160 C   0  0  0  0  0  2  0  0  0  0  0  0
  192.1600  174.8770  137.5080 C   0  0  0  0  0  2  0  0  0  0  0  0
  193.0320  176.0720  137.1800 C   0  0  2  0  0  3  0  0  0  0  0  0
  194.3690  175.6810  137.1170 N   0  0  0  0  0  2  0  0  0  0  0  0
  193.7520  176.4110  138.3130 C   0  0  0  0  0  0  0  0  0  0  0  0
  193.8330  176.9140  139.4980 N   0  0  0  0  0  2  0  0  0  0  0  0
  1  9  1  0  0  0  0
  2  6  1  0  0  0  0
  3 16  1  0  0  0  0
  4  2  2  0  0  0  0
  4 10  1  0  0  0  0
  5 13  1  0  0  0  0
  6  7  1  0  0  0  0
  6  5  2  0  0  0  0
  7  1  2  0  0  0  0
  9  3  1  0  0  0  0
 10 12  2  0  0  0  0
 11  3  1  0  0  0  0
 12  5  1  0  0  0  0
 13  8  1  1  0  0  0
 13 11  1  0  0  0  0
 14 15  3  0  0  0  0
 15 10  1  0  0  0  0
 16 17  1  0  0  0  0
 18 20  1  0  0  0  0
 19 17  1  6  0  0  0
 19 18  1  0  0  0  0
 19 20  1  0  0  0  0
 20 21  1  6  0  0  0
 21 23  1  0  0  0  0
 22 23  2  0  0  0  0
 23 24  1  0  0  0  0
 24 26  1  0  0  0  0
 26 25  1  6  0  0  0
 26 28  1  0  0  0  0
 28 27  1  0  0  0  0
 29  1  1  0  0  0  0
 30 29  1  1  0  0  0
 30 32  1  0  0  0  0
 31 30  1  0  0  0  0
 31 32  1  0  0  0  0
 32 33  2  0  0  0  0
M  END
>  <MODEL>
7

>  <REMARK>
 VINA RESULT:      -6.6      3.408      9.168
  Name = 
  10 active torsions:
  status: ('A' for Active; 'I' for Inactive)
    1  A    between atoms: C_3  and  C_23
    2  A    between atoms: C_5  and  C_23
    3  A    between atoms: O_6  and  C_12
    4  A    between atoms: O_6  and  C_30
    5  A    between atoms: C_10  and  C_22
    6  A    between atoms: C_13  and  C_29
    7  A    between atoms: N_14  and  C_20
    8  A    between atoms: CA_16  and  C_26
    9  A    between atoms: CA_16  and  N_27
   10  A    between atoms: C_20  and  C_22
                            x       y       z     vdW  Elec       q    Type
                         _______ _______ _______ _____ _____    ______ ____

>  <TORSDO>
F 10

$$$$
=
 OpenBabel10232411153D

 33 36  0  0  1  0  0  0  0  0999 V2000
  191.8400  175.6910  138.0560 C   0  0  0  0  0  0  0  0  0  0  0  0
  189.0580  174.2380  136.4730 C   0  0  0  0  0  3  0  0  0  0  0  0
  191.1200  177.1930  139.7910 N   0  0  0  0  0  0  0  0  0  0  0  0
  187.6640  174.1470  136.4600 C   0  0  0  0  0  3  0  0  0  0  0  0
  188.9170  176.4590  137.4590 C   0  0  0  0  0  0  0  0  0  0  0  0
  189.6950  175.3680  136.9980 C   0  0  0  0  0  0  0  0  0  0  0  0
  191.1290  175.3950  137.0100 N   0  0  0  0  0  0  0  0  0  0  0  0
  188.7910  178.9750  137.5900 C   0  0  0  0  0  1  0  0  0  0  0  0
  191.2330  175.9130  139.2950 O   0  0  0  0  0  0  0  0  0  0  0  0
  186.8930  175.1940  136.9680 C   0  0  0  0  0  0  0  0  0  0  0  0
  189.7780  177.6680  139.4690 C   0  0  0  0  0  2  0  0  0  0  0  0
  187.5150  176.3450  137.4600 C   0  0  0  0  0  3  0  0  0  0  0  0
  189.5710  177.7250  137.9620 C   0  0  1  0  0  3  0  0  0  0  0  0
  184.3040  175.0120  136.9610 N   0  0  0  0  0  0  0  0  0  0  0  0
  185.4590  175.0930  136.9660 C   0  0  0  0  0  0  0  0  0  0  0  0
  191.1710  177.0770  141.2390 C   0  0  0  0  0  2  0  0  0  0  0  0
  189.9180  177.6640  141.8600 C   0  0  0  0  0  2  0  0  0  0  0  0
  190.7180  177.3940  144.1880 C   0  0  0  0  0  2  0  0  0  0  0  0
  190.2590  178.3960  143.1520 C   0  0  2  0  0  3  0  0  0  0  0  0
  189.3520  178.0340  144.3310 C   0  0  1  0  0  3  0  0  0  0  0  0
  188.3440  177.0960  143.9660 O   0  0  0  0  0  0  0  0  0  0  0  0
  186.5060  176.9260  145.3230 O   0  0  0  0  0  0  0  0  0  0  0  0
  186.9950  177.3290  144.2350 C   0  0  0  0  0  0  0  0  0  0  0  0
  186.1730  178.0260  143.2880 N   0  0  0  0  0  2  0  0  0  0  0  0
  184.0710  178.5270  142.1630 C   0  0  0  0  0  1  0  0  0  0  0  0
  184.7580  178.2900  143.4990 C   0  0  2  0  0  3  0  0  0  0  0  0
  184.1070  179.1650  145.6200 O   0  0  0  0  0  1  0  0  0  0  0  0
  184.6080  179.5260  144.3680 C   0  0  0  0  0  2  0  0  0  0  0  0
  193.3200  175.7840  137.9310 C   0  0  0  0  0  2  0  0  0  0  0  0
  193.8740  174.5750  137.2040 C   0  0  2  0  0  3  0  0  0  0  0  0
  194.5780  173.7670  138.0970 N   0  0  0  0  0  2  0  0  0  0  0  0
  195.2480  174.7190  137.1030 C   0  0  0  0  0  0  0  0  0  0  0  0
  196.2970  175.2710  136.5950 N   0  0  0  0  0  2  0  0  0  0  0  0
  1  9  1  0  0  0  0
  2  6  1  0  0  0  0
  3 16  1  0  0  0  0
  4  2  2  0  0  0  0
  4 10  1  0  0  0  0
  5 12  1  0  0  0  0
  5 13  1  0  0  0  0
  6  7  1  0  0  0  0
  6  5  2  0  0  0  0
  7  1  2  0  0  0  0
  9  3  1  0  0  0  0
 10 12  2  0  0  0  0
 11  3  1  0  0  0  0
 13  8  1  1  0  0  0
 13 11  1  0  0  0  0
 14 15  3  0  0  0  0
 15 10  1  0  0  0  0
 16 17  1  0  0  0  0
 18 20  1  0  0  0  0
 19 17  1  6  0  0  0
 19 18  1  0  0  0  0
 19 20  1  0  0  0  0
 20 21  1  6  0  0  0
 21 23  1  0  0  0  0
 23 22  2  0  0  0  0
 24 26  1  0  0  0  0
 24 23  1  0  0  0  0
 26 25  1  6  0  0  0
 26 28  1  0  0  0  0
 28 27  1  0  0  0  0
 29  1  1  0  0  0  0
 30 29  1  1  0  0  0
 30 31  1  0  0  0  0
 32 30  1  0  0  0  0
 32 31  1  0  0  0  0
 33 32  2  0  0  0  0
M  END
>  <MODEL>
8

>  <REMARK>
 VINA RESULT:      -6.6      3.790      8.622
  Name = 
  10 active torsions:
  status: ('A' for Active; 'I' for Inactive)
    1  A    between atoms: C_3  and  C_23
    2  A    between atoms: C_5  and  C_23
    3  A    between atoms: O_6  and  C_12
    4  A    between atoms: O_6  and  C_30
    5  A    between atoms: C_10  and  C_22
    6  A    between atoms: C_13  and  C_29
    7  A    between atoms: N_14  and  C_20
    8  A    between atoms: CA_16  and  C_26
    9  A    between atoms: CA_16  and  N_27
   10  A    between atoms: C_20  and  C_22
                            x       y       z     vdW  Elec       q    Type
                         _______ _______ _______ _____ _____    ______ ____

>  <TORSDO>
F 10

$$$$
=
 OpenBabel10232411153D

 33 36  0  0  1  0  0  0  0  0999 V2000
  190.7710  177.1590  140.6330 C   0  0  0  0  0  0  0  0  0  0  0  0
  191.0980  174.9600  137.9100 C   0  0  0  0  0  3  0  0  0  0  0  0
  188.5290  178.0290  140.7360 N   0  0  0  0  0  0  0  0  0  0  0  0
  190.4300  174.3390  136.8500 C   0  0  0  0  0  3  0  0  0  0  0  0
  189.5120  176.8060  137.8420 C   0  0  0  0  0  0  0  0  0  0  0  0
  190.6320  176.1710  138.4350 C   0  0  0  0  0  0  0  0  0  0  0  0
  191.3400  176.7490  139.5400 N   0  0  0  0  0  0  0  0  0  0  0  0
  188.5210  179.0380  137.2110 C   0  0  0  0  0  1  0  0  0  0  0  0
  189.4020  176.9670  140.8410 O   0  0  0  0  0  0  0  0  0  0  0  0
  189.2920  174.9310  136.3020 C   0  0  0  0  0  0  0  0  0  0  0  0
  187.9510  177.9850  139.3970 C   0  0  0  0  0  2  0  0  0  0  0  0
  188.8380  176.1600  136.7910 C   0  0  0  0  0  3  0  0  0  0  0  0
  189.0290  178.1510  138.3350 C   0  0  1  0  0  3  0  0  0  0  0  0
  188.0380  173.7670  134.3500 N   0  0  0  0  0  0  0  0  0  0  0  0
  188.5990  174.2850  135.2210 C   0  0  0  0  0  0  0  0  0  0  0  0
  187.4390  177.7560  141.6570 C   0  0  0  0  0  2  0  0  0  0  0  0
  186.5320  178.9650  141.7740 C   0  0  0  0  0  2  0  0  0  0  0  0
  184.6730  179.5600  143.2970 C   0  0  0  0  0  2  0  0  0  0  0  0
  185.1570  178.5500  142.2800 C   0  0  2  0  0  3  0  0  0  0  0  0
  185.1210  178.1910  143.7680 C   0  0  1  0  0  3  0  0  0  0  0  0
  186.4060  178.2930  144.3760 O   0  0  0  0  0  0  0  0  0  0  0  0
  185.6560  177.5970  146.4250 O   0  0  0  0  0  0  0  0  0  0  0  0
  186.6370  177.8480  145.6780 C   0  0  0  0  0  0  0  0  0  0  0  0
  187.9760  177.6710  146.1600 N   0  0  0  0  0  2  0  0  0  0  0  0
  188.3360  178.4190  148.4510 C   0  0  0  0  0  1  0  0  0  0  0  0
  188.2880  177.2250  147.5100 C   0  0  2  0  0  3  0  0  0  0  0  0
  190.6130  177.4050  147.0100 O   0  0  0  0  0  1  0  0  0  0  0  0
  189.6400  176.5350  147.5040 C   0  0  0  0  0  2  0  0  0  0  0  0
  191.5900  177.8330  141.6760 C   0  0  0  0  0  2  0  0  0  0  0  0
  190.9250  177.7240  143.0330 C   0  0  2  0  0  3  0  0  0  0  0  0
  191.8080  178.1430  144.0280 N   0  0  0  0  0  2  0  0  0  0  0  0
  191.5090  176.6740  143.7220 C   0  0  0  0  0  0  0  0  0  0  0  0
  191.6980  175.4130  143.9210 N   0  0  0  0  0  2  0  0  0  0  0  0
  1  9  1  0  0  0  0
  1 29  1  0  0  0  0
  2  6  1  0  0  0  0
  3  9  1  0  0  0  0
  3 16  1  0  0  0  0
  4  2  2  0  0  0  0
  5 13  1  0  0  0  0
  5  6  2  0  0  0  0
  6  7  1  0  0  0  0
  7  1  2  0  0  0  0
 10 12  2  0  0  0  0
 10  4  1  0  0  0  0
 11  3  1  0  0  0  0
 12  5  1  0  0  0  0
 13  8  1  6  0  0  0
 13 11  1  0  0  0  0
 14 15  3  0  0  0  0
 15 10  1  0  0  0  0
 16 17  1  0  0  0  0
 18 20  1  0  0  0  0
 19 17  1  1  0  0  0
 19 18  1  0  0  0  0
 19 20  1  0  0  0  0
 20 21  1  1  0  0  0
 21 23  1  0  0  0  0
 23 24  1  0  0  0  0
 23 22  2  0  0  0  0
 24 26  1  0  0  0  0
 26 25  1  1  0  0  0
 27 28  1  0  0  0  0
 28 26  1  0  0  0  0
 30 29  1  6  0  0  0
 30 32  1  0  0  0  0
 30 31  1  0  0  0  0
 32 33  2  0  0  0  0
 32 31  1  0  0  0  0
M  END
>  <MODEL>
9

>  <REMARK>
 VINA RESULT:      -6.5      3.094      8.186
  Name = 
  10 active torsions:
  status: ('A' for Active; 'I' for Inactive)
    1  A    between atoms: C_3  and  C_23
    2  A    between atoms: C_5  and  C_23
    3  A    between atoms: O_6  and  C_12
    4  A    between atoms: O_6  and  C_30
    5  A    between atoms: C_10  and  C_22
    6  A    between atoms: C_13  and  C_29
    7  A    between atoms: N_14  and  C_20
    8  A    between atoms: CA_16  and  C_26
    9  A    between atoms: CA_16  and  N_27
   10  A    between atoms: C_20  and  C_22
                            x       y       z     vdW  Elec       q    Type
                         _______ _______ _______ _____ _____    ______ ____

>  <TORSDO>
F 10

$$$$
