=
 OpenBabel10222421433D

 31 35  0  0  1  0  0  0  0  0999 V2000
  187.3260  177.4060  144.7310 C   0  0  0  0  0  0  0  0  0  0  0  0
  188.4730  177.7690  143.9430 N   0  0  0  0  0  0  0  0  0  0  0  0
  187.4780  176.6220  145.7060 O   0  0  0  0  0  0  0  0  0  0  0  0
  189.8330  177.4810  147.2090 C   0  0  0  0  0  0  0  0  0  0  0  0
  191.7750  176.1250  146.2110 C   0  0  0  0  0  3  0  0  0  0  0  0
  191.6410  176.6070  144.9090 N   0  0  0  0  0  0  0  0  0  0  0  0
  190.9140  176.5330  147.3390 C   0  0  0  0  0  3  0  0  0  0  0  0
  188.9420  177.9120  148.3160 C   0  0  0  0  0  1  0  0  0  0  0  0
  190.6340  177.4740  144.8680 C   0  0  0  0  0  0  0  0  0  0  0  0
  189.6140  178.4060  144.6100 C   0  0  2  0  0  3  0  0  0  0  0  0
  189.7480  177.9190  145.9260 C   0  0  0  0  0  0  0  0  0  0  0  0
  185.9960  177.9860  144.4240 C   0  0  0  0  0  0  0  0  0  0  0  0
  183.4920  179.0580  143.7130 C   0  0  0  0  0  3  0  0  0  0  0  0
  185.1910  178.6340  145.3950 C   0  0  0  0  0  0  0  0  0  0  0  0
  183.9480  179.1610  145.0280 C   0  0  0  0  0  3  0  0  0  0  0  0
  185.5970  178.7580  146.8250 C   0  0  0  0  0  1  0  0  0  0  0  0
  185.5210  177.8950  143.1060 C   0  0  0  0  0  3  0  0  0  0  0  0
  184.2790  178.4250  142.7510 C   0  0  0  0  0  3  0  0  0  0  0  0
  188.2080  177.6980  141.5080 C   0  0  0  0  0  2  0  0  0  0  0  0
  189.6880  177.7130  141.8120 C   0  0  1  0  0  3  0  0  0  0  0  0
  188.7310  176.9790  142.7380 C   0  0  1  0  0  3  0  0  0  0  0  0
  190.3860  176.7030  140.9230 C   0  0  0  0  0  2  0  0  0  0  0  0
  191.0800  177.3980  139.7570 C   0  0  0  0  0  2  0  0  0  0  0  0
  187.8480  178.1960  137.9870 C   0  0  0  0  0  2  0  0  0  0  0  0
  189.8860  176.3420  136.3350 C   0  0  0  0  0  2  0  0  0  0  0  0
  190.8270  176.7050  138.5130 N   0  0  0  0  0  0  0  0  0  0  0  0
  188.4230  176.0190  136.0570 C   0  0  0  0  0  2  0  0  0  0  0  0
  187.7020  177.2680  135.5690 C   0  0  0  0  0  2  0  0  0  0  0  0
  190.0540  177.1560  137.5830 C   0  0  0  0  0  0  0  0  0  0  0  0
  189.3230  178.4650  137.7240 C   0  0  0  0  0  2  0  0  0  0  0  0
  187.0250  178.0500  136.7020 C   0  0  0  0  0  2  0  0  0  0  0  0
  1  3  2  0  0  0  0
  2  1  1  0  0  0  0
  4  7  1  0  0  0  0
  4  8  1  0  0  0  0
  5  7  2  0  0  0  0
  6  5  1  0  0  0  0
  9  6  2  0  0  0  0
  9 11  1  0  0  0  0
 10  2  1  6  0  0  0
 10  9  1  0  0  0  0
 10 11  1  0  0  0  0
 11  4  2  0  0  0  0
 12  1  1  0  0  0  0
 12 14  1  0  0  0  0
 13 15  1  0  0  0  0
 14 16  1  0  0  0  0
 15 14  2  0  0  0  0
 17 12  2  0  0  0  0
 18 17  1  0  0  0  0
 18 13  2  0  0  0  0
 19 20  1  0  0  0  0
 19 21  1  0  0  0  0
 20 22  1  6  0  0  0
 20 21  1  0  0  0  0
 21  2  1  1  0  0  0
 23 22  1  0  0  0  0
 25 29  1  0  0  0  0
 26 23  1  0  0  0  0
 27 25  1  0  0  0  0
 28 27  1  0  0  0  0
 28 31  1  0  0  0  0
 29 30  1  0  0  0  0
 29 26  2  0  0  0  0
 30 24  1  0  0  0  0
 31 24  1  0  0  0  0
M  END
>  <MODEL>
1

>  <REMARK>
 VINA RESULT:      -9.9      0.000      0.000
  Name = 
  6 active torsions:
  status: ('A' for Active; 'I' for Inactive)
    1  A    between atoms: C_3  and  C_13
    2  A    between atoms: C_10  and  N_15
    3  A    between atoms: C_10  and  C_28
    4  A    between atoms: C_14  and  C_28
    5  A    between atoms: N_16  and  C_18
    6  A    between atoms: N_16  and  C_21
                            x       y       z     vdW  Elec       q    Type
                         _______ _______ _______ _____ _____    ______ ____

>  <TORSDO>
F 6

$$$$
=
 OpenBabel10222421433D

 31 35  0  0  1  0  0  0  0  0999 V2000
  187.5330  177.1520  143.8880 C   0  0  0  0  0  0  0  0  0  0  0  0
  187.3080  178.0060  142.7540 N   0  0  0  0  0  0  0  0  0  0  0  0
  188.0120  176.0020  143.7030 O   0  0  0  0  0  0  0  0  0  0  0  0
  190.7580  178.5510  143.3810 C   0  0  0  0  0  0  0  0  0  0  0  0
  191.2440  176.2500  142.3470 C   0  0  0  0  0  3  0  0  0  0  0  0
  190.0670  176.1670  141.6030 N   0  0  0  0  0  0  0  0  0  0  0  0
  191.6010  177.3920  143.2130 C   0  0  0  0  0  3  0  0  0  0  0  0
  191.0770  179.7170  144.2450 C   0  0  0  0  0  1  0  0  0  0  0  0
  189.3480  177.2670  141.8040 C   0  0  0  0  0  0  0  0  0  0  0  0
  188.4410  178.3370  141.8830 C   0  0  2  0  0  3  0  0  0  0  0  0
  189.6300  178.4220  142.6360 C   0  0  0  0  0  0  0  0  0  0  0  0
  187.2500  177.6420  145.2590 C   0  0  0  0  0  0  0  0  0  0  0  0
  186.5940  178.6190  147.8170 C   0  0  0  0  0  3  0  0  0  0  0  0
  188.1890  177.5660  146.3190 C   0  0  0  0  0  0  0  0  0  0  0  0
  187.8490  178.0550  147.5860 C   0  0  0  0  0  3  0  0  0  0  0  0
  189.5380  176.9520  146.1570 C   0  0  0  0  0  1  0  0  0  0  0  0
  185.9940  178.2170  145.5120 C   0  0  0  0  0  3  0  0  0  0  0  0
  185.6650  178.7020  146.7790 C   0  0  0  0  0  3  0  0  0  0  0  0
  185.2310  179.2790  142.4890 C   0  0  0  0  0  2  0  0  0  0  0  0
  185.8320  179.0840  141.1170 C   0  0  1  0  0  3  0  0  0  0  0  0
  185.9670  177.9920  142.1660 C   0  0  1  0  0  3  0  0  0  0  0  0
  184.7330  178.7010  140.1450 C   0  0  0  0  0  2  0  0  0  0  0  0
  185.3160  178.3350  138.7850 C   0  0  0  0  0  2  0  0  0  0  0  0
  187.5740  175.7300  137.2560 C   0  0  0  0  0  2  0  0  0  0  0  0
  188.9810  178.5440  137.9060 C   0  0  0  0  0  2  0  0  0  0  0  0
  186.7270  178.6470  138.7230 N   0  0  0  0  0  0  0  0  0  0  0  0
  189.9190  177.3530  138.0710 C   0  0  0  0  0  2  0  0  0  0  0  0
  189.9820  176.5620  136.7710 C   0  0  0  0  0  2  0  0  0  0  0  0
  187.5420  178.1240  137.8690 C   0  0  0  0  0  0  0  0  0  0  0  0
  187.0850  177.1130  136.8510 C   0  0  0  0  0  2  0  0  0  0  0  0
  188.9740  175.4070  136.7240 C   0  0  0  0  0  2  0  0  0  0  0  0
  1 12  1  0  0  0  0
  2  1  1  0  0  0  0
  3  1  2  0  0  0  0
  4  8  1  0  0  0  0
  5  7  2  0  0  0  0
  6  9  2  0  0  0  0
  6  5  1  0  0  0  0
  7  4  1  0  0  0  0
  9 10  1  0  0  0  0
  9 11  1  0  0  0  0
 10 11  1  0  0  0  0
 10  2  1  1  0  0  0
 11  4  2  0  0  0  0
 12 17  2  0  0  0  0
 12 14  1  0  0  0  0
 14 15  2  0  0  0  0
 15 13  1  0  0  0  0
 16 14  1  0  0  0  0
 17 18  1  0  0  0  0
 18 13  2  0  0  0  0
 20 22  1  6  0  0  0
 20 21  1  0  0  0  0
 20 19  1  0  0  0  0
 21 19  1  0  0  0  0
 21  2  1  1  0  0  0
 23 22  1  0  0  0  0
 25 27  1  0  0  0  0
 26 23  1  0  0  0  0
 28 27  1  0  0  0  0
 29 25  1  0  0  0  0
 29 26  2  0  0  0  0
 30 24  1  0  0  0  0
 30 29  1  0  0  0  0
 31 28  1  0  0  0  0
 31 24  1  0  0  0  0
M  END
>  <MODEL>
2

>  <REMARK>
 VINA RESULT:      -9.8      1.714      3.683
  Name = 
  6 active torsions:
  status: ('A' for Active; 'I' for Inactive)
    1  A    between atoms: C_3  and  C_13
    2  A    between atoms: C_10  and  N_15
    3  A    between atoms: C_10  and  C_28
    4  A    between atoms: C_14  and  C_28
    5  A    between atoms: N_16  and  C_18
    6  A    between atoms: N_16  and  C_21
                            x       y       z     vdW  Elec       q    Type
                         _______ _______ _______ _____ _____    ______ ____

>  <TORSDO>
F 6

$$$$
=
 OpenBabel10222421433D

 31 35  0  0  1  0  0  0  0  0999 V2000
  187.3140  177.4180  144.6700 C   0  0  0  0  0  0  0  0  0  0  0  0
  188.4710  177.7860  143.9010 N   0  0  0  0  0  0  0  0  0  0  0  0
  187.4520  176.6290  145.6430 O   0  0  0  0  0  0  0  0  0  0  0  0
  189.7880  177.4790  147.1820 C   0  0  0  0  0  0  0  0  0  0  0  0
  191.7440  176.1320  146.2020 C   0  0  0  0  0  3  0  0  0  0  0  0
  191.6270  176.6220  144.9010 N   0  0  0  0  0  0  0  0  0  0  0  0
  190.8670  176.5310  147.3210 C   0  0  0  0  0  3  0  0  0  0  0  0
  188.8810  177.9020  148.2800 C   0  0  0  0  0  1  0  0  0  0  0  0
  190.6200  177.4880  144.8520 C   0  0  0  0  0  0  0  0  0  0  0  0
  189.6020  178.4200  144.5860 C   0  0  2  0  0  3  0  0  0  0  0  0
  189.7190  177.9250  145.9010 C   0  0  0  0  0  0  0  0  0  0  0  0
  185.9870  177.9990  144.3480 C   0  0  0  0  0  0  0  0  0  0  0  0
  183.4900  179.0680  143.6090 C   0  0  0  0  0  3  0  0  0  0  0  0
  185.1890  178.6820  145.3000 C   0  0  0  0  0  0  0  0  0  0  0  0
  183.9490  179.2080  144.9190 C   0  0  0  0  0  3  0  0  0  0  0  0
  185.5990  178.8470  146.7250 C   0  0  0  0  0  1  0  0  0  0  0  0
  185.5090  177.8720  143.0340 C   0  0  0  0  0  3  0  0  0  0  0  0
  184.2700  178.4010  142.6650 C   0  0  0  0  0  3  0  0  0  0  0  0
  188.2850  177.7500  141.4580 C   0  0  0  0  0  2  0  0  0  0  0  0
  189.7530  177.7190  141.8100 C   0  0  1  0  0  3  0  0  0  0  0  0
  188.7460  177.0030  142.6950 C   0  0  1  0  0  3  0  0  0  0  0  0
  190.4520  176.7000  140.9320 C   0  0  0  0  0  2  0  0  0  0  0  0
  190.7330  177.2790  139.5500 C   0  0  0  0  0  2  0  0  0  0  0  0
  190.6850  174.2620  137.2870 C   0  0  0  0  0  2  0  0  0  0  0  0
  193.5280  175.7370  137.5350 C   0  0  0  0  0  2  0  0  0  0  0  0
  192.0080  176.8210  139.0430 N   0  0  0  0  0  0  0  0  0  0  0  0
  193.6500  174.2280  137.3480 C   0  0  0  0  0  2  0  0  0  0  0  0
  192.9310  173.8070  136.0740 C   0  0  0  0  0  2  0  0  0  0  0  0
  192.1470  176.1410  137.9540 C   0  0  0  0  0  0  0  0  0  0  0  0
  190.9650  175.7470  137.1080 C   0  0  0  0  0  2  0  0  0  0  0  0
  191.4790  173.3790  136.3190 C   0  0  0  0  0  2  0  0  0  0  0  0
  1  3  2  0  0  0  0
  2  1  1  0  0  0  0
  4  7  1  0  0  0  0
  4  8  1  0  0  0  0
  5  7  2  0  0  0  0
  6  5  1  0  0  0  0
  9  6  2  0  0  0  0
  9 11  1  0  0  0  0
 10  2  1  6  0  0  0
 10  9  1  0  0  0  0
 10 11  1  0  0  0  0
 11  4  2  0  0  0  0
 12  1  1  0  0  0  0
 12 14  1  0  0  0  0
 13 15  1  0  0  0  0
 14 16  1  0  0  0  0
 15 14  2  0  0  0  0
 17 12  2  0  0  0  0
 18 17  1  0  0  0  0
 18 13  2  0  0  0  0
 19 20  1  0  0  0  0
 19 21  1  0  0  0  0
 20 22  1  6  0  0  0
 20 21  1  0  0  0  0
 21  2  1  1  0  0  0
 23 22  1  0  0  0  0
 25 29  1  0  0  0  0
 26 23  1  0  0  0  0
 27 25  1  0  0  0  0
 28 31  1  0  0  0  0
 28 27  1  0  0  0  0
 29 26  2  0  0  0  0
 30 24  1  0  0  0  0
 30 29  1  0  0  0  0
 31 24  1  0  0  0  0
M  END
>  <MODEL>
3

>  <REMARK>
 VINA RESULT:      -9.5      1.565      2.346
  Name = 
  6 active torsions:
  status: ('A' for Active; 'I' for Inactive)
    1  A    between atoms: C_3  and  C_13
    2  A    between atoms: C_10  and  N_15
    3  A    between atoms: C_10  and  C_28
    4  A    between atoms: C_14  and  C_28
    5  A    between atoms: N_16  and  C_18
    6  A    between atoms: N_16  and  C_21
                            x       y       z     vdW  Elec       q    Type
                         _______ _______ _______ _____ _____    ______ ____

>  <TORSDO>
F 6

$$$$
=
 OpenBabel10222421433D

 31 35  0  0  1  0  0  0  0  0999 V2000
  187.5010  178.5500  137.3270 C   0  0  0  0  0  0  0  0  0  0  0  0
  188.7100  177.9010  137.7540 N   0  0  0  0  0  0  0  0  0  0  0  0
  187.5810  179.5870  136.6170 O   0  0  0  0  0  0  0  0  0  0  0  0
  191.7580  176.0920  137.9390 C   0  0  0  0  0  0  0  0  0  0  0  0
  190.5180  174.0340  137.0290 C   0  0  0  0  0  3  0  0  0  0  0  0
  189.4730  174.7400  136.4330 N   0  0  0  0  0  0  0  0  0  0  0  0
  191.6340  174.6650  137.7620 C   0  0  0  0  0  3  0  0  0  0  0  0
  192.8610  176.7650  138.6730 C   0  0  0  0  0  1  0  0  0  0  0  0
  189.6570  176.0410  136.6340 C   0  0  0  0  0  0  0  0  0  0  0  0
  189.6630  177.4430  136.7370 C   0  0  2  0  0  3  0  0  0  0  0  0
  190.7200  176.7300  137.3400 C   0  0  0  0  0  0  0  0  0  0  0  0
  186.1800  177.9740  137.6800 C   0  0  0  0  0  0  0  0  0  0  0  0
  183.6690  176.9640  138.4540 C   0  0  0  0  0  3  0  0  0  0  0  0
  185.6040  176.8770  136.9900 C   0  0  0  0  0  0  0  0  0  0  0  0
  184.3540  176.3860  137.3850 C   0  0  0  0  0  3  0  0  0  0  0  0
  186.2620  176.2250  135.8220 C   0  0  0  0  0  1  0  0  0  0  0  0
  185.4760  178.5390  138.7550 C   0  0  0  0  0  3  0  0  0  0  0  0
  184.2300  178.0410  139.1400 C   0  0  0  0  0  3  0  0  0  0  0  0
  188.0980  178.4200  140.0690 C   0  0  0  0  0  2  0  0  0  0  0  0
  188.9430  177.1670  140.0830 C   0  0  1  0  0  3  0  0  0  0  0  0
  189.2320  178.2650  139.0730 C   0  0  1  0  0  3  0  0  0  0  0  0
  189.9470  177.2600  141.2150 C   0  0  0  0  0  2  0  0  0  0  0  0
  189.5530  176.3420  142.3660 C   0  0  0  0  0  2  0  0  0  0  0  0
  189.4280  177.0990  146.0580 C   0  0  0  0  0  2  0  0  0  0  0  0
  186.7300  177.7470  144.4400 C   0  0  0  0  0  2  0  0  0  0  0  0
  188.2680  176.7160  142.9140 N   0  0  0  0  0  0  0  0  0  0  0  0
  186.4740  177.2870  145.8710 C   0  0  0  0  0  2  0  0  0  0  0  0
  187.2130  178.1950  146.8440 C   0  0  0  0  0  2  0  0  0  0  0  0
  188.1210  177.4210  143.9850 C   0  0  0  0  0  0  0  0  0  0  0  0
  189.3010  177.9140  144.7790 C   0  0  0  0  0  2  0  0  0  0  0  0
  188.6030  177.6670  147.2180 C   0  0  0  0  0  2  0  0  0  0  0  0
  1 12  1  0  0  0  0
  1  2  1  0  0  0  0
  3  1  2  0  0  0  0
  4  8  1  0  0  0  0
  5  7  2  0  0  0  0
  6  9  2  0  0  0  0
  6  5  1  0  0  0  0
  7  4  1  0  0  0  0
  9 10  1  0  0  0  0
  9 11  1  0  0  0  0
 10 11  1  0  0  0  0
 10  2  1  1  0  0  0
 11  4  2  0  0  0  0
 12 17  1  0  0  0  0
 13 18  1  0  0  0  0
 14 15  1  0  0  0  0
 14 12  2  0  0  0  0
 15 13  2  0  0  0  0
 16 14  1  0  0  0  0
 17 18  2  0  0  0  0
 19 20  1  0  0  0  0
 20 22  1  1  0  0  0
 21  2  1  6  0  0  0
 21 19  1  0  0  0  0
 21 20  1  0  0  0  0
 22 23  1  0  0  0  0
 23 26  1  0  0  0  0
 24 31  1  0  0  0  0
 25 27  1  0  0  0  0
 26 29  2  0  0  0  0
 27 28  1  0  0  0  0
 28 31  1  0  0  0  0
 29 25  1  0  0  0  0
 29 30  1  0  0  0  0
 30 24  1  0  0  0  0
M  END
>  <MODEL>
4

>  <REMARK>
 VINA RESULT:      -9.4      2.589      7.796
  Name = 
  6 active torsions:
  status: ('A' for Active; 'I' for Inactive)
    1  A    between atoms: C_3  and  C_13
    2  A    between atoms: C_10  and  N_15
    3  A    between atoms: C_10  and  C_28
    4  A    between atoms: C_14  and  C_28
    5  A    between atoms: N_16  and  C_18
    6  A    between atoms: N_16  and  C_21
                            x       y       z     vdW  Elec       q    Type
                         _______ _______ _______ _____ _____    ______ ____

>  <TORSDO>
F 6

$$$$
=
 OpenBabel10222421433D

 31 35  0  0  1  0  0  0  0  0999 V2000
  187.6150  177.1400  144.0620 C   0  0  0  0  0  0  0  0  0  0  0  0
  187.2310  178.0320  143.0010 N   0  0  0  0  0  0  0  0  0  0  0  0
  188.0860  176.0090  143.7700 O   0  0  0  0  0  0  0  0  0  0  0  0
  190.7360  178.5600  143.1910 C   0  0  0  0  0  0  0  0  0  0  0  0
  191.0740  176.3270  141.9650 C   0  0  0  0  0  3  0  0  0  0  0  0
  189.8080  176.2830  141.3820 N   0  0  0  0  0  0  0  0  0  0  0  0
  191.5460  177.4170  142.8420 C   0  0  0  0  0  3  0  0  0  0  0  0
  191.1700  179.6720  144.0740 C   0  0  0  0  0  1  0  0  0  0  0  0
  189.1250  177.3640  141.7440 C   0  0  0  0  0  0  0  0  0  0  0  0
  188.2380  178.4220  142.0080 C   0  0  2  0  0  3  0  0  0  0  0  0
  189.5180  178.4680  142.5980 C   0  0  0  0  0  0  0  0  0  0  0  0
  187.5010  177.5710  145.4770 C   0  0  0  0  0  0  0  0  0  0  0  0
  187.1610  178.4350  148.1350 C   0  0  0  0  0  3  0  0  0  0  0  0
  188.5630  177.4600  146.4090 C   0  0  0  0  0  0  0  0  0  0  0  0
  188.3800  177.8930  147.7270 C   0  0  0  0  0  3  0  0  0  0  0  0
  189.8850  176.8670  146.0560 C   0  0  0  0  0  1  0  0  0  0  0  0
  186.2820  178.1220  145.9060 C   0  0  0  0  0  3  0  0  0  0  0  0
  186.1110  178.5500  147.2240 C   0  0  0  0  0  3  0  0  0  0  0  0
  185.1270  179.2870  143.0160 C   0  0  0  0  0  2  0  0  0  0  0  0
  185.5510  179.1110  141.5770 C   0  0  1  0  0  3  0  0  0  0  0  0
  185.8270  178.0110  142.5880 C   0  0  1  0  0  3  0  0  0  0  0  0
  184.3400  178.7270  140.7480 C   0  0  0  0  0  2  0  0  0  0  0  0
  184.3850  179.3990  139.3810 C   0  0  0  0  0  2  0  0  0  0  0  0
  183.3420  175.9230  138.3560 C   0  0  0  0  0  2  0  0  0  0  0  0
  185.9000  177.0940  136.8030 C   0  0  0  0  0  2  0  0  0  0  0  0
  185.2670  178.6900  138.4810 N   0  0  0  0  0  0  0  0  0  0  0  0
  185.9640  175.5850  137.0100 C   0  0  0  0  0  2  0  0  0  0  0  0
  184.7310  174.9280  136.4040 C   0  0  0  0  0  2  0  0  0  0  0  0
  184.8830  177.7400  137.6960 C   0  0  0  0  0  0  0  0  0  0  0  0
  183.4520  177.2710  137.6590 C   0  0  0  0  0  2  0  0  0  0  0  0
  183.5950  174.7380  137.4170 C   0  0  0  0  0  2  0  0  0  0  0  0
  1 12  1  0  0  0  0
  2  1  1  0  0  0  0
  3  1  2  0  0  0  0
  4  8  1  0  0  0  0
  5  7  2  0  0  0  0
  6  9  2  0  0  0  0
  6  5  1  0  0  0  0
  7  4  1  0  0  0  0
  9 10  1  0  0  0  0
  9 11  1  0  0  0  0
 10 11  1  0  0  0  0
 10  2  1  1  0  0  0
 11  4  2  0  0  0  0
 12 17  2  0  0  0  0
 12 14  1  0  0  0  0
 14 15  2  0  0  0  0
 15 13  1  0  0  0  0
 16 14  1  0  0  0  0
 17 18  1  0  0  0  0
 18 13  2  0  0  0  0
 20 22  1  6  0  0  0
 20 21  1  0  0  0  0
 20 19  1  0  0  0  0
 21  2  1  1  0  0  0
 21 19  1  0  0  0  0
 23 22  1  0  0  0  0
 25 27  1  0  0  0  0
 25 29  1  0  0  0  0
 26 23  1  0  0  0  0
 28 27  1  0  0  0  0
 28 31  1  0  0  0  0
 29 26  2  0  0  0  0
 30 29  1  0  0  0  0
 30 24  1  0  0  0  0
 31 24  1  0  0  0  0
M  END
>  <MODEL>
5

>  <REMARK>
 VINA RESULT:      -9.1      2.464      4.368
  Name = 
  6 active torsions:
  status: ('A' for Active; 'I' for Inactive)
    1  A    between atoms: C_3  and  C_13
    2  A    between atoms: C_10  and  N_15
    3  A    between atoms: C_10  and  C_28
    4  A    between atoms: C_14  and  C_28
    5  A    between atoms: N_16  and  C_18
    6  A    between atoms: N_16  and  C_21
                            x       y       z     vdW  Elec       q    Type
                         _______ _______ _______ _____ _____    ______ ____

>  <TORSDO>
F 6

$$$$
=
 OpenBabel10222421433D

 31 35  0  0  1  0  0  0  0  0999 V2000
  187.2760  177.2880  144.1220 C   0  0  0  0  0  0  0  0  0  0  0  0
  187.5140  178.2630  143.0930 N   0  0  0  0  0  0  0  0  0  0  0  0
  187.1020  176.0840  143.7950 O   0  0  0  0  0  0  0  0  0  0  0  0
  191.0250  178.2550  143.6130 C   0  0  0  0  0  0  0  0  0  0  0  0
  190.9940  175.7000  143.3450 C   0  0  0  0  0  3  0  0  0  0  0  0
  189.7970  175.6380  142.6310 N   0  0  0  0  0  0  0  0  0  0  0  0
  191.6080  176.9530  143.8290 C   0  0  0  0  0  3  0  0  0  0  0  0
  191.6060  179.5370  144.0890 C   0  0  0  0  0  1  0  0  0  0  0  0
  189.3250  176.8690  142.4680 C   0  0  0  0  0  0  0  0  0  0  0  0
  188.6560  178.0750  142.1930 C   0  0  2  0  0  3  0  0  0  0  0  0
  189.8660  178.1390  142.9140 C   0  0  0  0  0  0  0  0  0  0  0  0
  187.2840  177.6910  145.5490 C   0  0  0  0  0  0  0  0  0  0  0  0
  187.4260  178.4110  148.2680 C   0  0  0  0  0  3  0  0  0  0  0  0
  186.1430  178.2040  146.2170 C   0  0  0  0  0  0  0  0  0  0  0  0
  186.2280  178.5600  147.5670 C   0  0  0  0  0  3  0  0  0  0  0  0
  184.8370  178.4180  145.5290 C   0  0  0  0  0  1  0  0  0  0  0  0
  188.4790  177.5470  146.2720 C   0  0  0  0  0  3  0  0  0  0  0  0
  188.5520  177.9040  147.6200 C   0  0  0  0  0  3  0  0  0  0  0  0
  186.2130  178.8090  141.0900 C   0  0  0  0  0  2  0  0  0  0  0  0
  185.3150  178.0380  142.0290 C   0  0  1  0  0  3  0  0  0  0  0  0
  186.3520  178.9970  142.5890 C   0  0  1  0  0  3  0  0  0  0  0  0
  183.9530  178.7040  142.0690 C   0  0  0  0  0  2  0  0  0  0  0  0
  183.3430  178.7730  140.6750 C   0  0  0  0  0  2  0  0  0  0  0  0
  183.0830  177.6650  137.0790 C   0  0  0  0  0  2  0  0  0  0  0  0
  181.7670  175.6660  139.2230 C   0  0  0  0  0  2  0  0  0  0  0  0
  182.5250  177.6110  140.4050 N   0  0  0  0  0  0  0  0  0  0  0  0
  181.0290  175.6840  137.8880 C   0  0  0  0  0  2  0  0  0  0  0  0
  181.9910  175.3340  136.7620 C   0  0  0  0  0  2  0  0  0  0  0  0
  182.6770  176.8470  139.3760 C   0  0  0  0  0  0  0  0  0  0  0  0
  183.7360  177.1140  138.3390 C   0  0  0  0  0  2  0  0  0  0  0  0
  182.6250  176.5690  136.1100 C   0  0  0  0  0  2  0  0  0  0  0  0
  1 12  1  0  0  0  0
  2  1  1  0  0  0  0
  3  1  2  0  0  0  0
  4  7  1  0  0  0  0
  4  8  1  0  0  0  0
  5  7  2  0  0  0  0
  6  5  1  0  0  0  0
  9  6  2  0  0  0  0
  9 11  1  0  0  0  0
 10  9  1  0  0  0  0
 10 11  1  0  0  0  0
 10  2  1  1  0  0  0
 11  4  2  0  0  0  0
 12 14  2  0  0  0  0
 12 17  1  0  0  0  0
 14 15  1  0  0  0  0
 15 13  2  0  0  0  0
 16 14  1  0  0  0  0
 17 18  2  0  0  0  0
 18 13  1  0  0  0  0
 19 20  1  0  0  0  0
 19 21  1  0  0  0  0
 20 22  1  6  0  0  0
 20 21  1  0  0  0  0
 21  2  1  1  0  0  0
 23 22  1  0  0  0  0
 24 30  1  0  0  0  0
 25 29  1  0  0  0  0
 26 23  1  0  0  0  0
 27 25  1  0  0  0  0
 28 27  1  0  0  0  0
 29 26  2  0  0  0  0
 30 29  1  0  0  0  0
 31 28  1  0  0  0  0
 31 24  1  0  0  0  0
M  END
>  <MODEL>
6

>  <REMARK>
 VINA RESULT:      -9.1      2.966      4.905
  Name = 
  6 active torsions:
  status: ('A' for Active; 'I' for Inactive)
    1  A    between atoms: C_3  and  C_13
    2  A    between atoms: C_10  and  N_15
    3  A    between atoms: C_10  and  C_28
    4  A    between atoms: C_14  and  C_28
    5  A    between atoms: N_16  and  C_18
    6  A    between atoms: N_16  and  C_21
                            x       y       z     vdW  Elec       q    Type
                         _______ _______ _______ _____ _____    ______ ____

>  <TORSDO>
F 6

$$$$
=
 OpenBabel10222421433D

 31 35  0  0  1  0  0  0  0  0999 V2000
  187.3760  176.3680  135.8280 C   0  0  0  0  0  0  0  0  0  0  0  0
  188.5830  176.7870  136.4870 N   0  0  0  0  0  0  0  0  0  0  0  0
  187.0910  176.8610  134.7040 O   0  0  0  0  0  0  0  0  0  0  0  0
  191.7980  175.7610  137.5860 C   0  0  0  0  0  0  0  0  0  0  0  0
  191.3970  173.4970  136.4380 C   0  0  0  0  0  3  0  0  0  0  0  0
  190.4240  173.9500  135.5480 N   0  0  0  0  0  0  0  0  0  0  0  0
  192.0770  174.3530  137.4320 C   0  0  0  0  0  3  0  0  0  0  0  0
  192.4540  176.6540  138.5760 C   0  0  0  0  0  1  0  0  0  0  0  0
  190.2260  175.2490  135.7460 C   0  0  0  0  0  0  0  0  0  0  0  0
  189.8650  176.6070  135.7960 C   0  0  2  0  0  3  0  0  0  0  0  0
  190.8480  176.1500  136.6970 C   0  0  0  0  0  0  0  0  0  0  0  0
  186.5090  175.3350  136.4450 C   0  0  0  0  0  0  0  0  0  0  0  0
  184.9690  173.2940  137.6240 C   0  0  0  0  0  3  0  0  0  0  0  0
  185.1090  175.4920  136.6030 C   0  0  0  0  0  0  0  0  0  0  0  0
  184.3550  174.4700  137.1910 C   0  0  0  0  0  3  0  0  0  0  0  0
  184.3860  176.7310  136.1910 C   0  0  0  0  0  1  0  0  0  0  0  0
  187.1070  174.1430  136.8840 C   0  0  0  0  0  3  0  0  0  0  0  0
  186.3460  173.1290  137.4700 C   0  0  0  0  0  3  0  0  0  0  0  0
  187.1550  177.7900  138.2080 C   0  0  0  0  0  2  0  0  0  0  0  0
  188.4330  177.3360  138.8740 C   0  0  1  0  0  3  0  0  0  0  0  0
  188.4700  177.8800  137.4550 C   0  0  1  0  0  3  0  0  0  0  0  0
  188.9040  178.4160  139.8290 C   0  0  0  0  0  2  0  0  0  0  0  0
  188.1680  178.3200  141.1600 C   0  0  0  0  0  2  0  0  0  0  0  0
  186.6820  177.9240  144.6030 C   0  0  0  0  0  2  0  0  0  0  0  0
  189.8540  177.4480  144.4220 C   0  0  0  0  0  2  0  0  0  0  0  0
  189.0950  178.1500  142.2570 N   0  0  0  0  0  0  0  0  0  0  0  0
  189.4150  178.0640  145.7460 C   0  0  0  0  0  2  0  0  0  0  0  0
  188.3790  177.1690  146.4130 C   0  0  0  0  0  2  0  0  0  0  0  0
  188.7940  177.5680  143.3690 C   0  0  0  0  0  0  0  0  0  0  0  0
  187.4180  177.0150  143.6290 C   0  0  0  0  0  2  0  0  0  0  0  0
  186.9380  177.5640  146.0710 C   0  0  0  0  0  2  0  0  0  0  0  0
  1 12  1  0  0  0  0
  1  2  1  0  0  0  0
  3  1  2  0  0  0  0
  4  8  1  0  0  0  0
  5  7  2  0  0  0  0
  6  9  2  0  0  0  0
  6  5  1  0  0  0  0
  7  4  1  0  0  0  0
  9 10  1  0  0  0  0
  9 11  1  0  0  0  0
 10  2  1  1  0  0  0
 10 11  1  0  0  0  0
 11  4  2  0  0  0  0
 12 14  2  0  0  0  0
 12 17  1  0  0  0  0
 14 15  1  0  0  0  0
 15 13  2  0  0  0  0
 16 14  1  0  0  0  0
 17 18  2  0  0  0  0
 18 13  1  0  0  0  0
 19 20  1  0  0  0  0
 20 22  1  1  0  0  0
 21  2  1  6  0  0  0
 21 19  1  0  0  0  0
 21 20  1  0  0  0  0
 22 23  1  0  0  0  0
 23 26  1  0  0  0  0
 24 31  1  0  0  0  0
 25 27  1  0  0  0  0
 26 29  2  0  0  0  0
 27 28  1  0  0  0  0
 29 30  1  0  0  0  0
 29 25  1  0  0  0  0
 30 24  1  0  0  0  0
 31 28  1  0  0  0  0
M  END
>  <MODEL>
7

>  <REMARK>
 VINA RESULT:      -9.0      3.035      8.342
  Name = 
  6 active torsions:
  status: ('A' for Active; 'I' for Inactive)
    1  A    between atoms: C_3  and  C_13
    2  A    between atoms: C_10  and  N_15
    3  A    between atoms: C_10  and  C_28
    4  A    between atoms: C_14  and  C_28
    5  A    between atoms: N_16  and  C_18
    6  A    between atoms: N_16  and  C_21
                            x       y       z     vdW  Elec       q    Type
                         _______ _______ _______ _____ _____    ______ ____

>  <TORSDO>
F 6

$$$$
=
 OpenBabel10222421433D

 31 35  0  0  1  0  0  0  0  0999 V2000
  187.9570  177.0050  142.8340 C   0  0  0  0  0  0  0  0  0  0  0  0
  188.6910  177.8580  141.9400 N   0  0  0  0  0  0  0  0  0  0  0  0
  187.9950  175.7580  142.6590 O   0  0  0  0  0  0  0  0  0  0  0  0
  191.4240  178.4880  144.1150 C   0  0  0  0  0  0  0  0  0  0  0  0
  191.5950  175.9570  144.5290 C   0  0  0  0  0  3  0  0  0  0  0  0
  190.9420  175.5690  143.3590 N   0  0  0  0  0  0  0  0  0  0  0  0
  191.8400  177.3620  144.9160 C   0  0  0  0  0  3  0  0  0  0  0  0
  191.6460  179.9130  144.4710 C   0  0  0  0  0  1  0  0  0  0  0  0
  190.5950  176.6550  142.6750 C   0  0  0  0  0  0  0  0  0  0  0  0
  190.1390  177.6620  141.8070 C   0  0  2  0  0  3  0  0  0  0  0  0
  190.7980  178.0560  142.9900 C   0  0  0  0  0  0  0  0  0  0  0  0
  187.2060  177.5880  143.9730 C   0  0  0  0  0  0  0  0  0  0  0  0
  185.8860  178.6630  146.2150 C   0  0  0  0  0  3  0  0  0  0  0  0
  185.8730  178.0580  143.8640 C   0  0  0  0  0  0  0  0  0  0  0  0
  185.2290  178.5910  144.9860 C   0  0  0  0  0  3  0  0  0  0  0  0
  185.1160  178.0400  142.5790 C   0  0  0  0  0  1  0  0  0  0  0  0
  187.8480  177.6660  145.2200 C   0  0  0  0  0  3  0  0  0  0  0  0
  187.1960  178.2000  146.3330 C   0  0  0  0  0  3  0  0  0  0  0  0
  188.9240  178.7890  139.6850 C   0  0  0  0  0  2  0  0  0  0  0  0
  188.1190  177.5150  139.5790 C   0  0  1  0  0  3  0  0  0  0  0  0
  187.9620  178.4110  140.7970 C   0  0  1  0  0  3  0  0  0  0  0  0
  186.9480  177.7460  138.6430 C   0  0  0  0  0  2  0  0  0  0  0  0
  187.2370  177.1670  137.2630 C   0  0  0  0  0  2  0  0  0  0  0  0
  183.9310  175.3520  137.2550 C   0  0  0  0  0  2  0  0  0  0  0  0
  186.5200  173.4730  136.9560 C   0  0  0  0  0  2  0  0  0  0  0  0
  187.2840  175.7210  137.3040 N   0  0  0  0  0  0  0  0  0  0  0  0
  185.3810  172.8070  137.7210 C   0  0  0  0  0  2  0  0  0  0  0  0
  184.1230  172.7950  136.8640 C   0  0  0  0  0  2  0  0  0  0  0  0
  186.3400  174.9590  136.8640 C   0  0  0  0  0  0  0  0  0  0  0  0
  185.0770  175.5220  136.2680 C   0  0  0  0  0  2  0  0  0  0  0  0
  183.2140  174.0040  137.1180 C   0  0  0  0  0  2  0  0  0  0  0  0
  1 12  1  0  0  0  0
  2  1  1  0  0  0  0
  3  1  2  0  0  0  0
  4  8  1  0  0  0  0
  4  7  1  0  0  0  0
  5  7  2  0  0  0  0
  6  5  1  0  0  0  0
  9 11  1  0  0  0  0
  9  6  2  0  0  0  0
 10  2  1  1  0  0  0
 10  9  1  0  0  0  0
 10 11  1  0  0  0  0
 11  4  2  0  0  0  0
 12 17  1  0  0  0  0
 13 18  1  0  0  0  0
 14 12  2  0  0  0  0
 14 15  1  0  0  0  0
 15 13  2  0  0  0  0
 16 14  1  0  0  0  0
 17 18  2  0  0  0  0
 19 21  1  0  0  0  0
 20 22  1  6  0  0  0
 20 19  1  0  0  0  0
 20 21  1  0  0  0  0
 21  2  1  1  0  0  0
 23 26  1  0  0  0  0
 23 22  1  0  0  0  0
 25 27  1  0  0  0  0
 28 31  1  0  0  0  0
 28 27  1  0  0  0  0
 29 25  1  0  0  0  0
 29 26  2  0  0  0  0
 30 29  1  0  0  0  0
 30 24  1  0  0  0  0
 31 24  1  0  0  0  0
M  END
>  <MODEL>
8

>  <REMARK>
 VINA RESULT:      -9.0      2.518      3.672
  Name = 
  6 active torsions:
  status: ('A' for Active; 'I' for Inactive)
    1  A    between atoms: C_3  and  C_13
    2  A    between atoms: C_10  and  N_15
    3  A    between atoms: C_10  and  C_28
    4  A    between atoms: C_14  and  C_28
    5  A    between atoms: N_16  and  C_18
    6  A    between atoms: N_16  and  C_21
                            x       y       z     vdW  Elec       q    Type
                         _______ _______ _______ _____ _____    ______ ____

>  <TORSDO>
F 6

$$$$
=
 OpenBabel10222421433D

 31 35  0  0  1  0  0  0  0  0999 V2000
  188.2060  176.7300  142.7450 C   0  0  0  0  0  0  0  0  0  0  0  0
  188.9460  177.3940  141.7070 N   0  0  0  0  0  0  0  0  0  0  0  0
  188.4190  175.5080  142.9620 O   0  0  0  0  0  0  0  0  0  0  0  0
  191.2470  178.5710  144.1400 C   0  0  0  0  0  0  0  0  0  0  0  0
  191.6910  176.1290  144.8080 C   0  0  0  0  0  3  0  0  0  0  0  0
  191.2630  175.5650  143.6060 N   0  0  0  0  0  0  0  0  0  0  0  0
  191.6930  177.5790  145.0890 C   0  0  0  0  0  3  0  0  0  0  0  0
  191.2280  180.0360  144.3860 C   0  0  0  0  0  1  0  0  0  0  0  0
  190.8730  176.5350  142.7850 C   0  0  0  0  0  0  0  0  0  0  0  0
  190.4120  177.3980  141.7770 C   0  0  2  0  0  3  0  0  0  0  0  0
  190.8440  177.9700  142.9910 C   0  0  0  0  0  0  0  0  0  0  0  0
  187.2420  177.4900  143.5770 C   0  0  0  0  0  0  0  0  0  0  0  0
  185.3470  178.9680  145.0440 C   0  0  0  0  0  3  0  0  0  0  0  0
  187.3840  177.6490  144.9790 C   0  0  0  0  0  0  0  0  0  0  0  0
  186.4340  178.3850  145.6960 C   0  0  0  0  0  3  0  0  0  0  0  0
  188.5030  177.0340  145.7490 C   0  0  0  0  0  1  0  0  0  0  0  0
  186.1420  178.0870  142.9400 C   0  0  0  0  0  3  0  0  0  0  0  0
  185.2000  178.8200  143.6650 C   0  0  0  0  0  3  0  0  0  0  0  0
  188.9480  178.5820  139.5640 C   0  0  0  0  0  2  0  0  0  0  0  0
  189.3240  177.1440  139.2960 C   0  0  1  0  0  3  0  0  0  0  0  0
  188.3190  177.4740  140.3870 C   0  0  1  0  0  3  0  0  0  0  0  0
  188.5780  176.6580  138.0680 C   0  0  0  0  0  2  0  0  0  0  0  0
  189.5350  176.4560  136.8990 C   0  0  0  0  0  2  0  0  0  0  0  0
  191.9890  173.6180  136.5240 C   0  0  0  0  0  2  0  0  0  0  0  0
  193.2860  176.4480  137.3180 C   0  0  0  0  0  2  0  0  0  0  0  0
  190.9020  176.7170  137.2930 N   0  0  0  0  0  0  0  0  0  0  0  0
  194.0270  175.2590  137.9200 C   0  0  0  0  0  2  0  0  0  0  0  0
  194.4710  174.3130  136.8130 C   0  0  0  0  0  2  0  0  0  0  0  0
  191.9190  176.0690  136.8330 C   0  0  0  0  0  0  0  0  0  0  0  0
  191.7640  174.9550  135.8320 C   0  0  0  0  0  2  0  0  0  0  0  0
  193.4610  173.1910  136.5430 C   0  0  0  0  0  2  0  0  0  0  0  0
  1  3  2  0  0  0  0
  1 12  1  0  0  0  0
  2  1  1  0  0  0  0
  4  8  1  0  0  0  0
  4  7  1  0  0  0  0
  5  7  2  0  0  0  0
  6  5  1  0  0  0  0
  9 11  1  0  0  0  0
  9  6  2  0  0  0  0
 10  2  1  1  0  0  0
 10  9  1  0  0  0  0
 10 11  1  0  0  0  0
 11  4  2  0  0  0  0
 12 14  1  0  0  0  0
 13 15  1  0  0  0  0
 14 15  2  0  0  0  0
 14 16  1  0  0  0  0
 17 12  2  0  0  0  0
 17 18  1  0  0  0  0
 18 13  2  0  0  0  0
 19 21  1  0  0  0  0
 20 22  1  6  0  0  0
 20 19  1  0  0  0  0
 20 21  1  0  0  0  0
 21  2  1  1  0  0  0
 23 26  1  0  0  0  0
 23 22  1  0  0  0  0
 24 31  1  0  0  0  0
 25 27  1  0  0  0  0
 28 27  1  0  0  0  0
 29 26  2  0  0  0  0
 29 25  1  0  0  0  0
 30 24  1  0  0  0  0
 30 29  1  0  0  0  0
 31 28  1  0  0  0  0
M  END
>  <MODEL>
9

>  <REMARK>
 VINA RESULT:      -9.0      2.230      3.632
  Name = 
  6 active torsions:
  status: ('A' for Active; 'I' for Inactive)
    1  A    between atoms: C_3  and  C_13
    2  A    between atoms: C_10  and  N_15
    3  A    between atoms: C_10  and  C_28
    4  A    between atoms: C_14  and  C_28
    5  A    between atoms: N_16  and  C_18
    6  A    between atoms: N_16  and  C_21
                            x       y       z     vdW  Elec       q    Type
                         _______ _______ _______ _____ _____    ______ ____

>  <TORSDO>
F 6

$$$$
