=
 OpenBabel10232411143D

 33 37  0  0  1  0  0  0  0  0999 V2000
  191.3770  176.7110  147.0650 C   0  0  0  0  0  0  0  0  0  0  0  0
  192.1000  176.3860  148.0420 O   0  0  0  0  0  0  0  0  0  0  0  0
  191.9880  177.0470  145.9090 N   0  0  0  0  0  0  0  0  0  0  0  0
  190.1830  177.6110  144.2810 C   0  0  2  0  0  3  0  0  0  0  0  0
  190.0090  176.6990  147.2610 C   0  0  0  0  0  2  0  0  0  0  0  0
  188.9910  177.0060  146.3800 C   0  0  0  0  0  3  0  0  0  0  0  0
  191.5050  177.4340  144.7070 C   0  0  0  0  0  3  0  0  0  0  0  0
  187.8830  177.6400  144.4470 N   0  0  0  0  0  2  0  0  0  0  0  0
  189.0210  177.4150  145.0460 C   0  0  0  0  0  0  0  0  0  0  0  0
  186.4650  178.3180  146.3040 C   0  0  0  0  0  2  0  0  0  0  0  0
  186.5580  177.4850  145.0420 C   0  0  1  0  0  3  0  0  0  0  0  0
  185.0400  178.8190  146.3540 C   0  0  0  0  0  2  0  0  0  0  0  0
  185.4890  178.0110  144.0960 C   0  0  0  0  0  2  0  0  0  0  0  0
  184.6270  178.9660  144.9040 C   0  0  1  0  0  3  0  0  0  0  0  0
  183.1350  178.7150  144.6980 C   0  0  0  0  0  2  0  0  0  0  0  0
  182.5150  179.6680  143.6800 C   0  0  0  0  0  2  0  0  0  0  0  0
  183.0010  178.4740  141.6030 C   0  0  0  0  0  3  0  0  0  0  0  0
  179.9840  180.0570  142.0030 N   0  0  0  0  0  1  0  0  0  0  0  0
  182.6150  177.7500  140.4320 N   0  0  0  0  0  0  0  0  0  0  0  0
  182.0810  178.9240  142.4620 C   0  0  0  0  0  0  0  0  0  0  0  0
  180.2910  177.8840  141.0000 C   0  0  0  0  0  3  0  0  0  0  0  0
  180.6020  178.7560  142.1900 C   0  0  0  0  0  0  0  0  0  0  0  0
  181.2420  177.4390  140.1810 C   0  0  0  0  0  3  0  0  0  0  0  0
  189.9870  178.0270  142.9520 O   0  0  0  0  0  0  0  0  0  0  0  0
  190.0780  177.9490  140.5870 C   0  0  1  0  0  3  0  0  0  0  0  0
  190.0580  177.1530  141.8310 C   0  0  1  0  0  3  0  0  0  0  0  0
  191.2520  177.3990  141.1310 O   0  0  0  0  0  0  0  0  0  0  0  0
  189.6210  177.0880  139.4260 C   0  0  0  0  0  2  0  0  0  0  0  0
  188.2060  179.4620  137.1690 N   0  0  0  0  0  0  0  0  0  0  0  0
  188.8040  177.9000  138.4840 C   0  0  0  0  0  0  0  0  0  0  0  0
  189.2290  179.0210  137.8800 N   0  0  0  0  0  2  0  0  0  0  0  0
  187.1510  178.6720  137.3060 N   0  0  0  0  0  0  0  0  0  0  0  0
  187.4910  177.6690  138.1400 C   0  0  0  0  0  3  0  0  0  0  0  0
  1  5  1  0  0  0  0
  1  2  2  0  0  0  0
  3  1  1  0  0  0  0
  4 24  1  6  0  0  0
  4  7  1  0  0  0  0
  4  9  1  0  0  0  0
  6  5  1  0  0  0  0
  7  3  2  0  0  0  0
  8  9  1  0  0  0  0
  9  6  2  0  0  0  0
 10 12  1  0  0  0  0
 11  8  1  6  0  0  0
 11 10  1  0  0  0  0
 13 14  1  0  0  0  0
 13 11  1  0  0  0  0
 14 15  1  1  0  0  0
 14 12  1  0  0  0  0
 16 15  1  0  0  0  0
 17 20  1  0  0  0  0
 18 22  1  0  0  0  0
 19 17  2  0  0  0  0
 20 16  1  0  0  0  0
 21 22  1  0  0  0  0
 22 20  2  0  0  0  0
 23 19  1  0  0  0  0
 23 21  2  0  0  0  0
 25 28  1  6  0  0  0
 25 27  1  0  0  0  0
 25 26  1  0  0  0  0
 26 24  1  1  0  0  0
 27 26  1  0  0  0  0
 29 32  2  0  0  0  0
 29 31  1  0  0  0  0
 30 28  1  0  0  0  0
 31 30  1  0  0  0  0
 32 33  1  0  0  0  0
 33 30  2  0  0  0  0
M  END
>  <MODEL>
1

>  <REMARK>
 VINA RESULT:      -9.3      0.000      0.000
  Name = 
  8 active torsions:
  status: ('A' for Active; 'I' for Inactive)
    1  A    between atoms: C_6  and  C_25
    2  A    between atoms: C_9  and  C_29
    3  A    between atoms: C_11  and  O_22
    4  A    between atoms: C_13  and  O_22
    5  A    between atoms: C_14  and  C_25
    6  A    between atoms: C_15  and  C_29
    7  A    between atoms: C_15  and  C_32
    8  A    between atoms: C_17  and  N_31
                            x       y       z     vdW  Elec       q    Type
                         _______ _______ _______ _____ _____    ______ ____

>  <TORSDO>
F 8

$$$$
=
 OpenBabel10232411143D

 33 37  0  0  1  0  0  0  0  0999 V2000
  190.3570  176.9770  146.6370 C   0  0  0  0  0  0  0  0  0  0  0  0
  190.9060  176.6630  147.7250 O   0  0  0  0  0  0  0  0  0  0  0  0
  191.1540  177.2440  145.5810 N   0  0  0  0  0  0  0  0  0  0  0  0
  189.6490  177.8110  143.6730 C   0  0  2  0  0  3  0  0  0  0  0  0
  188.9770  177.0240  146.6170 C   0  0  0  0  0  3  0  0  0  0  0  0
  188.1220  177.3340  145.5780 C   0  0  0  0  0  3  0  0  0  0  0  0
  190.8810  177.6010  144.3060 C   0  0  0  0  0  3  0  0  0  0  0  0
  187.3550  177.9330  143.4760 N   0  0  0  0  0  0  0  0  0  0  0  0
  188.3760  177.6890  144.2520 C   0  0  0  0  0  0  0  0  0  0  0  0
  185.5730  179.0680  144.6820 C   0  0  0  0  0  2  0  0  0  0  0  0
  185.9490  177.8510  143.8610 C   0  0  1  0  0  3  0  0  0  0  0  0
  184.1430  179.3830  144.3060 C   0  0  0  0  0  2  0  0  0  0  0  0
  185.0600  177.8710  142.6260 C   0  0  0  0  0  2  0  0  0  0  0  0
  184.0140  178.9470  142.8610 C   0  0  1  0  0  3  0  0  0  0  0  0
  182.6040  178.4670  142.5260 C   0  0  0  0  0  2  0  0  0  0  0  0
  182.1020  179.0100  141.1910 C   0  0  0  0  0  2  0  0  0  0  0  0
  182.5660  176.8790  140.0870 C   0  0  0  0  0  3  0  0  0  0  0  0
  184.5470  179.6070  139.4470 N   0  0  0  0  0  1  0  0  0  0  0  0
  183.0790  176.0900  139.0100 N   0  0  0  0  0  0  0  0  0  0  0  0
  182.6560  178.2130  140.0580 C   0  0  0  0  0  0  0  0  0  0  0  0
  183.7730  178.0320  137.7910 C   0  0  0  0  0  3  0  0  0  0  0  0
  183.3690  178.9300  138.9320 C   0  0  0  0  0  0  0  0  0  0  0  0
  183.6460  176.7070  137.8520 C   0  0  0  0  0  3  0  0  0  0  0  0
  189.6800  178.1820  142.3170 O   0  0  0  0  0  0  0  0  0  0  0  0
  189.2460  177.9600  139.9980 C   0  0  1  0  0  3  0  0  0  0  0  0
  189.6170  177.2520  141.2410 C   0  0  1  0  0  3  0  0  0  0  0  0
  190.5760  177.6010  140.2740 O   0  0  0  0  0  0  0  0  0  0  0  0
  188.6630  176.9730  139.0070 C   0  0  0  0  0  2  0  0  0  0  0  0
  187.3850  179.2940  136.6160 N   0  0  0  0  0  0  0  0  0  0  0  0
  188.0550  177.7040  137.8630 C   0  0  0  0  0  0  0  0  0  0  0  0
  188.0550  179.0400  137.7270 N   0  0  0  0  0  2  0  0  0  0  0  0
  186.9550  178.1750  136.0500 N   0  0  0  0  0  0  0  0  0  0  0  0
  187.3570  177.1420  136.8170 C   0  0  0  0  0  3  0  0  0  0  0  0
  1  2  2  0  0  0  0
  3  1  1  0  0  0  0
  4 24  1  6  0  0  0
  4  9  1  0  0  0  0
  4  7  1  0  0  0  0
  5  1  1  0  0  0  0
  6  5  2  0  0  0  0
  7  3  2  0  0  0  0
  8  9  2  0  0  0  0
  9  6  1  0  0  0  0
 11  8  1  6  0  0  0
 11 10  1  0  0  0  0
 12 10  1  0  0  0  0
 13 14  1  0  0  0  0
 13 11  1  0  0  0  0
 14 15  1  1  0  0  0
 14 12  1  0  0  0  0
 16 15  1  0  0  0  0
 19 17  2  0  0  0  0
 20 17  1  0  0  0  0
 20 16  1  0  0  0  0
 21 23  2  0  0  0  0
 21 22  1  0  0  0  0
 22 18  1  0  0  0  0
 22 20  2  0  0  0  0
 23 19  1  0  0  0  0
 25 28  1  6  0  0  0
 25 27  1  0  0  0  0
 25 26  1  0  0  0  0
 26 24  1  1  0  0  0
 27 26  1  0  0  0  0
 29 31  1  0  0  0  0
 30 28  1  0  0  0  0
 31 30  1  0  0  0  0
 32 29  2  0  0  0  0
 32 33  1  0  0  0  0
 33 30  2  0  0  0  0
M  END
>  <MODEL>
2

>  <REMARK>
 VINA RESULT:      -8.8      1.522      2.125
  Name = 
  8 active torsions:
  status: ('A' for Active; 'I' for Inactive)
    1  A    between atoms: C_6  and  C_25
    2  A    between atoms: C_9  and  C_29
    3  A    between atoms: C_11  and  O_22
    4  A    between atoms: C_13  and  O_22
    5  A    between atoms: C_14  and  C_25
    6  A    between atoms: C_15  and  C_29
    7  A    between atoms: C_15  and  C_32
    8  A    between atoms: C_17  and  N_31
                            x       y       z     vdW  Elec       q    Type
                         _______ _______ _______ _____ _____    ______ ____

>  <TORSDO>
F 8

$$$$
=
 OpenBabel10232411143D

 33 37  0  0  1  0  0  0  0  0999 V2000
  191.1930  176.8710  147.1240 C   0  0  0  0  0  0  0  0  0  0  0  0
  192.1170  176.7170  147.9640 O   0  0  0  0  0  0  0  0  0  0  0  0
  189.9190  176.7580  147.5570 N   0  0  0  0  0  0  0  0  0  0  0  0
  188.4520  177.1340  145.5730 C   0  0  2  0  0  3  0  0  0  0  0  0
  191.5630  177.1430  145.8210 C   0  0  0  0  0  3  0  0  0  0  0  0
  190.7740  177.3550  144.7080 C   0  0  0  0  0  3  0  0  0  0  0  0
  188.7320  176.8650  146.9190 C   0  0  0  0  0  3  0  0  0  0  0  0
  188.9060  177.5940  143.3600 N   0  0  0  0  0  0  0  0  0  0  0  0
  189.3870  177.3620  144.5510 C   0  0  0  0  0  0  0  0  0  0  0  0
  190.3830  176.6040  141.6990 C   0  0  0  0  0  2  0  0  0  0  0  0
  189.6900  177.8710  142.1590 C   0  0  1  0  0  3  0  0  0  0  0  0
  190.3940  176.6750  140.1890 C   0  0  0  0  0  2  0  0  0  0  0  0
  188.7780  178.3030  141.0200 C   0  0  0  0  0  2  0  0  0  0  0  0
  189.1350  177.4360  139.8260 C   0  0  1  0  0  3  0  0  0  0  0  0
  189.3020  178.2520  138.5460 C   0  0  0  0  0  2  0  0  0  0  0  0
  189.2530  177.3890  137.2890 C   0  0  0  0  0  2  0  0  0  0  0  0
  187.8080  175.4250  137.1120 C   0  0  0  0  0  3  0  0  0  0  0  0
  186.8290  178.4030  135.7190 N   0  0  0  0  0  1  0  0  0  0  0  0
  186.5320  174.7920  136.9790 N   0  0  0  0  0  0  0  0  0  0  0  0
  187.9090  176.7570  137.1380 C   0  0  0  0  0  0  0  0  0  0  0  0
  185.3880  176.8970  136.9330 C   0  0  0  0  0  3  0  0  0  0  0  0
  186.6970  177.6430  136.9500 C   0  0  0  0  0  0  0  0  0  0  0  0
  185.3310  175.5660  136.9300 C   0  0  0  0  0  3  0  0  0  0  0  0
  187.0980  177.1850  145.1970 O   0  0  0  0  0  0  0  0  0  0  0  0
  185.0960  178.1020  144.3230 C   0  0  1  0  0  3  0  0  0  0  0  0
  186.3780  178.3960  144.9960 C   0  0  1  0  0  3  0  0  0  0  0  0
  185.1660  178.3350  145.7070 O   0  0  0  0  0  0  0  0  0  0  0  0
  184.5850  179.3530  143.6360 C   0  0  0  0  0  2  0  0  0  0  0  0
  185.1900  179.2900  140.1200 N   0  0  0  0  0  0  0  0  0  0  0  0
  184.6000  179.1630  142.1610 C   0  0  0  0  0  0  0  0  0  0  0  0
  185.5620  179.6230  141.3440 N   0  0  0  0  0  2  0  0  0  0  0  0
  184.0310  178.6480  140.1290 N   0  0  0  0  0  0  0  0  0  0  0  0
  183.6210  178.5520  141.4100 C   0  0  0  0  0  3  0  0  0  0  0  0
  1  3  1  0  0  0  0
  1  2  2  0  0  0  0
  4 24  1  1  0  0  0
  4  7  1  0  0  0  0
  5  1  1  0  0  0  0
  6  5  2  0  0  0  0
  7  3  2  0  0  0  0
  8  9  2  0  0  0  0
  9  6  1  0  0  0  0
  9  4  1  0  0  0  0
 10 11  1  0  0  0  0
 11  8  1  1  0  0  0
 12 10  1  0  0  0  0
 13 11  1  0  0  0  0
 14 15  1  6  0  0  0
 14 12  1  0  0  0  0
 14 13  1  0  0  0  0
 16 15  1  0  0  0  0
 17 20  1  0  0  0  0
 18 22  1  0  0  0  0
 19 17  2  0  0  0  0
 20 16  1  0  0  0  0
 21 22  1  0  0  0  0
 22 20  2  0  0  0  0
 23 21  2  0  0  0  0
 23 19  1  0  0  0  0
 25 28  1  6  0  0  0
 25 26  1  0  0  0  0
 25 27  1  0  0  0  0
 26 24  1  1  0  0  0
 26 27  1  0  0  0  0
 29 32  2  0  0  0  0
 29 31  1  0  0  0  0
 30 28  1  0  0  0  0
 31 30  1  0  0  0  0
 32 33  1  0  0  0  0
 33 30  2  0  0  0  0
M  END
>  <MODEL>
3

>  <REMARK>
 VINA RESULT:      -8.7      2.196      5.758
  Name = 
  8 active torsions:
  status: ('A' for Active; 'I' for Inactive)
    1  A    between atoms: C_6  and  C_25
    2  A    between atoms: C_9  and  C_29
    3  A    between atoms: C_11  and  O_22
    4  A    between atoms: C_13  and  O_22
    5  A    between atoms: C_14  and  C_25
    6  A    between atoms: C_15  and  C_29
    7  A    between atoms: C_15  and  C_32
    8  A    between atoms: C_17  and  N_31
                            x       y       z     vdW  Elec       q    Type
                         _______ _______ _______ _____ _____    ______ ____

>  <TORSDO>
F 8

$$$$
=
 OpenBabel10232411143D

 33 37  0  0  1  0  0  0  0  0999 V2000
  191.1350  176.9560  147.0810 C   0  0  0  0  0  0  0  0  0  0  0  0
  192.0770  176.8080  147.9010 O   0  0  0  0  0  0  0  0  0  0  0  0
  189.8710  176.8300  147.5390 N   0  0  0  0  0  0  0  0  0  0  0  0
  188.3600  177.1990  145.5880 C   0  0  2  0  0  3  0  0  0  0  0  0
  191.4760  177.2350  145.7710 C   0  0  0  0  0  3  0  0  0  0  0  0
  190.6620  177.4430  144.6750 C   0  0  0  0  0  3  0  0  0  0  0  0
  188.6700  176.9290  146.9270 C   0  0  0  0  0  3  0  0  0  0  0  0
  188.7640  177.6690  143.3670 N   0  0  0  0  0  0  0  0  0  0  0  0
  189.2720  177.4380  144.5460 C   0  0  0  0  0  0  0  0  0  0  0  0
  190.0380  176.6640  141.5540 C   0  0  0  0  0  2  0  0  0  0  0  0
  189.5210  177.9570  142.1510 C   0  0  1  0  0  3  0  0  0  0  0  0
  189.9880  176.8620  140.0560 C   0  0  0  0  0  2  0  0  0  0  0  0
  188.6160  178.5870  141.1020 C   0  0  0  0  0  2  0  0  0  0  0  0
  188.8140  177.7900  139.8240 C   0  0  1  0  0  3  0  0  0  0  0  0
  189.0190  178.6890  138.6070 C   0  0  0  0  0  2  0  0  0  0  0  0
  189.4340  177.9070  137.3640 C   0  0  0  0  0  2  0  0  0  0  0  0
  187.0680  177.9620  136.7500 C   0  0  0  0  0  3  0  0  0  0  0  0
  188.7070  174.9570  136.9920 N   0  0  0  0  0  1  0  0  0  0  0  0
  185.9080  177.4260  136.1060 N   0  0  0  0  0  0  0  0  0  0  0  0
  188.2390  177.3200  136.6900 C   0  0  0  0  0  0  0  0  0  0  0  0
  187.1280  175.5440  135.2650 C   0  0  0  0  0  3  0  0  0  0  0  0
  188.3650  175.9730  136.0120 C   0  0  0  0  0  0  0  0  0  0  0  0
  185.9860  176.2260  135.3350 C   0  0  0  0  0  3  0  0  0  0  0  0
  186.9980  177.2390  145.2390 O   0  0  0  0  0  0  0  0  0  0  0  0
  185.2000  178.1580  144.0020 C   0  0  1  0  0  3  0  0  0  0  0  0
  186.2880  178.4400  144.9610 C   0  0  1  0  0  3  0  0  0  0  0  0
  184.9540  178.2930  145.3790 O   0  0  0  0  0  0  0  0  0  0  0  0
  184.7980  179.4400  143.3000 C   0  0  0  0  0  2  0  0  0  0  0  0
  184.9790  179.2140  139.7420 N   0  0  0  0  0  0  0  0  0  0  0  0
  184.6330  179.1880  141.8420 C   0  0  0  0  0  0  0  0  0  0  0  0
  185.5020  179.5860  140.8990 N   0  0  0  0  0  2  0  0  0  0  0  0
  183.8140  178.6070  139.9170 N   0  0  0  0  0  0  0  0  0  0  0  0
  183.5570  178.5760  141.2400 C   0  0  0  0  0  3  0  0  0  0  0  0
  1  3  1  0  0  0  0
  1  2  2  0  0  0  0
  4 24  1  1  0  0  0
  4  7  1  0  0  0  0
  5  1  1  0  0  0  0
  6  5  2  0  0  0  0
  7  3  2  0  0  0  0
  8  9  2  0  0  0  0
  9  6  1  0  0  0  0
  9  4  1  0  0  0  0
 10 11  1  0  0  0  0
 11  8  1  1  0  0  0
 12 10  1  0  0  0  0
 13 11  1  0  0  0  0
 14 15  1  6  0  0  0
 14 12  1  0  0  0  0
 14 13  1  0  0  0  0
 16 15  1  0  0  0  0
 19 17  2  0  0  0  0
 20 17  1  0  0  0  0
 20 16  1  0  0  0  0
 21 23  2  0  0  0  0
 21 22  1  0  0  0  0
 22 20  2  0  0  0  0
 22 18  1  0  0  0  0
 23 19  1  0  0  0  0
 25 28  1  6  0  0  0
 25 26  1  0  0  0  0
 25 27  1  0  0  0  0
 26 24  1  1  0  0  0
 26 27  1  0  0  0  0
 29 32  2  0  0  0  0
 29 31  1  0  0  0  0
 30 28  1  0  0  0  0
 31 30  1  0  0  0  0
 32 33  1  0  0  0  0
 33 30  2  0  0  0  0
M  END
>  <MODEL>
4

>  <REMARK>
 VINA RESULT:      -8.6      2.302      6.008
  Name = 
  8 active torsions:
  status: ('A' for Active; 'I' for Inactive)
    1  A    between atoms: C_6  and  C_25
    2  A    between atoms: C_9  and  C_29
    3  A    between atoms: C_11  and  O_22
    4  A    between atoms: C_13  and  O_22
    5  A    between atoms: C_14  and  C_25
    6  A    between atoms: C_15  and  C_29
    7  A    between atoms: C_15  and  C_32
    8  A    between atoms: C_17  and  N_31
                            x       y       z     vdW  Elec       q    Type
                         _______ _______ _______ _____ _____    ______ ____

>  <TORSDO>
F 8

$$$$
=
 OpenBabel10232411143D

 33 37  0  0  1  0  0  0  0  0999 V2000
  191.5880  176.8870  138.8230 C   0  0  0  0  0  0  0  0  0  0  0  0
  192.7920  176.5220  138.7970 O   0  0  0  0  0  0  0  0  0  0  0  0
  190.8940  176.8600  137.6660 N   0  0  0  0  0  0  0  0  0  0  0  0
  188.5880  177.6560  138.1940 C   0  0  2  0  0  3  0  0  0  0  0  0
  191.0760  177.2880  140.0420 C   0  0  0  0  0  3  0  0  0  0  0  0
  189.8080  177.7310  140.3620 C   0  0  0  0  0  3  0  0  0  0  0  0
  189.6150  177.1820  137.3680 C   0  0  0  0  0  3  0  0  0  0  0  0
  187.5870  178.3520  140.1510 N   0  0  0  0  0  0  0  0  0  0  0  0
  188.6700  177.9100  139.5740 C   0  0  0  0  0  0  0  0  0  0  0  0
  186.0220  179.1160  141.8500 C   0  0  0  0  0  2  0  0  0  0  0  0
  187.4410  178.6650  141.5700 C   0  0  1  0  0  3  0  0  0  0  0  0
  185.6950  178.5910  143.2290 C   0  0  0  0  0  2  0  0  0  0  0  0
  187.6730  177.4200  142.4130 C   0  0  0  0  0  2  0  0  0  0  0  0
  186.4870  177.3060  143.3550 C   0  0  1  0  0  3  0  0  0  0  0  0
  186.9150  177.0290  144.7940 C   0  0  0  0  0  2  0  0  0  0  0  0
  187.8190  178.1220  145.3580 C   0  0  0  0  0  2  0  0  0  0  0  0
  189.3280  177.1820  147.0360 C   0  0  0  0  0  3  0  0  0  0  0  0
  190.6080  178.8140  144.3030 N   0  0  0  0  0  1  0  0  0  0  0  0
  190.5780  176.6260  147.4540 N   0  0  0  0  0  0  0  0  0  0  0  0
  189.1370  177.5550  145.7670 C   0  0  0  0  0  0  0  0  0  0  0  0
  191.4900  176.7750  145.2430 C   0  0  0  0  0  3  0  0  0  0  0  0
  190.2520  177.4770  144.7470 C   0  0  0  0  0  0  0  0  0  0  0  0
  191.6310  176.4010  146.5140 C   0  0  0  0  0  3  0  0  0  0  0  0
  187.3430  177.9060  137.5920 O   0  0  0  0  0  0  0  0  0  0  0  0
  185.0540  177.3610  137.3120 C   0  0  1  0  0  3  0  0  0  0  0  0
  186.4450  176.8830  137.1760 C   0  0  1  0  0  3  0  0  0  0  0  0
  185.7090  177.3370  136.0680 O   0  0  0  0  0  0  0  0  0  0  0  0
  184.1150  176.1750  137.3990 C   0  0  0  0  0  2  0  0  0  0  0  0
  181.4320  176.1650  139.7520 N   0  0  0  0  0  0  0  0  0  0  0  0
  183.1510  176.3730  138.5150 C   0  0  0  0  0  0  0  0  0  0  0  0
  182.0280  175.6570  138.6870 N   0  0  0  0  0  0  0  0  0  0  0  0
  182.1270  177.1750  140.2540 N   0  0  0  0  0  2  0  0  0  0  0  0
  183.2260  177.3420  139.4900 C   0  0  0  0  0  3  0  0  0  0  0  0
  1  5  1  0  0  0  0
  2  1  2  0  0  0  0
  3  1  1  0  0  0  0
  4 24  1  1  0  0  0
  4  9  1  0  0  0  0
  5  6  2  0  0  0  0
  7  3  2  0  0  0  0
  7  4  1  0  0  0  0
  9  8  2  0  0  0  0
  9  6  1  0  0  0  0
 10 12  1  0  0  0  0
 11  8  1  6  0  0  0
 11 10  1  0  0  0  0
 11 13  1  0  0  0  0
 12 14  1  0  0  0  0
 13 14  1  0  0  0  0
 14 15  1  1  0  0  0
 15 16  1  0  0  0  0
 16 20  1  0  0  0  0
 17 19  1  0  0  0  0
 18 22  1  0  0  0  0
 20 17  2  0  0  0  0
 21 23  1  0  0  0  0
 22 21  2  0  0  0  0
 22 20  1  0  0  0  0
 23 19  2  0  0  0  0
 25 28  1  6  0  0  0
 26 25  1  0  0  0  0
 26 24  1  1  0  0  0
 27 26  1  0  0  0  0
 27 25  1  0  0  0  0
 28 30  1  0  0  0  0
 29 32  1  0  0  0  0
 30 31  1  0  0  0  0
 30 33  2  0  0  0  0
 31 29  2  0  0  0  0
 33 32  1  0  0  0  0
M  END
>  <MODEL>
5

>  <REMARK>
 VINA RESULT:      -8.4      2.887      7.286
  Name = 
  8 active torsions:
  status: ('A' for Active; 'I' for Inactive)
    1  A    between atoms: C_6  and  C_25
    2  A    between atoms: C_9  and  C_29
    3  A    between atoms: C_11  and  O_22
    4  A    between atoms: C_13  and  O_22
    5  A    between atoms: C_14  and  C_25
    6  A    between atoms: C_15  and  C_29
    7  A    between atoms: C_15  and  C_32
    8  A    between atoms: C_17  and  N_31
                            x       y       z     vdW  Elec       q    Type
                         _______ _______ _______ _____ _____    ______ ____

>  <TORSDO>
F 8

$$$$
=
 OpenBabel10232411143D

 33 37  0  0  1  0  0  0  0  0999 V2000
  192.4750  176.8430  139.0020 C   0  0  0  0  0  0  0  0  0  0  0  0
  193.7270  176.7190  139.0080 O   0  0  0  0  0  0  0  0  0  0  0  0
  191.8130  176.5190  137.8710 N   0  0  0  0  0  0  0  0  0  0  0  0
  189.3900  176.9180  138.3190 C   0  0  2  0  0  3  0  0  0  0  0  0
  191.8800  177.3040  140.1610 C   0  0  0  0  0  2  0  0  0  0  0  0
  190.5460  177.5330  140.4350 C   0  0  0  0  0  3  0  0  0  0  0  0
  190.4990  176.5410  137.5510 C   0  0  0  0  0  3  0  0  0  0  0  0
  188.2490  177.6740  140.1740 N   0  0  0  0  0  2  0  0  0  0  0  0
  189.4040  177.3740  139.6470 C   0  0  0  0  0  0  0  0  0  0  0  0
  186.6570  178.7880  141.6390 C   0  0  0  0  0  2  0  0  0  0  0  0
  188.0280  178.1490  141.5370 C   0  0  1  0  0  3  0  0  0  0  0  0
  186.1560  178.4520  143.0250 C   0  0  0  0  0  2  0  0  0  0  0  0
  188.0330  176.9810  142.5120 C   0  0  0  0  0  2  0  0  0  0  0  0
  186.7690  177.1050  143.3450 C   0  0  1  0  0  3  0  0  0  0  0  0
  187.0400  176.9320  144.8380 C   0  0  0  0  0  2  0  0  0  0  0  0
  187.9450  178.0260  145.4000 C   0  0  0  0  0  2  0  0  0  0  0  0
  189.4850  177.1190  147.0670 C   0  0  0  0  0  3  0  0  0  0  0  0
  190.7130  178.6770  144.2670 N   0  0  0  0  0  1  0  0  0  0  0  0
  190.7410  176.5670  147.4710 N   0  0  0  0  0  0  0  0  0  0  0  0
  189.2690  177.4620  145.7930 C   0  0  0  0  0  0  0  0  0  0  0  0
  191.6060  176.6570  145.2380 C   0  0  0  0  0  3  0  0  0  0  0  0
  190.3610  177.3530  144.7520 C   0  0  0  0  0  0  0  0  0  0  0  0
  191.7730  176.3130  146.5140 C   0  0  0  0  0  3  0  0  0  0  0  0
  188.1270  176.8330  137.7070 O   0  0  0  0  0  0  0  0  0  0  0  0
  186.0910  175.8500  137.0000 C   0  0  1  0  0  3  0  0  0  0  0  0
  187.5100  175.6070  137.3320 C   0  0  1  0  0  3  0  0  0  0  0  0
  187.0680  175.7010  136.0010 O   0  0  0  0  0  0  0  0  0  0  0  0
  185.3120  174.5560  137.1250 C   0  0  0  0  0  2  0  0  0  0  0  0
  181.7820  175.0570  136.9650 N   0  0  0  0  0  0  0  0  0  0  0  0
  183.8680  174.8520  137.3310 C   0  0  0  0  0  0  0  0  0  0  0  0
  182.9070  174.6190  136.4240 N   0  0  0  0  0  0  0  0  0  0  0  0
  181.9960  175.5630  138.1700 N   0  0  0  0  0  2  0  0  0  0  0  0
  183.3130  175.4560  138.4370 C   0  0  0  0  0  3  0  0  0  0  0  0
  1  2  2  0  0  0  0
  1  5  1  0  0  0  0
  3  1  1  0  0  0  0
  4 24  1  1  0  0  0
  4  9  1  0  0  0  0
  5  6  1  0  0  0  0
  7  3  2  0  0  0  0
  7  4  1  0  0  0  0
  9  8  1  0  0  0  0
  9  6  2  0  0  0  0
 10 12  1  0  0  0  0
 11  8  1  6  0  0  0
 11 10  1  0  0  0  0
 11 13  1  0  0  0  0
 12 14  1  0  0  0  0
 13 14  1  0  0  0  0
 14 15  1  1  0  0  0
 15 16  1  0  0  0  0
 16 20  1  0  0  0  0
 17 19  1  0  0  0  0
 18 22  1  0  0  0  0
 20 17  2  0  0  0  0
 21 23  1  0  0  0  0
 22 21  2  0  0  0  0
 22 20  1  0  0  0  0
 23 19  2  0  0  0  0
 25 28  1  6  0  0  0
 25 26  1  0  0  0  0
 26 24  1  1  0  0  0
 27 25  1  0  0  0  0
 27 26  1  0  0  0  0
 28 30  1  0  0  0  0
 29 32  1  0  0  0  0
 30 33  2  0  0  0  0
 31 29  2  0  0  0  0
 31 30  1  0  0  0  0
 32 33  1  0  0  0  0
M  END
>  <MODEL>
6

>  <REMARK>
 VINA RESULT:      -8.2      3.368      7.258
  Name = 
  8 active torsions:
  status: ('A' for Active; 'I' for Inactive)
    1  A    between atoms: C_6  and  C_25
    2  A    between atoms: C_9  and  C_29
    3  A    between atoms: C_11  and  O_22
    4  A    between atoms: C_13  and  O_22
    5  A    between atoms: C_14  and  C_25
    6  A    between atoms: C_15  and  C_29
    7  A    between atoms: C_15  and  C_32
    8  A    between atoms: C_17  and  N_31
                            x       y       z     vdW  Elec       q    Type
                         _______ _______ _______ _____ _____    ______ ____

>  <TORSDO>
F 8

$$$$
=
 OpenBabel10232411143D

 33 37  0  0  1  0  0  0  0  0999 V2000
  191.2350  176.6920  147.0380 C   0  0  0  0  0  0  0  0  0  0  0  0
  191.9190  176.5370  148.0820 O   0  0  0  0  0  0  0  0  0  0  0  0
  191.8790  176.6780  145.8520 N   0  0  0  0  0  0  0  0  0  0  0  0
  190.1450  177.0170  144.0890 C   0  0  2  0  0  3  0  0  0  0  0  0
  189.8730  176.8650  147.1950 C   0  0  0  0  0  3  0  0  0  0  0  0
  188.8940  177.0540  146.2400 C   0  0  0  0  0  3  0  0  0  0  0  0
  191.4410  176.8130  144.5800 C   0  0  0  0  0  3  0  0  0  0  0  0
  187.8610  177.3170  144.1840 N   0  0  0  0  0  0  0  0  0  0  0  0
  188.9680  177.1270  144.8480 C   0  0  0  0  0  0  0  0  0  0  0  0
  186.5770  178.3670  145.9640 C   0  0  0  0  0  2  0  0  0  0  0  0
  186.5270  177.4430  144.7630 C   0  0  1  0  0  3  0  0  0  0  0  0
  185.2640  179.1160  145.9530 C   0  0  0  0  0  2  0  0  0  0  0  0
  185.5750  178.0840  143.7640 C   0  0  0  0  0  2  0  0  0  0  0  0
  184.8940  179.2320  144.4890 C   0  0  1  0  0  3  0  0  0  0  0  0
  183.3820  179.2380  144.2730 C   0  0  0  0  0  2  0  0  0  0  0  0
  182.9410  178.2650  143.1830 C   0  0  0  0  0  2  0  0  0  0  0  0
  180.8980  179.5190  142.7080 C   0  0  0  0  0  3  0  0  0  0  0  0
  182.2550  177.4810  140.3050 N   0  0  0  0  0  1  0  0  0  0  0  0
  179.9830  180.1730  141.8240 N   0  0  0  0  0  0  0  0  0  0  0  0
  182.0010  178.9300  142.2350 C   0  0  0  0  0  0  0  0  0  0  0  0
  181.3320  179.6750  139.9070 C   0  0  0  0  0  3  0  0  0  0  0  0
  182.2830  178.8640  140.7500 C   0  0  0  0  0  0  0  0  0  0  0  0
  180.2540  180.2640  140.4230 C   0  0  0  0  0  3  0  0  0  0  0  0
  189.9960  177.1210  142.6950 O   0  0  0  0  0  0  0  0  0  0  0  0
  190.5990  177.1940  140.4060 C   0  0  1  0  0  3  0  0  0  0  0  0
  191.0170  176.7850  141.7620 C   0  0  1  0  0  3  0  0  0  0  0  0
  191.5000  177.9620  141.1640 O   0  0  0  0  0  0  0  0  0  0  0  0
  191.3750  176.3990  139.3740 C   0  0  0  0  0  2  0  0  0  0  0  0
  189.6740  174.5600  136.8320 N   0  0  0  0  0  0  0  0  0  0  0  0
  190.4350  175.7830  138.3990 C   0  0  0  0  0  0  0  0  0  0  0  0
  190.7580  174.7910  137.5530 N   0  0  0  0  0  2  0  0  0  0  0  0
  188.6850  175.3690  137.1820 N   0  0  0  0  0  0  0  0  0  0  0  0
  189.1320  176.1660  138.1730 C   0  0  0  0  0  3  0  0  0  0  0  0
  1  5  1  0  0  0  0
  1  2  2  0  0  0  0
  3  1  1  0  0  0  0
  4 24  1  6  0  0  0
  4  7  1  0  0  0  0
  4  9  1  0  0  0  0
  6  5  2  0  0  0  0
  7  3  2  0  0  0  0
  8  9  2  0  0  0  0
  9  6  1  0  0  0  0
 11  8  1  6  0  0  0
 11 10  1  0  0  0  0
 12 10  1  0  0  0  0
 13 14  1  0  0  0  0
 13 11  1  0  0  0  0
 14 15  1  1  0  0  0
 14 12  1  0  0  0  0
 16 15  1  0  0  0  0
 18 22  1  0  0  0  0
 19 17  2  0  0  0  0
 20 17  1  0  0  0  0
 20 16  1  0  0  0  0
 21 23  2  0  0  0  0
 21 22  1  0  0  0  0
 22 20  2  0  0  0  0
 23 19  1  0  0  0  0
 25 28  1  6  0  0  0
 25 27  1  0  0  0  0
 25 26  1  0  0  0  0
 26 24  1  1  0  0  0
 27 26  1  0  0  0  0
 29 32  2  0  0  0  0
 29 31  1  0  0  0  0
 30 28  1  0  0  0  0
 31 30  1  0  0  0  0
 32 33  1  0  0  0  0
 33 30  2  0  0  0  0
M  END
>  <MODEL>
7

>  <REMARK>
 VINA RESULT:      -8.2      1.609      2.057
  Name = 
  8 active torsions:
  status: ('A' for Active; 'I' for Inactive)
    1  A    between atoms: C_6  and  C_25
    2  A    between atoms: C_9  and  C_29
    3  A    between atoms: C_11  and  O_22
    4  A    between atoms: C_13  and  O_22
    5  A    between atoms: C_14  and  C_25
    6  A    between atoms: C_15  and  C_29
    7  A    between atoms: C_15  and  C_32
    8  A    between atoms: C_17  and  N_31
                            x       y       z     vdW  Elec       q    Type
                         _______ _______ _______ _____ _____    ______ ____

>  <TORSDO>
F 8

$$$$
=
 OpenBabel10232411143D

 33 37  0  0  1  0  0  0  0  0999 V2000
  185.6020  178.6760  146.2420 C   0  0  0  0  0  0  0  0  0  0  0  0
  185.1930  179.0070  147.3850 O   0  0  0  0  0  0  0  0  0  0  0  0
  186.7240  177.9300  146.1630 N   0  0  0  0  0  0  0  0  0  0  0  0
  187.1450  177.5230  143.7370 C   0  0  2  0  0  3  0  0  0  0  0  0
  184.8630  179.1090  145.1580 C   0  0  0  0  0  3  0  0  0  0  0  0
  185.0730  178.8990  143.8090 C   0  0  0  0  0  3  0  0  0  0  0  0
  187.4040  177.4240  145.1100 C   0  0  0  0  0  3  0  0  0  0  0  0
  186.0230  178.1660  141.8280 N   0  0  0  0  0  0  0  0  0  0  0  0
  186.0730  178.1990  143.1310 C   0  0  0  0  0  0  0  0  0  0  0  0
  185.4570  178.8180  139.5530 C   0  0  0  0  0  2  0  0  0  0  0  0
  184.9940  178.7830  140.9950 C   0  0  1  0  0  3  0  0  0  0  0  0
  184.2130  178.6040  138.7230 C   0  0  0  0  0  2  0  0  0  0  0  0
  183.7220  177.9480  141.0210 C   0  0  0  0  0  2  0  0  0  0  0  0
  183.3240  177.7190  139.5730 C   0  0  1  0  0  3  0  0  0  0  0  0
  181.8410  177.9860  139.3310 C   0  0  0  0  0  2  0  0  0  0  0  0
  181.4500  179.4320  139.6240 C   0  0  0  0  0  2  0  0  0  0  0  0
  180.8920  179.4620  137.2440 C   0  0  0  0  0  3  0  0  0  0  0  0
  182.5120  182.1360  138.6570 N   0  0  0  0  0  1  0  0  0  0  0  0
  180.5790  180.1310  136.0190 N   0  0  0  0  0  0  0  0  0  0  0  0
  181.1360  180.1580  138.3590 C   0  0  0  0  0  0  0  0  0  0  0  0
  180.7170  182.2880  137.0520 C   0  0  0  0  0  3  0  0  0  0  0  0
  181.1700  181.6710  138.3500 C   0  0  0  0  0  0  0  0  0  0  0  0
  180.4620  181.5540  135.9700 C   0  0  0  0  0  3  0  0  0  0  0  0
  188.0440  176.8820  142.8660 O   0  0  0  0  0  0  0  0  0  0  0  0
  190.1690  175.9430  143.3290 C   0  0  1  0  0  3  0  0  0  0  0  0
  189.4440  177.1360  142.8460 C   0  0  1  0  0  3  0  0  0  0  0  0
  190.0630  176.2380  141.9590 O   0  0  0  0  0  0  0  0  0  0  0  0
  191.5460  176.3490  143.8170 C   0  0  0  0  0  2  0  0  0  0  0  0
  192.0020  175.7770  147.3100 N   0  0  0  0  0  0  0  0  0  0  0  0
  191.5760  176.3490  145.3040 C   0  0  0  0  0  0  0  0  0  0  0  0
  192.2700  175.4740  146.0510 N   0  0  0  0  0  0  0  0  0  0  0  0
  191.1640  176.8000  147.3880 N   0  0  0  0  0  2  0  0  0  0  0  0
  190.8650  177.1880  146.1320 C   0  0  0  0  0  3  0  0  0  0  0  0
  1  2  2  0  0  0  0
  3  1  1  0  0  0  0
  4 24  1  1  0  0  0
  4  7  1  0  0  0  0
  5  1  1  0  0  0  0
  6  5  2  0  0  0  0
  7  3  2  0  0  0  0
  8  9  2  0  0  0  0
  9  4  1  0  0  0  0
  9  6  1  0  0  0  0
 10 11  1  0  0  0  0
 11 13  1  0  0  0  0
 11  8  1  1  0  0  0
 12 10  1  0  0  0  0
 12 14  1  0  0  0  0
 14 15  1  1  0  0  0
 14 13  1  0  0  0  0
 15 16  1  0  0  0  0
 17 20  1  0  0  0  0
 19 17  2  0  0  0  0
 20 16  1  0  0  0  0
 21 22  1  0  0  0  0
 22 20  2  0  0  0  0
 22 18  1  0  0  0  0
 23 19  1  0  0  0  0
 23 21  2  0  0  0  0
 25 28  1  1  0  0  0
 26 24  1  6  0  0  0
 26 25  1  0  0  0  0
 27 26  1  0  0  0  0
 27 25  1  0  0  0  0
 28 30  1  0  0  0  0
 29 32  1  0  0  0  0
 30 31  1  0  0  0  0
 30 33  2  0  0  0  0
 31 29  2  0  0  0  0
 33 32  1  0  0  0  0
M  END
>  <MODEL>
8

>  <REMARK>
 VINA RESULT:      -8.1      2.964      5.928
  Name = 
  8 active torsions:
  status: ('A' for Active; 'I' for Inactive)
    1  A    between atoms: C_6  and  C_25
    2  A    between atoms: C_9  and  C_29
    3  A    between atoms: C_11  and  O_22
    4  A    between atoms: C_13  and  O_22
    5  A    between atoms: C_14  and  C_25
    6  A    between atoms: C_15  and  C_29
    7  A    between atoms: C_15  and  C_32
    8  A    between atoms: C_17  and  N_31
                            x       y       z     vdW  Elec       q    Type
                         _______ _______ _______ _____ _____    ______ ____

>  <TORSDO>
F 8

$$$$
=
 OpenBabel10232411143D

 33 37  0  0  1  0  0  0  0  0999 V2000
  187.8740  178.1660  138.8470 C   0  0  0  0  0  0  0  0  0  0  0  0
  188.8880  177.9150  138.1450 O   0  0  0  0  0  0  0  0  0  0  0  0
  186.6750  178.2230  138.2290 N   0  0  0  0  0  0  0  0  0  0  0  0
  184.9840  178.7400  139.9900 C   0  0  2  0  0  3  0  0  0  0  0  0
  188.0760  178.3640  140.1990 C   0  0  0  0  0  2  0  0  0  0  0  0
  187.1610  178.6490  141.1930 C   0  0  0  0  0  3  0  0  0  0  0  0
  185.4270  178.4650  138.6900 C   0  0  0  0  0  3  0  0  0  0  0  0
  185.1540  179.0930  142.2620 N   0  0  0  0  0  2  0  0  0  0  0  0
  185.7760  178.8240  141.1470 C   0  0  0  0  0  0  0  0  0  0  0  0
  184.7120  179.5180  144.6170 C   0  0  0  0  0  2  0  0  0  0  0  0
  185.7730  179.2120  143.5800 C   0  0  1  0  0  3  0  0  0  0  0  0
  185.1520  178.8000  145.8710 C   0  0  0  0  0  2  0  0  0  0  0  0
  186.4070  177.8900  143.9870 C   0  0  0  0  0  2  0  0  0  0  0  0
  185.8880  177.5710  145.3790 C   0  0  1  0  0  3  0  0  0  0  0  0
  187.0040  177.1450  146.3300 C   0  0  0  0  0  2  0  0  0  0  0  0
  188.1250  178.1770  146.4180 C   0  0  0  0  0  2  0  0  0  0  0  0
  190.1400  177.2660  147.4600 C   0  0  0  0  0  3  0  0  0  0  0  0
  190.2520  178.4210  144.2310 N   0  0  0  0  0  1  0  0  0  0  0  0
  191.4160  176.6220  147.4130 N   0  0  0  0  0  0  0  0  0  0  0  0
  189.4580  177.5120  146.3370 C   0  0  0  0  0  0  0  0  0  0  0  0
  191.3280  176.4140  145.0280 C   0  0  0  0  0  3  0  0  0  0  0  0
  190.0390  177.1920  144.9770 C   0  0  0  0  0  0  0  0  0  0  0  0
  191.9650  176.1720  146.1720 C   0  0  0  0  0  3  0  0  0  0  0  0
  183.6060  178.9520  140.1670 O   0  0  0  0  0  0  0  0  0  0  0  0
  181.5510  178.1470  139.3050 C   0  0  1  0  0  3  0  0  0  0  0  0
  182.6800  179.0760  139.0930 C   0  0  1  0  0  3  0  0  0  0  0  0
  181.4450  179.5180  139.5980 O   0  0  0  0  0  0  0  0  0  0  0  0
  180.8660  177.8710  137.9810 C   0  0  0  0  0  2  0  0  0  0  0  0
  180.6200  174.3160  138.1820 N   0  0  0  0  0  0  0  0  0  0  0  0
  180.7300  176.4030  137.7790 C   0  0  0  0  0  0  0  0  0  0  0  0
  180.7070  175.4970  138.7700 N   0  0  0  0  0  2  0  0  0  0  0  0
  180.5950  174.4380  136.8630 N   0  0  0  0  0  0  0  0  0  0  0  0
  180.6690  175.7510  136.5680 C   0  0  0  0  0  3  0  0  0  0  0  0
  1  5  1  0  0  0  0
  2  1  2  0  0  0  0
  3  7  2  0  0  0  0
  3  1  1  0  0  0  0
  4 24  1  1  0  0  0
  4  9  1  0  0  0  0
  5  6  1  0  0  0  0
  7  4  1  0  0  0  0
  9  6  2  0  0  0  0
  9  8  1  0  0  0  0
 10 12  1  0  0  0  0
 11  8  1  6  0  0  0
 11 13  1  0  0  0  0
 11 10  1  0  0  0  0
 13 14  1  0  0  0  0
 14 12  1  0  0  0  0
 14 15  1  1  0  0  0
 15 16  1  0  0  0  0
 18 22  1  0  0  0  0
 19 17  1  0  0  0  0
 20 16  1  0  0  0  0
 20 17  2  0  0  0  0
 21 23  1  0  0  0  0
 22 21  2  0  0  0  0
 22 20  1  0  0  0  0
 23 19  2  0  0  0  0
 25 28  1  6  0  0  0
 25 27  1  0  0  0  0
 26 25  1  0  0  0  0
 26 27  1  0  0  0  0
 26 24  1  1  0  0  0
 29 31  1  0  0  0  0
 30 28  1  0  0  0  0
 30 31  1  0  0  0  0
 32 29  2  0  0  0  0
 33 32  1  0  0  0  0
 33 30  2  0  0  0  0
M  END
>  <MODEL>
9

>  <REMARK>
 VINA RESULT:      -7.9      3.084      8.030
  Name = 
  8 active torsions:
  status: ('A' for Active; 'I' for Inactive)
    1  A    between atoms: C_6  and  C_25
    2  A    between atoms: C_9  and  C_29
    3  A    between atoms: C_11  and  O_22
    4  A    between atoms: C_13  and  O_22
    5  A    between atoms: C_14  and  C_25
    6  A    between atoms: C_15  and  C_29
    7  A    between atoms: C_15  and  C_32
    8  A    between atoms: C_17  and  N_31
                            x       y       z     vdW  Elec       q    Type
                         _______ _______ _______ _____ _____    ______ ____

>  <TORSDO>
F 8

$$$$
