=
 OpenBabel10232412073D

 39 43  0  0  1  0  0  0  0  0999 V2000
  185.2190  179.2120  145.2570 C   0  0  0  0  0  3  0  0  0  0  0  0
  190.7690  177.3070  143.1790 S   0  0  0  0  0  0  0  0  0  0  0  0
  188.2390  176.9120  142.5720 C   0  0  2  0  0  3  0  0  0  0  0  0
  189.0530  177.0690  143.5830 C   0  0  2  0  0  3  0  0  0  0  0  0
  187.0310  177.6960  144.3820 C   0  0  0  0  0  0  0  0  0  0  0  0
  184.7180  179.4910  144.0950 C   0  0  0  0  0  0  0  0  0  0  0  0
  184.9400  178.6590  141.8750 C   0  0  2  0  0  3  0  0  0  0  0  0
  185.9360  177.9060  145.4230 C   0  0  1  0  0  3  0  0  0  0  0  0
  184.3730  179.6360  142.8530 C   0  0  0  0  0  3  0  0  0  0  0  0
  188.3090  177.5740  144.7230 C   0  0  0  0  0  0  0  0  0  0  0  0
  185.6820  177.7820  147.8030 O   0  0  0  0  0  0  0  0  0  0  0  0
  188.7710  177.6840  146.1190 C   0  0  0  0  0  0  0  0  0  0  0  0
  190.2270  177.6250  141.4570 C   0  0  2  0  0  3  0  0  0  0  0  0
  188.8850  176.9290  141.2360 C   0  0  0  0  0  2  0  0  0  0  0  0
  186.4790  177.8180  146.8280 C   0  0  0  0  0  0  0  0  0  0  0  0
  186.4570  178.5240  142.0420 C   0  0  0  0  0  2  0  0  0  0  0  0
  187.8930  177.7870  147.0760 N   0  0  0  0  0  0  0  0  0  0  0  0
  186.8380  177.3250  142.9200 C   0  0  1  0  0  3  0  0  0  0  0  0
  182.8840  175.4970  139.6230 O   0  0  0  0  0  1  0  0  0  0  0  0
  183.6150  176.4190  137.6640 O   0  0  0  0  0  0  0  0  0  0  0  0
  182.1900  179.4100  141.1210 C   0  0  0  0  0  2  0  0  0  0  0  0
  185.5150  179.1210  139.6050 O   0  0  0  0  0  0  0  0  0  0  0  0
  181.6480  178.0000  141.3380 C   0  0  0  0  0  2  0  0  0  0  0  0
  180.1680  176.2240  140.3390 C   0  0  0  0  0  1  0  0  0  0  0  0
  181.8970  178.6730  138.1340 C   0  0  0  0  0  2  0  0  0  0  0  0
  183.2490  179.3960  140.1140 N   0  0  0  0  0  0  0  0  0  0  0  0
  180.9010  177.5330  140.0950 C   0  0  2  0  0  3  0  0  0  0  0  0
  182.9200  179.6670  138.7120 C   0  0  0  0  0  2  0  0  0  0  0  0
  184.6010  179.0660  140.4730 C   0  0  0  0  0  0  0  0  0  0  0  0
  181.7980  177.4620  138.9400 N   0  0  0  0  0  0  0  0  0  0  0  0
  182.7740  176.4170  138.7700 C   0  0  0  0  0  0  0  0  0  0  0  0
  191.2420  177.1590  140.4690 C   0  0  0  0  0  0  0  0  0  0  0  0
  192.3630  177.7330  140.4020 O   0  0  0  0  0  0  0  0  0  0  0  0
  190.4460  176.0930  138.4180 C   0  0  0  0  0  0  0  0  0  0  0  0
  190.9210  176.0420  139.6270 N   0  0  0  0  0  0  0  0  0  0  0  0
  190.2040  174.8800  137.7160 N   0  0  0  0  0  1  0  0  0  0  0  0
  190.1610  177.3350  137.7770 N   0  0  0  0  0  1  0  0  0  0  0  0
  190.2070  177.6350  146.4310 C   0  0  0  0  0  3  0  0  0  0  0  0
  190.7560  176.6290  147.1030 C   0  0  0  0  0  2  0  0  0  0  0  0
  3 14  1  6  0  0  0
  3 18  1  0  0  0  0
  3  4  1  0  0  0  0
  4  2  1  6  0  0  0
  4 10  1  0  0  0  0
  5 10  2  0  0  0  0
  5  8  1  0  0  0  0
  6  1  2  0  0  0  0
  7 29  1  6  0  0  0
  7 16  1  0  0  0  0
  7  9  1  0  0  0  0
  8  1  1  6  0  0  0
  8 15  1  0  0  0  0
  9  6  2  0  0  0  0
 10 12  1  0  0  0  0
 12 38  1  0  0  0  0
 12 17  2  0  0  0  0
 13 32  1  6  0  0  0
 13  2  1  0  0  0  0
 14 13  1  0  0  0  0
 15 17  1  0  0  0  0
 15 11  2  0  0  0  0
 18 16  1  6  0  0  0
 18  5  1  0  0  0  0
 20 31  2  0  0  0  0
 21 23  1  0  0  0  0
 22 29  2  0  0  0  0
 25 28  1  0  0  0  0
 25 30  1  0  0  0  0
 26 29  1  0  0  0  0
 26 21  1  0  0  0  0
 27 24  1  1  0  0  0
 27 23  1  0  0  0  0
 28 26  1  0  0  0  0
 30 27  1  0  0  0  0
 31 30  1  0  0  0  0
 31 19  1  0  0  0  0
 33 32  2  0  0  0  0
 34 35  2  0  0  0  0
 35 32  1  0  0  0  0
 36 34  1  0  0  0  0
 37 34  1  0  0  0  0
 38 39  2  0  0  0  0
M  END
>  <MODEL>
1

>  <REMARK>
 VINA RESULT:     -10.0      0.000      0.000
  Name = 
  4 active torsions:
  status: ('A' for Active; 'I' for Inactive)
    1  A    between atoms: N_9  and  C_25
    2  A    between atoms: C_15  and  C_35
    3  A    between atoms: C_24  and  C_31
    4  A    between atoms: C_25  and  C_27
                            x       y       z     vdW  Elec       q    Type
                         _______ _______ _______ _____ _____    ______ ____

>  <TORSDO>
F 4

$$$$
=
 OpenBabel10232412073D

 39 43  0  0  1  0  0  0  0  0999 V2000
  186.0410  178.8130  142.1810 C   0  0  0  0  0  3  0  0  0  0  0  0
  192.1090  177.4530  141.8960 S   0  0  0  0  0  0  0  0  0  0  0  0
  189.9010  176.6990  140.6800 C   0  0  2  0  0  3  0  0  0  0  0  0
  190.3800  177.0370  141.8480 C   0  0  2  0  0  3  0  0  0  0  0  0
  188.1640  177.4690  142.0000 C   0  0  0  0  0  0  0  0  0  0  0  0
  185.8590  178.9330  140.9040 C   0  0  0  0  0  0  0  0  0  0  0  0
  186.7730  177.9590  138.9320 C   0  0  2  0  0  3  0  0  0  0  0  0
  186.8070  177.6250  142.6790 C   0  0  1  0  0  3  0  0  0  0  0  0
  185.8630  178.9330  139.6070 C   0  0  0  0  0  3  0  0  0  0  0  0
  189.3020  177.5350  142.6830 C   0  0  0  0  0  0  0  0  0  0  0  0
  185.9120  177.6620  144.9020 O   0  0  0  0  0  0  0  0  0  0  0  0
  189.3420  177.8140  144.1300 C   0  0  0  0  0  0  0  0  0  0  0  0
  192.0410  177.5620  140.0680 C   0  0  2  0  0  3  0  0  0  0  0  0
  190.8890  176.6890  139.5730 C   0  0  0  0  0  2  0  0  0  0  0  0
  186.9420  177.7180  144.1790 C   0  0  0  0  0  0  0  0  0  0  0  0
  188.1890  178.0280  139.5140 C   0  0  0  0  0  2  0  0  0  0  0  0
  188.2270  177.8830  144.7990 N   0  0  0  0  0  0  0  0  0  0  0  0
  188.4250  176.9600  140.5910 C   0  0  1  0  0  3  0  0  0  0  0  0
  189.6590  175.4060  136.8220 O   0  0  0  0  0  1  0  0  0  0  0  0
  189.7870  176.9460  135.1380 O   0  0  0  0  0  0  0  0  0  0  0  0
  185.4750  176.1040  137.0430 C   0  0  0  0  0  2  0  0  0  0  0  0
  187.3620  179.2470  137.0110 O   0  0  0  0  0  0  0  0  0  0  0  0
  186.4530  174.9710  137.3420 C   0  0  0  0  0  2  0  0  0  0  0  0
  187.8720  173.1870  136.2710 C   0  0  0  0  0  1  0  0  0  0  0  0
  187.0810  176.3120  134.4110 C   0  0  0  0  0  2  0  0  0  0  0  0
  186.1940  177.2750  136.5450 N   0  0  0  0  0  0  0  0  0  0  0  0
  187.0550  174.4480  136.0430 C   0  0  2  0  0  3  0  0  0  0  0  0
  186.3440  177.4730  135.1000 C   0  0  0  0  0  2  0  0  0  0  0  0
  186.8010  178.2070  137.4550 C   0  0  0  0  0  0  0  0  0  0  0  0
  187.8230  175.4940  135.3630 N   0  0  0  0  0  0  0  0  0  0  0  0
  189.1190  175.9300  135.8120 C   0  0  0  0  0  0  0  0  0  0  0  0
  193.3320  177.1480  139.4470 C   0  0  0  0  0  0  0  0  0  0  0  0
  194.3210  176.8700  140.1790 O   0  0  0  0  0  0  0  0  0  0  0  0
  193.4120  175.9610  137.3100 C   0  0  0  0  0  0  0  0  0  0  0  0
  193.4090  177.0530  138.0170 N   0  0  0  0  0  0  0  0  0  0  0  0
  193.4740  176.0520  135.8920 N   0  0  0  0  0  1  0  0  0  0  0  0
  193.3550  174.6730  137.9220 N   0  0  0  0  0  1  0  0  0  0  0  0
  190.6320  177.9690  144.8200 C   0  0  0  0  0  3  0  0  0  0  0  0
  191.1460  177.0180  145.5910 C   0  0  0  0  0  2  0  0  0  0  0  0
  3 14  1  6  0  0  0
  3  4  1  0  0  0  0
  4  2  1  6  0  0  0
  4 10  1  0  0  0  0
  5  8  1  0  0  0  0
  5 10  2  0  0  0  0
  6  1  2  0  0  0  0
  7 29  1  6  0  0  0
  7 16  1  0  0  0  0
  7  9  1  0  0  0  0
  8  1  1  6  0  0  0
  8 15  1  0  0  0  0
  9  6  2  0  0  0  0
 10 12  1  0  0  0  0
 12 17  2  0  0  0  0
 12 38  1  0  0  0  0
 13 32  1  6  0  0  0
 13  2  1  0  0  0  0
 14 13  1  0  0  0  0
 15 17  1  0  0  0  0
 15 11  2  0  0  0  0
 18 16  1  6  0  0  0
 18  3  1  0  0  0  0
 18  5  1  0  0  0  0
 20 31  2  0  0  0  0
 21 23  1  0  0  0  0
 22 29  2  0  0  0  0
 25 28  1  0  0  0  0
 25 30  1  0  0  0  0
 26 21  1  0  0  0  0
 26 29  1  0  0  0  0
 27 24  1  1  0  0  0
 27 23  1  0  0  0  0
 28 26  1  0  0  0  0
 30 31  1  0  0  0  0
 30 27  1  0  0  0  0
 31 19  1  0  0  0  0
 32 33  2  0  0  0  0
 34 37  1  0  0  0  0
 34 35  2  0  0  0  0
 35 32  1  0  0  0  0
 36 34  1  0  0  0  0
 38 39  2  0  0  0  0
M  END
>  <MODEL>
2

>  <REMARK>
 VINA RESULT:      -9.3      3.035      4.441
  Name = 
  4 active torsions:
  status: ('A' for Active; 'I' for Inactive)
    1  A    between atoms: N_9  and  C_25
    2  A    between atoms: C_15  and  C_35
    3  A    between atoms: C_24  and  C_31
    4  A    between atoms: C_25  and  C_27
                            x       y       z     vdW  Elec       q    Type
                         _______ _______ _______ _____ _____    ______ ____

>  <TORSDO>
F 4

$$$$
=
 OpenBabel10232412073D

 39 43  0  0  1  0  0  0  0  0999 V2000
  185.0870  179.2020  145.1200 C   0  0  0  0  0  3  0  0  0  0  0  0
  190.6050  177.5060  142.7890 S   0  0  0  0  0  0  0  0  0  0  0  0
  188.0650  177.0790  142.2490 C   0  0  2  0  0  3  0  0  0  0  0  0
  188.9080  177.2140  143.2390 C   0  0  2  0  0  3  0  0  0  0  0  0
  186.9010  177.7630  144.1270 C   0  0  0  0  0  0  0  0  0  0  0  0
  184.5420  179.5160  143.9870 C   0  0  0  0  0  0  0  0  0  0  0  0
  184.7080  178.7770  141.7290 C   0  0  2  0  0  3  0  0  0  0  0  0
  185.8370  177.9070  145.2100 C   0  0  1  0  0  3  0  0  0  0  0  0
  184.1530  179.7010  142.7640 C   0  0  0  0  0  3  0  0  0  0  0  0
  188.1920  177.6570  144.4210 C   0  0  0  0  0  0  0  0  0  0  0  0
  185.6650  177.6840  147.5910 O   0  0  0  0  0  0  0  0  0  0  0  0
  188.6970  177.7220  145.8050 C   0  0  0  0  0  0  0  0  0  0  0  0
  189.9990  177.8800  141.1000 C   0  0  2  0  0  3  0  0  0  0  0  0
  188.6650  177.1630  140.8940 C   0  0  0  0  0  2  0  0  0  0  0  0
  186.4280  177.7760  146.5920 C   0  0  0  0  0  0  0  0  0  0  0  0
  186.2320  178.6700  141.8420 C   0  0  0  0  0  2  0  0  0  0  0  0
  187.8500  177.7670  146.7930 N   0  0  0  0  0  0  0  0  0  0  0  0
  186.6680  177.4460  142.6580 C   0  0  1  0  0  3  0  0  0  0  0  0
  183.1900  175.5110  139.2130 O   0  0  0  0  0  1  0  0  0  0  0  0
  183.7730  176.6850  137.3410 O   0  0  0  0  0  0  0  0  0  0  0  0
  181.8770  179.1390  140.9890 C   0  0  0  0  0  2  0  0  0  0  0  0
  185.2120  179.4970  139.5100 O   0  0  0  0  0  0  0  0  0  0  0  0
  181.5650  177.6480  141.0910 C   0  0  0  0  0  2  0  0  0  0  0  0
  180.3900  175.7430  139.9380 C   0  0  0  0  0  1  0  0  0  0  0  0
  181.7170  178.5960  137.9510 C   0  0  0  0  0  2  0  0  0  0  0  0
  182.9290  179.3700  140.0010 N   0  0  0  0  0  0  0  0  0  0  0  0
  180.9070  177.1660  139.8050 C   0  0  2  0  0  3  0  0  0  0  0  0
  182.5660  179.6920  138.6180 C   0  0  0  0  0  2  0  0  0  0  0  0
  184.3140  179.2310  140.3570 C   0  0  0  0  0  0  0  0  0  0  0  0
  181.8090  177.3260  138.6620 N   0  0  0  0  0  0  0  0  0  0  0  0
  182.9380  176.4650  138.4300 C   0  0  0  0  0  0  0  0  0  0  0  0
  190.9910  177.4760  140.0620 C   0  0  0  0  0  0  0  0  0  0  0  0
  190.6230  177.3330  138.8640 O   0  0  0  0  0  0  0  0  0  0  0  0
  193.3490  176.9570  139.6780 C   0  0  0  0  0  0  0  0  0  0  0  0
  192.3570  177.2790  140.4540 N   0  0  0  0  0  0  0  0  0  0  0  0
  194.6510  176.8220  140.2330 N   0  0  0  0  0  1  0  0  0  0  0  0
  193.1640  176.7340  138.2800 N   0  0  0  0  0  1  0  0  0  0  0  0
  190.1440  177.6920  146.0690 C   0  0  0  0  0  3  0  0  0  0  0  0
  190.6960  176.8310  146.9150 C   0  0  0  0  0  2  0  0  0  0  0  0
  3 14  1  6  0  0  0
  3 18  1  0  0  0  0
  3  4  1  0  0  0  0
  4  2  1  6  0  0  0
  4 10  1  0  0  0  0
  5 10  2  0  0  0  0
  5  8  1  0  0  0  0
  6  1  2  0  0  0  0
  7 29  1  6  0  0  0
  7 16  1  0  0  0  0
  7  9  1  0  0  0  0
  8  1  1  1  0  0  0
  8 15  1  0  0  0  0
  9  6  2  0  0  0  0
 10 12  1  0  0  0  0
 12 38  1  0  0  0  0
 12 17  2  0  0  0  0
 13 32  1  6  0  0  0
 13  2  1  0  0  0  0
 14 13  1  0  0  0  0
 15 17  1  0  0  0  0
 15 11  2  0  0  0  0
 18 16  1  6  0  0  0
 18  5  1  0  0  0  0
 20 31  2  0  0  0  0
 21 23  1  0  0  0  0
 22 29  2  0  0  0  0
 25 28  1  0  0  0  0
 25 30  1  0  0  0  0
 26 29  1  0  0  0  0
 26 21  1  0  0  0  0
 27 24  1  1  0  0  0
 27 23  1  0  0  0  0
 28 26  1  0  0  0  0
 30 27  1  0  0  0  0
 31 30  1  0  0  0  0
 31 19  1  0  0  0  0
 32 35  1  0  0  0  0
 33 32  2  0  0  0  0
 34 36  1  0  0  0  0
 34 35  2  0  0  0  0
 37 34  1  0  0  0  0
 38 39  2  0  0  0  0
M  END
>  <MODEL>
3

>  <REMARK>
 VINA RESULT:      -9.2      1.039      1.292
  Name = 
  4 active torsions:
  status: ('A' for Active; 'I' for Inactive)
    1  A    between atoms: N_9  and  C_25
    2  A    between atoms: C_15  and  C_35
    3  A    between atoms: C_24  and  C_31
    4  A    between atoms: C_25  and  C_27
                            x       y       z     vdW  Elec       q    Type
                         _______ _______ _______ _____ _____    ______ ____

>  <TORSDO>
F 4

$$$$
=
 OpenBabel10232412073D

 39 43  0  0  1  0  0  0  0  0999 V2000
  184.6630  179.4420  142.0840 C   0  0  0  0  0  3  0  0  0  0  0  0
  188.9680  177.3730  146.0760 S   0  0  0  0  0  0  0  0  0  0  0  0
  188.0370  176.6880  143.7120 C   0  0  2  0  0  3  0  0  0  0  0  0
  187.6710  177.1540  144.8770 C   0  0  2  0  0  3  0  0  0  0  0  0
  186.0550  177.8540  143.4570 C   0  0  0  0  0  0  0  0  0  0  0  0
  185.4040  179.3740  141.0230 C   0  0  0  0  0  0  0  0  0  0  0  0
  187.1860  177.9950  140.2500 C   0  0  2  0  0  3  0  0  0  0  0  0
  184.6550  178.2710  143.0190 C   0  0  1  0  0  3  0  0  0  0  0  0
  186.2690  179.1630  140.0800 C   0  0  0  0  0  3  0  0  0  0  0  0
  186.4360  177.9000  144.7290 C   0  0  0  0  0  0  0  0  0  0  0  0
  182.5380  178.7690  144.0270 O   0  0  0  0  0  0  0  0  0  0  0  0
  185.5560  178.4030  145.8010 C   0  0  0  0  0  0  0  0  0  0  0  0
  190.1550  177.1920  144.6910 C   0  0  2  0  0  3  0  0  0  0  0  0
  189.4840  176.3860  143.5800 C   0  0  0  0  0  2  0  0  0  0  0  0
  183.7730  178.5890  144.2010 C   0  0  0  0  0  0  0  0  0  0  0  0
  187.8340  177.9970  141.6380 C   0  0  0  0  0  2  0  0  0  0  0  0
  184.3210  178.7060  145.5240 N   0  0  0  0  0  0  0  0  0  0  0  0
  187.0820  177.0980  142.6280 C   0  0  1  0  0  3  0  0  0  0  0  0
  187.0560  174.4060  137.7200 O   0  0  0  0  0  1  0  0  0  0  0  0
  189.2630  174.6950  137.2010 O   0  0  0  0  0  0  0  0  0  0  0  0
  186.5160  178.6100  137.4440 C   0  0  0  0  0  2  0  0  0  0  0  0
  189.4370  177.7620  139.4910 O   0  0  0  0  0  0  0  0  0  0  0  0
  185.6790  177.3450  137.2720 C   0  0  0  0  0  2  0  0  0  0  0  0
  185.2190  175.4190  135.7160 C   0  0  0  0  0  1  0  0  0  0  0  0
  188.5610  177.0580  135.7240 C   0  0  0  0  0  2  0  0  0  0  0  0
  187.8870  178.2630  137.8130 N   0  0  0  0  0  0  0  0  0  0  0  0
  186.1530  176.5710  136.0480 C   0  0  2  0  0  3  0  0  0  0  0  0
  188.9070  178.1330  136.7680 C   0  0  0  0  0  2  0  0  0  0  0  0
  188.2360  177.9960  139.1810 C   0  0  0  0  0  0  0  0  0  0  0  0
  187.5420  176.1340  136.2090 N   0  0  0  0  0  0  0  0  0  0  0  0
  187.9240  175.0460  137.0700 C   0  0  0  0  0  0  0  0  0  0  0  0
  191.4200  176.5380  145.1370 C   0  0  0  0  0  0  0  0  0  0  0  0
  191.9820  175.6860  144.3960 O   0  0  0  0  0  0  0  0  0  0  0  0
  192.0790  176.1720  147.4630 C   0  0  0  0  0  0  0  0  0  0  0  0
  191.9820  176.9180  146.4020 N   0  0  0  0  0  0  0  0  0  0  0  0
  192.6870  176.7050  148.6330 N   0  0  0  0  0  1  0  0  0  0  0  0
  191.5910  174.8310  147.4830 N   0  0  0  0  0  1  0  0  0  0  0  0
  186.0580  178.5210  147.1780 C   0  0  0  0  0  3  0  0  0  0  0  0
  186.3570  179.6900  147.7310 C   0  0  0  0  0  2  0  0  0  0  0  0
  3 14  1  6  0  0  0
  3  4  1  0  0  0  0
  4 10  1  6  0  0  0
  4  2  1  0  0  0  0
  5 10  2  0  0  0  0
  6  1  2  0  0  0  0
  7 29  1  6  0  0  0
  7 16  1  0  0  0  0
  8  1  1  6  0  0  0
  8  5  1  0  0  0  0
  8 15  1  0  0  0  0
  9  7  1  0  0  0  0
  9  6  2  0  0  0  0
 10 12  1  0  0  0  0
 11 15  2  0  0  0  0
 12 38  1  0  0  0  0
 13 32  1  1  0  0  0
 13  2  1  0  0  0  0
 14 13  1  0  0  0  0
 15 17  1  0  0  0  0
 17 12  2  0  0  0  0
 18 16  1  6  0  0  0
 18  5  1  0  0  0  0
 18  3  1  0  0  0  0
 21 26  1  0  0  0  0
 23 21  1  0  0  0  0
 25 30  1  0  0  0  0
 25 28  1  0  0  0  0
 26 29  1  0  0  0  0
 27 24  1  1  0  0  0
 27 30  1  0  0  0  0
 27 23  1  0  0  0  0
 28 26  1  0  0  0  0
 29 22  2  0  0  0  0
 30 31  1  0  0  0  0
 31 20  2  0  0  0  0
 31 19  1  0  0  0  0
 32 35  1  0  0  0  0
 33 32  2  0  0  0  0
 34 37  1  0  0  0  0
 34 36  1  0  0  0  0
 35 34  2  0  0  0  0
 38 39  2  0  0  0  0
M  END
>  <MODEL>
4

>  <REMARK>
 VINA RESULT:      -9.1      3.123      5.201
  Name = 
  4 active torsions:
  status: ('A' for Active; 'I' for Inactive)
    1  A    between atoms: N_9  and  C_25
    2  A    between atoms: C_15  and  C_35
    3  A    between atoms: C_24  and  C_31
    4  A    between atoms: C_25  and  C_27
                            x       y       z     vdW  Elec       q    Type
                         _______ _______ _______ _____ _____    ______ ____

>  <TORSDO>
F 4

$$$$
=
 OpenBabel10232412073D

 39 43  0  0  1  0  0  0  0  0999 V2000
  185.0490  179.0900  144.7050 C   0  0  0  0  0  3  0  0  0  0  0  0
  190.5460  177.5860  142.1990 S   0  0  0  0  0  0  0  0  0  0  0  0
  188.0050  177.0970  141.7200 C   0  0  2  0  0  3  0  0  0  0  0  0
  188.8710  177.2400  142.6890 C   0  0  2  0  0  3  0  0  0  0  0  0
  186.8740  177.7180  143.6400 C   0  0  0  0  0  0  0  0  0  0  0  0
  184.4650  179.4070  143.5920 C   0  0  0  0  0  0  0  0  0  0  0  0
  184.5900  178.7080  141.3180 C   0  0  2  0  0  3  0  0  0  0  0  0
  185.8360  177.8160  144.7540 C   0  0  1  0  0  3  0  0  0  0  0  0
  184.0380  179.6000  142.3830 C   0  0  0  0  0  3  0  0  0  0  0  0
  188.1750  177.6440  143.8970 C   0  0  0  0  0  0  0  0  0  0  0  0
  185.7350  177.5500  147.1340 O   0  0  0  0  0  0  0  0  0  0  0  0
  188.7160  177.7010  145.2680 C   0  0  0  0  0  0  0  0  0  0  0  0
  189.8840  177.9690  140.5340 C   0  0  2  0  0  3  0  0  0  0  0  0
  188.5660  177.2190  140.3520 C   0  0  0  0  0  2  0  0  0  0  0  0
  186.4680  177.6790  146.1170 C   0  0  0  0  0  0  0  0  0  0  0  0
  186.1190  178.6420  141.3890 C   0  0  0  0  0  2  0  0  0  0  0  0
  187.8950  177.7070  146.2790 N   0  0  0  0  0  0  0  0  0  0  0  0
  186.6100  177.4180  142.1730 C   0  0  1  0  0  3  0  0  0  0  0  0
  185.9330  176.0670  138.0750 O   0  0  0  0  0  1  0  0  0  0  0  0
  185.7820  177.8060  136.6000 O   0  0  0  0  0  0  0  0  0  0  0  0
  182.3460  177.4100  139.9110 C   0  0  0  0  0  2  0  0  0  0  0  0
  184.7220  180.1610  139.4290 O   0  0  0  0  0  0  0  0  0  0  0  0
  183.1030  176.0980  139.7260 C   0  0  0  0  0  2  0  0  0  0  0  0
  183.6400  174.2890  138.0570 C   0  0  0  0  0  1  0  0  0  0  0  0
  182.9250  177.7520  136.8950 C   0  0  0  0  0  2  0  0  0  0  0  0
  183.0740  178.5080  139.2770 N   0  0  0  0  0  0  0  0  0  0  0  0
  183.0830  175.6890  138.2580 C   0  0  2  0  0  3  0  0  0  0  0  0
  182.7430  178.8990  137.9040 C   0  0  0  0  0  2  0  0  0  0  0  0
  184.1470  179.1730  139.9650 C   0  0  0  0  0  0  0  0  0  0  0  0
  183.7650  176.6840  137.4270 N   0  0  0  0  0  0  0  0  0  0  0  0
  185.1960  176.8240  137.3890 C   0  0  0  0  0  0  0  0  0  0  0  0
  190.8580  177.6100  139.4630 C   0  0  0  0  0  0  0  0  0  0  0  0
  192.0770  177.4520  139.7490 O   0  0  0  0  0  0  0  0  0  0  0  0
  190.2700  176.3030  137.4820 C   0  0  0  0  0  0  0  0  0  0  0  0
  190.3740  177.4290  138.1240 N   0  0  0  0  0  0  0  0  0  0  0  0
  189.7460  176.3030  136.1600 N   0  0  0  0  0  1  0  0  0  0  0  0
  190.6680  175.0650  138.0710 N   0  0  0  0  0  1  0  0  0  0  0  0
  190.1690  177.7080  145.4930 C   0  0  0  0  0  3  0  0  0  0  0  0
  190.7560  176.9200  146.3860 C   0  0  0  0  0  2  0  0  0  0  0  0
  3 14  1  6  0  0  0
  3 18  1  0  0  0  0
  3  4  1  0  0  0  0
  4  2  1  6  0  0  0
  4 10  1  0  0  0  0
  5 10  2  0  0  0  0
  5  8  1  0  0  0  0
  6  1  2  0  0  0  0
  7 29  1  6  0  0  0
  7 16  1  0  0  0  0
  7  9  1  0  0  0  0
  8  1  1  1  0  0  0
  8 15  1  0  0  0  0
  9  6  2  0  0  0  0
 10 12  1  0  0  0  0
 12 38  1  0  0  0  0
 12 17  2  0  0  0  0
 13 32  1  6  0  0  0
 13  2  1  0  0  0  0
 14 13  1  0  0  0  0
 15 17  1  0  0  0  0
 15 11  2  0  0  0  0
 18 16  1  6  0  0  0
 18  5  1  0  0  0  0
 20 31  2  0  0  0  0
 22 29  2  0  0  0  0
 23 21  1  0  0  0  0
 25 30  1  0  0  0  0
 25 28  1  0  0  0  0
 26 21  1  0  0  0  0
 26 29  1  0  0  0  0
 27 24  1  1  0  0  0
 27 23  1  0  0  0  0
 28 26  1  0  0  0  0
 30 27  1  0  0  0  0
 31 30  1  0  0  0  0
 31 19  1  0  0  0  0
 32 33  2  0  0  0  0
 34 37  1  0  0  0  0
 34 35  2  0  0  0  0
 35 32  1  0  0  0  0
 36 34  1  0  0  0  0
 38 39  2  0  0  0  0
M  END
>  <MODEL>
5

>  <REMARK>
 VINA RESULT:      -8.6      1.299      1.753
  Name = 
  4 active torsions:
  status: ('A' for Active; 'I' for Inactive)
    1  A    between atoms: N_9  and  C_25
    2  A    between atoms: C_15  and  C_35
    3  A    between atoms: C_24  and  C_31
    4  A    between atoms: C_25  and  C_27
                            x       y       z     vdW  Elec       q    Type
                         _______ _______ _______ _____ _____    ______ ____

>  <TORSDO>
F 4

$$$$
=
 OpenBabel10232412073D

 39 43  0  0  1  0  0  0  0  0999 V2000
  190.5190  176.7430  141.4760 C   0  0  0  0  0  3  0  0  0  0  0  0
  184.5950  178.0030  142.9160 S   0  0  0  0  0  0  0  0  0  0  0  0
  186.4760  179.0380  141.3950 C   0  0  2  0  0  3  0  0  0  0  0  0
  186.2760  178.4570  142.5490 C   0  0  2  0  0  3  0  0  0  0  0  0
  188.4520  178.0500  142.0810 C   0  0  0  0  0  0  0  0  0  0  0  0
  190.3910  176.8920  140.1950 C   0  0  0  0  0  0  0  0  0  0  0  0
  189.0670  178.2330  138.7380 C   0  0  2  0  0  3  0  0  0  0  0  0
  189.9260  177.7870  142.3730 C   0  0  1  0  0  3  0  0  0  0  0  0
  190.0830  177.1600  138.9640 C   0  0  0  0  0  3  0  0  0  0  0  0
  187.5050  177.8200  142.9840 C   0  0  0  0  0  0  0  0  0  0  0  0
  191.3180  177.3110  144.2660 O   0  0  0  0  0  0  0  0  0  0  0  0
  187.7990  177.2480  144.3120 C   0  0  0  0  0  0  0  0  0  0  0  0
  184.2280  178.2750  141.1420 C   0  0  2  0  0  3  0  0  0  0  0  0
  185.2560  179.2560  140.5790 C   0  0  0  0  0  2  0  0  0  0  0  0
  190.1450  177.3830  143.8110 C   0  0  0  0  0  0  0  0  0  0  0  0
  187.8270  178.0150  139.6110 C   0  0  0  0  0  2  0  0  0  0  0  0
  189.0380  177.0660  144.6690 N   0  0  0  0  0  0  0  0  0  0  0  0
  187.8820  178.8320  140.9090 C   0  0  1  0  0  3  0  0  0  0  0  0
  191.2390  175.3200  136.2700 O   0  0  0  0  0  1  0  0  0  0  0  0
  190.9040  176.6330  134.4300 O   0  0  0  0  0  0  0  0  0  0  0  0
  187.2840  176.2140  137.5360 C   0  0  0  0  0  2  0  0  0  0  0  0
  189.1080  179.2470  136.5780 O   0  0  0  0  0  0  0  0  0  0  0  0
  188.3010  175.0870  137.7010 C   0  0  0  0  0  2  0  0  0  0  0  0
  189.3570  173.1260  136.5250 C   0  0  0  0  0  1  0  0  0  0  0  0
  188.0990  176.0270  134.5610 C   0  0  0  0  0  2  0  0  0  0  0  0
  187.8440  177.2840  136.7120 N   0  0  0  0  0  0  0  0  0  0  0  0
  188.5160  174.3830  136.3670 C   0  0  2  0  0  3  0  0  0  0  0  0
  187.5890  177.2940  135.2690 C   0  0  0  0  0  2  0  0  0  0  0  0
  188.6850  178.2950  137.2910 C   0  0  0  0  0  0  0  0  0  0  0  0
  189.0710  175.3030  135.3720 N   0  0  0  0  0  0  0  0  0  0  0  0
  190.4430  175.7370  135.3870 C   0  0  0  0  0  0  0  0  0  0  0  0
  182.8400  178.7800  140.9420 C   0  0  0  0  0  0  0  0  0  0  0  0
  182.0190  178.7600  141.9000 O   0  0  0  0  0  0  0  0  0  0  0  0
  181.9510  178.6410  138.6690 C   0  0  0  0  0  0  0  0  0  0  0  0
  182.4760  179.3040  139.6560 N   0  0  0  0  0  0  0  0  0  0  0  0
  181.6320  179.3260  137.4640 N   0  0  0  0  0  1  0  0  0  0  0  0
  181.6880  177.2410  138.7620 N   0  0  0  0  0  1  0  0  0  0  0  0
  186.7040  176.9260  145.2390 C   0  0  0  0  0  3  0  0  0  0  0  0
  186.4030  177.6940  146.2800 C   0  0  0  0  0  2  0  0  0  0  0  0
  3 14  1  6  0  0  0
  3  4  1  0  0  0  0
  4  2  1  6  0  0  0
  4 10  1  0  0  0  0
  5  8  1  0  0  0  0
  5 10  2  0  0  0  0
  6  1  2  0  0  0  0
  7 29  1  6  0  0  0
  7  9  1  0  0  0  0
  7 16  1  0  0  0  0
  8  1  1  6  0  0  0
  8 15  1  0  0  0  0
  9  6  2  0  0  0  0
 10 12  1  0  0  0  0
 12 17  2  0  0  0  0
 12 38  1  0  0  0  0
 13 32  1  1  0  0  0
 13  2  1  0  0  0  0
 14 13  1  0  0  0  0
 15 11  2  0  0  0  0
 15 17  1  0  0  0  0
 18 16  1  6  0  0  0
 18  3  1  0  0  0  0
 18  5  1  0  0  0  0
 20 31  2  0  0  0  0
 21 23  1  0  0  0  0
 22 29  2  0  0  0  0
 25 28  1  0  0  0  0
 25 30  1  0  0  0  0
 26 29  1  0  0  0  0
 26 21  1  0  0  0  0
 27 24  1  1  0  0  0
 27 23  1  0  0  0  0
 28 26  1  0  0  0  0
 30 31  1  0  0  0  0
 30 27  1  0  0  0  0
 31 19  1  0  0  0  0
 32 33  2  0  0  0  0
 34 37  1  0  0  0  0
 34 35  2  0  0  0  0
 35 32  1  0  0  0  0
 36 34  1  0  0  0  0
 38 39  2  0  0  0  0
M  END
>  <MODEL>
6

>  <REMARK>
 VINA RESULT:      -8.2      2.833      6.697
  Name = 
  4 active torsions:
  status: ('A' for Active; 'I' for Inactive)
    1  A    between atoms: N_9  and  C_25
    2  A    between atoms: C_15  and  C_35
    3  A    between atoms: C_24  and  C_31
    4  A    between atoms: C_25  and  C_27
                            x       y       z     vdW  Elec       q    Type
                         _______ _______ _______ _____ _____    ______ ____

>  <TORSDO>
F 4

$$$$
=
 OpenBabel10232412073D

 39 43  0  0  1  0  0  0  0  0999 V2000
  184.1560  179.1720  140.1570 C   0  0  0  0  0  3  0  0  0  0  0  0
  188.6650  178.4010  144.3800 S   0  0  0  0  0  0  0  0  0  0  0  0
  188.0150  177.3870  142.0400 C   0  0  2  0  0  3  0  0  0  0  0  0
  187.5040  177.8160  143.1650 C   0  0  2  0  0  3  0  0  0  0  0  0
  185.8270  178.0360  141.6620 C   0  0  0  0  0  0  0  0  0  0  0  0
  184.9350  179.2230  139.1230 C   0  0  0  0  0  0  0  0  0  0  0  0
  187.0190  178.2660  138.4830 C   0  0  2  0  0  3  0  0  0  0  0  0
  184.3860  178.0850  141.1630 C   0  0  1  0  0  3  0  0  0  0  0  0
  185.8610  179.1720  138.2170 C   0  0  0  0  0  3  0  0  0  0  0  0
  186.1350  178.2400  142.9380 C   0  0  0  0  0  0  0  0  0  0  0  0
  182.1740  178.1220  142.0840 O   0  0  0  0  0  0  0  0  0  0  0  0
  185.1200  178.5780  143.9540 C   0  0  0  0  0  0  0  0  0  0  0  0
  189.9160  178.4300  143.0410 C   0  0  2  0  0  3  0  0  0  0  0  0
  189.4970  177.4300  141.9650 C   0  0  0  0  0  2  0  0  0  0  0  0
  183.4090  178.2500  142.3000 C   0  0  0  0  0  0  0  0  0  0  0  0
  187.5930  178.4960  139.8840 C   0  0  0  0  0  2  0  0  0  0  0  0
  183.8600  178.5640  143.6270 N   0  0  0  0  0  0  0  0  0  0  0  0
  187.0340  177.5000  140.9090 C   0  0  1  0  0  3  0  0  0  0  0  0
  190.3270  175.4010  138.8690 O   0  0  0  0  0  1  0  0  0  0  0  0
  191.7160  176.8630  137.7930 O   0  0  0  0  0  0  0  0  0  0  0  0
  187.2320  176.4610  136.1600 C   0  0  0  0  0  2  0  0  0  0  0  0
  188.8810  179.4280  137.5450 O   0  0  0  0  0  0  0  0  0  0  0  0
  187.6300  175.2600  137.0150 C   0  0  0  0  0  2  0  0  0  0  0  0
  189.2330  173.3240  137.1640 C   0  0  0  0  0  1  0  0  0  0  0  0
  190.2210  176.4360  135.3760 C   0  0  0  0  0  2  0  0  0  0  0  0
  188.1940  177.5480  136.3360 N   0  0  0  0  0  0  0  0  0  0  0  0
  188.9140  174.6410  136.4760 C   0  0  2  0  0  3  0  0  0  0  0  0
  189.3170  177.6790  135.4030 C   0  0  0  0  0  2  0  0  0  0  0  0
  188.0810  178.4570  137.4430 C   0  0  0  0  0  0  0  0  0  0  0  0
  190.0250  175.5920  136.5500 N   0  0  0  0  0  0  0  0  0  0  0  0
  190.6830  175.9320  137.7840 C   0  0  0  0  0  0  0  0  0  0  0  0
  191.2790  178.1200  143.5590 C   0  0  0  0  0  0  0  0  0  0  0  0
  192.0170  179.0510  143.9840 O   0  0  0  0  0  0  0  0  0  0  0  0
  191.8580  176.0010  144.6330 C   0  0  0  0  0  0  0  0  0  0  0  0
  191.7130  176.7520  143.5810 N   0  0  0  0  0  0  0  0  0  0  0  0
  192.2800  174.6530  144.4700 N   0  0  0  0  0  1  0  0  0  0  0  0
  191.6060  176.4960  145.9470 N   0  0  0  0  0  1  0  0  0  0  0  0
  185.5250  178.8850  145.3340 C   0  0  0  0  0  3  0  0  0  0  0  0
  184.8740  178.4130  146.3900 C   0  0  0  0  0  2  0  0  0  0  0  0
  3 14  1  6  0  0  0
  3  4  1  0  0  0  0
  4 10  1  6  0  0  0
  4  2  1  0  0  0  0
  5 10  2  0  0  0  0
  6  1  2  0  0  0  0
  7 29  1  6  0  0  0
  7 16  1  0  0  0  0
  8  1  1  6  0  0  0
  8  5  1  0  0  0  0
  8 15  1  0  0  0  0
  9  7  1  0  0  0  0
  9  6  2  0  0  0  0
 10 12  1  0  0  0  0
 11 15  2  0  0  0  0
 12 38  1  0  0  0  0
 13 32  1  1  0  0  0
 13  2  1  0  0  0  0
 14 13  1  0  0  0  0
 15 17  1  0  0  0  0
 17 12  2  0  0  0  0
 18 16  1  6  0  0  0
 18  5  1  0  0  0  0
 18  3  1  0  0  0  0
 21 26  1  0  0  0  0
 21 23  1  0  0  0  0
 25 28  1  0  0  0  0
 25 30  1  0  0  0  0
 26 29  1  0  0  0  0
 27 30  1  0  0  0  0
 27 23  1  0  0  0  0
 27 24  1  1  0  0  0
 28 26  1  0  0  0  0
 29 22  2  0  0  0  0
 30 31  1  0  0  0  0
 31 20  2  0  0  0  0
 31 19  1  0  0  0  0
 32 35  1  0  0  0  0
 32 33  2  0  0  0  0
 34 37  1  0  0  0  0
 35 34  2  0  0  0  0
 36 34  1  0  0  0  0
 38 39  2  0  0  0  0
M  END
>  <MODEL>
7

>  <REMARK>
 VINA RESULT:      -8.2      2.798      5.839
  Name = 
  4 active torsions:
  status: ('A' for Active; 'I' for Inactive)
    1  A    between atoms: N_9  and  C_25
    2  A    between atoms: C_15  and  C_35
    3  A    between atoms: C_24  and  C_31
    4  A    between atoms: C_25  and  C_27
                            x       y       z     vdW  Elec       q    Type
                         _______ _______ _______ _____ _____    ______ ____

>  <TORSDO>
F 4

$$$$
=
 OpenBabel10232412073D

 39 43  0  0  1  0  0  0  0  0999 V2000
  190.5010  176.6920  141.4910 C   0  0  0  0  0  3  0  0  0  0  0  0
  184.6100  178.0330  142.9930 S   0  0  0  0  0  0  0  0  0  0  0  0
  186.4910  179.0460  141.4560 C   0  0  2  0  0  3  0  0  0  0  0  0
  186.2940  178.4640  142.6100 C   0  0  2  0  0  3  0  0  0  0  0  0
  188.4590  178.0270  142.1190 C   0  0  0  0  0  0  0  0  0  0  0  0
  190.3630  176.8460  140.2120 C   0  0  0  0  0  0  0  0  0  0  0  0
  189.0440  178.2100  138.7720 C   0  0  2  0  0  3  0  0  0  0  0  0
  189.9320  177.7410  142.3970 C   0  0  1  0  0  3  0  0  0  0  0  0
  190.0460  177.1210  138.9850 C   0  0  0  0  0  3  0  0  0  0  0  0
  187.5180  177.8080  143.0320 C   0  0  0  0  0  0  0  0  0  0  0  0
  191.3350  177.2400  144.2740 O   0  0  0  0  0  0  0  0  0  0  0  0
  187.8160  177.2280  144.3550 C   0  0  0  0  0  0  0  0  0  0  0  0
  184.2300  178.3160  141.2230 C   0  0  2  0  0  3  0  0  0  0  0  0
  185.2660  179.2830  140.6520 C   0  0  0  0  0  2  0  0  0  0  0  0
  190.1590  177.3310  143.8310 C   0  0  0  0  0  0  0  0  0  0  0  0
  187.8090  178.0070  139.6560 C   0  0  0  0  0  2  0  0  0  0  0  0
  189.0560  177.0270  144.6990 N   0  0  0  0  0  0  0  0  0  0  0  0
  187.8890  178.8200  140.9550 C   0  0  1  0  0  3  0  0  0  0  0  0
  191.1890  175.3090  136.2650 O   0  0  0  0  0  1  0  0  0  0  0  0
  190.8390  176.6340  134.4360 O   0  0  0  0  0  0  0  0  0  0  0  0
  187.2480  176.2000  137.5740 C   0  0  0  0  0  2  0  0  0  0  0  0
  189.0660  179.2370  136.6170 O   0  0  0  0  0  0  0  0  0  0  0  0
  188.2640  175.0710  137.7220 C   0  0  0  0  0  2  0  0  0  0  0  0
  189.3060  173.1160  136.5240 C   0  0  0  0  0  1  0  0  0  0  0  0
  188.0340  176.0310  134.5900 C   0  0  0  0  0  2  0  0  0  0  0  0
  187.8010  177.2740  136.7510 N   0  0  0  0  0  0  0  0  0  0  0  0
  188.4660  174.3750  136.3820 C   0  0  2  0  0  3  0  0  0  0  0  0
  187.5330  177.2940  135.3100 C   0  0  0  0  0  2  0  0  0  0  0  0
  188.6490  178.2810  137.3280 C   0  0  0  0  0  0  0  0  0  0  0  0
  189.0130  175.3010  135.3880 N   0  0  0  0  0  0  0  0  0  0  0  0
  190.3860  175.7320  135.3930 C   0  0  0  0  0  0  0  0  0  0  0  0
  182.8470  178.8420  141.0380 C   0  0  0  0  0  0  0  0  0  0  0  0
  182.4470  179.1670  139.8860 O   0  0  0  0  0  0  0  0  0  0  0  0
  180.8070  178.4210  142.3180 C   0  0  0  0  0  0  0  0  0  0  0  0
  181.9900  178.9440  142.1840 N   0  0  0  0  0  0  0  0  0  0  0  0
  180.1000  178.6060  143.5390 N   0  0  0  0  0  1  0  0  0  0  0  0
  180.1990  177.6660  141.2710 N   0  0  0  0  0  1  0  0  0  0  0  0
  186.7260  176.9200  145.2920 C   0  0  0  0  0  3  0  0  0  0  0  0
  186.4740  177.6660  146.3620 C   0  0  0  0  0  2  0  0  0  0  0  0
  3 14  1  6  0  0  0
  3  4  1  0  0  0  0
  4  2  1  6  0  0  0
  4 10  1  0  0  0  0
  5  8  1  0  0  0  0
  5 10  2  0  0  0  0
  6  1  2  0  0  0  0
  7 29  1  6  0  0  0
  7  9  1  0  0  0  0
  7 16  1  0  0  0  0
  8  1  1  6  0  0  0
  8 15  1  0  0  0  0
  9  6  2  0  0  0  0
 10 12  1  0  0  0  0
 12 17  2  0  0  0  0
 12 38  1  0  0  0  0
 13 32  1  1  0  0  0
 13  2  1  0  0  0  0
 14 13  1  0  0  0  0
 15 11  2  0  0  0  0
 15 17  1  0  0  0  0
 18 16  1  6  0  0  0
 18  3  1  0  0  0  0
 18  5  1  0  0  0  0
 20 31  2  0  0  0  0
 21 23  1  0  0  0  0
 22 29  2  0  0  0  0
 25 28  1  0  0  0  0
 25 30  1  0  0  0  0
 26 29  1  0  0  0  0
 26 21  1  0  0  0  0
 27 24  1  1  0  0  0
 27 23  1  0  0  0  0
 28 26  1  0  0  0  0
 30 31  1  0  0  0  0
 30 27  1  0  0  0  0
 31 19  1  0  0  0  0
 32 35  1  0  0  0  0
 33 32  2  0  0  0  0
 34 36  1  0  0  0  0
 35 34  2  0  0  0  0
 37 34  1  0  0  0  0
 38 39  2  0  0  0  0
M  END
>  <MODEL>
8

>  <REMARK>
 VINA RESULT:      -8.2      2.942      6.923
  Name = 
  4 active torsions:
  status: ('A' for Active; 'I' for Inactive)
    1  A    between atoms: N_9  and  C_25
    2  A    between atoms: C_15  and  C_35
    3  A    between atoms: C_24  and  C_31
    4  A    between atoms: C_25  and  C_27
                            x       y       z     vdW  Elec       q    Type
                         _______ _______ _______ _____ _____    ______ ____

>  <TORSDO>
F 4

$$$$
=
 OpenBabel10232412073D

 39 43  0  0  1  0  0  0  0  0999 V2000
  187.3530  177.4350  137.9620 C   0  0  0  0  0  3  0  0  0  0  0  0
  187.4900  177.3430  144.1850 S   0  0  0  0  0  0  0  0  0  0  0  0
  186.6310  178.9600  142.2950 C   0  0  2  0  0  3  0  0  0  0  0  0
  187.6070  178.1450  142.6010 C   0  0  2  0  0  3  0  0  0  0  0  0
  187.6230  178.2220  140.3400 C   0  0  0  0  0  0  0  0  0  0  0  0
  186.1140  177.7980  137.8500 C   0  0  0  0  0  0  0  0  0  0  0  0
  184.5890  179.1360  139.0990 C   0  0  2  0  0  3  0  0  0  0  0  0
  188.2210  178.1710  138.9380 C   0  0  1  0  0  3  0  0  0  0  0  0
  184.8960  178.2340  137.9470 C   0  0  0  0  0  3  0  0  0  0  0  0
  188.2290  177.6630  141.3820 C   0  0  0  0  0  0  0  0  0  0  0  0
  190.3040  177.5990  137.9000 O   0  0  0  0  0  0  0  0  0  0  0  0
  189.4920  176.9120  141.2550 C   0  0  0  0  0  0  0  0  0  0  0  0
  185.7370  177.8760  144.2250 C   0  0  2  0  0  3  0  0  0  0  0  0
  185.5850  179.1100  143.3370 C   0  0  0  0  0  2  0  0  0  0  0  0
  189.5950  177.5490  138.9410 C   0  0  0  0  0  0  0  0  0  0  0  0
  185.0970  178.5430  140.4170 C   0  0  0  0  0  2  0  0  0  0  0  0
  190.1070  176.8860  140.1070 N   0  0  0  0  0  0  0  0  0  0  0  0
  186.4730  179.0990  140.8080 C   0  0  1  0  0  3  0  0  0  0  0  0
  182.2980  176.9810  136.0320 O   0  0  0  0  0  0  0  0  0  0  0  0
  180.6360  178.5420  136.1780 O   0  0  0  0  0  1  0  0  0  0  0  0
  182.7330  177.1550  140.2530 C   0  0  0  0  0  2  0  0  0  0  0  0
  182.6630  180.5070  138.7690 O   0  0  0  0  0  0  0  0  0  0  0  0
  182.9650  176.1480  139.1300 C   0  0  0  0  0  2  0  0  0  0  0  0
  181.7980  174.5640  137.5580 C   0  0  0  0  0  1  0  0  0  0  0  0
  180.0300  177.5880  138.8190 C   0  0  0  0  0  2  0  0  0  0  0  0
  182.2210  178.4120  139.7090 N   0  0  0  0  0  0  0  0  0  0  0  0
  181.6310  175.7180  138.5340 C   0  0  2  0  0  3  0  0  0  0  0  0
  180.7740  178.6420  139.6570 C   0  0  0  0  0  2  0  0  0  0  0  0
  183.1160  179.4010  139.1760 C   0  0  0  0  0  0  0  0  0  0  0  0
  180.9320  176.8570  137.9350 N   0  0  0  0  0  0  0  0  0  0  0  0
  181.3240  177.4450  136.6820 C   0  0  0  0  0  0  0  0  0  0  0  0
  185.2830  178.1590  145.6180 C   0  0  0  0  0  0  0  0  0  0  0  0
  184.1340  178.6390  145.8190 O   0  0  0  0  0  0  0  0  0  0  0  0
  186.5870  178.6760  147.6200 C   0  0  0  0  0  0  0  0  0  0  0  0
  186.1680  177.8520  146.7060 N   0  0  0  0  0  0  0  0  0  0  0  0
  187.4500  178.1960  148.6440 N   0  0  0  0  0  1  0  0  0  0  0  0
  186.2050  180.0510  147.6220 N   0  0  0  0  0  1  0  0  0  0  0  0
  190.0730  176.2350  142.4240 C   0  0  0  0  0  3  0  0  0  0  0  0
  191.1270  176.7140  143.0740 C   0  0  0  0  0  2  0  0  0  0  0  0
  2 13  1  0  0  0  0
  3  4  1  0  0  0  0
  3 14  1  6  0  0  0
  4 10  1  6  0  0  0
  4  2  1  0  0  0  0
  5 18  1  0  0  0  0
  5 10  2  0  0  0  0
  6  9  2  0  0  0  0
  6  1  2  0  0  0  0
  7 29  1  1  0  0  0
  7 16  1  0  0  0  0
  8  1  1  6  0  0  0
  8 15  1  0  0  0  0
  8  5  1  0  0  0  0
  9  7  1  0  0  0  0
 11 15  2  0  0  0  0
 12 10  1  0  0  0  0
 12 38  1  0  0  0  0
 13 32  1  1  0  0  0
 14 13  1  0  0  0  0
 15 17  1  0  0  0  0
 17 12  2  0  0  0  0
 18 16  1  6  0  0  0
 18  3  1  0  0  0  0
 19 31  2  0  0  0  0
 20 31  1  0  0  0  0
 22 29  2  0  0  0  0
 23 21  1  0  0  0  0
 25 28  1  0  0  0  0
 26 21  1  0  0  0  0
 27 24  1  6  0  0  0
 27 23  1  0  0  0  0
 28 26  1  0  0  0  0
 29 26  1  0  0  0  0
 30 27  1  0  0  0  0
 30 25  1  0  0  0  0
 31 30  1  0  0  0  0
 32 33  2  0  0  0  0
 32 35  1  0  0  0  0
 34 37  1  0  0  0  0
 34 36  1  0  0  0  0
 35 34  2  0  0  0  0
 38 39  2  0  0  0  0
M  END
>  <MODEL>
9

>  <REMARK>
 VINA RESULT:      -7.7      2.085      5.792
  Name = 
  4 active torsions:
  status: ('A' for Active; 'I' for Inactive)
    1  A    between atoms: N_9  and  C_25
    2  A    between atoms: C_15  and  C_35
    3  A    between atoms: C_24  and  C_31
    4  A    between atoms: C_25  and  C_27
                            x       y       z     vdW  Elec       q    Type
                         _______ _______ _______ _____ _____    ______ ____

>  <TORSDO>
F 4

$$$$
