=
 OpenBabel10232412323D

 29 32  0  0  1  0  0  0  0  0999 V2000
  189.3840  176.9160  142.1990 C   0  0  2  0  0  3  0  0  0  0  0  0
  189.0780  177.4990  140.8440 C   0  0  0  0  0  2  0  0  0  0  0  0
  190.1810  177.2380  139.8230 C   0  0  0  0  0  2  0  0  0  0  0  0
  187.6460  177.6990  145.4360 C   0  0  0  0  0  0  0  0  0  0  0  0
  189.8540  176.7060  145.0870 C   0  0  0  0  0  0  0  0  0  0  0  0
  190.9080  175.6590  144.0740 S   0  0  0  0  0  0  0  0  0  0  0  0
  188.5890  177.0660  144.5880 C   0  0  0  0  0  0  0  0  0  0  0  0
  191.8060  176.6960  141.6140 C   0  0  0  0  0  2  0  0  0  0  0  0
  189.3040  177.7080  147.2210 C   0  0  0  0  0  3  0  0  0  0  0  0
  188.3360  176.9560  143.1780 N   0  0  0  0  0  2  0  0  0  0  0  0
  190.6400  176.5840  142.5610 C   0  0  1  0  0  3  0  0  0  0  0  0
  191.5190  177.6190  140.4310 C   0  0  1  0  0  3  0  0  0  0  0  0
  190.2250  177.0530  146.3980 C   0  0  0  0  0  0  0  0  0  0  0  0
  188.0300  178.0190  146.7470 C   0  0  0  0  0  3  0  0  0  0  0  0
  184.0190  178.8430  145.4590 C   0  0  0  0  0  3  0  0  0  0  0  0
  186.2790  178.0730  144.9840 C   0  0  0  0  0  0  0  0  0  0  0  0
  183.7070  178.8240  144.0970 C   0  0  0  0  0  0  0  0  0  0  0  0
  184.6870  178.4320  143.1780 C   0  0  0  0  0  3  0  0  0  0  0  0
  185.9610  178.0620  143.6170 C   0  0  0  0  0  3  0  0  0  0  0  0
  185.2930  178.4760  145.8980 C   0  0  0  0  0  3  0  0  0  0  0  0
  181.7740  178.9280  142.4180 C   0  0  0  0  0  0  0  0  0  0  0  0
  180.3610  179.3240  142.1910 C   0  0  0  0  0  1  0  0  0  0  0  0
  182.4160  178.3700  141.4890 O   0  0  0  0  0  0  0  0  0  0  0  0
  182.3860  179.2020  143.6850 N   0  0  0  0  0  2  0  0  0  0  0  0
  191.5730  176.6820  146.9400 C   0  0  2  0  0  3  0  0  0  0  0  0
  191.6060  175.2210  147.3500 C   0  0  0  0  0  1  0  0  0  0  0  0
  191.9040  177.4890  148.0300 O   0  0  0  0  0  1  0  0  0  0  0  0
  192.6090  177.4820  139.3850 C   0  0  0  0  0  2  0  0  0  0  0  0
  193.8890  177.2400  140.0300 N   0  0  0  0  0  1  0  0  0  0  0  0
  1  2  1  1  0  0  0
  1 11  1  0  0  0  0
  1 10  1  0  0  0  0
  3 12  1  0  0  0  0
  3  2  1  0  0  0  0
  4 14  1  0  0  0  0
  5 13  2  0  0  0  0
  6  5  1  0  0  0  0
  7  5  1  0  0  0  0
  7  4  2  0  0  0  0
 10  7  1  0  0  0  0
 11  8  1  6  0  0  0
 11  6  1  0  0  0  0
 12 28  1  6  0  0  0
 12  8  1  0  0  0  0
 13 25  1  0  0  0  0
 13  9  1  0  0  0  0
 14  9  2  0  0  0  0
 15 20  1  0  0  0  0
 16  4  1  0  0  0  0
 16 20  2  0  0  0  0
 17 15  2  0  0  0  0
 18 19  2  0  0  0  0
 18 17  1  0  0  0  0
 19 16  1  0  0  0  0
 21 24  1  0  0  0  0
 22 21  1  0  0  0  0
 23 21  2  0  0  0  0
 24 17  1  0  0  0  0
 25 26  1  1  0  0  0
 25 27  1  0  0  0  0
 28 29  1  0  0  0  0
M  END
>  <MODEL>
1

>  <REMARK>
 VINA RESULT:      -9.5      0.000      0.000
  Name = 
  4 active torsions:
  status: ('A' for Active; 'I' for Inactive)
    1  A    between atoms: C_1  and  C_24
    2  A    between atoms: C_4  and  C_25
    3  A    between atoms: C_8  and  C_10
    4  A    between atoms: C_14  and  N_29
                            x       y       z     vdW  Elec       q    Type
                         _______ _______ _______ _____ _____    ______ ____

>  <TORSDO>
F 4

$$$$
=
 OpenBabel10232412323D

 29 32  0  0  1  0  0  0  0  0999 V2000
  189.4880  176.8410  144.3730 C   0  0  2  0  0  3  0  0  0  0  0  0
  190.8270  176.9130  145.0600 C   0  0  0  0  0  2  0  0  0  0  0  0
  190.7140  176.8970  146.5810 C   0  0  0  0  0  2  0  0  0  0  0  0
  188.7640  177.5750  140.7610 C   0  0  0  0  0  0  0  0  0  0  0  0
  187.2130  177.5230  142.6510 C   0  0  0  0  0  0  0  0  0  0  0  0
  186.7680  176.7950  144.2340 S   0  0  0  0  0  0  0  0  0  0  0  0
  188.4660  177.2050  142.0960 C   0  0  0  0  0  0  0  0  0  0  0  0
  188.3130  177.5030  146.4800 C   0  0  0  0  0  2  0  0  0  0  0  0
  186.5970  178.6790  140.6150 C   0  0  0  0  0  3  0  0  0  0  0  0
  189.4940  176.6750  142.9480 N   0  0  0  0  0  2  0  0  0  0  0  0
  188.3430  177.1480  145.0170 C   0  0  1  0  0  3  0  0  0  0  0  0
  189.6820  177.9230  147.0130 C   0  0  1  0  0  3  0  0  0  0  0  0
  186.2850  178.2870  141.9210 C   0  0  0  0  0  0  0  0  0  0  0  0
  187.8170  178.3200  140.0420 C   0  0  0  0  0  3  0  0  0  0  0  0
  191.3080  176.3810  138.1970 C   0  0  0  0  0  3  0  0  0  0  0  0
  190.0540  177.2380  140.1010 C   0  0  0  0  0  0  0  0  0  0  0  0
  192.5140  176.6530  138.8480 C   0  0  0  0  0  0  0  0  0  0  0  0
  192.4880  177.2230  140.1260 C   0  0  0  0  0  3  0  0  0  0  0  0
  191.2690  177.5150  140.7450 C   0  0  0  0  0  3  0  0  0  0  0  0
  190.0900  176.6750  138.8150 C   0  0  0  0  0  3  0  0  0  0  0  0
  194.1330  175.0500  137.6760 C   0  0  0  0  0  0  0  0  0  0  0  0
  195.4160  174.9170  136.9380 C   0  0  0  0  0  1  0  0  0  0  0  0
  193.4140  174.0310  137.8530 O   0  0  0  0  0  0  0  0  0  0  0  0
  193.7450  176.3330  138.1840 N   0  0  0  0  0  2  0  0  0  0  0  0
  184.9490  178.6390  142.5040 C   0  0  2  0  0  3  0  0  0  0  0  0
  183.8930  178.7270  141.4170 C   0  0  0  0  0  1  0  0  0  0  0  0
  185.0190  179.8480  143.1970 O   0  0  0  0  0  1  0  0  0  0  0  0
  189.6500  178.0050  148.5270 C   0  0  0  0  0  2  0  0  0  0  0  0
  188.2760  177.9640  148.9990 N   0  0  0  0  0  1  0  0  0  0  0  0
  1 11  1  0  0  0  0
  1  2  1  6  0  0  0
  2  3  1  0  0  0  0
  3 12  1  0  0  0  0
  4  7  1  0  0  0  0
  5  6  1  0  0  0  0
  6 11  1  0  0  0  0
  7  5  2  0  0  0  0
  7 10  1  0  0  0  0
  8 12  1  0  0  0  0
  9 13  2  0  0  0  0
 10  1  1  0  0  0  0
 11  8  1  1  0  0  0
 12 28  1  1  0  0  0
 13 25  1  0  0  0  0
 13  5  1  0  0  0  0
 14  9  1  0  0  0  0
 14  4  2  0  0  0  0
 15 20  2  0  0  0  0
 15 17  1  0  0  0  0
 16 19  2  0  0  0  0
 16  4  1  0  0  0  0
 17 18  2  0  0  0  0
 18 19  1  0  0  0  0
 20 16  1  0  0  0  0
 21 23  2  0  0  0  0
 21 24  1  0  0  0  0
 22 21  1  0  0  0  0
 24 17  1  0  0  0  0
 25 26  1  6  0  0  0
 25 27  1  0  0  0  0
 28 29  1  0  0  0  0
M  END
>  <MODEL>
2

>  <REMARK>
 VINA RESULT:      -9.1      2.962      8.407
  Name = 
  4 active torsions:
  status: ('A' for Active; 'I' for Inactive)
    1  A    between atoms: C_1  and  C_24
    2  A    between atoms: C_4  and  C_25
    3  A    between atoms: C_8  and  C_10
    4  A    between atoms: C_14  and  N_29
                            x       y       z     vdW  Elec       q    Type
                         _______ _______ _______ _____ _____    ______ ____

>  <TORSDO>
F 4

$$$$
=
 OpenBabel10232412323D

 29 32  0  0  1  0  0  0  0  0999 V2000
  189.0500  177.1350  141.2200 C   0  0  2  0  0  3  0  0  0  0  0  0
  189.4490  177.6080  139.8460 C   0  0  0  0  0  2  0  0  0  0  0  0
  190.8960  177.2720  139.5000 C   0  0  0  0  0  2  0  0  0  0  0  0
  186.0050  178.1640  143.1640 C   0  0  0  0  0  0  0  0  0  0  0  0
  188.0770  177.1560  143.9880 C   0  0  0  0  0  0  0  0  0  0  0  0
  189.4510  176.0380  143.6810 S   0  0  0  0  0  0  0  0  0  0  0  0
  187.2160  177.4700  142.9190 C   0  0  0  0  0  0  0  0  0  0  0  0
  191.4490  176.8810  141.8840 C   0  0  0  0  0  2  0  0  0  0  0  0
  186.6080  178.3220  145.5200 C   0  0  0  0  0  3  0  0  0  0  0  0
  187.6640  177.2480  141.5730 N   0  0  0  0  0  2  0  0  0  0  0  0
  189.9700  176.8390  142.1620 C   0  0  1  0  0  3  0  0  0  0  0  0
  191.7930  177.7070  140.6450 C   0  0  1  0  0  3  0  0  0  0  0  0
  187.7880  177.6080  145.2880 C   0  0  0  0  0  0  0  0  0  0  0  0
  185.7270  178.5880  144.4730 C   0  0  0  0  0  3  0  0  0  0  0  0
  184.5430  179.2290  139.8190 C   0  0  0  0  0  3  0  0  0  0  0  0
  185.0340  178.4930  142.0870 C   0  0  0  0  0  0  0  0  0  0  0  0
  183.1740  179.0660  140.0430 C   0  0  0  0  0  0  0  0  0  0  0  0
  182.7360  178.6100  141.2920 C   0  0  0  0  0  3  0  0  0  0  0  0
  183.6570  178.3250  142.3040 C   0  0  0  0  0  3  0  0  0  0  0  0
  185.4640  178.9420  140.8290 C   0  0  0  0  0  3  0  0  0  0  0  0
  182.0300  180.6660  138.4020 C   0  0  0  0  0  0  0  0  0  0  0  0
  181.0990  180.7910  137.2500 C   0  0  0  0  0  1  0  0  0  0  0  0
  182.5920  181.6980  138.8560 O   0  0  0  0  0  0  0  0  0  0  0  0
  182.2570  179.3760  138.9840 N   0  0  0  0  0  2  0  0  0  0  0  0
  188.7010  177.2870  146.4340 C   0  0  2  0  0  3  0  0  0  0  0  0
  187.9980  177.5080  147.7610 C   0  0  0  0  0  1  0  0  0  0  0  0
  189.8580  178.0660  146.3730 O   0  0  0  0  0  1  0  0  0  0  0  0
  193.2450  177.4930  140.2620 C   0  0  0  0  0  2  0  0  0  0  0  0
  193.3280  176.9030  138.9370 N   0  0  0  0  0  1  0  0  0  0  0  0
  1  2  1  1  0  0  0
  1 10  1  0  0  0  0
  1 11  1  0  0  0  0
  3  2  1  0  0  0  0
  3 12  1  0  0  0  0
  4 14  1  0  0  0  0
  5 13  2  0  0  0  0
  6  5  1  0  0  0  0
  7  4  2  0  0  0  0
  7  5  1  0  0  0  0
 10  7  1  0  0  0  0
 11  8  1  6  0  0  0
 11  6  1  0  0  0  0
 12 28  1  6  0  0  0
 12  8  1  0  0  0  0
 13  9  1  0  0  0  0
 13 25  1  0  0  0  0
 14  9  2  0  0  0  0
 15 17  2  0  0  0  0
 15 20  1  0  0  0  0
 16 19  1  0  0  0  0
 16  4  1  0  0  0  0
 17 18  1  0  0  0  0
 18 19  2  0  0  0  0
 20 16  2  0  0  0  0
 21 23  2  0  0  0  0
 21 24  1  0  0  0  0
 22 21  1  0  0  0  0
 24 17  1  0  0  0  0
 25 26  1  1  0  0  0
 27 25  1  0  0  0  0
 29 28  1  0  0  0  0
M  END
>  <MODEL>
3

>  <REMARK>
 VINA RESULT:      -9.0      2.216      3.103
  Name = 
  4 active torsions:
  status: ('A' for Active; 'I' for Inactive)
    1  A    between atoms: C_1  and  C_24
    2  A    between atoms: C_4  and  C_25
    3  A    between atoms: C_8  and  C_10
    4  A    between atoms: C_14  and  N_29
                            x       y       z     vdW  Elec       q    Type
                         _______ _______ _______ _____ _____    ______ ____

>  <TORSDO>
F 4

$$$$
=
 OpenBabel10232412323D

 29 32  0  0  1  0  0  0  0  0999 V2000
  189.4460  176.7140  144.1160 C   0  0  2  0  0  3  0  0  0  0  0  0
  190.9510  176.6390  144.1010 C   0  0  0  0  0  2  0  0  0  0  0  0
  191.5430  176.3400  145.4740 C   0  0  0  0  0  2  0  0  0  0  0  0
  187.2320  178.1180  141.4260 C   0  0  0  0  0  0  0  0  0  0  0  0
  186.7160  177.7360  143.7860 C   0  0  0  0  0  0  0  0  0  0  0  0
  186.9730  176.7310  145.2560 S   0  0  0  0  0  0  0  0  0  0  0  0
  187.5400  177.5100  142.6680 C   0  0  0  0  0  0  0  0  0  0  0  0
  189.4330  176.9870  146.6020 C   0  0  0  0  0  2  0  0  0  0  0  0
  185.3570  179.2600  142.4850 C   0  0  0  0  0  3  0  0  0  0  0  0
  188.7850  176.8170  142.8470 N   0  0  0  0  0  2  0  0  0  0  0  0
  188.7570  176.9110  145.2590 C   0  0  1  0  0  3  0  0  0  0  0  0
  190.9290  177.2820  146.4950 C   0  0  1  0  0  3  0  0  0  0  0  0
  185.6380  178.6350  143.7050 C   0  0  0  0  0  0  0  0  0  0  0  0
  186.1400  178.9980  141.3610 C   0  0  0  0  0  3  0  0  0  0  0  0
  188.2480  177.8440  137.7720 C   0  0  0  0  0  3  0  0  0  0  0  0
  188.0380  177.8930  140.1970 C   0  0  0  0  0  0  0  0  0  0  0  0
  189.6010  177.5090  137.8780 C   0  0  0  0  0  0  0  0  0  0  0  0
  190.1720  177.3720  139.1490 C   0  0  0  0  0  3  0  0  0  0  0  0
  189.3990  177.5650  140.2970 C   0  0  0  0  0  3  0  0  0  0  0  0
  187.4760  178.0380  138.9190 C   0  0  0  0  0  3  0  0  0  0  0  0
  190.3200  176.1650  135.8190 C   0  0  0  0  0  0  0  0  0  0  0  0
  191.1180  176.1650  134.5660 C   0  0  0  0  0  1  0  0  0  0  0  0
  189.6310  175.1520  136.1130 O   0  0  0  0  0  0  0  0  0  0  0  0
  190.3610  177.3120  136.6780 N   0  0  0  0  0  2  0  0  0  0  0  0
  184.7570  178.8900  144.8910 C   0  0  2  0  0  3  0  0  0  0  0  0
  183.4350  179.4990  144.4600 C   0  0  0  0  0  1  0  0  0  0  0  0
  185.3930  179.7340  145.8030 O   0  0  0  0  0  1  0  0  0  0  0  0
  191.5990  177.0810  147.8410 C   0  0  0  0  0  2  0  0  0  0  0  0
  192.5470  175.9830  147.7650 N   0  0  0  0  0  1  0  0  0  0  0  0
  1  2  1  6  0  0  0
  1 11  1  0  0  0  0
  2  3  1  0  0  0  0
  3 12  1  0  0  0  0
  4  7  1  0  0  0  0
  5  6  1  0  0  0  0
  6 11  1  0  0  0  0
  7 10  1  0  0  0  0
  7  5  2  0  0  0  0
  9 13  2  0  0  0  0
 10  1  1  0  0  0  0
 11  8  1  1  0  0  0
 12  8  1  0  0  0  0
 12 28  1  1  0  0  0
 13  5  1  0  0  0  0
 13 25  1  0  0  0  0
 14  4  2  0  0  0  0
 14  9  1  0  0  0  0
 15 17  2  0  0  0  0
 15 20  1  0  0  0  0
 16 19  1  0  0  0  0
 16  4  1  0  0  0  0
 17 18  1  0  0  0  0
 18 19  2  0  0  0  0
 20 16  2  0  0  0  0
 21 23  2  0  0  0  0
 21 24  1  0  0  0  0
 22 21  1  0  0  0  0
 24 17  1  0  0  0  0
 25 26  1  6  0  0  0
 25 27  1  0  0  0  0
 29 28  1  0  0  0  0
M  END
>  <MODEL>
4

>  <REMARK>
 VINA RESULT:      -8.7      3.187      7.060
  Name = 
  4 active torsions:
  status: ('A' for Active; 'I' for Inactive)
    1  A    between atoms: C_1  and  C_24
    2  A    between atoms: C_4  and  C_25
    3  A    between atoms: C_8  and  C_10
    4  A    between atoms: C_14  and  N_29
                            x       y       z     vdW  Elec       q    Type
                         _______ _______ _______ _____ _____    ______ ____

>  <TORSDO>
F 4

$$$$
=
 OpenBabel10232412323D

 29 32  0  0  1  0  0  0  0  0999 V2000
  190.4040  176.3010  143.4860 C   0  0  2  0  0  3  0  0  0  0  0  0
  191.7390  176.1850  144.1740 C   0  0  0  0  0  2  0  0  0  0  0  0
  191.6230  176.1540  145.6950 C   0  0  0  0  0  2  0  0  0  0  0  0
  189.7910  177.1910  139.8890 C   0  0  0  0  0  0  0  0  0  0  0  0
  188.2420  177.3070  141.7780 C   0  0  0  0  0  0  0  0  0  0  0  0
  187.7020  176.6140  143.3470 S   0  0  0  0  0  0  0  0  0  0  0  0
  189.4440  176.8390  141.2170 C   0  0  0  0  0  0  0  0  0  0  0  0
  189.3220  177.0720  145.6060 C   0  0  0  0  0  2  0  0  0  0  0  0
  187.7870  178.5720  139.7640 C   0  0  0  0  0  3  0  0  0  0  0  0
  190.3920  176.1630  142.0580 N   0  0  0  0  0  2  0  0  0  0  0  0
  189.3080  176.7430  144.1360 C   0  0  1  0  0  3  0  0  0  0  0  0
  190.7330  177.2990  146.1470 C   0  0  1  0  0  3  0  0  0  0  0  0
  187.4240  178.2000  141.0630 C   0  0  0  0  0  0  0  0  0  0  0  0
  188.9510  178.0680  139.1850 C   0  0  0  0  0  3  0  0  0  0  0  0
  193.4340  176.8000  138.8680 C   0  0  0  0  0  3  0  0  0  0  0  0
  191.0270  176.7010  139.2220 C   0  0  0  0  0  0  0  0  0  0  0  0
  193.3660  175.7220  137.9820 C   0  0  0  0  0  0  0  0  0  0  0  0
  192.1240  175.1300  137.7210 C   0  0  0  0  0  3  0  0  0  0  0  0
  190.9670  175.6140  138.3370 C   0  0  0  0  0  3  0  0  0  0  0  0
  192.2770  177.2820  139.4860 C   0  0  0  0  0  3  0  0  0  0  0  0
  195.2500  175.8590  136.2520 C   0  0  0  0  0  0  0  0  0  0  0  0
  196.5420  175.2890  135.7910 C   0  0  0  0  0  1  0  0  0  0  0  0
  194.7640  176.8530  135.6500 O   0  0  0  0  0  0  0  0  0  0  0  0
  194.5740  175.2580  137.3630 N   0  0  0  0  0  2  0  0  0  0  0  0
  186.1440  178.7120  141.6530 C   0  0  2  0  0  3  0  0  0  0  0  0
  185.0530  178.7780  140.5990 C   0  0  0  0  0  1  0  0  0  0  0  0
  186.3350  179.9740  142.2180 O   0  0  0  0  0  1  0  0  0  0  0  0
  190.7080  177.3560  147.6620 C   0  0  0  0  0  2  0  0  0  0  0  0
  191.9560  176.8430  148.1990 N   0  0  0  0  0  1  0  0  0  0  0  0
  1 11  1  0  0  0  0
  1  2  1  6  0  0  0
  2  3  1  0  0  0  0
  3 12  1  0  0  0  0
  4  7  1  0  0  0  0
  5  6  1  0  0  0  0
  6 11  1  0  0  0  0
  7  5  2  0  0  0  0
  7 10  1  0  0  0  0
  8 12  1  0  0  0  0
  9 13  2  0  0  0  0
 10  1  1  0  0  0  0
 11  8  1  1  0  0  0
 12 28  1  1  0  0  0
 13 25  1  0  0  0  0
 13  5  1  0  0  0  0
 14  9  1  0  0  0  0
 14  4  2  0  0  0  0
 15 20  1  0  0  0  0
 16 20  2  0  0  0  0
 16  4  1  0  0  0  0
 17 15  2  0  0  0  0
 18 17  1  0  0  0  0
 18 19  2  0  0  0  0
 19 16  1  0  0  0  0
 21 24  1  0  0  0  0
 22 21  1  0  0  0  0
 23 21  2  0  0  0  0
 24 17  1  0  0  0  0
 25 26  1  6  0  0  0
 25 27  1  0  0  0  0
 28 29  1  0  0  0  0
M  END
>  <MODEL>
5

>  <REMARK>
 VINA RESULT:      -8.7      3.509      8.813
  Name = 
  4 active torsions:
  status: ('A' for Active; 'I' for Inactive)
    1  A    between atoms: C_1  and  C_24
    2  A    between atoms: C_4  and  C_25
    3  A    between atoms: C_8  and  C_10
    4  A    between atoms: C_14  and  N_29
                            x       y       z     vdW  Elec       q    Type
                         _______ _______ _______ _____ _____    ______ ____

>  <TORSDO>
F 4

$$$$
=
 OpenBabel10232412323D

 29 32  0  0  1  0  0  0  0  0999 V2000
  188.7840  177.8090  140.8580 C   0  0  2  0  0  3  0  0  0  0  0  0
  190.0200  177.0210  140.5080 C   0  0  0  0  0  2  0  0  0  0  0  0
  190.2510  176.9170  139.0040 C   0  0  0  0  0  2  0  0  0  0  0  0
  187.0540  177.9320  144.1900 C   0  0  0  0  0  0  0  0  0  0  0  0
  186.1690  178.5130  141.9850 C   0  0  0  0  0  0  0  0  0  0  0  0
  186.4860  179.1790  140.3460 S   0  0  0  0  0  0  0  0  0  0  0  0
  187.2660  178.2450  142.8240 C   0  0  0  0  0  0  0  0  0  0  0  0
  187.9060  177.5630  138.5280 C   0  0  0  0  0  2  0  0  0  0  0  0
  184.6500  178.0370  143.8100 C   0  0  0  0  0  3  0  0  0  0  0  0
  188.5730  178.1120  142.2440 N   0  0  0  0  0  2  0  0  0  0  0  0
  187.8020  178.0230  139.9580 C   0  0  1  0  0  3  0  0  0  0  0  0
  188.9620  176.4760  138.3330 C   0  0  1  0  0  3  0  0  0  0  0  0
  184.8550  178.3800  142.4700 C   0  0  0  0  0  0  0  0  0  0  0  0
  185.7360  177.8240  144.6580 C   0  0  0  0  0  3  0  0  0  0  0  0
  188.9840  177.1990  147.3840 C   0  0  0  0  0  3  0  0  0  0  0  0
  188.1700  177.6760  145.1400 C   0  0  0  0  0  0  0  0  0  0  0  0
  190.2990  177.1430  146.9150 C   0  0  0  0  0  0  0  0  0  0  0  0
  190.5470  177.3490  145.5530 C   0  0  0  0  0  3  0  0  0  0  0  0
  189.4920  177.6110  144.6740 C   0  0  0  0  0  3  0  0  0  0  0  0
  187.9300  177.4590  146.5060 C   0  0  0  0  0  3  0  0  0  0  0  0
  192.3650  175.8690  147.7340 C   0  0  0  0  0  0  0  0  0  0  0  0
  193.4370  175.7920  148.7590 C   0  0  0  0  0  1  0  0  0  0  0  0
  192.3530  175.0350  146.7890 O   0  0  0  0  0  0  0  0  0  0  0  0
  191.3560  176.8800  147.8480 N   0  0  0  0  0  2  0  0  0  0  0  0
  183.6770  178.6540  141.5830 C   0  0  2  0  0  3  0  0  0  0  0  0
  182.4130  178.8270  142.4060 C   0  0  0  0  0  1  0  0  0  0  0  0
  183.5050  177.6210  140.6610 O   0  0  0  0  0  1  0  0  0  0  0  0
  189.2110  176.2480  136.8550 C   0  0  0  0  0  2  0  0  0  0  0  0
  189.3750  177.5220  136.1760 N   0  0  0  0  0  1  0  0  0  0  0  0
  1  2  1  1  0  0  0
  1 10  1  0  0  0  0
  3  2  1  0  0  0  0
  4 14  1  0  0  0  0
  4 16  1  0  0  0  0
  5 13  2  0  0  0  0
  5  7  1  0  0  0  0
  6  5  1  0  0  0  0
  7  4  2  0  0  0  0
  9 14  2  0  0  0  0
 10  7  1  0  0  0  0
 11  8  1  6  0  0  0
 11  6  1  0  0  0  0
 11  1  1  0  0  0  0
 12 28  1  6  0  0  0
 12  8  1  0  0  0  0
 12  3  1  0  0  0  0
 13  9  1  0  0  0  0
 16 20  1  0  0  0  0
 17 15  1  0  0  0  0
 17 24  1  0  0  0  0
 18 17  2  0  0  0  0
 19 16  2  0  0  0  0
 19 18  1  0  0  0  0
 20 15  2  0  0  0  0
 21 24  1  0  0  0  0
 21 22  1  0  0  0  0
 23 21  2  0  0  0  0
 25 26  1  1  0  0  0
 25 13  1  0  0  0  0
 27 25  1  0  0  0  0
 29 28  1  0  0  0  0
M  END
>  <MODEL>
6

>  <REMARK>
 VINA RESULT:      -8.6      2.466      6.943
  Name = 
  4 active torsions:
  status: ('A' for Active; 'I' for Inactive)
    1  A    between atoms: C_1  and  C_24
    2  A    between atoms: C_4  and  C_25
    3  A    between atoms: C_8  and  C_10
    4  A    between atoms: C_14  and  N_29
                            x       y       z     vdW  Elec       q    Type
                         _______ _______ _______ _____ _____    ______ ____

>  <TORSDO>
F 4

$$$$
=
 OpenBabel10232412323D

 29 32  0  0  1  0  0  0  0  0999 V2000
  190.0490  177.1520  139.3950 C   0  0  2  0  0  3  0  0  0  0  0  0
  191.1740  176.1500  139.4420 C   0  0  0  0  0  2  0  0  0  0  0  0
  191.6860  175.7680  138.0570 C   0  0  0  0  0  2  0  0  0  0  0  0
  187.7240  178.0650  142.2000 C   0  0  0  0  0  0  0  0  0  0  0  0
  187.4220  178.3950  139.7950 C   0  0  0  0  0  0  0  0  0  0  0  0
  188.1800  178.7310  138.1990 S   0  0  0  0  0  0  0  0  0  0  0  0
  188.2610  178.1170  140.8900 C   0  0  0  0  0  0  0  0  0  0  0  0
  189.6370  176.6520  136.9790 C   0  0  0  0  0  2  0  0  0  0  0  0
  185.5040  178.4460  141.2710 C   0  0  0  0  0  3  0  0  0  0  0  0
  189.6150  177.7050  140.6450 N   0  0  0  0  0  2  0  0  0  0  0  0
  189.3240  177.3520  138.2750 C   0  0  1  0  0  3  0  0  0  0  0  0
  190.5050  175.4100  137.1730 C   0  0  1  0  0  3  0  0  0  0  0  0
  186.0350  178.5310  139.9800 C   0  0  0  0  0  0  0  0  0  0  0  0
  186.3390  178.2240  142.3650 C   0  0  0  0  0  3  0  0  0  0  0  0
  188.8240  176.9530  145.6660 C   0  0  0  0  0  3  0  0  0  0  0  0
  188.5600  177.8140  143.4040 C   0  0  0  0  0  0  0  0  0  0  0  0
  190.1770  177.3020  145.6600 C   0  0  0  0  0  0  0  0  0  0  0  0
  190.7220  177.9030  144.5190 C   0  0  0  0  0  3  0  0  0  0  0  0
  189.9210  178.1540  143.4020 C   0  0  0  0  0  3  0  0  0  0  0  0
  188.0240  177.2020  144.5490 C   0  0  0  0  0  3  0  0  0  0  0  0
  191.9690  176.0220  146.9690 C   0  0  0  0  0  0  0  0  0  0  0  0
  192.7500  175.9410  148.2300 C   0  0  0  0  0  1  0  0  0  0  0  0
  192.1930  175.1890  146.0500 O   0  0  0  0  0  0  0  0  0  0  0  0
  190.9660  177.0350  146.8280 N   0  0  0  0  0  2  0  0  0  0  0  0
  185.1290  178.8200  138.8210 C   0  0  2  0  0  3  0  0  0  0  0  0
  183.8820  179.5540  139.2800 C   0  0  0  0  0  1  0  0  0  0  0  0
  184.7710  177.6380  138.1700 O   0  0  0  0  0  1  0  0  0  0  0  0
  191.0070  174.9090  135.8320 C   0  0  0  0  0  2  0  0  0  0  0  0
  189.9610  175.0300  134.8320 N   0  0  0  0  0  1  0  0  0  0  0  0
  1  2  1  1  0  0  0
  1 10  1  0  0  0  0
  3  2  1  0  0  0  0
  4 14  1  0  0  0  0
  4 16  1  0  0  0  0
  5 13  2  0  0  0  0
  5  7  1  0  0  0  0
  6 11  1  0  0  0  0
  6  5  1  0  0  0  0
  7  4  2  0  0  0  0
  8 12  1  0  0  0  0
  9 14  2  0  0  0  0
 10  7  1  0  0  0  0
 11  8  1  6  0  0  0
 11  1  1  0  0  0  0
 12 28  1  6  0  0  0
 12  3  1  0  0  0  0
 13  9  1  0  0  0  0
 16 20  1  0  0  0  0
 17 15  1  0  0  0  0
 17 24  1  0  0  0  0
 18 17  2  0  0  0  0
 19 16  2  0  0  0  0
 19 18  1  0  0  0  0
 20 15  2  0  0  0  0
 21 22  1  0  0  0  0
 23 21  2  0  0  0  0
 24 21  1  0  0  0  0
 25 26  1  1  0  0  0
 25 13  1  0  0  0  0
 27 25  1  0  0  0  0
 29 28  1  0  0  0  0
M  END
>  <MODEL>
7

>  <REMARK>
 VINA RESULT:      -8.5      3.114      7.219
  Name = 
  4 active torsions:
  status: ('A' for Active; 'I' for Inactive)
    1  A    between atoms: C_1  and  C_24
    2  A    between atoms: C_4  and  C_25
    3  A    between atoms: C_8  and  C_10
    4  A    between atoms: C_14  and  N_29
                            x       y       z     vdW  Elec       q    Type
                         _______ _______ _______ _____ _____    ______ ____

>  <TORSDO>
F 4

$$$$
=
 OpenBabel10232412323D

 29 32  0  0  1  0  0  0  0  0999 V2000
  188.4030  176.9550  138.2130 C   0  0  2  0  0  3  0  0  0  0  0  0
  187.1090  177.7220  138.3080 C   0  0  0  0  0  2  0  0  0  0  0  0
  186.3370  177.7480  136.9930 C   0  0  0  0  0  2  0  0  0  0  0  0
  191.2410  177.0070  140.6740 C   0  0  0  0  0  0  0  0  0  0  0  0
  191.2640  176.3160  138.3280 C   0  0  0  0  0  0  0  0  0  0  0  0
  190.3780  175.5650  136.9540 S   0  0  0  0  0  0  0  0  0  0  0  0
  190.5480  176.6230  139.4990 C   0  0  0  0  0  0  0  0  0  0  0  0
  188.3550  177.0840  135.7160 C   0  0  0  0  0  2  0  0  0  0  0  0
  193.3370  176.8870  139.4390 C   0  0  0  0  0  3  0  0  0  0  0  0
  189.1160  176.7240  139.4370 N   0  0  0  0  0  2  0  0  0  0  0  0
  188.9890  176.6970  137.0260 C   0  0  1  0  0  3  0  0  0  0  0  0
  187.2790  178.1570  135.8740 C   0  0  1  0  0  3  0  0  0  0  0  0
  192.6600  176.4760  138.2860 C   0  0  0  0  0  0  0  0  0  0  0  0
  192.6360  177.1410  140.6170 C   0  0  0  0  0  3  0  0  0  0  0  0
  188.7950  176.8550  143.5830 C   0  0  0  0  0  3  0  0  0  0  0  0
  190.5480  177.3090  141.9550 C   0  0  0  0  0  0  0  0  0  0  0  0
  189.2810  177.8670  144.4150 C   0  0  0  0  0  0  0  0  0  0  0  0
  190.4070  178.5970  144.0160 C   0  0  0  0  0  3  0  0  0  0  0  0
  191.0360  178.3190  142.7990 C   0  0  0  0  0  3  0  0  0  0  0  0
  189.4250  176.5750  142.3680 C   0  0  0  0  0  3  0  0  0  0  0  0
  188.9310  177.5830  146.9370 C   0  0  0  0  0  0  0  0  0  0  0  0
  188.1710  178.0310  148.1320 C   0  0  0  0  0  1  0  0  0  0  0  0
  189.8400  176.7220  147.0700 O   0  0  0  0  0  0  0  0  0  0  0  0
  188.6050  178.1290  145.6520 N   0  0  0  0  0  2  0  0  0  0  0  0
  193.4340  176.1590  137.0420 C   0  0  2  0  0  3  0  0  0  0  0  0
  194.2480  174.8900  137.2210 C   0  0  0  0  0  1  0  0  0  0  0  0
  194.2770  177.2200  136.7040 O   0  0  0  0  0  1  0  0  0  0  0  0
  186.4980  178.3080  134.5830 C   0  0  0  0  0  2  0  0  0  0  0  0
  185.4090  177.3480  134.5450 N   0  0  0  0  0  1  0  0  0  0  0  0
  1  2  1  6  0  0  0
  1 10  1  0  0  0  0
  3  2  1  0  0  0  0
  4 16  1  0  0  0  0
  5  7  1  0  0  0  0
  6 11  1  0  0  0  0
  6  5  1  0  0  0  0
  7  4  2  0  0  0  0
  8 12  1  0  0  0  0
  9 14  2  0  0  0  0
 10  7  1  0  0  0  0
 11  8  1  6  0  0  0
 11  1  1  0  0  0  0
 12 28  1  6  0  0  0
 12  3  1  0  0  0  0
 13  5  2  0  0  0  0
 13  9  1  0  0  0  0
 14  4  1  0  0  0  0
 15 17  1  0  0  0  0
 16 20  1  0  0  0  0
 16 19  2  0  0  0  0
 17 24  1  0  0  0  0
 18 17  2  0  0  0  0
 19 18  1  0  0  0  0
 20 15  2  0  0  0  0
 21 23  2  0  0  0  0
 21 22  1  0  0  0  0
 24 21  1  0  0  0  0
 25 26  1  1  0  0  0
 25 13  1  0  0  0  0
 27 25  1  0  0  0  0
 29 28  1  0  0  0  0
M  END
>  <MODEL>
8

>  <REMARK>
 VINA RESULT:      -8.4      4.057      7.321
  Name = 
  4 active torsions:
  status: ('A' for Active; 'I' for Inactive)
    1  A    between atoms: C_1  and  C_24
    2  A    between atoms: C_4  and  C_25
    3  A    between atoms: C_8  and  C_10
    4  A    between atoms: C_14  and  N_29
                            x       y       z     vdW  Elec       q    Type
                         _______ _______ _______ _____ _____    ______ ____

>  <TORSDO>
F 4

$$$$
=
 OpenBabel10232412323D

 29 32  0  0  1  0  0  0  0  0999 V2000
  186.4650  178.4300  139.8950 C   0  0  2  0  0  3  0  0  0  0  0  0
  187.7940  177.7210  139.8510 C   0  0  0  0  0  2  0  0  0  0  0  0
  188.3320  177.5550  138.4340 C   0  0  0  0  0  2  0  0  0  0  0  0
  184.0910  178.5960  142.8010 C   0  0  0  0  0  0  0  0  0  0  0  0
  183.6360  178.9910  140.4300 C   0  0  0  0  0  0  0  0  0  0  0  0
  184.2370  179.5920  138.8460 S   0  0  0  0  0  0  0  0  0  0  0  0
  184.5550  178.8520  141.4870 C   0  0  0  0  0  0  0  0  0  0  0  0
  186.0960  177.9950  137.4590 C   0  0  0  0  0  2  0  0  0  0  0  0
  181.8120  178.4980  141.9450 C   0  0  0  0  0  3  0  0  0  0  0  0
  185.9580  178.7880  141.1880 N   0  0  0  0  0  2  0  0  0  0  0  0
  185.6740  178.5210  138.8050 C   0  0  1  0  0  3  0  0  0  0  0  0
  187.2370  176.9830  137.5510 C   0  0  1  0  0  3  0  0  0  0  0  0
  182.2630  178.7840  140.6520 C   0  0  0  0  0  0  0  0  0  0  0  0
  182.7150  178.4130  143.0040 C   0  0  0  0  0  3  0  0  0  0  0  0
  185.6070  179.0270  146.2630 C   0  0  0  0  0  3  0  0  0  0  0  0
  185.0050  178.4760  143.9690 C   0  0  0  0  0  0  0  0  0  0  0  0
  186.7260  178.1940  146.1870 C   0  0  0  0  0  0  0  0  0  0  0  0
  186.9810  177.4980  145.0000 C   0  0  0  0  0  3  0  0  0  0  0  0
  186.1270  177.6360  143.9020 C   0  0  0  0  0  3  0  0  0  0  0  0
  184.7520  179.1630  145.1660 C   0  0  0  0  0  3  0  0  0  0  0  0
  189.0160  178.0380  147.3250 C   0  0  0  0  0  0  0  0  0  0  0  0
  189.7490  178.0060  148.6170 C   0  0  0  0  0  1  0  0  0  0  0  0
  189.6650  178.0120  146.2460 O   0  0  0  0  0  0  0  0  0  0  0  0
  187.5840  178.0840  147.3320 N   0  0  0  0  0  2  0  0  0  0  0  0
  181.2740  178.9210  139.5330 C   0  0  2  0  0  3  0  0  0  0  0  0
  180.4810  180.2090  139.6680 C   0  0  0  0  0  1  0  0  0  0  0  0
  180.4040  177.8290  139.5100 O   0  0  0  0  0  1  0  0  0  0  0  0
  187.7950  176.6970  136.1700 C   0  0  0  0  0  2  0  0  0  0  0  0
  188.9920  177.4890  135.9440 N   0  0  0  0  0  1  0  0  0  0  0  0
  1  2  1  1  0  0  0
  1 10  1  0  0  0  0
  3  2  1  0  0  0  0
  4 14  1  0  0  0  0
  4 16  1  0  0  0  0
  5 13  2  0  0  0  0
  5  7  1  0  0  0  0
  6  5  1  0  0  0  0
  7  4  2  0  0  0  0
  8 12  1  0  0  0  0
  9 14  2  0  0  0  0
 10  7  1  0  0  0  0
 11  8  1  6  0  0  0
 11  6  1  0  0  0  0
 11  1  1  0  0  0  0
 12 28  1  6  0  0  0
 12  3  1  0  0  0  0
 13  9  1  0  0  0  0
 16 20  1  0  0  0  0
 17 15  1  0  0  0  0
 17 24  1  0  0  0  0
 18 17  2  0  0  0  0
 19 16  2  0  0  0  0
 19 18  1  0  0  0  0
 20 15  2  0  0  0  0
 21 24  1  0  0  0  0
 21 22  1  0  0  0  0
 23 21  2  0  0  0  0
 25 26  1  1  0  0  0
 25 13  1  0  0  0  0
 27 25  1  0  0  0  0
 29 28  1  0  0  0  0
M  END
>  <MODEL>
9

>  <REMARK>
 VINA RESULT:      -8.4      3.262      7.420
  Name = 
  4 active torsions:
  status: ('A' for Active; 'I' for Inactive)
    1  A    between atoms: C_1  and  C_24
    2  A    between atoms: C_4  and  C_25
    3  A    between atoms: C_8  and  C_10
    4  A    between atoms: C_14  and  N_29
                            x       y       z     vdW  Elec       q    Type
                         _______ _______ _______ _____ _____    ______ ____

>  <TORSDO>
F 4

$$$$
