=
 OpenBabel10232407453D

 62 68  0  0  1  0  0  0  0  0999 V2000
  189.5340  176.8280  137.8430 C   0  0  1  0  0  3  0  0  0  0  0  0
  190.2540  176.8270  140.3570 C   0  0  2  0  0  3  0  0  0  0  0  0
  188.6390  178.7410  140.8240 N   0  0  0  0  0  2  0  0  0  0  0  0
  190.7330  175.8880  138.8560 S   0  0  0  0  0  0  0  0  0  0  0  0
  189.0020  177.9110  138.6560 N   0  0  0  0  0  0  0  0  0  0  0  0
  189.3270  177.9030  139.9030 C   0  0  0  0  0  0  0  0  0  0  0  0
  187.4330  178.2170  141.4550 C   0  0  0  0  0  2  0  0  0  0  0  0
  183.3190  179.1750  143.2170 N   0  0  0  0  0  0  0  0  0  0  0  0
  184.1760  179.5670  142.1970 N   0  0  0  0  0  0  0  0  0  0  0  0
  185.3600  179.1310  142.4410 C   0  0  0  0  0  0  0  0  0  0  0  0
  184.0360  178.4800  144.2730 C   0  0  0  0  0  3  0  0  0  0  0  0
  186.4150  179.2430  141.4830 N   0  0  0  0  0  2  0  0  0  0  0  0
  185.4420  178.3040  143.6890 C   0  0  0  0  0  3  0  0  0  0  0  0
  181.8950  179.4280  143.1850 C   0  0  0  0  0  2  0  0  0  0  0  0
  181.1180  178.3360  142.4600 C   0  0  1  0  0  3  0  0  0  0  0  0
  179.9820  177.8800  143.1550 O   0  0  0  0  0  1  0  0  0  0  0  0
  179.9820  177.7570  140.3810 O   0  0  0  0  0  0  0  0  0  0  0  0
  180.7590  178.7340  141.0350 C   0  0  2  0  0  3  0  0  0  0  0  0
  181.4690  178.8250  138.8250 C   0  0  1  0  0  3  0  0  0  0  0  0
  180.3230  177.8100  139.0040 C   0  0  1  0  0  3  0  0  0  0  0  0
  181.9990  179.0040  140.2140 C   0  0  0  0  0  2  0  0  0  0  0  0
  180.8070  175.4240  139.6970 C   0  0  0  0  0  1  0  0  0  0  0  0
  180.6520  176.3830  138.5190 C   0  0  0  0  0  2  0  0  0  0  0  0
  182.5640  178.4660  137.8200 C   0  0  0  0  0  2  0  0  0  0  0  0
  184.5410  177.4760  137.7230 C   0  0  0  0  0  1  0  0  0  0  0  0
  183.2490  177.3270  138.2200 O   0  0  0  0  0  0  0  0  0  0  0  0
  190.1340  177.3110  136.5070 C   0  0  1  0  0  3  0  0  0  0  0  0
  192.5140  176.4860  136.4540 N   0  0  0  0  0  2  0  0  0  0  0  0
  190.8630  175.4580  135.1600 O   0  0  0  0  0  0  0  0  0  0  0  0
  191.1590  176.3440  136.0070 C   0  0  0  0  0  0  0  0  0  0  0  0
  193.6280  175.6750  136.0250 C   0  0  0  0  0  2  0  0  0  0  0  0
  194.8540  176.5000  135.6860 C   0  0  0  0  0  2  0  0  0  0  0  0
  195.7690  175.6130  134.8730 C   0  0  0  0  0  2  0  0  0  0  0  0
  195.3390  174.1480  134.8540 C   0  0  0  0  0  2  0  0  0  0  0  0
  198.0210  174.6590  137.6520 C   0  0  0  0  0  2  0  0  0  0  0  0
  197.3620  171.7420  137.3450 C   0  0  2  0  0  3  0  0  0  0  0  0
  196.8790  172.2660  134.3470 C   0  0  0  0  0  3  0  0  0  0  0  0
  199.1320  173.5610  137.4870 C   0  0  0  0  0  2  0  0  0  0  0  0
  195.3020  170.3760  136.9780 O   0  0  0  0  0  1  0  0  0  0  0  0
  196.8570  174.2290  138.5870 C   0  0  0  0  0  2  0  0  0  0  0  0
  196.2260  172.5800  136.6980 C   0  0  2  0  0  0  0  0  0  0  0  0
  196.6550  170.8940  134.9470 C   0  0  0  0  0  3  0  0  0  0  0  0
  198.6990  172.2470  136.8020 C   0  0  0  0  0  2  0  0  0  0  0  0
  195.7240  173.4270  137.8820 C   0  0  0  0  0  2  0  0  0  0  0  0
  196.3480  171.1090  136.4180 C   0  0  1  0  0  0  0  0  0  0  0  0
  196.5050  173.3090  135.3740 C   0  0  2  0  0  3  0  0  0  0  0  0
  189.0620  177.5580  135.4260 C   0  0  0  0  0  2  0  0  0  0  0  0
  187.6940  177.0050  135.8390 C   0  0  0  0  0  2  0  0  0  0  0  0
  187.1300  176.1920  134.7700 N   0  0  0  0  0  2  0  0  0  0  0  0
  187.1270  174.8130  135.2140 C   0  0  0  0  0  1  0  0  0  0  0  0
  191.4820  177.4300  141.0320 C   0  0  0  0  0  2  0  0  0  0  0  0
  191.3120  177.5510  142.4830 N   0  0  0  0  0  2  0  0  0  0  0  0
  190.7190  175.3210  142.8520 O   0  0  0  0  0  0  0  0  0  0  0  0
  190.9120  176.4690  143.3390 C   0  0  0  0  0  0  0  0  0  0  0  0
  188.1100  177.8420  147.3110 C   0  0  0  0  0  1  0  0  0  0  0  0
  190.4480  177.0250  147.5590 C   0  0  0  0  0  3  0  0  0  0  0  0
  191.6180  176.4760  147.0410 C   0  0  0  0  0  3  0  0  0  0  0  0
  190.7150  176.6720  144.7960 C   0  0  0  0  0  0  0  0  0  0  0  0
  189.3800  177.3470  146.7140 C   0  0  0  0  0  0  0  0  0  0  0  0
  189.5020  177.1620  145.3300 C   0  0  0  0  0  0  0  0  0  0  0  0
  188.4290  177.3810  144.5190 F   0  0  0  0  0  0  0  0  0  0  0  0
  191.7440  176.2870  145.6690 C   0  0  0  0  0  3  0  0  0  0  0  0
  1 27  1  6  0  0  0
  1  5  1  0  0  0  0
  1  4  1  0  0  0  0
  2 51  1  6  0  0  0
  3  7  1  0  0  0  0
  4  2  1  0  0  0  0
  5  6  2  0  0  0  0
  6  2  1  0  0  0  0
  6  3  1  0  0  0  0
  7 12  1  0  0  0  0
  8 11  1  0  0  0  0
  9 10  2  0  0  0  0
  9  8  1  0  0  0  0
 10 13  1  0  0  0  0
 12 10  1  0  0  0  0
 13 11  2  0  0  0  0
 14  8  1  0  0  0  0
 15 16  1  1  0  0  0
 15 14  1  0  0  0  0
 17 18  1  0  0  0  0
 18 15  1  1  0  0  0
 19 24  1  6  0  0  0
 19 20  1  0  0  0  0
 19 21  1  0  0  0  0
 20 23  1  1  0  0  0
 20 17  1  0  0  0  0
 21 18  1  0  0  0  0
 23 22  1  0  0  0  0
 24 26  1  0  0  0  0
 25 26  1  0  0  0  0
 27 47  1  6  0  0  0
 29 30  2  0  0  0  0
 30 28  1  0  0  0  0
 30 27  1  0  0  0  0
 31 28  1  0  0  0  0
 32 31  1  0  0  0  0
 33 32  1  0  0  0  0
 34 33  1  0  0  0  0
 35 40  1  0  0  0  0
 36 43  1  6  0  0  0
 37 42  2  0  0  0  0
 37 46  1  0  0  0  0
 38 35  1  0  0  0  0
 41 36  1  0  0  0  0
 41 44  1  1  0  0  0
 42 45  1  0  0  0  0
 43 38  1  0  0  0  0
 44 40  1  0  0  0  0
 45 41  1  0  0  0  0
 45 39  1  1  0  0  0
 45 36  1  0  0  0  0
 46 34  1  6  0  0  0
 46 41  1  0  0  0  0
 47 48  1  0  0  0  0
 49 50  1  0  0  0  0
 49 48  1  0  0  0  0
 51 52  1  0  0  0  0
 52 54  1  0  0  0  0
 53 54  2  0  0  0  0
 54 58  1  0  0  0  0
 57 56  1  0  0  0  0
 58 60  2  0  0  0  0
 58 62  1  0  0  0  0
 59 55  1  0  0  0  0
 59 56  2  0  0  0  0
 60 59  1  0  0  0  0
 61 60  1  0  0  0  0
 62 57  2  0  0  0  0
M  END
>  <MODEL>
1

>  <REMARK>
 VINA RESULT:      -7.1      0.000      0.000
  Name = 
  21 active torsions:
  status: ('A' for Active; 'I' for Inactive)
    1  A    between atoms: N_1  and  C_54
    2  A    between atoms: C_3  and  C_60
    3  A    between atoms: C_3  and  C_62
    4  A    between atoms: C_5  and  C_18
    5  A    between atoms: C_5  and  C_20
    6  A    between atoms: C_6  and  C_44
    7  A    between atoms: C_6  and  C_60
    8  A    between atoms: C_7  and  C_47
    9  A    between atoms: C_8  and  C_54
   10  A    between atoms: N_11  and  C_20
   11  A    between atoms: C_14  and  C_38
   12  A    between atoms: N_15  and  C_44
   13  A    between atoms: C_19  and  N_24
   14  A    between atoms: C_19  and  N_55
   15  A    between atoms: N_21  and  C_46
   16  A    between atoms: O_26  and  C_31
   17  A    between atoms: C_30  and  C_53
   18  A    between atoms: C_31  and  C_36
   19  A    between atoms: C_39  and  C_46
   20  A    between atoms: C_39  and  C_47
   21  A    between atoms: C_47  and  C_49
                            x       y       z     vdW  Elec       q    Type
                         _______ _______ _______ _____ _____    ______ ____

>  <TORSDO>
F 21

$$$$
=
 OpenBabel10232407453D

 62 68  0  0  1  0  0  0  0  0999 V2000
  189.0820  176.7080  138.2920 C   0  0  1  0  0  3  0  0  0  0  0  0
  188.2080  177.6930  140.5520 C   0  0  2  0  0  3  0  0  0  0  0  0
  186.2530  178.7750  139.3280 N   0  0  0  0  0  2  0  0  0  0  0  0
  189.6500  176.6850  140.0310 S   0  0  0  0  0  0  0  0  0  0  0  0
  187.9620  177.6320  138.1910 N   0  0  0  0  0  0  0  0  0  0  0  0
  187.5050  178.1010  139.3020 C   0  0  0  0  0  0  0  0  0  0  0  0
  185.0500  177.9760  139.5300 C   0  0  0  0  0  2  0  0  0  0  0  0
  181.5620  175.9980  137.3250 N   0  0  0  0  0  0  0  0  0  0  0  0
  182.5330  176.9770  137.1550 N   0  0  0  0  0  0  0  0  0  0  0  0
  183.0160  177.3030  138.3010 C   0  0  0  0  0  0  0  0  0  0  0  0
  181.3350  175.7150  138.7320 C   0  0  0  0  0  3  0  0  0  0  0  0
  184.1460  178.1710  138.4200 N   0  0  0  0  0  2  0  0  0  0  0  0
  182.4430  176.5080  139.4350 C   0  0  0  0  0  3  0  0  0  0  0  0
  180.8990  175.3510  136.2140 C   0  0  0  0  0  2  0  0  0  0  0  0
  181.7980  174.3580  135.4870 C   0  0  1  0  0  3  0  0  0  0  0  0
  182.9270  174.9410  134.8810 O   0  0  0  0  0  1  0  0  0  0  0  0
  183.4250  173.4150  137.0400 O   0  0  0  0  0  0  0  0  0  0  0  0
  182.2020  173.1900  136.3770 C   0  0  2  0  0  3  0  0  0  0  0  0
  183.1960  171.0920  136.4670 C   0  0  1  0  0  3  0  0  0  0  0  0
  184.0550  172.1500  137.1870 C   0  0  1  0  0  3  0  0  0  0  0  0
  182.3030  171.9080  135.5840 C   0  0  0  0  0  2  0  0  0  0  0  0
  186.2290  173.4410  137.3040 C   0  0  0  0  0  1  0  0  0  0  0  0
  185.5040  172.2550  136.6720 C   0  0  0  0  0  2  0  0  0  0  0  0
  183.9400  169.9990  135.7000 C   0  0  0  0  0  2  0  0  0  0  0  0
  182.7710  168.3540  134.7910 C   0  0  0  0  0  1  0  0  0  0  0  0
  183.4000  168.7490  135.9690 O   0  0  0  0  0  0  0  0  0  0  0  0
  190.2180  177.0220  137.2990 C   0  0  1  0  0  3  0  0  0  0  0  0
  192.6610  176.4320  137.1100 N   0  0  0  0  0  2  0  0  0  0  0  0
  191.0880  174.8260  137.7450 O   0  0  0  0  0  0  0  0  0  0  0  0
  191.3240  176.0230  137.4270 C   0  0  0  0  0  0  0  0  0  0  0  0
  193.8250  175.5790  137.1270 C   0  0  0  0  0  2  0  0  0  0  0  0
  194.7210  175.7890  135.9230 C   0  0  0  0  0  2  0  0  0  0  0  0
  195.9860  175.0030  136.1740 C   0  0  0  0  0  2  0  0  0  0  0  0
  196.4080  174.1320  134.9930 C   0  0  0  0  0  2  0  0  0  0  0  0
  199.0040  171.2520  135.4970 C   0  0  0  0  0  2  0  0  0  0  0  0
  196.7030  170.9430  137.4070 C   0  0  2  0  0  3  0  0  0  0  0  0
  194.8790  172.1930  135.2620 C   0  0  0  0  0  3  0  0  0  0  0  0
  198.2240  169.8980  135.6580 C   0  0  0  0  0  2  0  0  0  0  0  0
  195.3090  172.4520  138.8290 O   0  0  0  0  0  1  0  0  0  0  0  0
  199.2700  171.9790  136.8440 C   0  0  0  0  0  2  0  0  0  0  0  0
  196.7190  172.4030  136.8800 C   0  0  2  0  0  0  0  0  0  0  0  0
  194.3370  171.8120  136.6230 C   0  0  0  0  0  3  0  0  0  0  0  0
  196.7840  169.9990  136.2070 C   0  0  0  0  0  2  0  0  0  0  0  0
  198.1090  172.8980  137.3230 C   0  0  0  0  0  2  0  0  0  0  0  0
  195.5110  171.8560  137.5850 C   0  0  1  0  0  0  0  0  0  0  0  0
  196.3030  172.6710  135.4250 C   0  0  2  0  0  3  0  0  0  0  0  0
  189.7320  177.0950  135.8370 C   0  0  0  0  0  2  0  0  0  0  0  0
  188.6680  176.0330  135.5350 C   0  0  0  0  0  2  0  0  0  0  0  0
  187.6910  176.5490  134.5850 N   0  0  0  0  0  2  0  0  0  0  0  0
  186.3700  176.2770  135.1150 C   0  0  0  0  0  1  0  0  0  0  0  0
  188.6630  178.9220  141.3330 C   0  0  0  0  0  2  0  0  0  0  0  0
  189.1930  178.5720  142.6540 N   0  0  0  0  0  2  0  0  0  0  0  0
  187.2680  177.4900  143.4190 O   0  0  0  0  0  0  0  0  0  0  0  0
  188.4460  177.8720  143.6620 C   0  0  0  0  0  0  0  0  0  0  0  0
  188.2100  177.7860  148.7080 C   0  0  0  0  0  1  0  0  0  0  0  0
  190.2270  177.0240  147.4630 C   0  0  0  0  0  3  0  0  0  0  0  0
  190.8980  176.7170  146.2820 C   0  0  0  0  0  3  0  0  0  0  0  0
  189.0310  177.5890  144.9960 C   0  0  0  0  0  0  0  0  0  0  0  0
  188.9340  177.5590  147.4270 C   0  0  0  0  0  0  0  0  0  0  0  0
  188.3240  177.8330  146.1950 C   0  0  0  0  0  0  0  0  0  0  0  0
  187.0300  178.2600  146.1590 F   0  0  0  0  0  0  0  0  0  0  0  0
  190.2950  176.9840  145.0570 C   0  0  0  0  0  3  0  0  0  0  0  0
  1 27  1  6  0  0  0
  1  4  1  0  0  0  0
  2 51  1  6  0  0  0
  3  7  1  0  0  0  0
  4  2  1  0  0  0  0
  5  1  1  0  0  0  0
  5  6  2  0  0  0  0
  6  3  1  0  0  0  0
  6  2  1  0  0  0  0
  8 11  1  0  0  0  0
  9  8  1  0  0  0  0
  9 10  2  0  0  0  0
 10 12  1  0  0  0  0
 10 13  1  0  0  0  0
 11 13  2  0  0  0  0
 12  7  1  0  0  0  0
 14  8  1  0  0  0  0
 15 16  1  1  0  0  0
 15 14  1  0  0  0  0
 17 20  1  0  0  0  0
 18 15  1  6  0  0  0
 18 17  1  0  0  0  0
 19 24  1  6  0  0  0
 19 20  1  0  0  0  0
 20 23  1  6  0  0  0
 21 18  1  0  0  0  0
 21 19  1  0  0  0  0
 23 22  1  0  0  0  0
 24 26  1  0  0  0  0
 25 26  1  0  0  0  0
 27 47  1  6  0  0  0
 27 30  1  0  0  0  0
 28 31  1  0  0  0  0
 28 30  1  0  0  0  0
 30 29  2  0  0  0  0
 32 33  1  0  0  0  0
 32 31  1  0  0  0  0
 34 33  1  0  0  0  0
 35 38  1  0  0  0  0
 35 40  1  0  0  0  0
 36 43  1  6  0  0  0
 36 45  1  0  0  0  0
 37 46  1  0  0  0  0
 37 42  2  0  0  0  0
 38 43  1  0  0  0  0
 40 44  1  0  0  0  0
 41 44  1  1  0  0  0
 41 36  1  0  0  0  0
 41 45  1  0  0  0  0
 42 45  1  0  0  0  0
 45 39  1  1  0  0  0
 46 34  1  1  0  0  0
 46 41  1  0  0  0  0
 48 47  1  0  0  0  0
 49 50  1  0  0  0  0
 49 48  1  0  0  0  0
 51 52  1  0  0  0  0
 52 54  1  0  0  0  0
 53 54  2  0  0  0  0
 54 58  1  0  0  0  0
 57 56  2  0  0  0  0
 58 62  2  0  0  0  0
 58 60  1  0  0  0  0
 59 56  1  0  0  0  0
 59 55  1  0  0  0  0
 60 59  2  0  0  0  0
 61 60  1  0  0  0  0
 62 57  1  0  0  0  0
M  END
>  <MODEL>
2

>  <REMARK>
 VINA RESULT:      -7.0      2.955      4.473
  Name = 
  21 active torsions:
  status: ('A' for Active; 'I' for Inactive)
    1  A    between atoms: N_1  and  C_54
    2  A    between atoms: C_3  and  C_60
    3  A    between atoms: C_3  and  C_62
    4  A    between atoms: C_5  and  C_18
    5  A    between atoms: C_5  and  C_20
    6  A    between atoms: C_6  and  C_44
    7  A    between atoms: C_6  and  C_60
    8  A    between atoms: C_7  and  C_47
    9  A    between atoms: C_8  and  C_54
   10  A    between atoms: N_11  and  C_20
   11  A    between atoms: C_14  and  C_38
   12  A    between atoms: N_15  and  C_44
   13  A    between atoms: C_19  and  N_24
   14  A    between atoms: C_19  and  N_55
   15  A    between atoms: N_21  and  C_46
   16  A    between atoms: O_26  and  C_31
   17  A    between atoms: C_30  and  C_53
   18  A    between atoms: C_31  and  C_36
   19  A    between atoms: C_39  and  C_46
   20  A    between atoms: C_39  and  C_47
   21  A    between atoms: C_47  and  C_49
                            x       y       z     vdW  Elec       q    Type
                         _______ _______ _______ _____ _____    ______ ____

>  <TORSDO>
F 21

$$$$
=
 OpenBabel10232407453D

 62 68  0  0  1  0  0  0  0  0999 V2000
  188.7710  176.9100  137.6330 C   0  0  1  0  0  3  0  0  0  0  0  0
  189.4520  176.8790  140.1580 C   0  0  2  0  0  3  0  0  0  0  0  0
  188.1660  179.0460  140.5350 N   0  0  0  0  0  2  0  0  0  0  0  0
  189.7890  175.8230  138.6970 S   0  0  0  0  0  0  0  0  0  0  0  0
  188.4130  178.0930  138.4020 N   0  0  0  0  0  0  0  0  0  0  0  0
  188.7180  178.0760  139.6540 C   0  0  0  0  0  0  0  0  0  0  0  0
  186.8830  178.7480  141.1630 C   0  0  0  0  0  2  0  0  0  0  0  0
  182.4440  178.4570  140.0910 N   0  0  0  0  0  0  0  0  0  0  0  0
  183.6060  179.1180  139.7150 N   0  0  0  0  0  0  0  0  0  0  0  0
  184.4810  179.0100  140.6500 C   0  0  0  0  0  0  0  0  0  0  0  0
  182.5470  177.9320  141.4420 C   0  0  0  0  0  3  0  0  0  0  0  0
  185.8290  179.4540  140.4720 N   0  0  0  0  0  2  0  0  0  0  0  0
  184.0150  178.1760  141.8050 C   0  0  0  0  0  3  0  0  0  0  0  0
  181.3040  178.3130  139.2110 C   0  0  0  0  0  2  0  0  0  0  0  0
  181.2120  176.9250  138.5880 C   0  0  1  0  0  3  0  0  0  0  0  0
  179.9840  176.6580  137.9550 O   0  0  0  0  0  1  0  0  0  0  0  0
  181.9740  175.9830  136.4710 O   0  0  0  0  0  0  0  0  0  0  0  0
  182.3790  176.6360  137.6530 C   0  0  2  0  0  3  0  0  0  0  0  0
  184.1410  175.2050  137.1600 C   0  0  1  0  0  3  0  0  0  0  0  0
  183.0450  175.1370  136.0780 C   0  0  1  0  0  3  0  0  0  0  0  0
  183.4340  175.7990  138.3380 C   0  0  0  0  0  2  0  0  0  0  0  0
  181.2500  173.4520  136.6690 C   0  0  0  0  0  1  0  0  0  0  0  0
  182.4900  173.7220  135.8190 C   0  0  0  0  0  2  0  0  0  0  0  0
  184.8600  173.8990  137.5030 C   0  0  0  0  0  2  0  0  0  0  0  0
  186.4800  172.5000  136.9450 C   0  0  0  0  0  1  0  0  0  0  0  0
  186.0980  173.8380  136.8800 O   0  0  0  0  0  0  0  0  0  0  0  0
  189.4560  177.2420  136.2930 C   0  0  1  0  0  3  0  0  0  0  0  0
  190.8690  175.1570  136.2150 N   0  0  0  0  0  2  0  0  0  0  0  0
  189.4390  175.7000  134.4490 O   0  0  0  0  0  0  0  0  0  0  0  0
  189.8830  175.9920  135.5930 C   0  0  0  0  0  0  0  0  0  0  0  0
  191.4260  173.9530  135.6480 C   0  0  0  0  0  2  0  0  0  0  0  0
  192.9230  174.0520  135.4230 C   0  0  0  0  0  2  0  0  0  0  0  0
  193.5120  174.6830  136.6620 C   0  0  0  0  0  2  0  0  0  0  0  0
  194.9070  175.2650  136.4480 C   0  0  0  0  0  2  0  0  0  0  0  0
  197.5040  172.9490  134.6670 C   0  0  0  0  0  2  0  0  0  0  0  0
  198.5030  173.7580  137.3850 C   0  0  2  0  0  3  0  0  0  0  0  0
  195.5750  173.8020  138.3410 C   0  0  0  0  0  3  0  0  0  0  0  0
  198.0400  171.9020  135.7100 C   0  0  0  0  0  2  0  0  0  0  0  0
  198.5160  175.8380  138.7690 O   0  0  0  0  0  1  0  0  0  0  0  0
  198.3480  174.2520  134.6070 C   0  0  0  0  0  2  0  0  0  0  0  0
  197.3790  174.7390  136.9560 C   0  0  2  0  0  0  0  0  0  0  0  0
  196.7060  174.1960  139.2680 C   0  0  0  0  0  3  0  0  0  0  0  0
  197.9930  172.3290  137.1920 C   0  0  0  0  0  2  0  0  0  0  0  0
  197.9400  175.3340  135.6510 C   0  0  0  0  0  2  0  0  0  0  0  0
  197.8410  174.6800  138.3840 C   0  0  1  0  0  0  0  0  0  0  0  0
  195.9260  174.2380  136.9370 C   0  0  2  0  0  3  0  0  0  0  0  0
  188.5710  178.0980  135.3650 C   0  0  0  0  0  2  0  0  0  0  0  0
  187.0980  178.0660  135.7900 C   0  0  0  0  0  2  0  0  0  0  0  0
  186.4070  176.9580  135.1450 N   0  0  0  0  0  2  0  0  0  0  0  0
  185.3290  177.5090  134.3480 C   0  0  0  0  0  1  0  0  0  0  0  0
  190.7550  177.2990  140.8340 C   0  0  0  0  0  2  0  0  0  0  0  0
  190.6040  177.4390  142.2850 N   0  0  0  0  0  2  0  0  0  0  0  0
  188.8810  175.8760  142.5100 O   0  0  0  0  0  0  0  0  0  0  0  0
  189.6390  176.7160  143.0680 C   0  0  0  0  0  0  0  0  0  0  0  0
  191.5120  176.7290  147.7590 C   0  0  0  0  0  1  0  0  0  0  0  0
  189.1610  177.3860  147.2700 C   0  0  0  0  0  3  0  0  0  0  0  0
  188.1250  177.6710  146.3850 C   0  0  0  0  0  3  0  0  0  0  0  0
  189.5110  176.9400  144.5290 C   0  0  0  0  0  0  0  0  0  0  0  0
  190.3980  176.9330  146.7940 C   0  0  0  0  0  0  0  0  0  0  0  0
  190.5840  176.7190  145.4210 C   0  0  0  0  0  0  0  0  0  0  0  0
  191.8150  176.3740  144.9490 F   0  0  0  0  0  0  0  0  0  0  0  0
  188.3060  177.4640  145.0210 C   0  0  0  0  0  3  0  0  0  0  0  0
  1 27  1  6  0  0  0
  1  5  1  0  0  0  0
  1  4  1  0  0  0  0
  2 51  1  6  0  0  0
  3  7  1  0  0  0  0
  4  2  1  0  0  0  0
  5  6  2  0  0  0  0
  6  2  1  0  0  0  0
  6  3  1  0  0  0  0
  8 11  1  0  0  0  0
  9  8  1  0  0  0  0
  9 10  2  0  0  0  0
 10 13  1  0  0  0  0
 11 13  2  0  0  0  0
 12 10  1  0  0  0  0
 12  7  1  0  0  0  0
 14  8  1  0  0  0  0
 15 16  1  6  0  0  0
 15 14  1  0  0  0  0
 17 18  1  0  0  0  0
 18 21  1  0  0  0  0
 18 15  1  1  0  0  0
 19 24  1  1  0  0  0
 19 21  1  0  0  0  0
 20 23  1  1  0  0  0
 20 17  1  0  0  0  0
 20 19  1  0  0  0  0
 23 22  1  0  0  0  0
 26 25  1  0  0  0  0
 26 24  1  0  0  0  0
 27 47  1  6  0  0  0
 29 30  2  0  0  0  0
 30 28  1  0  0  0  0
 30 27  1  0  0  0  0
 31 28  1  0  0  0  0
 32 31  1  0  0  0  0
 32 33  1  0  0  0  0
 34 33  1  0  0  0  0
 35 38  1  0  0  0  0
 36 43  1  1  0  0  0
 36 45  1  0  0  0  0
 37 42  2  0  0  0  0
 38 43  1  0  0  0  0
 40 35  1  0  0  0  0
 40 44  1  0  0  0  0
 41 44  1  6  0  0  0
 41 36  1  0  0  0  0
 41 45  1  0  0  0  0
 45 39  1  1  0  0  0
 45 42  1  0  0  0  0
 46 34  1  1  0  0  0
 46 41  1  0  0  0  0
 46 37  1  0  0  0  0
 47 48  1  0  0  0  0
 49 48  1  0  0  0  0
 50 49  1  0  0  0  0
 51 52  1  0  0  0  0
 52 54  1  0  0  0  0
 53 54  2  0  0  0  0
 54 58  1  0  0  0  0
 57 56  2  0  0  0  0
 58 62  2  0  0  0  0
 58 60  1  0  0  0  0
 59 56  1  0  0  0  0
 59 55  1  0  0  0  0
 60 59  2  0  0  0  0
 61 60  1  0  0  0  0
 62 57  1  0  0  0  0
M  END
>  <MODEL>
3

>  <REMARK>
 VINA RESULT:      -6.9      2.049      3.155
  Name = 
  21 active torsions:
  status: ('A' for Active; 'I' for Inactive)
    1  A    between atoms: N_1  and  C_54
    2  A    between atoms: C_3  and  C_60
    3  A    between atoms: C_3  and  C_62
    4  A    between atoms: C_5  and  C_18
    5  A    between atoms: C_5  and  C_20
    6  A    between atoms: C_6  and  C_44
    7  A    between atoms: C_6  and  C_60
    8  A    between atoms: C_7  and  C_47
    9  A    between atoms: C_8  and  C_54
   10  A    between atoms: N_11  and  C_20
   11  A    between atoms: C_14  and  C_38
   12  A    between atoms: N_15  and  C_44
   13  A    between atoms: C_19  and  N_24
   14  A    between atoms: C_19  and  N_55
   15  A    between atoms: N_21  and  C_46
   16  A    between atoms: O_26  and  C_31
   17  A    between atoms: C_30  and  C_53
   18  A    between atoms: C_31  and  C_36
   19  A    between atoms: C_39  and  C_46
   20  A    between atoms: C_39  and  C_47
   21  A    between atoms: C_47  and  C_49
                            x       y       z     vdW  Elec       q    Type
                         _______ _______ _______ _____ _____    ______ ____

>  <TORSDO>
F 21

$$$$
=
 OpenBabel10232407453D

 62 68  0  0  1  0  0  0  0  0999 V2000
  183.4090  177.4260  140.4260 C   0  0  1  0  0  3  0  0  0  0  0  0
  183.6300  176.3540  138.0510 C   0  0  2  0  0  3  0  0  0  0  0  0
  185.2060  178.2290  137.3480 N   0  0  0  0  0  2  0  0  0  0  0  0
  182.6970  175.9670  139.5820 S   0  0  0  0  0  0  0  0  0  0  0  0
  184.1400  178.2100  139.4420 N   0  0  0  0  0  0  0  0  0  0  0  0
  184.2800  177.6780  138.2760 C   0  0  0  0  0  0  0  0  0  0  0  0
  186.5830  177.7480  137.3890 C   0  0  0  0  0  2  0  0  0  0  0  0
  189.2760  174.5300  135.5650 N   0  0  0  0  0  0  0  0  0  0  0  0
  188.5220  175.6390  135.2060 N   0  0  0  0  0  0  0  0  0  0  0  0
  187.7040  175.9260  136.1550 C   0  0  0  0  0  0  0  0  0  0  0  0
  188.8520  173.9930  136.8460 C   0  0  0  0  0  3  0  0  0  0  0  0
  186.9140  177.1180  136.1320 N   0  0  0  0  0  2  0  0  0  0  0  0
  187.8510  175.0370  137.3530 C   0  0  0  0  0  3  0  0  0  0  0  0
  190.3550  174.0180  134.7480 C   0  0  0  0  0  2  0  0  0  0  0  0
  191.7220  174.5310  135.1870 C   0  0  1  0  0  3  0  0  0  0  0  0
  191.7150  175.8570  135.6590 O   0  0  0  0  0  1  0  0  0  0  0  0
  193.1200  174.3000  137.1720 O   0  0  0  0  0  0  0  0  0  0  0  0
  192.3900  173.6000  136.1900 C   0  0  2  0  0  3  0  0  0  0  0  0
  194.2150  172.2320  136.6270 C   0  0  1  0  0  3  0  0  0  0  0  0
  194.2210  173.4790  137.5330 C   0  0  1  0  0  3  0  0  0  0  0  0
  193.3110  172.6210  135.4990 C   0  0  0  0  0  2  0  0  0  0  0  0
  195.5380  175.1740  136.1910 C   0  0  0  0  0  1  0  0  0  0  0  0
  195.5120  174.3180  137.4560 C   0  0  0  0  0  2  0  0  0  0  0  0
  195.5720  171.7200  136.1420 C   0  0  0  0  0  2  0  0  0  0  0  0
  196.6800  169.8360  136.4890 C   0  0  0  0  0  1  0  0  0  0  0  0
  196.2040  170.9780  137.1290 O   0  0  0  0  0  0  0  0  0  0  0  0
  182.3500  178.2470  141.1900 C   0  0  1  0  0  3  0  0  0  0  0  0
  184.1510  178.1700  142.9510 N   0  0  0  0  0  2  0  0  0  0  0  0
  182.1040  179.2110  143.3780 O   0  0  0  0  0  0  0  0  0  0  0  0
  182.8410  178.6010  142.5570 C   0  0  0  0  0  0  0  0  0  0  0  0
  184.7480  178.3790  144.2480 C   0  0  0  0  0  2  0  0  0  0  0  0
  186.2590  178.4870  144.1860 C   0  0  0  0  0  2  0  0  0  0  0  0
  186.8110  177.1240  144.5320 C   0  0  0  0  0  2  0  0  0  0  0  0
  187.5700  176.4630  143.3840 C   0  0  0  0  0  2  0  0  0  0  0  0
  190.9460  177.4460  145.0910 C   0  0  0  0  0  2  0  0  0  0  0  0
  191.2300  177.4800  142.0980 C   0  0  2  0  0  3  0  0  0  0  0  0
  188.2780  178.3450  141.9240 C   0  0  0  0  0  3  0  0  0  0  0  0
  191.5600  178.6710  144.3190 C   0  0  0  0  0  2  0  0  0  0  0  0
  190.4610  176.0670  140.1860 O   0  0  0  0  0  1  0  0  0  0  0  0
  191.4120  176.0710  144.5390 C   0  0  0  0  0  2  0  0  0  0  0  0
  189.9730  176.6480  142.4690 C   0  0  2  0  0  0  0  0  0  0  0  0
  189.0940  178.0950  140.6730 C   0  0  0  0  0  3  0  0  0  0  0  0
  191.1560  178.8170  142.8370 C   0  0  0  0  0  2  0  0  0  0  0  0
  190.5650  175.5310  143.3490 C   0  0  0  0  0  2  0  0  0  0  0  0
  190.1910  177.1200  141.0600 C   0  0  1  0  0  0  0  0  0  0  0  0
  188.7280  177.3800  142.9960 C   0  0  2  0  0  3  0  0  0  0  0  0
  181.9180  179.5180  140.4320 C   0  0  0  0  0  2  0  0  0  0  0  0
  180.5910  179.3190  139.6910 C   0  0  0  0  0  2  0  0  0  0  0  0
  180.8190  179.2320  138.2550 N   0  0  0  0  0  2  0  0  0  0  0  0
  181.6220  180.3730  137.8620 C   0  0  0  0  0  1  0  0  0  0  0  0
  182.6920  176.4180  136.8490 C   0  0  0  0  0  2  0  0  0  0  0  0
  182.2340  175.0890  136.4340 N   0  0  0  0  0  2  0  0  0  0  0  0
  184.3630  174.1800  136.1100 O   0  0  0  0  0  0  0  0  0  0  0  0
  183.1130  174.0150  136.0600 C   0  0  0  0  0  0  0  0  0  0  0  0
  183.3430  168.9800  135.7280 C   0  0  0  0  0  1  0  0  0  0  0  0
  181.4930  170.2920  134.7000 C   0  0  0  0  0  3  0  0  0  0  0  0
  180.8110  171.4850  134.4770 C   0  0  0  0  0  3  0  0  0  0  0  0
  182.5800  172.7070  135.6060 C   0  0  0  0  0  0  0  0  0  0  0  0
  182.6900  170.2830  135.4270 C   0  0  0  0  0  0  0  0  0  0  0  0
  183.2340  171.4880  135.8940 C   0  0  0  0  0  0  0  0  0  0  0  0
  184.3440  171.4690  136.6850 F   0  0  0  0  0  0  0  0  0  0  0  0
  181.3450  172.6820  134.9410 C   0  0  0  0  0  3  0  0  0  0  0  0
  1 27  1  6  0  0  0
  2 51  1  6  0  0  0
  2  6  1  0  0  0  0
  2  4  1  0  0  0  0
  3  7  1  0  0  0  0
  3  6  1  0  0  0  0
  4  1  1  0  0  0  0
  5  1  1  0  0  0  0
  6  5  2  0  0  0  0
  8 11  1  0  0  0  0
  9  8  1  0  0  0  0
  9 10  2  0  0  0  0
 10 13  1  0  0  0  0
 11 13  2  0  0  0  0
 12 10  1  0  0  0  0
 12  7  1  0  0  0  0
 14 15  1  0  0  0  0
 14  8  1  0  0  0  0
 15 16  1  1  0  0  0
 17 20  1  0  0  0  0
 18 15  1  6  0  0  0
 18 17  1  0  0  0  0
 19 24  1  6  0  0  0
 19 20  1  0  0  0  0
 20 23  1  6  0  0  0
 21 18  1  0  0  0  0
 21 19  1  0  0  0  0
 22 23  1  0  0  0  0
 24 26  1  0  0  0  0
 25 26  1  0  0  0  0
 27 47  1  6  0  0  0
 27 30  1  0  0  0  0
 28 31  1  0  0  0  0
 30 28  1  0  0  0  0
 30 29  2  0  0  0  0
 32 31  1  0  0  0  0
 32 33  1  0  0  0  0
 34 33  1  0  0  0  0
 36 41  1  0  0  0  0
 36 43  1  1  0  0  0
 37 46  1  0  0  0  0
 38 35  1  0  0  0  0
 40 35  1  0  0  0  0
 41 46  1  0  0  0  0
 41 44  1  1  0  0  0
 42 45  1  0  0  0  0
 42 37  2  0  0  0  0
 43 38  1  0  0  0  0
 44 40  1  0  0  0  0
 45 39  1  6  0  0  0
 45 36  1  0  0  0  0
 45 41  1  0  0  0  0
 46 34  1  6  0  0  0
 48 47  1  0  0  0  0
 49 48  1  0  0  0  0
 50 49  1  0  0  0  0
 52 51  1  0  0  0  0
 54 53  2  0  0  0  0
 54 52  1  0  0  0  0
 56 59  1  0  0  0  0
 57 56  2  0  0  0  0
 57 62  1  0  0  0  0
 58 60  1  0  0  0  0
 58 54  1  0  0  0  0
 59 55  1  0  0  0  0
 59 60  2  0  0  0  0
 60 61  1  0  0  0  0
 62 58  2  0  0  0  0
M  END
>  <MODEL>
4

>  <REMARK>
 VINA RESULT:      -6.8      3.363     11.468
  Name = 
  21 active torsions:
  status: ('A' for Active; 'I' for Inactive)
    1  A    between atoms: N_1  and  C_54
    2  A    between atoms: C_3  and  C_60
    3  A    between atoms: C_3  and  C_62
    4  A    between atoms: C_5  and  C_18
    5  A    between atoms: C_5  and  C_20
    6  A    between atoms: C_6  and  C_44
    7  A    between atoms: C_6  and  C_60
    8  A    between atoms: C_7  and  C_47
    9  A    between atoms: C_8  and  C_54
   10  A    between atoms: N_11  and  C_20
   11  A    between atoms: C_14  and  C_38
   12  A    between atoms: N_15  and  C_44
   13  A    between atoms: C_19  and  N_24
   14  A    between atoms: C_19  and  N_55
   15  A    between atoms: N_21  and  C_46
   16  A    between atoms: O_26  and  C_31
   17  A    between atoms: C_30  and  C_53
   18  A    between atoms: C_31  and  C_36
   19  A    between atoms: C_39  and  C_46
   20  A    between atoms: C_39  and  C_47
   21  A    between atoms: C_47  and  C_49
                            x       y       z     vdW  Elec       q    Type
                         _______ _______ _______ _____ _____    ______ ____

>  <TORSDO>
F 21

$$$$
=
 OpenBabel10232407453D

 62 68  0  0  1  0  0  0  0  0999 V2000
  187.5500  175.9390  136.1860 C   0  0  1  0  0  3  0  0  0  0  0  0
  185.5390  177.4000  135.3740 C   0  0  2  0  0  3  0  0  0  0  0  0
  184.4390  177.1610  137.6590 N   0  0  0  0  0  2  0  0  0  0  0  0
  187.0830  176.7580  134.6190 S   0  0  0  0  0  0  0  0  0  0  0  0
  186.4260  176.0370  137.1040 N   0  0  0  0  0  0  0  0  0  0  0  0
  185.4410  176.7790  136.7270 C   0  0  0  0  0  0  0  0  0  0  0  0
  184.6530  178.3790  138.4330 C   0  0  0  0  0  2  0  0  0  0  0  0
  184.5280  178.6480  143.0000 N   0  0  0  0  0  0  0  0  0  0  0  0
  183.7420  178.2780  141.9170 N   0  0  0  0  0  0  0  0  0  0  0  0
  184.2420  178.7660  140.8380 C   0  0  0  0  0  0  0  0  0  0  0  0
  185.6060  179.5330  142.5930 C   0  0  0  0  0  3  0  0  0  0  0  0
  183.7350  178.4130  139.5480 N   0  0  0  0  0  2  0  0  0  0  0  0
  185.5200  179.5160  141.0630 C   0  0  0  0  0  3  0  0  0  0  0  0
  184.2840  178.1730  144.3440 C   0  0  0  0  0  2  0  0  0  0  0  0
  185.3780  178.5840  145.3230 C   0  0  1  0  0  3  0  0  0  0  0  0
  184.9010  178.9880  146.5840 O   0  0  0  0  0  1  0  0  0  0  0  0
  186.8980  177.3720  146.7960 O   0  0  0  0  0  0  0  0  0  0  0  0
  186.4520  177.5130  145.4670 C   0  0  2  0  0  3  0  0  0  0  0  0
  188.7110  177.0140  145.2600 C   0  0  1  0  0  3  0  0  0  0  0  0
  188.2670  176.9970  146.7350 C   0  0  1  0  0  3  0  0  0  0  0  0
  187.6390  177.8080  144.5790 C   0  0  0  0  0  2  0  0  0  0  0  0
  188.2290  178.4200  148.8290 C   0  0  0  0  0  1  0  0  0  0  0  0
  189.0770  177.9310  147.6570 C   0  0  0  0  0  2  0  0  0  0  0  0
  190.1140  177.5450  144.9630 C   0  0  0  0  0  2  0  0  0  0  0  0
  191.5770  176.6250  143.5800 C   0  0  0  0  0  1  0  0  0  0  0  0
  190.4220  177.4030  143.6170 O   0  0  0  0  0  0  0  0  0  0  0  0
  188.0380  174.4910  135.9770 C   0  0  1  0  0  3  0  0  0  0  0  0
  190.4210  174.1200  136.7080 N   0  0  0  0  0  2  0  0  0  0  0  0
  189.9300  174.8000  134.5280 O   0  0  0  0  0  0  0  0  0  0  0  0
  189.5000  174.4660  135.6650 C   0  0  0  0  0  0  0  0  0  0  0  0
  191.8590  174.1050  136.5860 C   0  0  0  0  0  2  0  0  0  0  0  0
  192.5370  175.0590  137.5490 C   0  0  0  0  0  2  0  0  0  0  0  0
  193.3370  176.0310  136.7140 C   0  0  0  0  0  2  0  0  0  0  0  0
  194.1630  175.3600  135.6190 C   0  0  0  0  0  2  0  0  0  0  0  0
  195.7810  174.2110  138.9870 C   0  0  0  0  0  2  0  0  0  0  0  0
  197.5900  173.5640  136.6750 C   0  0  2  0  0  3  0  0  0  0  0  0
  196.5130  176.0770  135.2540 C   0  0  0  0  0  3  0  0  0  0  0  0
  197.3010  174.6090  138.9740 C   0  0  0  0  0  2  0  0  0  0  0  0
  197.3220  172.6840  134.3510 O   0  0  0  0  0  1  0  0  0  0  0  0
  195.5070  172.7910  138.4200 C   0  0  0  0  0  2  0  0  0  0  0  0
  196.1560  173.8070  136.1320 C   0  0  2  0  0  0  0  0  0  0  0  0
  197.5090  175.1610  134.5740 C   0  0  0  0  0  3  0  0  0  0  0  0
  197.9630  174.7350  137.5850 C   0  0  0  0  0  2  0  0  0  0  0  0
  195.3360  172.7350  136.8730 C   0  0  0  0  0  2  0  0  0  0  0  0
  197.3350  173.7900  135.2010 C   0  0  1  0  0  0  0  0  0  0  0  0
  195.6010  175.2400  136.1200 C   0  0  2  0  0  3  0  0  0  0  0  0
  187.7350  173.5780  137.1830 C   0  0  0  0  0  2  0  0  0  0  0  0
  187.1440  172.2330  136.7470 C   0  0  0  0  0  2  0  0  0  0  0  0
  187.9450  171.6470  135.6800 N   0  0  0  0  0  2  0  0  0  0  0  0
  187.2630  170.4570  135.2140 C   0  0  0  0  0  1  0  0  0  0  0  0
  184.3270  177.0260  134.5260 C   0  0  0  0  0  2  0  0  0  0  0  0
  183.4610  176.0530  135.2000 N   0  0  0  0  0  2  0  0  0  0  0  0
  184.7330  174.1690  134.6590 O   0  0  0  0  0  0  0  0  0  0  0  0
  183.7030  174.6370  135.2190 C   0  0  0  0  0  0  0  0  0  0  0  0
  180.0180  173.6190  138.5200 C   0  0  0  0  0  1  0  0  0  0  0  0
  181.0270  171.8590  137.0770 C   0  0  0  0  0  3  0  0  0  0  0  0
  181.8680  171.4500  136.0470 C   0  0  0  0  0  3  0  0  0  0  0  0
  182.7600  173.7030  135.8830 C   0  0  0  0  0  0  0  0  0  0  0  0
  180.9970  173.1990  137.4820 C   0  0  0  0  0  0  0  0  0  0  0  0
  181.8550  174.1310  136.8790 C   0  0  0  0  0  0  0  0  0  0  0  0
  181.7560  175.4510  137.2030 F   0  0  0  0  0  0  0  0  0  0  0  0
  182.7180  172.3720  135.4430 C   0  0  0  0  0  3  0  0  0  0  0  0
  1 27  1  6  0  0  0
  1  5  1  0  0  0  0
  2 51  1  6  0  0  0
  2  6  1  0  0  0  0
  3  7  1  0  0  0  0
  4  2  1  0  0  0  0
  4  1  1  0  0  0  0
  6  5  2  0  0  0  0
  6  3  1  0  0  0  0
  7 12  1  0  0  0  0
  8 14  1  0  0  0  0
  9  8  1  0  0  0  0
 10 13  1  0  0  0  0
 10  9  2  0  0  0  0
 11  8  1  0  0  0  0
 12 10  1  0  0  0  0
 13 11  2  0  0  0  0
 14 15  1  0  0  0  0
 15 16  1  1  0  0  0
 18 15  1  1  0  0  0
 18 17  1  0  0  0  0
 19 24  1  1  0  0  0
 19 20  1  0  0  0  0
 20 17  1  0  0  0  0
 20 23  1  1  0  0  0
 21 19  1  0  0  0  0
 21 18  1  0  0  0  0
 23 22  1  0  0  0  0
 25 26  1  0  0  0  0
 26 24  1  0  0  0  0
 27 47  1  1  0  0  0
 29 30  2  0  0  0  0
 30 27  1  0  0  0  0
 30 28  1  0  0  0  0
 31 28  1  0  0  0  0
 31 32  1  0  0  0  0
 33 32  1  0  0  0  0
 34 33  1  0  0  0  0
 36 43  1  1  0  0  0
 37 46  1  0  0  0  0
 38 35  1  0  0  0  0
 40 35  1  0  0  0  0
 41 36  1  0  0  0  0
 41 44  1  6  0  0  0
 42 45  1  0  0  0  0
 42 37  2  0  0  0  0
 43 38  1  0  0  0  0
 44 40  1  0  0  0  0
 45 39  1  6  0  0  0
 45 41  1  0  0  0  0
 45 36  1  0  0  0  0
 46 34  1  6  0  0  0
 46 41  1  0  0  0  0
 48 47  1  0  0  0  0
 49 48  1  0  0  0  0
 50 49  1  0  0  0  0
 51 52  1  0  0  0  0
 52 54  1  0  0  0  0
 53 54  2  0  0  0  0
 54 58  1  0  0  0  0
 56 59  1  0  0  0  0
 57 56  2  0  0  0  0
 58 60  1  0  0  0  0
 59 55  1  0  0  0  0
 60 61  1  0  0  0  0
 60 59  2  0  0  0  0
 62 58  2  0  0  0  0
 62 57  1  0  0  0  0
M  END
>  <MODEL>
5

>  <REMARK>
 VINA RESULT:      -6.7      3.122      7.347
  Name = 
  21 active torsions:
  status: ('A' for Active; 'I' for Inactive)
    1  A    between atoms: N_1  and  C_54
    2  A    between atoms: C_3  and  C_60
    3  A    between atoms: C_3  and  C_62
    4  A    between atoms: C_5  and  C_18
    5  A    between atoms: C_5  and  C_20
    6  A    between atoms: C_6  and  C_44
    7  A    between atoms: C_6  and  C_60
    8  A    between atoms: C_7  and  C_47
    9  A    between atoms: C_8  and  C_54
   10  A    between atoms: N_11  and  C_20
   11  A    between atoms: C_14  and  C_38
   12  A    between atoms: N_15  and  C_44
   13  A    between atoms: C_19  and  N_24
   14  A    between atoms: C_19  and  N_55
   15  A    between atoms: N_21  and  C_46
   16  A    between atoms: O_26  and  C_31
   17  A    between atoms: C_30  and  C_53
   18  A    between atoms: C_31  and  C_36
   19  A    between atoms: C_39  and  C_46
   20  A    between atoms: C_39  and  C_47
   21  A    between atoms: C_47  and  C_49
                            x       y       z     vdW  Elec       q    Type
                         _______ _______ _______ _____ _____    ______ ____

>  <TORSDO>
F 21

$$$$
=
 OpenBabel10232407453D

 62 68  0  0  1  0  0  0  0  0999 V2000
  188.2710  173.6250  136.4070 C   0  0  1  0  0  3  0  0  0  0  0  0
  190.7740  173.9470  135.7230 C   0  0  2  0  0  3  0  0  0  0  0  0
  190.5070  176.4730  135.9220 N   0  0  0  0  0  2  0  0  0  0  0  0
  189.6460  172.5160  135.9300 S   0  0  0  0  0  0  0  0  0  0  0  0
  188.6970  174.9980  136.1870 N   0  0  0  0  0  0  0  0  0  0  0  0
  189.9360  175.1710  135.8780 C   0  0  0  0  0  0  0  0  0  0  0  0
  191.0810  176.9260  137.1840 C   0  0  0  0  0  2  0  0  0  0  0  0
  189.9960  176.7570  141.6260 N   0  0  0  0  0  0  0  0  0  0  0  0
  189.4090  176.8840  140.3740 N   0  0  0  0  0  0  0  0  0  0  0  0
  190.3050  177.2080  139.5120 C   0  0  0  0  0  0  0  0  0  0  0  0
  191.4040  177.1110  141.5890 C   0  0  0  0  0  3  0  0  0  0  0  0
  190.0210  177.2480  138.1110 N   0  0  0  0  0  2  0  0  0  0  0  0
  191.6850  177.2900  140.0930 C   0  0  0  0  0  3  0  0  0  0  0  0
  189.2670  176.3050  142.7910 C   0  0  0  0  0  2  0  0  0  0  0  0
  189.8230  176.8720  144.0920 C   0  0  1  0  0  3  0  0  0  0  0  0
  191.1300  177.3820  143.9850 O   0  0  0  0  0  1  0  0  0  0  0  0
  189.1450  178.0970  146.0890 O   0  0  0  0  0  0  0  0  0  0  0  0
  188.8880  177.8990  144.7170 C   0  0  2  0  0  3  0  0  0  0  0  0
  186.7920  178.2850  145.6390 C   0  0  1  0  0  3  0  0  0  0  0  0
  187.9010  178.4060  146.7020 C   0  0  1  0  0  3  0  0  0  0  0  0
  187.4410  177.5010  144.5410 C   0  0  0  0  0  2  0  0  0  0  0  0
  188.3730  178.0930  149.1700 C   0  0  0  0  0  1  0  0  0  0  0  0
  187.7130  177.4920  147.9300 C   0  0  0  0  0  2  0  0  0  0  0  0
  185.4640  177.6750  146.0890 C   0  0  0  0  0  2  0  0  0  0  0  0
  184.1560  179.0220  144.9170 C   0  0  0  0  0  1  0  0  0  0  0  0
  184.4880  178.6530  146.2190 O   0  0  0  0  0  0  0  0  0  0  0  0
  186.9500  173.2770  135.6910 C   0  0  1  0  0  3  0  0  0  0  0  0
  184.5160  172.8790  136.2060 N   0  0  0  0  0  2  0  0  0  0  0  0
  186.0960  173.0090  137.9220 O   0  0  0  0  0  0  0  0  0  0  0  0
  185.8600  173.0270  136.6830 C   0  0  0  0  0  0  0  0  0  0  0  0
  183.3490  172.6920  137.0340 C   0  0  0  0  0  2  0  0  0  0  0  0
  182.4250  173.8940  137.0210 C   0  0  0  0  0  2  0  0  0  0  0  0
  183.0140  174.9110  137.9690 C   0  0  0  0  0  2  0  0  0  0  0  0
  181.9820  175.5620  138.8860 C   0  0  0  0  0  2  0  0  0  0  0  0
  180.9280  178.7030  140.9600 C   0  0  0  0  0  2  0  0  0  0  0  0
  183.2200  179.3680  139.1320 C   0  0  2  0  0  3  0  0  0  0  0  0
  182.0940  177.3150  137.1300 C   0  0  0  0  0  3  0  0  0  0  0  0
  180.9040  179.9500  140.0040 C   0  0  0  0  0  2  0  0  0  0  0  0
  185.3330  178.2580  138.3930 O   0  0  0  0  0  1  0  0  0  0  0  0
  182.3010  178.4780  141.6510 C   0  0  0  0  0  2  0  0  0  0  0  0
  183.1450  177.8260  139.2950 C   0  0  2  0  0  0  0  0  0  0  0  0
  183.3850  178.0540  136.8490 C   0  0  0  0  0  3  0  0  0  0  0  0
  181.8260  179.8810  138.7680 C   0  0  0  0  0  2  0  0  0  0  0  0
  183.3170  177.6450  140.8140 C   0  0  0  0  0  2  0  0  0  0  0  0
  183.9650  178.4420  138.1970 C   0  0  1  0  0  0  0  0  0  0  0  0
  181.9940  177.0650  138.6170 C   0  0  2  0  0  3  0  0  0  0  0  0
  186.5150  174.3570  134.6810 C   0  0  0  0  0  2  0  0  0  0  0  0
  185.9010  175.5770  135.3770 C   0  0  0  0  0  2  0  0  0  0  0  0
  185.3480  176.4990  134.3940 N   0  0  0  0  0  2  0  0  0  0  0  0
  186.1530  177.7040  134.4110 C   0  0  0  0  0  1  0  0  0  0  0  0
  191.4320  173.9220  134.3460 C   0  0  0  0  0  2  0  0  0  0  0  0
  192.7920  174.4680  134.3740 N   0  0  0  0  0  2  0  0  0  0  0  0
  193.6740  172.8700  135.8330 O   0  0  0  0  0  0  0  0  0  0  0  0
  193.8670  173.9120  135.1480 C   0  0  0  0  0  0  0  0  0  0  0  0
  198.9120  173.6600  135.2390 C   0  0  0  0  0  1  0  0  0  0  0  0
  197.6940  175.8310  135.1990 C   0  0  0  0  0  3  0  0  0  0  0  0
  196.5270  176.5820  135.0970 C   0  0  0  0  0  3  0  0  0  0  0  0
  195.2100  174.5430  135.1640 C   0  0  0  0  0  0  0  0  0  0  0  0
  197.6400  174.4330  135.2250 C   0  0  0  0  0  0  0  0  0  0  0  0
  196.3990  173.7800  135.1960 C   0  0  0  0  0  0  0  0  0  0  0  0
  196.3500  172.4210  135.1210 F   0  0  0  0  0  0  0  0  0  0  0  0
  195.2930  175.9400  135.0640 C   0  0  0  0  0  3  0  0  0  0  0  0
  1 27  1  6  0  0  0
  2 51  1  6  0  0  0
  2  6  1  0  0  0  0
  2  4  1  0  0  0  0
  3  7  1  0  0  0  0
  4  1  1  0  0  0  0
  5  1  1  0  0  0  0
  6  3  1  0  0  0  0
  6  5  2  0  0  0  0
  7 12  1  0  0  0  0
  8 14  1  0  0  0  0
  9  8  1  0  0  0  0
 10 13  1  0  0  0  0
 10  9  2  0  0  0  0
 11  8  1  0  0  0  0
 12 10  1  0  0  0  0
 13 11  2  0  0  0  0
 14 15  1  0  0  0  0
 15 16  1  6  0  0  0
 17 20  1  0  0  0  0
 18 15  1  1  0  0  0
 18 17  1  0  0  0  0
 19 24  1  1  0  0  0
 19 20  1  0  0  0  0
 20 23  1  1  0  0  0
 21 18  1  0  0  0  0
 21 19  1  0  0  0  0
 23 22  1  0  0  0  0
 24 26  1  0  0  0  0
 25 26  1  0  0  0  0
 27 47  1  6  0  0  0
 27 30  1  0  0  0  0
 28 30  1  0  0  0  0
 28 31  1  0  0  0  0
 30 29  2  0  0  0  0
 32 31  1  0  0  0  0
 32 33  1  0  0  0  0
 33 34  1  0  0  0  0
 35 40  1  0  0  0  0
 36 43  1  6  0  0  0
 36 41  1  0  0  0  0
 37 46  1  0  0  0  0
 38 35  1  0  0  0  0
 41 44  1  1  0  0  0
 42 37  2  0  0  0  0
 42 45  1  0  0  0  0
 43 38  1  0  0  0  0
 44 40  1  0  0  0  0
 45 39  1  1  0  0  0
 45 36  1  0  0  0  0
 45 41  1  0  0  0  0
 46 34  1  6  0  0  0
 46 41  1  0  0  0  0
 47 48  1  0  0  0  0
 49 50  1  0  0  0  0
 49 48  1  0  0  0  0
 51 52  1  0  0  0  0
 52 54  1  0  0  0  0
 54 58  1  0  0  0  0
 54 53  2  0  0  0  0
 56 59  1  0  0  0  0
 57 56  2  0  0  0  0
 58 60  1  0  0  0  0
 59 55  1  0  0  0  0
 60 59  2  0  0  0  0
 61 60  1  0  0  0  0
 62 57  1  0  0  0  0
 62 58  2  0  0  0  0
M  END
>  <MODEL>
6

>  <REMARK>
 VINA RESULT:      -6.2      3.081     10.818
  Name = 
  21 active torsions:
  status: ('A' for Active; 'I' for Inactive)
    1  A    between atoms: N_1  and  C_54
    2  A    between atoms: C_3  and  C_60
    3  A    between atoms: C_3  and  C_62
    4  A    between atoms: C_5  and  C_18
    5  A    between atoms: C_5  and  C_20
    6  A    between atoms: C_6  and  C_44
    7  A    between atoms: C_6  and  C_60
    8  A    between atoms: C_7  and  C_47
    9  A    between atoms: C_8  and  C_54
   10  A    between atoms: N_11  and  C_20
   11  A    between atoms: C_14  and  C_38
   12  A    between atoms: N_15  and  C_44
   13  A    between atoms: C_19  and  N_24
   14  A    between atoms: C_19  and  N_55
   15  A    between atoms: N_21  and  C_46
   16  A    between atoms: O_26  and  C_31
   17  A    between atoms: C_30  and  C_53
   18  A    between atoms: C_31  and  C_36
   19  A    between atoms: C_39  and  C_46
   20  A    between atoms: C_39  and  C_47
   21  A    between atoms: C_47  and  C_49
                            x       y       z     vdW  Elec       q    Type
                         _______ _______ _______ _____ _____    ______ ____

>  <TORSDO>
F 21

$$$$
=
 OpenBabel10232407453D

 62 68  0  0  1  0  0  0  0  0999 V2000
  188.8620  177.1700  138.0710 C   0  0  1  0  0  3  0  0  0  0  0  0
  187.9290  176.3860  135.7570 C   0  0  2  0  0  3  0  0  0  0  0  0
  185.7070  175.7900  136.8520 N   0  0  0  0  0  2  0  0  0  0  0  0
  189.5270  177.0450  136.3710 S   0  0  0  0  0  0  0  0  0  0  0  0
  187.5580  176.5270  138.0980 N   0  0  0  0  0  0  0  0  0  0  0  0
  187.0750  176.1620  136.9590 C   0  0  0  0  0  0  0  0  0  0  0  0
  184.7320  176.8400  136.5780 C   0  0  0  0  0  2  0  0  0  0  0  0
  181.3080  177.7920  139.4620 N   0  0  0  0  0  0  0  0  0  0  0  0
  182.5720  178.2390  139.0990 N   0  0  0  0  0  0  0  0  0  0  0  0
  183.1780  177.3180  138.4380 C   0  0  0  0  0  0  0  0  0  0  0  0
  181.1010  176.4100  139.0630 C   0  0  0  0  0  3  0  0  0  0  0  0
  184.4340  177.5560  137.7970 N   0  0  0  0  0  2  0  0  0  0  0  0
  182.3370  176.0970  138.2150 C   0  0  0  0  0  3  0  0  0  0  0  0
  180.3410  178.6350  140.1310 C   0  0  0  0  0  2  0  0  0  0  0  0
  180.3220  178.4260  141.6410 C   0  0  1  0  0  3  0  0  0  0  0  0
  180.3580  177.0750  142.0360 O   0  0  0  0  0  1  0  0  0  0  0  0
  182.6560  179.1300  141.6990 O   0  0  0  0  0  0  0  0  0  0  0  0
  181.4080  179.2270  142.3460 C   0  0  2  0  0  3  0  0  0  0  0  0
  182.9540  179.2630  144.0790 C   0  0  1  0  0  3  0  0  0  0  0  0
  183.6530  179.2160  142.7070 C   0  0  1  0  0  3  0  0  0  0  0  0
  181.5660  178.7870  143.7830 C   0  0  0  0  0  2  0  0  0  0  0  0
  185.8810  178.4750  141.7580 C   0  0  0  0  0  1  0  0  0  0  0  0
  184.6370  178.0410  142.5310 C   0  0  0  0  0  2  0  0  0  0  0  0
  183.6110  178.4860  145.2200 C   0  0  0  0  0  2  0  0  0  0  0  0
  185.2360  178.4060  146.7210 C   0  0  0  0  0  1  0  0  0  0  0  0
  184.5310  179.2770  145.8940 O   0  0  0  0  0  0  0  0  0  0  0  0
  189.8340  176.6170  139.1320 C   0  0  1  0  0  3  0  0  0  0  0  0
  191.1410  174.8030  137.9680 N   0  0  0  0  0  2  0  0  0  0  0  0
  192.1310  176.8590  138.4670 O   0  0  0  0  0  0  0  0  0  0  0  0
  191.0980  176.1370  138.4930 C   0  0  0  0  0  0  0  0  0  0  0  0
  192.2950  174.1720  137.3750 C   0  0  0  0  0  2  0  0  0  0  0  0
  192.0910  173.8420  135.9090 C   0  0  0  0  0  2  0  0  0  0  0  0
  193.3130  173.0770  135.4580 C   0  0  0  0  0  2  0  0  0  0  0  0
  194.4680  173.1280  136.4540 C   0  0  0  0  0  2  0  0  0  0  0  0
  197.7700  175.1020  135.7590 C   0  0  0  0  0  2  0  0  0  0  0  0
  198.3230  172.1520  135.9320 C   0  0  2  0  0  3  0  0  0  0  0  0
  195.5200  171.6550  134.7530 C   0  0  0  0  0  3  0  0  0  0  0  0
  198.5890  174.3360  134.6580 C   0  0  0  0  0  2  0  0  0  0  0  0
  197.5690  170.2450  137.3590 O   0  0  0  0  0  1  0  0  0  0  0  0
  198.1180  174.6640  137.2080 C   0  0  0  0  0  2  0  0  0  0  0  0
  196.9490  172.4410  136.5950 C   0  0  2  0  0  0  0  0  0  0  0  0
  196.4100  170.5020  135.1650 C   0  0  0  0  0  3  0  0  0  0  0  0
  198.3400  172.8170  134.5540 C   0  0  0  0  0  2  0  0  0  0  0  0
  197.3240  173.4250  137.7170 C   0  0  0  0  0  2  0  0  0  0  0  0
  197.3460  171.0380  136.2330 C   0  0  1  0  0  0  0  0  0  0  0  0
  195.7570  172.8110  135.6980 C   0  0  2  0  0  3  0  0  0  0  0  0
  190.1520  177.6380  140.2420 C   0  0  0  0  0  2  0  0  0  0  0  0
  189.3880  177.3330  141.5360 C   0  0  0  0  0  2  0  0  0  0  0  0
  190.2970  176.8290  142.5560 N   0  0  0  0  0  2  0  0  0  0  0  0
  191.6090  177.3890  142.3000 C   0  0  0  0  0  1  0  0  0  0  0  0
  188.1380  175.0780  135.0010 C   0  0  0  0  0  2  0  0  0  0  0  0
  187.0050  174.1600  135.1600 N   0  0  0  0  0  2  0  0  0  0  0  0
  188.2700  172.3140  135.8310 O   0  0  0  0  0  0  0  0  0  0  0  0
  187.1320  172.7860  135.5600 C   0  0  0  0  0  0  0  0  0  0  0  0
  182.5440  171.6590  137.3470 C   0  0  0  0  0  1  0  0  0  0  0  0
  183.7600  170.1570  135.7770 C   0  0  0  0  0  3  0  0  0  0  0  0
  184.8270  169.8710  134.9310 C   0  0  0  0  0  3  0  0  0  0  0  0
  185.9460  171.9000  135.6580 C   0  0  0  0  0  0  0  0  0  0  0  0
  183.7430  171.3400  136.5260 C   0  0  0  0  0  0  0  0  0  0  0  0
  184.8300  172.2230  136.4620 C   0  0  0  0  0  0  0  0  0  0  0  0
  184.7700  173.4200  137.1110 F   0  0  0  0  0  0  0  0  0  0  0  0
  185.9060  170.7470  134.8600 C   0  0  0  0  0  3  0  0  0  0  0  0
  1  5  1  0  0  0  0
  1 27  1  1  0  0  0
  2 51  1  1  0  0  0
  2  4  1  0  0  0  0
  2  6  1  0  0  0  0
  3  6  1  0  0  0  0
  4  1  1  0  0  0  0
  6  5  2  0  0  0  0
  7  3  1  0  0  0  0
  7 12  1  0  0  0  0
  8 14  1  0  0  0  0
  9  8  1  0  0  0  0
 10  9  2  0  0  0  0
 11  8  1  0  0  0  0
 12 10  1  0  0  0  0
 13 10  1  0  0  0  0
 13 11  2  0  0  0  0
 14 15  1  0  0  0  0
 15 16  1  6  0  0  0
 17 18  1  0  0  0  0
 17 20  1  0  0  0  0
 18 15  1  6  0  0  0
 18 21  1  0  0  0  0
 19 24  1  1  0  0  0
 20 23  1  1  0  0  0
 20 19  1  0  0  0  0
 21 19  1  0  0  0  0
 22 23  1  0  0  0  0
 24 26  1  0  0  0  0
 26 25  1  0  0  0  0
 27 47  1  1  0  0  0
 28 30  1  0  0  0  0
 29 30  2  0  0  0  0
 30 27  1  0  0  0  0
 31 28  1  0  0  0  0
 32 31  1  0  0  0  0
 33 32  1  0  0  0  0
 33 34  1  0  0  0  0
 35 40  1  0  0  0  0
 36 43  1  6  0  0  0
 36 45  1  0  0  0  0
 36 41  1  0  0  0  0
 37 42  2  0  0  0  0
 37 46  1  0  0  0  0
 38 35  1  0  0  0  0
 40 44  1  0  0  0  0
 41 44  1  1  0  0  0
 42 45  1  0  0  0  0
 43 38  1  0  0  0  0
 45 41  1  0  0  0  0
 45 39  1  1  0  0  0
 46 34  1  1  0  0  0
 46 41  1  0  0  0  0
 47 48  1  0  0  0  0
 48 49  1  0  0  0  0
 50 49  1  0  0  0  0
 51 52  1  0  0  0  0
 52 54  1  0  0  0  0
 54 58  1  0  0  0  0
 54 53  2  0  0  0  0
 56 59  1  0  0  0  0
 57 56  2  0  0  0  0
 58 60  1  0  0  0  0
 59 55  1  0  0  0  0
 60 59  2  0  0  0  0
 60 61  1  0  0  0  0
 62 57  1  0  0  0  0
 62 58  2  0  0  0  0
M  END
>  <MODEL>
7

>  <REMARK>
 VINA RESULT:      -5.8      2.800      6.472
  Name = 
  21 active torsions:
  status: ('A' for Active; 'I' for Inactive)
    1  A    between atoms: N_1  and  C_54
    2  A    between atoms: C_3  and  C_60
    3  A    between atoms: C_3  and  C_62
    4  A    between atoms: C_5  and  C_18
    5  A    between atoms: C_5  and  C_20
    6  A    between atoms: C_6  and  C_44
    7  A    between atoms: C_6  and  C_60
    8  A    between atoms: C_7  and  C_47
    9  A    between atoms: C_8  and  C_54
   10  A    between atoms: N_11  and  C_20
   11  A    between atoms: C_14  and  C_38
   12  A    between atoms: N_15  and  C_44
   13  A    between atoms: C_19  and  N_24
   14  A    between atoms: C_19  and  N_55
   15  A    between atoms: N_21  and  C_46
   16  A    between atoms: O_26  and  C_31
   17  A    between atoms: C_30  and  C_53
   18  A    between atoms: C_31  and  C_36
   19  A    between atoms: C_39  and  C_46
   20  A    between atoms: C_39  and  C_47
   21  A    between atoms: C_47  and  C_49
                            x       y       z     vdW  Elec       q    Type
                         _______ _______ _______ _____ _____    ______ ____

>  <TORSDO>
F 21

$$$$
=
 OpenBabel10232407453D

 62 68  0  0  1  0  0  0  0  0999 V2000
  188.3880  175.0290  135.9280 C   0  0  1  0  0  3  0  0  0  0  0  0
  188.0640  177.5190  135.1980 C   0  0  2  0  0  3  0  0  0  0  0  0
  187.5190  178.1570  137.6040 N   0  0  0  0  0  2  0  0  0  0  0  0
  188.4650  175.9450  134.3460 S   0  0  0  0  0  0  0  0  0  0  0  0
  187.8740  175.9280  136.9500 N   0  0  0  0  0  0  0  0  0  0  0  0
  187.7390  177.1640  136.6100 C   0  0  0  0  0  0  0  0  0  0  0  0
  188.6870  178.7790  138.2190 C   0  0  0  0  0  2  0  0  0  0  0  0
  189.8810  176.8090  142.1740 N   0  0  0  0  0  0  0  0  0  0  0  0
  190.3250  176.9670  140.8670 N   0  0  0  0  0  0  0  0  0  0  0  0
  189.3480  177.3570  140.1280 C   0  0  0  0  0  0  0  0  0  0  0  0
  188.4520  177.0450  142.2800 C   0  0  0  0  0  3  0  0  0  0  0  0
  189.5470  177.7560  138.7690 N   0  0  0  0  0  2  0  0  0  0  0  0
  188.0760  177.5740  140.8910 C   0  0  0  0  0  3  0  0  0  0  0  0
  190.7670  176.4730  143.2670 C   0  0  0  0  0  2  0  0  0  0  0  0
  191.5410  177.6770  143.7910 C   0  0  1  0  0  3  0  0  0  0  0  0
  191.5680  178.7720  142.9080 O   0  0  0  0  0  1  0  0  0  0  0  0
  191.6550  177.3430  146.2040 O   0  0  0  0  0  0  0  0  0  0  0  0
  191.0700  178.1060  145.1740 C   0  0  2  0  0  3  0  0  0  0  0  0
  189.3980  177.9340  146.7770 C   0  0  1  0  0  3  0  0  0  0  0  0
  190.6990  177.2590  147.2510 C   0  0  1  0  0  3  0  0  0  0  0  0
  189.5660  178.0170  145.2920 C   0  0  0  0  0  2  0  0  0  0  0  0
  191.8410  175.0070  147.4490 C   0  0  0  0  0  1  0  0  0  0  0  0
  190.5400  175.7800  147.6590 C   0  0  0  0  0  2  0  0  0  0  0  0
  188.0820  177.2690  147.1830 C   0  0  0  0  0  2  0  0  0  0  0  0
  186.2000  177.7600  146.1280 C   0  0  0  0  0  1  0  0  0  0  0  0
  187.3260  176.9430  146.0660 O   0  0  0  0  0  0  0  0  0  0  0  0
  187.5860  173.7160  135.8170 C   0  0  1  0  0  3  0  0  0  0  0  0
  189.7270  172.4740  135.3420 N   0  0  0  0  0  2  0  0  0  0  0  0
  188.1120  171.5730  136.7700 O   0  0  0  0  0  0  0  0  0  0  0  0
  188.4740  172.5340  136.0380 C   0  0  0  0  0  0  0  0  0  0  0  0
  190.6670  171.3810  135.4010 C   0  0  0  0  0  2  0  0  0  0  0  0
  191.7570  171.4910  134.3540 C   0  0  0  0  0  2  0  0  0  0  0  0
  193.0690  171.2380  135.0580 C   0  0  0  0  0  2  0  0  0  0  0  0
  193.3140  172.1660  136.2450 C   0  0  0  0  0  2  0  0  0  0  0  0
  193.2910  176.0690  136.0260 C   0  0  0  0  0  2  0  0  0  0  0  0
  196.0520  175.0670  136.6680 C   0  0  2  0  0  3  0  0  0  0  0  0
  195.4250  172.5570  134.9950 C   0  0  0  0  0  3  0  0  0  0  0  0
  194.5600  176.5330  135.2240 C   0  0  0  0  0  2  0  0  0  0  0  0
  197.0470  173.2970  138.1250 O   0  0  0  0  0  1  0  0  0  0  0  0
  193.5280  175.9710  137.5580 C   0  0  0  0  0  2  0  0  0  0  0  0
  195.0280  173.9430  136.9870 C   0  0  2  0  0  0  0  0  0  0  0  0
  196.7450  172.7010  135.7220 C   0  0  0  0  0  3  0  0  0  0  0  0
  195.7750  175.5810  135.2550 C   0  0  0  0  0  2  0  0  0  0  0  0
  194.1200  174.6130  138.0360 C   0  0  0  0  0  2  0  0  0  0  0  0
  196.4950  173.6380  136.8910 C   0  0  1  0  0  0  0  0  0  0  0  0
  194.3430  173.2120  135.8220 C   0  0  2  0  0  3  0  0  0  0  0  0
  186.3830  173.6680  136.7800 C   0  0  0  0  0  2  0  0  0  0  0  0
  185.0550  173.5230  136.0290 C   0  0  0  0  0  2  0  0  0  0  0  0
  185.0030  172.2480  135.3270 N   0  0  0  0  0  2  0  0  0  0  0  0
  184.4730  171.2570  136.2430 C   0  0  0  0  0  1  0  0  0  0  0  0
  186.8750  178.2060  134.5330 C   0  0  0  0  0  2  0  0  0  0  0  0
  185.6830  178.1950  135.3870 N   0  0  0  0  0  2  0  0  0  0  0  0
  184.7610  176.2370  134.5050 O   0  0  0  0  0  0  0  0  0  0  0  0
  184.6520  177.1970  135.3170 C   0  0  0  0  0  0  0  0  0  0  0  0
  182.1470  176.1400  139.5740 C   0  0  0  0  0  1  0  0  0  0  0  0
  181.1260  177.4680  137.7320 C   0  0  0  0  0  3  0  0  0  0  0  0
  181.1990  178.1280  136.5090 C   0  0  0  0  0  3  0  0  0  0  0  0
  183.4480  177.2720  136.1820 C   0  0  0  0  0  0  0  0  0  0  0  0
  182.2270  176.7540  138.2210 C   0  0  0  0  0  0  0  0  0  0  0  0
  183.3970  176.6620  137.4550 C   0  0  0  0  0  0  0  0  0  0  0  0
  184.5010  176.0530  137.9730 F   0  0  0  0  0  0  0  0  0  0  0  0
  182.3600  178.0430  135.7460 C   0  0  0  0  0  3  0  0  0  0  0  0
  1 27  1  6  0  0  0
  1  5  1  0  0  0  0
  2 51  1  6  0  0  0
  2  6  1  0  0  0  0
  3  7  1  0  0  0  0
  4  2  1  0  0  0  0
  4  1  1  0  0  0  0
  6  5  2  0  0  0  0
  6  3  1  0  0  0  0
  7 12  1  0  0  0  0
  8 11  1  0  0  0  0
  8 14  1  0  0  0  0
  9  8  1  0  0  0  0
 10  9  2  0  0  0  0
 10 13  1  0  0  0  0
 12 10  1  0  0  0  0
 13 11  2  0  0  0  0
 14 15  1  0  0  0  0
 15 16  1  6  0  0  0
 17 20  1  0  0  0  0
 18 15  1  6  0  0  0
 18 21  1  0  0  0  0
 18 17  1  0  0  0  0
 19 24  1  6  0  0  0
 19 20  1  0  0  0  0
 20 23  1  6  0  0  0
 21 19  1  0  0  0  0
 22 23  1  0  0  0  0
 26 25  1  0  0  0  0
 26 24  1  0  0  0  0
 27 30  1  0  0  0  0
 27 47  1  1  0  0  0
 28 31  1  0  0  0  0
 28 30  1  0  0  0  0
 30 29  2  0  0  0  0
 32 33  1  0  0  0  0
 32 31  1  0  0  0  0
 33 34  1  0  0  0  0
 35 40  1  0  0  0  0
 36 43  1  6  0  0  0
 36 45  1  0  0  0  0
 36 41  1  0  0  0  0
 37 42  2  0  0  0  0
 37 46  1  0  0  0  0
 38 43  1  0  0  0  0
 38 35  1  0  0  0  0
 40 44  1  0  0  0  0
 41 44  1  1  0  0  0
 42 45  1  0  0  0  0
 45 41  1  0  0  0  0
 45 39  1  1  0  0  0
 46 34  1  1  0  0  0
 46 41  1  0  0  0  0
 48 47  1  0  0  0  0
 49 48  1  0  0  0  0
 49 50  1  0  0  0  0
 51 52  1  0  0  0  0
 53 54  2  0  0  0  0
 54 52  1  0  0  0  0
 54 58  1  0  0  0  0
 56 59  1  0  0  0  0
 57 56  2  0  0  0  0
 58 60  1  0  0  0  0
 59 55  1  0  0  0  0
 60 61  1  0  0  0  0
 60 59  2  0  0  0  0
 62 58  2  0  0  0  0
 62 57  1  0  0  0  0
M  END
>  <MODEL>
8

>  <REMARK>
 VINA RESULT:      -5.8      3.068      7.860
  Name = 
  21 active torsions:
  status: ('A' for Active; 'I' for Inactive)
    1  A    between atoms: N_1  and  C_54
    2  A    between atoms: C_3  and  C_60
    3  A    between atoms: C_3  and  C_62
    4  A    between atoms: C_5  and  C_18
    5  A    between atoms: C_5  and  C_20
    6  A    between atoms: C_6  and  C_44
    7  A    between atoms: C_6  and  C_60
    8  A    between atoms: C_7  and  C_47
    9  A    between atoms: C_8  and  C_54
   10  A    between atoms: N_11  and  C_20
   11  A    between atoms: C_14  and  C_38
   12  A    between atoms: N_15  and  C_44
   13  A    between atoms: C_19  and  N_24
   14  A    between atoms: C_19  and  N_55
   15  A    between atoms: N_21  and  C_46
   16  A    between atoms: O_26  and  C_31
   17  A    between atoms: C_30  and  C_53
   18  A    between atoms: C_31  and  C_36
   19  A    between atoms: C_39  and  C_46
   20  A    between atoms: C_39  and  C_47
   21  A    between atoms: C_47  and  C_49
                            x       y       z     vdW  Elec       q    Type
                         _______ _______ _______ _____ _____    ______ ____

>  <TORSDO>
F 21

$$$$
=
 OpenBabel10232407453D

 62 68  0  0  1  0  0  0  0  0999 V2000
  187.7210  176.3060  136.3160 C   0  0  1  0  0  3  0  0  0  0  0  0
  185.5040  177.4380  135.5130 C   0  0  2  0  0  3  0  0  0  0  0  0
  184.4360  176.9600  137.7760 N   0  0  0  0  0  2  0  0  0  0  0  0
  187.1390  177.0800  134.7630 S   0  0  0  0  0  0  0  0  0  0  0  0
  186.5860  176.1930  137.2210 N   0  0  0  0  0  0  0  0  0  0  0  0
  185.4970  176.7730  136.8480 C   0  0  0  0  0  0  0  0  0  0  0  0
  184.4390  178.1750  138.5830 C   0  0  0  0  0  2  0  0  0  0  0  0
  184.9260  178.4930  143.1220 N   0  0  0  0  0  0  0  0  0  0  0  0
  184.1470  177.8630  142.1590 N   0  0  0  0  0  0  0  0  0  0  0  0
  184.2930  178.4620  141.0320 C   0  0  0  0  0  0  0  0  0  0  0  0
  185.5850  179.6700  142.5820 C   0  0  0  0  0  3  0  0  0  0  0  0
  183.7390  177.9360  139.8240 N   0  0  0  0  0  2  0  0  0  0  0  0
  185.2790  179.5920  141.0830 C   0  0  0  0  0  3  0  0  0  0  0  0
  185.0550  177.9960  144.4740 C   0  0  0  0  0  2  0  0  0  0  0  0
  186.4710  178.1300  145.0200 C   0  0  1  0  0  3  0  0  0  0  0  0
  186.5540  178.0780  146.4240 O   0  0  0  0  0  1  0  0  0  0  0  0
  188.5530  176.8720  145.1930 O   0  0  0  0  0  0  0  0  0  0  0  0
  187.4310  177.1350  144.3820 C   0  0  2  0  0  3  0  0  0  0  0  0
  189.1690  176.8350  142.8710 C   0  0  1  0  0  3  0  0  0  0  0  0
  189.6420  176.6110  144.3200 C   0  0  1  0  0  3  0  0  0  0  0  0
  187.9040  177.6200  143.0320 C   0  0  0  0  0  2  0  0  0  0  0  0
  191.5720  176.8790  145.9370 C   0  0  0  0  0  1  0  0  0  0  0  0
  190.8380  177.4870  144.7440 C   0  0  0  0  0  2  0  0  0  0  0  0
  190.1560  177.5010  141.9120 C   0  0  0  0  0  2  0  0  0  0  0  0
  191.2260  177.1920  140.0000 C   0  0  0  0  0  1  0  0  0  0  0  0
  189.9900  177.0260  140.6190 O   0  0  0  0  0  0  0  0  0  0  0  0
  188.4430  174.9650  136.0780 C   0  0  1  0  0  3  0  0  0  0  0  0
  190.8440  175.5040  135.5360 N   0  0  0  0  0  2  0  0  0  0  0  0
  190.2470  174.6860  137.6410 O   0  0  0  0  0  0  0  0  0  0  0  0
  189.8760  175.0550  136.4940 C   0  0  0  0  0  0  0  0  0  0  0  0
  192.2670  175.5920  135.7590 C   0  0  0  0  0  2  0  0  0  0  0  0
  193.0760  175.1050  134.5730 C   0  0  0  0  0  2  0  0  0  0  0  0
  193.6080  173.7380  134.9370 C   0  0  0  0  0  2  0  0  0  0  0  0
  194.5130  173.7420  136.1660 C   0  0  0  0  0  2  0  0  0  0  0  0
  198.1900  175.0380  136.4540 C   0  0  0  0  0  2  0  0  0  0  0  0
  198.1170  172.0360  136.6020 C   0  0  2  0  0  3  0  0  0  0  0  0
  195.6820  172.0990  134.7140 C   0  0  0  0  0  3  0  0  0  0  0  0
  199.1130  174.1310  135.5610 C   0  0  0  0  0  2  0  0  0  0  0  0
  196.6700  170.3070  137.6790 O   0  0  0  0  0  1  0  0  0  0  0  0
  198.0560  174.5350  137.9180 C   0  0  0  0  0  2  0  0  0  0  0  0
  196.6950  172.5840  136.9030 C   0  0  2  0  0  0  0  0  0  0  0  0
  196.2000  170.7930  135.2780 C   0  0  0  0  0  3  0  0  0  0  0  0
  198.6200  172.6900  135.3130 C   0  0  0  0  0  2  0  0  0  0  0  0
  196.9390  173.4730  138.1360 C   0  0  0  0  0  2  0  0  0  0  0  0
  196.9040  171.1320  136.5790 C   0  0  1  0  0  0  0  0  0  0  0  0
  195.8720  173.1830  135.7510 C   0  0  2  0  0  3  0  0  0  0  0  0
  187.7550  173.7810  136.7880 C   0  0  0  0  0  2  0  0  0  0  0  0
  188.3420  172.4340  136.3540 C   0  0  0  0  0  2  0  0  0  0  0  0
  187.2820  171.4510  136.1740 N   0  0  0  0  0  2  0  0  0  0  0  0
  187.1940  171.1460  134.7600 C   0  0  0  0  0  1  0  0  0  0  0  0
  184.3780  176.8930  134.6390 C   0  0  0  0  0  2  0  0  0  0  0  0
  183.9660  175.5450  135.0460 N   0  0  0  0  0  2  0  0  0  0  0  0
  181.6710  175.8940  134.7790 O   0  0  0  0  0  0  0  0  0  0  0  0
  182.6000  175.1080  135.1150 C   0  0  0  0  0  0  0  0  0  0  0  0
  183.8470  170.4060  136.4770 C   0  0  0  0  0  1  0  0  0  0  0  0
  181.4860  171.1950  136.4480 C   0  0  0  0  0  3  0  0  0  0  0  0
  180.5270  172.1930  136.3020 C   0  0  0  0  0  3  0  0  0  0  0  0
  182.2510  173.7420  135.5780 C   0  0  0  0  0  0  0  0  0  0  0  0
  182.8390  171.4710  136.2200 C   0  0  0  0  0  0  0  0  0  0  0  0
  183.2310  172.7480  135.7950 C   0  0  0  0  0  0  0  0  0  0  0  0
  184.5550  173.0450  135.6700 F   0  0  0  0  0  0  0  0  0  0  0  0
  180.9100  173.4630  135.8850 C   0  0  0  0  0  3  0  0  0  0  0  0
  1 27  1  6  0  0  0
  1  5  1  0  0  0  0
  2 51  1  6  0  0  0
  2  6  1  0  0  0  0
  3  7  1  0  0  0  0
  4  2  1  0  0  0  0
  4  1  1  0  0  0  0
  6  5  2  0  0  0  0
  6  3  1  0  0  0  0
  7 12  1  0  0  0  0
  8 14  1  0  0  0  0
  9  8  1  0  0  0  0
 10 13  1  0  0  0  0
 10  9  2  0  0  0  0
 11  8  1  0  0  0  0
 12 10  1  0  0  0  0
 13 11  2  0  0  0  0
 14 15  1  0  0  0  0
 15 16  1  1  0  0  0
 18 15  1  1  0  0  0
 18 17  1  0  0  0  0
 19 24  1  6  0  0  0
 19 21  1  0  0  0  0
 19 20  1  0  0  0  0
 20 23  1  1  0  0  0
 20 17  1  0  0  0  0
 21 18  1  0  0  0  0
 23 22  1  0  0  0  0
 25 26  1  0  0  0  0
 26 24  1  0  0  0  0
 27 30  1  0  0  0  0
 27 47  1  1  0  0  0
 28 31  1  0  0  0  0
 28 30  1  0  0  0  0
 30 29  2  0  0  0  0
 32 33  1  0  0  0  0
 32 31  1  0  0  0  0
 33 34  1  0  0  0  0
 35 40  1  0  0  0  0
 36 43  1  6  0  0  0
 36 41  1  0  0  0  0
 37 42  2  0  0  0  0
 37 46  1  0  0  0  0
 38 35  1  0  0  0  0
 40 44  1  0  0  0  0
 41 44  1  1  0  0  0
 42 45  1  0  0  0  0
 43 38  1  0  0  0  0
 45 36  1  0  0  0  0
 45 41  1  0  0  0  0
 45 39  1  1  0  0  0
 46 34  1  1  0  0  0
 46 41  1  0  0  0  0
 48 47  1  0  0  0  0
 49 48  1  0  0  0  0
 50 49  1  0  0  0  0
 51 52  1  0  0  0  0
 52 54  1  0  0  0  0
 53 54  2  0  0  0  0
 54 58  1  0  0  0  0
 57 56  1  0  0  0  0
 58 60  2  0  0  0  0
 58 62  1  0  0  0  0
 59 56  2  0  0  0  0
 59 55  1  0  0  0  0
 60 59  1  0  0  0  0
 61 60  1  0  0  0  0
 62 57  2  0  0  0  0
M  END
>  <MODEL>
9

>  <REMARK>
 VINA RESULT:      -5.8      3.082      7.329
  Name = 
  21 active torsions:
  status: ('A' for Active; 'I' for Inactive)
    1  A    between atoms: N_1  and  C_54
    2  A    between atoms: C_3  and  C_60
    3  A    between atoms: C_3  and  C_62
    4  A    between atoms: C_5  and  C_18
    5  A    between atoms: C_5  and  C_20
    6  A    between atoms: C_6  and  C_44
    7  A    between atoms: C_6  and  C_60
    8  A    between atoms: C_7  and  C_47
    9  A    between atoms: C_8  and  C_54
   10  A    between atoms: N_11  and  C_20
   11  A    between atoms: C_14  and  C_38
   12  A    between atoms: N_15  and  C_44
   13  A    between atoms: C_19  and  N_24
   14  A    between atoms: C_19  and  N_55
   15  A    between atoms: N_21  and  C_46
   16  A    between atoms: O_26  and  C_31
   17  A    between atoms: C_30  and  C_53
   18  A    between atoms: C_31  and  C_36
   19  A    between atoms: C_39  and  C_46
   20  A    between atoms: C_39  and  C_47
   21  A    between atoms: C_47  and  C_49
                            x       y       z     vdW  Elec       q    Type
                         _______ _______ _______ _____ _____    ______ ____

>  <TORSDO>
F 21

$$$$
