=
 OpenBabel10232408513D

 25 26  0  0  1  0  0  0  0  0999 V2000
  188.1220  177.6070  146.1320 C   0  0  0  0  0  3  0  0  0  0  0  0
  187.2110  177.9180  142.2580 C   0  0  0  0  0  0  0  0  0  0  0  0
  185.9620  177.9320  142.0920 O   0  0  0  0  0  0  0  0  0  0  0  0
  188.2180  177.9460  141.2190 C   0  0  0  0  0  0  0  0  0  0  0  0
  190.2460  176.7210  145.1170 C   0  0  1  0  0  3  0  0  0  0  0  0
  189.3990  177.8980  141.7390 N   0  0  0  0  0  0  0  0  0  0  0  0
  186.0430  178.1290  144.9990 C   0  0  0  0  0  3  0  0  0  0  0  0
  187.3470  177.8550  144.8890 C   0  0  0  0  0  0  0  0  0  0  0  0
  189.3630  177.1370  146.2520 C   0  0  0  0  0  3  0  0  0  0  0  0
  187.9380  177.8570  143.5210 C   0  0  0  0  0  0  0  0  0  0  0  0
  189.2300  177.8500  143.1610 C   0  0  0  0  0  0  0  0  0  0  0  0
  190.4070  177.8250  144.0780 C   0  0  1  0  0  3  0  0  0  0  0  0
  190.6050  179.0800  144.6660 O   0  0  0  0  0  0  0  0  0  0  0  0
  191.8390  179.5140  144.1780 C   0  0  0  0  0  2  0  0  0  0  0  0
  192.3000  178.6160  143.2160 O   0  0  0  0  0  1  0  0  0  0  0  0
  191.6140  176.3080  145.6410 C   0  0  0  0  0  2  0  0  0  0  0  0
  191.8230  177.3310  147.9060 O   0  0  0  0  0  1  0  0  0  0  0  0
  191.4160  175.0870  147.6780 O   0  0  0  0  0  0  0  0  0  0  0  0
  191.6010  176.2030  147.1270 C   0  0  0  0  0  0  0  0  0  0  0  0
  185.3060  178.1860  146.3010 C   0  0  0  0  0  2  0  0  0  0  0  0
  183.6480  179.0040  144.6260 C   0  0  0  0  0  1  0  0  0  0  0  0
  183.9220  178.7770  146.1010 C   0  0  0  0  0  2  0  0  0  0  0  0
  187.9680  177.9590  139.7480 C   0  0  0  0  0  2  0  0  0  0  0  0
  188.9460  179.2190  137.9380 N   0  0  0  0  0  2  0  0  0  0  0  0
  189.1280  178.5540  139.0180 C   0  0  0  0  0  3  0  0  0  0  0  0
  1  9  2  0  0  0  0
  2 10  1  0  0  0  0
  3  2  2  0  0  0  0
  4  6  2  0  0  0  0
  4  2  1  0  0  0  0
  5 16  1  1  0  0  0
  5  9  1  0  0  0  0
  6 11  1  0  0  0  0
  7 20  1  0  0  0  0
  8  7  2  0  0  0  0
  8  1  1  0  0  0  0
 10  8  1  0  0  0  0
 11 10  2  0  0  0  0
 11 12  1  0  0  0  0
 12 13  1  1  0  0  0
 12  5  1  0  0  0  0
 14 13  1  0  0  0  0
 15 14  1  0  0  0  0
 16 19  1  0  0  0  0
 19 18  2  0  0  0  0
 19 17  1  0  0  0  0
 21 22  1  0  0  0  0
 22 20  1  0  0  0  0
 23  4  1  0  0  0  0
 24 25  2  0  0  0  0
 25 23  1  0  0  0  0
M  END
>  <MODEL>
1

>  <REMARK>
 VINA RESULT:      -7.3      0.000      0.000
  Name = 
  8 active torsions:
  status: ('A' for Active; 'I' for Inactive)
    1  A    between atoms: O_1  and  C_6
    2  A    between atoms: O_1  and  C_25
    3  A    between atoms: C_4  and  C_19
    4  A    between atoms: C_10  and  C_20
    5  A    between atoms: C_11  and  C_12
    6  A    between atoms: C_11  and  C_24
    7  A    between atoms: C_14  and  C_19
    8  A    between atoms: C_16  and  C_20
                            x       y       z     vdW  Elec       q    Type
                         _______ _______ _______ _____ _____    ______ ____

>  <TORSDO>
F 8

$$$$
=
 OpenBabel10232408513D

 25 26  0  0  1  0  0  0  0  0999 V2000
  185.4320  178.4650  141.7130 C   0  0  0  0  0  3  0  0  0  0  0  0
  185.6070  178.5370  145.7010 C   0  0  0  0  0  0  0  0  0  0  0  0
  184.4930  178.8630  146.1910 O   0  0  0  0  0  0  0  0  0  0  0  0
  186.8280  178.2760  146.4330 C   0  0  0  0  0  0  0  0  0  0  0  0
  187.9070  178.7850  142.0300 C   0  0  1  0  0  3  0  0  0  0  0  0
  187.7870  177.9890  145.6180 N   0  0  0  0  0  0  0  0  0  0  0  0
  183.6970  178.5550  143.4030 C   0  0  0  0  0  3  0  0  0  0  0  0
  185.0050  178.4740  143.1350 C   0  0  0  0  0  0  0  0  0  0  0  0
  186.6650  178.5820  141.2200 C   0  0  0  0  0  3  0  0  0  0  0  0
  185.9390  178.3600  144.2910 C   0  0  0  0  0  0  0  0  0  0  0  0
  187.2400  178.0340  144.2940 C   0  0  0  0  0  0  0  0  0  0  0  0
  188.0770  177.7130  143.1010 C   0  0  1  0  0  3  0  0  0  0  0  0
  187.7840  176.4320  142.6180 O   0  0  0  0  0  0  0  0  0  0  0  0
  188.7870  175.6130  143.1420 C   0  0  0  0  0  2  0  0  0  0  0  0
  190.0090  175.9450  142.5600 O   0  0  0  0  0  1  0  0  0  0  0  0
  189.1290  178.7990  141.1230 C   0  0  0  0  0  2  0  0  0  0  0  0
  188.5660  179.0960  138.7110 O   0  0  0  0  0  0  0  0  0  0  0  0
  188.7000  176.9970  139.6230 O   0  0  0  0  0  1  0  0  0  0  0  0
  188.7970  178.2410  139.7810 C   0  0  0  0  0  0  0  0  0  0  0  0
  182.6320  178.6530  142.3560 C   0  0  0  0  0  2  0  0  0  0  0  0
  180.7440  178.5130  143.9800 C   0  0  0  0  0  1  0  0  0  0  0  0
  181.4070  179.3590  142.9100 C   0  0  0  0  0  2  0  0  0  0  0  0
  187.0080  178.3790  147.9100 C   0  0  0  0  0  2  0  0  0  0  0  0
  189.3010  178.2560  148.6530 N   0  0  0  0  0  2  0  0  0  0  0  0
  188.2250  177.6300  148.3490 C   0  0  0  0  0  3  0  0  0  0  0  0
  1  8  1  0  0  0  0
  2  3  2  0  0  0  0
  2  4  1  0  0  0  0
  4 23  1  0  0  0  0
  5 16  1  6  0  0  0
  5 12  1  0  0  0  0
  6  4  2  0  0  0  0
  8  7  2  0  0  0  0
  8 10  1  0  0  0  0
  9  1  2  0  0  0  0
  9  5  1  0  0  0  0
 10 11  2  0  0  0  0
 10  2  1  0  0  0  0
 11  6  1  0  0  0  0
 12 13  1  6  0  0  0
 12 11  1  0  0  0  0
 13 14  1  0  0  0  0
 15 14  1  0  0  0  0
 17 19  2  0  0  0  0
 18 19  1  0  0  0  0
 19 16  1  0  0  0  0
 20 22  1  0  0  0  0
 20  7  1  0  0  0  0
 22 21  1  0  0  0  0
 23 25  1  0  0  0  0
 25 24  2  0  0  0  0
M  END
>  <MODEL>
2

>  <REMARK>
 VINA RESULT:      -6.6      3.202      5.825
  Name = 
  8 active torsions:
  status: ('A' for Active; 'I' for Inactive)
    1  A    between atoms: O_1  and  C_6
    2  A    between atoms: O_1  and  C_25
    3  A    between atoms: C_4  and  C_19
    4  A    between atoms: C_10  and  C_20
    5  A    between atoms: C_11  and  C_12
    6  A    between atoms: C_11  and  C_24
    7  A    between atoms: C_14  and  C_19
    8  A    between atoms: C_16  and  C_20
                            x       y       z     vdW  Elec       q    Type
                         _______ _______ _______ _____ _____    ______ ____

>  <TORSDO>
F 8

$$$$
=
 OpenBabel10232408513D

 25 26  0  0  1  0  0  0  0  0999 V2000
  187.0870  177.9460  144.2830 C   0  0  0  0  0  3  0  0  0  0  0  0
  188.9330  177.3820  140.7880 C   0  0  0  0  0  0  0  0  0  0  0  0
  188.1000  177.3440  139.8440 O   0  0  0  0  0  0  0  0  0  0  0  0
  190.3640  177.1920  140.6840 C   0  0  0  0  0  0  0  0  0  0  0  0
  189.2200  176.8830  145.0890 C   0  0  1  0  0  3  0  0  0  0  0  0
  190.9130  177.2740  141.8490 N   0  0  0  0  0  0  0  0  0  0  0  0
  186.3190  178.1790  141.9950 C   0  0  0  0  0  3  0  0  0  0  0  0
  187.3360  177.9040  142.8190 C   0  0  0  0  0  0  0  0  0  0  0  0
  187.8810  177.5290  145.2680 C   0  0  0  0  0  3  0  0  0  0  0  0
  188.6610  177.6110  142.2030 C   0  0  0  0  0  0  0  0  0  0  0  0
  189.8650  177.5400  142.7890 C   0  0  0  0  0  0  0  0  0  0  0  0
  190.1590  177.7320  144.2400 C   0  0  1  0  0  3  0  0  0  0  0  0
  190.1020  179.0890  144.5830 O   0  0  0  0  0  0  0  0  0  0  0  0
  191.3010  179.6280  144.1140 C   0  0  0  0  0  2  0  0  0  0  0  0
  192.3690  178.8690  144.5900 O   0  0  0  0  0  1  0  0  0  0  0  0
  189.8580  176.6130  146.4440 C   0  0  0  0  0  2  0  0  0  0  0  0
  189.2540  178.4590  148.0090 O   0  0  0  0  0  0  0  0  0  0  0  0
  188.1190  176.4680  148.0670 O   0  0  0  0  0  1  0  0  0  0  0  0
  189.0210  177.1710  147.5430 C   0  0  0  0  0  0  0  0  0  0  0  0
  184.9340  178.5140  142.4560 C   0  0  0  0  0  2  0  0  0  0  0  0
  184.7730  178.9050  139.9980 C   0  0  0  0  0  1  0  0  0  0  0  0
  183.9940  178.6280  141.2700 C   0  0  0  0  0  2  0  0  0  0  0  0
  191.1220  176.8760  139.4380 C   0  0  0  0  0  2  0  0  0  0  0  0
  193.4290  176.7900  138.7350 N   0  0  0  0  0  2  0  0  0  0  0  0
  192.5780  177.1620  139.6180 C   0  0  0  0  0  3  0  0  0  0  0  0
  1  9  2  0  0  0  0
  2 10  1  0  0  0  0
  3  2  2  0  0  0  0
  4  2  1  0  0  0  0
  4  6  2  0  0  0  0
  5  9  1  0  0  0  0
  5 16  1  1  0  0  0
  6 11  1  0  0  0  0
  7 20  1  0  0  0  0
  7  8  2  0  0  0  0
  8  1  1  0  0  0  0
 10 11  2  0  0  0  0
 10  8  1  0  0  0  0
 11 12  1  0  0  0  0
 12 13  1  1  0  0  0
 12  5  1  0  0  0  0
 14 13  1  0  0  0  0
 14 15  1  0  0  0  0
 16 19  1  0  0  0  0
 19 17  2  0  0  0  0
 19 18  1  0  0  0  0
 21 22  1  0  0  0  0
 22 20  1  0  0  0  0
 23 25  1  0  0  0  0
 23  4  1  0  0  0  0
 24 25  2  0  0  0  0
M  END
>  <MODEL>
3

>  <REMARK>
 VINA RESULT:      -6.6      2.246      2.807
  Name = 
  8 active torsions:
  status: ('A' for Active; 'I' for Inactive)
    1  A    between atoms: O_1  and  C_6
    2  A    between atoms: O_1  and  C_25
    3  A    between atoms: C_4  and  C_19
    4  A    between atoms: C_10  and  C_20
    5  A    between atoms: C_11  and  C_12
    6  A    between atoms: C_11  and  C_24
    7  A    between atoms: C_14  and  C_19
    8  A    between atoms: C_16  and  C_20
                            x       y       z     vdW  Elec       q    Type
                         _______ _______ _______ _____ _____    ______ ____

>  <TORSDO>
F 8

$$$$
=
 OpenBabel10232408513D

 25 26  0  0  1  0  0  0  0  0999 V2000
  190.5930  177.0890  140.7070 C   0  0  0  0  0  3  0  0  0  0  0  0
  187.1410  178.3020  142.3040 C   0  0  0  0  0  0  0  0  0  0  0  0
  187.1870  178.2500  143.5620 O   0  0  0  0  0  0  0  0  0  0  0  0
  185.9990  178.6810  141.4980 C   0  0  0  0  0  0  0  0  0  0  0  0
  189.0510  176.6790  138.7620 C   0  0  1  0  0  3  0  0  0  0  0  0
  186.2910  178.6040  140.2430 N   0  0  0  0  0  0  0  0  0  0  0  0
  189.9900  177.7020  142.9730 C   0  0  0  0  0  3  0  0  0  0  0  0
  189.6020  177.5790  141.6990 C   0  0  0  0  0  0  0  0  0  0  0  0
  190.3820  176.7130  139.4460 C   0  0  0  0  0  3  0  0  0  0  0  0
  188.2080  177.9820  141.3610 C   0  0  0  0  0  0  0  0  0  0  0  0
  187.6560  178.1790  140.1550 C   0  0  0  0  0  0  0  0  0  0  0  0
  188.3330  178.0220  138.8340 C   0  0  1  0  0  3  0  0  0  0  0  0
  189.1940  179.0970  138.5860 O   0  0  0  0  0  0  0  0  0  0  0  0
  188.9690  179.4370  137.2500 C   0  0  0  0  0  2  0  0  0  0  0  0
  187.5970  179.4870  137.0090 O   0  0  0  0  0  1  0  0  0  0  0  0
  189.2190  176.2660  137.3070 C   0  0  0  0  0  2  0  0  0  0  0  0
  187.4640  176.4530  135.5440 O   0  0  0  0  0  0  0  0  0  0  0  0
  187.1980  175.0020  137.2980 O   0  0  0  0  0  1  0  0  0  0  0  0
  187.9110  175.8610  136.7180 C   0  0  0  0  0  0  0  0  0  0  0  0
  191.3600  177.3600  143.4690 C   0  0  0  0  0  2  0  0  0  0  0  0
  189.9450  177.1720  145.5150 C   0  0  0  0  0  1  0  0  0  0  0  0
  191.2970  176.8590  144.9010 C   0  0  0  0  0  2  0  0  0  0  0  0
  184.6460  179.0480  142.0070 C   0  0  0  0  0  2  0  0  0  0  0  0
  182.3410  178.5700  141.4750 N   0  0  0  0  0  2  0  0  0  0  0  0
  183.5780  178.4000  141.1860 C   0  0  0  0  0  3  0  0  0  0  0  0
  1  8  1  0  0  0  0
  2  3  2  0  0  0  0
  4 23  1  0  0  0  0
  4  2  1  0  0  0  0
  5 16  1  6  0  0  0
  5 12  1  0  0  0  0
  5  9  1  0  0  0  0
  6  4  2  0  0  0  0
  7 20  1  0  0  0  0
  8  7  2  0  0  0  0
  9  1  2  0  0  0  0
 10  8  1  0  0  0  0
 10  2  1  0  0  0  0
 11  6  1  0  0  0  0
 11 10  2  0  0  0  0
 12 13  1  1  0  0  0
 12 11  1  0  0  0  0
 14 13  1  0  0  0  0
 15 14  1  0  0  0  0
 17 19  2  0  0  0  0
 19 18  1  0  0  0  0
 19 16  1  0  0  0  0
 20 22  1  0  0  0  0
 22 21  1  0  0  0  0
 25 24  2  0  0  0  0
 25 23  1  0  0  0  0
M  END
>  <MODEL>
4

>  <REMARK>
 VINA RESULT:      -6.5      3.304      6.754
  Name = 
  8 active torsions:
  status: ('A' for Active; 'I' for Inactive)
    1  A    between atoms: O_1  and  C_6
    2  A    between atoms: O_1  and  C_25
    3  A    between atoms: C_4  and  C_19
    4  A    between atoms: C_10  and  C_20
    5  A    between atoms: C_11  and  C_12
    6  A    between atoms: C_11  and  C_24
    7  A    between atoms: C_14  and  C_19
    8  A    between atoms: C_16  and  C_20
                            x       y       z     vdW  Elec       q    Type
                         _______ _______ _______ _____ _____    ______ ____

>  <TORSDO>
F 8

$$$$
=
 OpenBabel10232408513D

 25 26  0  0  1  0  0  0  0  0999 V2000
  187.3050  177.6890  144.3050 C   0  0  0  0  0  3  0  0  0  0  0  0
  188.7790  177.5640  140.5970 C   0  0  0  0  0  0  0  0  0  0  0  0
  187.8510  177.4670  139.7500 O   0  0  0  0  0  0  0  0  0  0  0  0
  190.2000  177.5710  140.3220 C   0  0  0  0  0  0  0  0  0  0  0  0
  189.6340  176.8760  144.7950 C   0  0  1  0  0  3  0  0  0  0  0  0
  190.8690  177.6620  141.4220 N   0  0  0  0  0  0  0  0  0  0  0  0
  186.2480  177.9420  142.1380 C   0  0  0  0  0  3  0  0  0  0  0  0
  187.3820  177.7590  142.8230 C   0  0  0  0  0  0  0  0  0  0  0  0
  188.2570  177.3290  145.1660 C   0  0  0  0  0  3  0  0  0  0  0  0
  188.6510  177.6780  142.0460 C   0  0  0  0  0  0  0  0  0  0  0  0
  189.9150  177.7360  142.4890 C   0  0  0  0  0  0  0  0  0  0  0  0
  190.3520  177.8870  143.9080 C   0  0  1  0  0  3  0  0  0  0  0  0
  190.1670  179.2030  144.3470 O   0  0  0  0  0  0  0  0  0  0  0  0
  191.3780  179.8450  144.0800 C   0  0  0  0  0  2  0  0  0  0  0  0
  192.4330  179.0420  144.5080 O   0  0  0  0  0  1  0  0  0  0  0  0
  190.4580  176.6200  146.0490 C   0  0  0  0  0  2  0  0  0  0  0  0
  192.5760  175.4960  146.7340 O   0  0  0  0  0  1  0  0  0  0  0  0
  191.9210  175.5010  144.5370 O   0  0  0  0  0  0  0  0  0  0  0  0
  191.6820  175.8350  145.7260 C   0  0  0  0  0  0  0  0  0  0  0  0
  184.8970  178.0660  142.7710 C   0  0  0  0  0  2  0  0  0  0  0  0
  183.8620  179.3980  144.6080 C   0  0  0  0  0  1  0  0  0  0  0  0
  184.7060  179.4560  143.3480 C   0  0  0  0  0  2  0  0  0  0  0  0
  190.8390  177.4260  138.9820 C   0  0  0  0  0  2  0  0  0  0  0  0
  190.5910  175.1350  138.2640 N   0  0  0  0  0  2  0  0  0  0  0  0
  191.3440  176.0340  138.7830 C   0  0  0  0  0  3  0  0  0  0  0  0
  1  9  2  0  0  0  0
  2 10  1  0  0  0  0
  3  2  2  0  0  0  0
  4  2  1  0  0  0  0
  4  6  2  0  0  0  0
  5  9  1  0  0  0  0
  5 16  1  1  0  0  0
  6 11  1  0  0  0  0
  7 20  1  0  0  0  0
  7  8  2  0  0  0  0
  8  1  1  0  0  0  0
 10 11  2  0  0  0  0
 10  8  1  0  0  0  0
 11 12  1  0  0  0  0
 12 13  1  1  0  0  0
 12  5  1  0  0  0  0
 14 13  1  0  0  0  0
 14 15  1  0  0  0  0
 18 19  2  0  0  0  0
 19 16  1  0  0  0  0
 19 17  1  0  0  0  0
 20 22  1  0  0  0  0
 22 21  1  0  0  0  0
 23  4  1  0  0  0  0
 24 25  2  0  0  0  0
 25 23  1  0  0  0  0
M  END
>  <MODEL>
5

>  <REMARK>
 VINA RESULT:      -6.5      1.806      2.265
  Name = 
  8 active torsions:
  status: ('A' for Active; 'I' for Inactive)
    1  A    between atoms: O_1  and  C_6
    2  A    between atoms: O_1  and  C_25
    3  A    between atoms: C_4  and  C_19
    4  A    between atoms: C_10  and  C_20
    5  A    between atoms: C_11  and  C_12
    6  A    between atoms: C_11  and  C_24
    7  A    between atoms: C_14  and  C_19
    8  A    between atoms: C_16  and  C_20
                            x       y       z     vdW  Elec       q    Type
                         _______ _______ _______ _____ _____    ______ ____

>  <TORSDO>
F 8

$$$$
=
 OpenBabel10232408513D

 25 26  0  0  1  0  0  0  0  0999 V2000
  188.1340  177.8190  145.4970 C   0  0  0  0  0  3  0  0  0  0  0  0
  184.5600  178.4400  143.8300 C   0  0  0  0  0  0  0  0  0  0  0  0
  183.7120  178.7710  144.7010 O   0  0  0  0  0  0  0  0  0  0  0  0
  184.3120  178.2380  142.4180 C   0  0  0  0  0  0  0  0  0  0  0  0
  188.3930  176.4510  143.4010 C   0  0  1  0  0  3  0  0  0  0  0  0
  185.3990  177.8830  141.8190 N   0  0  0  0  0  0  0  0  0  0  0  0
  186.1210  178.8730  146.3400 C   0  0  0  0  0  3  0  0  0  0  0  0
  186.7350  178.2830  145.3100 C   0  0  0  0  0  0  0  0  0  0  0  0
  188.8640  177.0490  144.6900 C   0  0  0  0  0  3  0  0  0  0  0  0
  185.9800  178.1690  144.0300 C   0  0  0  0  0  0  0  0  0  0  0  0
  186.4320  177.8460  142.8100 C   0  0  0  0  0  0  0  0  0  0  0  0
  187.8390  177.5040  142.4480 C   0  0  1  0  0  3  0  0  0  0  0  0
  188.6360  178.6550  142.4090 O   0  0  0  0  0  0  0  0  0  0  0  0
  188.6510  179.0360  141.0660 C   0  0  0  0  0  2  0  0  0  0  0  0
  188.8700  177.9150  140.2670 O   0  0  0  0  0  1  0  0  0  0  0  0
  189.5290  175.6960  142.7270 C   0  0  0  0  0  2  0  0  0  0  0  0
  191.5290  175.6930  144.2160 O   0  0  0  0  0  1  0  0  0  0  0  0
  191.3370  177.2360  142.5320 O   0  0  0  0  0  0  0  0  0  0  0  0
  190.8490  176.2490  143.1400 C   0  0  0  0  0  0  0  0  0  0  0  0
  186.7490  179.0830  147.6830 C   0  0  0  0  0  2  0  0  0  0  0  0
  188.7310  178.1320  148.8610 C   0  0  0  0  0  1  0  0  0  0  0  0
  187.4260  177.8100  148.1570 C   0  0  0  0  0  2  0  0  0  0  0  0
  182.9930  178.3480  141.7310 C   0  0  0  0  0  2  0  0  0  0  0  0
  182.6030  176.8330  139.8930 N   0  0  0  0  0  2  0  0  0  0  0  0
  183.1060  177.9400  140.2970 C   0  0  0  0  0  3  0  0  0  0  0  0
  2 10  1  0  0  0  0
  2  3  2  0  0  0  0
  4  2  1  0  0  0  0
  5 16  1  6  0  0  0
  5  9  1  0  0  0  0
  6  4  2  0  0  0  0
  6 11  1  0  0  0  0
  7 20  1  0  0  0  0
  8  1  1  0  0  0  0
  8  7  2  0  0  0  0
  9  1  2  0  0  0  0
 10  8  1  0  0  0  0
 11 10  2  0  0  0  0
 12 13  1  1  0  0  0
 12 11  1  0  0  0  0
 12  5  1  0  0  0  0
 14 13  1  0  0  0  0
 15 14  1  0  0  0  0
 16 19  1  0  0  0  0
 18 19  2  0  0  0  0
 19 17  1  0  0  0  0
 20 22  1  0  0  0  0
 22 21  1  0  0  0  0
 23  4  1  0  0  0  0
 24 25  2  0  0  0  0
 25 23  1  0  0  0  0
M  END
>  <MODEL>
6

>  <REMARK>
 VINA RESULT:      -6.4      2.719      4.002
  Name = 
  8 active torsions:
  status: ('A' for Active; 'I' for Inactive)
    1  A    between atoms: O_1  and  C_6
    2  A    between atoms: O_1  and  C_25
    3  A    between atoms: C_4  and  C_19
    4  A    between atoms: C_10  and  C_20
    5  A    between atoms: C_11  and  C_12
    6  A    between atoms: C_11  and  C_24
    7  A    between atoms: C_14  and  C_19
    8  A    between atoms: C_16  and  C_20
                            x       y       z     vdW  Elec       q    Type
                         _______ _______ _______ _____ _____    ______ ____

>  <TORSDO>
F 8

$$$$
=
 OpenBabel10232408513D

 25 26  0  0  1  0  0  0  0  0999 V2000
  183.3380  178.7880  141.8770 C   0  0  0  0  0  3  0  0  0  0  0  0
  187.2180  178.5230  140.9760 C   0  0  0  0  0  0  0  0  0  0  0  0
  187.9250  178.6050  142.0150 O   0  0  0  0  0  0  0  0  0  0  0  0
  187.6970  178.4100  139.6150 C   0  0  0  0  0  0  0  0  0  0  0  0
  183.2700  179.4990  139.4650 C   0  0  1  0  0  3  0  0  0  0  0  0
  186.7030  178.3700  138.7920 N   0  0  0  0  0  0  0  0  0  0  0  0
  185.2950  178.4210  143.2600 C   0  0  0  0  0  3  0  0  0  0  0  0
  184.8020  178.5920  142.0280 C   0  0  0  0  0  0  0  0  0  0  0  0
  182.6620  179.1610  140.7900 C   0  0  0  0  0  3  0  0  0  0  0  0
  185.7620  178.5350  140.8890 C   0  0  0  0  0  0  0  0  0  0  0  0
  185.5060  178.4400  139.5760 C   0  0  0  0  0  0  0  0  0  0  0  0
  184.1590  178.3800  138.9370 C   0  0  1  0  0  3  0  0  0  0  0  0
  183.5810  177.1170  139.1140 O   0  0  0  0  0  0  0  0  0  0  0  0
  183.6750  176.5000  137.8650 C   0  0  0  0  0  2  0  0  0  0  0  0
  183.7530  175.1190  138.0340 O   0  0  0  0  0  1  0  0  0  0  0  0
  182.1780  179.8080  138.4510 C   0  0  0  0  0  2  0  0  0  0  0  0
  180.2840  181.2640  139.1670 O   0  0  0  0  0  1  0  0  0  0  0  0
  182.2610  182.1900  138.4690 O   0  0  0  0  0  0  0  0  0  0  0  0
  181.5880  181.1530  138.7020 C   0  0  0  0  0  0  0  0  0  0  0  0
  184.4620  178.4290  144.5040 C   0  0  0  0  0  2  0  0  0  0  0  0
  186.6740  178.0240  145.5830 C   0  0  0  0  0  1  0  0  0  0  0  0
  185.3270  178.7090  145.7190 C   0  0  0  0  0  2  0  0  0  0  0  0
  189.1240  178.4070  139.1800 C   0  0  0  0  0  2  0  0  0  0  0  0
  190.4160  176.7320  140.3410 N   0  0  0  0  0  2  0  0  0  0  0  0
  189.7160  177.0410  139.3130 C   0  0  0  0  0  3  0  0  0  0  0  0
  1  8  1  0  0  0  0
  2  3  2  0  0  0  0
  4  2  1  0  0  0  0
  5 16  1  6  0  0  0
  5  9  1  0  0  0  0
  6 11  1  0  0  0  0
  6  4  2  0  0  0  0
  7 20  1  0  0  0  0
  8  7  2  0  0  0  0
  9  1  2  0  0  0  0
 10  2  1  0  0  0  0
 10  8  1  0  0  0  0
 11 10  2  0  0  0  0
 12 13  1  1  0  0  0
 12  5  1  0  0  0  0
 12 11  1  0  0  0  0
 14 15  1  0  0  0  0
 14 13  1  0  0  0  0
 16 19  1  0  0  0  0
 18 19  2  0  0  0  0
 19 17  1  0  0  0  0
 20 22  1  0  0  0  0
 21 22  1  0  0  0  0
 23 25  1  0  0  0  0
 23  4  1  0  0  0  0
 25 24  2  0  0  0  0
M  END
>  <MODEL>
7

>  <REMARK>
 VINA RESULT:      -6.2      3.762      7.744
  Name = 
  8 active torsions:
  status: ('A' for Active; 'I' for Inactive)
    1  A    between atoms: O_1  and  C_6
    2  A    between atoms: O_1  and  C_25
    3  A    between atoms: C_4  and  C_19
    4  A    between atoms: C_10  and  C_20
    5  A    between atoms: C_11  and  C_12
    6  A    between atoms: C_11  and  C_24
    7  A    between atoms: C_14  and  C_19
    8  A    between atoms: C_16  and  C_20
                            x       y       z     vdW  Elec       q    Type
                         _______ _______ _______ _____ _____    ______ ____

>  <TORSDO>
F 8

$$$$
=
 OpenBabel10232408513D

 25 26  0  0  1  0  0  0  0  0999 V2000
  189.3190  177.8140  139.3730 C   0  0  0  0  0  3  0  0  0  0  0  0
  185.9290  178.9600  141.1430 C   0  0  0  0  0  0  0  0  0  0  0  0
  185.1180  179.4240  140.2980 O   0  0  0  0  0  0  0  0  0  0  0  0
  185.7340  178.8880  142.5750 C   0  0  0  0  0  0  0  0  0  0  0  0
  190.1560  178.1690  141.7190 C   0  0  1  0  0  3  0  0  0  0  0  0
  186.7730  178.3770  143.1440 N   0  0  0  0  0  0  0  0  0  0  0  0
  187.1410  178.3850  138.4740 C   0  0  0  0  0  3  0  0  0  0  0  0
  187.9010  178.2140  139.5610 C   0  0  0  0  0  0  0  0  0  0  0  0
  190.2930  177.7740  140.2820 C   0  0  0  0  0  3  0  0  0  0  0  0
  187.2530  178.4020  140.8910 C   0  0  0  0  0  0  0  0  0  0  0  0
  187.7110  178.0690  142.1060 C   0  0  0  0  0  0  0  0  0  0  0  0
  189.0220  177.4250  142.4140 C   0  0  1  0  0  3  0  0  0  0  0  0
  188.9980  176.0660  142.0800 O   0  0  0  0  0  0  0  0  0  0  0  0
  189.2580  175.3960  143.2780 C   0  0  0  0  0  2  0  0  0  0  0  0
  190.5480  174.8700  143.2440 O   0  0  0  0  0  1  0  0  0  0  0  0
  191.4620  177.9190  142.4590 C   0  0  0  0  0  2  0  0  0  0  0  0
  191.5830  177.5910  144.9280 O   0  0  0  0  0  1  0  0  0  0  0  0
  191.1270  179.6590  144.0520 O   0  0  0  0  0  0  0  0  0  0  0  0
  191.3900  178.4460  143.8510 C   0  0  0  0  0  0  0  0  0  0  0  0
  187.6350  178.2120  137.0710 C   0  0  0  0  0  2  0  0  0  0  0  0
  187.5160  175.7420  136.7490 C   0  0  0  0  0  1  0  0  0  0  0  0
  186.8960  177.0780  136.3840 C   0  0  0  0  0  2  0  0  0  0  0  0
  184.5460  179.3840  143.3290 C   0  0  0  0  0  2  0  0  0  0  0  0
  183.7040  179.1500  145.5780 N   0  0  0  0  0  2  0  0  0  0  0  0
  184.7190  179.1650  144.7970 C   0  0  0  0  0  3  0  0  0  0  0  0
  1  8  1  0  0  0  0
  1  9  2  0  0  0  0
  2  4  1  0  0  0  0
  3  2  2  0  0  0  0
  4  6  2  0  0  0  0
  4 23  1  0  0  0  0
  5 12  1  0  0  0  0
  5 16  1  1  0  0  0
  7  8  2  0  0  0  0
  8 10  1  0  0  0  0
  9  5  1  0  0  0  0
 10  2  1  0  0  0  0
 10 11  2  0  0  0  0
 11 12  1  0  0  0  0
 11  6  1  0  0  0  0
 12 13  1  6  0  0  0
 13 14  1  0  0  0  0
 15 14  1  0  0  0  0
 16 19  1  0  0  0  0
 19 18  2  0  0  0  0
 19 17  1  0  0  0  0
 20  7  1  0  0  0  0
 22 21  1  0  0  0  0
 22 20  1  0  0  0  0
 23 25  1  0  0  0  0
 25 24  2  0  0  0  0
M  END
>  <MODEL>
8

>  <REMARK>
 VINA RESULT:      -6.0      2.577      5.643
  Name = 
  8 active torsions:
  status: ('A' for Active; 'I' for Inactive)
    1  A    between atoms: O_1  and  C_6
    2  A    between atoms: O_1  and  C_25
    3  A    between atoms: C_4  and  C_19
    4  A    between atoms: C_10  and  C_20
    5  A    between atoms: C_11  and  C_12
    6  A    between atoms: C_11  and  C_24
    7  A    between atoms: C_14  and  C_19
    8  A    between atoms: C_16  and  C_20
                            x       y       z     vdW  Elec       q    Type
                         _______ _______ _______ _____ _____    ______ ____

>  <TORSDO>
F 8

$$$$
=
 OpenBabel10232408513D

 25 26  0  0  1  0  0  0  0  0999 V2000
  183.9810  178.4150  143.1360 C   0  0  0  0  0  3  0  0  0  0  0  0
  187.4750  178.4130  141.2060 C   0  0  0  0  0  0  0  0  0  0  0  0
  188.4360  178.4490  142.0210 O   0  0  0  0  0  0  0  0  0  0  0  0
  187.5690  178.4310  139.7620 C   0  0  0  0  0  0  0  0  0  0  0  0
  183.2410  179.3090  140.9040 C   0  0  1  0  0  3  0  0  0  0  0  0
  186.3900  178.4060  139.2360 N   0  0  0  0  0  0  0  0  0  0  0  0
  186.2490  178.0380  143.9040 C   0  0  0  0  0  3  0  0  0  0  0  0
  185.4360  178.2810  142.8700 C   0  0  0  0  0  0  0  0  0  0  0  0
  183.0250  178.8380  142.3080 C   0  0  0  0  0  3  0  0  0  0  0  0
  186.0500  178.3610  141.5150 C   0  0  0  0  0  0  0  0  0  0  0  0
  185.4500  178.3560  140.3160 C   0  0  0  0  0  0  0  0  0  0  0  0
  183.9820  178.2790  140.0590 C   0  0  1  0  0  3  0  0  0  0  0  0
  183.5070  176.9790  140.2720 O   0  0  0  0  0  0  0  0  0  0  0  0
  182.8600  176.6330  139.0840 C   0  0  0  0  0  2  0  0  0  0  0  0
  183.3390  175.4030  138.6360 O   0  0  0  0  0  1  0  0  0  0  0  0
  181.9060  179.6410  140.2520 C   0  0  0  0  0  2  0  0  0  0  0  0
  180.2410  178.0700  141.2420 O   0  0  0  0  0  0  0  0  0  0  0  0
  180.2920  180.2690  141.8880 O   0  0  0  0  0  1  0  0  0  0  0  0
  180.7780  179.3500  141.1800 C   0  0  0  0  0  0  0  0  0  0  0  0
  185.7860  177.9080  145.3220 C   0  0  0  0  0  2  0  0  0  0  0  0
  188.2250  177.4100  145.4760 C   0  0  0  0  0  1  0  0  0  0  0  0
  186.9730  177.7650  146.2570 C   0  0  0  0  0  2  0  0  0  0  0  0
  188.8240  178.5330  138.9610 C   0  0  0  0  0  2  0  0  0  0  0  0
  190.5780  177.0020  139.5940 N   0  0  0  0  0  2  0  0  0  0  0  0
  189.5220  177.2120  138.9010 C   0  0  0  0  0  3  0  0  0  0  0  0
  2 10  1  0  0  0  0
  2  3  2  0  0  0  0
  4  2  1  0  0  0  0
  5 16  1  6  0  0  0
  5  9  1  0  0  0  0
  6  4  2  0  0  0  0
  6 11  1  0  0  0  0
  7 20  1  0  0  0  0
  8  1  1  0  0  0  0
  8  7  2  0  0  0  0
  9  1  2  0  0  0  0
 10  8  1  0  0  0  0
 11 10  2  0  0  0  0
 12 13  1  1  0  0  0
 12 11  1  0  0  0  0
 12  5  1  0  0  0  0
 14 13  1  0  0  0  0
 15 14  1  0  0  0  0
 16 19  1  0  0  0  0
 19 17  2  0  0  0  0
 19 18  1  0  0  0  0
 20 22  1  0  0  0  0
 21 22  1  0  0  0  0
 23  4  1  0  0  0  0
 25 23  1  0  0  0  0
 25 24  2  0  0  0  0
M  END
>  <MODEL>
9

>  <REMARK>
 VINA RESULT:      -5.7      3.205      7.191
  Name = 
  8 active torsions:
  status: ('A' for Active; 'I' for Inactive)
    1  A    between atoms: O_1  and  C_6
    2  A    between atoms: O_1  and  C_25
    3  A    between atoms: C_4  and  C_19
    4  A    between atoms: C_10  and  C_20
    5  A    between atoms: C_11  and  C_12
    6  A    between atoms: C_11  and  C_24
    7  A    between atoms: C_14  and  C_19
    8  A    between atoms: C_16  and  C_20
                            x       y       z     vdW  Elec       q    Type
                         _______ _______ _______ _____ _____    ______ ____

>  <TORSDO>
F 8

$$$$
