=
 OpenBabel10232407583D

 44 49  0  0  1  0  0  0  0  0999 V2000
  188.4190  176.1210  138.2590 O   0  0  0  0  0  0  0  0  0  0  0  0
  187.6560  170.3010  135.2920 N   0  0  0  0  0  2  0  0  0  0  0  0
  187.2220  173.5840  136.3360 C   0  0  0  0  0  0  0  0  0  0  0  0
  188.7590  175.2400  137.2260 C   0  0  0  0  0  2  0  0  0  0  0  0
  186.6560  175.8860  135.8360 C   0  0  1  0  0  3  0  0  0  0  0  0
  187.9140  171.2720  136.3490 C   0  0  0  0  0  2  0  0  0  0  0  0
  186.3080  178.2510  138.7950 C   0  0  0  0  0  1  0  0  0  0  0  0
  186.9020  179.0760  136.5440 C   0  0  0  0  0  1  0  0  0  0  0  0
  186.8900  172.3270  136.2150 C   0  0  0  0  0  0  0  0  0  0  0  0
  186.2760  170.5140  134.8580 C   0  0  0  0  0  2  0  0  0  0  0  0
  187.5360  174.8450  136.4560 C   0  0  0  0  0  0  0  0  0  0  0  0
  188.3600  177.3820  137.6520 C   0  0  1  0  0  3  0  0  0  0  0  0
  185.8630  171.9230  135.2380 C   0  0  1  0  0  3  0  0  0  0  0  0
  186.8940  177.8390  137.4450 C   0  0  0  0  0  0  0  0  0  0  0  0
  186.0500  176.7410  136.8780 N   0  0  0  0  0  0  0  0  0  0  0  0
  183.7840  173.2250  135.6260 C   0  0  0  0  0  2  0  0  0  0  0  0
  184.4860  171.9040  135.8820 C   0  0  0  0  0  3  0  0  0  0  0  0
  183.4230  172.0050  134.8040 C   0  0  0  0  0  2  0  0  0  0  0  0
  187.3750  176.6480  134.7230 C   0  0  0  0  0  2  0  0  0  0  0  0
  188.5920  175.9480  134.3470 N   0  0  0  0  0  1  0  0  0  0  0  0
  184.7440  177.2020  136.4040 C   0  0  0  0  0  2  0  0  0  0  0  0
  183.6340  176.4660  137.1320 C   0  0  0  0  0  2  0  0  0  0  0  0
  182.8140  177.4260  137.9800 C   0  0  0  0  0  2  0  0  0  0  0  0
  181.4830  175.6820  139.4850 C   0  0  0  0  0  2  0  0  0  0  0  0
  181.0110  177.1100  139.6680 C   0  0  0  0  0  2  0  0  0  0  0  0
  182.4650  176.8360  139.3440 C   0  0  0  0  0  0  0  0  0  0  0  0
  183.2710  177.1770  140.4390 O   0  0  0  0  0  0  0  0  0  0  0  0
  183.0990  178.5510  140.6610 C   0  0  0  0  0  2  0  0  0  0  0  0
  184.2210  179.0600  141.3650 O   0  0  0  0  0  0  0  0  0  0  0  0
  184.4620  178.1520  143.4800 O   0  0  0  0  0  0  0  0  0  0  0  0
  184.9060  178.2990  142.3100 C   0  0  0  0  0  3  0  0  0  0  0  0
  189.2210  178.3900  138.4150 C   0  0  0  0  0  2  0  0  0  0  0  0
  188.8900  177.3960  142.0310 C   0  0  0  0  0  3  0  0  0  0  0  0
  191.1430  176.8720  141.3500 C   0  0  0  0  0  3  0  0  0  0  0  0
  190.8900  177.3330  140.0540 C   0  0  0  0  0  0  0  0  0  0  0  0
  188.6170  177.8670  140.7470 C   0  0  0  0  0  3  0  0  0  0  0  0
  189.6000  177.8480  139.7530 C   0  0  0  0  0  0  0  0  0  0  0  0
  190.1530  176.8970  142.3410 C   0  0  0  0  0  0  0  0  0  0  0  0
  191.7070  176.1190  144.1020 C   0  0  0  0  0  1  0  0  0  0  0  0
  190.4000  176.4280  143.6350 O   0  0  0  0  0  0  0  0  0  0  0  0
  191.9470  177.2340  139.1320 O   0  0  0  0  0  0  0  0  0  0  0  0
  192.0140  176.2450  136.9540 C   0  0  0  0  0  2  0  0  0  0  0  0
  192.3260  176.0610  138.4270 C   0  0  0  0  0  3  0  0  0  0  0  0
  193.4370  176.3960  137.4500 C   0  0  0  0  0  2  0  0  0  0  0  0
  2  6  1  0  0  0  0
  3 11  2  0  0  0  0
  4  1  1  0  0  0  0
  5 19  1  6  0  0  0
  5 11  1  0  0  0  0
  5 15  1  0  0  0  0
  8 14  1  0  0  0  0
  9  3  2  0  0  0  0
  9  6  1  0  0  0  0
 10 13  1  0  0  0  0
 10  2  1  0  0  0  0
 11  4  1  0  0  0  0
 12  1  1  0  0  0  0
 12 32  1  1  0  0  0
 13 17  1  1  0  0  0
 13  9  1  0  0  0  0
 14 12  1  0  0  0  0
 14  7  1  0  0  0  0
 15 14  1  0  0  0  0
 16 17  1  0  0  0  0
 18 16  1  0  0  0  0
 18 17  1  0  0  0  0
 20 19  1  0  0  0  0
 21 15  1  0  0  0  0
 21 22  1  0  0  0  0
 22 23  1  0  0  0  0
 23 26  1  0  0  0  0
 24 25  1  0  0  0  0
 26 24  1  0  0  0  0
 26 25  1  0  0  0  0
 26 27  1  0  0  0  0
 27 28  1  0  0  0  0
 28 29  1  0  0  0  0
 29 31  1  0  0  0  0
 31 30  2  0  0  0  0
 32 37  1  0  0  0  0
 33 38  1  0  0  0  0
 34 38  2  0  0  0  0
 35 34  1  0  0  0  0
 36 33  2  0  0  0  0
 37 35  2  0  0  0  0
 37 36  1  0  0  0  0
 38 40  1  0  0  0  0
 40 39  1  0  0  0  0
 41 35  1  0  0  0  0
 42 44  1  0  0  0  0
 42 43  1  0  0  0  0
 43 41  1  0  0  0  0
 44 43  1  0  0  0  0
M  END
>  <MODEL>
1

>  <REMARK>
 VINA RESULT:      -5.4      0.000      0.000
  Name = 
  15 active torsions:
  status: ('A' for Active; 'I' for Inactive)
    1  A    between atoms: O_5  and  C_23
    2  A    between atoms: O_5  and  C_35
    3  A    between atoms: O_7  and  C_35
    4  A    between atoms: O_7  and  C_41
    5  A    between atoms: C_11  and  C_19
    6  A    between atoms: C_11  and  N_42
    7  A    between atoms: C_12  and  C_36
    8  A    between atoms: C_14  and  C_18
    9  A    between atoms: C_16  and  C_19
   10  A    between atoms: C_16  and  C_23
   11  A    between atoms: C_21  and  C_32
   12  A    between atoms: C_21  and  C_34
   13  A    between atoms: O_25  and  C_38
   14  A    between atoms: C_29  and  O_43
   15  A    between atoms: C_33  and  O_43
                            x       y       z     vdW  Elec       q    Type
                         _______ _______ _______ _____ _____    ______ ____

>  <TORSDO>
F 15

$$$$
=
 OpenBabel10232407583D

 44 49  0  0  1  0  0  0  0  0999 V2000
  188.5780  175.3440  136.9360 O   0  0  0  0  0  0  0  0  0  0  0  0
  184.9260  170.3500  134.7040 N   0  0  0  0  0  2  0  0  0  0  0  0
  185.9480  173.4270  135.9480 C   0  0  0  0  0  0  0  0  0  0  0  0
  188.0660  174.6100  135.8590 C   0  0  0  0  0  2  0  0  0  0  0  0
  185.7770  175.8430  135.9670 C   0  0  1  0  0  3  0  0  0  0  0  0
  185.9500  171.0630  135.4590 C   0  0  0  0  0  2  0  0  0  0  0  0
  187.7040  177.6810  138.6830 C   0  0  0  0  0  1  0  0  0  0  0  0
  187.1350  178.7690  136.5410 C   0  0  0  0  0  1  0  0  0  0  0  0
  185.3140  172.2870  135.9870 C   0  0  0  0  0  0  0  0  0  0  0  0
  183.6360  170.8710  135.1550 C   0  0  0  0  0  2  0  0  0  0  0  0
  186.5710  174.5740  135.9200 C   0  0  0  0  0  0  0  0  0  0  0  0
  188.5000  176.6830  136.5300 C   0  0  1  0  0  3  0  0  0  0  0  0
  183.8560  172.2430  135.7650 C   0  0  1  0  0  3  0  0  0  0  0  0
  187.3260  177.4150  137.2260 C   0  0  0  0  0  0  0  0  0  0  0  0
  186.0750  176.5960  137.2030 N   0  0  0  0  0  0  0  0  0  0  0  0
  182.0770  173.4610  136.9960 C   0  0  0  0  0  2  0  0  0  0  0  0
  183.1080  172.3510  137.0840 C   0  0  0  0  0  3  0  0  0  0  0  0
  181.6450  172.0150  136.8620 C   0  0  0  0  0  2  0  0  0  0  0  0
  185.9210  176.6510  134.6770 C   0  0  0  0  0  2  0  0  0  0  0  0
  184.6600  177.2930  134.3490 N   0  0  0  0  0  1  0  0  0  0  0  0
  184.8820  177.3510  137.5900 C   0  0  0  0  0  2  0  0  0  0  0  0
  183.6890  176.4200  137.7070 C   0  0  0  0  0  2  0  0  0  0  0  0
  182.4270  177.2000  138.0430 C   0  0  0  0  0  2  0  0  0  0  0  0
  181.0850  175.9900  139.9970 C   0  0  0  0  0  2  0  0  0  0  0  0
  180.5730  177.3840  139.6950 C   0  0  0  0  0  2  0  0  0  0  0  0
  182.0430  177.0700  139.5150 C   0  0  0  0  0  0  0  0  0  0  0  0
  182.8030  177.7730  140.4610 O   0  0  0  0  0  0  0  0  0  0  0  0
  182.7930  179.1200  140.0730 C   0  0  0  0  0  2  0  0  0  0  0  0
  184.1230  179.6140  140.0470 O   0  0  0  0  0  0  0  0  0  0  0  0
  185.3240  179.5350  142.0230 O   0  0  0  0  0  0  0  0  0  0  0  0
  185.1220  179.0870  140.8640 C   0  0  0  0  0  3  0  0  0  0  0  0
  189.8530  177.3770  136.6990 C   0  0  0  0  0  2  0  0  0  0  0  0
  192.5510  175.0810  135.4290 C   0  0  0  0  0  3  0  0  0  0  0  0
  192.4640  174.8220  137.8250 C   0  0  0  0  0  3  0  0  0  0  0  0
  191.4380  175.7690  137.9190 C   0  0  0  0  0  0  0  0  0  0  0  0
  191.5250  176.0230  135.4980 C   0  0  0  0  0  3  0  0  0  0  0  0
  190.9570  176.3740  136.7270 C   0  0  0  0  0  0  0  0  0  0  0  0
  193.0260  174.4750  136.5900 C   0  0  0  0  0  0  0  0  0  0  0  0
  193.8150  172.1360  136.4110 C   0  0  0  0  0  1  0  0  0  0  0  0
  194.0580  173.5350  136.4940 O   0  0  0  0  0  0  0  0  0  0  0  0
  190.9680  176.0630  139.2110 O   0  0  0  0  0  0  0  0  0  0  0  0
  190.5560  177.1980  141.2780 C   0  0  0  0  0  2  0  0  0  0  0  0
  190.9910  177.3400  139.8320 C   0  0  0  0  0  3  0  0  0  0  0  0
  192.0260  177.3440  140.9410 C   0  0  0  0  0  2  0  0  0  0  0  0
  2 10  1  0  0  0  0
  2  6  1  0  0  0  0
  3  9  2  0  0  0  0
  4 11  1  0  0  0  0
  4  1  1  0  0  0  0
  5 19  1  6  0  0  0
  5 15  1  0  0  0  0
  6  9  1  0  0  0  0
  8 14  1  0  0  0  0
 10 13  1  0  0  0  0
 11  3  2  0  0  0  0
 11  5  1  0  0  0  0
 12 32  1  1  0  0  0
 12  1  1  0  0  0  0
 12 14  1  0  0  0  0
 13  9  1  0  0  0  0
 13 17  1  1  0  0  0
 14  7  1  0  0  0  0
 15 14  1  0  0  0  0
 15 21  1  0  0  0  0
 16 17  1  0  0  0  0
 18 16  1  0  0  0  0
 18 17  1  0  0  0  0
 20 19  1  0  0  0  0
 21 22  1  0  0  0  0
 22 23  1  0  0  0  0
 23 26  1  0  0  0  0
 25 24  1  0  0  0  0
 26 25  1  0  0  0  0
 26 24  1  0  0  0  0
 26 27  1  0  0  0  0
 28 27  1  0  0  0  0
 29 28  1  0  0  0  0
 29 31  1  0  0  0  0
 31 30  2  0  0  0  0
 32 37  1  0  0  0  0
 33 36  2  0  0  0  0
 33 38  1  0  0  0  0
 34 35  1  0  0  0  0
 35 41  1  0  0  0  0
 36 37  1  0  0  0  0
 37 35  2  0  0  0  0
 38 34  2  0  0  0  0
 39 40  1  0  0  0  0
 40 38  1  0  0  0  0
 41 43  1  0  0  0  0
 43 44  1  0  0  0  0
 43 42  1  0  0  0  0
 44 42  1  0  0  0  0
M  END
>  <MODEL>
2

>  <REMARK>
 VINA RESULT:      -5.3      1.694      3.297
  Name = 
  15 active torsions:
  status: ('A' for Active; 'I' for Inactive)
    1  A    between atoms: O_5  and  C_23
    2  A    between atoms: O_5  and  C_35
    3  A    between atoms: O_7  and  C_35
    4  A    between atoms: O_7  and  C_41
    5  A    between atoms: C_11  and  C_19
    6  A    between atoms: C_11  and  N_42
    7  A    between atoms: C_12  and  C_36
    8  A    between atoms: C_14  and  C_18
    9  A    between atoms: C_16  and  C_19
   10  A    between atoms: C_16  and  C_23
   11  A    between atoms: C_21  and  C_32
   12  A    between atoms: C_21  and  C_34
   13  A    between atoms: O_25  and  C_38
   14  A    between atoms: C_29  and  O_43
   15  A    between atoms: C_33  and  O_43
                            x       y       z     vdW  Elec       q    Type
                         _______ _______ _______ _____ _____    ______ ____

>  <TORSDO>
F 15

$$$$
=
 OpenBabel10232407583D

 44 49  0  0  1  0  0  0  0  0999 V2000
  187.3790  175.4450  137.2800 O   0  0  0  0  0  0  0  0  0  0  0  0
  188.1670  178.3570  143.1240 N   0  0  0  0  0  2  0  0  0  0  0  0
  188.7160  177.0940  139.9360 C   0  0  0  0  0  0  0  0  0  0  0  0
  187.2180  176.5680  138.0990 C   0  0  0  0  0  2  0  0  0  0  0  0
  189.6800  177.3260  137.7260 C   0  0  1  0  0  3  0  0  0  0  0  0
  187.7600  177.3630  142.1360 C   0  0  0  0  0  2  0  0  0  0  0  0
  189.5210  174.2800  135.4530 C   0  0  0  0  0  1  0  0  0  0  0  0
  189.6570  176.5700  134.5380 C   0  0  0  0  0  1  0  0  0  0  0  0
  188.9070  177.1770  141.2250 C   0  0  0  0  0  0  0  0  0  0  0  0
  189.6280  178.4030  143.0920 C   0  0  0  0  0  2  0  0  0  0  0  0
  188.5420  177.0060  138.6460 C   0  0  0  0  0  0  0  0  0  0  0  0
  187.7560  175.9600  136.0320 C   0  0  1  0  0  3  0  0  0  0  0  0
  190.0990  177.8670  141.7540 C   0  0  1  0  0  3  0  0  0  0  0  0
  189.2690  175.7540  135.7720 C   0  0  0  0  0  0  0  0  0  0  0  0
  190.0880  176.1260  136.9670 N   0  0  0  0  0  0  0  0  0  0  0  0
  191.7060  176.9390  143.4040 C   0  0  0  0  0  2  0  0  0  0  0  0
  191.2400  176.8850  141.9600 C   0  0  0  0  0  3  0  0  0  0  0  0
  190.8090  175.8090  142.9400 C   0  0  0  0  0  2  0  0  0  0  0  0
  189.3840  178.5560  136.8660 C   0  0  0  0  0  2  0  0  0  0  0  0
  188.9210  179.6490  137.7040 N   0  0  0  0  0  1  0  0  0  0  0  0
  191.5210  176.2190  136.6800 C   0  0  0  0  0  2  0  0  0  0  0  0
  192.3270  175.8390  137.9090 C   0  0  0  0  0  2  0  0  0  0  0  0
  192.8970  174.4360  137.7680 C   0  0  0  0  0  2  0  0  0  0  0  0
  194.5430  173.9100  135.7450 C   0  0  0  0  0  2  0  0  0  0  0  0
  194.7720  173.0180  136.9480 C   0  0  0  0  0  2  0  0  0  0  0  0
  194.2920  174.4400  137.1490 C   0  0  0  0  0  0  0  0  0  0  0  0
  195.2920  175.1990  137.7750 O   0  0  0  0  0  0  0  0  0  0  0  0
  195.6280  174.5310  138.9610 C   0  0  0  0  0  2  0  0  0  0  0  0
  197.0160  174.6870  139.2140 O   0  0  0  0  0  0  0  0  0  0  0  0
  197.0980  176.3500  140.8210 O   0  0  0  0  0  0  0  0  0  0  0  0
  197.4920  175.2280  140.4070 C   0  0  0  0  0  3  0  0  0  0  0  0
  186.8560  175.4060  134.9260 C   0  0  0  0  0  2  0  0  0  0  0  0
  185.4420  172.0470  135.8650 C   0  0  0  0  0  3  0  0  0  0  0  0
  183.8320  173.7110  136.5370 C   0  0  0  0  0  3  0  0  0  0  0  0
  184.6580  174.7400  136.0720 C   0  0  0  0  0  0  0  0  0  0  0  0
  186.2790  173.0550  135.3880 C   0  0  0  0  0  3  0  0  0  0  0  0
  185.9040  174.3990  135.4790 C   0  0  0  0  0  0  0  0  0  0  0  0
  184.2140  172.3680  136.4410 C   0  0  0  0  0  0  0  0  0  0  0  0
  182.4150  170.7030  136.1000 C   0  0  0  0  0  1  0  0  0  0  0  0
  183.3950  171.3370  136.9140 O   0  0  0  0  0  0  0  0  0  0  0  0
  184.1880  176.0540  136.2460 O   0  0  0  0  0  0  0  0  0  0  0  0
  183.8490  177.9340  137.6870 C   0  0  0  0  0  2  0  0  0  0  0  0
  183.4190  176.5200  137.3450 C   0  0  0  0  0  3  0  0  0  0  0  0
  182.5730  177.7000  136.9050 C   0  0  0  0  0  2  0  0  0  0  0  0
  1  4  1  0  0  0  0
  3  9  2  0  0  0  0
  4 11  1  0  0  0  0
  5 19  1  6  0  0  0
  5 11  1  0  0  0  0
  6  2  1  0  0  0  0
  7 14  1  0  0  0  0
  8 14  1  0  0  0  0
  9 13  1  0  0  0  0
  9  6  1  0  0  0  0
 10  2  1  0  0  0  0
 11  3  2  0  0  0  0
 12 32  1  6  0  0  0
 12  1  1  0  0  0  0
 13 17  1  1  0  0  0
 13 10  1  0  0  0  0
 14 12  1  0  0  0  0
 14 15  1  0  0  0  0
 15  5  1  0  0  0  0
 17 18  1  0  0  0  0
 17 16  1  0  0  0  0
 18 16  1  0  0  0  0
 19 20  1  0  0  0  0
 21 15  1  0  0  0  0
 21 22  1  0  0  0  0
 23 22  1  0  0  0  0
 24 25  1  0  0  0  0
 24 26  1  0  0  0  0
 25 26  1  0  0  0  0
 26 23  1  0  0  0  0
 26 27  1  0  0  0  0
 27 28  1  0  0  0  0
 28 29  1  0  0  0  0
 29 31  1  0  0  0  0
 31 30  2  0  0  0  0
 32 37  1  0  0  0  0
 33 38  1  0  0  0  0
 35 41  1  0  0  0  0
 35 34  1  0  0  0  0
 36 37  1  0  0  0  0
 36 33  2  0  0  0  0
 37 35  2  0  0  0  0
 38 34  2  0  0  0  0
 38 40  1  0  0  0  0
 39 40  1  0  0  0  0
 41 43  1  0  0  0  0
 43 42  1  0  0  0  0
 44 43  1  0  0  0  0
 44 42  1  0  0  0  0
M  END
>  <MODEL>
3

>  <REMARK>
 VINA RESULT:      -5.2      2.822      9.275
  Name = 
  15 active torsions:
  status: ('A' for Active; 'I' for Inactive)
    1  A    between atoms: O_5  and  C_23
    2  A    between atoms: O_5  and  C_35
    3  A    between atoms: O_7  and  C_35
    4  A    between atoms: O_7  and  C_41
    5  A    between atoms: C_11  and  C_19
    6  A    between atoms: C_11  and  N_42
    7  A    between atoms: C_12  and  C_36
    8  A    between atoms: C_14  and  C_18
    9  A    between atoms: C_16  and  C_19
   10  A    between atoms: C_16  and  C_23
   11  A    between atoms: C_21  and  C_32
   12  A    between atoms: C_21  and  C_34
   13  A    between atoms: O_25  and  C_38
   14  A    between atoms: C_29  and  O_43
   15  A    between atoms: C_33  and  O_43
                            x       y       z     vdW  Elec       q    Type
                         _______ _______ _______ _____ _____    ______ ____

>  <TORSDO>
F 15

$$$$
=
 OpenBabel10232407583D

 44 49  0  0  1  0  0  0  0  0999 V2000
  191.7980  174.0000  135.6010 O   0  0  0  0  0  0  0  0  0  0  0  0
  194.0220  167.9160  136.7380 N   0  0  0  0  0  2  0  0  0  0  0  0
  193.8360  171.3330  136.1500 C   0  0  0  0  0  0  0  0  0  0  0  0
  192.0730  172.9650  136.5020 C   0  0  0  0  0  2  0  0  0  0  0  0
  194.5970  173.5850  136.6140 C   0  0  1  0  0  3  0  0  0  0  0  0
  193.2340  168.9960  136.1550 C   0  0  0  0  0  2  0  0  0  0  0  0
  193.2870  176.3440  134.3470 C   0  0  0  0  0  1  0  0  0  0  0  0
  194.0250  176.8110  136.6570 C   0  0  0  0  0  1  0  0  0  0  0  0
  194.1710  170.1020  135.8750 C   0  0  0  0  0  0  0  0  0  0  0  0
  195.4160  168.1780  136.3850 C   0  0  0  0  0  2  0  0  0  0  0  0
  193.5150  172.5700  136.4160 C   0  0  0  0  0  0  0  0  0  0  0  0
  192.1880  175.1700  136.2660 C   0  0  1  0  0  3  0  0  0  0  0  0
  195.5630  169.6540  136.0650 C   0  0  1  0  0  3  0  0  0  0  0  0
  193.5320  175.7100  135.7160 C   0  0  0  0  0  0  0  0  0  0  0  0
  194.5410  174.6180  135.5580 N   0  0  0  0  0  0  0  0  0  0  0  0
  196.9450  171.2320  134.7360 C   0  0  0  0  0  2  0  0  0  0  0  0
  196.3640  169.8310  134.7860 C   0  0  0  0  0  3  0  0  0  0  0  0
  197.8230  170.0620  135.1320 C   0  0  0  0  0  2  0  0  0  0  0  0
  194.6080  174.1330  138.0420 C   0  0  0  0  0  2  0  0  0  0  0  0
  195.3780  173.2530  138.9060 N   0  0  0  0  0  1  0  0  0  0  0  0
  195.8970  175.1130  135.3150 C   0  0  0  0  0  2  0  0  0  0  0  0
  196.9120  174.2150  135.9970 C   0  0  0  0  0  2  0  0  0  0  0  0
  198.1830  174.9840  136.3210 C   0  0  0  0  0  2  0  0  0  0  0  0
  199.8220  172.9110  136.6350 C   0  0  0  0  0  2  0  0  0  0  0  0
  198.5590  172.8050  137.4650 C   0  0  0  0  0  2  0  0  0  0  0  0
  199.1520  174.1670  137.1720 C   0  0  0  0  0  0  0  0  0  0  0  0
  199.6390  174.7420  138.3560 O   0  0  0  0  0  0  0  0  0  0  0  0
  198.5250  175.0550  139.1460 C   0  0  0  0  0  2  0  0  0  0  0  0
  198.8690  174.9330  140.5170 O   0  0  0  0  0  0  0  0  0  0  0  0
  198.3760  175.3270  142.7430 O   0  0  0  0  0  0  0  0  0  0  0  0
  198.0460  175.4190  141.5310 C   0  0  0  0  0  3  0  0  0  0  0  0
  191.0560  176.1990  136.2570 C   0  0  0  0  0  2  0  0  0  0  0  0
  191.3890  176.9150  139.9370 C   0  0  0  0  0  3  0  0  0  0  0  0
  189.0510  177.1120  139.3810 C   0  0  0  0  0  3  0  0  0  0  0  0
  189.3150  176.8140  138.0400 C   0  0  0  0  0  0  0  0  0  0  0  0
  191.6750  176.6100  138.6070 C   0  0  0  0  0  3  0  0  0  0  0  0
  190.6560  176.5510  137.6510 C   0  0  0  0  0  0  0  0  0  0  0  0
  190.0770  177.1670  140.3330 C   0  0  0  0  0  0  0  0  0  0  0  0
  189.0660  176.6160  142.5230 C   0  0  0  0  0  1  0  0  0  0  0  0
  189.8180  177.4740  141.6730 O   0  0  0  0  0  0  0  0  0  0  0  0
  188.2140  176.8150  137.1650 O   0  0  0  0  0  0  0  0  0  0  0  0
  186.3420  177.8410  136.0830 C   0  0  0  0  0  2  0  0  0  0  0  0
  186.9630  177.4410  137.4080 C   0  0  0  0  0  3  0  0  0  0  0  0
  185.8530  176.6020  136.8030 C   0  0  0  0  0  2  0  0  0  0  0  0
  1 12  1  0  0  0  0
  1  4  1  0  0  0  0
  3 11  2  0  0  0  0
  5 19  1  1  0  0  0
  6  2  1  0  0  0  0
  7 14  1  0  0  0  0
  9 13  1  0  0  0  0
  9  3  2  0  0  0  0
  9  6  1  0  0  0  0
 10  2  1  0  0  0  0
 11  4  1  0  0  0  0
 11  5  1  0  0  0  0
 12 32  1  6  0  0  0
 13 17  1  6  0  0  0
 13 10  1  0  0  0  0
 14 12  1  0  0  0  0
 14  8  1  0  0  0  0
 15 14  1  0  0  0  0
 15  5  1  0  0  0  0
 16 17  1  0  0  0  0
 16 18  1  0  0  0  0
 17 18  1  0  0  0  0
 19 20  1  0  0  0  0
 21 15  1  0  0  0  0
 21 22  1  0  0  0  0
 22 23  1  0  0  0  0
 23 26  1  0  0  0  0
 24 26  1  0  0  0  0
 24 25  1  0  0  0  0
 26 25  1  0  0  0  0
 26 27  1  0  0  0  0
 27 28  1  0  0  0  0
 28 29  1  0  0  0  0
 29 31  1  0  0  0  0
 31 30  2  0  0  0  0
 32 37  1  0  0  0  0
 33 38  1  0  0  0  0
 34 38  2  0  0  0  0
 35 34  1  0  0  0  0
 36 33  2  0  0  0  0
 37 35  2  0  0  0  0
 37 36  1  0  0  0  0
 38 40  1  0  0  0  0
 40 39  1  0  0  0  0
 41 43  1  0  0  0  0
 41 35  1  0  0  0  0
 42 44  1  0  0  0  0
 42 43  1  0  0  0  0
 44 43  1  0  0  0  0
M  END
>  <MODEL>
4

>  <REMARK>
 VINA RESULT:      -5.1      4.971      9.989
  Name = 
  15 active torsions:
  status: ('A' for Active; 'I' for Inactive)
    1  A    between atoms: O_5  and  C_23
    2  A    between atoms: O_5  and  C_35
    3  A    between atoms: O_7  and  C_35
    4  A    between atoms: O_7  and  C_41
    5  A    between atoms: C_11  and  C_19
    6  A    between atoms: C_11  and  N_42
    7  A    between atoms: C_12  and  C_36
    8  A    between atoms: C_14  and  C_18
    9  A    between atoms: C_16  and  C_19
   10  A    between atoms: C_16  and  C_23
   11  A    between atoms: C_21  and  C_32
   12  A    between atoms: C_21  and  C_34
   13  A    between atoms: O_25  and  C_38
   14  A    between atoms: C_29  and  O_43
   15  A    between atoms: C_33  and  O_43
                            x       y       z     vdW  Elec       q    Type
                         _______ _______ _______ _____ _____    ______ ____

>  <TORSDO>
F 15

$$$$
=
 OpenBabel10232407583D

 44 49  0  0  1  0  0  0  0  0999 V2000
  188.0060  176.3010  138.4650 O   0  0  0  0  0  0  0  0  0  0  0  0
  188.2500  170.4260  135.5200 N   0  0  0  0  0  2  0  0  0  0  0  0
  187.4960  173.7220  136.3080 C   0  0  0  0  0  0  0  0  0  0  0  0
  188.6620  175.4060  137.6120 C   0  0  0  0  0  2  0  0  0  0  0  0
  187.1130  176.0100  135.6100 C   0  0  1  0  0  3  0  0  0  0  0  0
  188.1540  171.4170  136.5860 C   0  0  0  0  0  2  0  0  0  0  0  0
  185.8290  178.4220  138.2570 C   0  0  0  0  0  1  0  0  0  0  0  0
  187.1100  179.2130  136.3000 C   0  0  0  0  0  1  0  0  0  0  0  0
  187.2230  172.4610  136.1120 C   0  0  0  0  0  0  0  0  0  0  0  0
  187.0820  170.6190  134.6630 C   0  0  0  0  0  2  0  0  0  0  0  0
  187.7510  174.9880  136.4990 C   0  0  0  0  0  0  0  0  0  0  0  0
  188.1410  177.5520  137.8480 C   0  0  1  0  0  3  0  0  0  0  0  0
  186.5640  172.0310  134.8640 C   0  0  1  0  0  3  0  0  0  0  0  0
  186.8170  177.9920  137.1730 C   0  0  0  0  0  0  0  0  0  0  0  0
  186.2030  176.8780  136.3870 N   0  0  0  0  0  0  0  0  0  0  0  0
  184.6540  172.9450  136.1610 C   0  0  0  0  0  2  0  0  0  0  0  0
  185.0540  172.0110  135.0340 C   0  0  0  0  0  3  0  0  0  0  0  0
  184.4940  173.3870  134.7210 C   0  0  0  0  0  2  0  0  0  0  0  0
  188.1490  176.7590  134.7720 C   0  0  0  0  0  2  0  0  0  0  0  0
  189.1990  175.8480  134.3480 N   0  0  0  0  0  1  0  0  0  0  0  0
  185.1160  177.3190  135.5110 C   0  0  0  0  0  2  0  0  0  0  0  0
  183.8340  176.5850  135.8570 C   0  0  0  0  0  2  0  0  0  0  0  0
  182.8450  177.5170  136.5400 C   0  0  0  0  0  2  0  0  0  0  0  0
  182.9940  176.1120  138.7940 C   0  0  0  0  0  2  0  0  0  0  0  0
  182.3130  175.3620  137.6680 C   0  0  0  0  0  2  0  0  0  0  0  0
  182.1830  176.8690  137.7520 C   0  0  0  0  0  0  0  0  0  0  0  0
  180.8570  177.2190  138.0490 O   0  0  0  0  0  0  0  0  0  0  0  0
  180.6290  178.4760  137.4720 C   0  0  0  0  0  2  0  0  0  0  0  0
  180.3860  179.4280  138.4960 O   0  0  0  0  0  0  0  0  0  0  0  0
  182.5300  180.1780  138.9400 O   0  0  0  0  0  0  0  0  0  0  0  0
  181.3910  179.8490  139.3650 C   0  0  0  0  0  3  0  0  0  0  0  0
  188.7090  178.5800  138.8280 C   0  0  0  0  0  2  0  0  0  0  0  0
  190.7260  176.6550  141.3570 C   0  0  0  0  0  3  0  0  0  0  0  0
  188.6380  177.2460  142.4100 C   0  0  0  0  0  3  0  0  0  0  0  0
  188.2090  177.9070  141.2540 C   0  0  0  0  0  0  0  0  0  0  0  0
  190.3170  177.3040  140.1920 C   0  0  0  0  0  3  0  0  0  0  0  0
  189.0680  177.9280  140.1210 C   0  0  0  0  0  0  0  0  0  0  0  0
  189.8900  176.6210  142.4710 C   0  0  0  0  0  0  0  0  0  0  0  0
  191.6550  176.0880  144.1220 C   0  0  0  0  0  1  0  0  0  0  0  0
  190.3260  175.9670  143.6290 O   0  0  0  0  0  0  0  0  0  0  0  0
  186.9470  178.5240  141.3120 O   0  0  0  0  0  0  0  0  0  0  0  0
  185.2800  179.4090  142.7840 C   0  0  0  0  0  2  0  0  0  0  0  0
  185.8840  178.1560  142.1790 C   0  0  0  0  0  3  0  0  0  0  0  0
  184.5780  178.7100  141.6390 C   0  0  0  0  0  2  0  0  0  0  0  0
  2  6  1  0  0  0  0
  3 11  2  0  0  0  0
  4  1  1  0  0  0  0
  5 19  1  1  0  0  0
  5 15  1  0  0  0  0
  5 11  1  0  0  0  0
  8 14  1  0  0  0  0
  9  3  2  0  0  0  0
  9  6  1  0  0  0  0
 10 13  1  0  0  0  0
 10  2  1  0  0  0  0
 11  4  1  0  0  0  0
 12  1  1  0  0  0  0
 12 32  1  1  0  0  0
 13 17  1  1  0  0  0
 13  9  1  0  0  0  0
 14 12  1  0  0  0  0
 14  7  1  0  0  0  0
 15 14  1  0  0  0  0
 17 16  1  0  0  0  0
 18 17  1  0  0  0  0
 18 16  1  0  0  0  0
 20 19  1  0  0  0  0
 21 22  1  0  0  0  0
 21 15  1  0  0  0  0
 22 23  1  0  0  0  0
 23 26  1  0  0  0  0
 25 26  1  0  0  0  0
 25 24  1  0  0  0  0
 26 27  1  0  0  0  0
 26 24  1  0  0  0  0
 28 27  1  0  0  0  0
 28 29  1  0  0  0  0
 29 31  1  0  0  0  0
 30 31  2  0  0  0  0
 32 37  1  0  0  0  0
 33 38  1  0  0  0  0
 34 38  2  0  0  0  0
 35 41  1  0  0  0  0
 35 34  1  0  0  0  0
 36 33  2  0  0  0  0
 37 36  1  0  0  0  0
 37 35  2  0  0  0  0
 38 40  1  0  0  0  0
 40 39  1  0  0  0  0
 41 43  1  0  0  0  0
 43 42  1  0  0  0  0
 44 43  1  0  0  0  0
 44 42  1  0  0  0  0
M  END
>  <MODEL>
5

>  <REMARK>
 VINA RESULT:      -5.0      1.618      3.162
  Name = 
  15 active torsions:
  status: ('A' for Active; 'I' for Inactive)
    1  A    between atoms: O_5  and  C_23
    2  A    between atoms: O_5  and  C_35
    3  A    between atoms: O_7  and  C_35
    4  A    between atoms: O_7  and  C_41
    5  A    between atoms: C_11  and  C_19
    6  A    between atoms: C_11  and  N_42
    7  A    between atoms: C_12  and  C_36
    8  A    between atoms: C_14  and  C_18
    9  A    between atoms: C_16  and  C_19
   10  A    between atoms: C_16  and  C_23
   11  A    between atoms: C_21  and  C_32
   12  A    between atoms: C_21  and  C_34
   13  A    between atoms: O_25  and  C_38
   14  A    between atoms: C_29  and  O_43
   15  A    between atoms: C_33  and  O_43
                            x       y       z     vdW  Elec       q    Type
                         _______ _______ _______ _____ _____    ______ ____

>  <TORSDO>
F 15

$$$$
=
 OpenBabel10232407583D

 44 49  0  0  1  0  0  0  0  0999 V2000
  187.2890  175.6930  137.1930 O   0  0  0  0  0  0  0  0  0  0  0  0
  188.1130  178.4370  143.1120 N   0  0  0  0  0  2  0  0  0  0  0  0
  188.6510  177.2390  139.8980 C   0  0  0  0  0  0  0  0  0  0  0  0
  187.1530  176.8000  138.0390 C   0  0  0  0  0  2  0  0  0  0  0  0
  189.6360  177.5000  137.7000 C   0  0  1  0  0  3  0  0  0  0  0  0
  187.6870  177.4800  142.0980 C   0  0  0  0  0  2  0  0  0  0  0  0
  189.4120  174.5160  135.3510 C   0  0  0  0  0  1  0  0  0  0  0  0
  189.6150  176.8240  134.4940 C   0  0  0  0  0  1  0  0  0  0  0  0
  188.8350  177.2860  141.1900 C   0  0  0  0  0  0  0  0  0  0  0  0
  189.5750  178.4450  143.0910 C   0  0  0  0  0  2  0  0  0  0  0  0
  188.4840  177.1880  138.6040 C   0  0  0  0  0  0  0  0  0  0  0  0
  187.6880  176.2280  135.9610 C   0  0  1  0  0  3  0  0  0  0  0  0
  190.0410  177.9300  141.7430 C   0  0  1  0  0  3  0  0  0  0  0  0
  189.1970  175.9880  135.7060 C   0  0  0  0  0  0  0  0  0  0  0  0
  190.0180  176.3080  136.9150 N   0  0  0  0  0  0  0  0  0  0  0  0
  191.6130  176.9200  143.3790 C   0  0  0  0  0  2  0  0  0  0  0  0
  191.1540  176.9130  141.9320 C   0  0  0  0  0  3  0  0  0  0  0  0
  190.6880  175.8260  142.8840 C   0  0  0  0  0  2  0  0  0  0  0  0
  189.3790  178.7580  136.8690 C   0  0  0  0  0  2  0  0  0  0  0  0
  188.9110  179.8340  137.7260 N   0  0  0  0  0  1  0  0  0  0  0  0
  191.4540  176.3700  136.6390 C   0  0  0  0  0  2  0  0  0  0  0  0
  192.2360  175.8000  137.8080 C   0  0  0  0  0  2  0  0  0  0  0  0
  192.7660  174.4130  137.4780 C   0  0  0  0  0  2  0  0  0  0  0  0
  194.5630  174.2960  135.5190 C   0  0  0  0  0  2  0  0  0  0  0  0
  194.6070  173.0950  136.4420 C   0  0  0  0  0  2  0  0  0  0  0  0
  194.2130  174.4490  136.9920 C   0  0  0  0  0  0  0  0  0  0  0  0
  195.1980  174.9110  137.8780 O   0  0  0  0  0  0  0  0  0  0  0  0
  195.4210  173.8880  138.8090 C   0  0  0  0  0  2  0  0  0  0  0  0
  196.7550  173.9660  139.2870 O   0  0  0  0  0  0  0  0  0  0  0  0
  198.3560  175.6000  138.9370 O   0  0  0  0  0  0  0  0  0  0  0  0
  197.7720  174.5570  138.5400 C   0  0  0  0  0  3  0  0  0  0  0  0
  186.7820  175.7260  134.8350 C   0  0  0  0  0  2  0  0  0  0  0  0
  183.3890  176.8930  135.9740 C   0  0  0  0  0  3  0  0  0  0  0  0
  183.3510  174.4810  135.9740 C   0  0  0  0  0  3  0  0  0  0  0  0
  184.6730  174.4320  135.5180 C   0  0  0  0  0  0  0  0  0  0  0  0
  184.7090  176.8680  135.5250 C   0  0  0  0  0  3  0  0  0  0  0  0
  185.3640  175.6540  135.2970 C   0  0  0  0  0  0  0  0  0  0  0  0
  182.7020  175.7020  136.2020 C   0  0  0  0  0  0  0  0  0  0  0  0
  180.5560  174.5990  136.7480 C   0  0  0  0  0  1  0  0  0  0  0  0
  181.3780  175.7550  136.6490 O   0  0  0  0  0  0  0  0  0  0  0  0
  185.2150  173.1540  135.2950 O   0  0  0  0  0  0  0  0  0  0  0  0
  186.5740  171.2450  135.7830 C   0  0  0  0  0  2  0  0  0  0  0  0
  185.5040  172.1900  136.2960 C   0  0  0  0  0  3  0  0  0  0  0  0
  186.9420  172.3500  136.7510 C   0  0  0  0  0  2  0  0  0  0  0  0
  1  4  1  0  0  0  0
  3  9  2  0  0  0  0
  4 11  1  0  0  0  0
  5 19  1  6  0  0  0
  5 11  1  0  0  0  0
  6  2  1  0  0  0  0
  7 14  1  0  0  0  0
  8 14  1  0  0  0  0
  9 13  1  0  0  0  0
  9  6  1  0  0  0  0
 10  2  1  0  0  0  0
 11  3  2  0  0  0  0
 12 32  1  6  0  0  0
 12  1  1  0  0  0  0
 13 17  1  1  0  0  0
 13 10  1  0  0  0  0
 14 12  1  0  0  0  0
 14 15  1  0  0  0  0
 15  5  1  0  0  0  0
 17 18  1  0  0  0  0
 17 16  1  0  0  0  0
 18 16  1  0  0  0  0
 19 20  1  0  0  0  0
 21 15  1  0  0  0  0
 21 22  1  0  0  0  0
 23 22  1  0  0  0  0
 24 25  1  0  0  0  0
 24 26  1  0  0  0  0
 25 26  1  0  0  0  0
 26 23  1  0  0  0  0
 26 27  1  0  0  0  0
 27 28  1  0  0  0  0
 28 29  1  0  0  0  0
 31 30  2  0  0  0  0
 31 29  1  0  0  0  0
 32 37  1  0  0  0  0
 33 38  1  0  0  0  0
 34 38  2  0  0  0  0
 35 34  1  0  0  0  0
 36 33  2  0  0  0  0
 37 35  2  0  0  0  0
 37 36  1  0  0  0  0
 38 40  1  0  0  0  0
 40 39  1  0  0  0  0
 41 35  1  0  0  0  0
 41 43  1  0  0  0  0
 42 43  1  0  0  0  0
 42 44  1  0  0  0  0
 43 44  1  0  0  0  0
M  END
>  <MODEL>
6

>  <REMARK>
 VINA RESULT:      -4.9      2.931      9.252
  Name = 
  15 active torsions:
  status: ('A' for Active; 'I' for Inactive)
    1  A    between atoms: O_5  and  C_23
    2  A    between atoms: O_5  and  C_35
    3  A    between atoms: O_7  and  C_35
    4  A    between atoms: O_7  and  C_41
    5  A    between atoms: C_11  and  C_19
    6  A    between atoms: C_11  and  N_42
    7  A    between atoms: C_12  and  C_36
    8  A    between atoms: C_14  and  C_18
    9  A    between atoms: C_16  and  C_19
   10  A    between atoms: C_16  and  C_23
   11  A    between atoms: C_21  and  C_32
   12  A    between atoms: C_21  and  C_34
   13  A    between atoms: O_25  and  C_38
   14  A    between atoms: C_29  and  O_43
   15  A    between atoms: C_33  and  O_43
                            x       y       z     vdW  Elec       q    Type
                         _______ _______ _______ _____ _____    ______ ____

>  <TORSDO>
F 15

$$$$
=
 OpenBabel10232407583D

 44 49  0  0  1  0  0  0  0  0999 V2000
  188.0780  175.5830  137.4950 O   0  0  0  0  0  0  0  0  0  0  0  0
  184.5870  170.5950  135.0070 N   0  0  0  0  0  2  0  0  0  0  0  0
  185.5380  173.6940  136.2500 C   0  0  0  0  0  0  0  0  0  0  0  0
  187.6860  174.8170  136.3910 C   0  0  0  0  0  2  0  0  0  0  0  0
  185.4420  176.1130  136.1510 C   0  0  1  0  0  3  0  0  0  0  0  0
  185.5280  171.3120  135.8600 C   0  0  0  0  0  2  0  0  0  0  0  0
  187.0600  178.0160  139.0200 C   0  0  0  0  0  1  0  0  0  0  0  0
  186.8070  179.0250  136.7800 C   0  0  0  0  0  1  0  0  0  0  0  0
  184.8680  172.5740  136.2520 C   0  0  0  0  0  0  0  0  0  0  0  0
  183.2680  171.1690  135.2660 C   0  0  0  0  0  2  0  0  0  0  0  0
  186.1950  174.8230  136.2580 C   0  0  0  0  0  0  0  0  0  0  0  0
  188.0960  176.9040  137.0300 C   0  0  1  0  0  3  0  0  0  0  0  0
  183.4510  172.5590  135.8440 C   0  0  1  0  0  3  0  0  0  0  0  0
  186.8650  177.6970  137.5380 C   0  0  0  0  0  0  0  0  0  0  0  0
  185.6020  176.9110  137.3850 N   0  0  0  0  0  0  0  0  0  0  0  0
  182.3800  174.2240  137.3430 C   0  0  0  0  0  2  0  0  0  0  0  0
  182.5430  172.7440  137.0490 C   0  0  0  0  0  3  0  0  0  0  0  0
  181.2810  173.4710  136.6220 C   0  0  0  0  0  2  0  0  0  0  0  0
  185.7770  176.8600  134.8600 C   0  0  0  0  0  2  0  0  0  0  0  0
  184.5900  177.5220  134.3460 N   0  0  0  0  0  1  0  0  0  0  0  0
  184.3940  177.7130  137.5830 C   0  0  0  0  0  2  0  0  0  0  0  0
  183.6880  177.2890  138.8580 C   0  0  0  0  0  2  0  0  0  0  0  0
  183.3310  178.5010  139.7060 C   0  0  0  0  0  2  0  0  0  0  0  0
  181.1570  178.3920  141.2360 C   0  0  0  0  0  2  0  0  0  0  0  0
  181.2020  177.3010  140.1850 C   0  0  0  0  0  2  0  0  0  0  0  0
  181.8240  178.6510  139.8930 C   0  0  0  0  0  0  0  0  0  0  0  0
  181.0950  179.3060  138.8890 O   0  0  0  0  0  0  0  0  0  0  0  0
  181.9030  180.3480  138.4120 C   0  0  0  0  0  2  0  0  0  0  0  0
  181.0810  181.4070  137.9460 O   0  0  0  0  0  0  0  0  0  0  0  0
  181.2000  183.5560  137.0960 O   0  0  0  0  0  0  0  0  0  0  0  0
  181.4860  182.7390  138.0110 C   0  0  0  0  0  3  0  0  0  0  0  0
  189.4360  177.5700  137.3460 C   0  0  0  0  0  2  0  0  0  0  0  0
  192.0200  175.4660  135.5950 C   0  0  0  0  0  3  0  0  0  0  0  0
  192.2120  175.0130  137.9560 C   0  0  0  0  0  3  0  0  0  0  0  0
  191.1840  175.9180  138.2430 C   0  0  0  0  0  0  0  0  0  0  0  0
  190.9890  176.3680  135.8570 C   0  0  0  0  0  3  0  0  0  0  0  0
  190.5580  176.6020  137.1660 C   0  0  0  0  0  0  0  0  0  0  0  0
  192.6360  174.7830  136.6420 C   0  0  0  0  0  0  0  0  0  0  0  0
  194.5170  173.3430  137.3580 C   0  0  0  0  0  1  0  0  0  0  0  0
  193.6700  173.8860  136.3520 O   0  0  0  0  0  0  0  0  0  0  0  0
  190.8580  176.0930  139.5990 O   0  0  0  0  0  0  0  0  0  0  0  0
  189.8140  177.4620  141.2610 C   0  0  0  0  0  2  0  0  0  0  0  0
  191.0070  177.2950  140.3390 C   0  0  0  0  0  3  0  0  0  0  0  0
  191.1340  176.9670  141.8150 C   0  0  0  0  0  2  0  0  0  0  0  0
  2 10  1  0  0  0  0
  2  6  1  0  0  0  0
  3  9  2  0  0  0  0
  3 11  2  0  0  0  0
  4  1  1  0  0  0  0
  5 19  1  6  0  0  0
  5 11  1  0  0  0  0
  5 15  1  0  0  0  0
  6  9  1  0  0  0  0
  8 14  1  0  0  0  0
 10 13  1  0  0  0  0
 11  4  1  0  0  0  0
 12 32  1  1  0  0  0
 12  1  1  0  0  0  0
 12 14  1  0  0  0  0
 13  9  1  0  0  0  0
 13 17  1  1  0  0  0
 14  7  1  0  0  0  0
 15 14  1  0  0  0  0
 15 21  1  0  0  0  0
 17 16  1  0  0  0  0
 18 17  1  0  0  0  0
 18 16  1  0  0  0  0
 20 19  1  0  0  0  0
 21 22  1  0  0  0  0
 22 23  1  0  0  0  0
 23 26  1  0  0  0  0
 25 24  1  0  0  0  0
 26 25  1  0  0  0  0
 26 24  1  0  0  0  0
 27 26  1  0  0  0  0
 28 27  1  0  0  0  0
 29 31  1  0  0  0  0
 29 28  1  0  0  0  0
 30 31  2  0  0  0  0
 33 36  2  0  0  0  0
 33 38  1  0  0  0  0
 34 35  1  0  0  0  0
 35 41  1  0  0  0  0
 36 37  1  0  0  0  0
 37 32  1  0  0  0  0
 37 35  2  0  0  0  0
 38 34  2  0  0  0  0
 40 38  1  0  0  0  0
 40 39  1  0  0  0  0
 41 43  1  0  0  0  0
 42 44  1  0  0  0  0
 43 42  1  0  0  0  0
 43 44  1  0  0  0  0
M  END
>  <MODEL>
7

>  <REMARK>
 VINA RESULT:      -4.9      2.311      3.833
  Name = 
  15 active torsions:
  status: ('A' for Active; 'I' for Inactive)
    1  A    between atoms: O_5  and  C_23
    2  A    between atoms: O_5  and  C_35
    3  A    between atoms: O_7  and  C_35
    4  A    between atoms: O_7  and  C_41
    5  A    between atoms: C_11  and  C_19
    6  A    between atoms: C_11  and  N_42
    7  A    between atoms: C_12  and  C_36
    8  A    between atoms: C_14  and  C_18
    9  A    between atoms: C_16  and  C_19
   10  A    between atoms: C_16  and  C_23
   11  A    between atoms: C_21  and  C_32
   12  A    between atoms: C_21  and  C_34
   13  A    between atoms: O_25  and  C_38
   14  A    between atoms: C_29  and  O_43
   15  A    between atoms: C_33  and  O_43
                            x       y       z     vdW  Elec       q    Type
                         _______ _______ _______ _____ _____    ______ ____

>  <TORSDO>
F 15

$$$$
=
 OpenBabel10232407583D

 44 49  0  0  1  0  0  0  0  0999 V2000
  191.1870  176.3090  138.4420 O   0  0  0  0  0  0  0  0  0  0  0  0
  196.8940  173.0590  138.0870 N   0  0  0  0  0  2  0  0  0  0  0  0
  193.7110  174.2730  137.4160 C   0  0  0  0  0  0  0  0  0  0  0  0
  192.5450  176.2890  138.1030 C   0  0  0  0  0  2  0  0  0  0  0  0
  192.0720  175.1020  135.8360 C   0  0  1  0  0  3  0  0  0  0  0  0
  195.6750  173.6210  138.6580 C   0  0  0  0  0  2  0  0  0  0  0  0
  188.5310  175.5960  137.1320 C   0  0  0  0  0  1  0  0  0  0  0  0
  189.3960  176.8860  135.2120 C   0  0  0  0  0  1  0  0  0  0  0  0
  194.5910  173.3490  137.6930 C   0  0  0  0  0  0  0  0  0  0  0  0
  196.4730  172.0920  137.0740 C   0  0  0  0  0  2  0  0  0  0  0  0
  192.8210  175.1840  137.1300 C   0  0  0  0  0  0  0  0  0  0  0  0
  190.5680  177.0250  137.4090 C   0  0  1  0  0  3  0  0  0  0  0  0
  195.0620  172.4350  136.6360 C   0  0  1  0  0  3  0  0  0  0  0  0
  189.8080  176.0800  136.4450 C   0  0  0  0  0  0  0  0  0  0  0  0
  190.6310  174.8850  136.0820 N   0  0  0  0  0  0  0  0  0  0  0  0
  193.1710  171.2980  135.4970 C   0  0  0  0  0  2  0  0  0  0  0  0
  194.2110  171.1760  136.5960 C   0  0  0  0  0  3  0  0  0  0  0  0
  194.4190  170.4690  135.2690 C   0  0  0  0  0  2  0  0  0  0  0  0
  192.3930  176.2820  134.9180 C   0  0  0  0  0  2  0  0  0  0  0  0
  193.7710  176.1990  134.4650 N   0  0  0  0  0  1  0  0  0  0  0  0
  190.0760  174.1170  134.9660 C   0  0  0  0  0  2  0  0  0  0  0  0
  190.0100  172.6440  135.3260 C   0  0  0  0  0  2  0  0  0  0  0  0
  188.8840  171.9540  134.5710 C   0  0  0  0  0  2  0  0  0  0  0  0
  188.1980  169.4780  135.2630 C   0  0  0  0  0  2  0  0  0  0  0  0
  187.0610  170.2590  134.6340 C   0  0  0  0  0  2  0  0  0  0  0  0
  188.1050  170.9850  135.4560 C   0  0  0  0  0  0  0  0  0  0  0  0
  187.5260  171.4830  136.6330 O   0  0  0  0  0  0  0  0  0  0  0  0
  186.5520  172.4130  136.2460 C   0  0  0  0  0  2  0  0  0  0  0  0
  186.0820  173.1080  137.3900 O   0  0  0  0  0  0  0  0  0  0  0  0
  183.8650  172.5450  137.0380 O   0  0  0  0  0  0  0  0  0  0  0  0
  184.7290  173.1570  137.7210 C   0  0  0  0  0  3  0  0  0  0  0  0
  189.7070  178.1550  137.9770 C   0  0  0  0  0  2  0  0  0  0  0  0
  190.4250  177.2610  141.5620 C   0  0  0  0  0  3  0  0  0  0  0  0
  188.1180  177.9540  141.4480 C   0  0  0  0  0  3  0  0  0  0  0  0
  188.2290  178.1990  140.0750 C   0  0  0  0  0  0  0  0  0  0  0  0
  190.5580  177.4930  140.1930 C   0  0  0  0  0  3  0  0  0  0  0  0
  189.4760  177.9540  139.4380 C   0  0  0  0  0  0  0  0  0  0  0  0
  189.2060  177.4890  142.1970 C   0  0  0  0  0  0  0  0  0  0  0  0
  189.7860  178.0390  144.5390 C   0  0  0  0  0  1  0  0  0  0  0  0
  189.1010  177.2520  143.5720 O   0  0  0  0  0  0  0  0  0  0  0  0
  187.0820  178.6910  139.4280 O   0  0  0  0  0  0  0  0  0  0  0  0
  184.7550  178.7870  139.9770 C   0  0  0  0  0  2  0  0  0  0  0  0
  185.8510  178.0000  139.2840 C   0  0  0  0  0  3  0  0  0  0  0  0
  184.8900  178.8460  138.4690 C   0  0  0  0  0  2  0  0  0  0  0  0
  2  6  1  0  0  0  0
  3  9  2  0  0  0  0
  4  1  1  0  0  0  0
  5 19  1  1  0  0  0
  5 15  1  0  0  0  0
  5 11  1  0  0  0  0
  8 14  1  0  0  0  0
  9  6  1  0  0  0  0
 10  2  1  0  0  0  0
 11  3  2  0  0  0  0
 11  4  1  0  0  0  0
 12 32  1  1  0  0  0
 12  1  1  0  0  0  0
 13 17  1  1  0  0  0
 13 10  1  0  0  0  0
 13  9  1  0  0  0  0
 14  7  1  0  0  0  0
 14 12  1  0  0  0  0
 15 14  1  0  0  0  0
 16 17  1  0  0  0  0
 18 16  1  0  0  0  0
 18 17  1  0  0  0  0
 20 19  1  0  0  0  0
 21 22  1  0  0  0  0
 21 15  1  0  0  0  0
 23 22  1  0  0  0  0
 23 26  1  0  0  0  0
 24 26  1  0  0  0  0
 25 24  1  0  0  0  0
 25 26  1  0  0  0  0
 26 27  1  0  0  0  0
 28 27  1  0  0  0  0
 28 29  1  0  0  0  0
 29 31  1  0  0  0  0
 30 31  2  0  0  0  0
 32 37  1  0  0  0  0
 33 38  1  0  0  0  0
 34 38  2  0  0  0  0
 35 34  1  0  0  0  0
 36 33  2  0  0  0  0
 37 35  2  0  0  0  0
 37 36  1  0  0  0  0
 38 40  1  0  0  0  0
 40 39  1  0  0  0  0
 41 35  1  0  0  0  0
 43 41  1  0  0  0  0
 43 42  1  0  0  0  0
 44 43  1  0  0  0  0
 44 42  1  0  0  0  0
M  END
>  <MODEL>
8

>  <REMARK>
 VINA RESULT:      -4.8      3.210      6.788
  Name = 
  15 active torsions:
  status: ('A' for Active; 'I' for Inactive)
    1  A    between atoms: O_5  and  C_23
    2  A    between atoms: O_5  and  C_35
    3  A    between atoms: O_7  and  C_35
    4  A    between atoms: O_7  and  C_41
    5  A    between atoms: C_11  and  C_19
    6  A    between atoms: C_11  and  N_42
    7  A    between atoms: C_12  and  C_36
    8  A    between atoms: C_14  and  C_18
    9  A    between atoms: C_16  and  C_19
   10  A    between atoms: C_16  and  C_23
   11  A    between atoms: C_21  and  C_32
   12  A    between atoms: C_21  and  C_34
   13  A    between atoms: O_25  and  C_38
   14  A    between atoms: C_29  and  O_43
   15  A    between atoms: C_33  and  O_43
                            x       y       z     vdW  Elec       q    Type
                         _______ _______ _______ _____ _____    ______ ____

>  <TORSDO>
F 15

$$$$
=
 OpenBabel10232407583D

 44 49  0  0  1  0  0  0  0  0999 V2000
  188.2150  176.2840  138.1730 O   0  0  0  0  0  0  0  0  0  0  0  0
  187.6730  170.3300  135.4320 N   0  0  0  0  0  2  0  0  0  0  0  0
  187.1510  173.6510  136.3030 C   0  0  0  0  0  0  0  0  0  0  0  0
  188.6200  175.3630  137.2000 C   0  0  0  0  0  2  0  0  0  0  0  0
  186.5900  175.9210  135.6710 C   0  0  1  0  0  3  0  0  0  0  0  0
  187.8640  171.3500  136.4580 C   0  0  0  0  0  2  0  0  0  0  0  0
  186.0570  178.4100  138.4980 C   0  0  0  0  0  1  0  0  0  0  0  0
  186.7650  179.1420  136.2480 C   0  0  0  0  0  1  0  0  0  0  0  0
  186.8380  172.3860  136.2210 C   0  0  0  0  0  0  0  0  0  0  0  0
  186.3170  170.5070  134.9150 C   0  0  0  0  0  2  0  0  0  0  0  0
  187.4450  174.9200  136.3840 C   0  0  0  0  0  0  0  0  0  0  0  0
  188.1770  177.5170  137.5080 C   0  0  1  0  0  3  0  0  0  0  0  0
  185.8700  171.9260  135.2090 C   0  0  1  0  0  3  0  0  0  0  0  0
  186.7200  177.9460  137.2010 C   0  0  0  0  0  0  0  0  0  0  0  0
  185.9190  176.8140  136.6390 N   0  0  0  0  0  0  0  0  0  0  0  0
  183.9220  173.3370  135.8260 C   0  0  0  0  0  2  0  0  0  0  0  0
  184.4600  171.9190  135.7770 C   0  0  0  0  0  3  0  0  0  0  0  0
  183.4870  172.4000  134.7170 C   0  0  0  0  0  2  0  0  0  0  0  0
  187.3620  176.6420  134.5650 C   0  0  0  0  0  2  0  0  0  0  0  0
  188.6420  175.9900  134.3460 N   0  0  0  0  0  1  0  0  0  0  0  0
  184.6370  177.2370  136.0750 C   0  0  0  0  0  2  0  0  0  0  0  0
  183.4950  176.7630  136.9550 C   0  0  0  0  0  2  0  0  0  0  0  0
  182.2380  177.5780  136.6950 C   0  0  0  0  0  2  0  0  0  0  0  0
  181.6320  179.1140  138.7820 C   0  0  0  0  0  2  0  0  0  0  0  0
  182.3780  177.8520  139.1670 C   0  0  0  0  0  2  0  0  0  0  0  0
  181.4450  177.8380  137.9730 C   0  0  0  0  0  0  0  0  0  0  0  0
  180.3360  177.0220  138.2420 O   0  0  0  0  0  0  0  0  0  0  0  0
  180.4360  175.9070  137.3990 C   0  0  0  0  0  2  0  0  0  0  0  0
  180.7620  174.7610  138.1680 O   0  0  0  0  0  0  0  0  0  0  0  0
  180.7000  172.5510  137.4850 O   0  0  0  0  0  0  0  0  0  0  0  0
  180.1100  173.5420  137.9900 C   0  0  0  0  0  3  0  0  0  0  0  0
  188.9850  178.5680  138.2710 C   0  0  0  0  0  2  0  0  0  0  0  0
  189.0230  177.6910  141.9310 C   0  0  0  0  0  3  0  0  0  0  0  0
  191.0960  176.9000  140.9870 C   0  0  0  0  0  3  0  0  0  0  0  0
  190.7280  177.3610  139.7180 C   0  0  0  0  0  0  0  0  0  0  0  0
  188.6370  178.1640  140.6770 C   0  0  0  0  0  3  0  0  0  0  0  0
  189.4740  178.0130  139.5670 C   0  0  0  0  0  0  0  0  0  0  0  0
  190.2530  177.0570  142.0940 C   0  0  0  0  0  0  0  0  0  0  0  0
  191.4920  177.3050  144.2220 C   0  0  0  0  0  1  0  0  0  0  0  0
  190.6140  176.5890  143.3620 O   0  0  0  0  0  0  0  0  0  0  0  0
  191.6380  177.1250  138.6730 O   0  0  0  0  0  0  0  0  0  0  0  0
  192.1430  175.5100  136.9800 C   0  0  0  0  0  2  0  0  0  0  0  0
  192.3260  175.9060  138.4330 C   0  0  0  0  0  3  0  0  0  0  0  0
  193.4420  176.1450  137.4330 C   0  0  0  0  0  2  0  0  0  0  0  0
  2  6  1  0  0  0  0
  3 11  2  0  0  0  0
  4  1  1  0  0  0  0
  5 19  1  6  0  0  0
  5 11  1  0  0  0  0
  5 15  1  0  0  0  0
  8 14  1  0  0  0  0
  9  3  2  0  0  0  0
  9  6  1  0  0  0  0
 10 13  1  0  0  0  0
 10  2  1  0  0  0  0
 11  4  1  0  0  0  0
 12  1  1  0  0  0  0
 12 32  1  1  0  0  0
 13 17  1  1  0  0  0
 13  9  1  0  0  0  0
 14 12  1  0  0  0  0
 14  7  1  0  0  0  0
 15 14  1  0  0  0  0
 17 16  1  0  0  0  0
 18 17  1  0  0  0  0
 18 16  1  0  0  0  0
 20 19  1  0  0  0  0
 21 15  1  0  0  0  0
 21 22  1  0  0  0  0
 23 22  1  0  0  0  0
 23 26  1  0  0  0  0
 24 25  1  0  0  0  0
 26 27  1  0  0  0  0
 26 24  1  0  0  0  0
 26 25  1  0  0  0  0
 28 29  1  0  0  0  0
 28 27  1  0  0  0  0
 30 31  2  0  0  0  0
 31 29  1  0  0  0  0
 32 37  1  0  0  0  0
 33 38  1  0  0  0  0
 34 38  2  0  0  0  0
 35 34  1  0  0  0  0
 36 33  2  0  0  0  0
 37 35  2  0  0  0  0
 37 36  1  0  0  0  0
 38 40  1  0  0  0  0
 40 39  1  0  0  0  0
 41 35  1  0  0  0  0
 42 44  1  0  0  0  0
 42 43  1  0  0  0  0
 43 41  1  0  0  0  0
 44 43  1  0  0  0  0
M  END
>  <MODEL>
9

>  <REMARK>
 VINA RESULT:      -4.7      1.635      2.384
  Name = 
  15 active torsions:
  status: ('A' for Active; 'I' for Inactive)
    1  A    between atoms: O_5  and  C_23
    2  A    between atoms: O_5  and  C_35
    3  A    between atoms: O_7  and  C_35
    4  A    between atoms: O_7  and  C_41
    5  A    between atoms: C_11  and  C_19
    6  A    between atoms: C_11  and  N_42
    7  A    between atoms: C_12  and  C_36
    8  A    between atoms: C_14  and  C_18
    9  A    between atoms: C_16  and  C_19
   10  A    between atoms: C_16  and  C_23
   11  A    between atoms: C_21  and  C_32
   12  A    between atoms: C_21  and  C_34
   13  A    between atoms: O_25  and  C_38
   14  A    between atoms: C_29  and  O_43
   15  A    between atoms: C_33  and  O_43
                            x       y       z     vdW  Elec       q    Type
                         _______ _______ _______ _____ _____    ______ ____

>  <TORSDO>
F 15

$$$$
