=
 OpenBabel10222421523D

 54 60  0  0  1  0  0  0  0  0999 V2000
  189.8450  176.6720  137.8680 C   0  0  0  0  0  0  0  0  0  0  0  0
  190.8210  176.2280  138.6300 C   0  0  2  0  0  3  0  0  0  0  0  0
  190.7970  177.0040  140.1590 S   0  0  0  0  0  0  0  0  0  0  0  0
  189.5420  175.9640  136.5920 C   0  0  0  0  0  0  0  0  0  0  0  0
  189.3610  179.1010  137.7380 C   0  0  0  0  0  1  0  0  0  0  0  0
  193.4910  174.2940  136.9520 C   0  0  0  0  0  0  0  0  0  0  0  0
  191.8380  175.6240  135.8120 C   0  0  0  0  0  0  0  0  0  0  0  0
  192.6660  175.5650  134.6650 C   0  0  0  0  0  3  0  0  0  0  0  0
  189.0360  177.8120  138.4640 C   0  0  2  0  0  3  0  0  0  0  0  0
  191.8380  175.2940  138.2400 N   0  0  0  0  0  0  0  0  0  0  0  0
  194.2170  174.2430  135.8040 C   0  0  0  0  0  0  0  0  0  0  0  0
  190.6240  176.0300  141.2940 O   0  0  0  0  0  0  0  0  0  0  0  0
  192.3130  175.0410  137.0440 C   0  0  0  0  0  0  0  0  0  0  0  0
  196.4060  173.3170  135.0630 C   0  0  0  0  0  1  0  0  0  0  0  0
  194.2370  173.6150  137.9020 C   0  0  0  0  0  3  0  0  0  0  0  0
  189.3870  177.9850  139.8870 N   0  0  0  0  0  0  0  0  0  0  0  0
  192.0140  177.8630  140.3580 O   0  0  0  0  0  0  0  0  0  0  0  0
  195.3450  173.5680  136.0210 N   0  0  0  0  0  0  0  0  0  0  0  0
  193.8510  174.8920  134.6750 N   0  0  0  0  0  0  0  0  0  0  0  0
  195.3650  173.1760  137.2880 N   0  0  0  0  0  0  0  0  0  0  0  0
  190.6330  176.0900  135.6380 N   0  0  0  0  0  0  0  0  0  0  0  0
  188.2470  176.6880  134.5680 C   0  0  0  0  0  1  0  0  0  0  0  0
  188.1280  176.1010  135.9770 C   0  0  2  0  0  0  0  0  0  0  0  0
  186.3870  177.9930  135.9980 C   0  0  0  0  0  1  0  0  0  0  0  0
  187.2080  177.0070  136.8190 C   0  0  0  0  0  2  0  0  0  0  0  0
  187.4780  174.6930  135.8920 C   0  0  1  0  0  3  0  0  0  0  0  0
  183.2570  174.4490  138.3290 F   0  0  0  0  0  0  0  0  0  0  0  0
  183.1790  174.4770  135.9510 C   0  0  0  0  0  3  0  0  0  0  0  0
  183.8520  174.5220  134.7260 C   0  0  0  0  0  3  0  0  0  0  0  0
  183.9050  174.4950  137.1450 C   0  0  0  0  0  0  0  0  0  0  0  0
  185.2480  174.5860  134.6970 C   0  0  0  0  0  3  0  0  0  0  0  0
  185.9760  174.6060  135.8930 C   0  0  0  0  0  0  0  0  0  0  0  0
  185.3010  174.5600  137.1140 C   0  0  0  0  0  3  0  0  0  0  0  0
  188.1200  173.7390  135.0600 O   0  0  0  0  0  0  0  0  0  0  0  0
  188.7670  172.8500  135.8630 N   0  0  0  0  0  0  0  0  0  0  0  0
  189.7010  171.1270  134.4260 C   0  0  0  0  0  2  0  0  0  0  0  0
  187.9340  171.6530  135.9340 C   0  0  0  0  0  2  0  0  0  0  0  0
  189.9830  172.4300  135.1640 C   0  0  0  0  0  2  0  0  0  0  0  0
  188.2720  170.7790  134.7500 C   0  0  0  0  0  2  0  0  0  0  0  0
  188.2770  177.5680  140.7510 C   0  0  0  0  0  2  0  0  0  0  0  0
  188.1140  178.4120  142.0190 C   0  0  0  0  0  2  0  0  0  0  0  0
  185.6540  178.7090  142.4040 C   0  0  0  0  0  0  0  0  0  0  0  0
  185.6000  179.5120  141.4410 O   0  0  0  0  0  0  0  0  0  0  0  0
  186.8920  178.0330  142.7080 N   0  0  0  0  0  0  0  0  0  0  0  0
  184.4220  178.4870  143.2090 C   0  0  0  0  0  1  0  0  0  0  0  0
  187.0240  177.0130  143.7500 C   0  0  1  0  0  3  0  0  0  0  0  0
  188.0720  175.9770  143.3650 C   0  0  0  0  0  1  0  0  0  0  0  0
  188.5080  177.4600  147.2620 C   0  0  2  0  0  3  0  0  0  0  0  0
  188.5980  177.6660  145.7450 C   0  0  0  0  0  2  0  0  0  0  0  0
  186.3270  178.5970  147.1630 C   0  0  0  0  0  3  0  0  0  0  0  0
  187.2260  177.6100  145.1190 C   0  0  0  0  0  0  0  0  0  0  0  0
  187.4410  178.3380  147.8540 C   0  0  0  0  0  3  0  0  0  0  0  0
  186.1730  178.0960  145.7870 C   0  0  0  0  0  3  0  0  0  0  0  0
  189.7370  177.7410  147.8450 O   0  0  0  0  0  1  0  0  0  0  0  0
  1  9  1  0  0  0  0
  2  1  1  6  0  0  0
  2  3  1  0  0  0  0
  3 17  2  0  0  0  0
  3 12  2  0  0  0  0
  4  1  2  0  0  0  0
  6 13  1  0  0  0  0
  6 15  1  0  0  0  0
  7 13  1  0  0  0  0
  8 19  2  0  0  0  0
  8  7  1  0  0  0  0
  9  5  1  6  0  0  0
  9 16  1  0  0  0  0
 10  2  1  0  0  0  0
 11 18  1  0  0  0  0
 11  6  2  0  0  0  0
 13 10  2  0  0  0  0
 14 18  1  0  0  0  0
 16  3  1  0  0  0  0
 16 40  1  0  0  0  0
 18 20  1  0  0  0  0
 19 11  1  0  0  0  0
 20 15  2  0  0  0  0
 21  7  2  0  0  0  0
 21  4  1  0  0  0  0
 23 22  1  6  0  0  0
 23  4  1  0  0  0  0
 23 25  1  0  0  0  0
 24 25  1  0  0  0  0
 26 34  1  6  0  0  0
 26 32  1  0  0  0  0
 26 23  1  0  0  0  0
 28 30  1  0  0  0  0
 29 28  2  0  0  0  0
 30 27  1  0  0  0  0
 31 29  1  0  0  0  0
 31 32  2  0  0  0  0
 32 33  1  0  0  0  0
 33 30  2  0  0  0  0
 34 35  1  0  0  0  0
 35 37  1  0  0  0  0
 36 39  1  0  0  0  0
 36 38  1  0  0  0  0
 38 35  1  0  0  0  0
 39 37  1  0  0  0  0
 40 41  1  0  0  0  0
 41 44  1  0  0  0  0
 42 44  1  0  0  0  0
 42 45  1  0  0  0  0
 43 42  2  0  0  0  0
 44 46  1  0  0  0  0
 46 47  1  6  0  0  0
 46 51  1  0  0  0  0
 48 54  1  1  0  0  0
 48 52  1  0  0  0  0
 49 48  1  0  0  0  0
 50 52  2  0  0  0  0
 51 49  1  0  0  0  0
 51 53  2  0  0  0  0
 53 50  1  0  0  0  0
M  END
>  <MODEL>
1

>  <REMARK>
 VINA RESULT:      -8.9      0.000      0.000
  Name = 
  11 active torsions:
  status: ('A' for Active; 'I' for Inactive)
    1  A    between atoms: C_5  and  C_8
    2  A    between atoms: C_5  and  N_41
    3  A    between atoms: C_6  and  C_35
    4  A    between atoms: C_6  and  N_43
    5  A    between atoms: C_8  and  N_43
    6  A    between atoms: C_10  and  C_37
    7  A    between atoms: C_13  and  C_37
    8  A    between atoms: C_13  and  C_39
    9  A    between atoms: C_13  and  O_50
   10  A    between atoms: N_23  and  O_50
   11  A    between atoms: C_36  and  C_37
                            x       y       z     vdW  Elec       q    Type
                         _______ _______ _______ _____ _____    ______ ____

>  <TORSDO>
F 11

$$$$
=
 OpenBabel10222421523D

 54 60  0  0  1  0  0  0  0  0999 V2000
  189.4380  176.9660  137.8120 C   0  0  0  0  0  0  0  0  0  0  0  0
  190.4110  176.4130  138.5030 C   0  0  2  0  0  3  0  0  0  0  0  0
  190.5050  177.0980  140.0720 S   0  0  0  0  0  0  0  0  0  0  0  0
  189.0350  176.3550  136.5130 C   0  0  0  0  0  0  0  0  0  0  0  0
  189.1200  179.4240  137.8380 C   0  0  0  0  0  1  0  0  0  0  0  0
  192.8680  174.4040  136.6020 C   0  0  0  0  0  0  0  0  0  0  0  0
  191.2660  175.9070  135.6130 C   0  0  0  0  0  0  0  0  0  0  0  0
  192.0400  175.8590  134.4280 C   0  0  0  0  0  3  0  0  0  0  0  0
  188.7360  178.1210  138.5050 C   0  0  2  0  0  3  0  0  0  0  0  0
  191.3440  175.4370  138.0170 N   0  0  0  0  0  0  0  0  0  0  0  0
  193.5410  174.3720  135.4210 C   0  0  0  0  0  0  0  0  0  0  0  0
  190.3110  176.0740  141.1580 O   0  0  0  0  0  0  0  0  0  0  0  0
  191.7510  175.2230  136.7880 C   0  0  0  0  0  0  0  0  0  0  0  0
  195.6280  173.3450  134.5320 C   0  0  0  0  0  1  0  0  0  0  0  0
  193.6040  173.6230  137.4780 C   0  0  0  0  0  3  0  0  0  0  0  0
  189.1570  178.1860  139.9190 N   0  0  0  0  0  0  0  0  0  0  0  0
  191.7860  177.8610  140.2630 O   0  0  0  0  0  0  0  0  0  0  0  0
  194.6270  173.6110  135.5490 N   0  0  0  0  0  0  0  0  0  0  0  0
  193.1760  175.1080  134.3470 N   0  0  0  0  0  0  0  0  0  0  0  0
  194.6720  173.1460  136.7910 N   0  0  0  0  0  0  0  0  0  0  0  0
  190.0910  176.4620  135.5190 N   0  0  0  0  0  0  0  0  0  0  0  0
  187.4290  175.8810  134.6440 C   0  0  0  0  0  1  0  0  0  0  0  0
  187.6090  176.6230  135.9710 C   0  0  2  0  0  0  0  0  0  0  0  0
  186.8410  178.4610  134.3460 C   0  0  0  0  0  1  0  0  0  0  0  0
  187.3400  178.1240  135.7450 C   0  0  0  0  0  2  0  0  0  0  0  0
  186.5730  176.0920  136.9990 C   0  0  1  0  0  3  0  0  0  0  0  0
  182.2260  177.5810  135.3530 F   0  0  0  0  0  0  0  0  0  0  0  0
  182.9090  178.2930  137.5180 C   0  0  0  0  0  3  0  0  0  0  0  0
  183.8680  178.2960  138.5360 C   0  0  0  0  0  3  0  0  0  0  0  0
  183.1500  177.5830  136.3390 C   0  0  0  0  0  0  0  0  0  0  0  0
  185.0630  177.5900  138.3740 C   0  0  0  0  0  3  0  0  0  0  0  0
  185.3030  176.8770  137.1940 C   0  0  0  0  0  0  0  0  0  0  0  0
  184.3450  176.8760  136.1790 C   0  0  0  0  0  3  0  0  0  0  0  0
  186.4090  174.6840  137.0780 O   0  0  0  0  0  0  0  0  0  0  0  0
  185.1900  174.3740  136.5600 N   0  0  0  0  0  0  0  0  0  0  0  0
  184.6530  172.1160  137.2820 C   0  0  0  0  0  2  0  0  0  0  0  0
  185.4180  173.4430  135.4580 C   0  0  0  0  0  2  0  0  0  0  0  0
  184.4670  173.6010  137.5700 C   0  0  0  0  0  2  0  0  0  0  0  0
  185.4920  172.0480  136.0330 C   0  0  0  0  0  2  0  0  0  0  0  0
  188.0570  177.7950  140.8080 C   0  0  0  0  0  2  0  0  0  0  0  0
  188.1290  178.4130  142.2070 C   0  0  0  0  0  2  0  0  0  0  0  0
  185.7160  178.7640  142.7970 C   0  0  0  0  0  0  0  0  0  0  0  0
  185.6160  179.6160  141.8800 O   0  0  0  0  0  0  0  0  0  0  0  0
  186.9500  178.0380  142.9710 N   0  0  0  0  0  0  0  0  0  0  0  0
  184.5430  178.5410  143.6840 C   0  0  0  0  0  1  0  0  0  0  0  0
  187.1280  176.9630  143.9510 C   0  0  1  0  0  3  0  0  0  0  0  0
  187.9520  175.8260  143.3650 C   0  0  0  0  0  1  0  0  0  0  0  0
  189.2800  177.1060  147.1260 C   0  0  2  0  0  3  0  0  0  0  0  0
  189.1010  177.3830  145.6280 C   0  0  0  0  0  2  0  0  0  0  0  0
  187.2290  178.4180  147.4890 C   0  0  0  0  0  3  0  0  0  0  0  0
  187.6360  177.4700  145.2760 C   0  0  0  0  0  0  0  0  0  0  0  0
  188.4260  178.0350  147.9430 C   0  0  0  0  0  3  0  0  0  0  0  0
  186.7750  178.0030  146.1510 C   0  0  0  0  0  3  0  0  0  0  0  0
  190.6170  177.2560  147.4720 O   0  0  0  0  0  1  0  0  0  0  0  0
  1  9  1  0  0  0  0
  2  1  1  6  0  0  0
  2  3  1  0  0  0  0
  3 17  2  0  0  0  0
  3 12  2  0  0  0  0
  4  1  2  0  0  0  0
  6 13  1  0  0  0  0
  6 15  1  0  0  0  0
  7 13  1  0  0  0  0
  8  7  1  0  0  0  0
  9  5  1  6  0  0  0
  9 16  1  0  0  0  0
 10  2  1  0  0  0  0
 11 18  1  0  0  0  0
 11  6  2  0  0  0  0
 13 10  2  0  0  0  0
 14 18  1  0  0  0  0
 16  3  1  0  0  0  0
 16 40  1  0  0  0  0
 18 20  1  0  0  0  0
 19  8  2  0  0  0  0
 19 11  1  0  0  0  0
 20 15  2  0  0  0  0
 21  7  2  0  0  0  0
 21  4  1  0  0  0  0
 23 22  1  6  0  0  0
 23  4  1  0  0  0  0
 23 26  1  0  0  0  0
 24 25  1  0  0  0  0
 25 23  1  0  0  0  0
 26 34  1  6  0  0  0
 26 32  1  0  0  0  0
 27 30  1  0  0  0  0
 28 29  1  0  0  0  0
 30 28  2  0  0  0  0
 31 29  2  0  0  0  0
 32 31  1  0  0  0  0
 33 30  1  0  0  0  0
 33 32  2  0  0  0  0
 35 34  1  0  0  0  0
 35 38  1  0  0  0  0
 36 38  1  0  0  0  0
 37 39  1  0  0  0  0
 37 35  1  0  0  0  0
 39 36  1  0  0  0  0
 40 41  1  0  0  0  0
 41 44  1  0  0  0  0
 42 44  1  0  0  0  0
 42 45  1  0  0  0  0
 43 42  2  0  0  0  0
 44 46  1  0  0  0  0
 46 47  1  6  0  0  0
 46 51  1  0  0  0  0
 48 54  1  1  0  0  0
 48 52  1  0  0  0  0
 49 48  1  0  0  0  0
 50 52  2  0  0  0  0
 51 49  1  0  0  0  0
 51 53  2  0  0  0  0
 53 50  1  0  0  0  0
M  END
>  <MODEL>
2

>  <REMARK>
 VINA RESULT:      -8.8      1.570      2.176
  Name = 
  11 active torsions:
  status: ('A' for Active; 'I' for Inactive)
    1  A    between atoms: C_5  and  C_8
    2  A    between atoms: C_5  and  N_41
    3  A    between atoms: C_6  and  C_35
    4  A    between atoms: C_6  and  N_43
    5  A    between atoms: C_8  and  N_43
    6  A    between atoms: C_10  and  C_37
    7  A    between atoms: C_13  and  C_37
    8  A    between atoms: C_13  and  C_39
    9  A    between atoms: C_13  and  O_50
   10  A    between atoms: N_23  and  O_50
   11  A    between atoms: C_36  and  C_37
                            x       y       z     vdW  Elec       q    Type
                         _______ _______ _______ _____ _____    ______ ____

>  <TORSDO>
F 11

$$$$
=
 OpenBabel10222421523D

 54 60  0  0  1  0  0  0  0  0999 V2000
  189.3590  177.0340  138.0210 C   0  0  0  0  0  0  0  0  0  0  0  0
  190.3140  176.3840  138.6500 C   0  0  2  0  0  3  0  0  0  0  0  0
  190.4660  176.9420  140.2640 S   0  0  0  0  0  0  0  0  0  0  0  0
  188.9050  176.5450  136.6880 C   0  0  0  0  0  0  0  0  0  0  0  0
  189.1650  179.4960  138.2380 C   0  0  0  0  0  1  0  0  0  0  0  0
  192.6360  174.4080  136.5550 C   0  0  0  0  0  0  0  0  0  0  0  0
  191.0970  176.0580  135.7140 C   0  0  0  0  0  0  0  0  0  0  0  0
  191.8490  176.0630  134.5140 C   0  0  0  0  0  3  0  0  0  0  0  0
  188.7260  178.1660  138.8130 C   0  0  2  0  0  3  0  0  0  0  0  0
  191.1880  175.4020  138.0730 N   0  0  0  0  0  0  0  0  0  0  0  0
  193.2890  174.4330  135.3630 C   0  0  0  0  0  0  0  0  0  0  0  0
  190.2380  175.8480  141.2730 O   0  0  0  0  0  0  0  0  0  0  0  0
  191.5650  175.2630  136.8250 C   0  0  0  0  0  0  0  0  0  0  0  0
  195.3070  173.3760  134.3590 C   0  0  0  0  0  1  0  0  0  0  0  0
  193.3460  173.5270  137.3560 C   0  0  0  0  0  3  0  0  0  0  0  0
  189.1720  178.1020  140.2190 N   0  0  0  0  0  0  0  0  0  0  0  0
  191.7870  177.6240  140.4870 O   0  0  0  0  0  0  0  0  0  0  0  0
  194.3370  173.6120  135.4120 N   0  0  0  0  0  0  0  0  0  0  0  0
  192.9440  175.2660  134.3550 N   0  0  0  0  0  0  0  0  0  0  0  0
  194.3780  173.0520  136.6140 N   0  0  0  0  0  0  0  0  0  0  0  0
  189.9500  176.6760  135.6850 N   0  0  0  0  0  0  0  0  0  0  0  0
  187.5970  178.0240  135.1390 C   0  0  0  0  0  1  0  0  0  0  0  0
  187.4860  176.9220  136.1960 C   0  0  2  0  0  0  0  0  0  0  0  0
  185.8650  178.7290  137.0430 C   0  0  0  0  0  1  0  0  0  0  0  0
  186.5810  177.4180  137.3410 C   0  0  0  0  0  2  0  0  0  0  0  0
  186.8250  175.6680  135.5610 C   0  0  1  0  0  3  0  0  0  0  0  0
  188.2060  171.5250  137.7390 F   0  0  0  0  0  0  0  0  0  0  0  0
  189.0270  171.9690  135.5500 C   0  0  0  0  0  3  0  0  0  0  0  0
  189.0860  172.8120  134.4360 C   0  0  0  0  0  3  0  0  0  0  0  0
  188.2620  172.3360  136.6600 C   0  0  0  0  0  0  0  0  0  0  0  0
  188.3800  174.0180  134.4330 C   0  0  0  0  0  3  0  0  0  0  0  0
  187.6110  174.3850  135.5440 C   0  0  0  0  0  0  0  0  0  0  0  0
  187.5550  173.5420  136.6550 C   0  0  0  0  0  3  0  0  0  0  0  0
  185.4320  175.5000  135.7750 O   0  0  0  0  0  0  0  0  0  0  0  0
  184.8240  175.4410  134.5590 N   0  0  0  0  0  0  0  0  0  0  0  0
  182.6790  176.5630  134.7690 C   0  0  0  0  0  2  0  0  0  0  0  0
  183.7620  174.4440  134.6600 C   0  0  0  0  0  2  0  0  0  0  0  0
  184.1360  176.7150  134.3490 C   0  0  0  0  0  2  0  0  0  0  0  0
  182.5310  175.1290  135.2040 C   0  0  0  0  0  2  0  0  0  0  0  0
  188.0670  177.6990  141.0980 C   0  0  0  0  0  2  0  0  0  0  0  0
  187.8930  178.5840  142.3350 C   0  0  0  0  0  2  0  0  0  0  0  0
  185.4580  178.8420  142.8800 C   0  0  0  0  0  0  0  0  0  0  0  0
  185.3420  179.6900  141.9620 O   0  0  0  0  0  0  0  0  0  0  0  0
  186.7150  178.1630  143.0770 N   0  0  0  0  0  0  0  0  0  0  0  0
  184.2780  178.5740  143.7450 C   0  0  0  0  0  1  0  0  0  0  0  0
  186.9150  177.0960  144.0600 C   0  0  1  0  0  3  0  0  0  0  0  0
  187.8480  176.0230  143.5130 C   0  0  0  0  0  1  0  0  0  0  0  0
  188.7940  177.2850  147.4020 C   0  0  2  0  0  3  0  0  0  0  0  0
  188.7450  177.5320  145.8890 C   0  0  0  0  0  2  0  0  0  0  0  0
  186.7350  178.6250  147.5630 C   0  0  0  0  0  3  0  0  0  0  0  0
  187.3160  177.6260  145.4130 C   0  0  0  0  0  0  0  0  0  0  0  0
  187.8850  178.2390  148.1240 C   0  0  0  0  0  3  0  0  0  0  0  0
  186.3910  178.1860  146.2000 C   0  0  0  0  0  3  0  0  0  0  0  0
  190.0990  177.4290  147.8560 O   0  0  0  0  0  1  0  0  0  0  0  0
  1  9  1  0  0  0  0
  2  1  1  6  0  0  0
  2  3  1  0  0  0  0
  3 17  2  0  0  0  0
  3 12  2  0  0  0  0
  4  1  2  0  0  0  0
  6 13  1  0  0  0  0
  6 15  1  0  0  0  0
  7 13  1  0  0  0  0
  8  7  1  0  0  0  0
  9  5  1  6  0  0  0
  9 16  1  0  0  0  0
 10  2  1  0  0  0  0
 11 18  1  0  0  0  0
 11  6  2  0  0  0  0
 13 10  2  0  0  0  0
 14 18  1  0  0  0  0
 16  3  1  0  0  0  0
 16 40  1  0  0  0  0
 18 20  1  0  0  0  0
 19  8  2  0  0  0  0
 19 11  1  0  0  0  0
 20 15  2  0  0  0  0
 21  7  2  0  0  0  0
 21  4  1  0  0  0  0
 23 22  1  6  0  0  0
 23  4  1  0  0  0  0
 23 25  1  0  0  0  0
 24 25  1  0  0  0  0
 26 34  1  1  0  0  0
 26 23  1  0  0  0  0
 28 30  1  0  0  0  0
 29 28  2  0  0  0  0
 30 27  1  0  0  0  0
 31 29  1  0  0  0  0
 31 32  2  0  0  0  0
 32 26  1  0  0  0  0
 32 33  1  0  0  0  0
 33 30  2  0  0  0  0
 35 37  1  0  0  0  0
 35 34  1  0  0  0  0
 36 39  1  0  0  0  0
 37 39  1  0  0  0  0
 38 35  1  0  0  0  0
 38 36  1  0  0  0  0
 40 41  1  0  0  0  0
 41 44  1  0  0  0  0
 42 44  1  0  0  0  0
 42 45  1  0  0  0  0
 43 42  2  0  0  0  0
 44 46  1  0  0  0  0
 46 47  1  6  0  0  0
 46 51  1  0  0  0  0
 48 54  1  1  0  0  0
 48 52  1  0  0  0  0
 49 48  1  0  0  0  0
 50 52  2  0  0  0  0
 51 49  1  0  0  0  0
 51 53  2  0  0  0  0
 53 50  1  0  0  0  0
M  END
>  <MODEL>
3

>  <REMARK>
 VINA RESULT:      -8.3      1.454      2.788
  Name = 
  11 active torsions:
  status: ('A' for Active; 'I' for Inactive)
    1  A    between atoms: C_5  and  C_8
    2  A    between atoms: C_5  and  N_41
    3  A    between atoms: C_6  and  C_35
    4  A    between atoms: C_6  and  N_43
    5  A    between atoms: C_8  and  N_43
    6  A    between atoms: C_10  and  C_37
    7  A    between atoms: C_13  and  C_37
    8  A    between atoms: C_13  and  C_39
    9  A    between atoms: C_13  and  O_50
   10  A    between atoms: N_23  and  O_50
   11  A    between atoms: C_36  and  C_37
                            x       y       z     vdW  Elec       q    Type
                         _______ _______ _______ _____ _____    ______ ____

>  <TORSDO>
F 11

$$$$
=
 OpenBabel10222421523D

 54 60  0  0  1  0  0  0  0  0999 V2000
  187.2870  176.9210  137.6930 C   0  0  0  0  0  0  0  0  0  0  0  0
  186.2090  176.3670  137.1810 C   0  0  0  0  0  0  0  0  0  0  0  0
  186.6030  175.4470  135.7890 S   0  0  0  0  0  0  0  0  0  0  0  0
  187.2040  177.5660  139.0340 C   0  0  2  0  0  3  0  0  0  0  0  0
  188.9520  178.0190  136.2200 C   0  0  0  0  0  1  0  0  0  0  0  0
  182.9530  177.6530  138.3770 C   0  0  0  0  0  0  0  0  0  0  0  0
  185.0730  178.7350  138.7430 C   0  0  0  0  0  0  0  0  0  0  0  0
  184.3510  179.9090  139.0700 C   0  0  0  0  0  3  0  0  0  0  0  0
  188.5570  176.7170  136.8840 C   0  0  2  0  0  3  0  0  0  0  0  0
  184.8630  176.5570  137.6420 N   0  0  0  0  0  0  0  0  0  0  0  0
  182.3230  178.8010  138.7410 C   0  0  0  0  0  0  0  0  0  0  0  0
  186.2330  173.9950  135.9370 O   0  0  0  0  0  0  0  0  0  0  0  0
  184.3450  177.5770  138.2830 C   0  0  0  0  0  0  0  0  0  0  0  0
  179.9820  179.6340  138.8950 C   0  0  0  0  0  1  0  0  0  0  0  0
  181.9480  176.7650  138.0270 C   0  0  0  0  0  3  0  0  0  0  0  0
  188.3210  175.7140  135.8260 N   0  0  0  0  0  0  0  0  0  0  0  0
  185.9970  176.0410  134.5490 O   0  0  0  0  0  0  0  0  0  0  0  0
  181.0050  178.6390  138.6330 N   0  0  0  0  0  0  0  0  0  0  0  0
  182.9880  179.9370  139.0510 N   0  0  0  0  0  0  0  0  0  0  0  0
  180.7660  177.4050  138.2070 N   0  0  0  0  0  0  0  0  0  0  0  0
  186.3490  178.7420  139.0110 N   0  0  0  0  0  0  0  0  0  0  0  0
  189.0970  179.1100  139.6100 C   0  0  0  0  0  1  0  0  0  0  0  0
  188.4970  177.7250  139.8700 C   0  0  2  0  0  0  0  0  0  0  0  0
  190.9710  177.1920  139.4160 C   0  0  0  0  0  1  0  0  0  0  0  0
  189.5510  176.6520  139.5290 C   0  0  0  0  0  2  0  0  0  0  0  0
  188.1420  177.5950  141.3770 C   0  0  1  0  0  3  0  0  0  0  0  0
  191.6530  179.4250  144.2300 F   0  0  0  0  0  0  0  0  0  0  0  0
  191.3470  177.0660  144.2010 C   0  0  0  0  0  3  0  0  0  0  0  0
  190.6630  175.9470  143.7140 C   0  0  0  0  0  3  0  0  0  0  0  0
  190.9910  178.3440  143.7630 C   0  0  0  0  0  0  0  0  0  0  0  0
  189.6250  176.1090  142.7920 C   0  0  0  0  0  3  0  0  0  0  0  0
  189.2670  177.3890  142.3540 C   0  0  0  0  0  0  0  0  0  0  0  0
  189.9520  178.5040  142.8410 C   0  0  0  0  0  3  0  0  0  0  0  0
  187.0870  178.4130  141.8600 O   0  0  0  0  0  0  0  0  0  0  0  0
  186.2310  177.6210  142.5620 N   0  0  0  0  0  0  0  0  0  0  0  0
  184.3520  179.0100  143.2340 C   0  0  0  0  0  2  0  0  0  0  0  0
  186.3720  177.9820  143.9700 C   0  0  0  0  0  2  0  0  0  0  0  0
  184.8690  178.0180  142.1990 C   0  0  0  0  0  2  0  0  0  0  0  0
  185.4610  179.1550  144.2440 C   0  0  0  0  0  2  0  0  0  0  0  0
  189.0450  174.4710  136.1170 C   0  0  0  0  0  2  0  0  0  0  0  0
  190.5140  174.6740  136.5000 C   0  0  0  0  0  2  0  0  0  0  0  0
  190.8410  172.6220  135.0950 C   0  0  0  0  0  0  0  0  0  0  0  0
  189.6200  172.3520  135.2060 O   0  0  0  0  0  0  0  0  0  0  0  0
  191.3600  173.8460  135.6560 N   0  0  0  0  0  0  0  0  0  0  0  0
  191.7170  171.6530  134.3830 C   0  0  0  0  0  1  0  0  0  0  0  0
  192.7470  174.2880  135.4960 C   0  0  1  0  0  3  0  0  0  0  0  0
  192.8090  175.7780  135.1880 C   0  0  0  0  0  1  0  0  0  0  0  0
  195.2720  174.6170  138.3670 C   0  0  2  0  0  3  0  0  0  0  0  0
  193.8430  174.7680  137.8300 C   0  0  0  0  0  2  0  0  0  0  0  0
  195.1540  172.2590  137.6710 C   0  0  0  0  0  3  0  0  0  0  0  0
  193.6250  173.8610  136.6440 C   0  0  0  0  0  0  0  0  0  0  0  0
  195.6260  173.1660  138.5320 C   0  0  0  0  0  3  0  0  0  0  0  0
  194.2170  172.6620  136.6090 C   0  0  0  0  0  3  0  0  0  0  0  0
  195.3850  175.2790  139.5840 O   0  0  0  0  0  1  0  0  0  0  0  0
  1  4  1  0  0  0  0
  2 10  1  0  0  0  0
  2  1  2  0  0  0  0
  3 16  1  0  0  0  0
  3 12  2  0  0  0  0
  3  2  1  0  0  0  0
  4 23  1  6  0  0  0
  6 11  2  0  0  0  0
  7 21  2  0  0  0  0
  7  8  1  0  0  0  0
  9  5  1  6  0  0  0
  9  1  1  0  0  0  0
 10 13  2  0  0  0  0
 11 19  1  0  0  0  0
 13  6  1  0  0  0  0
 13  7  1  0  0  0  0
 15 20  2  0  0  0  0
 15  6  1  0  0  0  0
 16 40  1  0  0  0  0
 16  9  1  0  0  0  0
 17  3  2  0  0  0  0
 18 11  1  0  0  0  0
 18 14  1  0  0  0  0
 19  8  2  0  0  0  0
 20 18  1  0  0  0  0
 21  4  1  0  0  0  0
 23 22  1  6  0  0  0
 23 26  1  0  0  0  0
 24 25  1  0  0  0  0
 25 23  1  0  0  0  0
 26 34  1  1  0  0  0
 26 32  1  0  0  0  0
 29 28  2  0  0  0  0
 30 28  1  0  0  0  0
 30 27  1  0  0  0  0
 31 29  1  0  0  0  0
 32 31  2  0  0  0  0
 32 33  1  0  0  0  0
 33 30  2  0  0  0  0
 34 35  1  0  0  0  0
 35 37  1  0  0  0  0
 36 39  1  0  0  0  0
 37 39  1  0  0  0  0
 38 35  1  0  0  0  0
 38 36  1  0  0  0  0
 40 41  1  0  0  0  0
 42 43  2  0  0  0  0
 42 44  1  0  0  0  0
 44 41  1  0  0  0  0
 45 42  1  0  0  0  0
 46 47  1  1  0  0  0
 46 44  1  0  0  0  0
 46 51  1  0  0  0  0
 48 52  1  0  0  0  0
 48 54  1  1  0  0  0
 49 48  1  0  0  0  0
 50 52  2  0  0  0  0
 51 49  1  0  0  0  0
 53 51  2  0  0  0  0
 53 50  1  0  0  0  0
M  END
>  <MODEL>
4

>  <REMARK>
 VINA RESULT:      -7.8      3.352      9.943
  Name = 
  11 active torsions:
  status: ('A' for Active; 'I' for Inactive)
    1  A    between atoms: C_5  and  C_8
    2  A    between atoms: C_5  and  N_41
    3  A    between atoms: C_6  and  C_35
    4  A    between atoms: C_6  and  N_43
    5  A    between atoms: C_8  and  N_43
    6  A    between atoms: C_10  and  C_37
    7  A    between atoms: C_13  and  C_37
    8  A    between atoms: C_13  and  C_39
    9  A    between atoms: C_13  and  O_50
   10  A    between atoms: N_23  and  O_50
   11  A    between atoms: C_36  and  C_37
                            x       y       z     vdW  Elec       q    Type
                         _______ _______ _______ _____ _____    ______ ____

>  <TORSDO>
F 11

$$$$
=
 OpenBabel10222421523D

 54 60  0  0  1  0  0  0  0  0999 V2000
  187.5230  176.7710  137.6560 C   0  0  0  0  0  0  0  0  0  0  0  0
  186.4910  176.1270  137.1550 C   0  0  0  0  0  0  0  0  0  0  0  0
  186.9610  175.1940  135.7960 S   0  0  0  0  0  0  0  0  0  0  0  0
  187.3820  177.4500  138.9760 C   0  0  2  0  0  3  0  0  0  0  0  0
  189.1200  177.9360  136.1610 C   0  0  0  0  0  1  0  0  0  0  0  0
  183.1420  177.2190  138.2860 C   0  0  0  0  0  0  0  0  0  0  0  0
  185.1780  178.4580  138.6330 C   0  0  0  0  0  0  0  0  0  0  0  0
  184.3720  179.5880  138.9170 C   0  0  0  0  0  3  0  0  0  0  0  0
  188.8110  176.6310  136.8640 C   0  0  2  0  0  3  0  0  0  0  0  0
  185.1310  176.2360  137.5990 N   0  0  0  0  0  0  0  0  0  0  0  0
  182.4300  178.3310  138.6080 C   0  0  0  0  0  0  0  0  0  0  0  0
  186.6910  173.7250  135.9880 O   0  0  0  0  0  0  0  0  0  0  0  0
  184.5370  177.2380  138.2040 C   0  0  0  0  0  0  0  0  0  0  0  0
  180.0350  179.0020  138.7190 C   0  0  0  0  0  1  0  0  0  0  0  0
  182.2040  176.2520  137.9570 C   0  0  0  0  0  3  0  0  0  0  0  0
  188.6550  175.5820  135.8370 N   0  0  0  0  0  0  0  0  0  0  0  0
  186.3270  175.7050  134.5330 O   0  0  0  0  0  0  0  0  0  0  0  0
  181.1270  178.0730  138.4960 N   0  0  0  0  0  0  0  0  0  0  0  0
  183.0110  179.5200  138.8860 N   0  0  0  0  0  0  0  0  0  0  0  0
  180.9780  176.8140  138.1080 N   0  0  0  0  0  0  0  0  0  0  0  0
  186.4470  178.5630  138.9090 N   0  0  0  0  0  0  0  0  0  0  0  0
  189.1400  179.1500  139.5390 C   0  0  0  0  0  1  0  0  0  0  0  0
  188.6530  177.7250  139.8160 C   0  0  2  0  0  0  0  0  0  0  0  0
  191.1770  177.3710  139.4770 C   0  0  0  0  0  1  0  0  0  0  0  0
  189.7930  176.7370  139.4950 C   0  0  0  0  0  2  0  0  0  0  0  0
  188.3000  177.5880  141.3220 C   0  0  1  0  0  3  0  0  0  0  0  0
  191.7260  179.2360  144.3830 F   0  0  0  0  0  0  0  0  0  0  0  0
  191.4910  176.8820  144.1250 C   0  0  0  0  0  3  0  0  0  0  0  0
  190.8450  175.7970  143.5240 C   0  0  0  0  0  3  0  0  0  0  0  0
  191.1010  178.1860  143.8060 C   0  0  0  0  0  0  0  0  0  0  0  0
  189.8130  176.0160  142.6090 C   0  0  0  0  0  3  0  0  0  0  0  0
  189.4210  177.3220  142.2900 C   0  0  0  0  0  0  0  0  0  0  0  0
  190.0680  178.4040  142.8900 C   0  0  0  0  0  3  0  0  0  0  0  0
  187.2830  178.4420  141.8230 O   0  0  0  0  0  0  0  0  0  0  0  0
  186.3020  177.6610  142.3510 N   0  0  0  0  0  0  0  0  0  0  0  0
  184.8420  179.1110  143.6450 C   0  0  0  0  0  2  0  0  0  0  0  0
  186.5980  177.5050  143.7730 C   0  0  0  0  0  2  0  0  0  0  0  0
  185.0550  178.4260  142.3010 C   0  0  0  0  0  2  0  0  0  0  0  0
  186.0050  178.6860  144.5040 C   0  0  0  0  0  2  0  0  0  0  0  0
  189.4620  174.4020  136.1730 C   0  0  0  0  0  2  0  0  0  0  0  0
  190.5110  174.0370  135.1190 C   0  0  0  0  0  2  0  0  0  0  0  0
  192.0780  174.5340  137.0130 C   0  0  0  0  0  0  0  0  0  0  0  0
  191.1940  174.1900  137.8350 O   0  0  0  0  0  0  0  0  0  0  0  0
  191.8350  174.4000  135.5980 N   0  0  0  0  0  0  0  0  0  0  0  0
  193.3570  175.0820  137.5410 C   0  0  0  0  0  1  0  0  0  0  0  0
  192.8390  174.6890  134.5720 C   0  0  1  0  0  3  0  0  0  0  0  0
  193.1160  176.1840  134.4890 C   0  0  0  0  0  1  0  0  0  0  0  0
  195.1160  171.9110  135.9250 C   0  0  2  0  0  3  0  0  0  0  0  0
  193.9740  172.3640  135.0060 C   0  0  0  0  0  2  0  0  0  0  0  0
  196.5060  173.6290  134.8400 C   0  0  0  0  0  3  0  0  0  0  0  0
  194.0770  173.8430  134.7230 C   0  0  0  0  0  0  0  0  0  0  0  0
  196.4360  172.4300  135.4260 C   0  0  0  0  0  3  0  0  0  0  0  0
  195.2820  174.4120  134.6030 C   0  0  0  0  0  3  0  0  0  0  0  0
  195.1400  170.5230  135.9890 O   0  0  0  0  0  1  0  0  0  0  0  0
  1  4  1  0  0  0  0
  2 10  1  0  0  0  0
  2  1  2  0  0  0  0
  3 16  1  0  0  0  0
  3 12  2  0  0  0  0
  3  2  1  0  0  0  0
  4 23  1  6  0  0  0
  6 11  2  0  0  0  0
  7 21  2  0  0  0  0
  7  8  1  0  0  0  0
  9  5  1  6  0  0  0
  9  1  1  0  0  0  0
 10 13  2  0  0  0  0
 11 19  1  0  0  0  0
 13  6  1  0  0  0  0
 13  7  1  0  0  0  0
 15 20  2  0  0  0  0
 15  6  1  0  0  0  0
 16 40  1  0  0  0  0
 16  9  1  0  0  0  0
 17  3  2  0  0  0  0
 18 11  1  0  0  0  0
 18 14  1  0  0  0  0
 19  8  2  0  0  0  0
 20 18  1  0  0  0  0
 21  4  1  0  0  0  0
 23 22  1  6  0  0  0
 23 26  1  0  0  0  0
 24 25  1  0  0  0  0
 25 23  1  0  0  0  0
 26 34  1  1  0  0  0
 26 32  1  0  0  0  0
 29 28  2  0  0  0  0
 30 28  1  0  0  0  0
 30 27  1  0  0  0  0
 31 29  1  0  0  0  0
 32 31  2  0  0  0  0
 32 33  1  0  0  0  0
 33 30  2  0  0  0  0
 34 35  1  0  0  0  0
 35 37  1  0  0  0  0
 36 39  1  0  0  0  0
 37 39  1  0  0  0  0
 38 35  1  0  0  0  0
 38 36  1  0  0  0  0
 41 44  1  0  0  0  0
 41 40  1  0  0  0  0
 42 45  1  0  0  0  0
 42 43  2  0  0  0  0
 44 42  1  0  0  0  0
 46 47  1  1  0  0  0
 46 51  1  0  0  0  0
 46 44  1  0  0  0  0
 48 54  1  6  0  0  0
 49 48  1  0  0  0  0
 50 52  2  0  0  0  0
 51 49  1  0  0  0  0
 52 48  1  0  0  0  0
 53 51  2  0  0  0  0
 53 50  1  0  0  0  0
M  END
>  <MODEL>
5

>  <REMARK>
 VINA RESULT:      -7.2      3.429     10.257
  Name = 
  11 active torsions:
  status: ('A' for Active; 'I' for Inactive)
    1  A    between atoms: C_5  and  C_8
    2  A    between atoms: C_5  and  N_41
    3  A    between atoms: C_6  and  C_35
    4  A    between atoms: C_6  and  N_43
    5  A    between atoms: C_8  and  N_43
    6  A    between atoms: C_10  and  C_37
    7  A    between atoms: C_13  and  C_37
    8  A    between atoms: C_13  and  C_39
    9  A    between atoms: C_13  and  O_50
   10  A    between atoms: N_23  and  O_50
   11  A    between atoms: C_36  and  C_37
                            x       y       z     vdW  Elec       q    Type
                         _______ _______ _______ _____ _____    ______ ____

>  <TORSDO>
F 11

$$$$
=
 OpenBabel10222421523D

 54 60  0  0  1  0  0  0  0  0999 V2000
  189.1740  176.9880  138.4010 C   0  0  0  0  0  0  0  0  0  0  0  0
  190.1310  176.3440  139.0330 C   0  0  2  0  0  3  0  0  0  0  0  0
  190.2730  176.9020  140.6480 S   0  0  0  0  0  0  0  0  0  0  0  0
  188.7290  176.4970  137.0660 C   0  0  0  0  0  0  0  0  0  0  0  0
  188.9600  179.4480  138.6200 C   0  0  0  0  0  1  0  0  0  0  0  0
  192.4780  174.3890  136.9450 C   0  0  0  0  0  0  0  0  0  0  0  0
  190.9290  176.0280  136.1000 C   0  0  0  0  0  0  0  0  0  0  0  0
  191.6860  176.0400  134.9030 C   0  0  0  0  0  3  0  0  0  0  0  0
  188.5300  178.1140  139.1920 C   0  0  2  0  0  3  0  0  0  0  0  0
  191.0150  175.3700  138.4590 N   0  0  0  0  0  0  0  0  0  0  0  0
  193.1350  174.4200  135.7550 C   0  0  0  0  0  0  0  0  0  0  0  0
  190.0490  175.8050  141.6550 O   0  0  0  0  0  0  0  0  0  0  0  0
  191.3980  175.2360  137.2110 C   0  0  0  0  0  0  0  0  0  0  0  0
  195.1650  173.3800  134.7590 C   0  0  0  0  0  1  0  0  0  0  0  0
  193.1910  173.5120  137.7480 C   0  0  0  0  0  3  0  0  0  0  0  0
  188.9700  178.0520  140.6000 N   0  0  0  0  0  0  0  0  0  0  0  0
  191.5870  177.5930  140.8770 O   0  0  0  0  0  0  0  0  0  0  0  0
  194.1890  173.6070  135.8080 N   0  0  0  0  0  0  0  0  0  0  0  0
  192.7870  175.2520  134.7470 N   0  0  0  0  0  0  0  0  0  0  0  0
  194.2300  173.0460  137.0100 N   0  0  0  0  0  0  0  0  0  0  0  0
  189.7770  176.6370  136.0670 N   0  0  0  0  0  0  0  0  0  0  0  0
  187.3590  178.2230  135.8660 C   0  0  0  0  0  1  0  0  0  0  0  0
  187.3100  176.8630  136.5680 C   0  0  2  0  0  0  0  0  0  0  0  0
  185.3060  178.0940  137.6080 C   0  0  0  0  0  1  0  0  0  0  0  0
  186.2850  176.9320  137.7180 C   0  0  0  0  0  2  0  0  0  0  0  0
  186.8360  175.7820  135.5580 C   0  0  1  0  0  3  0  0  0  0  0  0
  187.9250  171.7570  138.0940 F   0  0  0  0  0  0  0  0  0  0  0  0
  188.6010  171.8630  135.8160 C   0  0  0  0  0  3  0  0  0  0  0  0
  188.6580  172.5700  134.6100 C   0  0  0  0  0  3  0  0  0  0  0  0
  187.9780  172.4360  136.9280 C   0  0  0  0  0  0  0  0  0  0  0  0
  188.0940  173.8450  134.5190 C   0  0  0  0  0  3  0  0  0  0  0  0
  187.4690  174.4190  135.6320 C   0  0  0  0  0  0  0  0  0  0  0  0
  187.4140  173.7120  136.8350 C   0  0  0  0  0  3  0  0  0  0  0  0
  185.4550  175.7700  135.2310 O   0  0  0  0  0  0  0  0  0  0  0  0
  184.9560  174.5480  135.5600 N   0  0  0  0  0  0  0  0  0  0  0  0
  182.8530  174.2830  134.3710 C   0  0  0  0  0  2  0  0  0  0  0  0
  183.8450  174.7730  136.4810 C   0  0  0  0  0  2  0  0  0  0  0  0
  184.3470  173.9830  134.3550 C   0  0  0  0  0  2  0  0  0  0  0  0
  182.6020  175.0220  135.6590 C   0  0  0  0  0  2  0  0  0  0  0  0
  187.8650  177.6390  141.4730 C   0  0  0  0  0  2  0  0  0  0  0  0
  188.2680  177.4120  142.9320 C   0  0  0  0  0  2  0  0  0  0  0  0
  185.8910  178.1350  143.2700 C   0  0  0  0  0  0  0  0  0  0  0  0
  185.6370  177.8600  142.0720 O   0  0  0  0  0  0  0  0  0  0  0  0
  187.1960  177.8490  143.8120 N   0  0  0  0  0  0  0  0  0  0  0  0
  184.8200  178.7600  144.0930 C   0  0  0  0  0  1  0  0  0  0  0  0
  187.5520  178.0490  145.2190 C   0  0  1  0  0  3  0  0  0  0  0  0
  186.6420  177.2360  146.1290 C   0  0  0  0  0  1  0  0  0  0  0  0
  191.3020  177.7600  144.4480 C   0  0  2  0  0  3  0  0  0  0  0  0
  190.0610  178.6230  144.7110 C   0  0  0  0  0  2  0  0  0  0  0  0
  190.8390  176.6570  146.5990 C   0  0  0  0  0  3  0  0  0  0  0  0
  189.0230  177.8400  145.4760 C   0  0  0  0  0  0  0  0  0  0  0  0
  191.7440  177.0700  145.7080 C   0  0  0  0  0  3  0  0  0  0  0  0
  189.4100  176.9480  146.3950 C   0  0  0  0  0  3  0  0  0  0  0  0
  192.3270  178.5560  143.9520 O   0  0  0  0  0  1  0  0  0  0  0  0
  1  9  1  0  0  0  0
  2  1  1  6  0  0  0
  2  3  1  0  0  0  0
  3 17  2  0  0  0  0
  3 12  2  0  0  0  0
  4  1  2  0  0  0  0
  6 13  1  0  0  0  0
  6 15  1  0  0  0  0
  7 13  1  0  0  0  0
  8  7  1  0  0  0  0
  9  5  1  6  0  0  0
  9 16  1  0  0  0  0
 10  2  1  0  0  0  0
 11 18  1  0  0  0  0
 11  6  2  0  0  0  0
 13 10  2  0  0  0  0
 14 18  1  0  0  0  0
 16  3  1  0  0  0  0
 16 40  1  0  0  0  0
 18 20  1  0  0  0  0
 19  8  2  0  0  0  0
 19 11  1  0  0  0  0
 20 15  2  0  0  0  0
 21  7  2  0  0  0  0
 21  4  1  0  0  0  0
 23 22  1  6  0  0  0
 23  4  1  0  0  0  0
 23 25  1  0  0  0  0
 24 25  1  0  0  0  0
 26 34  1  1  0  0  0
 26 32  1  0  0  0  0
 26 23  1  0  0  0  0
 28 30  1  0  0  0  0
 29 28  2  0  0  0  0
 30 27  1  0  0  0  0
 31 29  1  0  0  0  0
 31 32  2  0  0  0  0
 32 33  1  0  0  0  0
 33 30  2  0  0  0  0
 34 35  1  0  0  0  0
 35 37  1  0  0  0  0
 36 39  1  0  0  0  0
 38 36  1  0  0  0  0
 38 35  1  0  0  0  0
 39 37  1  0  0  0  0
 40 41  1  0  0  0  0
 41 44  1  0  0  0  0
 42 44  1  0  0  0  0
 42 45  1  0  0  0  0
 43 42  2  0  0  0  0
 44 46  1  0  0  0  0
 46 51  1  0  0  0  0
 46 47  1  1  0  0  0
 48 54  1  1  0  0  0
 48 49  1  0  0  0  0
 48 52  1  0  0  0  0
 49 51  1  0  0  0  0
 51 53  2  0  0  0  0
 52 50  2  0  0  0  0
 53 50  1  0  0  0  0
M  END
>  <MODEL>
6

>  <REMARK>
 VINA RESULT:      -6.4      1.691      3.023
  Name = 
  11 active torsions:
  status: ('A' for Active; 'I' for Inactive)
    1  A    between atoms: C_5  and  C_8
    2  A    between atoms: C_5  and  N_41
    3  A    between atoms: C_6  and  C_35
    4  A    between atoms: C_6  and  N_43
    5  A    between atoms: C_8  and  N_43
    6  A    between atoms: C_10  and  C_37
    7  A    between atoms: C_13  and  C_37
    8  A    between atoms: C_13  and  C_39
    9  A    between atoms: C_13  and  O_50
   10  A    between atoms: N_23  and  O_50
   11  A    between atoms: C_36  and  C_37
                            x       y       z     vdW  Elec       q    Type
                         _______ _______ _______ _____ _____    ______ ____

>  <TORSDO>
F 11

$$$$
=
 OpenBabel10222421523D

 54 60  0  0  1  0  0  0  0  0999 V2000
  186.2770  174.6620  136.0930 C   0  0  0  0  0  0  0  0  0  0  0  0
  186.2860  173.3610  136.2850 C   0  0  0  0  0  0  0  0  0  0  0  0
  187.8910  172.7600  136.2890 S   0  0  0  0  0  0  0  0  0  0  0  0
  185.0050  175.4150  136.2880 C   0  0  2  0  0  3  0  0  0  0  0  0
  187.7200  175.6830  134.3540 C   0  0  0  0  0  1  0  0  0  0  0  0
  183.0560  171.6010  135.8900 C   0  0  0  0  0  0  0  0  0  0  0  0
  183.4850  173.8580  135.1680 C   0  0  0  0  0  0  0  0  0  0  0  0
  182.3180  173.7630  134.3700 C   0  0  0  0  0  3  0  0  0  0  0  0
  187.6370  175.2770  135.8100 C   0  0  2  0  0  3  0  0  0  0  0  0
  185.1310  172.5150  136.3890 N   0  0  0  0  0  0  0  0  0  0  0  0
  181.9260  171.5920  135.1330 C   0  0  0  0  0  0  0  0  0  0  0  0
  188.2490  172.0870  137.5880 O   0  0  0  0  0  0  0  0  0  0  0  0
  183.9300  172.6910  135.8910 C   0  0  0  0  0  0  0  0  0  0  0  0
  180.1350  169.9680  134.5400 C   0  0  0  0  0  1  0  0  0  0  0  0
  183.1460  170.3360  136.4490 C   0  0  0  0  0  3  0  0  0  0  0  0
  188.6990  174.2850  136.0720 N   0  0  0  0  0  0  0  0  0  0  0  0
  188.1410  171.8520  135.1180 O   0  0  0  0  0  0  0  0  0  0  0  0
  181.3420  170.3970  135.2210 N   0  0  0  0  0  0  0  0  0  0  0  0
  181.5610  172.6300  134.3470 N   0  0  0  0  0  0  0  0  0  0  0  0
  182.0700  169.6300  136.0210 N   0  0  0  0  0  0  0  0  0  0  0  0
  184.0060  175.0460  135.2980 N   0  0  0  0  0  0  0  0  0  0  0  0
  184.8430  177.7220  135.3130 C   0  0  0  0  0  1  0  0  0  0  0  0
  185.0730  176.9300  136.6030 C   0  0  2  0  0  0  0  0  0  0  0  0
  186.9640  178.6700  136.6840 C   0  0  0  0  0  1  0  0  0  0  0  0
  186.4300  177.3430  137.2070 C   0  0  0  0  0  2  0  0  0  0  0  0
  183.9580  177.2810  137.6260 C   0  0  1  0  0  3  0  0  0  0  0  0
  180.6100  173.9310  138.8040 F   0  0  0  0  0  0  0  0  0  0  0  0
  180.0630  175.5190  137.1190 C   0  0  0  0  0  3  0  0  0  0  0  0
  180.4310  176.6200  136.3390 C   0  0  0  0  0  3  0  0  0  0  0  0
  180.9630  174.9960  138.0510 C   0  0  0  0  0  0  0  0  0  0  0  0
  181.6950  177.1940  136.4910 C   0  0  0  0  0  3  0  0  0  0  0  0
  182.5970  176.6710  137.4260 C   0  0  0  0  0  0  0  0  0  0  0  0
  182.2270  175.5720  138.2030 C   0  0  0  0  0  3  0  0  0  0  0  0
  184.3500  177.4090  138.9840 O   0  0  0  0  0  0  0  0  0  0  0  0
  184.2130  178.7150  139.3390 N   0  0  0  0  0  0  0  0  0  0  0  0
  184.1210  178.7970  141.7670 C   0  0  0  0  0  2  0  0  0  0  0  0
  182.8280  178.8990  139.7680 C   0  0  0  0  0  2  0  0  0  0  0  0
  185.0180  178.9310  140.5420 C   0  0  0  0  0  2  0  0  0  0  0  0
  182.7400  178.5260  141.2290 C   0  0  0  0  0  2  0  0  0  0  0  0
  189.4700  174.6510  137.2660 C   0  0  0  0  0  2  0  0  0  0  0  0
  189.1860  176.0620  137.7900 C   0  0  0  0  0  2  0  0  0  0  0  0
  191.6890  176.1150  137.9430 C   0  0  0  0  0  0  0  0  0  0  0  0
  191.7640  175.2750  137.0130 O   0  0  0  0  0  0  0  0  0  0  0  0
  190.4040  176.6360  138.3390 N   0  0  0  0  0  0  0  0  0  0  0  0
  192.9480  176.5400  138.6130 C   0  0  0  0  0  1  0  0  0  0  0  0
  190.2290  177.6840  139.3470 C   0  0  1  0  0  3  0  0  0  0  0  0
  189.3490  178.8060  138.8150 C   0  0  0  0  0  1  0  0  0  0  0  0
  188.3180  177.5020  142.6710 C   0  0  2  0  0  3  0  0  0  0  0  0
  188.3620  177.3040  141.1510 C   0  0  0  0  0  2  0  0  0  0  0  0
  190.2850  176.0260  142.7960 C   0  0  0  0  0  3  0  0  0  0  0  0
  189.7860  177.1350  140.6790 C   0  0  0  0  0  0  0  0  0  0  0  0
  189.1590  176.4660  143.3650 C   0  0  0  0  0  3  0  0  0  0  0  0
  190.6670  176.4890  141.4510 C   0  0  0  0  0  3  0  0  0  0  0  0
  187.0030  177.4260  143.1140 O   0  0  0  0  0  1  0  0  0  0  0  0
  1  2  2  0  0  0  0
  1  4  1  0  0  0  0
  2  3  1  0  0  0  0
  2 10  1  0  0  0  0
  3 12  2  0  0  0  0
  4 23  1  6  0  0  0
  6 13  1  0  0  0  0
  6 15  1  0  0  0  0
  7 21  2  0  0  0  0
  7 13  1  0  0  0  0
  8  7  1  0  0  0  0
  9  5  1  6  0  0  0
  9 16  1  0  0  0  0
  9  1  1  0  0  0  0
 11 18  1  0  0  0  0
 11  6  2  0  0  0  0
 13 10  2  0  0  0  0
 14 18  1  0  0  0  0
 16  3  1  0  0  0  0
 16 40  1  0  0  0  0
 17  3  2  0  0  0  0
 18 20  1  0  0  0  0
 19  8  2  0  0  0  0
 19 11  1  0  0  0  0
 20 15  2  0  0  0  0
 21  4  1  0  0  0  0
 23 22  1  6  0  0  0
 23 25  1  0  0  0  0
 23 26  1  0  0  0  0
 24 25  1  0  0  0  0
 26 34  1  1  0  0  0
 28 30  1  0  0  0  0
 29 31  1  0  0  0  0
 29 28  2  0  0  0  0
 30 33  2  0  0  0  0
 30 27  1  0  0  0  0
 31 32  2  0  0  0  0
 32 26  1  0  0  0  0
 32 33  1  0  0  0  0
 34 35  1  0  0  0  0
 35 37  1  0  0  0  0
 35 38  1  0  0  0  0
 37 39  1  0  0  0  0
 38 36  1  0  0  0  0
 39 36  1  0  0  0  0
 40 41  1  0  0  0  0
 41 44  1  0  0  0  0
 42 44  1  0  0  0  0
 42 45  1  0  0  0  0
 43 42  2  0  0  0  0
 44 46  1  0  0  0  0
 46 47  1  6  0  0  0
 46 51  1  0  0  0  0
 48 54  1  1  0  0  0
 48 52  1  0  0  0  0
 49 48  1  0  0  0  0
 50 52  2  0  0  0  0
 51 49  1  0  0  0  0
 51 53  2  0  0  0  0
 53 50  1  0  0  0  0
M  END
>  <MODEL>
7

>  <REMARK>
 VINA RESULT:      -6.3      3.187      7.714
  Name = 
  11 active torsions:
  status: ('A' for Active; 'I' for Inactive)
    1  A    between atoms: C_5  and  C_8
    2  A    between atoms: C_5  and  N_41
    3  A    between atoms: C_6  and  C_35
    4  A    between atoms: C_6  and  N_43
    5  A    between atoms: C_8  and  N_43
    6  A    between atoms: C_10  and  C_37
    7  A    between atoms: C_13  and  C_37
    8  A    between atoms: C_13  and  C_39
    9  A    between atoms: C_13  and  O_50
   10  A    between atoms: N_23  and  O_50
   11  A    between atoms: C_36  and  C_37
                            x       y       z     vdW  Elec       q    Type
                         _______ _______ _______ _____ _____    ______ ____

>  <TORSDO>
F 11

$$$$
=
 OpenBabel10222421523D

 54 60  0  0  1  0  0  0  0  0999 V2000
  187.7260  177.1680  137.6950 C   0  0  0  0  0  0  0  0  0  0  0  0
  186.7260  176.5810  137.0740 C   0  0  0  0  0  0  0  0  0  0  0  0
  187.2370  175.9450  135.5660 S   0  0  0  0  0  0  0  0  0  0  0  0
  187.5560  177.5780  139.1180 C   0  0  2  0  0  3  0  0  0  0  0  0
  189.2590  178.6720  136.4560 C   0  0  0  0  0  1  0  0  0  0  0  0
  183.3300  177.2730  138.3700 C   0  0  0  0  0  0  0  0  0  0  0  0
  185.3030  178.5230  138.9570 C   0  0  0  0  0  0  0  0  0  0  0  0
  184.4440  179.5380  139.4440 C   0  0  0  0  0  3  0  0  0  0  0  0
  189.0170  177.2440  136.8980 C   0  0  2  0  0  3  0  0  0  0  0  0
  185.3630  176.5370  137.5230 N   0  0  0  0  0  0  0  0  0  0  0  0
  182.5650  178.2680  138.8920 C   0  0  0  0  0  0  0  0  0  0  0  0
  187.0410  174.4550  135.4750 O   0  0  0  0  0  0  0  0  0  0  0  0
  184.7220  177.3750  138.3020 C   0  0  0  0  0  0  0  0  0  0  0  0
  180.1400  178.7880  139.1130 C   0  0  0  0  0  1  0  0  0  0  0  0
  182.4410  176.3410  137.8590 C   0  0  0  0  0  3  0  0  0  0  0  0
  188.9100  176.4010  135.6900 N   0  0  0  0  0  0  0  0  0  0  0  0
  186.5740  176.6540  134.4190 O   0  0  0  0  0  0  0  0  0  0  0  0
  181.2770  177.9730  138.7250 N   0  0  0  0  0  0  0  0  0  0  0  0
  183.0880  179.4100  139.3930 N   0  0  0  0  0  0  0  0  0  0  0  0
  181.1890  176.8030  138.1050 N   0  0  0  0  0  0  0  0  0  0  0  0
  186.5670  178.6360  139.2560 N   0  0  0  0  0  0  0  0  0  0  0  0
  189.3760  179.1630  139.8070 C   0  0  0  0  0  1  0  0  0  0  0  0
  188.8150  177.7520  140.0020 C   0  0  2  0  0  0  0  0  0  0  0  0
  191.3250  177.3020  139.6760 C   0  0  0  0  0  1  0  0  0  0  0  0
  189.9150  176.7260  139.6630 C   0  0  0  0  0  2  0  0  0  0  0  0
  188.4140  177.5610  141.4910 C   0  0  1  0  0  3  0  0  0  0  0  0
  191.8740  179.3920  144.4050 F   0  0  0  0  0  0  0  0  0  0  0  0
  191.5420  177.0360  144.4010 C   0  0  0  0  0  3  0  0  0  0  0  0
  190.8570  175.9190  143.9130 C   0  0  0  0  0  3  0  0  0  0  0  0
  191.2120  178.3120  143.9360 C   0  0  0  0  0  0  0  0  0  0  0  0
  189.8450  176.0790  142.9640 C   0  0  0  0  0  3  0  0  0  0  0  0
  189.5120  177.3570  142.4990 C   0  0  0  0  0  0  0  0  0  0  0  0
  190.1980  178.4700  142.9870 C   0  0  0  0  0  3  0  0  0  0  0  0
  187.3190  178.3300  141.9640 O   0  0  0  0  0  0  0  0  0  0  0  0
  186.4050  177.4750  142.4980 N   0  0  0  0  0  0  0  0  0  0  0  0
  185.0790  178.7410  144.0950 C   0  0  0  0  0  2  0  0  0  0  0  0
  186.8510  177.1660  143.8550 C   0  0  0  0  0  2  0  0  0  0  0  0
  185.1540  178.2160  142.6660 C   0  0  0  0  0  2  0  0  0  0  0  0
  186.3290  178.2450  144.7740 C   0  0  0  0  0  2  0  0  0  0  0  0
  189.7750  175.2200  135.8020 C   0  0  0  0  0  2  0  0  0  0  0  0
  190.9170  175.3710  136.8110 C   0  0  0  0  0  2  0  0  0  0  0  0
  192.1470  174.1820  134.9760 C   0  0  0  0  0  0  0  0  0  0  0  0
  191.0700  174.0390  134.3470 O   0  0  0  0  0  0  0  0  0  0  0  0
  192.1660  174.9330  136.2070 N   0  0  0  0  0  0  0  0  0  0  0  0
  193.3770  173.5550  134.4210 C   0  0  0  0  0  1  0  0  0  0  0  0
  193.3880  175.2290  136.9580 C   0  0  1  0  0  3  0  0  0  0  0  0
  193.7690  174.0600  137.8560 C   0  0  0  0  0  1  0  0  0  0  0  0
  196.9820  175.7450  135.7130 C   0  0  2  0  0  3  0  0  0  0  0  0
  195.7320  174.8640  135.8400 C   0  0  0  0  0  2  0  0  0  0  0  0
  195.5270  177.4470  134.6900 C   0  0  0  0  0  3  0  0  0  0  0  0
  194.5060  175.7130  136.0720 C   0  0  0  0  0  0  0  0  0  0  0  0
  196.7350  176.8800  134.7590 C   0  0  0  0  0  3  0  0  0  0  0  0
  194.4090  176.9100  135.4830 C   0  0  0  0  0  3  0  0  0  0  0  0
  198.0530  174.9750  135.2760 O   0  0  0  0  0  1  0  0  0  0  0  0
  1  4  1  0  0  0  0
  2 10  1  0  0  0  0
  2  1  2  0  0  0  0
  3 16  1  0  0  0  0
  3  2  1  0  0  0  0
  4 21  1  0  0  0  0
  4 23  1  6  0  0  0
  6 11  2  0  0  0  0
  7 21  2  0  0  0  0
  7  8  1  0  0  0  0
  9  5  1  6  0  0  0
  9  1  1  0  0  0  0
 10 13  2  0  0  0  0
 11 19  1  0  0  0  0
 12  3  2  0  0  0  0
 13  6  1  0  0  0  0
 13  7  1  0  0  0  0
 15 20  2  0  0  0  0
 15  6  1  0  0  0  0
 16 40  1  0  0  0  0
 16  9  1  0  0  0  0
 17  3  2  0  0  0  0
 18 11  1  0  0  0  0
 18 14  1  0  0  0  0
 19  8  2  0  0  0  0
 20 18  1  0  0  0  0
 23 22  1  6  0  0  0
 23 26  1  0  0  0  0
 25 24  1  0  0  0  0
 25 23  1  0  0  0  0
 26 34  1  1  0  0  0
 26 32  1  0  0  0  0
 29 28  2  0  0  0  0
 30 28  1  0  0  0  0
 30 27  1  0  0  0  0
 31 29  1  0  0  0  0
 32 31  2  0  0  0  0
 32 33  1  0  0  0  0
 33 30  2  0  0  0  0
 34 35  1  0  0  0  0
 35 38  1  0  0  0  0
 35 37  1  0  0  0  0
 36 39  1  0  0  0  0
 37 39  1  0  0  0  0
 38 36  1  0  0  0  0
 40 41  1  0  0  0  0
 42 44  1  0  0  0  0
 43 42  2  0  0  0  0
 44 41  1  0  0  0  0
 44 46  1  0  0  0  0
 45 42  1  0  0  0  0
 46 47  1  6  0  0  0
 48 54  1  6  0  0  0
 48 49  1  0  0  0  0
 49 51  1  0  0  0  0
 50 52  2  0  0  0  0
 50 53  1  0  0  0  0
 51 46  1  0  0  0  0
 52 48  1  0  0  0  0
 53 51  2  0  0  0  0
M  END
>  <MODEL>
8

>  <REMARK>
 VINA RESULT:      -6.3      3.474     10.169
  Name = 
  11 active torsions:
  status: ('A' for Active; 'I' for Inactive)
    1  A    between atoms: C_5  and  C_8
    2  A    between atoms: C_5  and  N_41
    3  A    between atoms: C_6  and  C_35
    4  A    between atoms: C_6  and  N_43
    5  A    between atoms: C_8  and  N_43
    6  A    between atoms: C_10  and  C_37
    7  A    between atoms: C_13  and  C_37
    8  A    between atoms: C_13  and  C_39
    9  A    between atoms: C_13  and  O_50
   10  A    between atoms: N_23  and  O_50
   11  A    between atoms: C_36  and  C_37
                            x       y       z     vdW  Elec       q    Type
                         _______ _______ _______ _____ _____    ______ ____

>  <TORSDO>
F 11

$$$$
=
 OpenBabel10222421523D

 54 60  0  0  1  0  0  0  0  0999 V2000
  187.2760  177.6790  138.5210 C   0  0  0  0  0  0  0  0  0  0  0  0
  186.7810  177.7410  139.7380 C   0  0  2  0  0  3  0  0  0  0  0  0
  185.2520  178.5170  139.7330 S   0  0  0  0  0  0  0  0  0  0  0  0
  188.4810  176.8380  138.2700 C   0  0  0  0  0  0  0  0  0  0  0  0
  187.1750  179.6530  137.0250 C   0  0  0  0  0  1  0  0  0  0  0  0
  189.1190  177.0460  142.5200 C   0  0  0  0  0  0  0  0  0  0  0  0
  189.7830  177.4720  140.2440 C   0  0  0  0  0  0  0  0  0  0  0  0
  191.0910  177.7080  140.7320 C   0  0  0  0  0  3  0  0  0  0  0  0
  186.4570  178.3940  137.4600 C   0  0  2  0  0  3  0  0  0  0  0  0
  187.4390  177.3120  140.9400 N   0  0  0  0  0  0  0  0  0  0  0  0
  190.4050  177.2470  142.9150 C   0  0  0  0  0  0  0  0  0  0  0  0
  184.1560  177.6300  140.2590 O   0  0  0  0  0  0  0  0  0  0  0  0
  188.7230  177.2210  141.1910 C   0  0  0  0  0  0  0  0  0  0  0  0
  191.6720  177.3090  145.0560 C   0  0  0  0  0  1  0  0  0  0  0  0
  188.4000  176.8090  143.6810 C   0  0  0  0  0  3  0  0  0  0  0  0
  185.1450  178.7810  138.0170 N   0  0  0  0  0  0  0  0  0  0  0  0
  185.2980  179.8250  140.4710 O   0  0  0  0  0  0  0  0  0  0  0  0
  190.4850  177.1350  144.2400 N   0  0  0  0  0  0  0  0  0  0  0  0
  191.3870  177.6100  142.0590 N   0  0  0  0  0  0  0  0  0  0  0  0
  189.2770  176.8630  144.7150 N   0  0  0  0  0  0  0  0  0  0  0  0
  189.6530  177.3650  138.9520 N   0  0  0  0  0  0  0  0  0  0  0  0
  189.7040  177.2790  136.1240 C   0  0  0  0  0  1  0  0  0  0  0  0
  188.7470  176.3200  136.8360 C   0  0  2  0  0  0  0  0  0  0  0  0
  187.6700  176.2800  134.5020 C   0  0  0  0  0  1  0  0  0  0  0  0
  187.4520  176.1990  136.0070 C   0  0  0  0  0  2  0  0  0  0  0  0
  189.4010  174.9140  136.9230 C   0  0  1  0  0  3  0  0  0  0  0  0
  185.3590  172.2740  137.6410 F   0  0  0  0  0  0  0  0  0  0  0  0
  186.9130  171.5220  136.0040 C   0  0  0  0  0  3  0  0  0  0  0  0
  188.1220  171.6980  135.3230 C   0  0  0  0  0  3  0  0  0  0  0  0
  186.5260  172.4430  136.9810 C   0  0  0  0  0  0  0  0  0  0  0  0
  188.9390  172.7920  135.6190 C   0  0  0  0  0  3  0  0  0  0  0  0
  188.5510  173.7160  136.5970 C   0  0  0  0  0  0  0  0  0  0  0  0
  187.3440  173.5370  137.2750 C   0  0  0  0  0  3  0  0  0  0  0  0
  190.7510  174.8070  136.4990 O   0  0  0  0  0  0  0  0  0  0  0  0
  191.4730  174.2820  137.5260 N   0  0  0  0  0  0  0  0  0  0  0  0
  193.7010  175.2490  137.4100 C   0  0  0  0  0  2  0  0  0  0  0  0
  192.3970  173.3100  136.9470 C   0  0  0  0  0  2  0  0  0  0  0  0
  192.3240  175.3490  138.0560 C   0  0  0  0  0  2  0  0  0  0  0  0
  193.6340  174.0510  136.4990 C   0  0  0  0  0  2  0  0  0  0  0  0
  184.0700  177.9780  137.4230 C   0  0  0  0  0  2  0  0  0  0  0  0
  182.7490  178.7320  137.2410 C   0  0  0  0  0  2  0  0  0  0  0  0
  180.9770  177.2800  138.2620 C   0  0  0  0  0  0  0  0  0  0  0  0
  181.2200  177.7760  139.3890 O   0  0  0  0  0  0  0  0  0  0  0  0
  181.6580  177.7820  137.0940 N   0  0  0  0  0  0  0  0  0  0  0  0
  179.9860  176.1740  138.1770 C   0  0  0  0  0  1  0  0  0  0  0  0
  181.3720  177.3300  135.7310 C   0  0  1  0  0  3  0  0  0  0  0  0
  181.4300  178.4930  134.7500 C   0  0  0  0  0  1  0  0  0  0  0  0
  182.9900  173.8580  135.9790 C   0  0  2  0  0  3  0  0  0  0  0  0
  181.7750  174.7380  135.6610 C   0  0  0  0  0  2  0  0  0  0  0  0
  184.2420  175.2110  134.3470 C   0  0  0  0  0  3  0  0  0  0  0  0
  182.2110  176.1440  135.3280 C   0  0  0  0  0  0  0  0  0  0  0  0
  184.0530  174.0230  134.9290 C   0  0  0  0  0  3  0  0  0  0  0  0
  183.3570  176.3430  134.6680 C   0  0  0  0  0  3  0  0  0  0  0  0
  182.5940  172.5280  136.0560 O   0  0  0  0  0  1  0  0  0  0  0  0
  2  1  1  1  0  0  0
  2 10  1  0  0  0  0
  3  2  1  0  0  0  0
  3 12  2  0  0  0  0
  3 17  2  0  0  0  0
  4  1  2  0  0  0  0
  4 21  1  0  0  0  0
  6 11  2  0  0  0  0
  6 15  1  0  0  0  0
  7  8  1  0  0  0  0
  7 13  1  0  0  0  0
  8 19  2  0  0  0  0
  9  5  1  1  0  0  0
  9 16  1  0  0  0  0
  9  1  1  0  0  0  0
 10 13  2  0  0  0  0
 11 18  1  0  0  0  0
 13  6  1  0  0  0  0
 15 20  2  0  0  0  0
 16  3  1  0  0  0  0
 18 20  1  0  0  0  0
 18 14  1  0  0  0  0
 19 11  1  0  0  0  0
 21  7  2  0  0  0  0
 23 22  1  6  0  0  0
 23 26  1  0  0  0  0
 23  4  1  0  0  0  0
 24 25  1  0  0  0  0
 25 23  1  0  0  0  0
 26 34  1  6  0  0  0
 28 30  1  0  0  0  0
 29 31  1  0  0  0  0
 29 28  2  0  0  0  0
 30 33  2  0  0  0  0
 30 27  1  0  0  0  0
 31 32  2  0  0  0  0
 32 26  1  0  0  0  0
 32 33  1  0  0  0  0
 34 35  1  0  0  0  0
 35 38  1  0  0  0  0
 36 38  1  0  0  0  0
 37 35  1  0  0  0  0
 39 37  1  0  0  0  0
 39 36  1  0  0  0  0
 40 16  1  0  0  0  0
 41 40  1  0  0  0  0
 42 43  2  0  0  0  0
 44 41  1  0  0  0  0
 44 42  1  0  0  0  0
 45 42  1  0  0  0  0
 46 47  1  6  0  0  0
 46 44  1  0  0  0  0
 48 54  1  6  0  0  0
 49 48  1  0  0  0  0
 50 53  1  0  0  0  0
 50 52  2  0  0  0  0
 51 49  1  0  0  0  0
 51 46  1  0  0  0  0
 52 48  1  0  0  0  0
 53 51  2  0  0  0  0
M  END
>  <MODEL>
9

>  <REMARK>
 VINA RESULT:      -6.2      2.833      7.331
  Name = 
  11 active torsions:
  status: ('A' for Active; 'I' for Inactive)
    1  A    between atoms: C_5  and  C_8
    2  A    between atoms: C_5  and  N_41
    3  A    between atoms: C_6  and  C_35
    4  A    between atoms: C_6  and  N_43
    5  A    between atoms: C_8  and  N_43
    6  A    between atoms: C_10  and  C_37
    7  A    between atoms: C_13  and  C_37
    8  A    between atoms: C_13  and  C_39
    9  A    between atoms: C_13  and  O_50
   10  A    between atoms: N_23  and  O_50
   11  A    between atoms: C_36  and  C_37
                            x       y       z     vdW  Elec       q    Type
                         _______ _______ _______ _____ _____    ______ ____

>  <TORSDO>
F 11

$$$$
