=
 OpenBabel10232408263D

 45 50  0  0  1  0  0  0  0  0999 V2000
  185.4020  178.4160  141.9900 C   0  0  2  0  0  3  0  0  0  0  0  0
  184.1890  178.3710  141.0690 C   0  0  0  0  0  2  0  0  0  0  0  0
  184.3730  179.3150  139.8950 C   0  0  0  0  0  2  0  0  0  0  0  0
  182.9780  178.5930  138.1120 O   0  0  0  0  0  0  0  0  0  0  0  0
  184.1320  178.5890  138.6210 C   0  0  0  0  0  0  0  0  0  0  0  0
  185.2110  177.9180  137.9710 N   0  0  0  0  0  2  0  0  0  0  0  0
  185.0240  177.2260  136.7050 C   0  0  0  0  0  2  0  0  0  0  0  0
  184.9640  173.7050  135.7220 C   0  0  0  0  0  3  0  0  0  0  0  0
  185.6210  175.8570  136.7770 C   0  0  0  0  0  0  0  0  0  0  0  0
  188.9650  174.5600  137.4090 F   0  0  0  0  0  0  0  0  0  0  0  0
  186.1400  173.1430  135.4510 C   0  0  0  0  0  3  0  0  0  0  0  0
  186.9510  175.7670  136.8290 C   0  0  0  0  0  3  0  0  0  0  0  0
  184.7580  174.6230  136.8810 C   0  0  1  0  0  3  0  0  0  0  0  0
  187.3930  173.3950  136.1910 C   0  0  0  0  0  3  0  0  0  0  0  0
  187.7370  174.5150  136.8410 C   0  0  0  0  0  0  0  0  0  0  0  0
  182.5270  174.8830  136.0940 O   0  0  0  0  0  0  0  0  0  0  0  0
  182.7930  175.1710  138.3980 N   0  0  0  0  0  2  0  0  0  0  0  0
  183.3020  174.9060  137.0860 C   0  0  0  0  0  0  0  0  0  0  0  0
  181.3780  175.3810  138.6650 C   0  0  0  0  0  2  0  0  0  0  0  0
  181.2040  176.2760  139.8780 C   0  0  0  0  0  1  0  0  0  0  0  0
  185.1670  179.3340  143.0500 O   0  0  0  0  0  0  0  0  0  0  0  0
  184.4930  178.9740  144.2230 C   0  0  0  0  0  0  0  0  0  0  0  0
  183.2530  179.1830  144.3350 O   0  0  0  0  0  0  0  0  0  0  0  0
  184.8350  178.5170  146.5810 C   0  0  0  0  0  2  0  0  0  0  0  0
  185.2340  178.3460  145.3290 C   0  0  0  0  0  0  0  0  0  0  0  0
  186.4540  177.5180  145.0730 C   0  0  0  0  0  2  0  0  0  0  0  0
  190.2250  178.1720  145.1290 N   0  0  0  0  0  4  0  0  0  0  0  0
  191.7240  176.3670  146.2150 S   0  0  0  0  0  1  0  0  0  0  0  0
  191.4520  178.2680  144.3140 C   0  0  0  0  0  2  0  0  0  0  0  0
  189.5090  176.6080  144.4840 N   0  0  0  0  0  0  0  0  0  0  0  0
  187.6640  178.2720  145.3670 N   0  0  0  0  0  0  0  0  0  0  0  0
  188.9590  177.7660  145.0470 C   0  0  0  0  0  0  0  0  0  0  0  0
  190.9520  177.0850  144.7320 C   0  0  2  0  0  0  0  0  0  0  0  0
  186.6140  178.8760  141.2040 C   0  0  0  0  0  2  0  0  0  0  0  0
  187.8760  178.2370  141.7560 C   0  0  0  0  0  2  0  0  0  0  0  0
  189.9170  177.0730  140.9000 C   0  0  0  0  0  3  0  0  0  0  0  0
  188.7910  177.8630  140.6420 C   0  0  0  0  0  0  0  0  0  0  0  0
  189.3860  177.9360  138.2940 C   0  0  0  0  0  3  0  0  0  0  0  0
  188.5310  178.2980  139.3370 C   0  0  0  0  0  3  0  0  0  0  0  0
  190.7750  176.7140  139.8560 C   0  0  0  0  0  3  0  0  0  0  0  0
  190.5130  177.1400  138.5510 C   0  0  0  0  0  0  0  0  0  0  0  0
  191.3960  176.7480  137.4950 N   0  0  0  0  0  2  0  0  0  0  0  0
  193.4720  176.0520  136.5090 C   0  0  0  0  0  2  0  0  0  0  0  0
  193.7210  176.9240  137.5850 O   0  0  0  0  0  0  0  0  0  0  0  0
  192.6420  176.0320  137.7310 C   0  0  1  0  0  3  0  0  0  0  0  0
  1  2  1  6  0  0  0
  1 21  1  0  0  0  0
  3  2  1  0  0  0  0
  4  5  2  0  0  0  0
  5  3  1  0  0  0  0
  6  5  1  0  0  0  0
  7  9  1  0  0  0  0
  7  6  1  0  0  0  0
  8 13  1  0  0  0  0
  9 12  2  0  0  0  0
  9 13  1  0  0  0  0
 11  8  2  0  0  0  0
 11 14  1  0  0  0  0
 12 15  1  0  0  0  0
 13 18  1  6  0  0  0
 14 15  2  0  0  0  0
 15 10  1  0  0  0  0
 16 18  2  0  0  0  0
 17 19  1  0  0  0  0
 18 17  1  0  0  0  0
 19 20  1  0  0  0  0
 21 22  1  0  0  0  0
 22 23  2  0  0  0  0
 22 25  1  0  0  0  0
 25 24  2  0  0  0  0
 26 25  1  0  0  0  0
 26 31  1  0  0  0  0
 29 33  1  0  0  0  0
 29 27  1  0  0  0  0
 30 33  1  0  0  0  0
 30 32  1  0  0  0  0
 30 27  1  0  0  0  0
 32 27  1  0  0  0  0
 32 31  2  0  0  0  0
 33 27  1  0  0  0  0
 33 28  1  1  0  0  0
 34 35  1  0  0  0  0
 34  1  1  0  0  0  0
 37 36  1  0  0  0  0
 37 35  1  0  0  0  0
 38 41  2  0  0  0  0
 38 39  1  0  0  0  0
 39 37  2  0  0  0  0
 40 36  2  0  0  0  0
 41 40  1  0  0  0  0
 42 41  1  0  0  0  0
 43 44  1  0  0  0  0
 43 45  1  0  0  0  0
 44 45  1  0  0  0  0
 45 42  1  6  0  0  0
M  END
>  <MODEL>
1

>  <REMARK>
 VINA RESULT:      -7.3      0.000      0.000
  Name = 
  17 active torsions:
  status: ('A' for Active; 'I' for Inactive)
    1  A    between atoms: C_3  and  C_21
    2  A    between atoms: C_4  and  C_22
    3  A    between atoms: C_4  and  O_24
    4  A    between atoms: C_4  and  C_44
    5  A    between atoms: C_9  and  C_13
    6  A    between atoms: C_13  and  C_44
    7  A    between atoms: C_15  and  N_25
    8  A    between atoms: C_15  and  C_34
    9  A    between atoms: C_16  and  O_24
   10  A    between atoms: C_16  and  C_34
   11  A    between atoms: C_17  and  N_29
   12  A    between atoms: N_20  and  C_43
   13  A    between atoms: N_20  and  C_45
   14  A    between atoms: C_21  and  N_32
   15  A    between atoms: C_22  and  C_35
   16  A    between atoms: C_30  and  C_35
   17  A    between atoms: C_36  and  C_42
                            x       y       z     vdW  Elec       q    Type
                         _______ _______ _______ _____ _____    ______ ____

>  <TORSDO>
F 17

$$$$
=
 OpenBabel10232408263D

 45 50  0  0  1  0  0  0  0  0999 V2000
  190.1510  176.8960  138.5770 C   0  0  2  0  0  3  0  0  0  0  0  0
  188.9040  176.4880  137.8040 C   0  0  0  0  0  2  0  0  0  0  0  0
  188.5790  177.5130  136.7330 C   0  0  0  0  0  2  0  0  0  0  0  0
  187.1110  179.3790  136.6340 O   0  0  0  0  0  0  0  0  0  0  0  0
  187.3150  178.2160  137.0750 C   0  0  0  0  0  0  0  0  0  0  0  0
  186.3310  177.5580  137.8720 N   0  0  0  0  0  2  0  0  0  0  0  0
  185.0660  178.1980  138.2000 C   0  0  0  0  0  2  0  0  0  0  0  0
  183.3920  178.3660  141.4460 C   0  0  0  0  0  3  0  0  0  0  0  0
  185.0670  178.6330  139.6300 C   0  0  0  0  0  0  0  0  0  0  0  0
  187.6670  179.3130  142.0890 F   0  0  0  0  0  0  0  0  0  0  0  0
  184.1550  178.1710  142.5190 C   0  0  0  0  0  3  0  0  0  0  0  0
  186.2270  178.5820  140.2880 C   0  0  0  0  0  3  0  0  0  0  0  0
  183.8310  179.1970  140.2860 C   0  0  1  0  0  3  0  0  0  0  0  0
  185.5330  178.6720  142.6840 C   0  0  0  0  0  3  0  0  0  0  0  0
  186.4300  178.9070  141.7160 C   0  0  0  0  0  0  0  0  0  0  0  0
  181.8460  178.5300  139.1530 O   0  0  0  0  0  0  0  0  0  0  0  0
  182.5530  180.7090  138.6910 N   0  0  0  0  0  2  0  0  0  0  0  0
  182.6930  179.4430  139.3440 C   0  0  0  0  0  0  0  0  0  0  0  0
  181.4290  181.0270  137.8230 C   0  0  0  0  0  2  0  0  0  0  0  0
  180.3980  181.8410  138.5830 C   0  0  0  0  0  1  0  0  0  0  0  0
  191.0040  175.7700  138.7430 O   0  0  0  0  0  0  0  0  0  0  0  0
  191.4350  174.9870  137.6650 C   0  0  0  0  0  0  0  0  0  0  0  0
  191.0450  173.7930  137.5510 O   0  0  0  0  0  0  0  0  0  0  0  0
  192.0100  175.5640  135.3790 C   0  0  0  0  0  2  0  0  0  0  0  0
  192.3460  175.5610  136.6610 C   0  0  0  0  0  0  0  0  0  0  0  0
  193.6690  176.1390  137.0560 C   0  0  0  0  0  2  0  0  0  0  0  0
  196.8850  174.1550  137.6680 N   0  0  0  0  0  4  0  0  0  0  0  0
  197.9580  172.9810  135.6300 S   0  0  0  0  0  1  0  0  0  0  0  0
  198.3230  174.2450  137.9910 C   0  0  0  0  0  2  0  0  0  0  0  0
  196.7520  175.4280  136.3500 N   0  0  0  0  0  0  0  0  0  0  0  0
  194.5050  175.1330  137.6960 N   0  0  0  0  0  0  0  0  0  0  0  0
  195.8590  174.9210  137.3010 C   0  0  0  0  0  0  0  0  0  0  0  0
  197.8510  174.4200  136.7370 C   0  0  2  0  0  0  0  0  0  0  0  0
  189.7500  177.4110  139.9450 C   0  0  0  0  0  2  0  0  0  0  0  0
  190.5910  176.7540  141.0250 C   0  0  0  0  0  2  0  0  0  0  0  0
  188.9000  176.3630  142.8260 C   0  0  0  0  0  3  0  0  0  0  0  0
  190.0270  177.0560  142.3700 C   0  0  0  0  0  0  0  0  0  0  0  0
  190.0930  178.3040  144.4470 C   0  0  0  0  0  3  0  0  0  0  0  0
  190.6190  178.0310  143.1830 C   0  0  0  0  0  3  0  0  0  0  0  0
  188.3710  176.6390  144.0910 C   0  0  0  0  0  3  0  0  0  0  0  0
  188.9660  177.6050  144.9070 C   0  0  0  0  0  0  0  0  0  0  0  0
  188.4170  177.8610  146.2040 N   0  0  0  0  0  2  0  0  0  0  0  0
  188.6580  178.1890  148.5700 C   0  0  0  0  0  2  0  0  0  0  0  0
  187.9480  177.0000  148.3200 O   0  0  0  0  0  0  0  0  0  0  0  0
  188.9880  177.3140  147.4270 C   0  0  1  0  0  3  0  0  0  0  0  0
  1  2  1  6  0  0  0
  1 21  1  0  0  0  0
  1 34  1  0  0  0  0
  3  5  1  0  0  0  0
  3  2  1  0  0  0  0
  4  5  2  0  0  0  0
  5  6  1  0  0  0  0
  6  7  1  0  0  0  0
  7  9  1  0  0  0  0
  8 11  2  0  0  0  0
  9 13  1  0  0  0  0
  9 12  2  0  0  0  0
 11 14  1  0  0  0  0
 12 15  1  0  0  0  0
 13 18  1  6  0  0  0
 13  8  1  0  0  0  0
 15 10  1  0  0  0  0
 15 14  2  0  0  0  0
 16 18  2  0  0  0  0
 17 18  1  0  0  0  0
 19 20  1  0  0  0  0
 19 17  1  0  0  0  0
 22 21  1  0  0  0  0
 23 22  2  0  0  0  0
 24 25  2  0  0  0  0
 25 26  1  0  0  0  0
 25 22  1  0  0  0  0
 26 31  1  0  0  0  0
 27 29  1  0  0  0  0
 30 33  1  0  0  0  0
 30 32  1  0  0  0  0
 30 27  1  0  0  0  0
 32 27  1  0  0  0  0
 32 31  2  0  0  0  0
 33 28  1  6  0  0  0
 33 27  1  0  0  0  0
 33 29  1  0  0  0  0
 34 35  1  0  0  0  0
 35 37  1  0  0  0  0
 36 40  1  0  0  0  0
 37 36  2  0  0  0  0
 37 39  1  0  0  0  0
 38 41  1  0  0  0  0
 39 38  2  0  0  0  0
 40 41  2  0  0  0  0
 41 42  1  0  0  0  0
 44 43  1  0  0  0  0
 45 42  1  6  0  0  0
 45 44  1  0  0  0  0
 45 43  1  0  0  0  0
M  END
>  <MODEL>
2

>  <REMARK>
 VINA RESULT:      -7.2      3.523      8.069
  Name = 
  17 active torsions:
  status: ('A' for Active; 'I' for Inactive)
    1  A    between atoms: C_3  and  C_21
    2  A    between atoms: C_4  and  C_22
    3  A    between atoms: C_4  and  O_24
    4  A    between atoms: C_4  and  C_44
    5  A    between atoms: C_9  and  C_13
    6  A    between atoms: C_13  and  C_44
    7  A    between atoms: C_15  and  N_25
    8  A    between atoms: C_15  and  C_34
    9  A    between atoms: C_16  and  O_24
   10  A    between atoms: C_16  and  C_34
   11  A    between atoms: C_17  and  N_29
   12  A    between atoms: N_20  and  C_43
   13  A    between atoms: N_20  and  C_45
   14  A    between atoms: C_21  and  N_32
   15  A    between atoms: C_22  and  C_35
   16  A    between atoms: C_30  and  C_35
   17  A    between atoms: C_36  and  C_42
                            x       y       z     vdW  Elec       q    Type
                         _______ _______ _______ _____ _____    ______ ____

>  <TORSDO>
F 17

$$$$
=
 OpenBabel10232408263D

 45 50  0  0  1  0  0  0  0  0999 V2000
  185.3690  178.3410  142.0630 C   0  0  2  0  0  3  0  0  0  0  0  0
  184.1660  178.3890  141.1290 C   0  0  0  0  0  2  0  0  0  0  0  0
  184.5010  179.1620  139.8660 C   0  0  0  0  0  2  0  0  0  0  0  0
  182.7420  179.2200  138.2690 O   0  0  0  0  0  0  0  0  0  0  0  0
  183.7450  178.6010  138.7160 C   0  0  0  0  0  0  0  0  0  0  0  0
  184.1760  177.3830  138.1090 N   0  0  0  0  0  2  0  0  0  0  0  0
  183.4840  176.8190  136.9600 C   0  0  0  0  0  2  0  0  0  0  0  0
  186.0930  174.2580  136.9070 C   0  0  0  0  0  3  0  0  0  0  0  0
  183.8850  175.3900  136.7720 C   0  0  0  0  0  0  0  0  0  0  0  0
  182.1880  172.1900  137.1540 F   0  0  0  0  0  0  0  0  0  0  0  0
  185.7850  173.0830  137.4520 C   0  0  0  0  0  3  0  0  0  0  0  0
  183.0440  174.4520  137.2110 C   0  0  0  0  0  3  0  0  0  0  0  0
  185.1460  175.0140  136.0340 C   0  0  1  0  0  3  0  0  0  0  0  0
  184.4750  172.4100  137.3370 C   0  0  0  0  0  3  0  0  0  0  0  0
  183.2780  172.9930  137.1790 C   0  0  0  0  0  0  0  0  0  0  0  0
  185.3140  176.6870  134.3480 O   0  0  0  0  0  0  0  0  0  0  0  0
  187.0580  176.6850  135.9040 N   0  0  0  0  0  2  0  0  0  0  0  0
  185.8360  176.1650  135.3690 C   0  0  0  0  0  0  0  0  0  0  0  0
  187.7320  177.8460  135.3420 C   0  0  0  0  0  2  0  0  0  0  0  0
  189.1250  177.4650  134.8770 C   0  0  0  0  0  1  0  0  0  0  0  0
  185.1830  179.2580  143.1340 O   0  0  0  0  0  0  0  0  0  0  0  0
  184.4940  178.9190  144.3040 C   0  0  0  0  0  0  0  0  0  0  0  0
  183.2590  179.1540  144.4070 O   0  0  0  0  0  0  0  0  0  0  0  0
  184.7880  178.4380  146.6650 C   0  0  0  0  0  2  0  0  0  0  0  0
  185.2140  178.2820  145.4200 C   0  0  0  0  0  0  0  0  0  0  0  0
  186.4440  177.4630  145.1810 C   0  0  0  0  0  2  0  0  0  0  0  0
  190.2100  178.1450  145.2310 N   0  0  0  0  0  4  0  0  0  0  0  0
  191.7090  176.4290  146.4510 S   0  0  0  0  0  1  0  0  0  0  0  0
  191.4450  178.1960  144.4230 C   0  0  0  0  0  2  0  0  0  0  0  0
  189.5110  176.5370  144.6850 N   0  0  0  0  0  0  0  0  0  0  0  0
  187.6460  178.2430  145.4350 N   0  0  0  0  0  0  0  0  0  0  0  0
  188.9470  177.7260  145.1630 C   0  0  0  0  0  0  0  0  0  0  0  0
  190.9480  177.0390  144.9150 C   0  0  2  0  0  0  0  0  0  0  0  0
  186.6180  178.7300  141.2960 C   0  0  0  0  0  2  0  0  0  0  0  0
  187.8420  178.0770  141.9140 C   0  0  0  0  0  2  0  0  0  0  0  0
  190.0230  177.0860  141.1950 C   0  0  0  0  0  3  0  0  0  0  0  0
  188.8340  177.7410  140.8550 C   0  0  0  0  0  0  0  0  0  0  0  0
  189.5110  177.7520  138.5270 C   0  0  0  0  0  3  0  0  0  0  0  0
  188.5820  178.0780  139.5190 C   0  0  0  0  0  3  0  0  0  0  0  0
  190.9540  176.7640  140.2020 C   0  0  0  0  0  3  0  0  0  0  0  0
  190.7010  177.0900  138.8670 C   0  0  0  0  0  0  0  0  0  0  0  0
  191.6610  176.7370  137.8660 N   0  0  0  0  0  2  0  0  0  0  0  0
  193.5530  175.3340  137.4000 C   0  0  0  0  0  2  0  0  0  0  0  0
  193.8200  176.6520  136.9870 O   0  0  0  0  0  0  0  0  0  0  0  0
  193.0660  176.4990  138.1650 C   0  0  1  0  0  3  0  0  0  0  0  0
  1  2  1  6  0  0  0
  1 21  1  0  0  0  0
  3  2  1  0  0  0  0
  4  5  2  0  0  0  0
  5  3  1  0  0  0  0
  6  5  1  0  0  0  0
  7  6  1  0  0  0  0
  8 11  2  0  0  0  0
  9  7  1  0  0  0  0
  9 12  2  0  0  0  0
 10 15  1  0  0  0  0
 13 18  1  1  0  0  0
 13  9  1  0  0  0  0
 13  8  1  0  0  0  0
 14 11  1  0  0  0  0
 15 12  1  0  0  0  0
 15 14  2  0  0  0  0
 16 18  2  0  0  0  0
 18 17  1  0  0  0  0
 19 17  1  0  0  0  0
 20 19  1  0  0  0  0
 21 22  1  0  0  0  0
 22 23  2  0  0  0  0
 22 25  1  0  0  0  0
 25 24  2  0  0  0  0
 26 25  1  0  0  0  0
 26 31  1  0  0  0  0
 29 33  1  0  0  0  0
 29 27  1  0  0  0  0
 30 33  1  0  0  0  0
 30 32  1  0  0  0  0
 30 27  1  0  0  0  0
 32 27  1  0  0  0  0
 32 31  2  0  0  0  0
 33 27  1  0  0  0  0
 33 28  1  1  0  0  0
 34 35  1  0  0  0  0
 34  1  1  0  0  0  0
 37 36  1  0  0  0  0
 37 35  1  0  0  0  0
 38 41  2  0  0  0  0
 38 39  1  0  0  0  0
 39 37  2  0  0  0  0
 40 36  2  0  0  0  0
 41 40  1  0  0  0  0
 42 41  1  0  0  0  0
 43 45  1  0  0  0  0
 44 43  1  0  0  0  0
 44 45  1  0  0  0  0
 45 42  1  6  0  0  0
M  END
>  <MODEL>
3

>  <REMARK>
 VINA RESULT:      -7.0      1.630      2.666
  Name = 
  17 active torsions:
  status: ('A' for Active; 'I' for Inactive)
    1  A    between atoms: C_3  and  C_21
    2  A    between atoms: C_4  and  C_22
    3  A    between atoms: C_4  and  O_24
    4  A    between atoms: C_4  and  C_44
    5  A    between atoms: C_9  and  C_13
    6  A    between atoms: C_13  and  C_44
    7  A    between atoms: C_15  and  N_25
    8  A    between atoms: C_15  and  C_34
    9  A    between atoms: C_16  and  O_24
   10  A    between atoms: C_16  and  C_34
   11  A    between atoms: C_17  and  N_29
   12  A    between atoms: N_20  and  C_43
   13  A    between atoms: N_20  and  C_45
   14  A    between atoms: C_21  and  N_32
   15  A    between atoms: C_22  and  C_35
   16  A    between atoms: C_30  and  C_35
   17  A    between atoms: C_36  and  C_42
                            x       y       z     vdW  Elec       q    Type
                         _______ _______ _______ _____ _____    ______ ____

>  <TORSDO>
F 17

$$$$
=
 OpenBabel10232408263D

 45 50  0  0  1  0  0  0  0  0999 V2000
  189.0330  177.6190  137.8800 C   0  0  2  0  0  3  0  0  0  0  0  0
  189.3910  178.2430  139.2220 C   0  0  0  0  0  2  0  0  0  0  0  0
  189.4230  177.1870  140.3130 C   0  0  0  0  0  2  0  0  0  0  0  0
  187.7100  178.5480  141.2410 O   0  0  0  0  0  0  0  0  0  0  0  0
  188.4480  177.5350  141.3790 C   0  0  0  0  0  0  0  0  0  0  0  0
  188.3340  176.7040  142.5340 N   0  0  0  0  0  2  0  0  0  0  0  0
  187.3680  176.9900  143.5840 C   0  0  0  0  0  2  0  0  0  0  0  0
  187.3400  177.3950  147.2170 C   0  0  0  0  0  3  0  0  0  0  0  0
  188.0780  177.3680  144.8450 C   0  0  0  0  0  0  0  0  0  0  0  0
  191.5640  177.4080  145.8980 F   0  0  0  0  0  0  0  0  0  0  0  0
  188.4360  177.0100  147.8670 C   0  0  0  0  0  3  0  0  0  0  0  0
  189.3710  177.0540  144.9400 C   0  0  0  0  0  3  0  0  0  0  0  0
  187.3910  178.1550  145.9330 C   0  0  1  0  0  3  0  0  0  0  0  0
  189.8200  177.2070  147.3910 C   0  0  0  0  0  3  0  0  0  0  0  0
  190.2350  177.2810  146.1190 C   0  0  0  0  0  0  0  0  0  0  0  0
  185.2320  179.0020  146.4720 O   0  0  0  0  0  0  0  0  0  0  0  0
  185.6590  178.7920  144.1830 N   0  0  0  0  0  2  0  0  0  0  0  0
  186.0320  178.6640  145.5600 C   0  0  0  0  0  0  0  0  0  0  0  0
  184.3820  179.3480  143.7630 C   0  0  0  0  0  2  0  0  0  0  0  0
  183.8780  178.6210  142.5300 C   0  0  0  0  0  1  0  0  0  0  0  0
  190.2010  177.5000  137.0780 O   0  0  0  0  0  0  0  0  0  0  0  0
  190.4990  176.3430  136.3490 C   0  0  0  0  0  0  0  0  0  0  0  0
  190.5930  176.3900  135.0910 O   0  0  0  0  0  0  0  0  0  0  0  0
  191.7840  174.8820  137.7980 C   0  0  0  0  0  2  0  0  0  0  0  0
  190.7040  175.0660  137.0530 C   0  0  0  0  0  0  0  0  0  0  0  0
  189.7160  173.9490  136.9350 C   0  0  0  0  0  2  0  0  0  0  0  0
  185.8890  173.8990  136.8490 N   0  0  0  0  0  4  0  0  0  0  0  0
  184.7550  171.8200  135.8140 S   0  0  0  0  0  1  0  0  0  0  0  0
  184.6590  173.7930  137.6580 C   0  0  0  0  0  2  0  0  0  0  0  0
  186.8740  172.5120  137.5430 N   0  0  0  0  0  0  0  0  0  0  0  0
  188.3900  174.4590  136.6160 N   0  0  0  0  0  0  0  0  0  0  0  0
  187.2080  173.7340  136.9470 C   0  0  0  0  0  0  0  0  0  0  0  0
  185.3700  172.7090  137.2770 C   0  0  2  0  0  0  0  0  0  0  0  0
  188.0350  178.5060  137.1620 C   0  0  0  0  0  2  0  0  0  0  0  0
  187.0580  177.6640  136.3620 C   0  0  0  0  0  2  0  0  0  0  0  0
  185.5510  178.2680  138.2640 C   0  0  0  0  0  3  0  0  0  0  0  0
  185.7100  177.7000  136.9950 C   0  0  0  0  0  0  0  0  0  0  0  0
  183.3360  177.2170  136.9190 C   0  0  0  0  0  3  0  0  0  0  0  0
  184.6000  177.1700  136.3250 C   0  0  0  0  0  3  0  0  0  0  0  0
  184.2860  178.3110  138.8590 C   0  0  0  0  0  3  0  0  0  0  0  0
  183.1750  177.7900  138.1890 C   0  0  0  0  0  0  0  0  0  0  0  0
  181.8870  177.8580  138.8100 N   0  0  0  0  0  2  0  0  0  0  0  0
  180.4470  176.1130  139.6120 C   0  0  0  0  0  2  0  0  0  0  0  0
  181.7900  175.7030  139.6960 O   0  0  0  0  0  0  0  0  0  0  0  0
  181.5250  177.0570  139.9700 C   0  0  1  0  0  3  0  0  0  0  0  0
  1 34  1  6  0  0  0
  1  2  1  0  0  0  0
  2  3  1  0  0  0  0
  3  5  1  0  0  0  0
  4  5  2  0  0  0  0
  5  6  1  0  0  0  0
  6  7  1  0  0  0  0
  7  9  1  0  0  0  0
  8 11  2  0  0  0  0
  9 12  2  0  0  0  0
  9 13  1  0  0  0  0
 10 15  1  0  0  0  0
 12 15  1  0  0  0  0
 13 18  1  6  0  0  0
 13  8  1  0  0  0  0
 14 11  1  0  0  0  0
 15 14  2  0  0  0  0
 17 18  1  0  0  0  0
 18 16  2  0  0  0  0
 19 17  1  0  0  0  0
 20 19  1  0  0  0  0
 21  1  1  0  0  0  0
 22 25  1  0  0  0  0
 22 21  1  0  0  0  0
 23 22  2  0  0  0  0
 25 24  2  0  0  0  0
 26 25  1  0  0  0  0
 27 32  1  0  0  0  0
 27 33  1  0  0  0  0
 27 30  1  0  0  0  0
 27 29  1  0  0  0  0
 31 26  1  0  0  0  0
 31 32  2  0  0  0  0
 32 30  1  0  0  0  0
 33 28  1  6  0  0  0
 33 30  1  0  0  0  0
 33 29  1  0  0  0  0
 35 37  1  0  0  0  0
 35 34  1  0  0  0  0
 36 40  1  0  0  0  0
 37 36  2  0  0  0  0
 38 41  1  0  0  0  0
 39 38  2  0  0  0  0
 39 37  1  0  0  0  0
 41 42  1  0  0  0  0
 41 40  2  0  0  0  0
 43 44  1  0  0  0  0
 43 45  1  0  0  0  0
 44 45  1  0  0  0  0
 45 42  1  6  0  0  0
M  END
>  <MODEL>
4

>  <REMARK>
 VINA RESULT:      -6.9      3.240      9.079
  Name = 
  17 active torsions:
  status: ('A' for Active; 'I' for Inactive)
    1  A    between atoms: C_3  and  C_21
    2  A    between atoms: C_4  and  C_22
    3  A    between atoms: C_4  and  O_24
    4  A    between atoms: C_4  and  C_44
    5  A    between atoms: C_9  and  C_13
    6  A    between atoms: C_13  and  C_44
    7  A    between atoms: C_15  and  N_25
    8  A    between atoms: C_15  and  C_34
    9  A    between atoms: C_16  and  O_24
   10  A    between atoms: C_16  and  C_34
   11  A    between atoms: C_17  and  N_29
   12  A    between atoms: N_20  and  C_43
   13  A    between atoms: N_20  and  C_45
   14  A    between atoms: C_21  and  N_32
   15  A    between atoms: C_22  and  C_35
   16  A    between atoms: C_30  and  C_35
   17  A    between atoms: C_36  and  C_42
                            x       y       z     vdW  Elec       q    Type
                         _______ _______ _______ _____ _____    ______ ____

>  <TORSDO>
F 17

$$$$
=
 OpenBabel10232408263D

 45 50  0  0  1  0  0  0  0  0999 V2000
  188.9610  177.4170  138.0720 C   0  0  2  0  0  3  0  0  0  0  0  0
  189.3930  177.9140  139.4450 C   0  0  0  0  0  2  0  0  0  0  0  0
  190.0660  176.8010  140.2290 C   0  0  0  0  0  2  0  0  0  0  0  0
  190.4560  176.2860  142.5160 O   0  0  0  0  0  0  0  0  0  0  0  0
  189.8280  176.9940  141.6830 C   0  0  0  0  0  0  0  0  0  0  0  0
  188.9140  177.9980  142.1260 N   0  0  0  0  0  2  0  0  0  0  0  0
  188.6800  178.2420  143.5400 C   0  0  0  0  0  2  0  0  0  0  0  0
  185.8350  178.8790  145.7470 C   0  0  0  0  0  3  0  0  0  0  0  0
  187.2280  178.0670  143.8560 C   0  0  0  0  0  0  0  0  0  0  0  0
  184.2360  177.4720  141.8680 F   0  0  0  0  0  0  0  0  0  0  0  0
  184.6730  179.1500  145.1560 C   0  0  0  0  0  3  0  0  0  0  0  0
  186.3710  178.0700  142.8340 C   0  0  0  0  0  3  0  0  0  0  0  0
  186.7520  177.8040  145.2640 C   0  0  1  0  0  3  0  0  0  0  0  0
  184.1700  178.4970  143.9310 C   0  0  0  0  0  3  0  0  0  0  0  0
  184.8990  177.9750  142.9350 C   0  0  0  0  0  0  0  0  0  0  0  0
  187.6720  177.8610  147.4600 O   0  0  0  0  0  0  0  0  0  0  0  0
  189.0840  176.9630  145.8280 N   0  0  0  0  0  2  0  0  0  0  0  0
  187.8530  177.5590  146.2500 C   0  0  0  0  0  0  0  0  0  0  0  0
  190.1580  176.6350  146.7540 C   0  0  0  0  0  2  0  0  0  0  0  0
  191.4960  176.6960  146.0420 C   0  0  0  0  0  1  0  0  0  0  0  0
  190.0730  177.4220  137.1860 O   0  0  0  0  0  0  0  0  0  0  0  0
  190.4030  176.3210  136.3870 C   0  0  0  0  0  0  0  0  0  0  0  0
  190.5130  176.4520  135.1370 O   0  0  0  0  0  0  0  0  0  0  0  0
  191.7300  174.7720  137.7020 C   0  0  0  0  0  2  0  0  0  0  0  0
  190.6250  175.0050  137.0090 C   0  0  0  0  0  0  0  0  0  0  0  0
  189.6250  173.9020  136.8650 C   0  0  0  0  0  2  0  0  0  0  0  0
  185.7970  173.9460  136.8140 N   0  0  0  0  0  4  0  0  0  0  0  0
  184.6010  171.8570  135.8730 S   0  0  0  0  0  1  0  0  0  0  0  0
  184.5720  173.9040  137.6370 C   0  0  0  0  0  2  0  0  0  0  0  0
  186.7530  172.5630  137.5540 N   0  0  0  0  0  0  0  0  0  0  0  0
  188.3090  174.4330  136.5360 N   0  0  0  0  0  0  0  0  0  0  0  0
  187.1120  173.7520  136.9070 C   0  0  0  0  0  0  0  0  0  0  0  0
  185.2520  172.7880  137.2940 C   0  0  2  0  0  0  0  0  0  0  0  0
  187.8910  178.3370  137.5180 C   0  0  0  0  0  2  0  0  0  0  0  0
  186.7260  177.5280  136.9750 C   0  0  0  0  0  2  0  0  0  0  0  0
  185.4950  178.8020  138.7410 C   0  0  0  0  0  3  0  0  0  0  0  0
  185.4570  177.9540  137.6290 C   0  0  0  0  0  0  0  0  0  0  0  0
  183.0360  177.9210  137.7440 C   0  0  0  0  0  3  0  0  0  0  0  0
  184.2240  177.5100  137.1340 C   0  0  0  0  0  3  0  0  0  0  0  0
  184.3060  179.2100  139.3530 C   0  0  0  0  0  3  0  0  0  0  0  0
  183.0740  178.7760  138.8560 C   0  0  0  0  0  0  0  0  0  0  0  0
  181.8680  179.2180  139.4890 N   0  0  0  0  0  2  0  0  0  0  0  0
  179.9850  178.1240  140.5000 C   0  0  0  0  0  2  0  0  0  0  0  0
  181.0970  177.2620  140.4990 O   0  0  0  0  0  0  0  0  0  0  0  0
  181.3560  178.6270  140.7170 C   0  0  1  0  0  3  0  0  0  0  0  0
  1 34  1  6  0  0  0
  1  2  1  0  0  0  0
  2  3  1  0  0  0  0
  3  5  1  0  0  0  0
  5  6  1  0  0  0  0
  5  4  2  0  0  0  0
  6  7  1  0  0  0  0
  7  9  1  0  0  0  0
  9 13  1  0  0  0  0
 10 15  1  0  0  0  0
 11  8  2  0  0  0  0
 12 15  1  0  0  0  0
 12  9  2  0  0  0  0
 13  8  1  0  0  0  0
 13 18  1  1  0  0  0
 14 11  1  0  0  0  0
 15 14  2  0  0  0  0
 17 18  1  0  0  0  0
 17 19  1  0  0  0  0
 18 16  2  0  0  0  0
 20 19  1  0  0  0  0
 21  1  1  0  0  0  0
 22 25  1  0  0  0  0
 22 21  1  0  0  0  0
 23 22  2  0  0  0  0
 25 24  2  0  0  0  0
 26 25  1  0  0  0  0
 27 32  1  0  0  0  0
 27 33  1  0  0  0  0
 27 30  1  0  0  0  0
 27 29  1  0  0  0  0
 31 26  1  0  0  0  0
 31 32  2  0  0  0  0
 32 30  1  0  0  0  0
 33 28  1  6  0  0  0
 33 30  1  0  0  0  0
 33 29  1  0  0  0  0
 35 34  1  0  0  0  0
 35 37  1  0  0  0  0
 36 40  1  0  0  0  0
 37 36  2  0  0  0  0
 38 41  1  0  0  0  0
 39 37  1  0  0  0  0
 39 38  2  0  0  0  0
 41 40  2  0  0  0  0
 41 42  1  0  0  0  0
 43 45  1  0  0  0  0
 44 43  1  0  0  0  0
 44 45  1  0  0  0  0
 45 42  1  6  0  0  0
M  END
>  <MODEL>
5

>  <REMARK>
 VINA RESULT:      -6.9      3.272      9.312
  Name = 
  17 active torsions:
  status: ('A' for Active; 'I' for Inactive)
    1  A    between atoms: C_3  and  C_21
    2  A    between atoms: C_4  and  C_22
    3  A    between atoms: C_4  and  O_24
    4  A    between atoms: C_4  and  C_44
    5  A    between atoms: C_9  and  C_13
    6  A    between atoms: C_13  and  C_44
    7  A    between atoms: C_15  and  N_25
    8  A    between atoms: C_15  and  C_34
    9  A    between atoms: C_16  and  O_24
   10  A    between atoms: C_16  and  C_34
   11  A    between atoms: C_17  and  N_29
   12  A    between atoms: N_20  and  C_43
   13  A    between atoms: N_20  and  C_45
   14  A    between atoms: C_21  and  N_32
   15  A    between atoms: C_22  and  C_35
   16  A    between atoms: C_30  and  C_35
   17  A    between atoms: C_36  and  C_42
                            x       y       z     vdW  Elec       q    Type
                         _______ _______ _______ _____ _____    ______ ____

>  <TORSDO>
F 17

$$$$
=
 OpenBabel10232408263D

 45 50  0  0  1  0  0  0  0  0999 V2000
  189.6290  177.1880  138.8120 C   0  0  2  0  0  3  0  0  0  0  0  0
  189.4740  177.0970  140.3240 C   0  0  0  0  0  2  0  0  0  0  0  0
  190.8160  177.2770  141.0110 C   0  0  0  0  0  2  0  0  0  0  0  0
  191.2960  176.4440  143.1840 O   0  0  0  0  0  0  0  0  0  0  0  0
  190.6330  177.2580  142.4860 C   0  0  0  0  0  0  0  0  0  0  0  0
  189.7340  178.1800  143.1020 N   0  0  0  0  0  2  0  0  0  0  0  0
  189.5540  178.2180  144.5450 C   0  0  0  0  0  2  0  0  0  0  0  0
  186.7790  178.6790  146.8810 C   0  0  0  0  0  3  0  0  0  0  0  0
  188.1100  178.0290  144.8850 C   0  0  0  0  0  0  0  0  0  0  0  0
  185.0560  177.6450  142.9380 F   0  0  0  0  0  0  0  0  0  0  0  0
  185.6050  179.0140  146.3510 C   0  0  0  0  0  3  0  0  0  0  0  0
  187.2250  178.1320  143.8920 C   0  0  0  0  0  3  0  0  0  0  0  0
  187.6700  177.6440  146.2770 C   0  0  1  0  0  3  0  0  0  0  0  0
  185.0600  178.4800  145.0860 C   0  0  0  0  0  3  0  0  0  0  0  0
  185.7550  178.0430  144.0270 C   0  0  0  0  0  0  0  0  0  0  0  0
  188.6990  177.6020  148.4230 O   0  0  0  0  0  0  0  0  0  0  0  0
  189.9500  176.6100  146.7170 N   0  0  0  0  0  2  0  0  0  0  0  0
  188.7940  177.3000  147.2040 C   0  0  0  0  0  0  0  0  0  0  0  0
  191.0380  176.1870  147.5850 C   0  0  0  0  0  2  0  0  0  0  0  0
  192.2450  175.7910  146.7550 C   0  0  0  0  0  1  0  0  0  0  0  0
  190.9590  176.8450  138.4430 O   0  0  0  0  0  0  0  0  0  0  0  0
  191.2550  175.7360  137.6410 C   0  0  0  0  0  0  0  0  0  0  0  0
  191.1300  174.5680  138.1000 O   0  0  0  0  0  0  0  0  0  0  0  0
  190.8880  175.7250  135.2430 C   0  0  0  0  0  2  0  0  0  0  0  0
  191.7140  175.9350  136.2570 C   0  0  0  0  0  0  0  0  0  0  0  0
  193.1180  176.3620  135.9600 C   0  0  0  0  0  2  0  0  0  0  0  0
  195.6260  173.7090  137.1130 N   0  0  0  0  0  4  0  0  0  0  0  0
  197.8110  174.5450  138.2120 S   0  0  0  0  0  1  0  0  0  0  0  0
  195.8960  172.6410  138.0960 C   0  0  0  0  0  2  0  0  0  0  0  0
  195.0360  175.0510  138.2210 N   0  0  0  0  0  0  0  0  0  0  0  0
  193.9910  175.2060  135.8060 N   0  0  0  0  0  0  0  0  0  0  0  0
  194.7820  174.7150  136.8860 C   0  0  0  0  0  0  0  0  0  0  0  0
  196.1000  173.9480  138.3730 C   0  0  2  0  0  0  0  0  0  0  0  0
  189.3470  178.6080  138.3610 C   0  0  0  0  0  2  0  0  0  0  0  0
  188.7770  178.6120  136.9540 C   0  0  0  0  0  2  0  0  0  0  0  0
  187.3160  176.7710  136.0970 C   0  0  0  0  0  3  0  0  0  0  0  0
  187.4750  177.8880  136.9250 C   0  0  0  0  0  0  0  0  0  0  0  0
  185.1940  177.6310  137.7020 C   0  0  0  0  0  3  0  0  0  0  0  0
  186.4090  178.3190  137.7250 C   0  0  0  0  0  3  0  0  0  0  0  0
  186.0980  176.0850  136.0730 C   0  0  0  0  0  3  0  0  0  0  0  0
  185.0350  176.5080  136.8760 C   0  0  0  0  0  0  0  0  0  0  0  0
  183.8030  175.7810  136.8460 N   0  0  0  0  0  2  0  0  0  0  0  0
  182.3400  173.9090  137.1940 C   0  0  0  0  0  2  0  0  0  0  0  0
  183.6220  173.4560  136.8330 O   0  0  0  0  0  0  0  0  0  0  0  0
  183.5640  174.5950  137.6560 C   0  0  1  0  0  3  0  0  0  0  0  0
  1 34  1  1  0  0  0
  1  2  1  0  0  0  0
  2  3  1  0  0  0  0
  3  5  1  0  0  0  0
  5  6  1  0  0  0  0
  5  4  2  0  0  0  0
  6  7  1  0  0  0  0
  7  9  1  0  0  0  0
  9 13  1  0  0  0  0
 10 15  1  0  0  0  0
 11  8  2  0  0  0  0
 12 15  1  0  0  0  0
 12  9  2  0  0  0  0
 13  8  1  0  0  0  0
 13 18  1  1  0  0  0
 14 11  1  0  0  0  0
 15 14  2  0  0  0  0
 17 18  1  0  0  0  0
 17 19  1  0  0  0  0
 18 16  2  0  0  0  0
 20 19  1  0  0  0  0
 21  1  1  0  0  0  0
 22 23  2  0  0  0  0
 22 21  1  0  0  0  0
 24 25  2  0  0  0  0
 25 22  1  0  0  0  0
 26 25  1  0  0  0  0
 27 29  1  0  0  0  0
 27 30  1  0  0  0  0
 27 33  1  0  0  0  0
 29 33  1  0  0  0  0
 30 33  1  0  0  0  0
 31 26  1  0  0  0  0
 31 32  2  0  0  0  0
 32 27  1  0  0  0  0
 32 30  1  0  0  0  0
 33 28  1  1  0  0  0
 35 34  1  0  0  0  0
 36 37  1  0  0  0  0
 37 35  1  0  0  0  0
 37 39  2  0  0  0  0
 38 39  1  0  0  0  0
 40 36  2  0  0  0  0
 40 41  1  0  0  0  0
 41 38  2  0  0  0  0
 42 41  1  0  0  0  0
 43 45  1  0  0  0  0
 44 43  1  0  0  0  0
 44 45  1  0  0  0  0
 45 42  1  6  0  0  0
M  END
>  <MODEL>
6

>  <REMARK>
 VINA RESULT:      -6.8      3.163      9.385
  Name = 
  17 active torsions:
  status: ('A' for Active; 'I' for Inactive)
    1  A    between atoms: C_3  and  C_21
    2  A    between atoms: C_4  and  C_22
    3  A    between atoms: C_4  and  O_24
    4  A    between atoms: C_4  and  C_44
    5  A    between atoms: C_9  and  C_13
    6  A    between atoms: C_13  and  C_44
    7  A    between atoms: C_15  and  N_25
    8  A    between atoms: C_15  and  C_34
    9  A    between atoms: C_16  and  O_24
   10  A    between atoms: C_16  and  C_34
   11  A    between atoms: C_17  and  N_29
   12  A    between atoms: N_20  and  C_43
   13  A    between atoms: N_20  and  C_45
   14  A    between atoms: C_21  and  N_32
   15  A    between atoms: C_22  and  C_35
   16  A    between atoms: C_30  and  C_35
   17  A    between atoms: C_36  and  C_42
                            x       y       z     vdW  Elec       q    Type
                         _______ _______ _______ _____ _____    ______ ____

>  <TORSDO>
F 17

$$$$
=
 OpenBabel10232408263D

 45 50  0  0  1  0  0  0  0  0999 V2000
  190.4310  177.1110  138.6400 C   0  0  2  0  0  3  0  0  0  0  0  0
  189.2540  176.5210  137.8750 C   0  0  0  0  0  2  0  0  0  0  0  0
  188.8980  177.3930  136.6850 C   0  0  0  0  0  2  0  0  0  0  0  0
  187.4570  179.2650  136.4220 O   0  0  0  0  0  0  0  0  0  0  0  0
  187.6460  178.1430  136.9650 C   0  0  0  0  0  0  0  0  0  0  0  0
  186.6550  177.5740  137.8210 N   0  0  0  0  0  2  0  0  0  0  0  0
  185.4000  178.2600  138.0930 C   0  0  0  0  0  2  0  0  0  0  0  0
  183.5450  178.2900  141.2430 C   0  0  0  0  0  3  0  0  0  0  0  0
  185.3220  178.6300  139.5400 C   0  0  0  0  0  0  0  0  0  0  0  0
  187.7790  179.1780  142.1720 F   0  0  0  0  0  0  0  0  0  0  0  0
  184.2440  178.0410  142.3480 C   0  0  0  0  0  3  0  0  0  0  0  0
  186.4420  178.5410  140.2590 C   0  0  0  0  0  3  0  0  0  0  0  0
  184.0520  179.1710  140.1490 C   0  0  1  0  0  3  0  0  0  0  0  0
  185.6130  178.5250  142.6140 C   0  0  0  0  0  3  0  0  0  0  0  0
  186.5650  178.7970  141.7100 C   0  0  0  0  0  0  0  0  0  0  0  0
  182.8740  180.6310  138.6840 O   0  0  0  0  0  0  0  0  0  0  0  0
  182.0780  178.4340  138.7270 N   0  0  0  0  0  2  0  0  0  0  0  0
  182.9710  179.4670  139.1560 C   0  0  0  0  0  0  0  0  0  0  0  0
  181.0570  178.6480  137.7120 C   0  0  0  0  0  2  0  0  0  0  0  0
  181.1320  177.5570  136.6610 C   0  0  0  0  0  1  0  0  0  0  0  0
  191.4570  176.1340  138.7710 O   0  0  0  0  0  0  0  0  0  0  0  0
  192.7950  176.4020  138.4600 C   0  0  0  0  0  0  0  0  0  0  0  0
  193.4760  177.1740  139.1900 O   0  0  0  0  0  0  0  0  0  0  0  0
  192.8540  175.9180  136.0830 C   0  0  0  0  0  2  0  0  0  0  0  0
  193.4110  175.7780  137.2770 C   0  0  0  0  0  0  0  0  0  0  0  0
  194.6620  174.9650  137.3930 C   0  0  0  0  0  2  0  0  0  0  0  0
  194.8850  171.1950  136.7700 N   0  0  0  0  0  4  0  0  0  0  0  0
  197.1350  170.0380  137.3010 S   0  0  0  0  0  1  0  0  0  0  0  0
  194.4390  169.8620  137.2220 C   0  0  0  0  0  2  0  0  0  0  0  0
  195.3650  171.9550  138.3720 N   0  0  0  0  0  0  0  0  0  0  0  0
  194.5630  173.7430  136.6080 N   0  0  0  0  0  0  0  0  0  0  0  0
  194.8910  172.4690  137.1590 C   0  0  0  0  0  0  0  0  0  0  0  0
  195.4580  170.5230  137.8130 C   0  0  2  0  0  0  0  0  0  0  0  0
  189.9750  177.5290  140.0240 C   0  0  0  0  0  2  0  0  0  0  0  0
  190.4650  176.5380  141.0640 C   0  0  0  0  0  2  0  0  0  0  0  0
  188.8600  176.2200  142.9560 C   0  0  0  0  0  3  0  0  0  0  0  0
  189.9480  176.9110  142.4110 C   0  0  0  0  0  0  0  0  0  0  0  0
  190.0660  178.2870  144.4030 C   0  0  0  0  0  3  0  0  0  0  0  0
  190.5470  177.9480  143.1360 C   0  0  0  0  0  3  0  0  0  0  0  0
  188.3760  176.5620  144.2220 C   0  0  0  0  0  3  0  0  0  0  0  0
  188.9770  177.5920  144.9520 C   0  0  0  0  0  0  0  0  0  0  0  0
  188.4750  177.9140  146.2530 N   0  0  0  0  0  2  0  0  0  0  0  0
  188.8580  178.1910  148.6060 C   0  0  0  0  0  2  0  0  0  0  0  0
  187.8820  177.2000  148.3920 O   0  0  0  0  0  0  0  0  0  0  0  0
  188.9390  177.2560  147.4660 C   0  0  1  0  0  3  0  0  0  0  0  0
  1  2  1  6  0  0  0
  1 21  1  0  0  0  0
  1 34  1  0  0  0  0
  3  5  1  0  0  0  0
  3  2  1  0  0  0  0
  4  5  2  0  0  0  0
  5  6  1  0  0  0  0
  6  7  1  0  0  0  0
  7  9  1  0  0  0  0
  8 11  2  0  0  0  0
  9 13  1  0  0  0  0
  9 12  2  0  0  0  0
 11 14  1  0  0  0  0
 12 15  1  0  0  0  0
 13 18  1  6  0  0  0
 13  8  1  0  0  0  0
 15 10  1  0  0  0  0
 15 14  2  0  0  0  0
 16 18  2  0  0  0  0
 17 18  1  0  0  0  0
 19 17  1  0  0  0  0
 20 19  1  0  0  0  0
 22 21  1  0  0  0  0
 22 23  2  0  0  0  0
 24 25  2  0  0  0  0
 25 26  1  0  0  0  0
 25 22  1  0  0  0  0
 27 32  1  0  0  0  0
 27 29  1  0  0  0  0
 27 33  1  0  0  0  0
 27 30  1  0  0  0  0
 29 33  1  0  0  0  0
 31 32  2  0  0  0  0
 31 26  1  0  0  0  0
 32 30  1  0  0  0  0
 33 28  1  6  0  0  0
 33 30  1  0  0  0  0
 34 35  1  0  0  0  0
 35 37  1  0  0  0  0
 36 40  1  0  0  0  0
 37 36  2  0  0  0  0
 37 39  1  0  0  0  0
 38 41  1  0  0  0  0
 39 38  2  0  0  0  0
 40 41  2  0  0  0  0
 41 42  1  0  0  0  0
 44 43  1  0  0  0  0
 45 42  1  6  0  0  0
 45 44  1  0  0  0  0
 45 43  1  0  0  0  0
M  END
>  <MODEL>
7

>  <REMARK>
 VINA RESULT:      -6.8      3.531      8.097
  Name = 
  17 active torsions:
  status: ('A' for Active; 'I' for Inactive)
    1  A    between atoms: C_3  and  C_21
    2  A    between atoms: C_4  and  C_22
    3  A    between atoms: C_4  and  O_24
    4  A    between atoms: C_4  and  C_44
    5  A    between atoms: C_9  and  C_13
    6  A    between atoms: C_13  and  C_44
    7  A    between atoms: C_15  and  N_25
    8  A    between atoms: C_15  and  C_34
    9  A    between atoms: C_16  and  O_24
   10  A    between atoms: C_16  and  C_34
   11  A    between atoms: C_17  and  N_29
   12  A    between atoms: N_20  and  C_43
   13  A    between atoms: N_20  and  C_45
   14  A    between atoms: C_21  and  N_32
   15  A    between atoms: C_22  and  C_35
   16  A    between atoms: C_30  and  C_35
   17  A    between atoms: C_36  and  C_42
                            x       y       z     vdW  Elec       q    Type
                         _______ _______ _______ _____ _____    ______ ____

>  <TORSDO>
F 17

$$$$
=
 OpenBabel10232408263D

 45 50  0  0  1  0  0  0  0  0999 V2000
  190.7210  177.2320  139.6760 C   0  0  2  0  0  3  0  0  0  0  0  0
  189.2570  177.6080  139.4880 C   0  0  0  0  0  2  0  0  0  0  0  0
  189.1040  178.6200  138.3660 C   0  0  0  0  0  2  0  0  0  0  0  0
  187.0640  179.2160  137.3040 O   0  0  0  0  0  0  0  0  0  0  0  0
  187.8940  178.3030  137.5640 C   0  0  0  0  0  0  0  0  0  0  0  0
  187.6960  176.9790  137.0690 N   0  0  0  0  0  2  0  0  0  0  0  0
  186.5440  176.6370  136.2500 C   0  0  0  0  0  2  0  0  0  0  0  0
  183.5010  174.6450  136.6210 C   0  0  0  0  0  3  0  0  0  0  0  0
  185.8440  175.4460  136.8230 C   0  0  0  0  0  0  0  0  0  0  0  0
  186.9110  172.1390  137.9150 F   0  0  0  0  0  0  0  0  0  0  0  0
  183.6470  173.3220  136.5840 C   0  0  0  0  0  3  0  0  0  0  0  0
  186.5380  174.3100  136.9150 C   0  0  0  0  0  3  0  0  0  0  0  0
  184.4380  175.5390  137.3630 C   0  0  1  0  0  3  0  0  0  0  0  0
  184.7660  172.5740  137.1920 C   0  0  0  0  0  3  0  0  0  0  0  0
  186.0180  173.0100  137.3910 C   0  0  0  0  0  0  0  0  0  0  0  0
  183.2220  177.3830  136.4750 O   0  0  0  0  0  0  0  0  0  0  0  0
  184.1260  177.7370  138.6010 N   0  0  0  0  0  2  0  0  0  0  0  0
  183.8990  176.9340  137.4380 C   0  0  0  0  0  0  0  0  0  0  0  0
  183.5660  179.0710  138.7570 C   0  0  0  0  0  2  0  0  0  0  0  0
  182.5670  179.0860  139.8990 C   0  0  0  0  0  1  0  0  0  0  0  0
  190.9130  175.8630  139.3400 O   0  0  0  0  0  0  0  0  0  0  0  0
  190.8240  175.3920  138.0240 C   0  0  0  0  0  0  0  0  0  0  0  0
  190.1060  174.3900  137.7550 O   0  0  0  0  0  0  0  0  0  0  0  0
  190.9750  176.3580  135.8030 C   0  0  0  0  0  2  0  0  0  0  0  0
  191.5700  176.0700  136.9510 C   0  0  0  0  0  0  0  0  0  0  0  0
  193.0110  176.4350  137.1220 C   0  0  0  0  0  2  0  0  0  0  0  0
  195.7600  173.7760  137.2800 N   0  0  0  0  0  4  0  0  0  0  0  0
  198.0780  174.5190  138.1520 S   0  0  0  0  0  1  0  0  0  0  0  0
  196.2300  172.5560  137.9660 C   0  0  0  0  0  2  0  0  0  0  0  0
  195.3320  174.8330  138.7210 N   0  0  0  0  0  0  0  0  0  0  0  0
  193.8780  175.3920  136.5940 N   0  0  0  0  0  0  0  0  0  0  0  0
  194.8600  174.7500  137.4050 C   0  0  0  0  0  0  0  0  0  0  0  0
  196.4390  173.7930  138.4660 C   0  0  2  0  0  0  0  0  0  0  0  0
  191.1110  177.4380  141.1270 C   0  0  0  0  0  2  0  0  0  0  0  0
  190.7400  176.2190  141.9520 C   0  0  0  0  0  2  0  0  0  0  0  0
  190.4420  177.1520  144.2540 C   0  0  0  0  0  3  0  0  0  0  0  0
  189.8700  176.6180  143.0930 C   0  0  0  0  0  0  0  0  0  0  0  0
  187.6670  176.8480  144.0790 C   0  0  0  0  0  3  0  0  0  0  0  0
  188.4800  176.4630  143.0110 C   0  0  0  0  0  3  0  0  0  0  0  0
  189.6270  177.5340  145.3250 C   0  0  0  0  0  3  0  0  0  0  0  0
  188.2400  177.3880  145.2410 C   0  0  0  0  0  0  0  0  0  0  0  0
  187.4250  177.8000  146.3430 N   0  0  0  0  0  2  0  0  0  0  0  0
  185.5290  179.0480  147.1250 C   0  0  0  0  0  2  0  0  0  0  0  0
  185.6820  179.2290  145.7380 O   0  0  0  0  0  0  0  0  0  0  0  0
  185.9800  177.9510  146.2460 C   0  0  1  0  0  3  0  0  0  0  0  0
  1  2  1  1  0  0  0
  1 34  1  0  0  0  0
  3  2  1  0  0  0  0
  4  5  2  0  0  0  0
  5  3  1  0  0  0  0
  6  5  1  0  0  0  0
  7  9  1  0  0  0  0
  7  6  1  0  0  0  0
  8 13  1  0  0  0  0
  9 12  2  0  0  0  0
  9 13  1  0  0  0  0
 11  8  2  0  0  0  0
 11 14  1  0  0  0  0
 12 15  1  0  0  0  0
 13 18  1  6  0  0  0
 14 15  2  0  0  0  0
 15 10  1  0  0  0  0
 16 18  2  0  0  0  0
 17 19  1  0  0  0  0
 18 17  1  0  0  0  0
 19 20  1  0  0  0  0
 21  1  1  0  0  0  0
 22 21  1  0  0  0  0
 23 22  2  0  0  0  0
 24 25  2  0  0  0  0
 25 26  1  0  0  0  0
 25 22  1  0  0  0  0
 27 32  1  0  0  0  0
 27 29  1  0  0  0  0
 27 33  1  0  0  0  0
 27 30  1  0  0  0  0
 29 33  1  0  0  0  0
 31 26  1  0  0  0  0
 31 32  2  0  0  0  0
 32 30  1  0  0  0  0
 33 28  1  6  0  0  0
 33 30  1  0  0  0  0
 34 35  1  0  0  0  0
 35 37  1  0  0  0  0
 36 40  1  0  0  0  0
 37 36  2  0  0  0  0
 38 41  1  0  0  0  0
 39 37  1  0  0  0  0
 39 38  2  0  0  0  0
 41 40  2  0  0  0  0
 41 42  1  0  0  0  0
 44 45  1  0  0  0  0
 44 43  1  0  0  0  0
 45 42  1  1  0  0  0
 45 43  1  0  0  0  0
M  END
>  <MODEL>
8

>  <REMARK>
 VINA RESULT:      -6.8      2.789      7.128
  Name = 
  17 active torsions:
  status: ('A' for Active; 'I' for Inactive)
    1  A    between atoms: C_3  and  C_21
    2  A    between atoms: C_4  and  C_22
    3  A    between atoms: C_4  and  O_24
    4  A    between atoms: C_4  and  C_44
    5  A    between atoms: C_9  and  C_13
    6  A    between atoms: C_13  and  C_44
    7  A    between atoms: C_15  and  N_25
    8  A    between atoms: C_15  and  C_34
    9  A    between atoms: C_16  and  O_24
   10  A    between atoms: C_16  and  C_34
   11  A    between atoms: C_17  and  N_29
   12  A    between atoms: N_20  and  C_43
   13  A    between atoms: N_20  and  C_45
   14  A    between atoms: C_21  and  N_32
   15  A    between atoms: C_22  and  C_35
   16  A    between atoms: C_30  and  C_35
   17  A    between atoms: C_36  and  C_42
                            x       y       z     vdW  Elec       q    Type
                         _______ _______ _______ _____ _____    ______ ____

>  <TORSDO>
F 17

$$$$
=
 OpenBabel10232408263D

 45 50  0  0  1  0  0  0  0  0999 V2000
  190.7420  177.2090  139.9350 C   0  0  2  0  0  3  0  0  0  0  0  0
  189.3030  177.6780  139.7670 C   0  0  0  0  0  2  0  0  0  0  0  0
  189.1990  178.6990  138.6490 C   0  0  0  0  0  2  0  0  0  0  0  0
  188.1390  178.7130  136.5220 O   0  0  0  0  0  0  0  0  0  0  0  0
  188.1030  178.3200  137.7200 C   0  0  0  0  0  0  0  0  0  0  0  0
  187.0370  177.4910  138.1810 N   0  0  0  0  0  2  0  0  0  0  0  0
  185.9630  177.0680  137.2940 C   0  0  0  0  0  2  0  0  0  0  0  0
  182.9590  176.2700  139.2180 C   0  0  0  0  0  3  0  0  0  0  0  0
  184.6420  177.4880  137.8540 C   0  0  0  0  0  0  0  0  0  0  0  0
  183.1850  180.6740  138.8490 F   0  0  0  0  0  0  0  0  0  0  0  0
  182.5080  177.2170  140.0380 C   0  0  0  0  0  3  0  0  0  0  0  0
  184.5310  178.7410  138.2970 C   0  0  0  0  0  3  0  0  0  0  0  0
  183.4480  176.5640  137.8390 C   0  0  1  0  0  3  0  0  0  0  0  0
  182.4940  178.6630  139.7400 C   0  0  0  0  0  3  0  0  0  0  0  0
  183.3380  179.3320  138.9410 C   0  0  0  0  0  0  0  0  0  0  0  0
  183.4730  175.3040  135.8190 O   0  0  0  0  0  0  0  0  0  0  0  0
  184.0960  174.1080  137.7290 N   0  0  0  0  0  2  0  0  0  0  0  0
  183.6590  175.2990  137.0650 C   0  0  0  0  0  0  0  0  0  0  0  0
  184.3860  172.8730  137.0170 C   0  0  0  0  0  2  0  0  0  0  0  0
  185.8650  172.7980  136.6840 C   0  0  0  0  0  1  0  0  0  0  0  0
  190.8510  175.8440  139.5500 O   0  0  0  0  0  0  0  0  0  0  0  0
  190.8810  175.4410  138.2090 C   0  0  0  0  0  0  0  0  0  0  0  0
  190.1660  174.4770  137.8190 O   0  0  0  0  0  0  0  0  0  0  0  0
  191.3160  176.4070  136.0260 C   0  0  0  0  0  2  0  0  0  0  0  0
  191.7480  176.1460  137.2510 C   0  0  0  0  0  0  0  0  0  0  0  0
  193.1330  176.5700  137.6280 C   0  0  0  0  0  2  0  0  0  0  0  0
  195.9880  174.2860  136.4940 N   0  0  0  0  0  4  0  0  0  0  0  0
  198.1430  174.2860  137.9220 S   0  0  0  0  0  1  0  0  0  0  0  0
  196.4420  172.8880  136.3560 C   0  0  0  0  0  2  0  0  0  0  0  0
  195.3370  174.2650  138.2120 N   0  0  0  0  0  0  0  0  0  0  0  0
  194.1130  176.0370  136.6910 N   0  0  0  0  0  0  0  0  0  0  0  0
  195.0270  175.0090  137.0670 C   0  0  0  0  0  0  0  0  0  0  0  0
  196.5220  173.5630  137.5240 C   0  0  2  0  0  0  0  0  0  0  0  0
  191.1480  177.3400  141.3900 C   0  0  0  0  0  2  0  0  0  0  0  0
  190.6250  176.1620  142.1930 C   0  0  0  0  0  2  0  0  0  0  0  0
  188.3290  176.5330  143.1130 C   0  0  0  0  0  3  0  0  0  0  0  0
  189.7150  176.6400  143.2720 C   0  0  0  0  0  0  0  0  0  0  0  0
  189.3840  177.6310  145.4580 C   0  0  0  0  0  3  0  0  0  0  0  0
  190.2410  177.1940  144.4450 C   0  0  0  0  0  3  0  0  0  0  0  0
  187.4720  176.9740  144.1260 C   0  0  0  0  0  3  0  0  0  0  0  0
  187.9940  177.5200  145.3020 C   0  0  0  0  0  0  0  0  0  0  0  0
  187.0980  177.9510  146.3320 N   0  0  0  0  0  2  0  0  0  0  0  0
  184.7920  178.4060  146.8220 C   0  0  0  0  0  2  0  0  0  0  0  0
  185.6010  179.4520  147.3030 O   0  0  0  0  0  0  0  0  0  0  0  0
  185.9890  178.8620  146.0870 C   0  0  1  0  0  3  0  0  0  0  0  0
  1  2  1  1  0  0  0
  1 34  1  0  0  0  0
  3  2  1  0  0  0  0
  4  5  2  0  0  0  0
  5  6  1  0  0  0  0
  5  3  1  0  0  0  0
  7  9  1  0  0  0  0
  7  6  1  0  0  0  0
  8 11  2  0  0  0  0
  9 12  2  0  0  0  0
 10 15  1  0  0  0  0
 12 15  1  0  0  0  0
 13 18  1  1  0  0  0
 13  9  1  0  0  0  0
 13  8  1  0  0  0  0
 14 11  1  0  0  0  0
 15 14  2  0  0  0  0
 16 18  2  0  0  0  0
 18 17  1  0  0  0  0
 19 17  1  0  0  0  0
 20 19  1  0  0  0  0
 21  1  1  0  0  0  0
 22 21  1  0  0  0  0
 23 22  2  0  0  0  0
 24 25  2  0  0  0  0
 25 26  1  0  0  0  0
 25 22  1  0  0  0  0
 27 32  1  0  0  0  0
 27 33  1  0  0  0  0
 27 30  1  0  0  0  0
 29 27  1  0  0  0  0
 29 33  1  0  0  0  0
 31 32  2  0  0  0  0
 31 26  1  0  0  0  0
 32 30  1  0  0  0  0
 33 28  1  1  0  0  0
 33 30  1  0  0  0  0
 34 35  1  0  0  0  0
 35 37  1  0  0  0  0
 36 37  2  0  0  0  0
 36 40  1  0  0  0  0
 37 39  1  0  0  0  0
 39 38  2  0  0  0  0
 40 41  2  0  0  0  0
 41 38  1  0  0  0  0
 41 42  1  0  0  0  0
 43 44  1  0  0  0  0
 45 42  1  1  0  0  0
 45 43  1  0  0  0  0
 45 44  1  0  0  0  0
M  END
>  <MODEL>
9

>  <REMARK>
 VINA RESULT:      -6.8      3.076      7.701
  Name = 
  17 active torsions:
  status: ('A' for Active; 'I' for Inactive)
    1  A    between atoms: C_3  and  C_21
    2  A    between atoms: C_4  and  C_22
    3  A    between atoms: C_4  and  O_24
    4  A    between atoms: C_4  and  C_44
    5  A    between atoms: C_9  and  C_13
    6  A    between atoms: C_13  and  C_44
    7  A    between atoms: C_15  and  N_25
    8  A    between atoms: C_15  and  C_34
    9  A    between atoms: C_16  and  O_24
   10  A    between atoms: C_16  and  C_34
   11  A    between atoms: C_17  and  N_29
   12  A    between atoms: N_20  and  C_43
   13  A    between atoms: N_20  and  C_45
   14  A    between atoms: C_21  and  N_32
   15  A    between atoms: C_22  and  C_35
   16  A    between atoms: C_30  and  C_35
   17  A    between atoms: C_36  and  C_42
                            x       y       z     vdW  Elec       q    Type
                         _______ _______ _______ _____ _____    ______ ____

>  <TORSDO>
F 17

$$$$
