=
 OpenBabel10232412243D

 38 42  0  0  1  0  0  0  0  0999 V2000
  190.0840  175.7620  135.7060 C   0  0  0  0  0  3  0  0  0  0  0  0
  191.3550  175.0090  137.7120 C   0  0  2  0  0  3  0  0  0  0  0  0
  190.5170  177.2850  141.6780 C   0  0  0  0  0  2  0  0  0  0  0  0
  190.4790  176.8510  140.2410 C   0  0  0  0  0  0  0  0  0  0  0  0
  189.1110  177.6150  142.2060 C   0  0  2  0  0  3  0  0  0  0  0  0
  185.4230  177.2310  135.8310 C   0  0  0  0  0  0  0  0  0  0  0  0
  186.4570  176.6660  135.1470 N   0  0  0  0  0  0  0  0  0  0  0  0
  191.6380  176.6880  139.5880 C   0  0  0  0  0  3  0  0  0  0  0  0
  193.7480  175.6170  137.0850 C   0  0  0  0  0  0  0  0  0  0  0  0
  187.9390  177.1280  136.9470 C   0  0  0  0  0  3  0  0  0  0  0  0
  184.0720  177.2880  135.2180 C   0  0  0  0  0  1  0  0  0  0  0  0
  188.3960  178.0790  139.7480 C   0  0  2  0  0  3  0  0  0  0  0  0
  191.7690  176.4320  138.1120 C   0  0  1  0  0  3  0  0  0  0  0  0
  186.8970  177.6740  137.6910 C   0  0  0  0  0  0  0  0  0  0  0  0
  187.1010  178.0800  139.0520 N   0  0  0  0  0  2  0  0  0  0  0  0
  192.7310  174.1720  136.8510 S   0  0  0  0  0  0  0  0  0  0  0  0
  189.1490  176.7580  139.5580 C   0  0  0  0  0  2  0  0  0  0  0  0
  188.2480  178.4670  141.2440 C   0  0  1  0  0  3  0  0  0  0  0  0
  186.9140  178.4180  141.6580 O   0  0  0  0  0  1  0  0  0  0  0  0
  190.1340  175.0490  136.8390 C   0  0  0  0  0  3  0  0  0  0  0  0
  188.8040  175.8820  134.9200 C   0  0  0  0  0  2  0  0  0  0  0  0
  185.6210  177.7270  137.1260 C   0  0  0  0  0  3  0  0  0  0  0  0
  187.7090  176.5980  135.6750 C   0  0  0  0  0  0  0  0  0  0  0  0
  193.1830  176.6320  137.7050 C   0  0  0  0  0  3  0  0  0  0  0  0
  195.1050  175.6870  136.6520 N   0  0  0  0  0  2  0  0  0  0  0  0
  195.9560  174.5100  136.5720 C   0  0  0  0  0  2  0  0  0  0  0  0
  196.9370  174.4950  137.7310 C   0  0  0  0  0  2  0  0  0  0  0  0
  196.3540  175.0880  139.9650 O   0  0  0  0  0  1  0  0  0  0  0  0
  195.3920  173.1660  139.1690 O   0  0  0  0  0  0  0  0  0  0  0  0
  196.2240  174.2670  139.0200 C   0  0  0  0  0  0  0  0  0  0  0  0
  189.1550  178.1770  143.5580 N   0  0  0  0  0  2  0  0  0  0  0  0
  190.1000  176.8640  145.3060 N   0  0  0  0  0  0  0  0  0  0  0  0
  187.8810  177.6630  145.5750 C   0  0  0  0  0  3  0  0  0  0  0  0
  188.8910  177.1420  144.5550 C   0  0  1  0  0  3  0  0  0  0  0  0
  189.9440  177.1140  146.5570 C   0  0  0  0  0  0  0  0  0  0  0  0
  188.5970  177.6190  146.9170 C   0  0  0  0  0  3  0  0  0  0  0  0
  191.9820  175.9330  147.2650 C   0  0  0  0  0  1  0  0  0  0  0  0
  190.9800  176.9170  147.4700 O   0  0  0  0  0  0  0  0  0  0  0  0
  1 20  2  0  0  0  0
  2 20  1  6  0  0  0
  2 13  1  0  0  0  0
  3  5  1  0  0  0  0
  4  3  1  0  0  0  0
  5 31  1  1  0  0  0
  6 22  1  0  0  0  0
  7 23  1  0  0  0  0
  7  6  2  0  0  0  0
  8  4  2  0  0  0  0
  9 24  2  0  0  0  0
 10 14  1  0  0  0  0
 11  6  1  0  0  0  0
 12 17  1  1  0  0  0
 12 18  1  0  0  0  0
 13 24  1  1  0  0  0
 13  8  1  0  0  0  0
 14 15  1  0  0  0  0
 15 12  1  0  0  0  0
 16  9  1  0  0  0  0
 16  2  1  0  0  0  0
 17  4  1  0  0  0  0
 18 19  1  1  0  0  0
 18  5  1  0  0  0  0
 21 23  1  0  0  0  0
 21  1  1  0  0  0  0
 22 14  2  0  0  0  0
 23 10  2  0  0  0  0
 25  9  1  0  0  0  0
 26 25  1  0  0  0  0
 26 27  1  0  0  0  0
 27 30  1  0  0  0  0
 30 29  2  0  0  0  0
 30 28  1  0  0  0  0
 32 35  2  0  0  0  0
 33 36  2  0  0  0  0
 34 31  1  6  0  0  0
 34 32  1  0  0  0  0
 34 33  1  0  0  0  0
 35 36  1  0  0  0  0
 35 38  1  0  0  0  0
 37 38  1  0  0  0  0
M  END
>  <MODEL>
1

>  <REMARK>
 VINA RESULT:      -9.0      0.000      0.000
  Name = 
  7 active torsions:
  status: ('A' for Active; 'I' for Inactive)
    1  A    between atoms: N_5  and  C_12
    2  A    between atoms: N_5  and  C_24
    3  A    between atoms: C_7  and  N_16
    4  A    between atoms: N_16  and  C_25
    5  A    between atoms: C_24  and  C_30
    6  A    between atoms: C_26  and  O_29
    7  A    between atoms: C_30  and  C_38
                            x       y       z     vdW  Elec       q    Type
                         _______ _______ _______ _____ _____    ______ ____

>  <TORSDO>
F 7

$$$$
=
 OpenBabel10232412243D

 38 42  0  0  1  0  0  0  0  0999 V2000
  191.4400  176.7620  142.8100 C   0  0  0  0  0  3  0  0  0  0  0  0
  190.8990  177.8960  140.6590 C   0  0  2  0  0  3  0  0  0  0  0  0
  186.3920  178.5800  139.7450 C   0  0  0  0  0  2  0  0  0  0  0  0
  187.6700  178.1680  140.4170 C   0  0  0  0  0  0  0  0  0  0  0  0
  185.3820  179.1510  140.7550 C   0  0  2  0  0  3  0  0  0  0  0  0
  188.9910  177.5150  146.9740 C   0  0  0  0  0  0  0  0  0  0  0  0
  190.1500  177.1840  146.3370 N   0  0  0  0  0  0  0  0  0  0  0  0
  188.5870  177.5010  139.7020 C   0  0  0  0  0  3  0  0  0  0  0  0
  191.6760  176.1810  138.9430 C   0  0  0  0  0  0  0  0  0  0  0  0
  189.0370  177.2080  144.2370 C   0  0  0  0  0  3  0  0  0  0  0  0
  188.9760  177.6720  148.4500 C   0  0  0  0  0  1  0  0  0  0  0  0
  186.5950  177.7830  142.6050 C   0  0  2  0  0  3  0  0  0  0  0  0
  189.8290  176.8680  140.2660 C   0  0  1  0  0  3  0  0  0  0  0  0
  187.8470  177.5870  144.8490 C   0  0  0  0  0  0  0  0  0  0  0  0
  186.6910  177.9160  144.0660 N   0  0  0  0  0  2  0  0  0  0  0  0
  192.4610  177.5460  139.7780 S   0  0  0  0  0  0  0  0  0  0  0  0
  187.8060  178.3940  141.8920 C   0  0  0  0  0  2  0  0  0  0  0  0
  185.2480  178.3320  142.0610 C   0  0  1  0  0  3  0  0  0  0  0  0
  184.5840  179.1020  143.0190 O   0  0  0  0  0  1  0  0  0  0  0  0
  191.1160  177.8790  142.1440 C   0  0  0  0  0  3  0  0  0  0  0  0
  191.5260  176.7520  144.3140 C   0  0  0  0  0  2  0  0  0  0  0  0
  187.8220  177.7430  146.2370 C   0  0  0  0  0  3  0  0  0  0  0  0
  190.2030  177.0300  144.9860 C   0  0  0  0  0  0  0  0  0  0  0  0
  190.4160  175.9570  139.2520 C   0  0  0  0  0  3  0  0  0  0  0  0
  192.3480  175.3760  137.9760 N   0  0  0  0  0  2  0  0  0  0  0  0
  193.6800  175.6980  137.4880 C   0  0  0  0  0  2  0  0  0  0  0  0
  194.5020  174.4300  137.3390 C   0  0  0  0  0  2  0  0  0  0  0  0
  195.6340  175.0660  139.3380 O   0  0  0  0  0  1  0  0  0  0  0  0
  195.4430  172.8090  138.9850 O   0  0  0  0  0  0  0  0  0  0  0  0
  195.2330  174.1270  138.6020 C   0  0  0  0  0  0  0  0  0  0  0  0
  184.0840  179.4180  140.1310 N   0  0  0  0  0  2  0  0  0  0  0  0
  182.7000  177.4790  140.1270 N   0  0  0  0  0  0  0  0  0  0  0  0
  182.8630  178.7480  138.1270 C   0  0  0  0  0  3  0  0  0  0  0  0
  183.6390  178.2660  139.3500 C   0  0  1  0  0  3  0  0  0  0  0  0
  181.5520  177.4170  139.5530 C   0  0  0  0  0  0  0  0  0  0  0  0
  181.4690  178.1530  138.2680 C   0  0  0  0  0  3  0  0  0  0  0  0
  180.3390  175.3120  139.9300 C   0  0  0  0  0  1  0  0  0  0  0  0
  180.4940  176.7090  140.1230 O   0  0  0  0  0  0  0  0  0  0  0  0
  1 21  1  0  0  0  0
  2 20  1  1  0  0  0
  3  4  1  0  0  0  0
  3  5  1  0  0  0  0
  4 17  1  0  0  0  0
  5 31  1  6  0  0  0
  5 18  1  0  0  0  0
  6 11  1  0  0  0  0
  7  6  1  0  0  0  0
  8 13  1  0  0  0  0
  8  4  2  0  0  0  0
  9 24  2  0  0  0  0
  9 16  1  0  0  0  0
 10 14  2  0  0  0  0
 10 23  1  0  0  0  0
 12 17  1  6  0  0  0
 12 15  1  0  0  0  0
 13 24  1  6  0  0  0
 13  2  1  0  0  0  0
 14 22  1  0  0  0  0
 15 14  1  0  0  0  0
 16  2  1  0  0  0  0
 18 12  1  0  0  0  0
 18 19  1  1  0  0  0
 20  1  2  0  0  0  0
 21 23  1  0  0  0  0
 22  6  2  0  0  0  0
 23  7  2  0  0  0  0
 25  9  1  0  0  0  0
 26 25  1  0  0  0  0
 27 26  1  0  0  0  0
 27 30  1  0  0  0  0
 30 29  2  0  0  0  0
 30 28  1  0  0  0  0
 33 36  2  0  0  0  0
 33 34  1  0  0  0  0
 34 32  1  0  0  0  0
 34 31  1  1  0  0  0
 35 38  1  0  0  0  0
 35 32  2  0  0  0  0
 36 35  1  0  0  0  0
 37 38  1  0  0  0  0
M  END
>  <MODEL>
2

>  <REMARK>
 VINA RESULT:      -8.3      2.803      7.294
  Name = 
  7 active torsions:
  status: ('A' for Active; 'I' for Inactive)
    1  A    between atoms: N_5  and  C_12
    2  A    between atoms: N_5  and  C_24
    3  A    between atoms: C_7  and  N_16
    4  A    between atoms: N_16  and  C_25
    5  A    between atoms: C_24  and  C_30
    6  A    between atoms: C_26  and  O_29
    7  A    between atoms: C_30  and  C_38
                            x       y       z     vdW  Elec       q    Type
                         _______ _______ _______ _____ _____    ______ ____

>  <TORSDO>
F 7

$$$$
=
 OpenBabel10232412243D

 38 42  0  0  1  0  0  0  0  0999 V2000
  183.8690  178.6680  142.2690 C   0  0  0  0  0  3  0  0  0  0  0  0
  183.5320  177.9820  139.8980 C   0  0  2  0  0  3  0  0  0  0  0  0
  187.2730  178.1190  137.1420 C   0  0  0  0  0  2  0  0  0  0  0  0
  186.3710  178.2280  138.3370 C   0  0  0  0  0  0  0  0  0  0  0  0
  188.6500  177.5500  137.5230 C   0  0  2  0  0  3  0  0  0  0  0  0
  187.8850  177.6290  144.8570 C   0  0  0  0  0  0  0  0  0  0  0  0
  186.5460  177.8840  144.8190 N   0  0  0  0  0  0  0  0  0  0  0  0
  185.1960  178.8590  138.2010 C   0  0  0  0  0  3  0  0  0  0  0  0
  181.9920  179.8150  139.0270 C   0  0  0  0  0  0  0  0  0  0  0  0
  186.6730  178.3570  142.4930 C   0  0  0  0  0  3  0  0  0  0  0  0
  188.5290  177.2440  146.1380 C   0  0  0  0  0  1  0  0  0  0  0  0
  188.2370  178.4130  139.9420 C   0  0  2  0  0  3  0  0  0  0  0  0
  184.2660  179.2050  139.3310 C   0  0  1  0  0  3  0  0  0  0  0  0
  188.0330  178.0640  142.4870 C   0  0  0  0  0  0  0  0  0  0  0  0
  188.7730  178.0370  141.2580 N   0  0  0  0  0  2  0  0  0  0  0  0
  181.7250  178.2340  139.8070 S   0  0  0  0  0  0  0  0  0  0  0  0
  186.8820  177.7530  139.6630 C   0  0  0  0  0  2  0  0  0  0  0  0
  189.2640  178.1610  138.8050 C   0  0  1  0  0  3  0  0  0  0  0  0
  190.3200  177.3540  139.2380 O   0  0  0  0  0  1  0  0  0  0  0  0
  183.9580  177.7310  141.3150 C   0  0  0  0  0  3  0  0  0  0  0  0
  184.4220  178.4250  143.6490 C   0  0  0  0  0  2  0  0  0  0  0  0
  188.6480  177.6950  143.6850 C   0  0  0  0  0  3  0  0  0  0  0  0
  185.9210  178.2420  143.6640 C   0  0  0  0  0  0  0  0  0  0  0  0
  183.2470  180.1700  138.8460 C   0  0  0  0  0  3  0  0  0  0  0  0
  180.9240  180.6560  138.5970 N   0  0  0  0  0  2  0  0  0  0  0  0
  181.0590  181.5660  137.4690 C   0  0  0  0  0  2  0  0  0  0  0  0
  180.7210  182.9830  137.8980 C   0  0  0  0  0  2  0  0  0  0  0  0
  182.2320  184.7790  137.4830 O   0  0  0  0  0  1  0  0  0  0  0  0
  181.1070  183.9900  135.6490 O   0  0  0  0  0  0  0  0  0  0  0  0
  181.3890  183.9750  137.0080 C   0  0  0  0  0  0  0  0  0  0  0  0
  189.5810  177.5780  136.3930 N   0  0  0  0  0  2  0  0  0  0  0  0
  191.2200  175.8750  136.0920 N   0  0  0  0  0  0  0  0  0  0  0  0
  189.0250  175.2240  136.7200 C   0  0  0  0  0  3  0  0  0  0  0  0
  189.8270  176.2270  135.8930 C   0  0  1  0  0  3  0  0  0  0  0  0
  191.3410  174.8520  136.8600 C   0  0  0  0  0  0  0  0  0  0  0  0
  190.0560  174.2960  137.3460 C   0  0  0  0  0  3  0  0  0  0  0  0
  193.6260  175.1560  137.7190 C   0  0  0  0  0  1  0  0  0  0  0  0
  192.5950  174.3370  137.1870 O   0  0  0  0  0  0  0  0  0  0  0  0
  1 21  1  0  0  0  0
  2 20  1  1  0  0  0
  3  5  1  0  0  0  0
  3  4  1  0  0  0  0
  4 17  1  0  0  0  0
  5 31  1  6  0  0  0
  5 18  1  0  0  0  0
  6 11  1  0  0  0  0
  7  6  1  0  0  0  0
  8  4  2  0  0  0  0
  9 16  1  0  0  0  0
 10 23  1  0  0  0  0
 12 17  1  6  0  0  0
 12 15  1  0  0  0  0
 13  8  1  6  0  0  0
 13  2  1  0  0  0  0
 14 10  2  0  0  0  0
 14 22  1  0  0  0  0
 15 14  1  0  0  0  0
 16  2  1  0  0  0  0
 18 19  1  1  0  0  0
 18 12  1  0  0  0  0
 20  1  2  0  0  0  0
 21 23  1  0  0  0  0
 22  6  2  0  0  0  0
 23  7  2  0  0  0  0
 24  9  2  0  0  0  0
 24 13  1  0  0  0  0
 25  9  1  0  0  0  0
 26 27  1  0  0  0  0
 26 25  1  0  0  0  0
 29 30  2  0  0  0  0
 30 28  1  0  0  0  0
 30 27  1  0  0  0  0
 32 35  2  0  0  0  0
 33 36  2  0  0  0  0
 34 32  1  0  0  0  0
 34 31  1  1  0  0  0
 34 33  1  0  0  0  0
 35 38  1  0  0  0  0
 35 36  1  0  0  0  0
 38 37  1  0  0  0  0
M  END
>  <MODEL>
3

>  <REMARK>
 VINA RESULT:      -8.1      4.368     10.244
  Name = 
  7 active torsions:
  status: ('A' for Active; 'I' for Inactive)
    1  A    between atoms: N_5  and  C_12
    2  A    between atoms: N_5  and  C_24
    3  A    between atoms: C_7  and  N_16
    4  A    between atoms: N_16  and  C_25
    5  A    between atoms: C_24  and  C_30
    6  A    between atoms: C_26  and  O_29
    7  A    between atoms: C_30  and  C_38
                            x       y       z     vdW  Elec       q    Type
                         _______ _______ _______ _____ _____    ______ ____

>  <TORSDO>
F 7

$$$$
=
 OpenBabel10232412243D

 38 42  0  0  1  0  0  0  0  0999 V2000
  183.8440  178.7350  142.3370 C   0  0  0  0  0  3  0  0  0  0  0  0
  183.6710  178.0020  139.9620 C   0  0  2  0  0  3  0  0  0  0  0  0
  187.6140  177.9790  137.5000 C   0  0  0  0  0  2  0  0  0  0  0  0
  186.6270  178.1380  138.6200 C   0  0  0  0  0  0  0  0  0  0  0  0
  188.9420  177.3840  137.9990 C   0  0  2  0  0  3  0  0  0  0  0  0
  187.6200  177.6560  145.2480 C   0  0  0  0  0  0  0  0  0  0  0  0
  186.2960  177.9440  145.1020 N   0  0  0  0  0  0  0  0  0  0  0  0
  185.4830  178.7960  138.3800 C   0  0  0  0  0  3  0  0  0  0  0  0
  182.2520  179.8520  138.9360 C   0  0  0  0  0  0  0  0  0  0  0  0
  186.6130  178.3590  142.7830 C   0  0  0  0  0  3  0  0  0  0  0  0
  188.1540  177.2850  146.5840 C   0  0  0  0  0  1  0  0  0  0  0  0
  188.3680  178.3150  140.3600 C   0  0  2  0  0  3  0  0  0  0  0  0
  184.4790  179.1920  139.4270 C   0  0  1  0  0  3  0  0  0  0  0  0
  187.9610  178.0310  142.8880 C   0  0  0  0  0  0  0  0  0  0  0  0
  188.7920  177.9560  141.7200 N   0  0  0  0  0  2  0  0  0  0  0  0
  181.8830  178.2980  139.7260 S   0  0  0  0  0  0  0  0  0  0  0  0
  187.0220  177.6820  139.9910 C   0  0  0  0  0  2  0  0  0  0  0  0
  189.4730  178.0100  139.3110 C   0  0  1  0  0  3  0  0  0  0  0  0
  190.4700  177.1870  139.8410 O   0  0  0  0  0  1  0  0  0  0  0  0
  183.9800  177.7740  141.4130 C   0  0  0  0  0  3  0  0  0  0  0  0
  184.2830  178.5110  143.7600 C   0  0  0  0  0  2  0  0  0  0  0  0
  188.4730  177.6750  144.1380 C   0  0  0  0  0  3  0  0  0  0  0  0
  185.7700  178.2900  143.8950 C   0  0  0  0  0  0  0  0  0  0  0  0
  183.5270  180.1700  138.8440 C   0  0  0  0  0  3  0  0  0  0  0  0
  181.2430  180.7100  138.4060 N   0  0  0  0  0  2  0  0  0  0  0  0
  181.3660  182.1590  138.4310 C   0  0  0  0  0  2  0  0  0  0  0  0
  180.7760  182.7550  137.1640 C   0  0  0  0  0  2  0  0  0  0  0  0
  180.9540  184.7780  135.9170 O   0  0  0  0  0  0  0  0  0  0  0  0
  182.3580  184.6020  137.7200 O   0  0  0  0  0  1  0  0  0  0  0  0
  181.3700  184.0940  136.8880 C   0  0  0  0  0  0  0  0  0  0  0  0
  189.9580  177.3620  136.9430 N   0  0  0  0  0  2  0  0  0  0  0  0
  189.3320  175.0780  137.2010 N   0  0  0  0  0  0  0  0  0  0  0  0
  189.6270  175.9210  135.0010 C   0  0  0  0  0  3  0  0  0  0  0  0
  190.1440  176.0040  136.4360 C   0  0  1  0  0  3  0  0  0  0  0  0
  188.4720  174.4810  136.4550 C   0  0  0  0  0  0  0  0  0  0  0  0
  188.5190  174.8790  135.0270 C   0  0  0  0  0  3  0  0  0  0  0  0
  186.1830  173.7680  137.0020 C   0  0  0  0  0  1  0  0  0  0  0  0
  187.5840  173.5430  136.9810 O   0  0  0  0  0  0  0  0  0  0  0  0
  1 21  1  0  0  0  0
  2 20  1  1  0  0  0
  3  5  1  0  0  0  0
  3  4  1  0  0  0  0
  4 17  1  0  0  0  0
  5 31  1  6  0  0  0
  5 18  1  0  0  0  0
  6 11  1  0  0  0  0
  7  6  1  0  0  0  0
  8  4  2  0  0  0  0
  9 16  1  0  0  0  0
 10 14  2  0  0  0  0
 10 23  1  0  0  0  0
 12 17  1  6  0  0  0
 12 15  1  0  0  0  0
 13  8  1  6  0  0  0
 13  2  1  0  0  0  0
 14 22  1  0  0  0  0
 15 14  1  0  0  0  0
 16  2  1  0  0  0  0
 18 19  1  1  0  0  0
 18 12  1  0  0  0  0
 20  1  2  0  0  0  0
 21 23  1  0  0  0  0
 22  6  2  0  0  0  0
 23  7  2  0  0  0  0
 24  9  2  0  0  0  0
 24 13  1  0  0  0  0
 25 26  1  0  0  0  0
 25  9  1  0  0  0  0
 27 26  1  0  0  0  0
 28 30  2  0  0  0  0
 30 27  1  0  0  0  0
 30 29  1  0  0  0  0
 33 36  2  0  0  0  0
 33 34  1  0  0  0  0
 34 31  1  1  0  0  0
 34 32  1  0  0  0  0
 35 38  1  0  0  0  0
 35 32  2  0  0  0  0
 36 35  1  0  0  0  0
 38 37  1  0  0  0  0
M  END
>  <MODEL>
4

>  <REMARK>
 VINA RESULT:      -7.8      4.496     10.413
  Name = 
  7 active torsions:
  status: ('A' for Active; 'I' for Inactive)
    1  A    between atoms: N_5  and  C_12
    2  A    between atoms: N_5  and  C_24
    3  A    between atoms: C_7  and  N_16
    4  A    between atoms: N_16  and  C_25
    5  A    between atoms: C_24  and  C_30
    6  A    between atoms: C_26  and  O_29
    7  A    between atoms: C_30  and  C_38
                            x       y       z     vdW  Elec       q    Type
                         _______ _______ _______ _____ _____    ______ ____

>  <TORSDO>
F 7

$$$$
=
 OpenBabel10232412243D

 38 42  0  0  1  0  0  0  0  0999 V2000
  183.5590  178.6440  144.1520 C   0  0  0  0  0  3  0  0  0  0  0  0
  185.9600  179.2150  144.4920 C   0  0  2  0  0  3  0  0  0  0  0  0
  188.8360  178.2900  140.9590 C   0  0  0  0  0  2  0  0  0  0  0  0
  187.6040  178.4100  141.8070 C   0  0  0  0  0  0  0  0  0  0  0  0
  188.5500  178.6540  139.4920 C   0  0  2  0  0  3  0  0  0  0  0  0
  181.2070  179.1900  139.9010 C   0  0  0  0  0  0  0  0  0  0  0  0
  181.1760  179.1530  141.2640 N   0  0  0  0  0  0  0  0  0  0  0  0
  187.6490  177.9690  143.0720 C   0  0  0  0  0  3  0  0  0  0  0  0
  186.6350  177.6010  146.3430 C   0  0  0  0  0  0  0  0  0  0  0  0
  183.4640  178.5110  141.3270 C   0  0  0  0  0  3  0  0  0  0  0  0
  179.9830  179.5520  139.1420 C   0  0  0  0  0  1  0  0  0  0  0  0
  186.0600  178.0330  139.9180 C   0  0  2  0  0  3  0  0  0  0  0  0
  186.4620  177.8540  143.9890 C   0  0  1  0  0  3  0  0  0  0  0  0
  183.5420  178.5790  139.9400 C   0  0  0  0  0  0  0  0  0  0  0  0
  184.7970  178.4050  139.2660 N   0  0  0  0  0  2  0  0  0  0  0  0
  185.9640  179.2520  146.3180 S   0  0  0  0  0  0  0  0  0  0  0  0
  186.3360  178.8830  141.1630 C   0  0  0  0  0  2  0  0  0  0  0  0
  187.2510  178.0390  138.9210 C   0  0  1  0  0  3  0  0  0  0  0  0
  186.9180  178.6920  137.7300 O   0  0  0  0  0  1  0  0  0  0  0  0
  184.5820  179.4880  143.9630 C   0  0  0  0  0  3  0  0  0  0  0  0
  182.2220  178.8860  143.5010 C   0  0  0  0  0  2  0  0  0  0  0  0
  182.3990  178.9240  139.2160 C   0  0  0  0  0  3  0  0  0  0  0  0
  182.2770  178.8250  141.9930 C   0  0  0  0  0  0  0  0  0  0  0  0
  186.8360  177.0370  145.1710 C   0  0  0  0  0  3  0  0  0  0  0  0
  186.9620  176.9160  147.5510 N   0  0  0  0  0  2  0  0  0  0  0  0
  188.2410  177.0920  148.2210 C   0  0  0  0  0  2  0  0  0  0  0  0
  189.1630  177.9460  147.3680 C   0  0  0  0  0  2  0  0  0  0  0  0
  191.0770  176.5310  147.4980 O   0  0  0  0  0  1  0  0  0  0  0  0
  190.2960  176.9470  145.3830 O   0  0  0  0  0  0  0  0  0  0  0  0
  190.2390  177.1120  146.7600 C   0  0  0  0  0  0  0  0  0  0  0  0
  189.7100  178.4000  138.6330 N   0  0  0  0  0  2  0  0  0  0  0  0
  189.9780  176.6750  137.0130 N   0  0  0  0  0  0  0  0  0  0  0  0
  191.2420  176.5400  139.0180 C   0  0  0  0  0  3  0  0  0  0  0  0
  189.8970  176.9650  138.4310 C   0  0  1  0  0  3  0  0  0  0  0  0
  191.1090  176.1490  136.7040 C   0  0  0  0  0  0  0  0  0  0  0  0
  192.0360  175.9750  137.8490 C   0  0  0  0  0  3  0  0  0  0  0  0
  192.6790  175.2760  135.0240 C   0  0  0  0  0  1  0  0  0  0  0  0
  191.4060  175.7870  135.3900 O   0  0  0  0  0  0  0  0  0  0  0  0
  2 20  1  1  0  0  0
  2 16  1  0  0  0  0
  3  4  1  0  0  0  0
  4  8  2  0  0  0  0
  5 31  1  6  0  0  0
  5  3  1  0  0  0  0
  6  7  1  0  0  0  0
  7 23  2  0  0  0  0
  9 25  1  0  0  0  0
 10 23  1  0  0  0  0
 11  6  1  0  0  0  0
 12 17  1  1  0  0  0
 13  8  1  6  0  0  0
 13  2  1  0  0  0  0
 13 24  1  0  0  0  0
 14 10  2  0  0  0  0
 15 12  1  0  0  0  0
 15 14  1  0  0  0  0
 16  9  1  0  0  0  0
 17  4  1  0  0  0  0
 18 19  1  6  0  0  0
 18  5  1  0  0  0  0
 18 12  1  0  0  0  0
 20  1  2  0  0  0  0
 21  1  1  0  0  0  0
 22  6  2  0  0  0  0
 22 14  1  0  0  0  0
 23 21  1  0  0  0  0
 24  9  2  0  0  0  0
 25 26  1  0  0  0  0
 27 26  1  0  0  0  0
 29 30  2  0  0  0  0
 30 27  1  0  0  0  0
 30 28  1  0  0  0  0
 32 34  1  0  0  0  0
 34 31  1  6  0  0  0
 34 33  1  0  0  0  0
 35 32  2  0  0  0  0
 35 36  1  0  0  0  0
 36 33  2  0  0  0  0
 37 38  1  0  0  0  0
 38 35  1  0  0  0  0
M  END
>  <MODEL>
5

>  <REMARK>
 VINA RESULT:      -7.8      3.898      8.598
  Name = 
  7 active torsions:
  status: ('A' for Active; 'I' for Inactive)
    1  A    between atoms: N_5  and  C_12
    2  A    between atoms: N_5  and  C_24
    3  A    between atoms: C_7  and  N_16
    4  A    between atoms: N_16  and  C_25
    5  A    between atoms: C_24  and  C_30
    6  A    between atoms: C_26  and  O_29
    7  A    between atoms: C_30  and  C_38
                            x       y       z     vdW  Elec       q    Type
                         _______ _______ _______ _____ _____    ______ ____

>  <TORSDO>
F 7

$$$$
=
 OpenBabel10232412243D

 38 42  0  0  1  0  0  0  0  0999 V2000
  190.2250  175.5940  135.6330 C   0  0  0  0  0  3  0  0  0  0  0  0
  191.5910  174.9390  137.6110 C   0  0  2  0  0  3  0  0  0  0  0  0
  190.9700  177.4330  141.4840 C   0  0  0  0  0  2  0  0  0  0  0  0
  190.8560  176.9230  140.0770 C   0  0  0  0  0  0  0  0  0  0  0  0
  189.5940  177.8040  142.0630 C   0  0  2  0  0  3  0  0  0  0  0  0
  185.5850  177.1100  135.9130 C   0  0  0  0  0  0  0  0  0  0  0  0
  186.5810  176.4990  135.2090 N   0  0  0  0  0  0  0  0  0  0  0  0
  191.9800  176.7140  139.3760 C   0  0  0  0  0  3  0  0  0  0  0  0
  193.9530  175.4900  136.8320 C   0  0  0  0  0  0  0  0  0  0  0  0
  188.1540  177.0440  136.9050 C   0  0  0  0  0  3  0  0  0  0  0  0
  184.2050  177.1450  135.3660 C   0  0  0  0  0  1  0  0  0  0  0  0
  188.7580  178.1410  139.6230 C   0  0  2  0  0  3  0  0  0  0  0  0
  192.0340  176.3770  137.9120 C   0  0  1  0  0  3  0  0  0  0  0  0
  187.1550  177.6390  137.6690 C   0  0  0  0  0  0  0  0  0  0  0  0
  187.4310  178.1160  138.9940 N   0  0  0  0  0  2  0  0  0  0  0  0
  192.9170  174.0430  136.7290 S   0  0  0  0  0  0  0  0  0  0  0  0
  189.4920  176.8050  139.4680 C   0  0  0  0  0  2  0  0  0  0  0  0
  188.6900  178.6110  141.1010 C   0  0  1  0  0  3  0  0  0  0  0  0
  187.3780  178.5970  141.5830 O   0  0  0  0  0  1  0  0  0  0  0  0
  190.3280  174.9430  136.8000 C   0  0  0  0  0  3  0  0  0  0  0  0
  188.9080  175.6830  134.9080 C   0  0  0  0  0  2  0  0  0  0  0  0
  185.8520  177.6730  137.1660 C   0  0  0  0  0  3  0  0  0  0  0  0
  187.8570  176.4480  135.6760 C   0  0  0  0  0  0  0  0  0  0  0  0
  193.4260  176.5420  137.4240 C   0  0  0  0  0  3  0  0  0  0  0  0
  195.2870  175.5240  136.3290 N   0  0  0  0  0  2  0  0  0  0  0  0
  195.9520  174.3390  135.8110 C   0  0  0  0  0  2  0  0  0  0  0  0
  196.6800  173.6170  136.9320 C   0  0  0  0  0  2  0  0  0  0  0  0
  198.2710  172.7700  135.3720 O   0  0  0  0  0  0  0  0  0  0  0  0
  197.6100  171.3040  137.0060 O   0  0  0  0  0  1  0  0  0  0  0  0
  197.5560  172.5430  136.3830 C   0  0  0  0  0  0  0  0  0  0  0  0
  189.7110  178.4380  143.3790 N   0  0  0  0  0  2  0  0  0  0  0  0
  188.4110  178.2250  145.3630 N   0  0  0  0  0  0  0  0  0  0  0  0
  188.4140  176.4190  143.8230 C   0  0  0  0  0  3  0  0  0  0  0  0
  189.2740  177.5250  144.4320 C   0  0  1  0  0  3  0  0  0  0  0  0
  187.2370  177.7030  145.4000 C   0  0  0  0  0  0  0  0  0  0  0  0
  187.0560  176.5400  144.4990 C   0  0  0  0  0  3  0  0  0  0  0  0
  185.0910  178.8640  145.7080 C   0  0  0  0  0  1  0  0  0  0  0  0
  186.2410  178.2170  146.2310 O   0  0  0  0  0  0  0  0  0  0  0  0
  1 20  2  0  0  0  0
  2 20  1  6  0  0  0
  2 13  1  0  0  0  0
  3  5  1  0  0  0  0
  4  3  1  0  0  0  0
  5 31  1  1  0  0  0
  6 22  1  0  0  0  0
  7 23  1  0  0  0  0
  7  6  2  0  0  0  0
  8  4  2  0  0  0  0
  9 24  2  0  0  0  0
 10 14  1  0  0  0  0
 11  6  1  0  0  0  0
 12 17  1  1  0  0  0
 12 18  1  0  0  0  0
 13 24  1  1  0  0  0
 13  8  1  0  0  0  0
 14 15  1  0  0  0  0
 15 12  1  0  0  0  0
 16  9  1  0  0  0  0
 16  2  1  0  0  0  0
 17  4  1  0  0  0  0
 18 19  1  1  0  0  0
 18  5  1  0  0  0  0
 21  1  1  0  0  0  0
 21 23  1  0  0  0  0
 22 14  2  0  0  0  0
 23 10  2  0  0  0  0
 25  9  1  0  0  0  0
 26 25  1  0  0  0  0
 26 27  1  0  0  0  0
 28 30  2  0  0  0  0
 30 27  1  0  0  0  0
 30 29  1  0  0  0  0
 32 35  2  0  0  0  0
 33 34  1  0  0  0  0
 33 36  2  0  0  0  0
 34 31  1  6  0  0  0
 34 32  1  0  0  0  0
 35 38  1  0  0  0  0
 36 35  1  0  0  0  0
 37 38  1  0  0  0  0
M  END
>  <MODEL>
6

>  <REMARK>
 VINA RESULT:      -7.3      1.674      2.133
  Name = 
  7 active torsions:
  status: ('A' for Active; 'I' for Inactive)
    1  A    between atoms: N_5  and  C_12
    2  A    between atoms: N_5  and  C_24
    3  A    between atoms: C_7  and  N_16
    4  A    between atoms: N_16  and  C_25
    5  A    between atoms: C_24  and  C_30
    6  A    between atoms: C_26  and  O_29
    7  A    between atoms: C_30  and  C_38
                            x       y       z     vdW  Elec       q    Type
                         _______ _______ _______ _____ _____    ______ ____

>  <TORSDO>
F 7

$$$$
=
 OpenBabel10232412243D

 38 42  0  0  1  0  0  0  0  0999 V2000
  188.6280  177.4570  143.1120 C   0  0  0  0  0  3  0  0  0  0  0  0
  186.4480  176.9680  144.2140 C   0  0  2  0  0  3  0  0  0  0  0  0
  182.6600  178.7880  142.2270 C   0  0  0  0  0  2  0  0  0  0  0  0
  184.0850  178.4200  142.5200 C   0  0  0  0  0  0  0  0  0  0  0  0
  182.3600  178.7280  140.7190 C   0  0  2  0  0  3  0  0  0  0  0  0
  189.2360  177.6880  138.2670 C   0  0  0  0  0  0  0  0  0  0  0  0
  189.7500  177.4330  139.5030 N   0  0  0  0  0  0  0  0  0  0  0  0
  184.5480  178.5830  143.7680 C   0  0  0  0  0  3  0  0  0  0  0  0
  186.6890  178.1880  146.4370 C   0  0  0  0  0  0  0  0  0  0  0  0
  187.7380  178.1800  140.5250 C   0  0  0  0  0  3  0  0  0  0  0  0
  190.0550  177.4260  137.0560 C   0  0  0  0  0  1  0  0  0  0  0  0
  184.8990  179.0980  140.2910 C   0  0  2  0  0  3  0  0  0  0  0  0
  185.9850  178.4310  144.1820 C   0  0  1  0  0  3  0  0  0  0  0  0
  187.1670  178.4130  139.2780 C   0  0  0  0  0  0  0  0  0  0  0  0
  185.7900  178.8000  139.1610 N   0  0  0  0  0  2  0  0  0  0  0  0
  187.0820  176.5440  145.8740 S   0  0  0  0  0  0  0  0  0  0  0  0
  184.9700  178.0200  141.3780 C   0  0  0  0  0  2  0  0  0  0  0  0
  183.4440  179.3740  139.8230 C   0  0  1  0  0  3  0  0  0  0  0  0
  183.2460  178.9700  138.5000 O   0  0  0  0  0  1  0  0  0  0  0  0
  187.5010  176.7330  143.1710 C   0  0  0  0  0  3  0  0  0  0  0  0
  189.6050  177.2800  141.9790 C   0  0  0  0  0  2  0  0  0  0  0  0
  187.9260  178.1640  138.1320 C   0  0  0  0  0  3  0  0  0  0  0  0
  189.0310  177.6630  140.6360 C   0  0  0  0  0  0  0  0  0  0  0  0
  186.1640  179.0000  145.5420 C   0  0  0  0  0  3  0  0  0  0  0  0
  186.9020  178.6190  147.7800 N   0  0  0  0  0  2  0  0  0  0  0  0
  187.8710  177.9780  148.6550 C   0  0  0  0  0  2  0  0  0  0  0  0
  189.2790  178.4090  148.2820 C   0  0  0  0  0  2  0  0  0  0  0  0
  190.0470  176.1960  147.8410 O   0  0  0  0  0  1  0  0  0  0  0  0
  190.3920  177.7160  146.1600 O   0  0  0  0  0  0  0  0  0  0  0  0
  189.9340  177.3790  147.4260 C   0  0  0  0  0  0  0  0  0  0  0  0
  181.0170  179.2260  140.4120 N   0  0  0  0  0  2  0  0  0  0  0  0
  179.9830  178.1750  138.5420 N   0  0  0  0  0  0  0  0  0  0  0  0
  180.8220  176.7970  140.2830 C   0  0  0  0  0  3  0  0  0  0  0  0
  180.1480  178.1330  139.9820 C   0  0  1  0  0  3  0  0  0  0  0  0
  180.4230  177.1020  137.9880 C   0  0  0  0  0  0  0  0  0  0  0  0
  180.9810  176.1080  138.9360 C   0  0  0  0  0  3  0  0  0  0  0  0
  181.4920  177.1480  135.7730 C   0  0  0  0  0  1  0  0  0  0  0  0
  180.3640  176.9230  136.6060 O   0  0  0  0  0  0  0  0  0  0  0  0
  1 20  2  0  0  0  0
  2 20  1  6  0  0  0
  2 16  1  0  0  0  0
  3  4  1  0  0  0  0
  4  8  2  0  0  0  0
  5 31  1  1  0  0  0
  5  3  1  0  0  0  0
  6  7  1  0  0  0  0
  7 23  2  0  0  0  0
  9 25  1  0  0  0  0
 10 23  1  0  0  0  0
 11  6  1  0  0  0  0
 12 17  1  1  0  0  0
 13  8  1  1  0  0  0
 13  2  1  0  0  0  0
 13 24  1  0  0  0  0
 14 10  2  0  0  0  0
 15 14  1  0  0  0  0
 15 12  1  0  0  0  0
 16  9  1  0  0  0  0
 17  4  1  0  0  0  0
 18 19  1  6  0  0  0
 18 12  1  0  0  0  0
 18  5  1  0  0  0  0
 21  1  1  0  0  0  0
 22  6  2  0  0  0  0
 22 14  1  0  0  0  0
 23 21  1  0  0  0  0
 24  9  2  0  0  0  0
 25 26  1  0  0  0  0
 27 26  1  0  0  0  0
 29 30  2  0  0  0  0
 30 28  1  0  0  0  0
 30 27  1  0  0  0  0
 32 34  1  0  0  0  0
 34 33  1  0  0  0  0
 34 31  1  6  0  0  0
 35 32  2  0  0  0  0
 35 36  1  0  0  0  0
 36 33  2  0  0  0  0
 37 38  1  0  0  0  0
 38 35  1  0  0  0  0
M  END
>  <MODEL>
7

>  <REMARK>
 VINA RESULT:      -7.0      4.291      9.234
  Name = 
  7 active torsions:
  status: ('A' for Active; 'I' for Inactive)
    1  A    between atoms: N_5  and  C_12
    2  A    between atoms: N_5  and  C_24
    3  A    between atoms: C_7  and  N_16
    4  A    between atoms: N_16  and  C_25
    5  A    between atoms: C_24  and  C_30
    6  A    between atoms: C_26  and  O_29
    7  A    between atoms: C_30  and  C_38
                            x       y       z     vdW  Elec       q    Type
                         _______ _______ _______ _____ _____    ______ ____

>  <TORSDO>
F 7

$$$$
=
 OpenBabel10232412243D

 38 42  0  0  1  0  0  0  0  0999 V2000
  183.4030  178.4100  141.8810 C   0  0  0  0  0  3  0  0  0  0  0  0
  185.6560  179.2250  142.5640 C   0  0  2  0  0  3  0  0  0  0  0  0
  189.2390  177.8920  139.9190 C   0  0  0  0  0  2  0  0  0  0  0  0
  187.8530  178.0680  140.4680 C   0  0  0  0  0  0  0  0  0  0  0  0
  189.2490  177.9520  138.3820 C   0  0  2  0  0  3  0  0  0  0  0  0
  181.9660  177.9660  137.2290 C   0  0  0  0  0  0  0  0  0  0  0  0
  181.6540  178.1810  138.5390 N   0  0  0  0  0  0  0  0  0  0  0  0
  187.6510  177.8750  141.7790 C   0  0  0  0  0  3  0  0  0  0  0  0
  185.9960  178.0430  144.7950 C   0  0  0  0  0  0  0  0  0  0  0  0
  183.9020  177.7460  139.1750 C   0  0  0  0  0  3  0  0  0  0  0  0
  180.9120  178.0800  136.1880 C   0  0  0  0  0  1  0  0  0  0  0  0
  186.7520  177.2230  138.4270 C   0  0  2  0  0  3  0  0  0  0  0  0
  186.3060  177.8390  142.4500 C   0  0  1  0  0  3  0  0  0  0  0  0
  184.2650  177.5610  137.8450 C   0  0  0  0  0  0  0  0  0  0  0  0
  185.6380  177.3650  137.4790 N   0  0  0  0  0  2  0  0  0  0  0  0
  185.2790  179.6020  144.3120 S   0  0  0  0  0  0  0  0  0  0  0  0
  186.7290  178.3100  139.5070 C   0  0  0  0  0  2  0  0  0  0  0  0
  188.1220  177.1390  137.7010 C   0  0  1  0  0  3  0  0  0  0  0  0
  188.0190  177.5300  136.3630 O   0  0  0  0  0  1  0  0  0  0  0  0
  184.4080  179.2830  141.7320 C   0  0  0  0  0  3  0  0  0  0  0  0
  182.2220  178.4190  140.9460 C   0  0  0  0  0  2  0  0  0  0  0  0
  183.2830  177.6720  136.8570 C   0  0  0  0  0  3  0  0  0  0  0  0
  182.5910  178.0830  139.5200 C   0  0  0  0  0  0  0  0  0  0  0  0
  186.4590  177.2880  143.8200 C   0  0  0  0  0  3  0  0  0  0  0  0
  186.0920  177.6230  146.1550 N   0  0  0  0  0  2  0  0  0  0  0  0
  186.9590  178.2900  147.1130 C   0  0  0  0  0  2  0  0  0  0  0  0
  187.9800  177.3100  147.6640 C   0  0  0  0  0  2  0  0  0  0  0  0
  189.3170  178.0390  145.8300 O   0  0  0  0  0  0  0  0  0  0  0  0
  190.4330  176.8990  147.4770 O   0  0  0  0  0  1  0  0  0  0  0  0
  189.2730  177.4300  146.9310 C   0  0  0  0  0  0  0  0  0  0  0  0
  190.5710  177.6360  137.8350 N   0  0  0  0  0  2  0  0  0  0  0  0
  191.0740  175.3150  138.0180 N   0  0  0  0  0  0  0  0  0  0  0  0
  192.7360  176.8800  138.6690 C   0  0  0  0  0  3  0  0  0  0  0  0
  191.2330  176.6140  138.6430 C   0  0  1  0  0  3  0  0  0  0  0  0
  192.2100  174.8000  137.7100 C   0  0  0  0  0  0  0  0  0  0  0  0
  193.3790  175.6440  138.0580 C   0  0  0  0  0  3  0  0  0  0  0  0
  191.7060  173.2920  135.8330 C   0  0  0  0  0  1  0  0  0  0  0  0
  192.2970  173.5500  137.0980 O   0  0  0  0  0  0  0  0  0  0  0  0
  2 20  1  6  0  0  0
  2 16  1  0  0  0  0
  3  4  1  0  0  0  0
  4  8  2  0  0  0  0
  5 31  1  6  0  0  0
  5  3  1  0  0  0  0
  6  7  1  0  0  0  0
  7 23  2  0  0  0  0
  9 25  1  0  0  0  0
 10 23  1  0  0  0  0
 11  6  1  0  0  0  0
 12 17  1  1  0  0  0
 13  8  1  1  0  0  0
 13  2  1  0  0  0  0
 13 24  1  0  0  0  0
 14 10  2  0  0  0  0
 15 14  1  0  0  0  0
 15 12  1  0  0  0  0
 16  9  1  0  0  0  0
 17  4  1  0  0  0  0
 18 19  1  6  0  0  0
 18  5  1  0  0  0  0
 18 12  1  0  0  0  0
 20  1  2  0  0  0  0
 21  1  1  0  0  0  0
 22  6  2  0  0  0  0
 22 14  1  0  0  0  0
 23 21  1  0  0  0  0
 24  9  2  0  0  0  0
 25 26  1  0  0  0  0
 26 27  1  0  0  0  0
 28 30  2  0  0  0  0
 30 29  1  0  0  0  0
 30 27  1  0  0  0  0
 32 34  1  0  0  0  0
 34 31  1  6  0  0  0
 34 33  1  0  0  0  0
 35 32  2  0  0  0  0
 35 36  1  0  0  0  0
 36 33  2  0  0  0  0
 37 38  1  0  0  0  0
 38 35  1  0  0  0  0
M  END
>  <MODEL>
8

>  <REMARK>
 VINA RESULT:      -7.0      3.397      8.149
  Name = 
  7 active torsions:
  status: ('A' for Active; 'I' for Inactive)
    1  A    between atoms: N_5  and  C_12
    2  A    between atoms: N_5  and  C_24
    3  A    between atoms: C_7  and  N_16
    4  A    between atoms: N_16  and  C_25
    5  A    between atoms: C_24  and  C_30
    6  A    between atoms: C_26  and  O_29
    7  A    between atoms: C_30  and  C_38
                            x       y       z     vdW  Elec       q    Type
                         _______ _______ _______ _____ _____    ______ ____

>  <TORSDO>
F 7

$$$$
=
 OpenBabel10232412243D

 38 42  0  0  1  0  0  0  0  0999 V2000
  189.1260  177.3610  141.8160 C   0  0  0  0  0  3  0  0  0  0  0  0
  188.7840  178.3720  139.5650 C   0  0  2  0  0  3  0  0  0  0  0  0
  184.3830  178.8410  138.1430 C   0  0  0  0  0  2  0  0  0  0  0  0
  185.5930  178.5100  138.9680 C   0  0  0  0  0  0  0  0  0  0  0  0
  183.2510  179.4190  139.0090 C   0  0  2  0  0  3  0  0  0  0  0  0
  186.2180  178.2140  145.6520 C   0  0  0  0  0  0  0  0  0  0  0  0
  187.4490  177.8980  145.1600 N   0  0  0  0  0  0  0  0  0  0  0  0
  186.6030  177.8450  138.3890 C   0  0  0  0  0  3  0  0  0  0  0  0
  189.7990  176.6100  138.0300 C   0  0  0  0  0  0  0  0  0  0  0  0
  186.5700  177.7820  142.9550 C   0  0  0  0  0  3  0  0  0  0  0  0
  186.0380  178.4390  147.1090 C   0  0  0  0  0  1  0  0  0  0  0  0
  184.3010  178.1860  141.0450 C   0  0  2  0  0  3  0  0  0  0  0  0
  187.7970  177.2870  139.1130 C   0  0  1  0  0  3  0  0  0  0  0  0
  185.3080  178.1430  143.4170 C   0  0  0  0  0  0  0  0  0  0  0  0
  184.2340  178.3910  142.4990 N   0  0  0  0  0  2  0  0  0  0  0  0
  190.4430  178.0410  138.8750 S   0  0  0  0  0  0  0  0  0  0  0  0
  185.5620  178.8090  140.4350 C   0  0  0  0  0  2  0  0  0  0  0  0
  183.0040  178.6580  140.3330 C   0  0  1  0  0  3  0  0  0  0  0  0
  182.2150  179.4460  141.1750 O   0  0  0  0  0  1  0  0  0  0  0  0
  188.8400  178.4320  141.0640 C   0  0  0  0  0  3  0  0  0  0  0  0
  189.0490  177.4250  143.3190 C   0  0  0  0  0  2  0  0  0  0  0  0
  185.1290  178.3630  144.7840 C   0  0  0  0  0  3  0  0  0  0  0  0
  187.6530  177.6830  143.8320 C   0  0  0  0  0  0  0  0  0  0  0  0
  188.5210  176.3520  138.2140 C   0  0  0  0  0  3  0  0  0  0  0  0
  190.5970  175.7870  137.1820 N   0  0  0  0  0  2  0  0  0  0  0  0
  191.6890  174.9730  137.6940 C   0  0  0  0  0  2  0  0  0  0  0  0
  193.0110  175.6990  137.5140 C   0  0  0  0  0  2  0  0  0  0  0  0
  195.2860  175.0320  137.2740 O   0  0  0  0  0  1  0  0  0  0  0  0
  193.7310  173.5450  136.4830 O   0  0  0  0  0  0  0  0  0  0  0  0
  194.0750  174.7520  137.0770 C   0  0  0  0  0  0  0  0  0  0  0  0
  182.0200  179.6080  138.2380 N   0  0  0  0  0  2  0  0  0  0  0  0
  182.0350  181.9780  138.4730 N   0  0  0  0  0  0  0  0  0  0  0  0
  179.9820  180.9150  137.9340 C   0  0  0  0  0  3  0  0  0  0  0  0
  181.2780  180.7680  138.7280 C   0  0  1  0  0  3  0  0  0  0  0  0
  181.3930  182.7800  137.7010 C   0  0  0  0  0  0  0  0  0  0  0  0
  180.0660  182.2810  137.2670 C   0  0  0  0  0  3  0  0  0  0  0  0
  181.1880  184.9530  136.5680 C   0  0  0  0  0  1  0  0  0  0  0  0
  181.9320  184.0100  137.3240 O   0  0  0  0  0  0  0  0  0  0  0  0
  1 21  1  0  0  0  0
  2 20  1  1  0  0  0
  3  4  1  0  0  0  0
  3  5  1  0  0  0  0
  4 17  1  0  0  0  0
  5 31  1  6  0  0  0
  5 18  1  0  0  0  0
  6 11  1  0  0  0  0
  7  6  1  0  0  0  0
  8  4  2  0  0  0  0
  8 13  1  0  0  0  0
  9 24  2  0  0  0  0
  9 16  1  0  0  0  0
 10 14  2  0  0  0  0
 10 23  1  0  0  0  0
 12 17  1  6  0  0  0
 12 15  1  0  0  0  0
 13 24  1  6  0  0  0
 13  2  1  0  0  0  0
 14 22  1  0  0  0  0
 15 14  1  0  0  0  0
 16  2  1  0  0  0  0
 18 12  1  0  0  0  0
 18 19  1  1  0  0  0
 20  1  2  0  0  0  0
 21 23  1  0  0  0  0
 22  6  2  0  0  0  0
 23  7  2  0  0  0  0
 25 26  1  0  0  0  0
 25  9  1  0  0  0  0
 27 26  1  0  0  0  0
 29 30  2  0  0  0  0
 30 28  1  0  0  0  0
 30 27  1  0  0  0  0
 32 34  1  0  0  0  0
 33 34  1  0  0  0  0
 34 31  1  6  0  0  0
 35 32  2  0  0  0  0
 36 35  1  0  0  0  0
 36 33  2  0  0  0  0
 37 38  1  0  0  0  0
 38 35  1  0  0  0  0
M  END
>  <MODEL>
9

>  <REMARK>
 VINA RESULT:      -6.9      3.948      8.142
  Name = 
  7 active torsions:
  status: ('A' for Active; 'I' for Inactive)
    1  A    between atoms: N_5  and  C_12
    2  A    between atoms: N_5  and  C_24
    3  A    between atoms: C_7  and  N_16
    4  A    between atoms: N_16  and  C_25
    5  A    between atoms: C_24  and  C_30
    6  A    between atoms: C_26  and  O_29
    7  A    between atoms: C_30  and  C_38
                            x       y       z     vdW  Elec       q    Type
                         _______ _______ _______ _____ _____    ______ ____

>  <TORSDO>
F 7

$$$$
