=
 OpenBabel10232410193D

 41 44  0  0  1  0  0  0  0  0999 V2000
  188.1410  177.1470  143.0380 C   0  0  0  0  0  3  0  0  0  0  0  0
  186.2870  178.0070  144.9980 C   0  0  0  0  0  0  0  0  0  0  0  0
  186.8160  177.4660  142.6880 C   0  0  0  0  0  3  0  0  0  0  0  0
  189.9180  176.9520  144.8170 C   0  0  0  0  0  0  0  0  0  0  0  0
  185.8760  177.8720  143.6530 C   0  0  0  0  0  0  0  0  0  0  0  0
  185.4530  178.5180  146.0420 C   0  0  0  0  0  3  0  0  0  0  0  0
  185.9450  178.6600  147.3740 C   0  0  0  0  0  3  0  0  0  0  0  0
  187.6180  177.6620  145.3120 C   0  0  0  0  0  0  0  0  0  0  0  0
  187.2700  178.2740  147.6050 C   0  0  0  0  0  0  0  0  0  0  0  0
  189.2660  177.9160  148.3830 N   0  0  0  0  0  0  0  0  0  0  0  0
  188.5700  177.2310  144.3690 C   0  0  0  0  0  0  0  0  0  0  0  0
  190.2650  177.1450  146.1940 C   0  0  2  0  0  3  0  0  0  0  0  0
  188.0370  178.3440  148.7160 N   0  0  0  0  0  0  0  0  0  0  0  0
  189.2500  177.5840  147.0680 C   0  0  0  0  0  0  0  0  0  0  0  0
  188.0190  177.8010  146.6020 C   0  0  0  0  0  0  0  0  0  0  0  0
  184.2260  178.8940  142.0140 C   0  0  0  0  0  0  0  0  0  0  0  0
  185.1220  179.5330  141.3970 O   0  0  0  0  0  0  0  0  0  0  0  0
  184.5480  178.1950  143.2190 N   0  0  0  0  0  2  0  0  0  0  0  0
  180.8720  178.3170  140.3650 C   0  0  0  0  0  1  0  0  0  0  0  0
  182.8640  178.8930  141.5570 N   0  0  0  0  0  0  0  0  0  0  0  0
  182.3210  178.1140  140.6650 C   0  0  0  0  0  0  0  0  0  0  0  0
  183.1090  177.0370  139.9660 C   0  0  0  0  0  2  0  0  0  0  0  0
  183.6830  177.4710  138.6220 C   0  0  0  0  0  2  0  0  0  0  0  0
  183.2170  176.5350  137.5170 C   0  0  1  0  0  3  0  0  0  0  0  0
  183.1310  177.2760  136.1910 C   0  0  0  0  0  1  0  0  0  0  0  0
  185.4360  175.5340  136.8050 N   0  0  0  0  0  1  0  0  0  0  0  0
  184.1490  175.3750  137.3970 C   0  0  0  0  0  0  0  0  0  0  0  0
  183.7980  174.2480  137.8320 O   0  0  0  0  0  0  0  0  0  0  0  0
  191.9820  175.7190  147.2930 C   0  0  0  0  0  1  0  0  0  0  0  0
  191.5790  176.8990  146.6130 O   0  0  0  0  0  0  0  0  0  0  0  0
  190.9420  176.5090  143.9640 O   0  0  0  0  0  0  0  0  0  0  0  0
  191.9000  177.3430  143.3310 C   0  0  0  0  0  2  0  0  0  0  0  0
  191.2510  178.0550  142.1660 C   0  0  0  0  0  2  0  0  0  0  0  0
  191.6860  177.4050  140.8680 C   0  0  0  0  0  2  0  0  0  0  0  0
  190.4720  176.7960  140.1820 C   0  0  0  0  0  2  0  0  0  0  0  0
  189.8660  177.7200  139.1230 C   0  0  2  0  0  3  0  0  0  0  0  0
  188.4060  178.0180  139.4310 C   0  0  0  0  0  2  0  0  0  0  0  0
  187.5960  178.0900  138.1490 C   0  0  0  0  0  1  0  0  0  0  0  0
  190.0370  177.1600  137.7100 C   0  0  0  0  0  2  0  0  0  0  0  0
  190.4530  175.6970  137.7460 C   0  0  0  0  0  2  0  0  0  0  0  0
  189.3610  174.8120  137.1680 C   0  0  0  0  0  1  0  0  0  0  0  0
  1 11  1  0  0  0  0
  2  8  1  0  0  0  0
  2  6  1  0  0  0  0
  3  1  2  0  0  0  0
  3  5  1  0  0  0  0
  4 12  1  0  0  0  0
  5  2  2  0  0  0  0
  6  7  2  0  0  0  0
  7  9  1  0  0  0  0
  8 15  2  0  0  0  0
  9 13  2  0  0  0  0
 10 13  1  0  0  0  0
 11  4  2  0  0  0  0
 11  8  1  0  0  0  0
 12 30  1  6  0  0  0
 12 14  1  0  0  0  0
 14 10  2  0  0  0  0
 15 14  1  0  0  0  0
 15  9  1  0  0  0  0
 16 18  1  0  0  0  0
 17 16  2  0  0  0  0
 18  5  1  0  0  0  0
 19 21  1  0  0  0  0
 20 16  1  0  0  0  0
 21 20  2  0  0  0  0
 22 21  1  0  0  0  0
 23 22  1  0  0  0  0
 24 25  1  6  0  0  0
 24 23  1  0  0  0  0
 26 27  1  0  0  0  0
 27 24  1  0  0  0  0
 27 28  2  0  0  0  0
 30 29  1  0  0  0  0
 31  4  1  0  0  0  0
 32 31  1  0  0  0  0
 33 32  1  0  0  0  0
 34 33  1  0  0  0  0
 35 34  1  0  0  0  0
 36 39  1  6  0  0  0
 36 37  1  0  0  0  0
 36 35  1  0  0  0  0
 38 37  1  0  0  0  0
 39 40  1  0  0  0  0
 41 40  1  0  0  0  0
M  END
>  <MODEL>
1

>  <REMARK>
 VINA RESULT:      -8.2      0.000      0.000
  Name = 
  16 active torsions:
  status: ('A' for Active; 'I' for Inactive)
    1  A    between atoms: C_4  and  C_25
    2  A    between atoms: C_4  and  C_41
    3  A    between atoms: C_5  and  C_36
    4  A    between atoms: C_7  and  C_27
    5  A    between atoms: C_8  and  C_15
    6  A    between atoms: C_8  and  C_40
    7  A    between atoms: C_9  and  C_27
    8  A    between atoms: C_9  and  C_41
    9  A    between atoms: C_12  and  O_17
   10  A    between atoms: C_13  and  N_29
   11  A    between atoms: C_15  and  C_23
   12  A    between atoms: C_16  and  N_24
   13  A    between atoms: O_17  and  C_25
   14  A    between atoms: C_27  and  C_36
   15  A    between atoms: O_28  and  C_32
   16  A    between atoms: C_33  and  C_40
                            x       y       z     vdW  Elec       q    Type
                         _______ _______ _______ _____ _____    ______ ____

>  <TORSDO>
F 16

$$$$
=
 OpenBabel10232410193D

 41 44  0  0  1  0  0  0  0  0999 V2000
  186.9200  178.1150  142.2590 C   0  0  0  0  0  3  0  0  0  0  0  0
  189.7010  177.7530  141.8720 C   0  0  0  0  0  0  0  0  0  0  0  0
  187.4860  178.1950  140.9740 C   0  0  0  0  0  3  0  0  0  0  0  0
  187.2250  177.7420  144.7350 C   0  0  0  0  0  0  0  0  0  0  0  0
  188.8700  178.0410  140.7680 C   0  0  0  0  0  0  0  0  0  0  0  0
  191.1000  177.4670  141.7680 C   0  0  0  0  0  3  0  0  0  0  0  0
  191.8740  177.1490  142.9240 C   0  0  0  0  0  3  0  0  0  0  0  0
  189.1000  177.6980  143.1460 C   0  0  0  0  0  0  0  0  0  0  0  0
  191.2030  177.1370  144.1520 C   0  0  0  0  0  0  0  0  0  0  0  0
  190.5660  176.8910  146.2150 N   0  0  0  0  0  0  0  0  0  0  0  0
  187.7230  177.8700  143.3820 C   0  0  0  0  0  0  0  0  0  0  0  0
  188.1300  177.4160  145.7980 C   0  0  2  0  0  3  0  0  0  0  0  0
  191.6280  176.8180  145.3960 N   0  0  0  0  0  0  0  0  0  0  0  0
  189.4910  177.2550  145.4710 C   0  0  0  0  0  0  0  0  0  0  0  0
  189.8950  177.4100  144.2090 C   0  0  0  0  0  0  0  0  0  0  0  0
  189.5530  177.0080  138.5490 C   0  0  0  0  0  0  0  0  0  0  0  0
  189.5530  175.8340  139.0130 O   0  0  0  0  0  0  0  0  0  0  0  0
  189.3720  178.1220  139.4270 N   0  0  0  0  0  2  0  0  0  0  0  0
  189.3980  177.7510  134.8450 C   0  0  0  0  0  1  0  0  0  0  0  0
  189.7820  177.2570  137.1540 N   0  0  0  0  0  0  0  0  0  0  0  0
  188.8990  177.5320  136.2360 C   0  0  0  0  0  0  0  0  0  0  0  0
  187.4310  177.6430  136.5530 C   0  0  0  0  0  2  0  0  0  0  0  0
  186.5970  176.4880  136.0110 C   0  0  0  0  0  2  0  0  0  0  0  0
  186.0700  175.6310  137.1520 C   0  0  1  0  0  3  0  0  0  0  0  0
  184.5590  175.4860  137.0580 C   0  0  0  0  0  1  0  0  0  0  0  0
  186.0760  173.1580  137.7160 N   0  0  0  0  0  1  0  0  0  0  0  0
  186.7180  174.2870  137.1280 C   0  0  0  0  0  0  0  0  0  0  0  0
  187.8400  174.1470  136.5740 O   0  0  0  0  0  0  0  0  0  0  0  0
  187.8790  178.1940  148.1480 C   0  0  0  0  0  1  0  0  0  0  0  0
  187.6350  177.2660  147.1000 O   0  0  0  0  0  0  0  0  0  0  0  0
  185.8740  177.9040  145.0830 O   0  0  0  0  0  0  0  0  0  0  0  0
  185.1410  179.1160  144.9840 C   0  0  0  0  0  2  0  0  0  0  0  0
  183.6890  178.8490  145.3120 C   0  0  0  0  0  2  0  0  0  0  0  0
  182.8420  179.0690  144.0750 C   0  0  0  0  0  2  0  0  0  0  0  0
  183.6330  178.6530  142.8450 C   0  0  0  0  0  2  0  0  0  0  0  0
  182.8090  178.7330  141.5580 C   0  0  2  0  0  3  0  0  0  0  0  0
  181.3240  178.5700  141.8500 C   0  0  0  0  0  2  0  0  0  0  0  0
  180.5190  179.6250  141.1130 C   0  0  0  0  0  1  0  0  0  0  0  0
  183.2860  177.7250  140.5100 C   0  0  0  0  0  2  0  0  0  0  0  0
  184.2330  178.3780  139.5130 C   0  0  0  0  0  2  0  0  0  0  0  0
  183.5800  179.5830  138.8580 C   0  0  0  0  0  1  0  0  0  0  0  0
  1 11  1  0  0  0  0
  2  8  1  0  0  0  0
  3  1  2  0  0  0  0
  4 31  1  0  0  0  0
  4 12  1  0  0  0  0
  5  3  1  0  0  0  0
  5  2  2  0  0  0  0
  6  2  1  0  0  0  0
  6  7  2  0  0  0  0
  7  9  1  0  0  0  0
  8 11  1  0  0  0  0
  8 15  2  0  0  0  0
  9 15  1  0  0  0  0
  9 13  2  0  0  0  0
 11  4  2  0  0  0  0
 12 30  1  6  0  0  0
 13 10  1  0  0  0  0
 14 12  1  0  0  0  0
 14 10  2  0  0  0  0
 15 14  1  0  0  0  0
 16 17  2  0  0  0  0
 16 18  1  0  0  0  0
 18  5  1  0  0  0  0
 19 21  1  0  0  0  0
 20 16  1  0  0  0  0
 21 22  1  0  0  0  0
 21 20  2  0  0  0  0
 23 22  1  0  0  0  0
 23 24  1  0  0  0  0
 24 25  1  6  0  0  0
 27 24  1  0  0  0  0
 27 26  1  0  0  0  0
 28 27  2  0  0  0  0
 30 29  1  0  0  0  0
 32 31  1  0  0  0  0
 32 33  1  0  0  0  0
 34 33  1  0  0  0  0
 35 34  1  0  0  0  0
 36 39  1  6  0  0  0
 36 37  1  0  0  0  0
 36 35  1  0  0  0  0
 38 37  1  0  0  0  0
 40 39  1  0  0  0  0
 41 40  1  0  0  0  0
M  END
>  <MODEL>
2

>  <REMARK>
 VINA RESULT:      -7.7      2.501      5.791
  Name = 
  16 active torsions:
  status: ('A' for Active; 'I' for Inactive)
    1  A    between atoms: C_4  and  C_25
    2  A    between atoms: C_4  and  C_41
    3  A    between atoms: C_5  and  C_36
    4  A    between atoms: C_7  and  C_27
    5  A    between atoms: C_8  and  C_15
    6  A    between atoms: C_8  and  C_40
    7  A    between atoms: C_9  and  C_27
    8  A    between atoms: C_9  and  C_41
    9  A    between atoms: C_12  and  O_17
   10  A    between atoms: C_13  and  N_29
   11  A    between atoms: C_15  and  C_23
   12  A    between atoms: C_16  and  N_24
   13  A    between atoms: O_17  and  C_25
   14  A    between atoms: C_27  and  C_36
   15  A    between atoms: O_28  and  C_32
   16  A    between atoms: C_33  and  C_40
                            x       y       z     vdW  Elec       q    Type
                         _______ _______ _______ _____ _____    ______ ____

>  <TORSDO>
F 16

$$$$
=
 OpenBabel10232410193D

 41 44  0  0  1  0  0  0  0  0999 V2000
  185.8080  178.6670  141.0330 C   0  0  0  0  0  3  0  0  0  0  0  0
  183.8900  178.8590  143.1060 C   0  0  0  0  0  0  0  0  0  0  0  0
  186.2060  178.7330  142.3810 C   0  0  0  0  0  3  0  0  0  0  0  0
  183.9500  178.6200  139.3290 C   0  0  0  0  0  0  0  0  0  0  0  0
  185.2660  178.8530  143.4210 C   0  0  0  0  0  0  0  0  0  0  0  0
  182.8450  178.8630  144.0840 C   0  0  0  0  0  3  0  0  0  0  0  0
  181.4730  178.8340  143.6950 C   0  0  0  0  0  3  0  0  0  0  0  0
  183.5310  178.8080  141.7430 C   0  0  0  0  0  0  0  0  0  0  0  0
  181.2030  178.8060  142.3220 C   0  0  0  0  0  0  0  0  0  0  0  0
  180.3360  178.6420  140.3370 N   0  0  0  0  0  0  0  0  0  0  0  0
  184.4520  178.7110  140.6830 C   0  0  0  0  0  0  0  0  0  0  0  0
  182.5350  178.6000  139.0950 C   0  0  0  0  0  0  0  0  0  0  0  0
  180.0370  178.7110  141.6440 N   0  0  0  0  0  2  0  0  0  0  0  0
  181.6860  178.6950  140.2150 C   0  0  0  0  0  0  0  0  0  0  0  0
  182.2080  178.8030  141.4380 C   0  0  0  0  0  0  0  0  0  0  0  0
  186.5300  177.8830  145.4010 C   0  0  0  0  0  0  0  0  0  0  0  0
  186.5990  176.7330  144.8870 O   0  0  0  0  0  0  0  0  0  0  0  0
  185.7470  178.9000  144.7720 N   0  0  0  0  0  2  0  0  0  0  0  0
  188.8060  178.2230  148.4010 C   0  0  0  0  0  1  0  0  0  0  0  0
  187.1850  178.1840  146.6430 N   0  0  0  0  0  0  0  0  0  0  0  0
  188.3450  177.7600  147.0580 C   0  0  0  0  0  0  0  0  0  0  0  0
  189.2050  176.8510  146.2190 C   0  0  0  0  0  2  0  0  0  0  0  0
  190.5170  177.4870  145.7740 C   0  0  0  0  0  2  0  0  0  0  0  0
  190.4910  177.7710  144.2800 C   0  0  1  0  0  3  0  0  0  0  0  0
  190.8490  179.2230  144.0060 C   0  0  0  0  0  1  0  0  0  0  0  0
  192.0230  177.2520  142.3260 N   0  0  0  0  0  1  0  0  0  0  0  0
  191.4380  176.8640  143.5670 C   0  0  0  0  0  0  0  0  0  0  0  0
  191.7310  175.7490  144.0720 O   0  0  0  0  0  0  0  0  0  0  0  0
  181.5100  177.2870  137.2470 C   0  0  0  0  0  1  0  0  0  0  0  0
  182.0580  178.4830  137.7820 O   0  0  0  0  0  0  0  0  0  0  0  0
  184.7780  178.5290  138.1990 O   0  0  0  0  0  0  0  0  0  0  0  0
  185.2030  177.3200  137.5880 C   0  0  0  0  0  2  0  0  0  0  0  0
  186.7130  177.2960  137.5250 C   0  0  0  0  0  2  0  0  0  0  0  0
  187.2200  178.6200  136.9900 C   0  0  0  0  0  2  0  0  0  0  0  0
  188.7280  178.6930  137.1780 C   0  0  0  0  0  2  0  0  0  0  0  0
  189.2920  177.4660  137.8990 C   0  0  2  0  0  3  0  0  0  0  0  0
  189.9500  177.8600  139.2140 C   0  0  0  0  0  2  0  0  0  0  0  0
  189.1060  177.4010  140.3880 C   0  0  0  0  0  1  0  0  0  0  0  0
  190.2510  176.6710  137.0100 C   0  0  0  0  0  2  0  0  0  0  0  0
  190.2070  175.1870  137.3460 C   0  0  0  0  0  2  0  0  0  0  0  0
  191.6100  174.6110  137.4240 C   0  0  0  0  0  1  0  0  0  0  0  0
  1  3  1  0  0  0  0
  2  5  1  0  0  0  0
  2  6  1  0  0  0  0
  3  5  2  0  0  0  0
  4 11  1  0  0  0  0
  5 18  1  0  0  0  0
  7  6  2  0  0  0  0
  8  2  2  0  0  0  0
  9  7  1  0  0  0  0
 10 13  1  0  0  0  0
 11  1  2  0  0  0  0
 11  8  1  0  0  0  0
 12  4  2  0  0  0  0
 12 14  1  0  0  0  0
 13  9  1  0  0  0  0
 14 10  2  0  0  0  0
 14 15  1  0  0  0  0
 15  8  1  0  0  0  0
 15  9  2  0  0  0  0
 16 20  1  0  0  0  0
 17 16  2  0  0  0  0
 18 16  1  0  0  0  0
 20 21  2  0  0  0  0
 21 19  1  0  0  0  0
 22 21  1  0  0  0  0
 23 22  1  0  0  0  0
 24 25  1  1  0  0  0
 24 23  1  0  0  0  0
 26 27  1  0  0  0  0
 27 28  2  0  0  0  0
 27 24  1  0  0  0  0
 29 30  1  0  0  0  0
 30 12  1  0  0  0  0
 31  4  1  0  0  0  0
 32 31  1  0  0  0  0
 33 32  1  0  0  0  0
 34 35  1  0  0  0  0
 34 33  1  0  0  0  0
 35 36  1  0  0  0  0
 36 39  1  6  0  0  0
 36 37  1  0  0  0  0
 37 38  1  0  0  0  0
 39 40  1  0  0  0  0
 40 41  1  0  0  0  0
M  END
>  <MODEL>
3

>  <REMARK>
 VINA RESULT:      -7.4      2.165      7.687
  Name = 
  16 active torsions:
  status: ('A' for Active; 'I' for Inactive)
    1  A    between atoms: C_4  and  C_25
    2  A    between atoms: C_4  and  C_41
    3  A    between atoms: C_5  and  C_36
    4  A    between atoms: C_7  and  C_27
    5  A    between atoms: C_8  and  C_15
    6  A    between atoms: C_8  and  C_40
    7  A    between atoms: C_9  and  C_27
    8  A    between atoms: C_9  and  C_41
    9  A    between atoms: C_12  and  O_17
   10  A    between atoms: C_13  and  N_29
   11  A    between atoms: C_15  and  C_23
   12  A    between atoms: C_16  and  N_24
   13  A    between atoms: O_17  and  C_25
   14  A    between atoms: C_27  and  C_36
   15  A    between atoms: O_28  and  C_32
   16  A    between atoms: C_33  and  C_40
                            x       y       z     vdW  Elec       q    Type
                         _______ _______ _______ _____ _____    ______ ____

>  <TORSDO>
F 16

$$$$
=
 OpenBabel10232410193D

 41 44  0  0  1  0  0  0  0  0999 V2000
  190.7620  176.8330  138.9380 C   0  0  0  0  0  3  0  0  0  0  0  0
  189.1180  177.4180  141.1670 C   0  0  0  0  0  0  0  0  0  0  0  0
  191.1920  176.5470  140.2470 C   0  0  0  0  0  3  0  0  0  0  0  0
  188.9800  177.7330  137.3980 C   0  0  0  0  0  0  0  0  0  0  0  0
  190.3970  176.8530  141.3670 C   0  0  0  0  0  0  0  0  0  0  0  0
  188.1800  177.6670  142.2190 C   0  0  0  0  0  3  0  0  0  0  0  0
  186.8900  178.2090  141.9410 C   0  0  0  0  0  3  0  0  0  0  0  0
  188.7300  177.7060  139.8430 C   0  0  0  0  0  0  0  0  0  0  0  0
  186.5930  178.4860  140.6020 C   0  0  0  0  0  0  0  0  0  0  0  0
  185.6750  178.9510  138.6890 N   0  0  0  0  0  0  0  0  0  0  0  0
  189.5160  177.4300  138.7080 C   0  0  0  0  0  0  0  0  0  0  0  0
  187.6590  178.2760  137.2780 C   0  0  0  0  0  0  0  0  0  0  0  0
  185.4600  178.9330  140.0150 N   0  0  0  0  0  2  0  0  0  0  0  0
  186.9410  178.5150  138.4660 C   0  0  0  0  0  0  0  0  0  0  0  0
  187.4970  178.2390  139.6470 C   0  0  0  0  0  0  0  0  0  0  0  0
  191.3430  177.4640  143.6440 C   0  0  0  0  0  0  0  0  0  0  0  0
  191.5990  178.6500  143.3000 O   0  0  0  0  0  0  0  0  0  0  0  0
  190.8950  176.5190  142.6690 N   0  0  0  0  0  2  0  0  0  0  0  0
  191.2030  176.6700  147.3380 C   0  0  0  0  0  1  0  0  0  0  0  0
  191.5380  177.0220  144.9970 N   0  0  0  0  0  0  0  0  0  0  0  0
  190.7750  177.2450  146.0280 C   0  0  0  0  0  0  0  0  0  0  0  0
  189.4980  178.0380  145.9160 C   0  0  0  0  0  2  0  0  0  0  0  0
  188.2410  177.1760  145.8930 C   0  0  0  0  0  2  0  0  0  0  0  0
  187.3010  177.5760  147.0210 C   0  0  1  0  0  3  0  0  0  0  0  0
  188.0600  178.3140  148.1130 C   0  0  0  0  0  1  0  0  0  0  0  0
  185.6340  178.1820  145.2080 N   0  0  0  0  0  1  0  0  0  0  0  0
  186.1990  178.4330  146.4920 C   0  0  0  0  0  0  0  0  0  0  0  0
  185.7570  179.3810  147.1920 O   0  0  0  0  0  0  0  0  0  0  0  0
  186.2840  177.6480  135.3020 C   0  0  0  0  0  1  0  0  0  0  0  0
  187.1380  178.5400  136.0040 O   0  0  0  0  0  0  0  0  0  0  0  0
  189.6820  177.5080  136.2020 O   0  0  0  0  0  0  0  0  0  0  0  0
  189.7470  176.2700  135.5110 C   0  0  0  0  0  2  0  0  0  0  0  0
  191.1920  175.9440  135.2050 C   0  0  0  0  0  2  0  0  0  0  0  0
  191.6160  174.7270  136.0010 C   0  0  0  0  0  2  0  0  0  0  0  0
  193.1360  174.6690  136.0540 C   0  0  0  0  0  2  0  0  0  0  0  0
  193.6550  173.9000  137.2720 C   0  0  2  0  0  3  0  0  0  0  0  0
  194.5230  174.7900  138.1490 C   0  0  0  0  0  2  0  0  0  0  0  0
  195.5640  173.9630  138.8800 C   0  0  0  0  0  1  0  0  0  0  0  0
  194.3920  172.6220  136.8700 C   0  0  0  0  0  2  0  0  0  0  0  0
  194.8650  172.6930  135.4240 C   0  0  0  0  0  2  0  0  0  0  0  0
  196.2900  172.1800  135.2990 C   0  0  0  0  0  1  0  0  0  0  0  0
  1  3  1  0  0  0  0
  2  5  1  0  0  0  0
  2  6  1  0  0  0  0
  3  5  2  0  0  0  0
  4 11  1  0  0  0  0
  5 18  1  0  0  0  0
  7  6  2  0  0  0  0
  8  2  2  0  0  0  0
  9  7  1  0  0  0  0
 10 13  1  0  0  0  0
 11  1  2  0  0  0  0
 11  8  1  0  0  0  0
 12  4  2  0  0  0  0
 12 14  1  0  0  0  0
 13  9  1  0  0  0  0
 14 10  2  0  0  0  0
 14 15  1  0  0  0  0
 15  8  1  0  0  0  0
 15  9  2  0  0  0  0
 16 20  1  0  0  0  0
 17 16  2  0  0  0  0
 18 16  1  0  0  0  0
 20 21  2  0  0  0  0
 21 19  1  0  0  0  0
 22 21  1  0  0  0  0
 23 22  1  0  0  0  0
 23 24  1  0  0  0  0
 24 25  1  1  0  0  0
 26 27  1  0  0  0  0
 27 24  1  0  0  0  0
 27 28  2  0  0  0  0
 29 30  1  0  0  0  0
 30 12  1  0  0  0  0
 31  4  1  0  0  0  0
 32 31  1  0  0  0  0
 33 32  1  0  0  0  0
 33 34  1  0  0  0  0
 34 35  1  0  0  0  0
 36 35  1  6  0  0  0
 36 37  1  0  0  0  0
 37 38  1  0  0  0  0
 39 36  1  0  0  0  0
 40 39  1  0  0  0  0
 41 40  1  0  0  0  0
M  END
>  <MODEL>
4

>  <REMARK>
 VINA RESULT:      -7.4      3.285      8.258
  Name = 
  16 active torsions:
  status: ('A' for Active; 'I' for Inactive)
    1  A    between atoms: C_4  and  C_25
    2  A    between atoms: C_4  and  C_41
    3  A    between atoms: C_5  and  C_36
    4  A    between atoms: C_7  and  C_27
    5  A    between atoms: C_8  and  C_15
    6  A    between atoms: C_8  and  C_40
    7  A    between atoms: C_9  and  C_27
    8  A    between atoms: C_9  and  C_41
    9  A    between atoms: C_12  and  O_17
   10  A    between atoms: C_13  and  N_29
   11  A    between atoms: C_15  and  C_23
   12  A    between atoms: C_16  and  N_24
   13  A    between atoms: O_17  and  C_25
   14  A    between atoms: C_27  and  C_36
   15  A    between atoms: O_28  and  C_32
   16  A    between atoms: C_33  and  C_40
                            x       y       z     vdW  Elec       q    Type
                         _______ _______ _______ _____ _____    ______ ____

>  <TORSDO>
F 16

$$$$
=
 OpenBabel10232410193D

 41 44  0  0  1  0  0  0  0  0999 V2000
  187.6590  177.7060  141.5000 C   0  0  0  0  0  3  0  0  0  0  0  0
  190.3010  177.2770  142.4230 C   0  0  0  0  0  0  0  0  0  0  0  0
  188.7310  177.5980  140.5950 C   0  0  0  0  0  3  0  0  0  0  0  0
  186.8330  177.6910  143.8820 C   0  0  0  0  0  0  0  0  0  0  0  0
  190.0530  177.4080  141.0390 C   0  0  0  0  0  0  0  0  0  0  0  0
  191.5820  176.9710  142.9810 C   0  0  0  0  0  3  0  0  0  0  0  0
  191.7540  176.8180  144.3900 C   0  0  0  0  0  3  0  0  0  0  0  0
  189.2030  177.4080  143.2990 C   0  0  0  0  0  0  0  0  0  0  0  0
  190.6180  176.9860  145.1890 C   0  0  0  0  0  0  0  0  0  0  0  0
  189.1330  177.0420  146.7740 N   0  0  0  0  0  0  0  0  0  0  0  0
  187.8760  177.6210  142.8820 C   0  0  0  0  0  0  0  0  0  0  0  0
  187.1620  177.5160  145.2670 C   0  0  2  0  0  3  0  0  0  0  0  0
  190.4380  176.8470  146.5220 N   0  0  0  0  0  0  0  0  0  0  0  0
  188.5160  177.3020  145.5940 C   0  0  0  0  0  0  0  0  0  0  0  0
  189.4370  177.2720  144.6300 C   0  0  0  0  0  0  0  0  0  0  0  0
  190.9960  176.5410  138.8440 C   0  0  0  0  0  0  0  0  0  0  0  0
  190.0790  175.6860  138.7050 O   0  0  0  0  0  0  0  0  0  0  0  0
  191.0920  177.2920  140.0570 N   0  0  0  0  0  2  0  0  0  0  0  0
  193.8410  176.3840  136.3600 C   0  0  0  0  0  1  0  0  0  0  0  0
  191.9850  176.7450  137.8240 N   0  0  0  0  0  0  0  0  0  0  0  0
  192.9330  175.9310  137.4550 C   0  0  0  0  0  0  0  0  0  0  0  0
  193.1080  174.5760  138.0900 C   0  0  0  0  0  2  0  0  0  0  0  0
  194.1600  173.7100  137.4060 C   0  0  0  0  0  2  0  0  0  0  0  0
  195.2390  173.3010  138.3980 C   0  0  1  0  0  3  0  0  0  0  0  0
  196.0100  172.0960  137.8810 C   0  0  0  0  0  1  0  0  0  0  0  0
  196.2790  175.0260  139.9390 N   0  0  0  0  0  1  0  0  0  0  0  0
  196.1710  174.4410  138.6440 C   0  0  0  0  0  0  0  0  0  0  0  0
  196.8750  174.8840  137.6990 O   0  0  0  0  0  0  0  0  0  0  0  0
  185.8410  178.7050  147.0080 C   0  0  0  0  0  1  0  0  0  0  0  0
  186.1420  177.5570  146.2260 O   0  0  0  0  0  0  0  0  0  0  0  0
  185.4790  177.9090  143.5780 O   0  0  0  0  0  0  0  0  0  0  0  0
  184.8890  179.1750  143.3280 C   0  0  0  0  0  2  0  0  0  0  0  0
  183.4930  178.9760  142.7800 C   0  0  0  0  0  2  0  0  0  0  0  0
  183.5610  178.1600  141.5050 C   0  0  0  0  0  2  0  0  0  0  0  0
  182.5650  178.7190  140.5000 C   0  0  0  0  0  2  0  0  0  0  0  0
  182.4210  177.8350  139.2580 C   0  0  2  0  0  3  0  0  0  0  0  0
  182.7030  176.3770  139.5900 C   0  0  0  0  0  2  0  0  0  0  0  0
  181.6030  175.4850  139.0450 C   0  0  0  0  0  1  0  0  0  0  0  0
  183.2970  178.3250  138.1030 C   0  0  0  0  0  2  0  0  0  0  0  0
  184.5350  177.4530  137.9460 C   0  0  0  0  0  2  0  0  0  0  0  0
  185.7990  178.2860  138.0670 C   0  0  0  0  0  1  0  0  0  0  0  0
  1 11  1  0  0  0  0
  2  6  1  0  0  0  0
  2  8  1  0  0  0  0
  3  5  1  0  0  0  0
  3  1  2  0  0  0  0
  4 12  1  0  0  0  0
  5  2  2  0  0  0  0
  6  7  2  0  0  0  0
  7  9  1  0  0  0  0
  8 15  2  0  0  0  0
  9 13  2  0  0  0  0
 11  8  1  0  0  0  0
 11  4  2  0  0  0  0
 12 14  1  0  0  0  0
 12 30  1  6  0  0  0
 13 10  1  0  0  0  0
 14 10  2  0  0  0  0
 15  9  1  0  0  0  0
 15 14  1  0  0  0  0
 16 18  1  0  0  0  0
 17 16  2  0  0  0  0
 18  5  1  0  0  0  0
 19 21  1  0  0  0  0
 20 16  1  0  0  0  0
 21 20  2  0  0  0  0
 21 22  1  0  0  0  0
 23 22  1  0  0  0  0
 23 24  1  0  0  0  0
 24 25  1  6  0  0  0
 24 27  1  0  0  0  0
 27 26  1  0  0  0  0
 28 27  2  0  0  0  0
 30 29  1  0  0  0  0
 31  4  1  0  0  0  0
 32 31  1  0  0  0  0
 33 32  1  0  0  0  0
 34 33  1  0  0  0  0
 35 34  1  0  0  0  0
 36 39  1  6  0  0  0
 36 37  1  0  0  0  0
 36 35  1  0  0  0  0
 38 37  1  0  0  0  0
 40 41  1  0  0  0  0
 40 39  1  0  0  0  0
M  END
>  <MODEL>
5

>  <REMARK>
 VINA RESULT:      -7.3      3.687      7.716
  Name = 
  16 active torsions:
  status: ('A' for Active; 'I' for Inactive)
    1  A    between atoms: C_4  and  C_25
    2  A    between atoms: C_4  and  C_41
    3  A    between atoms: C_5  and  C_36
    4  A    between atoms: C_7  and  C_27
    5  A    between atoms: C_8  and  C_15
    6  A    between atoms: C_8  and  C_40
    7  A    between atoms: C_9  and  C_27
    8  A    between atoms: C_9  and  C_41
    9  A    between atoms: C_12  and  O_17
   10  A    between atoms: C_13  and  N_29
   11  A    between atoms: C_15  and  C_23
   12  A    between atoms: C_16  and  N_24
   13  A    between atoms: O_17  and  C_25
   14  A    between atoms: C_27  and  C_36
   15  A    between atoms: O_28  and  C_32
   16  A    between atoms: C_33  and  C_40
                            x       y       z     vdW  Elec       q    Type
                         _______ _______ _______ _____ _____    ______ ____

>  <TORSDO>
F 16

$$$$
=
 OpenBabel10232410193D

 41 44  0  0  1  0  0  0  0  0999 V2000
  186.6850  178.1660  142.4910 C   0  0  0  0  0  3  0  0  0  0  0  0
  189.4290  177.8160  141.8850 C   0  0  0  0  0  0  0  0  0  0  0  0
  187.1500  178.2630  141.1670 C   0  0  0  0  0  3  0  0  0  0  0  0
  187.1820  177.7670  144.9310 C   0  0  0  0  0  0  0  0  0  0  0  0
  188.5130  178.1140  140.8520 C   0  0  0  0  0  0  0  0  0  0  0  0
  190.8150  177.5340  141.6700 C   0  0  0  0  0  3  0  0  0  0  0  0
  191.6770  177.2060  142.7580 C   0  0  0  0  0  3  0  0  0  0  0  0
  188.9280  177.7450  143.2010 C   0  0  0  0  0  0  0  0  0  0  0  0
  191.1040  177.1780  144.0340 C   0  0  0  0  0  0  0  0  0  0  0  0
  190.6290  176.9070  146.1370 N   0  0  0  0  0  0  0  0  0  0  0  0
  187.5730  177.9120  143.5450 C   0  0  0  0  0  0  0  0  0  0  0  0
  188.1680  177.4310  145.9170 C   0  0  2  0  0  3  0  0  0  0  0  0
  191.6250  176.8460  145.2370 N   0  0  0  0  0  0  0  0  0  0  0  0
  189.4990  177.2770  145.4830 C   0  0  0  0  0  0  0  0  0  0  0  0
  189.8030  177.4470  144.1960 C   0  0  0  0  0  0  0  0  0  0  0  0
  188.8860  177.1330  138.5380 C   0  0  0  0  0  0  0  0  0  0  0  0
  188.7860  175.9440  138.9460 O   0  0  0  0  0  0  0  0  0  0  0  0
  188.9100  178.2110  139.4770 N   0  0  0  0  0  2  0  0  0  0  0  0
  189.8320  177.4190  134.8880 C   0  0  0  0  0  1  0  0  0  0  0  0
  189.0270  177.4320  137.1400 N   0  0  0  0  0  0  0  0  0  0  0  0
  189.8950  176.9410  136.3020 C   0  0  0  0  0  0  0  0  0  0  0  0
  190.9190  175.9200  136.7250 C   0  0  0  0  0  2  0  0  0  0  0  0
  192.1780  175.9220  135.8650 C   0  0  0  0  0  2  0  0  0  0  0  0
  193.4030  176.2250  136.7160 C   0  0  1  0  0  3  0  0  0  0  0  0
  193.0130  176.3830  138.1770 C   0  0  0  0  0  1  0  0  0  0  0  0
  195.8020  175.4020  136.7570 N   0  0  0  0  0  1  0  0  0  0  0  0
  194.4140  175.1370  136.5680 C   0  0  0  0  0  0  0  0  0  0  0  0
  194.0360  173.9710  136.2830 O   0  0  0  0  0  0  0  0  0  0  0  0
  187.9190  178.2700  148.2460 C   0  0  0  0  0  1  0  0  0  0  0  0
  187.7750  177.2650  147.2520 O   0  0  0  0  0  0  0  0  0  0  0  0
  185.8620  177.9220  145.3850 O   0  0  0  0  0  0  0  0  0  0  0  0
  185.2110  179.1630  145.6050 C   0  0  0  0  0  2  0  0  0  0  0  0
  183.7670  179.0540  145.1690 C   0  0  0  0  0  2  0  0  0  0  0  0
  183.6380  179.4930  143.7240 C   0  0  0  0  0  2  0  0  0  0  0  0
  182.9330  178.4040  142.9310 C   0  0  0  0  0  2  0  0  0  0  0  0
  182.6640  178.8110  141.4800 C   0  0  2  0  0  3  0  0  0  0  0  0
  181.1700  178.8550  141.1930 C   0  0  0  0  0  2  0  0  0  0  0  0
  180.3780  178.5170  142.4430 C   0  0  0  0  0  1  0  0  0  0  0  0
  183.3970  177.9070  140.4870 C   0  0  0  0  0  2  0  0  0  0  0  0
  182.4900  176.7900  139.9890 C   0  0  0  0  0  2  0  0  0  0  0  0
  182.9930  176.2380  138.6670 C   0  0  0  0  0  1  0  0  0  0  0  0
  1 11  1  0  0  0  0
  2  8  1  0  0  0  0
  3  1  2  0  0  0  0
  4 31  1  0  0  0  0
  4 12  1  0  0  0  0
  5  3  1  0  0  0  0
  5  2  2  0  0  0  0
  6  2  1  0  0  0  0
  6  7  2  0  0  0  0
  7  9  1  0  0  0  0
  8 11  1  0  0  0  0
  8 15  2  0  0  0  0
  9 15  1  0  0  0  0
  9 13  2  0  0  0  0
 11  4  2  0  0  0  0
 12 30  1  6  0  0  0
 13 10  1  0  0  0  0
 14 12  1  0  0  0  0
 14 10  2  0  0  0  0
 15 14  1  0  0  0  0
 16 17  2  0  0  0  0
 16 18  1  0  0  0  0
 18  5  1  0  0  0  0
 19 21  1  0  0  0  0
 20 16  1  0  0  0  0
 21 22  1  0  0  0  0
 21 20  2  0  0  0  0
 23 24  1  0  0  0  0
 23 22  1  0  0  0  0
 24 25  1  1  0  0  0
 27 24  1  0  0  0  0
 27 26  1  0  0  0  0
 28 27  2  0  0  0  0
 30 29  1  0  0  0  0
 31 32  1  0  0  0  0
 33 32  1  0  0  0  0
 34 33  1  0  0  0  0
 35 34  1  0  0  0  0
 36 39  1  6  0  0  0
 36 35  1  0  0  0  0
 37 36  1  0  0  0  0
 37 38  1  0  0  0  0
 40 39  1  0  0  0  0
 41 40  1  0  0  0  0
M  END
>  <MODEL>
6

>  <REMARK>
 VINA RESULT:      -7.1      3.143      6.915
  Name = 
  16 active torsions:
  status: ('A' for Active; 'I' for Inactive)
    1  A    between atoms: C_4  and  C_25
    2  A    between atoms: C_4  and  C_41
    3  A    between atoms: C_5  and  C_36
    4  A    between atoms: C_7  and  C_27
    5  A    between atoms: C_8  and  C_15
    6  A    between atoms: C_8  and  C_40
    7  A    between atoms: C_9  and  C_27
    8  A    between atoms: C_9  and  C_41
    9  A    between atoms: C_12  and  O_17
   10  A    between atoms: C_13  and  N_29
   11  A    between atoms: C_15  and  C_23
   12  A    between atoms: C_16  and  N_24
   13  A    between atoms: O_17  and  C_25
   14  A    between atoms: C_27  and  C_36
   15  A    between atoms: O_28  and  C_32
   16  A    between atoms: C_33  and  C_40
                            x       y       z     vdW  Elec       q    Type
                         _______ _______ _______ _____ _____    ______ ____

>  <TORSDO>
F 16

$$$$
=
 OpenBabel10232410193D

 41 44  0  0  1  0  0  0  0  0999 V2000
  186.0580  178.4240  138.5730 C   0  0  0  0  0  3  0  0  0  0  0  0
  187.9860  178.0950  140.6200 C   0  0  0  0  0  0  0  0  0  0  0  0
  185.7690  178.7860  139.9020 C   0  0  0  0  0  3  0  0  0  0  0  0
  187.6970  177.5030  136.8920 C   0  0  0  0  0  0  0  0  0  0  0  0
  186.7080  178.6070  140.9340 C   0  0  0  0  0  0  0  0  0  0  0  0
  189.0550  177.9750  141.5640 C   0  0  0  0  0  3  0  0  0  0  0  0
  190.3340  177.4810  141.1680 C   0  0  0  0  0  3  0  0  0  0  0  0
  188.2310  177.7280  139.2800 C   0  0  0  0  0  0  0  0  0  0  0  0
  190.4860  177.1190  139.8250 C   0  0  0  0  0  0  0  0  0  0  0  0
  191.1990  176.5580  137.8510 N   0  0  0  0  0  0  0  0  0  0  0  0
  187.3020  177.8760  138.2340 C   0  0  0  0  0  0  0  0  0  0  0  0
  189.0250  177.0210  136.6490 C   0  0  0  0  0  0  0  0  0  0  0  0
  191.5670  176.6880  139.1360 N   0  0  0  0  0  2  0  0  0  0  0  0
  189.8920  176.9110  137.7550 C   0  0  0  0  0  0  0  0  0  0  0  0
  189.4630  177.2460  138.9720 C   0  0  0  0  0  0  0  0  0  0  0  0
  185.3120  178.4170  143.0490 C   0  0  0  0  0  0  0  0  0  0  0  0
  184.4500  177.6780  142.5010 O   0  0  0  0  0  0  0  0  0  0  0  0
  186.3470  179.0120  142.2620 N   0  0  0  0  0  2  0  0  0  0  0  0
  185.7510  178.7410  146.7900 C   0  0  0  0  0  1  0  0  0  0  0  0
  185.2510  178.7180  144.4520 N   0  0  0  0  0  0  0  0  0  0  0  0
  186.0260  178.2720  145.3990 C   0  0  0  0  0  0  0  0  0  0  0  0
  187.1680  177.3310  145.1160 C   0  0  0  0  0  2  0  0  0  0  0  0
  188.5430  177.9650  145.2900 C   0  0  0  0  0  2  0  0  0  0  0  0
  189.5700  176.9110  145.6750 C   0  0  1  0  0  3  0  0  0  0  0  0
  190.7740  176.9740  144.7480 C   0  0  0  0  0  1  0  0  0  0  0  0
  191.3630  176.9220  147.4690 N   0  0  0  0  0  1  0  0  0  0  0  0
  190.0010  177.1060  147.0910 C   0  0  0  0  0  0  0  0  0  0  0  0
  189.1540  177.4450  147.9580 O   0  0  0  0  0  0  0  0  0  0  0  0
  189.6130  175.3570  134.8960 C   0  0  0  0  0  1  0  0  0  0  0  0
  189.4070  176.6890  135.3430 O   0  0  0  0  0  0  0  0  0  0  0  0
  186.8470  177.6010  135.7790 O   0  0  0  0  0  0  0  0  0  0  0  0
  186.0020  176.5660  135.2990 C   0  0  0  0  0  2  0  0  0  0  0  0
  184.5900  176.8100  135.7830 C   0  0  0  0  0  2  0  0  0  0  0  0
  184.2350  175.7890  136.8450 C   0  0  0  0  0  2  0  0  0  0  0  0
  182.8270  176.0630  137.3520 C   0  0  0  0  0  2  0  0  0  0  0  0
  182.7820  177.1870  138.3890 C   0  0  2  0  0  3  0  0  0  0  0  0
  182.2860  176.6710  139.7330 C   0  0  0  0  0  2  0  0  0  0  0  0
  181.2410  175.5890  139.5330 C   0  0  0  0  0  1  0  0  0  0  0  0
  181.9500  178.3770  137.9070 C   0  0  0  0  0  2  0  0  0  0  0  0
  182.4860  179.6860  138.4710 C   0  0  0  0  0  2  0  0  0  0  0  0
  181.3580  180.6800  138.6890 C   0  0  0  0  0  1  0  0  0  0  0  0
  1  3  1  0  0  0  0
  2  5  1  0  0  0  0
  2  6  1  0  0  0  0
  3  5  2  0  0  0  0
  4 11  1  0  0  0  0
  5 18  1  0  0  0  0
  7  6  2  0  0  0  0
  8  2  2  0  0  0  0
  9  7  1  0  0  0  0
 10 13  1  0  0  0  0
 11  1  2  0  0  0  0
 11  8  1  0  0  0  0
 12  4  2  0  0  0  0
 12 14  1  0  0  0  0
 13  9  1  0  0  0  0
 14 10  2  0  0  0  0
 14 15  1  0  0  0  0
 15  8  1  0  0  0  0
 15  9  2  0  0  0  0
 16 20  1  0  0  0  0
 17 16  2  0  0  0  0
 18 16  1  0  0  0  0
 20 21  2  0  0  0  0
 21 19  1  0  0  0  0
 22 23  1  0  0  0  0
 22 21  1  0  0  0  0
 23 24  1  0  0  0  0
 24 25  1  6  0  0  0
 24 27  1  0  0  0  0
 27 26  1  0  0  0  0
 27 28  2  0  0  0  0
 29 30  1  0  0  0  0
 30 12  1  0  0  0  0
 31  4  1  0  0  0  0
 32 31  1  0  0  0  0
 32 33  1  0  0  0  0
 33 34  1  0  0  0  0
 34 35  1  0  0  0  0
 36 35  1  6  0  0  0
 36 37  1  0  0  0  0
 38 37  1  0  0  0  0
 39 36  1  0  0  0  0
 39 40  1  0  0  0  0
 40 41  1  0  0  0  0
M  END
>  <MODEL>
7

>  <REMARK>
 VINA RESULT:      -7.1      2.473      8.312
  Name = 
  16 active torsions:
  status: ('A' for Active; 'I' for Inactive)
    1  A    between atoms: C_4  and  C_25
    2  A    between atoms: C_4  and  C_41
    3  A    between atoms: C_5  and  C_36
    4  A    between atoms: C_7  and  C_27
    5  A    between atoms: C_8  and  C_15
    6  A    between atoms: C_8  and  C_40
    7  A    between atoms: C_9  and  C_27
    8  A    between atoms: C_9  and  C_41
    9  A    between atoms: C_12  and  O_17
   10  A    between atoms: C_13  and  N_29
   11  A    between atoms: C_15  and  C_23
   12  A    between atoms: C_16  and  N_24
   13  A    between atoms: O_17  and  C_25
   14  A    between atoms: C_27  and  C_36
   15  A    between atoms: O_28  and  C_32
   16  A    between atoms: C_33  and  C_40
                            x       y       z     vdW  Elec       q    Type
                         _______ _______ _______ _____ _____    ______ ____

>  <TORSDO>
F 16

$$$$
=
 OpenBabel10232410193D

 41 44  0  0  1  0  0  0  0  0999 V2000
  188.4190  177.7430  140.3300 C   0  0  0  0  0  3  0  0  0  0  0  0
  187.2930  178.0390  137.7490 C   0  0  0  0  0  0  0  0  0  0  0  0
  187.1300  178.2820  140.1620 C   0  0  0  0  0  3  0  0  0  0  0  0
  190.5040  176.7680  139.2990 C   0  0  0  0  0  0  0  0  0  0  0  0
  186.5650  178.4570  138.8850 C   0  0  0  0  0  0  0  0  0  0  0  0
  186.7770  178.0630  136.4150 C   0  0  0  0  0  3  0  0  0  0  0  0
  187.5550  177.5930  135.3150 C   0  0  0  0  0  3  0  0  0  0  0  0
  188.5880  177.5200  137.9560 C   0  0  1  0  0  3  0  0  0  0  0  0
  188.8380  177.1150  135.6060 C   0  0  0  0  0  0  0  0  0  0  0  0
  190.8050  176.1920  135.6040 N   0  0  0  0  0  0  0  0  0  0  0  0
  189.1840  177.3560  139.2210 C   0  0  0  0  0  0  0  0  0  0  0  0
  191.1630  176.3390  138.1000 C   0  0  0  0  0  0  0  0  0  0  0  0
  189.7790  176.5520  134.8150 N   0  0  0  0  0  0  0  0  0  0  0  0
  190.4900  176.5360  136.8780 C   0  0  0  0  0  0  0  0  0  0  0  0
  189.2850  177.1080  136.8670 C   0  0  0  0  0  0  0  0  0  0  0  0
  184.0490  178.2270  138.6200 C   0  0  0  0  0  0  0  0  0  0  0  0
  184.1250  177.0270  138.2400 O   0  0  0  0  0  0  0  0  0  0  0  0
  185.2410  178.9980  138.7940 N   0  0  0  0  0  2  0  0  0  0  0  0
  180.7820  179.6330  139.9030 C   0  0  0  0  0  1  0  0  0  0  0  0
  182.7780  178.8610  138.8370 N   0  0  0  0  0  0  0  0  0  0  0  0
  182.0850  178.9040  139.9390 C   0  0  0  0  0  0  0  0  0  0  0  0
  182.5740  178.2620  141.2110 C   0  0  0  0  0  2  0  0  0  0  0  0
  183.5170  179.1450  142.0210 C   0  0  0  0  0  2  0  0  0  0  0  0
  184.0620  178.3820  143.2190 C   0  0  1  0  0  3  0  0  0  0  0  0
  185.5560  178.6250  143.3720 C   0  0  0  0  0  1  0  0  0  0  0  0
  184.0690  179.1410  145.6390 N   0  0  0  0  0  1  0  0  0  0  0  0
  183.3450  178.7930  144.4610 C   0  0  0  0  0  0  0  0  0  0  0  0
  182.0870  178.8430  144.4660 O   0  0  0  0  0  0  0  0  0  0  0  0
  193.5870  176.2570  137.5430 C   0  0  0  0  0  1  0  0  0  0  0  0
  192.4290  175.7440  138.1880 O   0  0  0  0  0  0  0  0  0  0  0  0
  191.1930  176.5670  140.5050 O   0  0  0  0  0  0  0  0  0  0  0  0
  191.4080  177.5560  141.5010 C   0  0  0  0  0  2  0  0  0  0  0  0
  191.4700  176.8920  142.8590 C   0  0  0  0  0  2  0  0  0  0  0  0
  190.0740  176.7950  143.4390 C   0  0  0  0  0  2  0  0  0  0  0  0
  189.9620  177.7310  144.6340 C   0  0  0  0  0  2  0  0  0  0  0  0
  189.2850  177.0720  145.8380 C   0  0  2  0  0  3  0  0  0  0  0  0
  187.8850  177.6300  146.0510 C   0  0  0  0  0  2  0  0  0  0  0  0
  187.5750  177.7390  147.5320 C   0  0  0  0  0  1  0  0  0  0  0  0
  190.1330  177.1910  147.1060 C   0  0  0  0  0  2  0  0  0  0  0  0
  191.5980  176.8980  146.8170 C   0  0  0  0  0  2  0  0  0  0  0  0
  191.9220  175.4410  147.1010 C   0  0  0  0  0  1  0  0  0  0  0  0
  2  8  1  0  0  0  0
  2  5  1  0  0  0  0
  3  1  1  0  0  0  0
  4 31  1  0  0  0  0
  5  3  2  0  0  0  0
  6  2  2  0  0  0  0
  7  9  2  0  0  0  0
  7  6  1  0  0  0  0
  8 15  1  1  0  0  0
  8 11  1  0  0  0  0
  9 15  1  0  0  0  0
 10 14  1  0  0  0  0
 11  4  1  0  0  0  0
 11  1  2  0  0  0  0
 12 30  1  0  0  0  0
 12  4  2  0  0  0  0
 13 10  2  0  0  0  0
 13  9  1  0  0  0  0
 14 12  1  0  0  0  0
 15 14  2  0  0  0  0
 16 18  1  0  0  0  0
 16 20  1  0  0  0  0
 17 16  2  0  0  0  0
 18  5  1  0  0  0  0
 19 21  1  0  0  0  0
 20 21  2  0  0  0  0
 21 22  1  0  0  0  0
 22 23  1  0  0  0  0
 23 24  1  0  0  0  0
 24 25  1  1  0  0  0
 24 27  1  0  0  0  0
 27 28  2  0  0  0  0
 27 26  1  0  0  0  0
 29 30  1  0  0  0  0
 31 32  1  0  0  0  0
 32 33  1  0  0  0  0
 33 34  1  0  0  0  0
 34 35  1  0  0  0  0
 36 35  1  6  0  0  0
 36 37  1  0  0  0  0
 36 39  1  0  0  0  0
 37 38  1  0  0  0  0
 40 41  1  0  0  0  0
 40 39  1  0  0  0  0
M  END
>  <MODEL>
8

>  <REMARK>
 VINA RESULT:      -7.1      2.395      7.503
  Name = 
  16 active torsions:
  status: ('A' for Active; 'I' for Inactive)
    1  A    between atoms: C_4  and  C_25
    2  A    between atoms: C_4  and  C_41
    3  A    between atoms: C_5  and  C_36
    4  A    between atoms: C_7  and  C_27
    5  A    between atoms: C_8  and  C_15
    6  A    between atoms: C_8  and  C_40
    7  A    between atoms: C_9  and  C_27
    8  A    between atoms: C_9  and  C_41
    9  A    between atoms: C_12  and  O_17
   10  A    between atoms: C_13  and  N_29
   11  A    between atoms: C_15  and  C_23
   12  A    between atoms: C_16  and  N_24
   13  A    between atoms: O_17  and  C_25
   14  A    between atoms: C_27  and  C_36
   15  A    between atoms: O_28  and  C_32
   16  A    between atoms: C_33  and  C_40
                            x       y       z     vdW  Elec       q    Type
                         _______ _______ _______ _____ _____    ______ ____

>  <TORSDO>
F 16

$$$$
=
 OpenBabel10232410193D

 41 44  0  0  1  0  0  0  0  0999 V2000
  187.9720  178.2910  141.9690 C   0  0  0  0  0  3  0  0  0  0  0  0
  187.0820  178.1840  139.2840 C   0  0  0  0  0  0  0  0  0  0  0  0
  188.8750  178.0440  140.9190 C   0  0  0  0  0  3  0  0  0  0  0  0
  185.6120  178.7610  142.7240 C   0  0  0  0  0  0  0  0  0  0  0  0
  188.4450  177.9640  139.5820 C   0  0  0  0  0  0  0  0  0  0  0  0
  186.5520  178.2380  137.9560 C   0  0  0  0  0  3  0  0  0  0  0  0
  185.1680  178.4990  137.7270 C   0  0  0  0  0  3  0  0  0  0  0  0
  186.2060  178.4120  140.3650 C   0  0  0  0  0  0  0  0  0  0  0  0
  184.3640  178.6920  138.8550 C   0  0  0  0  0  0  0  0  0  0  0  0
  182.7930  179.1620  140.2810 N   0  0  0  0  0  0  0  0  0  0  0  0
  186.6070  178.4740  141.7130 C   0  0  0  0  0  0  0  0  0  0  0  0
  184.2530  179.0050  142.3370 C   0  0  2  0  0  3  0  0  0  0  0  0
  183.0560  179.0160  138.9720 N   0  0  0  0  0  0  0  0  0  0  0  0
  183.9420  178.9280  140.9650 C   0  0  0  0  0  0  0  0  0  0  0  0
  184.8960  178.6340  140.0810 C   0  0  0  0  0  0  0  0  0  0  0  0
  189.5390  176.5180  137.8020 C   0  0  0  0  0  0  0  0  0  0  0  0
  188.9530  175.4700  138.1890 O   0  0  0  0  0  0  0  0  0  0  0  0
  189.4260  177.7230  138.5630 N   0  0  0  0  0  2  0  0  0  0  0  0
  192.2150  176.1530  135.1550 C   0  0  0  0  0  1  0  0  0  0  0  0
  190.3650  176.5180  136.6270 N   0  0  0  0  0  0  0  0  0  0  0  0
  191.5630  176.0230  136.4930 C   0  0  0  0  0  0  0  0  0  0  0  0
  192.2680  175.3290  137.6290 C   0  0  0  0  0  2  0  0  0  0  0  0
  193.7450  175.6900  137.7460 C   0  0  0  0  0  2  0  0  0  0  0  0
  194.6140  174.4830  137.4230 C   0  0  1  0  0  3  0  0  0  0  0  0
  195.5910  174.8130  136.3050 C   0  0  0  0  0  1  0  0  0  0  0  0
  195.8460  174.9980  139.5790 N   0  0  0  0  0  1  0  0  0  0  0  0
  195.3560  174.0430  138.6420 C   0  0  0  0  0  0  0  0  0  0  0  0
  195.5420  172.8160  138.8470 O   0  0  0  0  0  0  0  0  0  0  0  0
  182.2710  178.4210  143.7220 C   0  0  0  0  0  1  0  0  0  0  0  0
  183.3030  179.3100  143.3200 O   0  0  0  0  0  0  0  0  0  0  0  0
  185.9010  178.8370  144.0960 O   0  0  0  0  0  0  0  0  0  0  0  0
  186.1490  177.7260  144.9440 C   0  0  0  0  0  2  0  0  0  0  0  0
  186.5890  178.2240  146.3030 C   0  0  0  0  0  2  0  0  0  0  0  0
  187.9590  177.6650  146.6280 C   0  0  0  0  0  2  0  0  0  0  0  0
  188.6750  177.3070  145.3340 C   0  0  0  0  0  2  0  0  0  0  0  0
  190.1420  176.9300  145.5550 C   0  0  2  0  0  3  0  0  0  0  0  0
  190.4630  176.8330  147.0400 C   0  0  0  0  0  2  0  0  0  0  0  0
  191.8080  176.1640  147.2500 C   0  0  0  0  0  1  0  0  0  0  0  0
  191.0930  177.8900  144.8390 C   0  0  0  0  0  2  0  0  0  0  0  0
  191.5220  177.3320  143.4890 C   0  0  0  0  0  2  0  0  0  0  0  0
  191.2500  175.8400  143.4120 C   0  0  0  0  0  1  0  0  0  0  0  0
  2  5  2  0  0  0  0
  2  8  1  0  0  0  0
  3  1  2  0  0  0  0
  4 31  1  0  0  0  0
  5  3  1  0  0  0  0
  6  2  1  0  0  0  0
  7  6  2  0  0  0  0
  7  9  1  0  0  0  0
  8 11  1  0  0  0  0
  9 13  2  0  0  0  0
  9 15  1  0  0  0  0
 10 14  2  0  0  0  0
 11  1  1  0  0  0  0
 11  4  2  0  0  0  0
 12  4  1  0  0  0  0
 12 30  1  6  0  0  0
 13 10  1  0  0  0  0
 14 12  1  0  0  0  0
 15  8  2  0  0  0  0
 15 14  1  0  0  0  0
 16 17  2  0  0  0  0
 16 18  1  0  0  0  0
 18  5  1  0  0  0  0
 19 21  1  0  0  0  0
 20 16  1  0  0  0  0
 21 20  2  0  0  0  0
 21 22  1  0  0  0  0
 22 23  1  0  0  0  0
 24 25  1  6  0  0  0
 24 23  1  0  0  0  0
 24 27  1  0  0  0  0
 27 28  2  0  0  0  0
 27 26  1  0  0  0  0
 30 29  1  0  0  0  0
 31 32  1  0  0  0  0
 32 33  1  0  0  0  0
 33 34  1  0  0  0  0
 35 36  1  0  0  0  0
 35 34  1  0  0  0  0
 36 39  1  1  0  0  0
 36 37  1  0  0  0  0
 37 38  1  0  0  0  0
 40 39  1  0  0  0  0
 41 40  1  0  0  0  0
M  END
>  <MODEL>
9

>  <REMARK>
 VINA RESULT:      -7.0      3.232      8.379
  Name = 
  16 active torsions:
  status: ('A' for Active; 'I' for Inactive)
    1  A    between atoms: C_4  and  C_25
    2  A    between atoms: C_4  and  C_41
    3  A    between atoms: C_5  and  C_36
    4  A    between atoms: C_7  and  C_27
    5  A    between atoms: C_8  and  C_15
    6  A    between atoms: C_8  and  C_40
    7  A    between atoms: C_9  and  C_27
    8  A    between atoms: C_9  and  C_41
    9  A    between atoms: C_12  and  O_17
   10  A    between atoms: C_13  and  N_29
   11  A    between atoms: C_15  and  C_23
   12  A    between atoms: C_16  and  N_24
   13  A    between atoms: O_17  and  C_25
   14  A    between atoms: C_27  and  C_36
   15  A    between atoms: O_28  and  C_32
   16  A    between atoms: C_33  and  C_40
                            x       y       z     vdW  Elec       q    Type
                         _______ _______ _______ _____ _____    ______ ____

>  <TORSDO>
F 16

$$$$
