=
 OpenBabel10232409383D

 35 40  0  0  1  0  0  0  0  0999 V2000
  187.3300  178.0580  142.1450 S   0  0  0  0  0  0  0  0  0  0  0  0
  185.1180  179.0840  141.0130 C   0  0  1  0  0  3  0  0  0  0  0  0
  185.7930  178.1700  143.1100 C   0  0  2  0  0  3  0  0  0  0  0  0
  184.8860  179.1130  142.4560 N   0  0  0  0  0  2  0  0  0  0  0  0
  186.2940  178.1800  140.6740 C   0  0  1  0  0  3  0  0  0  0  0  0
  182.1610  179.0990  138.5830 C   0  0  0  0  0  0  0  0  0  0  0  0
  181.5680  177.8870  138.9540 C   0  0  0  0  0  3  0  0  0  0  0  0
  183.9510  180.7180  138.9120 O   0  0  0  0  0  1  0  0  0  0  0  0
  183.8760  178.7030  140.2640 C   0  0  0  0  0  0  0  0  0  0  0  0
  182.1340  177.1140  139.9660 C   0  0  0  0  0  3  0  0  0  0  0  0
  183.2630  177.5350  140.5920 N   0  0  0  0  0  0  0  0  0  0  0  0
  183.3330  179.5160  139.2480 C   0  0  0  0  0  0  0  0  0  0  0  0
  181.3010  179.4160  136.2660 N   0  0  0  0  0  0  0  0  0  0  0  0
  180.7260  180.4640  135.6430 C   0  0  0  0  0  3  0  0  0  0  0  0
  181.5320  179.8940  137.5050 C   0  0  0  0  0  0  0  0  0  0  0  0
  180.6150  181.5220  136.4690 N   0  0  0  0  0  0  0  0  0  0  0  0
  181.1200  181.1660  137.6370 N   0  0  0  0  0  2  0  0  0  0  0  0
  186.0780  178.5990  144.5540 C   0  0  1  0  0  3  0  0  0  0  0  0
  184.1190  178.8950  145.9430 N   0  0  0  0  0  2  0  0  0  0  0  0
  184.9470  179.4120  145.1120 C   0  0  0  0  0  3  0  0  0  0  0  0
  186.2750  177.3700  145.4350 C   0  0  0  0  0  2  0  0  0  0  0  0
  188.3980  178.1370  148.4780 C   0  0  0  0  0  3  0  0  0  0  0  0
  189.8470  177.3580  146.6980 C   0  0  0  0  0  3  0  0  0  0  0  0
  188.7390  177.2150  145.8580 C   0  0  0  0  0  3  0  0  0  0  0  0
  187.4590  177.5360  146.3250 C   0  0  0  0  0  0  0  0  0  0  0  0
  187.2900  177.9950  147.6370 C   0  0  0  0  0  3  0  0  0  0  0  0
  189.6770  177.8180  148.0080 C   0  0  0  0  0  3  0  0  0  0  0  0
  187.0410  178.6410  139.5000 N   0  0  0  0  0  2  0  0  0  0  0  0
  188.8010  177.2900  138.5280 C   0  0  2  0  0  3  0  0  0  0  0  0
  189.1800  178.7470  138.3610 C   0  0  0  0  0  2  0  0  0  0  0  0
  188.4540  178.2940  139.6090 C   0  0  1  0  0  3  0  0  0  0  0  0
  189.9690  176.5350  138.9440 N   0  0  0  0  0  2  0  0  0  0  0  0
  191.7490  175.3150  137.9030 C   0  0  0  0  0  2  0  0  0  0  0  0
  190.8740  176.5030  137.8080 C   0  0  2  0  0  3  0  0  0  0  0  0
  192.1990  176.5940  138.2750 O   0  0  0  0  0  0  0  0  0  0  0  0
  1  3  1  0  0  0  0
  2  9  1  6  0  0  0
  2  4  1  0  0  0  0
  3 18  1  1  0  0  0
  4  3  1  0  0  0  0
  5 28  1  6  0  0  0
  5  2  1  0  0  0  0
  5  1  1  0  0  0  0
  6  7  2  0  0  0  0
  6 12  1  0  0  0  0
  7 10  1  0  0  0  0
  8 12  1  0  0  0  0
  9 11  1  0  0  0  0
 10 11  2  0  0  0  0
 12  9  2  0  0  0  0
 13 15  2  0  0  0  0
 14 13  1  0  0  0  0
 14 16  2  0  0  0  0
 15 17  1  0  0  0  0
 15  6  1  0  0  0  0
 16 17  1  0  0  0  0
 18 20  1  1  0  0  0
 18 21  1  0  0  0  0
 20 19  2  0  0  0  0
 21 25  1  0  0  0  0
 23 27  2  0  0  0  0
 24 25  2  0  0  0  0
 24 23  1  0  0  0  0
 25 26  1  0  0  0  0
 26 22  2  0  0  0  0
 27 22  1  0  0  0  0
 29 32  1  1  0  0  0
 29 31  1  0  0  0  0
 30 29  1  0  0  0  0
 30 31  1  0  0  0  0
 31 28  1  6  0  0  0
 33 35  1  0  0  0  0
 34 33  1  0  0  0  0
 34 35  1  0  0  0  0
 34 32  1  1  0  0  0
M  END
>  <MODEL>
1

>  <REMARK>
 VINA RESULT:      -8.2      0.000      0.000
  Name = 
  10 active torsions:
  status: ('A' for Active; 'I' for Inactive)
    1  A    between atoms: C_6  and  N_18
    2  A    between atoms: C_7  and  C_22
    3  A    between atoms: C_10  and  C_12
    4  A    between atoms: C_10  and  C_16
    5  A    between atoms: C_13  and  C_16
    6  A    between atoms: C_16  and  C_21
    7  A    between atoms: C_17  and  C_19
    8  A    between atoms: N_18  and  C_20
    9  A    between atoms: C_25  and  N_26
   10  A    between atoms: N_26  and  C_34
                            x       y       z     vdW  Elec       q    Type
                         _______ _______ _______ _____ _____    ______ ____

>  <TORSDO>
F 10

$$$$
=
 OpenBabel10232409383D

 35 40  0  0  1  0  0  0  0  0999 V2000
  187.5850  176.8580  144.4060 S   0  0  0  0  0  0  0  0  0  0  0  0
  188.3280  178.0260  142.1020 C   0  0  1  0  0  3  0  0  0  0  0  0
  186.3210  177.5530  143.2990 C   0  0  2  0  0  3  0  0  0  0  0  0
  186.9620  178.4750  142.3610 N   0  0  0  0  0  2  0  0  0  0  0  0
  188.6760  176.8270  142.9710 C   0  0  1  0  0  3  0  0  0  0  0  0
  189.8300  176.8320  138.7900 C   0  0  0  0  0  0  0  0  0  0  0  0
  188.8470  177.3140  137.9180 C   0  0  0  0  0  3  0  0  0  0  0  0
  190.6400  176.5960  141.0750 O   0  0  0  0  0  1  0  0  0  0  0  0
  188.5500  177.7530  140.6440 C   0  0  0  0  0  0  0  0  0  0  0  0
  187.7450  178.0020  138.4220 C   0  0  0  0  0  3  0  0  0  0  0  0
  187.6220  178.2040  139.7590 N   0  0  0  0  0  0  0  0  0  0  0  0
  189.6810  177.0550  140.1750 C   0  0  0  0  0  0  0  0  0  0  0  0
  192.1380  176.7080  137.8590 N   0  0  0  0  0  0  0  0  0  0  0  0
  192.8850  175.6790  137.4090 C   0  0  0  0  0  3  0  0  0  0  0  0
  190.9870  176.1060  138.2200 C   0  0  0  0  0  0  0  0  0  0  0  0
  192.2150  174.5150  137.4970 N   0  0  0  0  0  0  0  0  0  0  0  0
  191.0250  174.7800  138.0060 N   0  0  0  0  0  2  0  0  0  0  0  0
  185.2190  178.2620  144.0950 C   0  0  1  0  0  3  0  0  0  0  0  0
  185.0440  179.0330  146.3820 N   0  0  0  0  0  2  0  0  0  0  0  0
  185.7710  178.9020  145.3350 C   0  0  0  0  0  3  0  0  0  0  0  0
  184.5700  179.3440  143.2380 C   0  0  0  0  0  2  0  0  0  0  0  0
  180.8630  178.7020  143.6960 C   0  0  0  0  0  3  0  0  0  0  0  0
  181.4160  178.4130  141.3550 C   0  0  0  0  0  3  0  0  0  0  0  0
  182.7530  178.7140  141.6330 C   0  0  0  0  0  3  0  0  0  0  0  0
  183.1470  179.0070  142.9430 C   0  0  0  0  0  0  0  0  0  0  0  0
  182.2010  179.0020  143.9740 C   0  0  0  0  0  3  0  0  0  0  0  0
  180.4710  178.4070  142.3860 C   0  0  0  0  0  3  0  0  0  0  0  0
  190.0930  176.7940  143.3470 N   0  0  0  0  0  2  0  0  0  0  0  0
  191.5790  176.9460  145.2550 C   0  0  2  0  0  3  0  0  0  0  0  0
  191.6000  178.2780  144.5340 C   0  0  0  0  0  2  0  0  0  0  0  0
  190.3150  177.4830  144.6140 C   0  0  1  0  0  3  0  0  0  0  0  0
  191.5150  177.1750  146.6860 N   0  0  0  0  0  2  0  0  0  0  0  0
  192.7380  175.8430  148.2570 C   0  0  0  0  0  2  0  0  0  0  0  0
  191.5920  175.8730  147.3240 C   0  0  2  0  0  3  0  0  0  0  0  0
  192.8130  175.2640  146.9780 O   0  0  0  0  0  0  0  0  0  0  0  0
  2  9  1  6  0  0  0
  2  4  1  0  0  0  0
  2  5  1  0  0  0  0
  3 18  1  1  0  0  0
  3  1  1  0  0  0  0
  4  3  1  0  0  0  0
  5 28  1  1  0  0  0
  5  1  1  0  0  0  0
  6 12  1  0  0  0  0
  7 10  1  0  0  0  0
  7  6  2  0  0  0  0
 10 11  2  0  0  0  0
 11  9  1  0  0  0  0
 12  9  2  0  0  0  0
 12  8  1  0  0  0  0
 13 15  2  0  0  0  0
 14 16  2  0  0  0  0
 14 13  1  0  0  0  0
 15  6  1  0  0  0  0
 16 17  1  0  0  0  0
 17 15  1  0  0  0  0
 18 21  1  6  0  0  0
 18 20  1  0  0  0  0
 20 19  2  0  0  0  0
 22 26  1  0  0  0  0
 23 24  2  0  0  0  0
 23 27  1  0  0  0  0
 24 25  1  0  0  0  0
 25 21  1  0  0  0  0
 25 26  2  0  0  0  0
 27 22  2  0  0  0  0
 29 32  1  1  0  0  0
 30 31  1  0  0  0  0
 30 29  1  0  0  0  0
 31 28  1  6  0  0  0
 31 29  1  0  0  0  0
 34 32  1  6  0  0  0
 34 33  1  0  0  0  0
 35 34  1  0  0  0  0
 35 33  1  0  0  0  0
M  END
>  <MODEL>
2

>  <REMARK>
 VINA RESULT:      -7.6      3.563      7.581
  Name = 
  10 active torsions:
  status: ('A' for Active; 'I' for Inactive)
    1  A    between atoms: C_6  and  N_18
    2  A    between atoms: C_7  and  C_22
    3  A    between atoms: C_10  and  C_12
    4  A    between atoms: C_10  and  C_16
    5  A    between atoms: C_13  and  C_16
    6  A    between atoms: C_16  and  C_21
    7  A    between atoms: C_17  and  C_19
    8  A    between atoms: N_18  and  C_20
    9  A    between atoms: C_25  and  N_26
   10  A    between atoms: N_26  and  C_34
                            x       y       z     vdW  Elec       q    Type
                         _______ _______ _______ _____ _____    ______ ____

>  <TORSDO>
F 10

$$$$
=
 OpenBabel10232409383D

 35 40  0  0  1  0  0  0  0  0999 V2000
  188.9660  178.3240  140.4010 S   0  0  0  0  0  0  0  0  0  0  0  0
  189.9570  176.3060  138.9290 C   0  0  1  0  0  3  0  0  0  0  0  0
  190.0870  177.1160  141.1680 C   0  0  2  0  0  3  0  0  0  0  0  0
  190.1510  175.9220  140.3250 N   0  0  0  0  0  2  0  0  0  0  0  0
  189.6400  177.7900  138.8170 C   0  0  1  0  0  3  0  0  0  0  0  0
  192.3290  174.3630  136.6370 C   0  0  0  0  0  0  0  0  0  0  0  0
  193.3640  175.3010  136.5490 C   0  0  0  0  0  3  0  0  0  0  0  0
  190.1450  173.7640  137.5340 O   0  0  0  0  0  1  0  0  0  0  0  0
  191.1310  175.9130  138.0830 C   0  0  0  0  0  0  0  0  0  0  0  0
  193.2650  176.5150  137.2250 C   0  0  0  0  0  3  0  0  0  0  0  0
  192.1630  176.7910  137.9700 N   0  0  0  0  0  0  0  0  0  0  0  0
  191.1940  174.6720  137.4160 C   0  0  0  0  0  0  0  0  0  0  0  0
  193.3000  172.0950  136.2890 N   0  0  0  0  0  0  0  0  0  0  0  0
  193.0920  171.1500  135.3500 C   0  0  0  0  0  3  0  0  0  0  0  0
  192.4680  173.0840  135.9060 C   0  0  0  0  0  0  0  0  0  0  0  0
  192.1790  171.5510  134.4450 N   0  0  0  0  0  0  0  0  0  0  0  0
  191.7860  172.7640  134.7930 N   0  0  0  0  0  2  0  0  0  0  0  0
  189.6280  176.7590  142.5860 C   0  0  1  0  0  3  0  0  0  0  0  0
  191.6630  175.9580  143.6220 N   0  0  0  0  0  2  0  0  0  0  0  0
  190.4900  175.6860  143.1820 C   0  0  0  0  0  3  0  0  0  0  0  0
  189.6970  177.9920  143.4830 C   0  0  0  0  0  2  0  0  0  0  0  0
  188.5140  177.7400  147.0740 C   0  0  0  0  0  3  0  0  0  0  0  0
  186.5920  177.5510  145.6110 C   0  0  0  0  0  3  0  0  0  0  0  0
  187.4270  177.6800  144.4970 C   0  0  0  0  0  3  0  0  0  0  0  0
  188.8070  177.8370  144.6700 C   0  0  0  0  0  0  0  0  0  0  0  0
  189.3490  177.8690  145.9600 C   0  0  0  0  0  3  0  0  0  0  0  0
  187.1350  177.5810  146.8990 C   0  0  0  0  0  3  0  0  0  0  0  0
  188.7420  178.0920  137.6970 N   0  0  0  0  0  2  0  0  0  0  0  0
  186.3430  178.4270  137.7340 C   0  0  2  0  0  3  0  0  0  0  0  0
  186.6740  177.5200  136.5660 C   0  0  0  0  0  2  0  0  0  0  0  0
  187.4620  177.4110  137.8540 C   0  0  1  0  0  3  0  0  0  0  0  0
  185.1690  177.9190  138.4180 N   0  0  0  0  0  2  0  0  0  0  0  0
  183.5070  179.2600  139.5040 C   0  0  0  0  0  2  0  0  0  0  0  0
  184.9150  178.8120  139.5350 C   0  0  2  0  0  3  0  0  0  0  0  0
  184.5510  180.0770  139.0370 O   0  0  0  0  0  0  0  0  0  0  0  0
  1  3  1  0  0  0  0
  2  9  1  6  0  0  0
  2  4  1  0  0  0  0
  3 18  1  1  0  0  0
  4  3  1  0  0  0  0
  5 28  1  6  0  0  0
  5  2  1  0  0  0  0
  5  1  1  0  0  0  0
  6 12  1  0  0  0  0
  7  6  2  0  0  0  0
  7 10  1  0  0  0  0
 10 11  2  0  0  0  0
 11  9  1  0  0  0  0
 12  8  1  0  0  0  0
 12  9  2  0  0  0  0
 14 13  1  0  0  0  0
 15 13  2  0  0  0  0
 15  6  1  0  0  0  0
 16 17  1  0  0  0  0
 16 14  2  0  0  0  0
 17 15  1  0  0  0  0
 18 20  1  1  0  0  0
 18 21  1  0  0  0  0
 20 19  2  0  0  0  0
 21 25  1  0  0  0  0
 23 27  2  0  0  0  0
 24 25  2  0  0  0  0
 24 23  1  0  0  0  0
 25 26  1  0  0  0  0
 26 22  2  0  0  0  0
 27 22  1  0  0  0  0
 29 31  1  0  0  0  0
 29 32  1  1  0  0  0
 30 29  1  0  0  0  0
 30 31  1  0  0  0  0
 31 28  1  6  0  0  0
 33 34  1  0  0  0  0
 34 32  1  6  0  0  0
 35 33  1  0  0  0  0
 35 34  1  0  0  0  0
M  END
>  <MODEL>
3

>  <REMARK>
 VINA RESULT:      -7.6      2.941      8.191
  Name = 
  10 active torsions:
  status: ('A' for Active; 'I' for Inactive)
    1  A    between atoms: C_6  and  N_18
    2  A    between atoms: C_7  and  C_22
    3  A    between atoms: C_10  and  C_12
    4  A    between atoms: C_10  and  C_16
    5  A    between atoms: C_13  and  C_16
    6  A    between atoms: C_16  and  C_21
    7  A    between atoms: C_17  and  C_19
    8  A    between atoms: N_18  and  C_20
    9  A    between atoms: C_25  and  N_26
   10  A    between atoms: N_26  and  C_34
                            x       y       z     vdW  Elec       q    Type
                         _______ _______ _______ _____ _____    ______ ____

>  <TORSDO>
F 10

$$$$
=
 OpenBabel10232409383D

 35 40  0  0  1  0  0  0  0  0999 V2000
  189.8640  177.0790  140.9320 S   0  0  0  0  0  0  0  0  0  0  0  0
  187.6890  178.6440  141.1370 C   0  0  1  0  0  3  0  0  0  0  0  0
  188.7170  176.8490  142.3230 C   0  0  2  0  0  3  0  0  0  0  0  0
  187.8810  178.0420  142.4550 N   0  0  0  0  0  2  0  0  0  0  0  0
  188.5080  177.9110  140.0850 C   0  0  1  0  0  3  0  0  0  0  0  0
  183.8690  178.7870  141.3380 C   0  0  0  0  0  0  0  0  0  0  0  0
  183.5820  178.8600  139.9710 C   0  0  0  0  0  3  0  0  0  0  0  0
  185.5460  178.6370  143.1000 O   0  0  0  0  0  1  0  0  0  0  0  0
  186.2360  178.7200  140.7740 C   0  0  0  0  0  0  0  0  0  0  0  0
  184.6180  178.8580  139.0390 C   0  0  0  0  0  3  0  0  0  0  0  0
  185.9080  178.7880  139.4570 N   0  0  0  0  0  0  0  0  0  0  0  0
  185.2180  178.7150  141.7480 C   0  0  0  0  0  0  0  0  0  0  0  0
  181.4490  178.7910  141.9280 N   0  0  0  0  0  0  0  0  0  0  0  0
  180.7990  178.7910  143.1100 C   0  0  0  0  0  3  0  0  0  0  0  0
  182.7440  178.7910  142.3000 C   0  0  0  0  0  0  0  0  0  0  0  0
  181.6630  178.7900  144.1420 N   0  0  0  0  0  0  0  0  0  0  0  0
  182.8840  178.7890  143.6360 N   0  0  0  0  0  2  0  0  0  0  0  0
  189.4770  176.5680  143.6250 C   0  0  1  0  0  3  0  0  0  0  0  0
  191.6640  175.7810  144.2980 N   0  0  0  0  0  2  0  0  0  0  0  0
  190.8210  175.9620  143.3490 C   0  0  0  0  0  3  0  0  0  0  0  0
  189.6790  177.8650  144.4020 C   0  0  0  0  0  2  0  0  0  0  0  0
  189.2480  177.6290  148.1590 C   0  0  0  0  0  3  0  0  0  0  0  0
  187.0560  177.7600  147.1340 C   0  0  0  0  0  3  0  0  0  0  0  0
  187.6500  177.8210  145.8700 C   0  0  0  0  0  3  0  0  0  0  0  0
  189.0430  177.7840  145.7480 C   0  0  0  0  0  0  0  0  0  0  0  0
  189.8420  177.6900  146.8940 C   0  0  0  0  0  3  0  0  0  0  0  0
  187.8540  177.6640  148.2790 C   0  0  0  0  0  3  0  0  0  0  0  0
  188.9760  178.7990  139.0160 N   0  0  0  0  0  2  0  0  0  0  0  0
  188.2520  177.4800  137.1160 C   0  0  2  0  0  3  0  0  0  0  0  0
  188.9820  178.7000  136.5920 C   0  0  0  0  0  2  0  0  0  0  0  0
  189.4480  178.0310  137.8680 C   0  0  1  0  0  3  0  0  0  0  0  0
  188.6670  176.3120  136.3630 N   0  0  0  0  0  2  0  0  0  0  0  0
  187.7000  174.3070  135.4760 C   0  0  0  0  0  2  0  0  0  0  0  0
  187.6550  175.2930  136.5760 C   0  0  2  0  0  3  0  0  0  0  0  0
  186.7350  175.3290  135.5110 O   0  0  0  0  0  0  0  0  0  0  0  0
  1  3  1  0  0  0  0
  2  9  1  6  0  0  0
  2  4  1  0  0  0  0
  3  4  1  0  0  0  0
  3 18  1  1  0  0  0
  5 28  1  6  0  0  0
  5  1  1  0  0  0  0
  5  2  1  0  0  0  0
  6 12  1  0  0  0  0
  6 15  1  0  0  0  0
  7  6  2  0  0  0  0
  9 12  2  0  0  0  0
 10 11  2  0  0  0  0
 10  7  1  0  0  0  0
 11  9  1  0  0  0  0
 12  8  1  0  0  0  0
 13 15  2  0  0  0  0
 13 14  1  0  0  0  0
 14 16  2  0  0  0  0
 15 17  1  0  0  0  0
 17 16  1  0  0  0  0
 18 20  1  6  0  0  0
 18 21  1  0  0  0  0
 20 19  2  0  0  0  0
 21 25  1  0  0  0  0
 22 27  1  0  0  0  0
 23 27  2  0  0  0  0
 24 23  1  0  0  0  0
 25 24  2  0  0  0  0
 25 26  1  0  0  0  0
 26 22  2  0  0  0  0
 29 32  1  6  0  0  0
 29 31  1  0  0  0  0
 30 29  1  0  0  0  0
 30 31  1  0  0  0  0
 31 28  1  1  0  0  0
 33 35  1  0  0  0  0
 33 34  1  0  0  0  0
 34 32  1  6  0  0  0
 35 34  1  0  0  0  0
M  END
>  <MODEL>
4

>  <REMARK>
 VINA RESULT:      -7.6      2.890      4.204
  Name = 
  10 active torsions:
  status: ('A' for Active; 'I' for Inactive)
    1  A    between atoms: C_6  and  N_18
    2  A    between atoms: C_7  and  C_22
    3  A    between atoms: C_10  and  C_12
    4  A    between atoms: C_10  and  C_16
    5  A    between atoms: C_13  and  C_16
    6  A    between atoms: C_16  and  C_21
    7  A    between atoms: C_17  and  C_19
    8  A    between atoms: N_18  and  C_20
    9  A    between atoms: C_25  and  N_26
   10  A    between atoms: N_26  and  C_34
                            x       y       z     vdW  Elec       q    Type
                         _______ _______ _______ _____ _____    ______ ____

>  <TORSDO>
F 10

$$$$
=
 OpenBabel10232409383D

 35 40  0  0  1  0  0  0  0  0999 V2000
  187.9160  177.7130  144.1530 S   0  0  0  0  0  0  0  0  0  0  0  0
  188.1760  178.3730  141.5610 C   0  0  1  0  0  3  0  0  0  0  0  0
  186.4720  177.6230  143.0520 C   0  0  2  0  0  3  0  0  0  0  0  0
  186.7430  178.4060  141.8450 N   0  0  0  0  0  2  0  0  0  0  0  0
  188.9280  177.6430  142.6630 C   0  0  1  0  0  3  0  0  0  0  0  0
  187.8820  177.3770  137.8770 C   0  0  0  0  0  0  0  0  0  0  0  0
  189.0840  176.6710  137.7460 C   0  0  0  0  0  3  0  0  0  0  0  0
  186.3730  178.6550  139.3000 O   0  0  0  0  0  1  0  0  0  0  0  0
  188.4540  177.7940  140.2060 C   0  0  0  0  0  0  0  0  0  0  0  0
  189.9380  176.5380  138.8380 C   0  0  0  0  0  3  0  0  0  0  0  0
  189.6070  177.0970  140.0310 N   0  0  0  0  0  0  0  0  0  0  0  0
  187.5610  177.9480  139.1260 C   0  0  0  0  0  0  0  0  0  0  0  0
  185.7940  176.9000  136.6050 N   0  0  0  0  0  0  0  0  0  0  0  0
  185.3610  177.2840  135.3870 C   0  0  0  0  0  3  0  0  0  0  0  0
  186.9990  177.4970  136.6960 C   0  0  0  0  0  0  0  0  0  0  0  0
  186.2630  178.0750  134.7750 N   0  0  0  0  0  0  0  0  0  0  0  0
  187.2910  178.2100  135.5950 N   0  0  0  0  0  2  0  0  0  0  0  0
  185.2070  178.1260  143.7570 C   0  0  1  0  0  3  0  0  0  0  0  0
  184.5660  178.7890  145.9940 N   0  0  0  0  0  2  0  0  0  0  0  0
  185.5110  178.5920  145.1500 C   0  0  0  0  0  3  0  0  0  0  0  0
  184.6020  179.2880  142.9760 C   0  0  0  0  0  2  0  0  0  0  0  0
  181.8050  178.0550  140.7360 C   0  0  0  0  0  3  0  0  0  0  0  0
  180.8460  178.8090  142.8300 C   0  0  0  0  0  3  0  0  0  0  0  0
  182.1210  179.1470  143.2930 C   0  0  0  0  0  3  0  0  0  0  0  0
  183.2400  178.9430  142.4770 C   0  0  0  0  0  0  0  0  0  0  0  0
  183.0810  178.3940  141.1990 C   0  0  0  0  0  3  0  0  0  0  0  0
  180.6880  178.2630  141.5520 C   0  0  0  0  0  3  0  0  0  0  0  0
  190.2760  178.1790  142.8770 N   0  0  0  0  0  2  0  0  0  0  0  0
  191.6740  177.5070  144.7390 C   0  0  2  0  0  3  0  0  0  0  0  0
  191.9200  178.9780  144.4720 C   0  0  0  0  0  2  0  0  0  0  0  0
  190.5320  178.4000  144.2970 C   0  0  1  0  0  3  0  0  0  0  0  0
  191.5750  177.2890  146.1700 N   0  0  0  0  0  2  0  0  0  0  0  0
  191.5370  175.4990  147.7610 C   0  0  0  0  0  2  0  0  0  0  0  0
  191.9820  175.9170  146.4160 C   0  0  2  0  0  3  0  0  0  0  0  0
  192.8640  175.8890  147.5120 O   0  0  0  0  0  0  0  0  0  0  0  0
  2  9  1  6  0  0  0
  2  4  1  0  0  0  0
  2  5  1  0  0  0  0
  3 18  1  1  0  0  0
  3  1  1  0  0  0  0
  4  3  1  0  0  0  0
  5 28  1  1  0  0  0
  5  1  1  0  0  0  0
  6 12  1  0  0  0  0
  7  6  2  0  0  0  0
  7 10  1  0  0  0  0
 10 11  2  0  0  0  0
 11  9  1  0  0  0  0
 12  8  1  0  0  0  0
 12  9  2  0  0  0  0
 13 15  2  0  0  0  0
 14 13  1  0  0  0  0
 15  6  1  0  0  0  0
 16 14  2  0  0  0  0
 16 17  1  0  0  0  0
 17 15  1  0  0  0  0
 18 21  1  6  0  0  0
 18 20  1  0  0  0  0
 20 19  2  0  0  0  0
 22 26  2  0  0  0  0
 22 27  1  0  0  0  0
 23 24  1  0  0  0  0
 25 21  1  0  0  0  0
 25 24  2  0  0  0  0
 26 25  1  0  0  0  0
 27 23  2  0  0  0  0
 29 32  1  1  0  0  0
 30 29  1  0  0  0  0
 31 28  1  6  0  0  0
 31 30  1  0  0  0  0
 31 29  1  0  0  0  0
 34 32  1  1  0  0  0
 34 35  1  0  0  0  0
 34 33  1  0  0  0  0
 35 33  1  0  0  0  0
M  END
>  <MODEL>
5

>  <REMARK>
 VINA RESULT:      -7.5      3.228      6.362
  Name = 
  10 active torsions:
  status: ('A' for Active; 'I' for Inactive)
    1  A    between atoms: C_6  and  N_18
    2  A    between atoms: C_7  and  C_22
    3  A    between atoms: C_10  and  C_12
    4  A    between atoms: C_10  and  C_16
    5  A    between atoms: C_13  and  C_16
    6  A    between atoms: C_16  and  C_21
    7  A    between atoms: C_17  and  C_19
    8  A    between atoms: N_18  and  C_20
    9  A    between atoms: C_25  and  N_26
   10  A    between atoms: N_26  and  C_34
                            x       y       z     vdW  Elec       q    Type
                         _______ _______ _______ _____ _____    ______ ____

>  <TORSDO>
F 10

$$$$
=
 OpenBabel10232409383D

 35 40  0  0  1  0  0  0  0  0999 V2000
  188.4390  177.6340  139.9540 S   0  0  0  0  0  0  0  0  0  0  0  0
  190.5900  177.0440  138.4560 C   0  0  1  0  0  3  0  0  0  0  0  0
  188.2220  177.1780  138.2080 C   0  0  2  0  0  3  0  0  0  0  0  0
  189.5040  177.3150  137.5160 N   0  0  0  0  0  2  0  0  0  0  0  0
  190.0460  176.8240  139.8600 C   0  0  1  0  0  3  0  0  0  0  0  0
  193.5910  174.7970  137.6800 C   0  0  0  0  0  0  0  0  0  0  0  0
  192.9130  173.7230  137.0930 C   0  0  0  0  0  3  0  0  0  0  0  0
  193.4830  176.9960  138.7220 O   0  0  0  0  0  1  0  0  0  0  0  0
  191.4440  175.9000  137.9940 C   0  0  0  0  0  0  0  0  0  0  0  0
  191.5260  173.7580  136.9670 C   0  0  0  0  0  3  0  0  0  0  0  0
  190.8300  174.8350  137.4150 N   0  0  0  0  0  0  0  0  0  0  0  0
  192.8460  175.9050  138.1370 C   0  0  0  0  0  0  0  0  0  0  0  0
  195.7010  174.0160  138.7510 N   0  0  0  0  0  0  0  0  0  0  0  0
  197.0010  174.2370  138.4700 C   0  0  0  0  0  3  0  0  0  0  0  0
  195.0640  174.7260  137.7970 C   0  0  0  0  0  0  0  0  0  0  0  0
  197.1400  175.0410  137.3980 N   0  0  0  0  0  0  0  0  0  0  0  0
  195.9260  175.3470  136.9740 N   0  0  0  0  0  2  0  0  0  0  0  0
  187.1470  178.0440  137.5400 C   0  0  1  0  0  3  0  0  0  0  0  0
  187.0630  178.1110  135.1230 N   0  0  0  0  0  2  0  0  0  0  0  0
  187.6050  178.5420  136.2020 C   0  0  0  0  0  3  0  0  0  0  0  0
  185.8700  177.2330  137.3460 C   0  0  0  0  0  2  0  0  0  0  0  0
  182.3040  178.3990  137.8790 C   0  0  0  0  0  3  0  0  0  0  0  0
  183.7370  179.5350  139.4700 C   0  0  0  0  0  3  0  0  0  0  0  0
  184.8470  178.8630  138.9500 C   0  0  0  0  0  3  0  0  0  0  0  0
  184.6880  177.9610  137.8920 C   0  0  0  0  0  0  0  0  0  0  0  0
  183.4150  177.7290  137.3580 C   0  0  0  0  0  3  0  0  0  0  0  0
  182.4660  179.3030  138.9360 C   0  0  0  0  0  3  0  0  0  0  0  0
  190.9690  177.2880  140.9010 N   0  0  0  0  0  2  0  0  0  0  0  0
  191.6100  177.1340  143.2320 C   0  0  2  0  0  3  0  0  0  0  0  0
  190.4600  178.1150  143.1240 C   0  0  0  0  0  2  0  0  0  0  0  0
  190.5010  176.8970  142.2260 C   0  0  1  0  0  3  0  0  0  0  0  0
  191.3980  176.2710  144.3800 N   0  0  0  0  0  2  0  0  0  0  0  0
  191.6600  176.2610  146.7610 C   0  0  0  0  0  2  0  0  0  0  0  0
  191.5020  177.1090  145.5610 C   0  0  2  0  0  3  0  0  0  0  0  0
  190.4210  176.8300  146.4180 O   0  0  0  0  0  0  0  0  0  0  0  0
  2  9  1  6  0  0  0
  2  5  1  0  0  0  0
  3 18  1  6  0  0  0
  3  1  1  0  0  0  0
  4  3  1  0  0  0  0
  4  2  1  0  0  0  0
  5  1  1  0  0  0  0
  5 28  1  1  0  0  0
  6 15  1  0  0  0  0
  6 12  1  0  0  0  0
  7  6  2  0  0  0  0
  9 12  2  0  0  0  0
 10  7  1  0  0  0  0
 10 11  2  0  0  0  0
 11  9  1  0  0  0  0
 12  8  1  0  0  0  0
 14 13  1  0  0  0  0
 15 13  2  0  0  0  0
 16 14  2  0  0  0  0
 17 16  1  0  0  0  0
 17 15  1  0  0  0  0
 18 20  1  6  0  0  0
 19 20  2  0  0  0  0
 21 18  1  0  0  0  0
 21 25  1  0  0  0  0
 22 27  1  0  0  0  0
 24 23  1  0  0  0  0
 25 24  2  0  0  0  0
 26 22  2  0  0  0  0
 26 25  1  0  0  0  0
 27 23  2  0  0  0  0
 29 32  1  1  0  0  0
 30 29  1  0  0  0  0
 31 28  1  6  0  0  0
 31 30  1  0  0  0  0
 31 29  1  0  0  0  0
 34 32  1  6  0  0  0
 34 35  1  0  0  0  0
 34 33  1  0  0  0  0
 35 33  1  0  0  0  0
M  END
>  <MODEL>
6

>  <REMARK>
 VINA RESULT:      -7.3      4.262     10.062
  Name = 
  10 active torsions:
  status: ('A' for Active; 'I' for Inactive)
    1  A    between atoms: C_6  and  N_18
    2  A    between atoms: C_7  and  C_22
    3  A    between atoms: C_10  and  C_12
    4  A    between atoms: C_10  and  C_16
    5  A    between atoms: C_13  and  C_16
    6  A    between atoms: C_16  and  C_21
    7  A    between atoms: C_17  and  C_19
    8  A    between atoms: N_18  and  C_20
    9  A    between atoms: C_25  and  N_26
   10  A    between atoms: N_26  and  C_34
                            x       y       z     vdW  Elec       q    Type
                         _______ _______ _______ _____ _____    ______ ____

>  <TORSDO>
F 10

$$$$
=
 OpenBabel10232409383D

 35 40  0  0  1  0  0  0  0  0999 V2000
  187.5930  178.0760  141.9370 S   0  0  0  0  0  0  0  0  0  0  0  0
  185.2820  179.0480  140.9680 C   0  0  1  0  0  3  0  0  0  0  0  0
  186.1020  178.0570  142.9760 C   0  0  2  0  0  3  0  0  0  0  0  0
  185.1190  178.9870  142.4190 N   0  0  0  0  0  2  0  0  0  0  0  0
  186.4820  178.2240  140.5250 C   0  0  1  0  0  3  0  0  0  0  0  0
  182.2740  178.9940  138.6020 C   0  0  0  0  0  0  0  0  0  0  0  0
  181.6900  177.7920  139.0190 C   0  0  0  0  0  3  0  0  0  0  0  0
  184.0700  180.6220  138.8470 O   0  0  0  0  0  1  0  0  0  0  0  0
  184.0250  178.6450  140.2570 C   0  0  0  0  0  0  0  0  0  0  0  0
  182.2780  177.0480  140.0400 C   0  0  0  0  0  3  0  0  0  0  0  0
  183.4200  177.4870  140.6300 N   0  0  0  0  0  0  0  0  0  0  0  0
  183.4600  179.4290  139.2300 C   0  0  0  0  0  0  0  0  0  0  0  0
  181.1430  181.0090  137.6700 N   0  0  0  0  0  0  0  0  0  0  0  0
  180.6550  181.2950  136.4460 C   0  0  0  0  0  3  0  0  0  0  0  0
  181.6220  179.7580  137.5150 C   0  0  0  0  0  0  0  0  0  0  0  0
  180.8330  180.2660  135.5960 N   0  0  0  0  0  0  0  0  0  0  0  0
  181.4400  179.3010  136.2650 N   0  0  0  0  0  2  0  0  0  0  0  0
  186.4360  178.4210  144.4280 C   0  0  1  0  0  3  0  0  0  0  0  0
  185.2350  179.2530  146.3570 N   0  0  0  0  0  2  0  0  0  0  0  0
  185.2980  179.1480  145.0810 C   0  0  0  0  0  3  0  0  0  0  0  0
  186.7280  177.1560  145.2290 C   0  0  0  0  0  2  0  0  0  0  0  0
  190.5120  177.0970  145.4190 C   0  0  0  0  0  3  0  0  0  0  0  0
  189.6280  177.3810  147.6570 C   0  0  0  0  0  3  0  0  0  0  0  0
  188.3260  177.3440  147.1480 C   0  0  0  0  0  3  0  0  0  0  0  0
  188.1160  177.1800  145.7750 C   0  0  0  0  0  0  0  0  0  0  0  0
  189.2100  177.0580  144.9100 C   0  0  0  0  0  3  0  0  0  0  0  0
  190.7210  177.2580  146.7940 C   0  0  0  0  0  3  0  0  0  0  0  0
  187.1480  178.7870  139.3460 N   0  0  0  0  0  2  0  0  0  0  0  0
  186.1410  177.9590  137.3030 C   0  0  2  0  0  3  0  0  0  0  0  0
  187.5240  178.4810  136.9690 C   0  0  0  0  0  2  0  0  0  0  0  0
  187.2780  177.7870  138.2910 C   0  0  1  0  0  3  0  0  0  0  0  0
  185.9230  176.7010  136.6120 N   0  0  0  0  0  2  0  0  0  0  0  0
  184.3140  174.9760  137.0290 C   0  0  0  0  0  2  0  0  0  0  0  0
  184.5050  176.4070  136.7130 C   0  0  2  0  0  3  0  0  0  0  0  0
  184.1590  175.4700  135.7220 O   0  0  0  0  0  0  0  0  0  0  0  0
  1  3  1  0  0  0  0
  2  9  1  6  0  0  0
  2  4  1  0  0  0  0
  3 18  1  1  0  0  0
  4  3  1  0  0  0  0
  5 28  1  6  0  0  0
  5  2  1  0  0  0  0
  5  1  1  0  0  0  0
  6  7  2  0  0  0  0
  6 12  1  0  0  0  0
  7 10  1  0  0  0  0
  8 12  1  0  0  0  0
  9 11  1  0  0  0  0
 10 11  2  0  0  0  0
 12  9  2  0  0  0  0
 14 13  1  0  0  0  0
 15 13  2  0  0  0  0
 15  6  1  0  0  0  0
 16 17  1  0  0  0  0
 16 14  2  0  0  0  0
 17 15  1  0  0  0  0
 18 20  1  1  0  0  0
 18 21  1  0  0  0  0
 20 19  2  0  0  0  0
 21 25  1  0  0  0  0
 22 27  1  0  0  0  0
 24 23  1  0  0  0  0
 25 24  2  0  0  0  0
 26 22  2  0  0  0  0
 26 25  1  0  0  0  0
 27 23  2  0  0  0  0
 29 32  1  6  0  0  0
 29 31  1  0  0  0  0
 30 29  1  0  0  0  0
 30 31  1  0  0  0  0
 31 28  1  1  0  0  0
 34 32  1  6  0  0  0
 34 33  1  0  0  0  0
 35 34  1  0  0  0  0
 35 33  1  0  0  0  0
M  END
>  <MODEL>
7

>  <REMARK>
 VINA RESULT:      -7.3      2.070      2.722
  Name = 
  10 active torsions:
  status: ('A' for Active; 'I' for Inactive)
    1  A    between atoms: C_6  and  N_18
    2  A    between atoms: C_7  and  C_22
    3  A    between atoms: C_10  and  C_12
    4  A    between atoms: C_10  and  C_16
    5  A    between atoms: C_13  and  C_16
    6  A    between atoms: C_16  and  C_21
    7  A    between atoms: C_17  and  C_19
    8  A    between atoms: N_18  and  C_20
    9  A    between atoms: C_25  and  N_26
   10  A    between atoms: N_26  and  C_34
                            x       y       z     vdW  Elec       q    Type
                         _______ _______ _______ _____ _____    ______ ____

>  <TORSDO>
F 10

$$$$
=
 OpenBabel10232409383D

 35 40  0  0  1  0  0  0  0  0999 V2000
  186.8930  178.7850  140.3150 S   0  0  0  0  0  0  0  0  0  0  0  0
  188.9870  177.1100  140.1380 C   0  0  1  0  0  3  0  0  0  0  0  0
  187.8500  178.3790  141.8060 C   0  0  2  0  0  3  0  0  0  0  0  0
  188.6360  177.1700  141.5550 N   0  0  0  0  0  2  0  0  0  0  0  0
  188.3310  178.2480  139.3700 C   0  0  1  0  0  3  0  0  0  0  0  0
  192.4740  176.4670  138.6940 C   0  0  0  0  0  0  0  0  0  0  0  0
  193.2390  177.0770  139.6940 C   0  0  0  0  0  3  0  0  0  0  0  0
  190.2700  175.8640  137.8470 O   0  0  0  0  0  1  0  0  0  0  0  0
  190.4730  177.0760  139.9410 C   0  0  0  0  0  0  0  0  0  0  0  0
  192.6130  177.6670  140.7900 C   0  0  0  0  0  3  0  0  0  0  0  0
  191.2590  177.6530  140.8880 N   0  0  0  0  0  0  0  0  0  0  0  0
  191.0680  176.4650  138.8180 C   0  0  0  0  0  0  0  0  0  0  0  0
  193.9960  176.5290  136.7230 N   0  0  0  0  0  0  0  0  0  0  0  0
  194.3940  175.5830  135.8490 C   0  0  0  0  0  3  0  0  0  0  0  0
  193.1720  175.8490  137.5440 C   0  0  0  0  0  0  0  0  0  0  0  0
  193.8360  174.3910  136.1320 N   0  0  0  0  0  0  0  0  0  0  0  0
  193.0700  174.5560  137.1960 N   0  0  0  0  0  2  0  0  0  0  0  0
  186.9310  178.1910  143.0180 C   0  0  1  0  0  3  0  0  0  0  0  0
  184.5490  178.5190  143.2880 N   0  0  0  0  0  2  0  0  0  0  0  0
  185.5030  178.0160  142.5950 C   0  0  0  0  0  3  0  0  0  0  0  0
  187.3580  176.9590  143.8100 C   0  0  0  0  0  2  0  0  0  0  0  0
  187.0860  178.0500  147.4290 C   0  0  0  0  0  3  0  0  0  0  0  0
  189.4120  177.5900  146.9310 C   0  0  0  0  0  3  0  0  0  0  0  0
  189.0660  177.2600  145.6170 C   0  0  0  0  0  3  0  0  0  0  0  0
  187.7300  177.3270  145.2070 C   0  0  0  0  0  0  0  0  0  0  0  0
  186.7400  177.7200  146.1150 C   0  0  0  0  0  3  0  0  0  0  0  0
  188.4230  177.9850  147.8370 C   0  0  0  0  0  3  0  0  0  0  0  0
  187.9890  177.8760  137.9930 N   0  0  0  0  0  2  0  0  0  0  0  0
  186.1200  177.3920  136.5300 C   0  0  2  0  0  3  0  0  0  0  0  0
  186.7260  176.0750  136.9720 C   0  0  0  0  0  2  0  0  0  0  0  0
  186.6760  177.2440  137.9320 C   0  0  1  0  0  3  0  0  0  0  0  0
  184.6730  177.2970  136.5850 N   0  0  0  0  0  2  0  0  0  0  0  0
  182.7490  176.9180  135.2080 C   0  0  0  0  0  2  0  0  0  0  0  0
  184.2260  176.9210  135.2550 C   0  0  2  0  0  3  0  0  0  0  0  0
  183.4850  175.7280  135.3400 O   0  0  0  0  0  0  0  0  0  0  0  0
  1  3  1  0  0  0  0
  2  9  1  1  0  0  0
  2  4  1  0  0  0  0
  3 18  1  1  0  0  0
  4  3  1  0  0  0  0
  5 28  1  6  0  0  0
  5  2  1  0  0  0  0
  5  1  1  0  0  0  0
  6 12  2  0  0  0  0
  6  7  1  0  0  0  0
  7 10  2  0  0  0  0
  8 12  1  0  0  0  0
  9 11  2  0  0  0  0
 10 11  1  0  0  0  0
 12  9  1  0  0  0  0
 13 15  2  0  0  0  0
 14 16  2  0  0  0  0
 14 13  1  0  0  0  0
 15  6  1  0  0  0  0
 16 17  1  0  0  0  0
 17 15  1  0  0  0  0
 18 20  1  6  0  0  0
 18 21  1  0  0  0  0
 20 19  2  0  0  0  0
 21 25  1  0  0  0  0
 22 27  1  0  0  0  0
 23 27  2  0  0  0  0
 24 23  1  0  0  0  0
 25 24  2  0  0  0  0
 25 26  1  0  0  0  0
 26 22  2  0  0  0  0
 29 32  1  1  0  0  0
 29 30  1  0  0  0  0
 29 31  1  0  0  0  0
 30 31  1  0  0  0  0
 31 28  1  6  0  0  0
 33 34  1  0  0  0  0
 33 35  1  0  0  0  0
 34 35  1  0  0  0  0
 34 32  1  1  0  0  0
M  END
>  <MODEL>
8

>  <REMARK>
 VINA RESULT:      -7.1      2.901      7.436
  Name = 
  10 active torsions:
  status: ('A' for Active; 'I' for Inactive)
    1  A    between atoms: C_6  and  N_18
    2  A    between atoms: C_7  and  C_22
    3  A    between atoms: C_10  and  C_12
    4  A    between atoms: C_10  and  C_16
    5  A    between atoms: C_13  and  C_16
    6  A    between atoms: C_16  and  C_21
    7  A    between atoms: C_17  and  C_19
    8  A    between atoms: N_18  and  C_20
    9  A    between atoms: C_25  and  N_26
   10  A    between atoms: N_26  and  C_34
                            x       y       z     vdW  Elec       q    Type
                         _______ _______ _______ _____ _____    ______ ____

>  <TORSDO>
F 10

$$$$
=
 OpenBabel10232409383D

 35 40  0  0  1  0  0  0  0  0999 V2000
  189.7930  177.0810  140.9280 S   0  0  0  0  0  0  0  0  0  0  0  0
  187.6090  178.6340  141.1260 C   0  0  1  0  0  3  0  0  0  0  0  0
  188.6200  176.8160  142.2910 C   0  0  2  0  0  3  0  0  0  0  0  0
  187.7770  178.0030  142.4330 N   0  0  0  0  0  2  0  0  0  0  0  0
  188.4510  177.9280  140.0740 C   0  0  1  0  0  3  0  0  0  0  0  0
  183.7860  178.7850  141.2550 C   0  0  0  0  0  0  0  0  0  0  0  0
  183.5250  178.8600  139.8820 C   0  0  0  0  0  3  0  0  0  0  0  0
  185.4290  178.6300  143.0470 O   0  0  0  0  0  1  0  0  0  0  0  0
  186.1640  178.7130  140.7350 C   0  0  0  0  0  0  0  0  0  0  0  0
  184.5780  178.8570  138.9700 C   0  0  0  0  0  3  0  0  0  0  0  0
  185.8600  178.7840  139.4120 N   0  0  0  0  0  0  0  0  0  0  0  0
  185.1270  178.7100  141.6900 C   0  0  0  0  0  0  0  0  0  0  0  0
  181.3560  178.7500  141.8000 N   0  0  0  0  0  0  0  0  0  0  0  0
  180.6840  178.7690  142.9700 C   0  0  0  0  0  3  0  0  0  0  0  0
  182.6440  178.7910  142.1950 C   0  0  0  0  0  0  0  0  0  0  0  0
  181.5280  178.8180  144.0170 N   0  0  0  0  0  0  0  0  0  0  0  0
  182.7580  178.8310  143.5340 N   0  0  0  0  0  2  0  0  0  0  0  0
  189.3550  176.5090  143.6010 C   0  0  1  0  0  3  0  0  0  0  0  0
  191.7450  176.2460  143.8720 N   0  0  0  0  0  2  0  0  0  0  0  0
  190.6600  175.8160  143.3420 C   0  0  0  0  0  3  0  0  0  0  0  0
  189.6330  177.8020  144.3590 C   0  0  0  0  0  2  0  0  0  0  0  0
  187.0590  177.9900  147.1340 C   0  0  0  0  0  3  0  0  0  0  0  0
  189.2020  177.4090  148.1040 C   0  0  0  0  0  3  0  0  0  0  0  0
  189.7890  177.4540  146.8350 C   0  0  0  0  0  3  0  0  0  0  0  0
  189.0120  177.7700  145.7150 C   0  0  0  0  0  0  0  0  0  0  0  0
  187.6460  178.0360  145.8650 C   0  0  0  0  0  3  0  0  0  0  0  0
  187.8370  177.6760  148.2530 C   0  0  0  0  0  3  0  0  0  0  0  0
  188.9370  178.8400  139.0340 N   0  0  0  0  0  2  0  0  0  0  0  0
  188.5780  177.1180  137.3680 C   0  0  2  0  0  3  0  0  0  0  0  0
  188.8660  178.4180  136.6460 C   0  0  0  0  0  2  0  0  0  0  0  0
  189.5730  178.1030  137.9470 C   0  0  1  0  0  3  0  0  0  0  0  0
  189.3030  176.0400  136.7230 N   0  0  0  0  0  2  0  0  0  0  0  0
  191.2390  174.6670  137.0500 C   0  0  0  0  0  2  0  0  0  0  0  0
  190.2040  175.4850  137.7170 C   0  0  2  0  0  3  0  0  0  0  0  0
  190.1250  174.0800  137.6750 O   0  0  0  0  0  0  0  0  0  0  0  0
  1  3  1  0  0  0  0
  2  9  1  6  0  0  0
  2  4  1  0  0  0  0
  3  4  1  0  0  0  0
  3 18  1  1  0  0  0
  5 28  1  6  0  0  0
  5  1  1  0  0  0  0
  5  2  1  0  0  0  0
  6 12  1  0  0  0  0
  6 15  1  0  0  0  0
  7  6  2  0  0  0  0
  9 12  2  0  0  0  0
 10 11  2  0  0  0  0
 10  7  1  0  0  0  0
 11  9  1  0  0  0  0
 12  8  1  0  0  0  0
 13 15  2  0  0  0  0
 13 14  1  0  0  0  0
 14 16  2  0  0  0  0
 15 17  1  0  0  0  0
 17 16  1  0  0  0  0
 18 20  1  6  0  0  0
 18 21  1  0  0  0  0
 20 19  2  0  0  0  0
 21 25  1  0  0  0  0
 22 27  1  0  0  0  0
 23 27  2  0  0  0  0
 24 23  1  0  0  0  0
 25 26  1  0  0  0  0
 25 24  2  0  0  0  0
 26 22  2  0  0  0  0
 29 32  1  6  0  0  0
 29 31  1  0  0  0  0
 30 29  1  0  0  0  0
 30 31  1  0  0  0  0
 31 28  1  1  0  0  0
 33 35  1  0  0  0  0
 33 34  1  0  0  0  0
 34 32  1  6  0  0  0
 35 34  1  0  0  0  0
M  END
>  <MODEL>
9

>  <REMARK>
 VINA RESULT:      -7.1      2.638      3.894
  Name = 
  10 active torsions:
  status: ('A' for Active; 'I' for Inactive)
    1  A    between atoms: C_6  and  N_18
    2  A    between atoms: C_7  and  C_22
    3  A    between atoms: C_10  and  C_12
    4  A    between atoms: C_10  and  C_16
    5  A    between atoms: C_13  and  C_16
    6  A    between atoms: C_16  and  C_21
    7  A    between atoms: C_17  and  C_19
    8  A    between atoms: N_18  and  C_20
    9  A    between atoms: C_25  and  N_26
   10  A    between atoms: N_26  and  C_34
                            x       y       z     vdW  Elec       q    Type
                         _______ _______ _______ _____ _____    ______ ____

>  <TORSDO>
F 10

$$$$
