=
 OpenBabel10232410583D

 42 47  0  0  1  0  0  0  0  0999 V2000
  189.9030  177.1460  139.0210 C   0  0  0  0  0  0  0  0  0  0  0  0
  187.3110  178.2660  139.4320 C   0  0  0  0  0  0  0  0  0  0  0  0
  187.6520  177.8100  138.1220 C   0  0  0  0  0  0  0  0  0  0  0  0
  191.2760  176.5780  138.8220 C   0  0  0  0  0  1  0  0  0  0  0  0
  189.5150  177.5970  140.2490 C   0  0  0  0  0  0  0  0  0  0  0  0
  185.5500  178.6050  138.0990 N   0  0  0  0  0  0  0  0  0  0  0  0
  188.9650  177.2190  137.8600 C   0  0  0  0  0  0  0  0  0  0  0  0
  186.6080  178.0070  137.3340 C   0  0  0  0  0  3  0  0  0  0  0  0
  189.3390  176.6290  136.4010 S   0  0  0  0  0  0  0  0  0  0  0  0
  185.9490  178.7600  139.3250 C   0  0  0  0  0  2  0  0  0  0  0  0
  188.1510  178.1870  140.4680 C   0  0  0  0  0  0  0  0  0  0  0  0
  189.7760  174.0590  137.2950 N   0  0  0  0  0  0  0  0  0  0  0  0
  187.9320  174.2390  136.0170 C   0  0  0  0  0  3  0  0  0  0  0  0
  188.1260  172.9470  136.4640 C   0  0  0  0  0  0  0  0  0  0  0  0
  189.2320  172.8580  137.2280 N   0  0  0  0  0  2  0  0  0  0  0  0
  189.0120  174.8960  136.5730 C   0  0  0  0  0  0  0  0  0  0  0  0
  185.4690  169.9500  135.2860 N   0  0  0  0  0  2  0  0  0  0  0  0
  184.9060  171.2970  135.2360 C   0  0  0  0  0  2  0  0  0  0  0  0
  186.7170  169.9260  134.5160 C   0  0  0  0  0  2  0  0  0  0  0  0
  187.6800  171.0670  134.8980 C   0  0  0  0  0  2  0  0  0  0  0  0
  185.7680  172.2720  136.0460 C   0  0  0  0  0  2  0  0  0  0  0  0
  187.2230  171.8000  136.1600 C   0  0  0  0  0  3  0  0  0  0  0  0
  187.7200  178.6700  141.8180 C   0  0  0  0  0  2  0  0  0  0  0  0
  186.5050  177.8970  142.3130 C   0  0  0  0  0  2  0  0  0  0  0  0
  185.5810  178.7880  143.0120 N   0  0  0  0  0  2  0  0  0  0  0  0
  183.4890  178.5290  141.8320 N   0  0  0  0  0  2  0  0  0  0  0  0
  182.1670  179.2820  143.6800 C   0  0  0  0  0  2  0  0  0  0  0  0
  183.4360  178.7070  144.2530 C   0  0  0  0  0  2  0  0  0  0  0  0
  182.1200  178.7790  142.2560 C   0  0  0  0  0  2  0  0  0  0  0  0
  184.2300  178.2190  143.0510 C   0  0  2  0  0  3  0  0  0  0  0  0
  190.4670  177.5530  141.4080 C   0  0  0  0  0  2  0  0  0  0  0  0
  190.0660  176.5050  142.3320 N   0  0  0  0  0  2  0  0  0  0  0  0
  191.0320  176.6590  143.7640 S   0  0  0  0  0  0  0  0  0  0  0  0
  191.8190  175.3950  143.9700 O   0  0  0  0  0  0  0  0  0  0  0  0
  191.9810  177.8100  143.5860 O   0  0  0  0  0  0  0  0  0  0  0  0
  189.6860  177.2660  147.5540 C   0  0  0  0  0  3  0  0  0  0  0  0
  191.9170  176.7850  146.7110 N   0  0  0  0  0  1  0  0  0  0  0  0
  190.0050  176.9690  145.1640 C   0  0  0  0  0  0  0  0  0  0  0  0
  190.5300  177.0040  146.4700 C   0  0  0  0  0  0  0  0  0  0  0  0
  188.6410  177.2150  144.9650 C   0  0  0  0  0  3  0  0  0  0  0  0
  188.3240  177.4990  147.3460 C   0  0  0  0  0  3  0  0  0  0  0  0
  187.8010  177.4760  146.0520 C   0  0  0  0  0  3  0  0  0  0  0  0
  1  5  1  0  0  0  0
  2 11  1  0  0  0  0
  3  2  2  0  0  0  0
  4  1  1  0  0  0  0
  5 11  2  0  0  0  0
  5 31  1  0  0  0  0
  6 10  1  0  0  0  0
  7  3  1  0  0  0  0
  7  1  2  0  0  0  0
  8  6  2  0  0  0  0
  8  3  1  0  0  0  0
  9 16  1  0  0  0  0
  9  7  1  0  0  0  0
 10  2  1  0  0  0  0
 11 23  1  0  0  0  0
 13 14  2  0  0  0  0
 13 16  1  0  0  0  0
 14 15  1  0  0  0  0
 15 12  1  0  0  0  0
 16 12  2  0  0  0  0
 18 17  1  0  0  0  0
 18 21  1  0  0  0  0
 19 20  1  0  0  0  0
 19 17  1  0  0  0  0
 20 22  1  0  0  0  0
 21 22  1  0  0  0  0
 22 14  1  0  0  0  0
 23 24  1  0  0  0  0
 24 25  1  0  0  0  0
 26 29  1  0  0  0  0
 26 30  1  0  0  0  0
 27 28  1  0  0  0  0
 29 27  1  0  0  0  0
 30 25  1  6  0  0  0
 30 28  1  0  0  0  0
 31 32  1  0  0  0  0
 32 33  1  0  0  0  0
 33 34  2  0  0  0  0
 33 38  1  0  0  0  0
 35 33  2  0  0  0  0
 38 39  1  0  0  0  0
 39 37  1  0  0  0  0
 39 36  2  0  0  0  0
 40 38  2  0  0  0  0
 40 42  1  0  0  0  0
 41 36  1  0  0  0  0
 42 41  2  0  0  0  0
M  END
>  <MODEL>
1

>  <REMARK>
 VINA RESULT:      -8.9      0.000      0.000
  Name = 
  10 active torsions:
  status: ('A' for Active; 'I' for Inactive)
    1  A    between atoms: C_1  and  C_10
    2  A    between atoms: C_1  and  N_16
    3  A    between atoms: S_8  and  C_11
    4  A    between atoms: S_8  and  N_30
    5  A    between atoms: C_10  and  C_37
    6  A    between atoms: N_16  and  C_33
    7  A    between atoms: C_19  and  C_36
    8  A    between atoms: C_22  and  C_23
    9  A    between atoms: C_22  and  N_30
   10  A    between atoms: S_34  and  C_38
                            x       y       z     vdW  Elec       q    Type
                         _______ _______ _______ _____ _____    ______ ____

>  <TORSDO>
F 10

$$$$
=
 OpenBabel10232410583D

 42 47  0  0  1  0  0  0  0  0999 V2000
  183.2970  178.6620  141.7670 C   0  0  0  0  0  0  0  0  0  0  0  0
  185.4170  178.4100  139.8730 C   0  0  0  0  0  0  0  0  0  0  0  0
  184.0860  178.1210  139.4430 C   0  0  1  0  0  3  0  0  0  0  0  0
  182.2010  178.7820  142.7830 C   0  0  0  0  0  1  0  0  0  0  0  0
  184.5910  178.9250  142.1140 C   0  0  0  0  0  0  0  0  0  0  0  0
  185.4920  177.8490  137.7110 N   0  0  0  0  0  0  0  0  0  0  0  0
  182.9620  178.2440  140.3720 C   0  0  0  0  0  0  0  0  0  0  0  0
  184.1300  177.7940  138.1620 C   0  0  0  0  0  3  0  0  0  0  0  0
  181.4410  177.9950  139.8810 S   0  0  0  0  0  0  0  0  0  0  0  0
  186.2520  178.2090  138.7010 C   0  0  0  0  0  3  0  0  0  0  0  0
  185.7080  178.7940  141.1190 C   0  0  0  0  0  0  0  0  0  0  0  0
  180.2680  180.4190  140.4660 N   0  0  0  0  0  0  0  0  0  0  0  0
  180.9640  180.2760  138.3300 C   0  0  0  0  0  3  0  0  0  0  0  0
  180.3910  181.5020  138.6050 C   0  0  0  0  0  0  0  0  0  0  0  0
  179.9820  181.5710  139.8860 N   0  0  0  0  0  2  0  0  0  0  0  0
  180.8530  179.6320  139.5460 C   0  0  0  0  0  0  0  0  0  0  0  0
  180.4230  184.5980  135.8040 N   0  0  0  0  0  2  0  0  0  0  0  0
  181.4700  184.7020  136.8180 C   0  0  0  0  0  2  0  0  0  0  0  0
  180.4970  183.2740  135.1770 C   0  0  0  0  0  2  0  0  0  0  0  0
  180.5500  182.1260  136.2020 C   0  0  0  0  0  2  0  0  0  0  0  0
  181.1560  183.7940  138.0120 C   0  0  0  0  0  2  0  0  0  0  0  0
  180.2570  182.6150  137.6210 C   0  0  0  0  0  3  0  0  0  0  0  0
  187.1250  179.0960  141.4960 C   0  0  0  0  0  2  0  0  0  0  0  0
  187.9310  177.8160  141.6670 C   0  0  0  0  0  2  0  0  0  0  0  0
  189.3020  178.1240  142.0690 N   0  0  0  0  0  2  0  0  0  0  0  0
  191.6220  177.6740  141.5700 N   0  0  0  0  0  2  0  0  0  0  0  0
  191.2060  177.2240  139.2570 C   0  0  0  0  0  2  0  0  0  0  0  0
  189.9340  176.9110  140.0010 C   0  0  0  0  0  2  0  0  0  0  0  0
  192.2730  177.3000  140.3230 C   0  0  0  0  0  2  0  0  0  0  0  0
  190.2520  177.1850  141.4630 C   0  0  2  0  0  3  0  0  0  0  0  0
  184.9330  179.3140  143.5230 C   0  0  0  0  0  2  0  0  0  0  0  0
  185.1060  178.1210  144.3340 N   0  0  0  0  0  2  0  0  0  0  0  0
  185.6330  178.6190  145.9090 S   0  0  0  0  0  0  0  0  0  0  0  0
  185.6120  180.1200  145.9890 O   0  0  0  0  0  0  0  0  0  0  0  0
  184.6920  178.0550  146.9360 O   0  0  0  0  0  0  0  0  0  0  0  0
  189.1220  177.5850  147.7280 C   0  0  0  0  0  3  0  0  0  0  0  0
  187.1170  178.6480  148.6080 N   0  0  0  0  0  1  0  0  0  0  0  0
  187.2600  178.0180  146.2270 C   0  0  0  0  0  0  0  0  0  0  0  0
  187.8330  178.0850  147.5120 C   0  0  0  0  0  0  0  0  0  0  0  0
  187.9860  177.4330  145.1820 C   0  0  0  0  0  3  0  0  0  0  0  0
  189.8420  177.0140  146.6760 C   0  0  0  0  0  3  0  0  0  0  0  0
  189.2730  176.9360  145.4030 C   0  0  0  0  0  3  0  0  0  0  0  0
  1  5  1  0  0  0  0
  1  4  1  0  0  0  0
  2 11  1  0  0  0  0
  3  8  1  6  0  0  0
  3  2  1  0  0  0  0
  3  7  1  0  0  0  0
  5 31  1  0  0  0  0
  6  8  2  0  0  0  0
  6 10  1  0  0  0  0
  7  1  2  0  0  0  0
  9  7  1  0  0  0  0
 10  2  2  0  0  0  0
 11 23  1  0  0  0  0
 11  5  2  0  0  0  0
 13 14  2  0  0  0  0
 13 16  1  0  0  0  0
 14 15  1  0  0  0  0
 15 12  1  0  0  0  0
 16  9  1  0  0  0  0
 16 12  2  0  0  0  0
 17 18  1  0  0  0  0
 18 21  1  0  0  0  0
 19 17  1  0  0  0  0
 19 20  1  0  0  0  0
 20 22  1  0  0  0  0
 22 21  1  0  0  0  0
 22 14  1  0  0  0  0
 23 24  1  0  0  0  0
 24 25  1  0  0  0  0
 27 28  1  0  0  0  0
 27 29  1  0  0  0  0
 28 30  1  0  0  0  0
 29 26  1  0  0  0  0
 30 26  1  0  0  0  0
 30 25  1  6  0  0  0
 31 32  1  0  0  0  0
 32 33  1  0  0  0  0
 33 34  2  0  0  0  0
 33 38  1  0  0  0  0
 33 35  2  0  0  0  0
 38 39  2  0  0  0  0
 39 36  1  0  0  0  0
 39 37  1  0  0  0  0
 40 42  2  0  0  0  0
 40 38  1  0  0  0  0
 41 36  2  0  0  0  0
 42 41  1  0  0  0  0
M  END
>  <MODEL>
2

>  <REMARK>
 VINA RESULT:      -8.6      4.367      8.197
  Name = 
  10 active torsions:
  status: ('A' for Active; 'I' for Inactive)
    1  A    between atoms: C_1  and  C_10
    2  A    between atoms: C_1  and  N_16
    3  A    between atoms: S_8  and  C_11
    4  A    between atoms: S_8  and  N_30
    5  A    between atoms: C_10  and  C_37
    6  A    between atoms: N_16  and  C_33
    7  A    between atoms: C_19  and  C_36
    8  A    between atoms: C_22  and  C_23
    9  A    between atoms: C_22  and  N_30
   10  A    between atoms: S_34  and  C_38
                            x       y       z     vdW  Elec       q    Type
                         _______ _______ _______ _____ _____    ______ ____

>  <TORSDO>
F 10

$$$$
=
 OpenBabel10232410583D

 42 47  0  0  1  0  0  0  0  0999 V2000
  187.2580  177.2730  137.8340 C   0  0  0  0  0  0  0  0  0  0  0  0
  189.1460  175.1840  137.3670 C   0  0  0  0  0  0  0  0  0  0  0  0
  189.5250  176.2610  138.2250 C   0  0  0  0  0  0  0  0  0  0  0  0
  186.2590  178.3690  138.0510 C   0  0  0  0  0  1  0  0  0  0  0  0
  186.9560  176.2150  137.0260 C   0  0  0  0  0  0  0  0  0  0  0  0
  191.2210  174.7920  138.0960 N   0  0  0  0  0  0  0  0  0  0  0  0
  188.5910  177.3520  138.5050 C   0  0  2  0  0  3  0  0  0  0  0  0
  190.7520  176.0260  138.6610 C   0  0  0  0  0  3  0  0  0  0  0  0
  188.9770  178.5380  139.5350 S   0  0  0  0  0  0  0  0  0  0  0  0
  190.2910  174.2910  137.3400 C   0  0  0  0  0  3  0  0  0  0  0  0
  187.9480  175.1150  136.7790 C   0  0  0  0  0  0  0  0  0  0  0  0
  188.7080  177.0160  141.8160 N   0  0  0  0  0  0  0  0  0  0  0  0
  187.1100  178.5880  141.6200 C   0  0  0  0  0  3  0  0  0  0  0  0
  186.9640  177.8460  142.7750 C   0  0  0  0  0  0  0  0  0  0  0  0
  187.9290  176.9110  142.8770 N   0  0  0  0  0  2  0  0  0  0  0  0
  188.2290  178.0130  141.0530 C   0  0  0  0  0  0  0  0  0  0  0  0
  184.1560  178.7880  145.7170 N   0  0  0  0  0  2  0  0  0  0  0  0
  185.5430  178.9780  146.1360 C   0  0  0  0  0  2  0  0  0  0  0  0
  183.9290  179.5260  144.4700 C   0  0  0  0  0  2  0  0  0  0  0  0
  184.9970  179.2340  143.3980 C   0  0  0  0  0  2  0  0  0  0  0  0
  186.4980  178.2460  145.1850 C   0  0  0  0  0  2  0  0  0  0  0  0
  185.8920  178.0580  143.7900 C   0  0  0  0  0  3  0  0  0  0  0  0
  187.6120  173.9470  135.9040 C   0  0  0  0  0  2  0  0  0  0  0  0
  187.0630  172.7880  136.7240 C   0  0  0  0  0  2  0  0  0  0  0  0
  186.5640  171.7310  135.8470 N   0  0  0  0  0  2  0  0  0  0  0  0
  184.4580  172.1890  136.9360 N   0  0  0  0  0  2  0  0  0  0  0  0
  183.4300  170.1730  136.1580 C   0  0  0  0  0  2  0  0  0  0  0  0
  184.5040  170.5310  135.1640 C   0  0  0  0  0  2  0  0  0  0  0  0
  183.2180  171.4280  136.9710 C   0  0  0  0  0  2  0  0  0  0  0  0
  185.1090  171.8260  135.6830 C   0  0  2  0  0  3  0  0  0  0  0  0
  185.6300  176.1500  136.3270 C   0  0  0  0  0  2  0  0  0  0  0  0
  184.6330  175.5780  137.2170 N   0  0  0  0  0  2  0  0  0  0  0  0
  183.1360  176.4080  136.9440 S   0  0  0  0  0  0  0  0  0  0  0  0
  183.2900  177.3400  135.7750 O   0  0  0  0  0  0  0  0  0  0  0  0
  182.0700  175.3950  136.6330 O   0  0  0  0  0  0  0  0  0  0  0  0
  181.2500  178.9210  139.5280 C   0  0  0  0  0  3  0  0  0  0  0  0
  180.8560  178.4670  137.1700 N   0  0  0  0  0  1  0  0  0  0  0  0
  182.6680  177.3130  138.3840 C   0  0  0  0  0  0  0  0  0  0  0  0
  181.6000  178.2310  138.3620 C   0  0  0  0  0  0  0  0  0  0  0  0
  183.3570  177.0900  139.5820 C   0  0  0  0  0  3  0  0  0  0  0  0
  181.9510  178.6990  140.7160 C   0  0  0  0  0  3  0  0  0  0  0  0
  183.0040  177.7820  140.7430 C   0  0  0  0  0  3  0  0  0  0  0  0
  1  4  1  0  0  0  0
  1  7  1  0  0  0  0
  2  3  1  0  0  0  0
  3  7  1  0  0  0  0
  3  8  2  0  0  0  0
  5  1  2  0  0  0  0
  6  8  1  0  0  0  0
  7  9  1  1  0  0  0
  9 16  1  0  0  0  0
 10  2  1  0  0  0  0
 10  6  2  0  0  0  0
 11  5  1  0  0  0  0
 11  2  2  0  0  0  0
 12 15  1  0  0  0  0
 13 14  2  0  0  0  0
 14 15  1  0  0  0  0
 14 22  1  0  0  0  0
 16 13  1  0  0  0  0
 16 12  2  0  0  0  0
 17 18  1  0  0  0  0
 19 17  1  0  0  0  0
 20 22  1  0  0  0  0
 20 19  1  0  0  0  0
 21 18  1  0  0  0  0
 22 21  1  0  0  0  0
 23 24  1  0  0  0  0
 23 11  1  0  0  0  0
 25 24  1  0  0  0  0
 26 29  1  0  0  0  0
 27 29  1  0  0  0  0
 28 30  1  0  0  0  0
 28 27  1  0  0  0  0
 30 25  1  1  0  0  0
 30 26  1  0  0  0  0
 31  5  1  0  0  0  0
 31 32  1  0  0  0  0
 33 32  1  0  0  0  0
 33 38  1  0  0  0  0
 34 33  2  0  0  0  0
 35 33  2  0  0  0  0
 36 41  1  0  0  0  0
 37 39  1  0  0  0  0
 38 40  2  0  0  0  0
 39 38  1  0  0  0  0
 39 36  2  0  0  0  0
 40 42  1  0  0  0  0
 41 42  2  0  0  0  0
M  END
>  <MODEL>
3

>  <REMARK>
 VINA RESULT:      -8.5      3.505      9.061
  Name = 
  10 active torsions:
  status: ('A' for Active; 'I' for Inactive)
    1  A    between atoms: C_1  and  C_10
    2  A    between atoms: C_1  and  N_16
    3  A    between atoms: S_8  and  C_11
    4  A    between atoms: S_8  and  N_30
    5  A    between atoms: C_10  and  C_37
    6  A    between atoms: N_16  and  C_33
    7  A    between atoms: C_19  and  C_36
    8  A    between atoms: C_22  and  C_23
    9  A    between atoms: C_22  and  N_30
   10  A    between atoms: S_34  and  C_38
                            x       y       z     vdW  Elec       q    Type
                         _______ _______ _______ _____ _____    ______ ____

>  <TORSDO>
F 10

$$$$
=
 OpenBabel10232410583D

 42 47  0  0  1  0  0  0  0  0999 V2000
  192.1740  176.8640  138.7140 C   0  0  0  0  0  0  0  0  0  0  0  0
  190.1460  176.1260  136.8470 C   0  0  0  0  0  0  0  0  0  0  0  0
  191.5080  176.0870  136.4190 C   0  0  1  0  0  3  0  0  0  0  0  0
  193.2220  177.2740  139.7050 C   0  0  0  0  0  1  0  0  0  0  0  0
  190.8540  176.8780  139.0620 C   0  0  0  0  0  0  0  0  0  0  0  0
  190.1870  175.4280  134.7240 N   0  0  0  0  0  0  0  0  0  0  0  0
  192.5870  176.4470  137.3400 C   0  0  0  0  0  0  0  0  0  0  0  0
  191.5320  175.6700  135.1630 C   0  0  0  0  0  3  0  0  0  0  0  0
  194.1370  176.3350  136.8940 S   0  0  0  0  0  0  0  0  0  0  0  0
  189.3690  175.6900  135.6990 C   0  0  0  0  0  3  0  0  0  0  0  0
  189.7850  176.4890  138.0810 C   0  0  0  0  0  0  0  0  0  0  0  0
  195.3240  174.5970  138.6730 N   0  0  0  0  0  0  0  0  0  0  0  0
  194.3200  173.5420  136.9560 C   0  0  0  0  0  3  0  0  0  0  0  0
  194.8960  172.6530  137.8410 C   0  0  0  0  0  0  0  0  0  0  0  0
  195.4910  173.3000  138.8620 N   0  0  0  0  0  2  0  0  0  0  0  0
  194.6270  174.7580  137.5350 C   0  0  0  0  0  0  0  0  0  0  0  0
  194.9430  168.5500  137.0750 N   0  0  0  0  0  2  0  0  0  0  0  0
  194.4540  169.3570  135.9610 C   0  0  0  0  0  2  0  0  0  0  0  0
  196.2550  169.0570  137.4920 C   0  0  0  0  0  2  0  0  0  0  0  0
  196.2650  170.5810  137.7160 C   0  0  0  0  0  2  0  0  0  0  0  0
  194.0850  170.7670  136.4370 C   0  0  0  0  0  2  0  0  0  0  0  0
  194.8540  171.1690  137.7010 C   0  0  0  0  0  3  0  0  0  0  0  0
  188.3380  176.4900  138.4660 C   0  0  0  0  0  2  0  0  0  0  0  0
  187.6820  177.8210  138.1270 C   0  0  0  0  0  2  0  0  0  0  0  0
  186.2320  177.6670  138.0260 N   0  0  0  0  0  2  0  0  0  0  0  0
  186.1920  178.7870  140.1650 N   0  0  0  0  0  2  0  0  0  0  0  0
  183.8930  178.2660  140.5780 C   0  0  0  0  0  2  0  0  0  0  0  0
  184.0770  178.2880  139.0830 C   0  0  0  0  0  2  0  0  0  0  0  0
  185.1170  178.9560  141.1310 C   0  0  0  0  0  2  0  0  0  0  0  0
  185.5390  178.6480  138.8680 C   0  0  2  0  0  3  0  0  0  0  0  0
  190.4360  177.3260  140.4310 C   0  0  0  0  0  2  0  0  0  0  0  0
  190.1990  176.1670  141.2770 N   0  0  0  0  0  2  0  0  0  0  0  0
  190.6750  176.5790  142.8920 S   0  0  0  0  0  0  0  0  0  0  0  0
  191.4070  175.4180  143.5060 O   0  0  0  0  0  0  0  0  0  0  0  0
  191.5900  177.7690  142.8390 O   0  0  0  0  0  0  0  0  0  0  0  0
  188.2230  177.6280  145.9640 C   0  0  0  0  0  3  0  0  0  0  0  0
  190.6330  177.2990  145.8860 N   0  0  0  0  0  1  0  0  0  0  0  0
  189.2590  176.9840  143.8620 C   0  0  0  0  0  0  0  0  0  0  0  0
  189.3680  177.2990  145.2300 C   0  0  0  0  0  0  0  0  0  0  0  0
  188.0010  177.0200  143.2470 C   0  0  0  0  0  3  0  0  0  0  0  0
  186.9720  177.6510  145.3430 C   0  0  0  0  0  3  0  0  0  0  0  0
  186.8600  177.3490  143.9840 C   0  0  0  0  0  3  0  0  0  0  0  0
  1  5  1  0  0  0  0
  1  4  1  0  0  0  0
  2 11  1  0  0  0  0
  3  8  1  1  0  0  0
  3  2  1  0  0  0  0
  3  7  1  0  0  0  0
  5 31  1  0  0  0  0
  6  8  2  0  0  0  0
  6 10  1  0  0  0  0
  7  1  2  0  0  0  0
  9  7  1  0  0  0  0
  9 16  1  0  0  0  0
 10  2  2  0  0  0  0
 11 23  1  0  0  0  0
 11  5  2  0  0  0  0
 12 15  1  0  0  0  0
 13 16  1  0  0  0  0
 13 14  2  0  0  0  0
 14 15  1  0  0  0  0
 16 12  2  0  0  0  0
 17 19  1  0  0  0  0
 18 21  1  0  0  0  0
 18 17  1  0  0  0  0
 19 20  1  0  0  0  0
 21 22  1  0  0  0  0
 22 20  1  0  0  0  0
 22 14  1  0  0  0  0
 24 23  1  0  0  0  0
 25 24  1  0  0  0  0
 26 29  1  0  0  0  0
 27 29  1  0  0  0  0
 28 27  1  0  0  0  0
 30 25  1  6  0  0  0
 30 28  1  0  0  0  0
 30 26  1  0  0  0  0
 31 32  1  0  0  0  0
 32 33  1  0  0  0  0
 33 34  2  0  0  0  0
 33 38  1  0  0  0  0
 35 33  2  0  0  0  0
 38 39  1  0  0  0  0
 39 37  1  0  0  0  0
 39 36  2  0  0  0  0
 40 38  2  0  0  0  0
 40 42  1  0  0  0  0
 41 36  1  0  0  0  0
 42 41  2  0  0  0  0
M  END
>  <MODEL>
4

>  <REMARK>
 VINA RESULT:      -8.4      3.674      5.097
  Name = 
  10 active torsions:
  status: ('A' for Active; 'I' for Inactive)
    1  A    between atoms: C_1  and  C_10
    2  A    between atoms: C_1  and  N_16
    3  A    between atoms: S_8  and  C_11
    4  A    between atoms: S_8  and  N_30
    5  A    between atoms: C_10  and  C_37
    6  A    between atoms: N_16  and  C_33
    7  A    between atoms: C_19  and  C_36
    8  A    between atoms: C_22  and  C_23
    9  A    between atoms: C_22  and  N_30
   10  A    between atoms: S_34  and  C_38
                            x       y       z     vdW  Elec       q    Type
                         _______ _______ _______ _____ _____    ______ ____

>  <TORSDO>
F 10

$$$$
=
 OpenBabel10232410583D

 42 47  0  0  1  0  0  0  0  0999 V2000
  187.8740  177.9660  139.2640 C   0  0  0  0  0  0  0  0  0  0  0  0
  185.1930  178.8160  139.7450 C   0  0  0  0  0  0  0  0  0  0  0  0
  185.5540  178.4340  138.4180 C   0  0  0  0  0  0  0  0  0  0  0  0
  189.2920  177.5410  139.0280 C   0  0  0  0  0  1  0  0  0  0  0  0
  187.4650  178.3420  140.5100 C   0  0  0  0  0  0  0  0  0  0  0  0
  183.3850  179.0200  138.4480 N   0  0  0  0  0  0  0  0  0  0  0  0
  186.9130  177.9810  138.1190 C   0  0  0  0  0  0  0  0  0  0  0  0
  184.4820  178.5500  137.6510 C   0  0  0  0  0  3  0  0  0  0  0  0
  187.3180  177.4730  136.6380 S   0  0  0  0  0  0  0  0  0  0  0  0
  183.7870  179.1770  139.6730 C   0  0  0  0  0  2  0  0  0  0  0  0
  186.0540  178.7890  140.7660 C   0  0  0  0  0  0  0  0  0  0  0  0
  188.1990  174.8860  136.9860 N   0  0  0  0  0  0  0  0  0  0  0  0
  185.9740  175.0170  136.6720 C   0  0  0  0  0  3  0  0  0  0  0  0
  186.3920  173.7150  136.8570 C   0  0  0  0  0  0  0  0  0  0  0  0
  187.7250  173.6540  137.0450 N   0  0  0  0  0  2  0  0  0  0  0  0
  187.1640  175.7120  136.7600 C   0  0  0  0  0  0  0  0  0  0  0  0
  183.6160  170.6040  136.6380 N   0  0  0  0  0  2  0  0  0  0  0  0
  183.0190  171.9210  136.8510 C   0  0  0  0  0  2  0  0  0  0  0  0
  184.4880  170.6610  135.4590 C   0  0  0  0  0  2  0  0  0  0  0  0
  185.4740  171.8440  135.4990 C   0  0  0  0  0  2  0  0  0  0  0  0
  184.0790  172.9240  137.3190 C   0  0  0  0  0  2  0  0  0  0  0  0
  185.4900  172.5280  136.8670 C   0  0  0  0  0  3  0  0  0  0  0  0
  185.6010  179.1880  142.1370 C   0  0  0  0  0  2  0  0  0  0  0  0
  184.5200  178.2480  142.6510 C   0  0  0  0  0  2  0  0  0  0  0  0
  183.4750  178.9990  143.3450 N   0  0  0  0  0  2  0  0  0  0  0  0
  181.6250  178.7530  141.8120 N   0  0  0  0  0  2  0  0  0  0  0  0
  179.9830  179.3690  143.4400 C   0  0  0  0  0  2  0  0  0  0  0  0
  181.1550  178.7960  144.1940 C   0  0  0  0  0  2  0  0  0  0  0  0
  180.1960  178.9450  142.0060 C   0  0  0  0  0  2  0  0  0  0  0  0
  182.1570  178.3950  143.1230 C   0  0  2  0  0  3  0  0  0  0  0  0
  188.4360  178.3560  141.6540 C   0  0  0  0  0  2  0  0  0  0  0  0
  188.4340  177.0620  142.3170 N   0  0  0  0  0  2  0  0  0  0  0  0
  189.7930  177.0110  143.3910 S   0  0  0  0  0  0  0  0  0  0  0  0
  190.5180  175.7070  143.2150 O   0  0  0  0  0  0  0  0  0  0  0  0
  190.7210  178.1430  143.0530 O   0  0  0  0  0  0  0  0  0  0  0  0
  189.7000  177.2510  147.4520 C   0  0  0  0  0  3  0  0  0  0  0  0
  191.5470  176.8510  145.9180 N   0  0  0  0  0  1  0  0  0  0  0  0
  189.2580  177.1860  145.0630 C   0  0  0  0  0  0  0  0  0  0  0  0
  190.1610  177.0930  146.1390 C   0  0  0  0  0  0  0  0  0  0  0  0
  187.9070  177.4520  145.3200 C   0  0  0  0  0  3  0  0  0  0  0  0
  188.3490  177.5050  147.6980 C   0  0  0  0  0  3  0  0  0  0  0  0
  187.4520  177.6070  146.6320 C   0  0  0  0  0  3  0  0  0  0  0  0
  1  5  1  0  0  0  0
  2 11  1  0  0  0  0
  3  2  2  0  0  0  0
  4  1  1  0  0  0  0
  5 11  2  0  0  0  0
  5 31  1  0  0  0  0
  6 10  1  0  0  0  0
  7  3  1  0  0  0  0
  7  1  2  0  0  0  0
  8  3  1  0  0  0  0
  8  6  2  0  0  0  0
  9 16  1  0  0  0  0
  9  7  1  0  0  0  0
 10  2  1  0  0  0  0
 11 23  1  0  0  0  0
 12 15  1  0  0  0  0
 13 16  1  0  0  0  0
 13 14  2  0  0  0  0
 14 22  1  0  0  0  0
 14 15  1  0  0  0  0
 16 12  2  0  0  0  0
 17 18  1  0  0  0  0
 18 21  1  0  0  0  0
 19 20  1  0  0  0  0
 19 17  1  0  0  0  0
 20 22  1  0  0  0  0
 22 21  1  0  0  0  0
 23 24  1  0  0  0  0
 24 25  1  0  0  0  0
 26 29  1  0  0  0  0
 26 30  1  0  0  0  0
 27 28  1  0  0  0  0
 29 27  1  0  0  0  0
 30 25  1  1  0  0  0
 30 28  1  0  0  0  0
 31 32  1  0  0  0  0
 32 33  1  0  0  0  0
 33 38  1  0  0  0  0
 34 33  2  0  0  0  0
 35 33  2  0  0  0  0
 36 41  1  0  0  0  0
 37 39  1  0  0  0  0
 38 40  2  0  0  0  0
 38 39  1  0  0  0  0
 39 36  2  0  0  0  0
 40 42  1  0  0  0  0
 42 41  2  0  0  0  0
M  END
>  <MODEL>
5

>  <REMARK>
 VINA RESULT:      -8.4      1.500      1.942
  Name = 
  10 active torsions:
  status: ('A' for Active; 'I' for Inactive)
    1  A    between atoms: C_1  and  C_10
    2  A    between atoms: C_1  and  N_16
    3  A    between atoms: S_8  and  C_11
    4  A    between atoms: S_8  and  N_30
    5  A    between atoms: C_10  and  C_37
    6  A    between atoms: N_16  and  C_33
    7  A    between atoms: C_19  and  C_36
    8  A    between atoms: C_22  and  C_23
    9  A    between atoms: C_22  and  N_30
   10  A    between atoms: S_34  and  C_38
                            x       y       z     vdW  Elec       q    Type
                         _______ _______ _______ _____ _____    ______ ____

>  <TORSDO>
F 10

$$$$
=
 OpenBabel10232410583D

 42 47  0  0  1  0  0  0  0  0999 V2000
  184.6950  178.7870  140.4730 C   0  0  0  0  0  0  0  0  0  0  0  0
  183.5890  178.8040  143.1030 C   0  0  0  0  0  0  0  0  0  0  0  0
  182.6930  178.8010  141.9910 C   0  0  0  0  0  0  0  0  0  0  0  0
  185.2970  178.7970  139.0990 C   0  0  0  0  0  1  0  0  0  0  0  0
  185.4970  178.7880  141.5770 C   0  0  0  0  0  0  0  0  0  0  0  0
  181.5000  178.7910  143.8960 N   0  0  0  0  0  0  0  0  0  0  0  0
  183.2080  178.7830  140.6220 C   0  0  0  0  0  0  0  0  0  0  0  0
  181.4550  178.7890  142.4610 C   0  0  0  0  0  3  0  0  0  0  0  0
  182.2070  178.7030  139.3540 S   0  0  0  0  0  0  0  0  0  0  0  0
  182.7400  178.7980  144.2820 C   0  0  0  0  0  2  0  0  0  0  0  0
  184.9170  178.7960  142.9620 C   0  0  0  0  0  0  0  0  0  0  0  0
  181.3770  176.0840  139.5660 N   0  0  0  0  0  0  0  0  0  0  0  0
  182.9650  176.3730  137.9980 C   0  0  0  0  0  3  0  0  0  0  0  0
  182.5540  175.0580  138.0790 C   0  0  0  0  0  0  0  0  0  0  0  0
  181.6040  174.9030  139.0200 N   0  0  0  0  0  2  0  0  0  0  0  0
  182.1860  176.9740  138.9670 C   0  0  0  0  0  0  0  0  0  0  0  0
  184.3020  172.2270  135.5560 N   0  0  0  0  0  2  0  0  0  0  0  0
  184.1110  173.5370  134.9390 C   0  0  0  0  0  2  0  0  0  0  0  0
  185.0450  172.3950  136.8100 C   0  0  0  0  0  2  0  0  0  0  0  0
  184.4460  173.4830  137.7220 C   0  0  0  0  0  2  0  0  0  0  0  0
  183.1230  174.3790  135.7540 C   0  0  0  0  0  2  0  0  0  0  0  0
  183.0770  173.9520  137.2260 C   0  0  0  0  0  3  0  0  0  0  0  0
  185.7970  178.7830  144.1740 C   0  0  0  0  0  2  0  0  0  0  0  0
  186.1170  177.3570  144.6020 C   0  0  0  0  0  2  0  0  0  0  0  0
  186.3120  177.2890  146.0490 N   0  0  0  0  0  2  0  0  0  0  0  0
  188.7220  177.2390  146.2060 N   0  0  0  0  0  2  0  0  0  0  0  0
  188.7480  177.8750  148.5120 C   0  0  0  0  0  2  0  0  0  0  0  0
  187.4770  178.4260  147.9190 C   0  0  0  0  0  2  0  0  0  0  0  0
  189.6100  177.5180  147.3250 C   0  0  0  0  0  2  0  0  0  0  0  0
  187.5160  178.0220  146.4530 C   0  0  2  0  0  3  0  0  0  0  0  0
  186.9900  178.8220  141.4280 C   0  0  0  0  0  2  0  0  0  0  0  0
  187.4960  177.4740  141.2330 N   0  0  0  0  0  2  0  0  0  0  0  0
  188.9870  177.3320  142.1060 S   0  0  0  0  0  0  0  0  0  0  0  0
  189.1510  178.5240  143.0060 O   0  0  0  0  0  0  0  0  0  0  0  0
  188.9430  176.0830  142.9400 O   0  0  0  0  0  0  0  0  0  0  0  0
  192.7260  177.2810  140.5020 C   0  0  0  0  0  3  0  0  0  0  0  0
  191.9740  177.6350  142.7900 N   0  0  0  0  0  1  0  0  0  0  0  0
  190.3440  177.2280  140.9840 C   0  0  0  0  0  0  0  0  0  0  0  0
  191.6740  177.3830  141.4200 C   0  0  0  0  0  0  0  0  0  0  0  0
  190.0920  176.9550  139.6340 C   0  0  0  0  0  3  0  0  0  0  0  0
  192.4620  177.0190  139.1550 C   0  0  0  0  0  3  0  0  0  0  0  0
  191.1450  176.8540  138.7210 C   0  0  0  0  0  3  0  0  0  0  0  0
  1  7  2  0  0  0  0
  1  5  1  0  0  0  0
  2 10  1  0  0  0  0
  3  8  1  0  0  0  0
  3  2  2  0  0  0  0
  4  1  1  0  0  0  0
  5 11  2  0  0  0  0
  6 10  1  0  0  0  0
  7  3  1  0  0  0  0
  8  6  2  0  0  0  0
  9  7  1  0  0  0  0
 11  2  1  0  0  0  0
 11 23  1  0  0  0  0
 13 14  2  0  0  0  0
 13 16  1  0  0  0  0
 14 15  1  0  0  0  0
 15 12  1  0  0  0  0
 16  9  1  0  0  0  0
 16 12  2  0  0  0  0
 17 19  1  0  0  0  0
 18 17  1  0  0  0  0
 18 21  1  0  0  0  0
 19 20  1  0  0  0  0
 21 22  1  0  0  0  0
 22 20  1  0  0  0  0
 22 14  1  0  0  0  0
 23 24  1  0  0  0  0
 24 25  1  0  0  0  0
 26 30  1  0  0  0  0
 26 29  1  0  0  0  0
 28 27  1  0  0  0  0
 29 27  1  0  0  0  0
 30 25  1  1  0  0  0
 30 28  1  0  0  0  0
 31  5  1  0  0  0  0
 32 31  1  0  0  0  0
 32 33  1  0  0  0  0
 33 35  2  0  0  0  0
 33 34  2  0  0  0  0
 36 39  1  0  0  0  0
 38 39  2  0  0  0  0
 38 33  1  0  0  0  0
 39 37  1  0  0  0  0
 40 38  1  0  0  0  0
 41 36  2  0  0  0  0
 42 41  1  0  0  0  0
 42 40  2  0  0  0  0
M  END
>  <MODEL>
6

>  <REMARK>
 VINA RESULT:      -8.3      2.698      5.817
  Name = 
  10 active torsions:
  status: ('A' for Active; 'I' for Inactive)
    1  A    between atoms: C_1  and  C_10
    2  A    between atoms: C_1  and  N_16
    3  A    between atoms: S_8  and  C_11
    4  A    between atoms: S_8  and  N_30
    5  A    between atoms: C_10  and  C_37
    6  A    between atoms: N_16  and  C_33
    7  A    between atoms: C_19  and  C_36
    8  A    between atoms: C_22  and  C_23
    9  A    between atoms: C_22  and  N_30
   10  A    between atoms: S_34  and  C_38
                            x       y       z     vdW  Elec       q    Type
                         _______ _______ _______ _____ _____    ______ ____

>  <TORSDO>
F 10

$$$$
=
 OpenBabel10232410583D

 42 47  0  0  1  0  0  0  0  0999 V2000
  185.1280  178.8320  140.3830 C   0  0  0  0  0  0  0  0  0  0  0  0
  184.2670  178.7480  143.1020 C   0  0  0  0  0  0  0  0  0  0  0  0
  183.2730  178.8050  142.0780 C   0  0  0  0  0  0  0  0  0  0  0  0
  185.6020  178.8950  138.9620 C   0  0  0  0  0  1  0  0  0  0  0  0
  186.0280  178.7740  141.4080 C   0  0  0  0  0  0  0  0  0  0  0  0
  182.2590  178.7270  144.0820 N   0  0  0  0  0  0  0  0  0  0  0  0
  183.6610  178.8410  140.6680 C   0  0  0  0  0  0  0  0  0  0  0  0
  182.0840  178.7880  142.6590 C   0  0  0  0  0  3  0  0  0  0  0  0
  182.5480  178.8290  139.4950 S   0  0  0  0  0  0  0  0  0  0  0  0
  183.5290  178.7010  144.3530 C   0  0  0  0  0  2  0  0  0  0  0  0
  185.5770  178.7290  142.8400 C   0  0  0  0  0  0  0  0  0  0  0  0
  181.6140  176.2380  139.5960 N   0  0  0  0  0  0  0  0  0  0  0  0
  183.2250  176.5280  138.0510 C   0  0  0  0  0  3  0  0  0  0  0  0
  182.7630  175.2270  138.0760 C   0  0  0  0  0  0  0  0  0  0  0  0
  181.7990  175.0720  139.0040 N   0  0  0  0  0  0  0  0  0  0  0  0
  182.4620  177.1190  139.0380 C   0  0  1  0  0  3  0  0  0  0  0  0
  184.4360  172.4240  135.4740 N   0  0  0  0  0  2  0  0  0  0  0  0
  184.3830  173.7800  134.9330 C   0  0  0  0  0  2  0  0  0  0  0  0
  185.1140  172.4560  136.7740 C   0  0  0  0  0  2  0  0  0  0  0  0
  184.5460  173.5310  137.7210 C   0  0  0  0  0  2  0  0  0  0  0  0
  183.4150  174.6470  135.7470 C   0  0  0  0  0  2  0  0  0  0  0  0
  183.2490  174.1370  137.1830 C   0  0  0  0  0  3  0  0  0  0  0  0
  186.5630  178.6510  143.9640 C   0  0  0  0  0  2  0  0  0  0  0  0
  186.7560  177.2130  144.4240 C   0  0  0  0  0  2  0  0  0  0  0  0
  188.0980  176.7430  144.0870 N   0  0  0  0  0  2  0  0  0  0  0  0
  190.1460  177.8820  143.5030 N   0  0  0  0  0  2  0  0  0  0  0  0
  191.2550  177.2740  145.5350 C   0  0  0  0  0  2  0  0  0  0  0  0
  189.7770  177.2880  145.8280 C   0  0  0  0  0  2  0  0  0  0  0  0
  191.4000  178.0190  144.2290 C   0  0  0  0  0  2  0  0  0  0  0  0
  189.1170  177.7030  144.5220 C   0  0  2  0  0  3  0  0  0  0  0  0
  187.5010  178.7960  141.1250 C   0  0  0  0  0  2  0  0  0  0  0  0
  187.9370  177.4810  140.6850 N   0  0  0  0  0  2  0  0  0  0  0  0
  189.0800  177.7000  139.4000 S   0  0  0  0  0  0  0  0  0  0  0  0
  188.9810  179.1070  138.8810 O   0  0  0  0  0  0  0  0  0  0  0  0
  190.4630  177.4650  139.9370 O   0  0  0  0  0  0  0  0  0  0  0  0
  189.3970  174.6400  136.7380 C   0  0  0  0  0  3  0  0  0  0  0  0
  190.9210  175.4120  138.4710 N   0  0  0  0  0  1  0  0  0  0  0  0
  188.7640  176.5510  138.1000 C   0  0  0  0  0  0  0  0  0  0  0  0
  189.6890  175.5420  137.7680 C   0  0  0  0  0  0  0  0  0  0  0  0
  187.5520  176.6280  137.4030 C   0  0  0  0  0  3  0  0  0  0  0  0
  188.1890  174.7320  136.0420 C   0  0  0  0  0  3  0  0  0  0  0  0
  187.2660  175.7250  136.3750 C   0  0  0  0  0  3  0  0  0  0  0  0
  1  7  2  0  0  0  0
  1  5  1  0  0  0  0
  2 10  1  0  0  0  0
  3  8  1  0  0  0  0
  3  2  2  0  0  0  0
  4  1  1  0  0  0  0
  5 11  2  0  0  0  0
  6 10  1  0  0  0  0
  7  3  1  0  0  0  0
  8  6  2  0  0  0  0
  9  7  1  0  0  0  0
 11  2  1  0  0  0  0
 11 23  1  0  0  0  0
 13 14  2  0  0  0  0
 13 16  1  0  0  0  0
 14 15  1  0  0  0  0
 15 12  2  0  0  0  0
 16  9  1  6  0  0  0
 16 12  1  0  0  0  0
 17 19  1  0  0  0  0
 18 17  1  0  0  0  0
 18 21  1  0  0  0  0
 19 20  1  0  0  0  0
 21 22  1  0  0  0  0
 22 20  1  0  0  0  0
 22 14  1  0  0  0  0
 23 24  1  0  0  0  0
 25 24  1  0  0  0  0
 26 29  1  0  0  0  0
 26 30  1  0  0  0  0
 27 28  1  0  0  0  0
 29 27  1  0  0  0  0
 30 25  1  6  0  0  0
 30 28  1  0  0  0  0
 31  5  1  0  0  0  0
 32 31  1  0  0  0  0
 33 35  2  0  0  0  0
 33 32  1  0  0  0  0
 34 33  2  0  0  0  0
 36 39  1  0  0  0  0
 38 33  1  0  0  0  0
 39 38  2  0  0  0  0
 39 37  1  0  0  0  0
 40 38  1  0  0  0  0
 41 42  1  0  0  0  0
 41 36  2  0  0  0  0
 42 40  2  0  0  0  0
M  END
>  <MODEL>
7

>  <REMARK>
 VINA RESULT:      -8.3      2.723      6.490
  Name = 
  10 active torsions:
  status: ('A' for Active; 'I' for Inactive)
    1  A    between atoms: C_1  and  C_10
    2  A    between atoms: C_1  and  N_16
    3  A    between atoms: S_8  and  C_11
    4  A    between atoms: S_8  and  N_30
    5  A    between atoms: C_10  and  C_37
    6  A    between atoms: N_16  and  C_33
    7  A    between atoms: C_19  and  C_36
    8  A    between atoms: C_22  and  C_23
    9  A    between atoms: C_22  and  N_30
   10  A    between atoms: S_34  and  C_38
                            x       y       z     vdW  Elec       q    Type
                         _______ _______ _______ _____ _____    ______ ____

>  <TORSDO>
F 10

$$$$
=
 OpenBabel10232410583D

 42 47  0  0  1  0  0  0  0  0999 V2000
  184.7610  178.7710  140.5090 C   0  0  0  0  0  0  0  0  0  0  0  0
  183.5510  178.8390  143.0920 C   0  0  0  0  0  0  0  0  0  0  0  0
  182.7000  178.8180  141.9450 C   0  0  0  0  0  0  0  0  0  0  0  0
  185.4170  178.7550  139.1600 C   0  0  0  0  0  1  0  0  0  0  0  0
  185.5180  178.7910  141.6430 C   0  0  0  0  0  0  0  0  0  0  0  0
  181.4320  178.8440  143.8010 N   0  0  0  0  0  0  0  0  0  0  0  0
  183.2690  178.7730  140.5980 C   0  0  0  0  0  0  0  0  0  0  0  0
  181.4450  178.8160  142.3650 C   0  0  0  0  0  3  0  0  0  0  0  0
  182.3200  178.6710  139.2930 S   0  0  0  0  0  0  0  0  0  0  0  0
  182.6550  178.8570  144.2360 C   0  0  0  0  0  2  0  0  0  0  0  0
  184.8840  178.8260  143.0040 C   0  0  0  0  0  0  0  0  0  0  0  0
  181.4550  176.0630  139.4990 N   0  0  0  0  0  0  0  0  0  0  0  0
  183.1450  176.3110  138.0320 C   0  0  0  0  0  3  0  0  0  0  0  0
  182.7190  175.0010  138.1100 C   0  0  0  0  0  0  0  0  0  0  0  0
  181.7070  174.8700  138.9900 N   0  0  0  0  0  2  0  0  0  0  0  0
  182.3090  176.9360  138.9370 C   0  0  0  0  0  0  0  0  0  0  0  0
  184.5380  172.1310  135.6850 N   0  0  0  0  0  2  0  0  0  0  0  0
  184.1000  173.3250  134.9670 C   0  0  0  0  0  2  0  0  0  0  0  0
  185.3890  172.5350  136.8090 C   0  0  0  0  0  2  0  0  0  0  0  0
  184.7540  173.6400  137.6750 C   0  0  0  0  0  2  0  0  0  0  0  0
  183.1060  174.1290  135.8130 C   0  0  0  0  0  2  0  0  0  0  0  0
  183.2870  173.8750  137.3140 C   0  0  0  0  0  3  0  0  0  0  0  0
  185.7150  178.8330  144.2500 C   0  0  0  0  0  2  0  0  0  0  0  0
  186.1790  177.4280  144.6060 C   0  0  0  0  0  2  0  0  0  0  0  0
  187.5540  177.4530  145.1030 N   0  0  0  0  0  2  0  0  0  0  0  0
  186.9950  178.2340  147.3190 N   0  0  0  0  0  2  0  0  0  0  0  0
  189.2040  177.8890  148.1740 C   0  0  0  0  0  2  0  0  0  0  0  0
  189.0190  176.9240  147.0320 C   0  0  0  0  0  2  0  0  0  0  0  0
  187.8100  178.3560  148.5200 C   0  0  0  0  0  2  0  0  0  0  0  0
  187.6000  177.1590  146.5390 C   0  0  2  0  0  3  0  0  0  0  0  0
  187.0160  178.8200  141.5540 C   0  0  0  0  0  2  0  0  0  0  0  0
  187.5340  177.4620  141.5290 N   0  0  0  0  0  2  0  0  0  0  0  0
  189.2150  177.5400  141.1130 S   0  0  0  0  0  0  0  0  0  0  0  0
  189.5940  176.3050  140.3440 O   0  0  0  0  0  0  0  0  0  0  0  0
  189.4460  178.7490  140.2520 O   0  0  0  0  0  0  0  0  0  0  0  0
  191.4200  176.6780  144.4210 C   0  0  0  0  0  3  0  0  0  0  0  0
  190.2800  175.2220  142.8390 N   0  0  0  0  0  1  0  0  0  0  0  0
  190.1990  177.6730  142.5710 C   0  0  0  0  0  0  0  0  0  0  0  0
  190.6290  176.5320  143.2760 C   0  0  0  0  0  0  0  0  0  0  0  0
  190.5860  178.9420  143.0170 C   0  0  0  0  0  3  0  0  0  0  0  0
  191.7910  177.9500  144.8640 C   0  0  0  0  0  3  0  0  0  0  0  0
  191.3760  179.0820  144.1610 C   0  0  0  0  0  3  0  0  0  0  0  0
  1  7  2  0  0  0  0
  1  5  1  0  0  0  0
  2 10  1  0  0  0  0
  3  8  1  0  0  0  0
  3  2  2  0  0  0  0
  4  1  1  0  0  0  0
  5 11  2  0  0  0  0
  6 10  1  0  0  0  0
  7  3  1  0  0  0  0
  8  6  2  0  0  0  0
  9  7  1  0  0  0  0
 11  2  1  0  0  0  0
 11 23  1  0  0  0  0
 13 14  2  0  0  0  0
 13 16  1  0  0  0  0
 14 15  1  0  0  0  0
 15 12  1  0  0  0  0
 16  9  1  0  0  0  0
 16 12  2  0  0  0  0
 17 19  1  0  0  0  0
 18 17  1  0  0  0  0
 18 21  1  0  0  0  0
 19 20  1  0  0  0  0
 21 22  1  0  0  0  0
 22 20  1  0  0  0  0
 22 14  1  0  0  0  0
 23 24  1  0  0  0  0
 24 25  1  0  0  0  0
 26 29  1  0  0  0  0
 27 29  1  0  0  0  0
 28 27  1  0  0  0  0
 30 25  1  6  0  0  0
 30 28  1  0  0  0  0
 30 26  1  0  0  0  0
 31  5  1  0  0  0  0
 32 31  1  0  0  0  0
 33 32  1  0  0  0  0
 33 38  1  0  0  0  0
 34 33  2  0  0  0  0
 35 33  2  0  0  0  0
 36 41  1  0  0  0  0
 37 39  1  0  0  0  0
 38 40  2  0  0  0  0
 38 39  1  0  0  0  0
 39 36  2  0  0  0  0
 40 42  1  0  0  0  0
 42 41  2  0  0  0  0
M  END
>  <MODEL>
8

>  <REMARK>
 VINA RESULT:      -8.3      2.882      5.360
  Name = 
  10 active torsions:
  status: ('A' for Active; 'I' for Inactive)
    1  A    between atoms: C_1  and  C_10
    2  A    between atoms: C_1  and  N_16
    3  A    between atoms: S_8  and  C_11
    4  A    between atoms: S_8  and  N_30
    5  A    between atoms: C_10  and  C_37
    6  A    between atoms: N_16  and  C_33
    7  A    between atoms: C_19  and  C_36
    8  A    between atoms: C_22  and  C_23
    9  A    between atoms: C_22  and  N_30
   10  A    between atoms: S_34  and  C_38
                            x       y       z     vdW  Elec       q    Type
                         _______ _______ _______ _____ _____    ______ ____

>  <TORSDO>
F 10

$$$$
=
 OpenBabel10232410583D

 42 47  0  0  1  0  0  0  0  0999 V2000
  188.4690  177.4800  137.3310 C   0  0  0  0  0  0  0  0  0  0  0  0
  187.6440  174.7580  137.1100 C   0  0  0  0  0  0  0  0  0  0  0  0
  189.0430  175.0460  137.0890 C   0  0  1  0  0  3  0  0  0  0  0  0
  188.8810  178.9190  137.4290 C   0  0  0  0  0  1  0  0  0  0  0  0
  187.1480  177.1390  137.3470 C   0  0  0  0  0  0  0  0  0  0  0  0
  188.7480  172.8250  136.9200 N   0  0  0  0  0  0  0  0  0  0  0  0
  189.5190  176.4250  137.2080 C   0  0  0  0  0  0  0  0  0  0  0  0
  189.6960  173.9010  136.9810 C   0  0  0  0  0  3  0  0  0  0  0  0
  191.1000  176.7600  137.2620 S   0  0  0  0  0  0  0  0  0  0  0  0
  187.5470  173.3130  136.9960 C   0  0  0  0  0  3  0  0  0  0  0  0
  186.7110  175.7070  137.2310 C   0  0  0  0  0  0  0  0  0  0  0  0
  192.6080  177.2710  139.5110 N   0  0  0  0  0  0  0  0  0  0  0  0
  190.4930  176.6710  139.9940 C   0  0  0  0  0  3  0  0  0  0  0  0
  191.2270  176.9350  141.1330 C   0  0  0  0  0  0  0  0  0  0  0  0
  192.4880  177.2940  140.8270 N   0  0  0  0  0  2  0  0  0  0  0  0
  191.4230  176.8980  138.9990 C   0  0  0  0  0  0  0  0  0  0  0  0
  189.6190  177.0980  144.9820 N   0  0  0  0  0  2  0  0  0  0  0  0
  190.4350  178.2570  144.6290 C   0  0  0  0  0  2  0  0  0  0  0  0
  188.5910  176.9080  143.9530 C   0  0  0  0  0  2  0  0  0  0  0  0
  189.1650  176.9100  142.5240 C   0  0  0  0  0  2  0  0  0  0  0  0
  191.3020  177.9520  143.4020 C   0  0  0  0  0  2  0  0  0  0  0  0
  190.6930  176.8530  142.5230 C   0  0  0  0  0  3  0  0  0  0  0  0
  185.2620  175.3300  137.2630 C   0  0  0  0  0  2  0  0  0  0  0  0
  184.7260  175.1000  135.8570 C   0  0  0  0  0  2  0  0  0  0  0  0
  183.5930  174.1770  135.8860 N   0  0  0  0  0  2  0  0  0  0  0  0
  183.1880  172.1910  134.5720 N   0  0  0  0  0  2  0  0  0  0  0  0
  183.1630  170.7400  136.4750 C   0  0  0  0  0  2  0  0  0  0  0  0
  184.0150  171.9270  136.8390 C   0  0  0  0  0  2  0  0  0  0  0  0
  183.0320  170.8000  134.9720 C   0  0  0  0  0  2  0  0  0  0  0  0
  184.0250  172.8050  135.5970 C   0  0  2  0  0  3  0  0  0  0  0  0
  186.0920  178.2010  137.4390 C   0  0  0  0  0  2  0  0  0  0  0  0
  186.0980  178.7860  138.7700 N   0  0  0  0  0  2  0  0  0  0  0  0
  184.4510  178.9730  139.2780 S   0  0  0  0  0  0  0  0  0  0  0  0
  183.9480  180.3220  138.8480 O   0  0  0  0  0  0  0  0  0  0  0  0
  183.6190  177.9040  138.6280 O   0  0  0  0  0  0  0  0  0  0  0  0
  183.0330  178.7310  143.0830 C   0  0  0  0  0  3  0  0  0  0  0  0
  181.8800  179.0830  140.9690 N   0  0  0  0  0  1  0  0  0  0  0  0
  184.3310  178.8110  141.0300 C   0  0  0  0  0  0  0  0  0  0  0  0
  183.0900  178.8780  141.6930 C   0  0  0  0  0  0  0  0  0  0  0  0
  185.4950  178.5810  141.7740 C   0  0  0  0  0  3  0  0  0  0  0  0
  184.2020  178.5130  143.8170 C   0  0  0  0  0  3  0  0  0  0  0  0
  185.4330  178.4360  143.1620 C   0  0  0  0  0  3  0  0  0  0  0  0
  1  5  1  0  0  0  0
  1  4  1  0  0  0  0
  2 11  1  0  0  0  0
  3  8  1  1  0  0  0
  3  2  1  0  0  0  0
  3  7  1  0  0  0  0
  5 31  1  0  0  0  0
  6  8  2  0  0  0  0
  6 10  1  0  0  0  0
  7  9  1  0  0  0  0
  7  1  2  0  0  0  0
  9 16  1  0  0  0  0
 10  2  2  0  0  0  0
 11 23  1  0  0  0  0
 11  5  2  0  0  0  0
 12 15  1  0  0  0  0
 13 14  2  0  0  0  0
 14 22  1  0  0  0  0
 15 14  1  0  0  0  0
 16 12  2  0  0  0  0
 16 13  1  0  0  0  0
 18 17  1  0  0  0  0
 19 17  1  0  0  0  0
 20 19  1  0  0  0  0
 21 18  1  0  0  0  0
 22 20  1  0  0  0  0
 22 21  1  0  0  0  0
 24 25  1  0  0  0  0
 24 23  1  0  0  0  0
 26 29  1  0  0  0  0
 26 30  1  0  0  0  0
 27 28  1  0  0  0  0
 29 27  1  0  0  0  0
 30 25  1  1  0  0  0
 30 28  1  0  0  0  0
 31 32  1  0  0  0  0
 32 33  1  0  0  0  0
 33 38  1  0  0  0  0
 34 33  2  0  0  0  0
 35 33  2  0  0  0  0
 36 41  1  0  0  0  0
 37 39  1  0  0  0  0
 38 39  1  0  0  0  0
 38 40  2  0  0  0  0
 39 36  2  0  0  0  0
 40 42  1  0  0  0  0
 42 41  2  0  0  0  0
M  END
>  <MODEL>
9

>  <REMARK>
 VINA RESULT:      -8.2      3.084      7.797
  Name = 
  10 active torsions:
  status: ('A' for Active; 'I' for Inactive)
    1  A    between atoms: C_1  and  C_10
    2  A    between atoms: C_1  and  N_16
    3  A    between atoms: S_8  and  C_11
    4  A    between atoms: S_8  and  N_30
    5  A    between atoms: C_10  and  C_37
    6  A    between atoms: N_16  and  C_33
    7  A    between atoms: C_19  and  C_36
    8  A    between atoms: C_22  and  C_23
    9  A    between atoms: C_22  and  N_30
   10  A    between atoms: S_34  and  C_38
                            x       y       z     vdW  Elec       q    Type
                         _______ _______ _______ _____ _____    ______ ____

>  <TORSDO>
F 10

$$$$
