=
 OpenBabel10222422123D

 70 75  0  0  1  0  0  0  0  0999 V2000
  191.6020  175.4660  138.0880 C   0  0  2  0  0  3  0  0  0  0  0  0
  192.6380  174.6210  135.4970 S   0  0  0  0  0  0  0  0  0  0  0  0
  192.7030  175.5090  137.0490 C   0  0  1  0  0  3  0  0  0  0  0  0
  194.6740  176.3230  136.0200 C   0  0  1  0  0  3  0  0  0  0  0  0
  193.8850  175.7740  134.8390 C   0  0  0  0  0  2  0  0  0  0  0  0
  193.7390  176.3320  137.1830 C   0  0  0  0  0  2  0  0  0  0  0  0
  197.0730  175.6130  135.6580 C   0  0  0  0  0  0  0  0  0  0  0  0
  195.8030  175.4540  136.2800 N   0  0  0  0  0  2  0  0  0  0  0  0
  197.3200  176.6290  134.9490 O   0  0  0  0  0  0  0  0  0  0  0  0
  199.5270  175.0670  135.7070 C   0  0  0  0  0  1  0  0  0  0  0  0
  198.1090  174.5490  135.8560 C   0  0  2  0  0  3  0  0  0  0  0  0
  197.8030  173.2780  135.0520 C   0  0  0  0  0  2  0  0  0  0  0  0
  196.7210  172.3380  135.6280 C   0  0  2  0  0  3  0  0  0  0  0  0
  195.3960  172.8140  135.6340 O   0  0  0  0  0  1  0  0  0  0  0  0
  196.1080  171.4440  137.9130 C   0  0  0  0  0  1  0  0  0  0  0  0
  197.0950  171.3710  136.7660 C   0  0  1  0  0  3  0  0  0  0  0  0
  197.3290  169.8750  136.3970 C   0  0  1  0  0  3  0  0  0  0  0  0
  198.7760  169.4050  136.6240 C   0  0  0  0  0  1  0  0  0  0  0  0
  196.4410  169.0750  137.1500 O   0  0  0  0  0  0  0  0  0  0  0  0
  195.8220  168.8640  134.9310 O   0  0  0  0  0  1  0  0  0  0  0  0
  195.5620  168.4450  136.2370 C   0  0  2  0  0  3  0  0  0  0  0  0
  194.1140  168.7760  136.6100 C   0  0  0  0  0  2  0  0  0  0  0  0
  193.0360  168.7510  134.3490 O   0  0  0  0  0  0  0  0  0  0  0  0
  193.0490  170.6580  135.6280 O   0  0  0  0  0  1  0  0  0  0  0  0
  193.3930  169.4500  135.4920 C   0  0  0  0  0  0  0  0  0  0  0  0
  189.7600  175.4120  136.4440 C   0  0  0  0  0  3  0  0  0  0  0  0
  190.2910  175.0410  137.5720 N   0  0  0  0  0  0  0  0  0  0  0  0
  183.2830  176.2270  135.2230 C   0  0  0  0  0  0  0  0  0  0  0  0
  183.8700  177.1020  136.2540 C   0  0  0  0  0  0  0  0  0  0  0  0
  185.1070  174.6000  135.6710 C   0  0  2  0  0  3  0  0  0  0  0  0
  185.0060  178.2840  138.5330 C   0  0  0  0  0  3  0  0  0  0  0  0
  187.3380  176.7360  138.1880 S   0  0  0  0  0  0  0  0  0  0  0  0
  188.3420  175.1880  136.0860 C   0  0  0  0  0  2  0  0  0  0  0  0
  185.2060  176.8810  136.5930 C   0  0  0  0  0  0  0  0  0  0  0  0
  183.6770  178.5810  138.1650 C   0  0  0  0  0  3  0  0  0  0  0  0
  183.1060  177.9940  137.0210 C   0  0  0  0  0  3  0  0  0  0  0  0
  186.0050  175.8270  135.9060 C   0  0  1  0  0  3  0  0  0  0  0  0
  182.2660  176.5710  134.5760 O   0  0  0  0  0  0  0  0  0  0  0  0
  187.2560  175.6730  136.7140 C   0  0  2  0  0  3  0  0  0  0  0  0
  183.9720  175.0340  134.8840 O   0  0  0  0  0  0  0  0  0  0  0  0
  185.7660  177.4340  137.7290 C   0  0  0  0  0  0  0  0  0  0  0  0
  184.6530  174.0990  136.9040 O   0  0  0  0  0  0  0  0  0  0  0  0
  184.9080  172.7250  136.8950 C   0  0  1  0  0  3  0  0  0  0  0  0
  183.6280  172.0090  136.4670 C   0  0  0  0  0  2  0  0  0  0  0  0
  182.4270  172.5610  137.2300 C   0  0  0  0  0  2  0  0  0  0  0  0
  181.1520  172.2150  136.4880 C   0  0  0  0  0  1  0  0  0  0  0  0
  185.9420  172.4550  135.9970 O   0  0  0  0  0  0  0  0  0  0  0  0
  185.6490  171.2140  135.4180 C   0  0  0  0  0  2  0  0  0  0  0  0
  187.8460  171.3230  134.4610 O   0  0  0  0  0  1  0  0  0  0  0  0
  186.9410  170.4790  135.1120 C   0  0  0  0  0  2  0  0  0  0  0  0
  191.4470  176.7840  138.7360 N   0  0  0  0  0  2  0  0  0  0  0  0
  190.5530  176.7800  140.9140 O   0  0  0  0  0  0  0  0  0  0  0  0
  192.3190  177.9100  142.0310 C   0  0  0  0  0  2  0  0  0  0  0  0
  191.7320  176.6540  140.1700 C   0  0  2  0  0  3  0  0  0  0  0  0
  190.8460  177.6250  141.9980 C   0  0  2  0  0  3  0  0  0  0  0  0
  192.7010  177.7250  140.6110 C   0  0  0  0  0  2  0  0  0  0  0  0
  190.3250  176.9860  143.2710 C   0  0  0  0  0  2  0  0  0  0  0  0
  188.9480  177.3180  143.5250 N   0  0  0  0  0  0  0  0  0  0  0  0
  188.0090  176.4410  143.4520 C   0  0  0  0  0  3  0  0  0  0  0  0
  184.8050  179.1740  144.3190 C   0  0  2  0  0  3  0  0  0  0  0  0
  184.7870  178.3630  143.0220 C   0  0  2  0  0  3  0  0  0  0  0  0
  187.0150  176.8350  146.1190 O   0  0  0  0  0  0  0  0  0  0  0  0
  186.1630  177.8310  142.6970 C   0  0  0  0  0  2  0  0  0  0  0  0
  186.5970  176.8280  143.7560 C   0  0  2  0  0  3  0  0  0  0  0  0
  185.6270  178.5590  145.3790 N   0  0  0  0  0  0  0  0  0  0  0  0
  185.7640  179.2580  146.6490 C   0  0  0  0  0  1  0  0  0  0  0  0
  186.4530  177.4010  145.1400 C   0  0  0  0  0  0  0  0  0  0  0  0
  184.3310  179.1610  141.9630 O   0  0  0  0  0  1  0  0  0  0  0  0
  182.4800  178.7340  143.9190 O   0  0  0  0  0  1  0  0  0  0  0  0
  183.3700  179.3640  144.8000 C   0  0  0  0  0  2  0  0  0  0  0  0
  1 27  1  6  0  0  0
  1 51  1  0  0  0  0
  2  3  1  0  0  0  0
  3  6  1  0  0  0  0
  3  1  1  6  0  0  0
  4  8  1  1  0  0  0
  4  6  1  0  0  0  0
  5  2  1  0  0  0  0
  5  4  1  0  0  0  0
  7 11  1  0  0  0  0
  7  8  1  0  0  0  0
  9  7  2  0  0  0  0
 11 10  1  6  0  0  0
 12 13  1  0  0  0  0
 12 11  1  0  0  0  0
 13 14  1  1  0  0  0
 13 16  1  0  0  0  0
 16 15  1  1  0  0  0
 17 18  1  1  0  0  0
 17 16  1  0  0  0  0
 17 19  1  0  0  0  0
 21 20  1  6  0  0  0
 21 22  1  0  0  0  0
 21 19  1  0  0  0  0
 23 25  2  0  0  0  0
 25 24  1  0  0  0  0
 25 22  1  0  0  0  0
 26 27  2  0  0  0  0
 28 29  1  0  0  0  0
 29 34  2  0  0  0  0
 29 36  1  0  0  0  0
 30 37  1  0  0  0  0
 30 42  1  1  0  0  0
 33 26  1  0  0  0  0
 34 41  1  0  0  0  0
 35 31  1  0  0  0  0
 36 35  2  0  0  0  0
 37 34  1  1  0  0  0
 37 39  1  0  0  0  0
 38 28  2  0  0  0  0
 39 33  1  6  0  0  0
 39 32  1  0  0  0  0
 40 28  1  0  0  0  0
 40 30  1  0  0  0  0
 41 32  1  0  0  0  0
 41 31  2  0  0  0  0
 43 44  1  6  0  0  0
 43 42  1  0  0  0  0
 44 45  1  0  0  0  0
 46 45  1  0  0  0  0
 47 43  1  0  0  0  0
 48 47  1  0  0  0  0
 49 50  1  0  0  0  0
 50 48  1  0  0  0  0
 52 55  1  0  0  0  0
 54 51  1  6  0  0  0
 54 56  1  0  0  0  0
 54 52  1  0  0  0  0
 55 53  1  0  0  0  0
 55 57  1  1  0  0  0
 56 53  1  0  0  0  0
 57 58  1  0  0  0  0
 59 58  2  0  0  0  0
 60 70  1  1  0  0  0
 60 65  1  0  0  0  0
 61 68  1  6  0  0  0
 61 60  1  0  0  0  0
 63 61  1  0  0  0  0
 63 64  1  0  0  0  0
 64 59  1  6  0  0  0
 64 67  1  0  0  0  0
 65 66  1  0  0  0  0
 67 65  1  0  0  0  0
 67 62  2  0  0  0  0
 69 70  1  0  0  0  0
M  END
>  <MODEL>
1

>  <REMARK>
 VINA RESULT:      -5.0      0.000      0.000
  Name = 
  26 active torsions:
  status: ('A' for Active; 'I' for Inactive)
    1  A    between atoms: C_1  and  C_28
    2  A    between atoms: C_1  and  C_69
    3  A    between atoms: C_2  and  O_10
    4  A    between atoms: C_2  and  C_39
    5  A    between atoms: C_2  and  O_59
    6  A    between atoms: N_4  and  C_18
    7  A    between atoms: C_6  and  C_39
    8  A    between atoms: O_10  and  C_29
    9  A    between atoms: C_11  and  C_29
   10  A    between atoms: C_12  and  O_24
   11  A    between atoms: C_12  and  C_28
   12  A    between atoms: C_13  and  C_67
   13  A    between atoms: C_15  and  C_35
   14  A    between atoms: N_16  and  C_44
   15  A    between atoms: N_16  and  C_54
   16  A    between atoms: C_17  and  C_26
   17  A    between atoms: C_18  and  C_47
   18  A    between atoms: C_20  and  O_59
   19  A    between atoms: O_24  and  C_65
   20  A    between atoms: C_26  and  C_69
   21  A    between atoms: N_30  and  C_54
   22  A    between atoms: C_31  and  C_54
   23  A    between atoms: C_37  and  N_55
   24  A    between atoms: C_38  and  C_49
   25  A    between atoms: C_38  and  C_65
   26  A    between atoms: C_48  and  C_64
                            x       y       z     vdW  Elec       q    Type
                         _______ _______ _______ _____ _____    ______ ____

>  <TORSDO>
F 26

$$$$
=
 OpenBabel10222422123D

 70 75  0  0  1  0  0  0  0  0999 V2000
  188.4140  176.8440  137.9160 C   0  0  2  0  0  3  0  0  0  0  0  0
  187.0480  178.3570  135.8320 S   0  0  0  0  0  0  0  0  0  0  0  0
  187.2190  177.0140  137.0010 C   0  0  1  0  0  3  0  0  0  0  0  0
  185.2280  176.3570  135.9000 C   0  0  1  0  0  3  0  0  0  0  0  0
  185.8420  177.3450  134.9170 C   0  0  0  0  0  2  0  0  0  0  0  0
  186.2760  176.0790  136.9260 C   0  0  0  0  0  2  0  0  0  0  0  0
  182.7460  176.4450  136.3620 C   0  0  0  0  0  0  0  0  0  0  0  0
  184.0630  176.9600  136.5120 N   0  0  0  0  0  2  0  0  0  0  0  0
  182.5490  175.3310  135.7980 O   0  0  0  0  0  0  0  0  0  0  0  0
  181.7750  178.7430  136.6780 C   0  0  0  0  0  1  0  0  0  0  0  0
  181.5940  177.2510  136.8810 C   0  0  2  0  0  3  0  0  0  0  0  0
  181.1880  176.8420  138.3040 C   0  0  0  0  0  2  0  0  0  0  0  0
  182.2490  177.0330  139.4100 C   0  0  2  0  0  3  0  0  0  0  0  0
  182.6030  175.8960  140.1610 O   0  0  0  0  0  1  0  0  0  0  0  0
  183.6350  179.0990  139.8660 C   0  0  0  0  0  1  0  0  0  0  0  0
  182.3310  178.3810  140.1480 C   0  0  1  0  0  3  0  0  0  0  0  0
  181.1530  179.3830  139.9570 C   0  0  1  0  0  3  0  0  0  0  0  0
  179.9950  179.1660  140.9470 C   0  0  0  0  0  1  0  0  0  0  0  0
  181.6490  180.7000  140.0800 O   0  0  0  0  0  0  0  0  0  0  0  0
  180.0050  180.7460  138.4520 O   0  0  0  0  0  1  0  0  0  0  0  0
  180.9380  181.5070  139.1590 C   0  0  2  0  0  3  0  0  0  0  0  0
  181.9230  182.1590  138.1840 C   0  0  0  0  0  2  0  0  0  0  0  0
  181.2010  184.5130  137.7230 O   0  0  0  0  0  1  0  0  0  0  0  0
  180.8080  182.8390  136.2000 O   0  0  0  0  0  0  0  0  0  0  0  0
  181.2600  183.1840  137.3280 C   0  0  0  0  0  0  0  0  0  0  0  0
  188.6000  178.1860  139.9810 C   0  0  0  0  0  3  0  0  0  0  0  0
  188.1490  177.1540  139.3300 N   0  0  0  0  0  0  0  0  0  0  0  0
  190.1130  178.2340  146.4480 C   0  0  0  0  0  0  0  0  0  0  0  0
  190.8150  177.2380  145.6190 C   0  0  0  0  0  0  0  0  0  0  0  0
  188.2920  178.2480  144.7570 C   0  0  2  0  0  3  0  0  0  0  0  0
  191.6370  175.0790  144.0240 C   0  0  0  0  0  3  0  0  0  0  0  0
  189.9350  175.9490  141.9490 S   0  0  0  0  0  0  0  0  0  0  0  0
  188.5430  178.3230  141.4530 C   0  0  0  0  0  2  0  0  0  0  0  0
  190.4410  177.1470  144.2770 C   0  0  0  0  0  0  0  0  0  0  0  0
  192.0880  175.1920  145.3550 C   0  0  0  0  0  3  0  0  0  0  0  0
  191.6820  176.2750  146.1560 C   0  0  0  0  0  3  0  0  0  0  0  0
  189.4020  178.0530  143.7090 C   0  0  1  0  0  3  0  0  0  0  0  0
  190.6140  178.6680  147.5120 O   0  0  0  0  0  0  0  0  0  0  0  0
  189.0510  177.4810  142.3710 C   0  0  2  0  0  3  0  0  0  0  0  0
  188.9070  178.7920  145.9490 O   0  0  0  0  0  0  0  0  0  0  0  0
  190.8160  176.0730  143.4920 C   0  0  0  0  0  0  0  0  0  0  0  0
  187.7020  177.0090  145.0630 O   0  0  0  0  0  0  0  0  0  0  0  0
  186.4060  177.2830  145.5080 C   0  0  1  0  0  3  0  0  0  0  0  0
  186.5020  177.8780  146.9110 C   0  0  0  0  0  2  0  0  0  0  0  0
  187.2780  176.9430  147.8350 C   0  0  0  0  0  2  0  0  0  0  0  0
  187.7310  177.7060  149.0630 C   0  0  0  0  0  1  0  0  0  0  0  0
  185.8010  178.1880  144.6330 O   0  0  0  0  0  0  0  0  0  0  0  0
  184.5980  178.5760  145.2360 C   0  0  0  0  0  2  0  0  0  0  0  0
  183.1740  178.5150  143.3060 O   0  0  0  0  0  1  0  0  0  0  0  0
  183.7650  179.3670  144.2440 C   0  0  0  0  0  2  0  0  0  0  0  0
  189.5430  177.6780  137.4570 N   0  0  0  0  0  2  0  0  0  0  0  0
  190.2120  175.4690  136.9920 O   0  0  0  0  0  0  0  0  0  0  0  0
  192.4580  175.6040  137.7570 C   0  0  0  0  0  2  0  0  0  0  0  0
  190.6270  176.8060  136.9880 C   0  0  2  0  0  3  0  0  0  0  0  0
  191.2620  174.7210  137.5520 C   0  0  2  0  0  3  0  0  0  0  0  0
  191.8340  176.9430  137.8870 C   0  0  0  0  0  2  0  0  0  0  0  0
  191.5390  173.5250  136.6610 C   0  0  0  0  0  2  0  0  0  0  0  0
  192.9330  173.4080  136.3210 N   0  0  0  0  0  0  0  0  0  0  0  0
  193.5160  172.2650  136.2160 C   0  0  0  0  0  3  0  0  0  0  0  0
  197.7360  171.8390  136.9240 C   0  0  2  0  0  3  0  0  0  0  0  0
  196.9900  170.7870  136.1000 C   0  0  2  0  0  3  0  0  0  0  0  0
  195.2900  174.5240  136.2910 O   0  0  0  0  0  0  0  0  0  0  0  0
  195.5010  170.8660  136.3430 C   0  0  0  0  0  2  0  0  0  0  0  0
  194.9590  172.1930  135.8300 C   0  0  2  0  0  3  0  0  0  0  0  0
  197.0610  173.1510  136.9430 N   0  0  0  0  0  0  0  0  0  0  0  0
  197.6460  174.2260  137.7320 C   0  0  0  0  0  1  0  0  0  0  0  0
  195.7490  173.3510  136.3760 C   0  0  0  0  0  0  0  0  0  0  0  0
  197.4510  169.5040  136.4280 O   0  0  0  0  0  1  0  0  0  0  0  0
  199.9600  170.9420  136.8700 O   0  0  0  0  0  1  0  0  0  0  0  0
  199.1530  171.9770  136.3780 C   0  0  0  0  0  2  0  0  0  0  0  0
  1 51  1  6  0  0  0
  1 27  1  0  0  0  0
  2  3  1  0  0  0  0
  3  1  1  6  0  0  0
  4  8  1  1  0  0  0
  4  6  1  0  0  0  0
  5  2  1  0  0  0  0
  5  4  1  0  0  0  0
  6  3  1  0  0  0  0
  7  8  1  0  0  0  0
  7 11  1  0  0  0  0
  9  7  2  0  0  0  0
 11 10  1  1  0  0  0
 11 12  1  0  0  0  0
 12 13  1  0  0  0  0
 13 16  1  0  0  0  0
 13 14  1  1  0  0  0
 16 15  1  6  0  0  0
 17 19  1  0  0  0  0
 17 16  1  0  0  0  0
 17 18  1  1  0  0  0
 21 20  1  6  0  0  0
 21 19  1  0  0  0  0
 22 21  1  0  0  0  0
 24 25  2  0  0  0  0
 25 23  1  0  0  0  0
 25 22  1  0  0  0  0
 26 33  1  0  0  0  0
 27 26  2  0  0  0  0
 28 38  2  0  0  0  0
 29 36  1  0  0  0  0
 29 28  1  0  0  0  0
 30 42  1  1  0  0  0
 30 40  1  0  0  0  0
 31 35  1  0  0  0  0
 32 39  1  0  0  0  0
 32 41  1  0  0  0  0
 34 29  2  0  0  0  0
 35 36  2  0  0  0  0
 37 34  1  1  0  0  0
 37 30  1  0  0  0  0
 39 33  1  6  0  0  0
 39 37  1  0  0  0  0
 40 28  1  0  0  0  0
 41 31  2  0  0  0  0
 41 34  1  0  0  0  0
 42 43  1  0  0  0  0
 43 44  1  1  0  0  0
 44 45  1  0  0  0  0
 45 46  1  0  0  0  0
 47 48  1  0  0  0  0
 47 43  1  0  0  0  0
 49 50  1  0  0  0  0
 50 48  1  0  0  0  0
 52 55  1  0  0  0  0
 53 56  1  0  0  0  0
 54 52  1  0  0  0  0
 54 51  1  1  0  0  0
 54 56  1  0  0  0  0
 55 57  1  6  0  0  0
 55 53  1  0  0  0  0
 58 57  1  0  0  0  0
 59 58  2  0  0  0  0
 60 70  1  6  0  0  0
 60 65  1  0  0  0  0
 61 63  1  0  0  0  0
 61 68  1  1  0  0  0
 61 60  1  0  0  0  0
 62 67  2  0  0  0  0
 64 59  1  1  0  0  0
 64 63  1  0  0  0  0
 64 67  1  0  0  0  0
 65 66  1  0  0  0  0
 67 65  1  0  0  0  0
 70 69  1  0  0  0  0
M  END
>  <MODEL>
2

>  <REMARK>
 VINA RESULT:      -4.6      2.967     13.117
  Name = 
  26 active torsions:
  status: ('A' for Active; 'I' for Inactive)
    1  A    between atoms: C_1  and  C_28
    2  A    between atoms: C_1  and  C_69
    3  A    between atoms: C_2  and  O_10
    4  A    between atoms: C_2  and  C_39
    5  A    between atoms: C_2  and  O_59
    6  A    between atoms: N_4  and  C_18
    7  A    between atoms: C_6  and  C_39
    8  A    between atoms: O_10  and  C_29
    9  A    between atoms: C_11  and  C_29
   10  A    between atoms: C_12  and  O_24
   11  A    between atoms: C_12  and  C_28
   12  A    between atoms: C_13  and  C_67
   13  A    between atoms: C_15  and  C_35
   14  A    between atoms: N_16  and  C_44
   15  A    between atoms: N_16  and  C_54
   16  A    between atoms: C_17  and  C_26
   17  A    between atoms: C_18  and  C_47
   18  A    between atoms: C_20  and  O_59
   19  A    between atoms: O_24  and  C_65
   20  A    between atoms: C_26  and  C_69
   21  A    between atoms: N_30  and  C_54
   22  A    between atoms: C_31  and  C_54
   23  A    between atoms: C_37  and  N_55
   24  A    between atoms: C_38  and  C_49
   25  A    between atoms: C_38  and  C_65
   26  A    between atoms: C_48  and  C_64
                            x       y       z     vdW  Elec       q    Type
                         _______ _______ _______ _____ _____    ______ ____

>  <TORSDO>
F 26

$$$$
=
 OpenBabel10222422123D

 70 75  0  0  1  0  0  0  0  0999 V2000
  191.5400  175.7050  138.4210 C   0  0  2  0  0  3  0  0  0  0  0  0
  192.4680  174.7780  135.8170 S   0  0  0  0  0  0  0  0  0  0  0  0
  192.6180  175.6750  137.3580 C   0  0  1  0  0  3  0  0  0  0  0  0
  194.6110  176.3630  136.2790 C   0  0  1  0  0  3  0  0  0  0  0  0
  193.7650  175.8500  135.1200 C   0  0  0  0  0  2  0  0  0  0  0  0
  193.7030  176.4370  137.4610 C   0  0  0  0  0  2  0  0  0  0  0  0
  196.9070  175.4330  135.7840 C   0  0  0  0  0  0  0  0  0  0  0  0
  195.6920  175.4330  136.5230 N   0  0  0  0  0  2  0  0  0  0  0  0
  197.1620  176.3580  134.9620 O   0  0  0  0  0  0  0  0  0  0  0  0
  199.3110  174.6980  135.6800 C   0  0  0  0  0  1  0  0  0  0  0  0
  197.8780  174.3100  135.9930 C   0  0  2  0  0  3  0  0  0  0  0  0
  197.4090  173.0020  135.3390 C   0  0  0  0  0  2  0  0  0  0  0  0
  196.2020  172.2950  135.9920 C   0  0  2  0  0  3  0  0  0  0  0  0
  194.9200  172.7430  135.6230 O   0  0  0  0  0  1  0  0  0  0  0  0
  195.2080  172.2190  138.3170 C   0  0  0  0  0  1  0  0  0  0  0  0
  196.3380  171.7460  137.4250 C   0  0  1  0  0  3  0  0  0  0  0  0
  196.5070  170.2070  137.5980 C   0  0  1  0  0  3  0  0  0  0  0  0
  195.3140  169.5340  138.2990 C   0  0  0  0  0  1  0  0  0  0  0  0
  196.7090  169.6240  136.3280 O   0  0  0  0  0  0  0  0  0  0  0  0
  197.8140  168.2940  137.8640 O   0  0  0  0  0  1  0  0  0  0  0  0
  197.5260  168.4830  136.5120 C   0  0  2  0  0  3  0  0  0  0  0  0
  198.8280  168.6540  135.7220 C   0  0  0  0  0  2  0  0  0  0  0  0
  199.9520  169.7810  137.6560 O   0  0  0  0  0  1  0  0  0  0  0  0
  200.2320  170.5580  135.5140 O   0  0  0  0  0  0  0  0  0  0  0  0
  199.6870  169.7290  136.2960 C   0  0  0  0  0  0  0  0  0  0  0  0
  189.6710  175.7710  136.8080 C   0  0  0  0  0  3  0  0  0  0  0  0
  190.1920  175.3770  137.9330 N   0  0  0  0  0  0  0  0  0  0  0  0
  183.2430  177.0550  135.7390 C   0  0  0  0  0  0  0  0  0  0  0  0
  183.9100  177.8670  136.7720 C   0  0  0  0  0  0  0  0  0  0  0  0
  184.9580  175.2970  136.1200 C   0  0  2  0  0  3  0  0  0  0  0  0
  185.1710  178.9250  139.0460 C   0  0  0  0  0  3  0  0  0  0  0  0
  187.3820  177.2270  138.6250 S   0  0  0  0  0  0  0  0  0  0  0  0
  188.2350  175.6520  136.4760 C   0  0  0  0  0  2  0  0  0  0  0  0
  185.2340  177.5490  137.0790 C   0  0  0  0  0  0  0  0  0  0  0  0
  183.8590  179.3210  138.7110 C   0  0  0  0  0  3  0  0  0  0  0  0
  183.2250  178.7960  137.5700 C   0  0  0  0  0  3  0  0  0  0  0  0
  185.9440  176.4550  136.3570 C   0  0  1  0  0  3  0  0  0  0  0  0
  182.2400  177.4800  135.1200 O   0  0  0  0  0  0  0  0  0  0  0  0
  187.1970  176.2000  137.1350 C   0  0  2  0  0  3  0  0  0  0  0  0
  183.8410  175.8230  135.3650 O   0  0  0  0  0  0  0  0  0  0  0  0
  185.8540  178.0400  138.2120 C   0  0  0  0  0  0  0  0  0  0  0  0
  184.4950  174.8060  137.3530 O   0  0  0  0  0  0  0  0  0  0  0  0
  183.5060  173.8640  137.0620 C   0  0  1  0  0  3  0  0  0  0  0  0
  184.1880  172.5180  136.8250 C   0  0  0  0  0  2  0  0  0  0  0  0
  184.0390  172.0930  135.3670 C   0  0  0  0  0  2  0  0  0  0  0  0
  183.1070  170.9020  135.2790 C   0  0  0  0  0  1  0  0  0  0  0  0
  182.6190  173.7800  138.1370 O   0  0  0  0  0  0  0  0  0  0  0  0
  182.2150  175.0920  138.4180 C   0  0  0  0  0  2  0  0  0  0  0  0
  179.9920  174.2770  138.0330 O   0  0  0  0  0  1  0  0  0  0  0  0
  180.8560  175.3490  137.7920 C   0  0  0  0  0  2  0  0  0  0  0  0
  191.4920  177.0290  139.0740 N   0  0  0  0  0  2  0  0  0  0  0  0
  190.5820  177.0000  141.2450 O   0  0  0  0  0  0  0  0  0  0  0  0
  192.3560  178.0840  142.3950 C   0  0  0  0  0  2  0  0  0  0  0  0
  191.7650  176.8690  140.5080 C   0  0  2  0  0  3  0  0  0  0  0  0
  190.8800  177.8210  142.3470 C   0  0  2  0  0  3  0  0  0  0  0  0
  192.7460  177.9190  140.9750 C   0  0  0  0  0  2  0  0  0  0  0  0
  190.3390  177.1680  143.6040 C   0  0  0  0  0  2  0  0  0  0  0  0
  188.9490  177.4710  143.8240 N   0  0  0  0  0  0  0  0  0  0  0  0
  188.0310  176.5740  143.7220 C   0  0  0  0  0  3  0  0  0  0  0  0
  184.7370  179.2400  144.4450 C   0  0  2  0  0  3  0  0  0  0  0  0
  184.7640  178.3870  143.1760 C   0  0  2  0  0  3  0  0  0  0  0  0
  186.9810  177.0280  146.3580 O   0  0  0  0  0  0  0  0  0  0  0  0
  186.1590  177.8840  142.8910 C   0  0  0  0  0  2  0  0  0  0  0  0
  186.6040  176.9300  143.9900 C   0  0  2  0  0  3  0  0  0  0  0  0
  185.5580  178.6860  145.5380 N   0  0  0  0  0  0  0  0  0  0  0  0
  185.6530  179.4300  146.7860 C   0  0  0  0  0  1  0  0  0  0  0  0
  186.4210  177.5450  145.3510 C   0  0  0  0  0  0  0  0  0  0  0  0
  184.3030  179.1350  142.0830 O   0  0  0  0  0  1  0  0  0  0  0  0
  182.4880  178.4130  144.3150 O   0  0  0  0  0  1  0  0  0  0  0  0
  183.2890  179.4050  144.8960 C   0  0  0  0  0  2  0  0  0  0  0  0
  1 27  1  6  0  0  0
  1 51  1  0  0  0  0
  2  3  1  0  0  0  0
  3  6  1  0  0  0  0
  3  1  1  6  0  0  0
  4  8  1  1  0  0  0
  4  6  1  0  0  0  0
  5  2  1  0  0  0  0
  5  4  1  0  0  0  0
  7 11  1  0  0  0  0
  7  8  1  0  0  0  0
  9  7  2  0  0  0  0
 11 10  1  6  0  0  0
 12 13  1  0  0  0  0
 12 11  1  0  0  0  0
 13 14  1  1  0  0  0
 13 16  1  0  0  0  0
 16 17  1  0  0  0  0
 16 15  1  1  0  0  0
 17 18  1  6  0  0  0
 19 21  1  0  0  0  0
 19 17  1  0  0  0  0
 21 20  1  1  0  0  0
 22 25  1  0  0  0  0
 22 21  1  0  0  0  0
 24 25  2  0  0  0  0
 25 23  1  0  0  0  0
 26 27  2  0  0  0  0
 28 29  1  0  0  0  0
 29 34  2  0  0  0  0
 29 36  1  0  0  0  0
 30 37  1  0  0  0  0
 30 42  1  1  0  0  0
 33 26  1  0  0  0  0
 34 41  1  0  0  0  0
 35 31  1  0  0  0  0
 36 35  2  0  0  0  0
 37 34  1  1  0  0  0
 37 39  1  0  0  0  0
 38 28  2  0  0  0  0
 39 33  1  6  0  0  0
 39 32  1  0  0  0  0
 40 28  1  0  0  0  0
 40 30  1  0  0  0  0
 41 32  1  0  0  0  0
 41 31  2  0  0  0  0
 43 44  1  1  0  0  0
 43 42  1  0  0  0  0
 43 47  1  0  0  0  0
 45 44  1  0  0  0  0
 46 45  1  0  0  0  0
 47 48  1  0  0  0  0
 50 49  1  0  0  0  0
 50 48  1  0  0  0  0
 52 55  1  0  0  0  0
 54 51  1  6  0  0  0
 54 56  1  0  0  0  0
 54 52  1  0  0  0  0
 55 53  1  0  0  0  0
 55 57  1  1  0  0  0
 56 53  1  0  0  0  0
 57 58  1  0  0  0  0
 59 58  2  0  0  0  0
 60 70  1  1  0  0  0
 60 65  1  0  0  0  0
 61 68  1  6  0  0  0
 61 60  1  0  0  0  0
 63 61  1  0  0  0  0
 63 64  1  0  0  0  0
 64 59  1  6  0  0  0
 64 67  1  0  0  0  0
 65 66  1  0  0  0  0
 67 65  1  0  0  0  0
 67 62  2  0  0  0  0
 69 70  1  0  0  0  0
M  END
>  <MODEL>
3

>  <REMARK>
 VINA RESULT:      -4.4      1.400      2.535
  Name = 
  26 active torsions:
  status: ('A' for Active; 'I' for Inactive)
    1  A    between atoms: C_1  and  C_28
    2  A    between atoms: C_1  and  C_69
    3  A    between atoms: C_2  and  O_10
    4  A    between atoms: C_2  and  C_39
    5  A    between atoms: C_2  and  O_59
    6  A    between atoms: N_4  and  C_18
    7  A    between atoms: C_6  and  C_39
    8  A    between atoms: O_10  and  C_29
    9  A    between atoms: C_11  and  C_29
   10  A    between atoms: C_12  and  O_24
   11  A    between atoms: C_12  and  C_28
   12  A    between atoms: C_13  and  C_67
   13  A    between atoms: C_15  and  C_35
   14  A    between atoms: N_16  and  C_44
   15  A    between atoms: N_16  and  C_54
   16  A    between atoms: C_17  and  C_26
   17  A    between atoms: C_18  and  C_47
   18  A    between atoms: C_20  and  O_59
   19  A    between atoms: O_24  and  C_65
   20  A    between atoms: C_26  and  C_69
   21  A    between atoms: N_30  and  C_54
   22  A    between atoms: C_31  and  C_54
   23  A    between atoms: C_37  and  N_55
   24  A    between atoms: C_38  and  C_49
   25  A    between atoms: C_38  and  C_65
   26  A    between atoms: C_48  and  C_64
                            x       y       z     vdW  Elec       q    Type
                         _______ _______ _______ _____ _____    ______ ____

>  <TORSDO>
F 26

$$$$
=
 OpenBabel10222422123D

 70 75  0  0  1  0  0  0  0  0999 V2000
  190.1040  177.0630  136.3470 C   0  0  2  0  0  3  0  0  0  0  0  0
  192.2700  175.9440  137.9450 S   0  0  0  0  0  0  0  0  0  0  0  0
  190.8320  176.9720  137.6720 C   0  0  1  0  0  3  0  0  0  0  0  0
  191.3940  177.6210  139.8790 C   0  0  1  0  0  3  0  0  0  0  0  0
  192.6870  176.9890  139.3780 C   0  0  0  0  0  2  0  0  0  0  0  0
  190.5100  177.7700  138.6860 C   0  0  0  0  0  2  0  0  0  0  0  0
  190.5400  177.1280  142.2050 C   0  0  0  0  0  0  0  0  0  0  0  0
  190.7870  176.7440  140.8580 N   0  0  0  0  0  2  0  0  0  0  0  0
  190.7080  178.3240  142.5760 O   0  0  0  0  0  0  0  0  0  0  0  0
  188.6620  176.3060  143.6620 C   0  0  0  0  0  1  0  0  0  0  0  0
  190.0820  176.0840  143.1780 C   0  0  2  0  0  3  0  0  0  0  0  0
  191.1080  175.8340  144.2930 C   0  0  0  0  0  2  0  0  0  0  0  0
  191.0180  176.7470  145.5350 C   0  0  2  0  0  3  0  0  0  0  0  0
  191.7990  177.9190  145.5260 O   0  0  0  0  0  1  0  0  0  0  0  0
  192.0650  175.7530  147.6120 C   0  0  0  0  0  1  0  0  0  0  0  0
  190.7680  176.1140  146.9160 C   0  0  1  0  0  3  0  0  0  0  0  0
  189.8590  176.8910  147.9150 C   0  0  1  0  0  3  0  0  0  0  0  0
  190.5930  178.0160  148.6650 C   0  0  0  0  0  1  0  0  0  0  0  0
  188.7570  177.4220  147.2110 O   0  0  0  0  0  0  0  0  0  0  0  0
  187.5100  177.6950  149.1400 O   0  0  0  0  0  1  0  0  0  0  0  0
  188.1150  178.3500  148.0670 C   0  0  2  0  0  3  0  0  0  0  0  0
  187.0640  179.1330  147.2760 C   0  0  0  0  0  2  0  0  0  0  0  0
  185.1520  177.6180  146.7060 O   0  0  0  0  0  1  0  0  0  0  0  0
  186.7350  178.1600  145.1340 O   0  0  0  0  0  0  0  0  0  0  0  0
  186.3210  178.2580  146.3230 C   0  0  0  0  0  0  0  0  0  0  0  0
  188.0580  177.7750  137.5330 C   0  0  0  0  0  3  0  0  0  0  0  0
  188.7360  177.5960  136.4370 N   0  0  0  0  0  0  0  0  0  0  0  0
  182.0060  179.8730  139.2880 C   0  0  0  0  0  0  0  0  0  0  0  0
  182.9390  179.5700  140.3890 C   0  0  0  0  0  0  0  0  0  0  0  0
  183.3140  178.3220  137.8520 C   0  0  2  0  0  3  0  0  0  0  0  0
  184.6270  178.4440  142.3280 C   0  0  0  0  0  3  0  0  0  0  0  0
  186.3490  177.5050  140.3010 S   0  0  0  0  0  0  0  0  0  0  0  0
  186.6050  178.0510  137.5700 C   0  0  0  0  0  2  0  0  0  0  0  0
  184.1820  179.0370  140.0430 C   0  0  0  0  0  0  0  0  0  0  0  0
  183.4100  179.0480  142.7080 C   0  0  0  0  0  3  0  0  0  0  0  0
  182.5640  179.6160  141.7400 C   0  0  0  0  0  3  0  0  0  0  0  0
  184.5530  178.8240  138.6150 C   0  0  1  0  0  3  0  0  0  0  0  0
  181.0660  180.6890  139.4340 O   0  0  0  0  0  0  0  0  0  0  0  0
  185.7890  177.9800  138.6370 C   0  0  2  0  0  3  0  0  0  0  0  0
  182.2720  179.3150  138.0110 O   0  0  0  0  0  0  0  0  0  0  0  0
  185.0070  178.4540  140.9860 C   0  0  0  0  0  0  0  0  0  0  0  0
  182.8800  177.1020  138.4000 O   0  0  0  0  0  0  0  0  0  0  0  0
  182.3300  176.3650  137.3470 C   0  0  1  0  0  3  0  0  0  0  0  0
  180.9700  175.8370  137.7980 C   0  0  0  0  0  2  0  0  0  0  0  0
  181.0370  175.3590  139.2460 C   0  0  0  0  0  2  0  0  0  0  0  0
  181.0690  176.5560  140.1750 C   0  0  0  0  0  1  0  0  0  0  0  0
  182.1880  177.1940  136.2320 O   0  0  0  0  0  0  0  0  0  0  0  0
  181.6350  176.4000  135.2190 C   0  0  0  0  0  2  0  0  0  0  0  0
  183.9020  176.6190  134.4690 O   0  0  0  0  0  1  0  0  0  0  0  0
  182.7450  175.8450  134.3460 C   0  0  0  0  0  2  0  0  0  0  0  0
  190.0490  175.7390  135.6930 N   0  0  0  0  0  2  0  0  0  0  0  0
  187.9040  175.2720  136.5460 O   0  0  0  0  0  0  0  0  0  0  0  0
  187.2440  173.6160  134.9750 C   0  0  0  0  0  2  0  0  0  0  0  0
  188.6530  175.4180  135.3720 C   0  0  2  0  0  3  0  0  0  0  0  0
  187.1120  174.1230  136.3810 C   0  0  2  0  0  3  0  0  0  0  0  0
  188.5800  174.1300  134.5870 C   0  0  0  0  0  2  0  0  0  0  0  0
  185.6840  174.4540  136.7730 C   0  0  0  0  0  2  0  0  0  0  0  0
  184.7770  173.3700  136.4990 N   0  0  0  0  0  0  0  0  0  0  0  0
  184.4330  172.5220  137.4050 C   0  0  0  0  0  3  0  0  0  0  0  0
  181.8910  170.1870  134.8430 C   0  0  2  0  0  3  0  0  0  0  0  0
  183.1010  169.5370  135.5150 C   0  0  2  0  0  3  0  0  0  0  0  0
  181.5880  172.9110  137.3100 O   0  0  0  0  0  0  0  0  0  0  0  0
  184.0870  170.5810  135.9820 C   0  0  0  0  0  2  0  0  0  0  0  0
  183.4640  171.4320  137.0810 C   0  0  2  0  0  3  0  0  0  0  0  0
  181.4100  171.3920  135.5460 N   0  0  0  0  0  0  0  0  0  0  0  0
  180.2910  172.1310  134.9800 C   0  0  0  0  0  1  0  0  0  0  0  0
  182.1250  171.9730  136.6560 C   0  0  0  0  0  0  0  0  0  0  0  0
  183.7340  168.6610  134.6220 O   0  0  0  0  0  1  0  0  0  0  0  0
  181.3040  167.9140  134.3480 O   0  0  0  0  0  1  0  0  0  0  0  0
  180.7750  169.1540  134.7320 C   0  0  0  0  0  2  0  0  0  0  0  0
  1 51  1  1  0  0  0
  1 27  1  0  0  0  0
  2  5  1  0  0  0  0
  3  1  1  6  0  0  0
  3  2  1  0  0  0  0
  3  6  1  0  0  0  0
  4  8  1  1  0  0  0
  5  4  1  0  0  0  0
  6  4  1  0  0  0  0
  7  9  2  0  0  0  0
  7 11  1  0  0  0  0
  8  7  1  0  0  0  0
 11 10  1  1  0  0  0
 11 12  1  0  0  0  0
 12 13  1  0  0  0  0
 13 14  1  1  0  0  0
 13 16  1  0  0  0  0
 16 15  1  1  0  0  0
 16 17  1  0  0  0  0
 17 18  1  6  0  0  0
 19 17  1  0  0  0  0
 19 21  1  0  0  0  0
 21 20  1  1  0  0  0
 22 21  1  0  0  0  0
 24 25  2  0  0  0  0
 25 23  1  0  0  0  0
 25 22  1  0  0  0  0
 26 33  1  0  0  0  0
 27 26  2  0  0  0  0
 28 38  2  0  0  0  0
 28 29  1  0  0  0  0
 29 36  1  0  0  0  0
 30 40  1  0  0  0  0
 30 42  1  1  0  0  0
 30 37  1  0  0  0  0
 31 35  1  0  0  0  0
 32 41  1  0  0  0  0
 34 29  2  0  0  0  0
 34 41  1  0  0  0  0
 36 35  2  0  0  0  0
 37 39  1  0  0  0  0
 37 34  1  1  0  0  0
 39 33  1  1  0  0  0
 39 32  1  0  0  0  0
 40 28  1  0  0  0  0
 41 31  2  0  0  0  0
 43 44  1  1  0  0  0
 43 42  1  0  0  0  0
 44 45  1  0  0  0  0
 45 46  1  0  0  0  0
 47 43  1  0  0  0  0
 48 47  1  0  0  0  0
 50 49  1  0  0  0  0
 50 48  1  0  0  0  0
 53 55  1  0  0  0  0
 54 51  1  1  0  0  0
 54 52  1  0  0  0  0
 55 52  1  0  0  0  0
 55 57  1  6  0  0  0
 56 53  1  0  0  0  0
 56 54  1  0  0  0  0
 58 57  1  0  0  0  0
 58 59  2  0  0  0  0
 60 70  1  1  0  0  0
 60 61  1  0  0  0  0
 60 65  1  0  0  0  0
 61 68  1  6  0  0  0
 61 63  1  0  0  0  0
 63 64  1  0  0  0  0
 64 59  1  6  0  0  0
 65 67  1  0  0  0  0
 66 65  1  0  0  0  0
 67 64  1  0  0  0  0
 67 62  2  0  0  0  0
 69 70  1  0  0  0  0
M  END
>  <MODEL>
4

>  <REMARK>
 VINA RESULT:      -3.5      4.714      9.673
  Name = 
  26 active torsions:
  status: ('A' for Active; 'I' for Inactive)
    1  A    between atoms: C_1  and  C_28
    2  A    between atoms: C_1  and  C_69
    3  A    between atoms: C_2  and  O_10
    4  A    between atoms: C_2  and  C_39
    5  A    between atoms: C_2  and  O_59
    6  A    between atoms: N_4  and  C_18
    7  A    between atoms: C_6  and  C_39
    8  A    between atoms: O_10  and  C_29
    9  A    between atoms: C_11  and  C_29
   10  A    between atoms: C_12  and  O_24
   11  A    between atoms: C_12  and  C_28
   12  A    between atoms: C_13  and  C_67
   13  A    between atoms: C_15  and  C_35
   14  A    between atoms: N_16  and  C_44
   15  A    between atoms: N_16  and  C_54
   16  A    between atoms: C_17  and  C_26
   17  A    between atoms: C_18  and  C_47
   18  A    between atoms: C_20  and  O_59
   19  A    between atoms: O_24  and  C_65
   20  A    between atoms: C_26  and  C_69
   21  A    between atoms: N_30  and  C_54
   22  A    between atoms: C_31  and  C_54
   23  A    between atoms: C_37  and  N_55
   24  A    between atoms: C_38  and  C_49
   25  A    between atoms: C_38  and  C_65
   26  A    between atoms: C_48  and  C_64
                            x       y       z     vdW  Elec       q    Type
                         _______ _______ _______ _____ _____    ______ ____

>  <TORSDO>
F 26

$$$$
=
 OpenBabel10222422123D

 70 75  0  0  1  0  0  0  0  0999 V2000
  189.7240  175.7370  137.5580 C   0  0  2  0  0  3  0  0  0  0  0  0
  190.9420  173.3760  136.3570 S   0  0  0  0  0  0  0  0  0  0  0  0
  190.5950  175.1270  136.4790 C   0  0  1  0  0  3  0  0  0  0  0  0
  191.8010  175.0830  134.4420 C   0  0  1  0  0  3  0  0  0  0  0  0
  191.3700  173.6310  134.6050 C   0  0  0  0  0  2  0  0  0  0  0  0
  191.0490  175.8620  135.4690 C   0  0  0  0  0  2  0  0  0  0  0  0
  193.8140  176.1210  135.5630 C   0  0  0  0  0  0  0  0  0  0  0  0
  193.2270  175.1810  134.6710 N   0  0  0  0  0  2  0  0  0  0  0  0
  193.0910  176.8270  136.3220 O   0  0  0  0  0  0  0  0  0  0  0  0
  195.7900  177.5320  134.9070 C   0  0  0  0  0  1  0  0  0  0  0  0
  195.3060  176.2620  135.5820 C   0  0  2  0  0  3  0  0  0  0  0  0
  196.0200  174.9810  135.1270 C   0  0  0  0  0  2  0  0  0  0  0  0
  197.2940  174.5850  135.9040 C   0  0  2  0  0  3  0  0  0  0  0  0
  198.5310  174.8790  135.2990 O   0  0  0  0  0  1  0  0  0  0  0  0
  198.5540  173.1830  137.5900 C   0  0  0  0  0  1  0  0  0  0  0  0
  197.2650  173.3400  136.8100 C   0  0  1  0  0  3  0  0  0  0  0  0
  196.0620  173.1840  137.7880 C   0  0  1  0  0  3  0  0  0  0  0  0
  195.7660  174.4530  138.6060 C   0  0  0  0  0  1  0  0  0  0  0  0
  194.9170  172.8120  137.0480 O   0  0  0  0  0  0  0  0  0  0  0  0
  193.9540  170.9390  136.0920 O   0  0  0  0  0  1  0  0  0  0  0  0
  195.1450  171.5090  136.5440 C   0  0  2  0  0  3  0  0  0  0  0  0
  195.7550  170.6350  137.6430 C   0  0  0  0  0  2  0  0  0  0  0  0
  194.9830  168.5070  136.5710 O   0  0  0  0  0  0  0  0  0  0  0  0
  194.7370  168.8460  138.8280 O   0  0  0  0  0  1  0  0  0  0  0  0
  195.1100  169.2920  137.7070 C   0  0  0  0  0  0  0  0  0  0  0  0
  187.3700  175.2030  137.0390 C   0  0  0  0  0  3  0  0  0  0  0  0
  188.3520  176.0510  137.1310 N   0  0  0  0  0  0  0  0  0  0  0  0
  181.7200  178.0400  135.0030 C   0  0  0  0  0  0  0  0  0  0  0  0
  182.1360  178.3290  136.3870 C   0  0  0  0  0  0  0  0  0  0  0  0
  183.0470  175.9420  135.1210 C   0  0  2  0  0  3  0  0  0  0  0  0
  182.7760  178.3310  139.1200 C   0  0  0  0  0  3  0  0  0  0  0  0
  184.8170  176.4410  138.6560 S   0  0  0  0  0  0  0  0  0  0  0  0
  186.0910  175.4910  136.3530 C   0  0  0  0  0  2  0  0  0  0  0  0
  183.2680  177.6670  136.8650 C   0  0  0  0  0  0  0  0  0  0  0  0
  181.6720  179.0700  138.6480 C   0  0  0  0  0  3  0  0  0  0  0  0
  181.3500  179.0750  137.2780 C   0  0  0  0  0  3  0  0  0  0  0  0
  184.0380  176.7390  135.9890 C   0  0  1  0  0  3  0  0  0  0  0  0
  180.9960  178.8350  134.3580 O   0  0  0  0  0  0  0  0  0  0  0  0
  184.9700  176.0000  136.8980 C   0  0  2  0  0  3  0  0  0  0  0  0
  182.2660  176.8970  134.3640 O   0  0  0  0  0  0  0  0  0  0  0  0
  183.5750  177.6370  138.2120 C   0  0  0  0  0  0  0  0  0  0  0  0
  182.1910  175.1900  135.9450 O   0  0  0  0  0  0  0  0  0  0  0  0
  182.0080  173.9580  135.3110 C   0  0  1  0  0  3  0  0  0  0  0  0
  183.3410  173.2140  135.3290 C   0  0  0  0  0  2  0  0  0  0  0  0
  183.5090  172.4530  136.6410 C   0  0  0  0  0  2  0  0  0  0  0  0
  184.9780  172.1580  136.8710 C   0  0  0  0  0  1  0  0  0  0  0  0
  181.0320  173.2310  135.9940 O   0  0  0  0  0  0  0  0  0  0  0  0
  180.0800  172.8520  135.0380 C   0  0  0  0  0  2  0  0  0  0  0  0
  181.0990  170.7920  134.3520 O   0  0  0  0  0  1  0  0  0  0  0  0
  179.9820  171.3380  134.9920 C   0  0  0  0  0  2  0  0  0  0  0  0
  190.3430  176.9690  138.0890 N   0  0  0  0  0  2  0  0  0  0  0  0
  188.5060  177.2570  139.5330 O   0  0  0  0  0  0  0  0  0  0  0  0
  189.4600  178.8470  141.0180 C   0  0  0  0  0  2  0  0  0  0  0  0
  189.9020  177.1710  139.4750 C   0  0  2  0  0  3  0  0  0  0  0  0
  188.2010  178.3350  140.3820 C   0  0  2  0  0  3  0  0  0  0  0  0
  190.4900  178.4470  140.0300 C   0  0  0  0  0  2  0  0  0  0  0  0
  187.1550  177.8870  141.3850 C   0  0  0  0  0  2  0  0  0  0  0  0
  187.7410  177.2770  142.5500 N   0  0  0  0  0  0  0  0  0  0  0  0
  187.4810  177.6910  143.7410 C   0  0  0  0  0  3  0  0  0  0  0  0
  190.4010  177.0980  146.8400 C   0  0  2  0  0  3  0  0  0  0  0  0
  188.9580  177.4460  147.2080 C   0  0  2  0  0  3  0  0  0  0  0  0
  189.5560  175.7150  143.5290 O   0  0  0  0  0  0  0  0  0  0  0  0
  188.2270  178.0430  146.0280 C   0  0  0  0  0  2  0  0  0  0  0  0
  188.0900  177.0060  144.9220 C   0  0  2  0  0  3  0  0  0  0  0  0
  190.5310  176.4830  145.5050 N   0  0  0  0  0  0  0  0  0  0  0  0
  191.8620  176.1480  145.0170 C   0  0  0  0  0  1  0  0  0  0  0  0
  189.4190  176.3830  144.5910 C   0  0  0  0  0  0  0  0  0  0  0  0
  188.9390  178.3520  148.2780 O   0  0  0  0  0  1  0  0  0  0  0  0
  192.3170  176.4920  148.1510 O   0  0  0  0  0  1  0  0  0  0  0  0
  190.9730  176.1750  147.9110 C   0  0  0  0  0  2  0  0  0  0  0  0
  1 27  1  6  0  0  0
  1 51  1  0  0  0  0
  2  3  1  0  0  0  0
  3  1  1  6  0  0  0
  4  5  1  0  0  0  0
  4  8  1  1  0  0  0
  4  6  1  0  0  0  0
  5  2  1  0  0  0  0
  6  3  1  0  0  0  0
  7 11  1  0  0  0  0
  7  9  2  0  0  0  0
  8  7  1  0  0  0  0
 11 10  1  6  0  0  0
 12 11  1  0  0  0  0
 12 13  1  0  0  0  0
 13 14  1  6  0  0  0
 13 16  1  0  0  0  0
 16 15  1  1  0  0  0
 16 17  1  0  0  0  0
 17 18  1  6  0  0  0
 19 17  1  0  0  0  0
 21 20  1  1  0  0  0
 21 19  1  0  0  0  0
 21 22  1  0  0  0  0
 22 25  1  0  0  0  0
 23 25  2  0  0  0  0
 25 24  1  0  0  0  0
 26 27  2  0  0  0  0
 28 29  1  0  0  0  0
 29 34  2  0  0  0  0
 29 36  1  0  0  0  0
 30 42  1  1  0  0  0
 30 37  1  0  0  0  0
 33 26  1  0  0  0  0
 34 41  1  0  0  0  0
 35 31  1  0  0  0  0
 36 35  2  0  0  0  0
 37 34  1  1  0  0  0
 37 39  1  0  0  0  0
 38 28  2  0  0  0  0
 39 33  1  6  0  0  0
 39 32  1  0  0  0  0
 40 28  1  0  0  0  0
 40 30  1  0  0  0  0
 41 32  1  0  0  0  0
 41 31  2  0  0  0  0
 43 44  1  1  0  0  0
 43 42  1  0  0  0  0
 43 47  1  0  0  0  0
 44 45  1  0  0  0  0
 45 46  1  0  0  0  0
 48 47  1  0  0  0  0
 49 50  1  0  0  0  0
 50 48  1  0  0  0  0
 52 55  1  0  0  0  0
 54 51  1  6  0  0  0
 54 52  1  0  0  0  0
 54 56  1  0  0  0  0
 55 53  1  0  0  0  0
 55 57  1  1  0  0  0
 56 53  1  0  0  0  0
 57 58  1  0  0  0  0
 58 59  2  0  0  0  0
 60 61  1  0  0  0  0
 60 70  1  1  0  0  0
 61 68  1  1  0  0  0
 62 67  2  0  0  0  0
 63 61  1  0  0  0  0
 64 59  1  6  0  0  0
 64 63  1  0  0  0  0
 65 60  1  0  0  0  0
 66 65  1  0  0  0  0
 67 64  1  0  0  0  0
 67 65  1  0  0  0  0
 70 69  1  0  0  0  0
M  END
>  <MODEL>
5

>  <REMARK>
 VINA RESULT:      -3.3      2.430      3.931
  Name = 
  26 active torsions:
  status: ('A' for Active; 'I' for Inactive)
    1  A    between atoms: C_1  and  C_28
    2  A    between atoms: C_1  and  C_69
    3  A    between atoms: C_2  and  O_10
    4  A    between atoms: C_2  and  C_39
    5  A    between atoms: C_2  and  O_59
    6  A    between atoms: N_4  and  C_18
    7  A    between atoms: C_6  and  C_39
    8  A    between atoms: O_10  and  C_29
    9  A    between atoms: C_11  and  C_29
   10  A    between atoms: C_12  and  O_24
   11  A    between atoms: C_12  and  C_28
   12  A    between atoms: C_13  and  C_67
   13  A    between atoms: C_15  and  C_35
   14  A    between atoms: N_16  and  C_44
   15  A    between atoms: N_16  and  C_54
   16  A    between atoms: C_17  and  C_26
   17  A    between atoms: C_18  and  C_47
   18  A    between atoms: C_20  and  O_59
   19  A    between atoms: O_24  and  C_65
   20  A    between atoms: C_26  and  C_69
   21  A    between atoms: N_30  and  C_54
   22  A    between atoms: C_31  and  C_54
   23  A    between atoms: C_37  and  N_55
   24  A    between atoms: C_38  and  C_49
   25  A    between atoms: C_38  and  C_65
   26  A    between atoms: C_48  and  C_64
                            x       y       z     vdW  Elec       q    Type
                         _______ _______ _______ _____ _____    ______ ____

>  <TORSDO>
F 26

$$$$
=
 OpenBabel10222422123D

 70 75  0  0  1  0  0  0  0  0999 V2000
  189.7690  178.1720  138.3410 C   0  0  2  0  0  3  0  0  0  0  0  0
  189.4240  175.2800  138.4860 S   0  0  0  0  0  0  0  0  0  0  0  0
  190.0760  176.7940  137.7910 C   0  0  1  0  0  3  0  0  0  0  0  0
  190.8810  175.2280  136.2070 C   0  0  1  0  0  3  0  0  0  0  0  0
  189.7590  174.4600  136.8940 C   0  0  0  0  0  2  0  0  0  0  0  0
  190.7580  176.6450  136.6590 C   0  0  0  0  0  2  0  0  0  0  0  0
  193.3410  174.7830  135.8390 C   0  0  0  0  0  0  0  0  0  0  0  0
  192.1540  174.6720  136.6140 N   0  0  0  0  0  2  0  0  0  0  0  0
  193.3720  175.5150  134.8090 O   0  0  0  0  0  0  0  0  0  0  0  0
  195.5430  173.7940  135.1350 C   0  0  0  0  0  1  0  0  0  0  0  0
  194.5530  174.0110  136.2630 C   0  0  2  0  0  3  0  0  0  0  0  0
  194.1930  172.7450  137.0540 C   0  0  0  0  0  2  0  0  0  0  0  0
  195.2120  172.2770  138.1150 C   0  0  2  0  0  3  0  0  0  0  0  0
  195.9540  173.2760  138.7750 O   0  0  0  0  0  1  0  0  0  0  0  0
  195.5080  170.2450  136.6390 C   0  0  0  0  0  1  0  0  0  0  0  0
  195.9200  170.9230  137.9310 C   0  0  1  0  0  3  0  0  0  0  0  0
  197.4740  170.8970  138.0400 C   0  0  1  0  0  3  0  0  0  0  0  0
  198.1000  169.5680  137.5820 C   0  0  0  0  0  1  0  0  0  0  0  0
  198.0030  171.9640  137.2800 O   0  0  0  0  0  0  0  0  0  0  0  0
  199.8440  171.0350  136.2320 O   0  0  0  0  0  1  0  0  0  0  0  0
  198.5100  171.4160  136.0770 C   0  0  2  0  0  3  0  0  0  0  0  0
  198.3910  172.4510  134.9550 C   0  0  0  0  0  2  0  0  0  0  0  0
  199.1980  174.7570  134.4010 O   0  0  0  0  0  0  0  0  0  0  0  0
  199.2350  173.9820  136.5620 O   0  0  0  0  0  1  0  0  0  0  0  0
  198.9870  173.7620  135.3430 C   0  0  0  0  0  0  0  0  0  0  0  0
  189.6170  179.0790  140.6330 C   0  0  0  0  0  3  0  0  0  0  0  0
  189.3140  178.1830  139.7400 N   0  0  0  0  0  0  0  0  0  0  0  0
  190.2510  177.6790  147.0940 C   0  0  0  0  0  0  0  0  0  0  0  0
  191.0010  176.8190  146.1610 C   0  0  0  0  0  0  0  0  0  0  0  0
  188.6760  178.1890  145.2410 C   0  0  2  0  0  3  0  0  0  0  0  0
  191.9080  174.9710  144.2520 C   0  0  0  0  0  3  0  0  0  0  0  0
  190.5510  176.3850  142.2230 S   0  0  0  0  0  0  0  0  0  0  0  0
  189.3710  178.9170  142.0830 C   0  0  0  0  0  2  0  0  0  0  0  0
  190.8060  177.0360  144.7960 C   0  0  0  0  0  0  0  0  0  0  0  0
  192.1830  174.7730  145.6210 C   0  0  0  0  0  3  0  0  0  0  0  0
  191.7350  175.6980  146.5800 C   0  0  0  0  0  3  0  0  0  0  0  0
  189.9040  178.1200  144.3150 C   0  0  1  0  0  3  0  0  0  0  0  0
  190.6280  177.8440  148.2780 O   0  0  0  0  0  0  0  0  0  0  0  0
  189.7040  177.8650  142.8540 C   0  0  2  0  0  3  0  0  0  0  0  0
  189.1560  178.4240  146.5860 O   0  0  0  0  0  0  0  0  0  0  0  0
  191.2220  176.1180  143.8500 C   0  0  0  0  0  0  0  0  0  0  0  0
  187.9830  176.9660  145.2030 O   0  0  0  0  0  0  0  0  0  0  0  0
  186.7070  177.2460  144.7060 C   0  0  1  0  0  3  0  0  0  0  0  0
  185.7000  177.0090  145.8290 C   0  0  0  0  0  2  0  0  0  0  0  0
  185.0740  178.3290  146.2720 C   0  0  0  0  0  2  0  0  0  0  0  0
  185.9800  179.0080  147.2780 C   0  0  0  0  0  1  0  0  0  0  0  0
  186.6610  178.5750  144.2800 O   0  0  0  0  0  0  0  0  0  0  0  0
  186.0680  178.5620  143.0110 C   0  0  0  0  0  2  0  0  0  0  0  0
  183.8470  177.9110  142.3810 O   0  0  0  0  0  1  0  0  0  0  0  0
  184.5800  178.8260  143.1430 C   0  0  0  0  0  2  0  0  0  0  0  0
  188.7500  178.8460  137.5110 N   0  0  0  0  0  2  0  0  0  0  0  0
  187.2930  178.2450  135.7620 O   0  0  0  0  0  0  0  0  0  0  0  0
  185.5520  177.2800  137.0590 C   0  0  0  0  0  2  0  0  0  0  0  0
  187.8020  177.8470  137.0040 C   0  0  2  0  0  3  0  0  0  0  0  0
  185.9080  178.0120  135.7990 C   0  0  2  0  0  3  0  0  0  0  0  0
  186.6520  177.6800  137.9690 C   0  0  0  0  0  2  0  0  0  0  0  0
  185.5030  177.2750  134.5360 C   0  0  0  0  0  2  0  0  0  0  0  0
  184.3620  176.4220  134.7440 N   0  0  0  0  0  0  0  0  0  0  0  0
  184.4040  175.1570  134.5080 C   0  0  0  0  0  3  0  0  0  0  0  0
  181.5000  173.1370  136.9520 C   0  0  2  0  0  3  0  0  0  0  0  0
  181.0620  174.2760  136.0290 C   0  0  2  0  0  3  0  0  0  0  0  0
  184.5460  172.3360  135.0350 O   0  0  0  0  0  0  0  0  0  0  0  0
  182.2410  175.1250  135.6200 C   0  0  0  0  0  2  0  0  0  0  0  0
  183.2030  174.3060  134.7690 C   0  0  2  0  0  3  0  0  0  0  0  0
  182.7590  172.4940  136.5280 N   0  0  0  0  0  0  0  0  0  0  0  0
  183.3080  171.4260  137.3500 C   0  0  0  0  0  1  0  0  0  0  0  0
  183.5620  173.0120  135.4470 C   0  0  0  0  0  0  0  0  0  0  0  0
  180.1090  175.0770  136.6740 O   0  0  0  0  0  1  0  0  0  0  0  0
  180.4070  171.2760  135.9050 O   0  0  0  0  0  1  0  0  0  0  0  0
  180.3770  172.1080  137.0320 C   0  0  0  0  0  2  0  0  0  0  0  0
  1 51  1  6  0  0  0
  1 27  1  0  0  0  0
  3  1  1  6  0  0  0
  3  2  1  0  0  0  0
  4  8  1  1  0  0  0
  4  6  1  0  0  0  0
  4  5  1  0  0  0  0
  5  2  1  0  0  0  0
  6  3  1  0  0  0  0
  7 11  1  0  0  0  0
  7  8  1  0  0  0  0
  9  7  2  0  0  0  0
 11 10  1  6  0  0  0
 11 12  1  0  0  0  0
 12 13  1  0  0  0  0
 13 14  1  6  0  0  0
 16 15  1  6  0  0  0
 16 17  1  0  0  0  0
 16 13  1  0  0  0  0
 17 18  1  6  0  0  0
 19 17  1  0  0  0  0
 21 20  1  1  0  0  0
 21 19  1  0  0  0  0
 22 25  1  0  0  0  0
 22 21  1  0  0  0  0
 23 25  2  0  0  0  0
 25 24  1  0  0  0  0
 26 33  1  0  0  0  0
 27 26  2  0  0  0  0
 28 38  2  0  0  0  0
 29 36  1  0  0  0  0
 29 28  1  0  0  0  0
 30 42  1  1  0  0  0
 30 40  1  0  0  0  0
 31 35  1  0  0  0  0
 32 39  1  0  0  0  0
 32 41  1  0  0  0  0
 34 29  2  0  0  0  0
 35 36  2  0  0  0  0
 37 34  1  1  0  0  0
 37 30  1  0  0  0  0
 39 33  1  6  0  0  0
 39 37  1  0  0  0  0
 40 28  1  0  0  0  0
 41 31  2  0  0  0  0
 41 34  1  0  0  0  0
 43 42  1  0  0  0  0
 43 44  1  1  0  0  0
 44 45  1  0  0  0  0
 45 46  1  0  0  0  0
 47 43  1  0  0  0  0
 48 50  1  0  0  0  0
 48 47  1  0  0  0  0
 49 50  1  0  0  0  0
 52 55  1  0  0  0  0
 52 54  1  0  0  0  0
 53 56  1  0  0  0  0
 54 51  1  1  0  0  0
 54 56  1  0  0  0  0
 55 57  1  6  0  0  0
 55 53  1  0  0  0  0
 57 58  1  0  0  0  0
 59 58  2  0  0  0  0
 60 70  1  6  0  0  0
 61 68  1  1  0  0  0
 61 60  1  0  0  0  0
 62 67  2  0  0  0  0
 63 61  1  0  0  0  0
 64 59  1  1  0  0  0
 64 67  1  0  0  0  0
 64 63  1  0  0  0  0
 65 60  1  0  0  0  0
 65 66  1  0  0  0  0
 67 65  1  0  0  0  0
 69 70  1  0  0  0  0
M  END
>  <MODEL>
6

>  <REMARK>
 VINA RESULT:      -3.0      2.687      8.483
  Name = 
  26 active torsions:
  status: ('A' for Active; 'I' for Inactive)
    1  A    between atoms: C_1  and  C_28
    2  A    between atoms: C_1  and  C_69
    3  A    between atoms: C_2  and  O_10
    4  A    between atoms: C_2  and  C_39
    5  A    between atoms: C_2  and  O_59
    6  A    between atoms: N_4  and  C_18
    7  A    between atoms: C_6  and  C_39
    8  A    between atoms: O_10  and  C_29
    9  A    between atoms: C_11  and  C_29
   10  A    between atoms: C_12  and  O_24
   11  A    between atoms: C_12  and  C_28
   12  A    between atoms: C_13  and  C_67
   13  A    between atoms: C_15  and  C_35
   14  A    between atoms: N_16  and  C_44
   15  A    between atoms: N_16  and  C_54
   16  A    between atoms: C_17  and  C_26
   17  A    between atoms: C_18  and  C_47
   18  A    between atoms: C_20  and  O_59
   19  A    between atoms: O_24  and  C_65
   20  A    between atoms: C_26  and  C_69
   21  A    between atoms: N_30  and  C_54
   22  A    between atoms: C_31  and  C_54
   23  A    between atoms: C_37  and  N_55
   24  A    between atoms: C_38  and  C_49
   25  A    between atoms: C_38  and  C_65
   26  A    between atoms: C_48  and  C_64
                            x       y       z     vdW  Elec       q    Type
                         _______ _______ _______ _____ _____    ______ ____

>  <TORSDO>
F 26

$$$$
=
 OpenBabel10222422123D

 70 75  0  0  1  0  0  0  0  0999 V2000
  189.0700  175.9000  137.3740 C   0  0  2  0  0  3  0  0  0  0  0  0
  190.3140  173.4090  136.5090 S   0  0  0  0  0  0  0  0  0  0  0  0
  189.9360  175.1530  136.3810 C   0  0  1  0  0  3  0  0  0  0  0  0
  191.1150  174.8320  134.3530 C   0  0  1  0  0  3  0  0  0  0  0  0
  190.7130  173.4130  134.7320 C   0  0  0  0  0  2  0  0  0  0  0  0
  190.3630  175.7400  135.2670 C   0  0  0  0  0  2  0  0  0  0  0  0
  193.1140  175.8560  135.5100 C   0  0  0  0  0  0  0  0  0  0  0  0
  192.5420  174.9860  134.5420 N   0  0  0  0  0  2  0  0  0  0  0  0
  192.3870  176.4360  136.3660 O   0  0  0  0  0  0  0  0  0  0  0  0
  195.0500  176.9620  134.3460 C   0  0  0  0  0  1  0  0  0  0  0  0
  194.5960  176.0790  135.4930 C   0  0  2  0  0  3  0  0  0  0  0  0
  195.3860  174.7710  135.6470 C   0  0  0  0  0  2  0  0  0  0  0  0
  196.6730  174.8340  136.4980 C   0  0  2  0  0  3  0  0  0  0  0  0
  197.4610  175.9950  136.3810 O   0  0  0  0  0  1  0  0  0  0  0  0
  197.3650  173.1810  138.2820 C   0  0  0  0  0  1  0  0  0  0  0  0
  197.4320  173.5320  136.8090 C   0  0  1  0  0  3  0  0  0  0  0  0
  197.0720  172.2660  135.9740 C   0  0  1  0  0  3  0  0  0  0  0  0
  198.1710  171.8540  134.9790 C   0  0  0  0  0  1  0  0  0  0  0  0
  196.7980  171.1990  136.8570 O   0  0  0  0  0  0  0  0  0  0  0  0
  194.4900  171.3310  136.9330 O   0  0  0  0  0  1  0  0  0  0  0  0
  195.5790  170.6100  136.4420 C   0  0  2  0  0  3  0  0  0  0  0  0
  195.5140  169.1640  136.9440 C   0  0  0  0  0  2  0  0  0  0  0  0
  193.5630  168.2220  138.2030 O   0  0  0  0  0  0  0  0  0  0  0  0
  195.0470  169.6460  139.2230 O   0  0  0  0  0  1  0  0  0  0  0  0
  194.6810  169.0420  138.1760 C   0  0  0  0  0  0  0  0  0  0  0  0
  186.6140  176.1080  137.5280 C   0  0  0  0  0  3  0  0  0  0  0  0
  187.7300  176.2470  136.8750 N   0  0  0  0  0  0  0  0  0  0  0  0
  180.8300  178.3590  135.1620 C   0  0  0  0  0  0  0  0  0  0  0  0
  181.3940  179.0860  136.3140 C   0  0  0  0  0  0  0  0  0  0  0  0
  182.1260  176.3640  135.8810 C   0  0  2  0  0  3  0  0  0  0  0  0
  182.3160  179.9970  138.8040 C   0  0  0  0  0  3  0  0  0  0  0  0
  184.2660  177.9590  138.8400 S   0  0  0  0  0  0  0  0  0  0  0  0
  185.2750  176.2080  136.9060 C   0  0  0  0  0  2  0  0  0  0  0  0
  182.5580  178.5710  136.8850 C   0  0  0  0  0  0  0  0  0  0  0  0
  181.1810  180.5840  138.2070 C   0  0  0  0  0  3  0  0  0  0  0  0
  180.7180  180.1340  136.9580 C   0  0  0  0  0  3  0  0  0  0  0  0
  183.2160  177.3580  136.3210 C   0  0  1  0  0  3  0  0  0  0  0  0
  180.0560  178.9190  134.3510 O   0  0  0  0  0  0  0  0  0  0  0  0
  184.2260  176.9310  137.3400 C   0  0  2  0  0  3  0  0  0  0  0  0
  181.2860  177.0380  134.9140 O   0  0  0  0  0  0  0  0  0  0  0  0
  183.0040  178.9910  138.1240 C   0  0  0  0  0  0  0  0  0  0  0  0
  181.3490  175.9890  136.9910 O   0  0  0  0  0  0  0  0  0  0  0  0
  181.9220  174.8210  137.5020 C   0  0  1  0  0  3  0  0  0  0  0  0
  180.8160  174.0040  138.1680 C   0  0  0  0  0  2  0  0  0  0  0  0
  180.3050  174.7160  139.4170 C   0  0  0  0  0  2  0  0  0  0  0  0
  181.4560  175.4200  140.1070 C   0  0  0  0  0  1  0  0  0  0  0  0
  182.5020  174.0990  136.4580 O   0  0  0  0  0  0  0  0  0  0  0  0
  182.5950  172.7720  136.8990 C   0  0  0  0  0  2  0  0  0  0  0  0
  182.9180  170.5250  136.1250 O   0  0  0  0  0  1  0  0  0  0  0  0
  182.8430  171.8590  135.7130 C   0  0  0  0  0  2  0  0  0  0  0  0
  189.7400  177.1380  137.8190 N   0  0  0  0  0  2  0  0  0  0  0  0
  191.0960  177.6690  139.6690 O   0  0  0  0  0  0  0  0  0  0  0  0
  190.6130  175.7780  141.0250 C   0  0  0  0  0  2  0  0  0  0  0  0
  189.8690  177.1180  139.2810 C   0  0  2  0  0  3  0  0  0  0  0  0
  191.6270  176.8210  140.6560 C   0  0  2  0  0  3  0  0  0  0  0  0
  189.7900  175.6990  139.7940 C   0  0  0  0  0  2  0  0  0  0  0  0
  192.0840  177.6640  141.8310 C   0  0  0  0  0  2  0  0  0  0  0  0
  190.9830  178.2900  142.5140 N   0  0  0  0  0  0  0  0  0  0  0  0
  189.8860  177.6630  142.7610 C   0  0  0  0  0  3  0  0  0  0  0  0
  186.0330  177.9440  144.6470 C   0  0  2  0  0  3  0  0  0  0  0  0
  187.3050  178.0950  145.4840 C   0  0  2  0  0  3  0  0  0  0  0  0
  187.6360  178.8930  141.4650 O   0  0  0  0  0  0  0  0  0  0  0  0
  188.5020  177.5300  144.7550 C   0  0  0  0  0  2  0  0  0  0  0  0
  188.7820  178.3470  143.5010 C   0  0  2  0  0  3  0  0  0  0  0  0
  186.2350  178.2470  143.2170 N   0  0  0  0  0  0  0  0  0  0  0  0
  185.1110  178.0950  142.3050 C   0  0  0  0  0  1  0  0  0  0  0  0
  187.5430  178.4940  142.6600 C   0  0  0  0  0  0  0  0  0  0  0  0
  187.1520  177.4390  146.7130 O   0  0  0  0  0  1  0  0  0  0  0  0
  184.5520  178.3600  146.4890 O   0  0  0  0  0  1  0  0  0  0  0  0
  184.9490  178.8430  145.2340 C   0  0  0  0  0  2  0  0  0  0  0  0
  1 27  1  6  0  0  0
  1 51  1  0  0  0  0
  3  2  1  0  0  0  0
  3  1  1  6  0  0  0
  4  8  1  1  0  0  0
  4  5  1  0  0  0  0
  4  6  1  0  0  0  0
  5  2  1  0  0  0  0
  6  3  1  0  0  0  0
  7  9  2  0  0  0  0
  8  7  1  0  0  0  0
 11 10  1  6  0  0  0
 11  7  1  0  0  0  0
 11 12  1  0  0  0  0
 12 13  1  0  0  0  0
 13 14  1  6  0  0  0
 13 16  1  0  0  0  0
 16 15  1  1  0  0  0
 17 18  1  6  0  0  0
 17 16  1  0  0  0  0
 17 19  1  0  0  0  0
 21 19  1  0  0  0  0
 21 20  1  1  0  0  0
 21 22  1  0  0  0  0
 22 25  1  0  0  0  0
 25 23  2  0  0  0  0
 25 24  1  0  0  0  0
 27 26  2  0  0  0  0
 28 29  1  0  0  0  0
 29 34  2  0  0  0  0
 29 36  1  0  0  0  0
 30 37  1  0  0  0  0
 30 42  1  1  0  0  0
 33 26  1  0  0  0  0
 34 41  1  0  0  0  0
 35 31  1  0  0  0  0
 36 35  2  0  0  0  0
 37 34  1  1  0  0  0
 37 39  1  0  0  0  0
 38 28  2  0  0  0  0
 39 33  1  6  0  0  0
 39 32  1  0  0  0  0
 40 28  1  0  0  0  0
 40 30  1  0  0  0  0
 41 31  2  0  0  0  0
 41 32  1  0  0  0  0
 42 43  1  0  0  0  0
 43 44  1  6  0  0  0
 44 45  1  0  0  0  0
 45 46  1  0  0  0  0
 47 48  1  0  0  0  0
 47 43  1  0  0  0  0
 50 49  1  0  0  0  0
 50 48  1  0  0  0  0
 52 55  1  0  0  0  0
 54 51  1  6  0  0  0
 54 52  1  0  0  0  0
 54 56  1  0  0  0  0
 55 53  1  0  0  0  0
 55 57  1  1  0  0  0
 56 53  1  0  0  0  0
 57 58  1  0  0  0  0
 58 59  2  0  0  0  0
 60 70  1  1  0  0  0
 60 61  1  0  0  0  0
 61 68  1  1  0  0  0
 62 67  2  0  0  0  0
 63 61  1  0  0  0  0
 64 59  1  6  0  0  0
 64 63  1  0  0  0  0
 65 60  1  0  0  0  0
 66 65  1  0  0  0  0
 67 65  1  0  0  0  0
 67 64  1  0  0  0  0
 70 69  1  0  0  0  0
M  END
>  <MODEL>
7

>  <REMARK>
 VINA RESULT:      -2.9      2.158      3.397
  Name = 
  26 active torsions:
  status: ('A' for Active; 'I' for Inactive)
    1  A    between atoms: C_1  and  C_28
    2  A    between atoms: C_1  and  C_69
    3  A    between atoms: C_2  and  O_10
    4  A    between atoms: C_2  and  C_39
    5  A    between atoms: C_2  and  O_59
    6  A    between atoms: N_4  and  C_18
    7  A    between atoms: C_6  and  C_39
    8  A    between atoms: O_10  and  C_29
    9  A    between atoms: C_11  and  C_29
   10  A    between atoms: C_12  and  O_24
   11  A    between atoms: C_12  and  C_28
   12  A    between atoms: C_13  and  C_67
   13  A    between atoms: C_15  and  C_35
   14  A    between atoms: N_16  and  C_44
   15  A    between atoms: N_16  and  C_54
   16  A    between atoms: C_17  and  C_26
   17  A    between atoms: C_18  and  C_47
   18  A    between atoms: C_20  and  O_59
   19  A    between atoms: O_24  and  C_65
   20  A    between atoms: C_26  and  C_69
   21  A    between atoms: N_30  and  C_54
   22  A    between atoms: C_31  and  C_54
   23  A    between atoms: C_37  and  N_55
   24  A    between atoms: C_38  and  C_49
   25  A    between atoms: C_38  and  C_65
   26  A    between atoms: C_48  and  C_64
                            x       y       z     vdW  Elec       q    Type
                         _______ _______ _______ _____ _____    ______ ____

>  <TORSDO>
F 26

$$$$
=
 OpenBabel10222422123D

 70 75  0  0  1  0  0  0  0  0999 V2000
  188.5220  176.8940  137.6300 C   0  0  2  0  0  3  0  0  0  0  0  0
  189.4740  175.6560  140.0920 S   0  0  0  0  0  0  0  0  0  0  0  0
  189.4960  176.8820  138.7890 C   0  0  1  0  0  3  0  0  0  0  0  0
  191.4430  177.5080  139.9840 C   0  0  1  0  0  3  0  0  0  0  0  0
  191.2080  176.0790  140.4560 C   0  0  0  0  0  2  0  0  0  0  0  0
  190.5240  177.7260  138.8280 C   0  0  0  0  0  2  0  0  0  0  0  0
  191.6190  178.2630  142.3890 C   0  0  0  0  0  0  0  0  0  0  0  0
  191.1290  178.4210  141.0630 N   0  0  0  0  0  2  0  0  0  0  0  0
  192.4880  177.3850  142.6550 O   0  0  0  0  0  0  0  0  0  0  0  0
  191.9440  179.1640  144.7150 C   0  0  0  0  0  1  0  0  0  0  0  0
  191.0820  179.1550  143.4670 C   0  0  2  0  0  3  0  0  0  0  0  0
  189.5850  178.9270  143.7220 C   0  0  0  0  0  2  0  0  0  0  0  0
  189.2170  177.9700  144.8770 C   0  0  2  0  0  3  0  0  0  0  0  0
  190.0980  176.9000  145.1270 O   0  0  0  0  0  1  0  0  0  0  0  0
  187.1490  176.6320  144.3030 C   0  0  0  0  0  1  0  0  0  0  0  0
  187.7330  177.7100  145.1930 C   0  0  1  0  0  3  0  0  0  0  0  0
  187.3510  177.4040  146.6720 C   0  0  1  0  0  3  0  0  0  0  0  0
  188.3740  177.9310  147.6930 C   0  0  0  0  0  1  0  0  0  0  0  0
  186.0780  177.9560  146.9380 O   0  0  0  0  0  0  0  0  0  0  0  0
  185.6080  180.0430  146.0580 O   0  0  0  0  0  1  0  0  0  0  0  0
  185.6800  178.6760  145.7860 C   0  0  2  0  0  3  0  0  0  0  0  0
  184.3160  178.1670  145.3110 C   0  0  0  0  0  2  0  0  0  0  0  0
  183.3470  179.5520  143.4620 O   0  0  0  0  0  1  0  0  0  0  0  0
  184.6430  177.7130  143.0030 O   0  0  0  0  0  0  0  0  0  0  0  0
  184.0900  178.4520  143.8650 C   0  0  0  0  0  0  0  0  0  0  0  0
  186.5180  178.3350  137.7250 C   0  0  0  0  0  3  0  0  0  0  0  0
  187.1370  177.2240  138.0000 N   0  0  0  0  0  0  0  0  0  0  0  0
  180.7430  178.3630  141.0050 C   0  0  0  0  0  0  0  0  0  0  0  0
  181.1180  177.0960  140.3520 C   0  0  0  0  0  0  0  0  0  0  0  0
  182.1900  179.5490  139.3700 C   0  0  2  0  0  3  0  0  0  0  0  0
  181.7130  174.9680  138.6200 C   0  0  0  0  0  3  0  0  0  0  0  0
  183.8710  176.4320  137.5440 S   0  0  0  0  0  0  0  0  0  0  0  0
  185.2350  178.7400  138.3410 C   0  0  0  0  0  2  0  0  0  0  0  0
  182.2800  177.0970  139.5780 C   0  0  0  0  0  0  0  0  0  0  0  0
  180.5750  174.9130  139.4510 C   0  0  0  0  0  3  0  0  0  0  0  0
  180.2760  175.9750  140.3230 C   0  0  0  0  0  3  0  0  0  0  0  0
  183.1180  178.3240  139.4580 C   0  0  1  0  0  3  0  0  0  0  0  0
  179.9830  178.3840  142.0010 O   0  0  0  0  0  0  0  0  0  0  0  0
  184.0780  178.0530  138.3410 C   0  0  2  0  0  3  0  0  0  0  0  0
  181.3650  179.5580  140.5590 O   0  0  0  0  0  0  0  0  0  0  0  0
  182.5670  176.0680  138.7010 C   0  0  0  0  0  0  0  0  0  0  0  0
  181.3670  179.4430  138.2350 O   0  0  0  0  0  0  0  0  0  0  0  0
  181.5340  180.6250  137.5080 C   0  0  1  0  0  3  0  0  0  0  0  0
  181.1490  180.3470  136.0570 C   0  0  0  0  0  2  0  0  0  0  0  0
  181.4350  178.8910  135.6980 C   0  0  0  0  0  2  0  0  0  0  0  0
  180.2330  178.0370  136.0470 C   0  0  0  0  0  1  0  0  0  0  0  0
  180.7150  181.6170  138.0500 O   0  0  0  0  0  0  0  0  0  0  0  0
  181.4190  182.8220  137.9260 C   0  0  0  0  0  2  0  0  0  0  0  0
  180.3380  184.8930  137.3850 O   0  0  0  0  0  1  0  0  0  0  0  0
  180.7750  183.6770  136.8510 C   0  0  0  0  0  2  0  0  0  0  0  0
  188.5240  175.5900  136.9360 N   0  0  0  0  0  2  0  0  0  0  0  0
  190.5210  176.2350  135.8690 O   0  0  0  0  0  0  0  0  0  0  0  0
  191.1650  174.1200  135.0000 C   0  0  0  0  0  2  0  0  0  0  0  0
  189.9060  175.2190  136.6110 C   0  0  2  0  0  3  0  0  0  0  0  0
  191.2100  175.6080  134.8170 C   0  0  2  0  0  3  0  0  0  0  0  0
  189.9290  173.9450  135.8000 C   0  0  0  0  0  2  0  0  0  0  0  0
  192.6190  176.1680  134.7540 C   0  0  0  0  0  2  0  0  0  0  0  0
  193.6180  175.1320  134.7450 N   0  0  0  0  0  0  0  0  0  0  0  0
  194.6880  175.2100  135.4560 C   0  0  0  0  0  3  0  0  0  0  0  0
  197.3930  172.3550  137.1930 C   0  0  2  0  0  3  0  0  0  0  0  0
  196.1510  171.8710  136.4440 C   0  0  2  0  0  3  0  0  0  0  0  0
  197.5310  175.6230  135.4920 O   0  0  0  0  0  0  0  0  0  0  0  0
  195.1320  172.9780  136.3140 C   0  0  0  0  0  2  0  0  0  0  0  0
  195.6830  174.0940  135.4370 C   0  0  2  0  0  3  0  0  0  0  0  0
  197.8240  173.7090  136.7960 N   0  0  0  0  0  0  0  0  0  0  0  0
  198.9690  174.3040  137.4710 C   0  0  0  0  0  1  0  0  0  0  0  0
  197.0400  174.5380  135.9120 C   0  0  0  0  0  0  0  0  0  0  0  0
  195.5770  170.7830  137.1170 O   0  0  0  0  0  1  0  0  0  0  0  0
  198.2200  170.1430  137.6170 O   0  0  0  0  0  1  0  0  0  0  0  0
  198.5220  171.3520  136.9750 C   0  0  0  0  0  2  0  0  0  0  0  0
  1 51  1  1  0  0  0
  1 27  1  0  0  0  0
  2  5  1  0  0  0  0
  3  1  1  6  0  0  0
  3  6  1  0  0  0  0
  3  2  1  0  0  0  0
  4  5  1  0  0  0  0
  4  8  1  1  0  0  0
  6  4  1  0  0  0  0
  7  9  2  0  0  0  0
  7 11  1  0  0  0  0
  8  7  1  0  0  0  0
 11 12  1  0  0  0  0
 11 10  1  1  0  0  0
 12 13  1  0  0  0  0
 13 14  1  6  0  0  0
 13 16  1  0  0  0  0
 16 15  1  6  0  0  0
 16 17  1  0  0  0  0
 17 19  1  0  0  0  0
 17 18  1  1  0  0  0
 21 20  1  1  0  0  0
 21 19  1  0  0  0  0
 22 21  1  0  0  0  0
 23 25  1  0  0  0  0
 24 25  2  0  0  0  0
 25 22  1  0  0  0  0
 26 27  2  0  0  0  0
 26 33  1  0  0  0  0
 28 38  2  0  0  0  0
 29 28  1  0  0  0  0
 30 42  1  6  0  0  0
 30 37  1  0  0  0  0
 30 40  1  0  0  0  0
 31 41  2  0  0  0  0
 31 35  1  0  0  0  0
 32 39  1  0  0  0  0
 32 41  1  0  0  0  0
 34 29  2  0  0  0  0
 35 36  2  0  0  0  0
 36 29  1  0  0  0  0
 37 34  1  6  0  0  0
 39 33  1  1  0  0  0
 39 37  1  0  0  0  0
 40 28  1  0  0  0  0
 41 34  1  0  0  0  0
 43 44  1  6  0  0  0
 43 47  1  0  0  0  0
 43 42  1  0  0  0  0
 45 46  1  0  0  0  0
 45 44  1  0  0  0  0
 48 47  1  0  0  0  0
 50 49  1  0  0  0  0
 50 48  1  0  0  0  0
 52 54  1  0  0  0  0
 53 56  1  0  0  0  0
 54 51  1  6  0  0  0
 55 57  1  1  0  0  0
 55 53  1  0  0  0  0
 55 52  1  0  0  0  0
 56 54  1  0  0  0  0
 58 57  1  0  0  0  0
 58 59  2  0  0  0  0
 60 70  1  6  0  0  0
 61 68  1  1  0  0  0
 61 60  1  0  0  0  0
 62 67  2  0  0  0  0
 63 61  1  0  0  0  0
 64 59  1  1  0  0  0
 64 67  1  0  0  0  0
 64 63  1  0  0  0  0
 65 60  1  0  0  0  0
 65 66  1  0  0  0  0
 67 65  1  0  0  0  0
 70 69  1  0  0  0  0
M  END
>  <MODEL>
8

>  <REMARK>
 VINA RESULT:      -2.9      2.976     11.076
  Name = 
  26 active torsions:
  status: ('A' for Active; 'I' for Inactive)
    1  A    between atoms: C_1  and  C_28
    2  A    between atoms: C_1  and  C_69
    3  A    between atoms: C_2  and  O_10
    4  A    between atoms: C_2  and  C_39
    5  A    between atoms: C_2  and  O_59
    6  A    between atoms: N_4  and  C_18
    7  A    between atoms: C_6  and  C_39
    8  A    between atoms: O_10  and  C_29
    9  A    between atoms: C_11  and  C_29
   10  A    between atoms: C_12  and  O_24
   11  A    between atoms: C_12  and  C_28
   12  A    between atoms: C_13  and  C_67
   13  A    between atoms: C_15  and  C_35
   14  A    between atoms: N_16  and  C_44
   15  A    between atoms: N_16  and  C_54
   16  A    between atoms: C_17  and  C_26
   17  A    between atoms: C_18  and  C_47
   18  A    between atoms: C_20  and  O_59
   19  A    between atoms: O_24  and  C_65
   20  A    between atoms: C_26  and  C_69
   21  A    between atoms: N_30  and  C_54
   22  A    between atoms: C_31  and  C_54
   23  A    between atoms: C_37  and  N_55
   24  A    between atoms: C_38  and  C_49
   25  A    between atoms: C_38  and  C_65
   26  A    between atoms: C_48  and  C_64
                            x       y       z     vdW  Elec       q    Type
                         _______ _______ _______ _____ _____    ______ ____

>  <TORSDO>
F 26

$$$$
=
 OpenBabel10222422123D

 70 75  0  0  1  0  0  0  0  0999 V2000
  189.2520  173.8680  137.0080 C   0  0  2  0  0  3  0  0  0  0  0  0
  191.7200  172.6760  136.0140 S   0  0  0  0  0  0  0  0  0  0  0  0
  190.4770  173.9580  136.1220 C   0  0  1  0  0  3  0  0  0  0  0  0
  191.8360  174.8390  134.3950 C   0  0  1  0  0  3  0  0  0  0  0  0
  192.2270  173.3670  134.4070 C   0  0  0  0  0  2  0  0  0  0  0  0
  190.6270  174.9610  135.2620 C   0  0  0  0  0  2  0  0  0  0  0  0
  194.2790  175.1770  134.9460 C   0  0  0  0  0  0  0  0  0  0  0  0
  192.9290  175.6240  134.9300 N   0  0  0  0  0  2  0  0  0  0  0  0
  194.6140  174.1160  134.3470 O   0  0  0  0  0  0  0  0  0  0  0  0
  195.1270  177.4800  135.4950 C   0  0  0  0  0  1  0  0  0  0  0  0
  195.2960  175.9850  135.6920 C   0  0  2  0  0  3  0  0  0  0  0  0
  196.7260  175.4670  135.4770 C   0  0  0  0  0  2  0  0  0  0  0  0
  197.3600  174.6790  136.6440 C   0  0  2  0  0  3  0  0  0  0  0  0
  197.3900  175.3110  137.9020 O   0  0  0  0  0  1  0  0  0  0  0  0
  199.6630  173.8840  137.3240 C   0  0  0  0  0  1  0  0  0  0  0  0
  198.5140  173.7040  136.3520 C   0  0  1  0  0  3  0  0  0  0  0  0
  198.1730  172.1870  136.2520 C   0  0  1  0  0  3  0  0  0  0  0  0
  199.4110  171.2740  136.2990 C   0  0  0  0  0  1  0  0  0  0  0  0
  197.2870  171.8480  137.2980 O   0  0  0  0  0  0  0  0  0  0  0  0
  195.7040  171.7460  135.6140 O   0  0  0  0  0  1  0  0  0  0  0  0
  196.2310  171.0950  136.7310 C   0  0  2  0  0  3  0  0  0  0  0  0
  195.1330  170.8850  137.7770 C   0  0  0  0  0  2  0  0  0  0  0  0
  195.7860  168.6970  138.8060 O   0  0  0  0  0  1  0  0  0  0  0  0
  193.8240  168.9090  137.6330 O   0  0  0  0  0  0  0  0  0  0  0  0
  194.8930  169.4390  138.0480 C   0  0  0  0  0  0  0  0  0  0  0  0
  187.3480  175.2810  136.3200 C   0  0  0  0  0  3  0  0  0  0  0  0
  187.9800  174.1450  136.3220 N   0  0  0  0  0  0  0  0  0  0  0  0
  181.3270  177.7350  134.9640 C   0  0  0  0  0  0  0  0  0  0  0  0
  181.9900  178.2580  136.1720 C   0  0  0  0  0  0  0  0  0  0  0  0
  182.7170  175.6870  135.1770 C   0  0  2  0  0  3  0  0  0  0  0  0
  183.1400  178.7300  138.6890 C   0  0  0  0  0  3  0  0  0  0  0  0
  185.1130  176.7840  138.1650 S   0  0  0  0  0  0  0  0  0  0  0  0
  185.9530  175.4490  135.8560 C   0  0  0  0  0  2  0  0  0  0  0  0
  183.2130  177.6860  136.5270 C   0  0  0  0  0  0  0  0  0  0  0  0
  181.9430  179.3790  138.3200 C   0  0  0  0  0  3  0  0  0  0  0  0
  181.3660  179.1490  137.0580 C   0  0  0  0  0  3  0  0  0  0  0  0
  183.8300  176.6190  135.6890 C   0  0  1  0  0  3  0  0  0  0  0  0
  180.4690  178.4090  134.3460 O   0  0  0  0  0  0  0  0  0  0  0  0
  184.9410  176.0470  136.5120 C   0  0  2  0  0  3  0  0  0  0  0  0
  181.7760  176.4980  134.4350 O   0  0  0  0  0  0  0  0  0  0  0  0
  183.7730  177.8880  137.7740 C   0  0  0  0  0  0  0  0  0  0  0  0
  182.0580  175.0900  136.2670 O   0  0  0  0  0  0  0  0  0  0  0  0
  181.7070  173.7990  135.8620 C   0  0  1  0  0  3  0  0  0  0  0  0
  182.9750  172.9480  135.8430 C   0  0  0  0  0  2  0  0  0  0  0  0
  183.4160  172.6160  137.2650 C   0  0  0  0  0  2  0  0  0  0  0  0
  184.9290  172.5800  137.3310 C   0  0  0  0  0  1  0  0  0  0  0  0
  180.7780  173.2730  136.7620 O   0  0  0  0  0  0  0  0  0  0  0  0
  180.1820  172.1790  136.1190 C   0  0  0  0  0  2  0  0  0  0  0  0
  180.7150  171.3270  138.2970 O   0  0  0  0  0  1  0  0  0  0  0  0
  180.1150  171.0040  137.0760 C   0  0  0  0  0  2  0  0  0  0  0  0
  189.3750  174.7870  138.1580 N   0  0  0  0  0  2  0  0  0  0  0  0
  191.1090  175.8310  139.3590 O   0  0  0  0  0  0  0  0  0  0  0  0
  191.5590  177.6200  137.8610 C   0  0  0  0  0  2  0  0  0  0  0  0
  190.6600  175.4910  138.0780 C   0  0  2  0  0  3  0  0  0  0  0  0
  191.5670  177.1580  139.2890 C   0  0  2  0  0  3  0  0  0  0  0  0
  190.5150  176.7550  137.2630 C   0  0  0  0  0  2  0  0  0  0  0  0
  192.9330  177.2390  139.9440 C   0  0  0  0  0  2  0  0  0  0  0  0
  192.8450  177.3960  141.3720 N   0  0  0  0  0  0  0  0  0  0  0  0
  191.7370  177.6820  141.9610 C   0  0  0  0  0  3  0  0  0  0  0  0
  190.2570  176.8330  145.9070 C   0  0  2  0  0  3  0  0  0  0  0  0
  191.6850  176.4400  145.5270 C   0  0  2  0  0  3  0  0  0  0  0  0
  189.9660  179.4710  143.3470 O   0  0  0  0  0  0  0  0  0  0  0  0
  191.8550  176.4050  144.0270 C   0  0  0  0  0  2  0  0  0  0  0  0
  191.6890  177.8040  143.4500 C   0  0  2  0  0  3  0  0  0  0  0  0
  189.7120  177.9260  145.0780 N   0  0  0  0  0  0  0  0  0  0  0  0
  188.3420  178.3620  145.3090 C   0  0  0  0  0  1  0  0  0  0  0  0
  190.4110  178.4400  143.9250 C   0  0  0  0  0  0  0  0  0  0  0  0
  191.9960  175.1820  146.0640 O   0  0  0  0  0  1  0  0  0  0  0  0
  189.1000  178.0050  147.6520 O   0  0  0  0  0  1  0  0  0  0  0  0
  190.2290  177.2200  147.3830 C   0  0  0  0  0  2  0  0  0  0  0  0
  1 27  1  6  0  0  0
  1 51  1  0  0  0  0
  2  3  1  0  0  0  0
  3  1  1  6  0  0  0
  4  5  1  0  0  0  0
  4  8  1  1  0  0  0
  4  6  1  0  0  0  0
  5  2  1  0  0  0  0
  6  3  1  0  0  0  0
  7 11  1  0  0  0  0
  8  7  1  0  0  0  0
  9  7  2  0  0  0  0
 11 10  1  6  0  0  0
 12 11  1  0  0  0  0
 12 13  1  0  0  0  0
 13 14  1  1  0  0  0
 16 13  1  0  0  0  0
 16 15  1  1  0  0  0
 17 18  1  1  0  0  0
 17 16  1  0  0  0  0
 17 19  1  0  0  0  0
 21 20  1  6  0  0  0
 21 19  1  0  0  0  0
 21 22  1  0  0  0  0
 22 25  1  0  0  0  0
 24 25  2  0  0  0  0
 25 23  1  0  0  0  0
 26 27  2  0  0  0  0
 28 29  1  0  0  0  0
 29 34  2  0  0  0  0
 29 36  1  0  0  0  0
 30 37  1  0  0  0  0
 30 42  1  1  0  0  0
 33 26  1  0  0  0  0
 34 41  1  0  0  0  0
 35 31  1  0  0  0  0
 36 35  2  0  0  0  0
 37 39  1  0  0  0  0
 37 34  1  1  0  0  0
 38 28  2  0  0  0  0
 39 33  1  6  0  0  0
 39 32  1  0  0  0  0
 40 28  1  0  0  0  0
 40 30  1  0  0  0  0
 41 32  1  0  0  0  0
 41 31  2  0  0  0  0
 43 44  1  1  0  0  0
 43 42  1  0  0  0  0
 43 47  1  0  0  0  0
 44 45  1  0  0  0  0
 45 46  1  0  0  0  0
 48 47  1  0  0  0  0
 48 50  1  0  0  0  0
 50 49  1  0  0  0  0
 53 55  1  0  0  0  0
 54 51  1  1  0  0  0
 54 52  1  0  0  0  0
 55 52  1  0  0  0  0
 55 57  1  6  0  0  0
 56 53  1  0  0  0  0
 56 54  1  0  0  0  0
 57 58  1  0  0  0  0
 58 59  2  0  0  0  0
 60 70  1  1  0  0  0
 61 60  1  0  0  0  0
 61 68  1  6  0  0  0
 62 67  2  0  0  0  0
 63 61  1  0  0  0  0
 64 59  1  6  0  0  0
 64 67  1  0  0  0  0
 64 63  1  0  0  0  0
 65 66  1  0  0  0  0
 65 60  1  0  0  0  0
 67 65  1  0  0  0  0
 70 69  1  0  0  0  0
M  END
>  <MODEL>
9

>  <REMARK>
 VINA RESULT:      -2.7      2.595      4.003
  Name = 
  26 active torsions:
  status: ('A' for Active; 'I' for Inactive)
    1  A    between atoms: C_1  and  C_28
    2  A    between atoms: C_1  and  C_69
    3  A    between atoms: C_2  and  O_10
    4  A    between atoms: C_2  and  C_39
    5  A    between atoms: C_2  and  O_59
    6  A    between atoms: N_4  and  C_18
    7  A    between atoms: C_6  and  C_39
    8  A    between atoms: O_10  and  C_29
    9  A    between atoms: C_11  and  C_29
   10  A    between atoms: C_12  and  O_24
   11  A    between atoms: C_12  and  C_28
   12  A    between atoms: C_13  and  C_67
   13  A    between atoms: C_15  and  C_35
   14  A    between atoms: N_16  and  C_44
   15  A    between atoms: N_16  and  C_54
   16  A    between atoms: C_17  and  C_26
   17  A    between atoms: C_18  and  C_47
   18  A    between atoms: C_20  and  O_59
   19  A    between atoms: O_24  and  C_65
   20  A    between atoms: C_26  and  C_69
   21  A    between atoms: N_30  and  C_54
   22  A    between atoms: C_31  and  C_54
   23  A    between atoms: C_37  and  N_55
   24  A    between atoms: C_38  and  C_49
   25  A    between atoms: C_38  and  C_65
   26  A    between atoms: C_48  and  C_64
                            x       y       z     vdW  Elec       q    Type
                         _______ _______ _______ _____ _____    ______ ____

>  <TORSDO>
F 26

$$$$
