=
 OpenBabel10232411433D

 27 31  0  0  1  0  0  0  0  0999 V2000
  190.5370  176.7860  140.4840 N   0  0  0  0  0  0  0  0  0  0  0  0
  190.9970  176.6210  142.9900 C   0  0  0  0  0  2  0  0  0  0  0  0
  190.2070  177.5850  143.8650 C   0  0  1  0  0  3  0  0  0  0  0  0
  188.4860  177.3110  139.5050 O   0  0  0  0  0  1  0  0  0  0  0  0
  189.1840  178.2060  142.9260 C   0  0  0  0  0  2  0  0  0  0  0  0
  188.8980  177.1780  141.8470 C   0  0  2  0  0  3  0  0  0  0  0  0
  190.1020  176.2640  141.7960 C   0  0  1  0  0  3  0  0  0  0  0  0
  189.3860  177.6850  140.5040 C   0  0  1  0  0  3  0  0  0  0  0  0
  186.6660  177.0490  144.4460 O   0  0  0  0  0  0  0  0  0  0  0  0
  190.0500  177.1830  147.3130 C   0  0  0  0  0  2  0  0  0  0  0  0
  187.2300  177.4700  145.4910 C   0  0  0  0  0  0  0  0  0  0  0  0
  186.5300  177.6740  146.7750 C   0  0  1  0  0  3  0  0  0  0  0  0
  190.5440  176.5920  145.9960 C   0  0  0  0  0  2  0  0  0  0  0  0
  188.6210  177.7190  145.5660 N   0  0  0  0  0  0  0  0  0  0  0  0
  188.9460  178.1210  146.9100 C   0  0  1  0  0  3  0  0  0  0  0  0
  187.6860  177.8920  147.7560 C   0  0  0  0  0  2  0  0  0  0  0  0
  189.5450  176.8550  144.9540 N   0  0  1  0  0  0  0  0  0  0  0  0
  185.9790  179.9190  147.3510 O   0  0  0  0  0  0  0  0  0  0  0  0
  184.4430  178.8750  145.9600 N   0  0  0  0  0  1  0  0  0  0  0  0
  185.6490  178.8820  146.7200 C   0  0  0  0  0  0  0  0  0  0  0  0
  191.7430  177.6150  140.5360 C   0  0  0  0  0  2  0  0  0  0  0  0
  192.9000  176.9300  139.8150 C   0  0  0  0  0  2  0  0  0  0  0  0
  192.6470  176.7360  138.3190 C   0  0  1  0  0  3  0  0  0  0  0  0
  193.7960  177.0250  137.5810 O   0  0  0  0  0  1  0  0  0  0  0  0
  192.1570  175.3310  138.0030 C   0  0  2  0  0  3  0  0  0  0  0  0
  192.1390  175.1530  136.6080 O   0  0  0  0  0  0  0  0  0  0  0  0
  190.8990  175.3900  137.2290 C   0  0  0  0  0  2  0  0  0  0  0  0
  1  8  1  0  0  0  0
  1 21  1  0  0  0  0
  1  7  1  0  0  0  0
  2  3  1  0  0  0  0
  3  5  1  6  0  0  0
  3 17  1  0  0  0  0
  6  5  1  1  0  0  0
  7  6  1  0  0  0  0
  7  2  1  1  0  0  0
  8  4  1  6  0  0  0
  8  6  1  0  0  0  0
  9 11  2  0  0  0  0
 11 14  1  0  0  0  0
 11 12  1  0  0  0  0
 12 20  1  6  0  0  0
 12 16  1  0  0  0  0
 13 10  1  0  0  0  0
 14 15  1  0  0  0  0
 15 10  1  1  0  0  0
 15 16  1  0  0  0  0
 17 14  1  0  0  0  0
 17 13  1  1  0  0  0
 19 20  1  0  0  0  0
 20 18  2  0  0  0  0
 22 21  1  0  0  0  0
 23 24  1  6  0  0  0
 23 22  1  0  0  0  0
 25 23  1  6  0  0  0
 26 27  1  0  0  0  0
 26 25  1  0  0  0  0
 27 25  1  0  0  0  0
M  END
>  <MODEL>
1

>  <REMARK>
 VINA RESULT:      -7.7      0.000      0.000
  Name = 
  6 active torsions:
  status: ('A' for Active; 'I' for Inactive)
    1  A    between atoms: C_1  and  C_12
    2  A    between atoms: C_2  and  C_12
    3  A    between atoms: C_2  and  C_18
    4  A    between atoms: C_7  and  C_27
    5  A    between atoms: N_8  and  C_18
    6  A    between atoms: C_11  and  N_24
                            x       y       z     vdW  Elec       q    Type
                         _______ _______ _______ _____ _____    ______ ____

>  <TORSDO>
F 6

$$$$
=
 OpenBabel10232411433D

 27 31  0  0  1  0  0  0  0  0999 V2000
  184.1560  179.3680  143.0070 N   0  0  0  0  0  0  0  0  0  0  0  0
  185.1210  178.7810  145.2970 C   0  0  0  0  0  2  0  0  0  0  0  0
  186.2860  177.8000  145.2840 C   0  0  1  0  0  3  0  0  0  0  0  0
  185.3650  179.5360  141.0190 O   0  0  0  0  0  1  0  0  0  0  0  0
  186.6550  177.6620  143.8140 C   0  0  0  0  0  2  0  0  0  0  0  0
  186.2820  178.9700  143.1430 C   0  0  2  0  0  3  0  0  0  0  0  0
  185.2170  179.6070  144.0080 C   0  0  1  0  0  3  0  0  0  0  0  0
  185.1590  178.7420  142.1490 C   0  0  1  0  0  3  0  0  0  0  0  0
  189.7120  178.3920  144.2460 O   0  0  0  0  0  0  0  0  0  0  0  0
  188.0460  177.5380  148.2680 C   0  0  0  0  0  2  0  0  0  0  0  0
  189.6790  177.7500  145.3290 C   0  0  0  0  0  0  0  0  0  0  0  0
  190.8860  177.3370  146.0750 C   0  0  1  0  0  3  0  0  0  0  0  0
  187.0230  178.3450  147.4740 C   0  0  0  0  0  2  0  0  0  0  0  0
  188.4720  177.4210  145.9910 N   0  0  0  0  0  0  0  0  0  0  0  0
  188.7910  176.7520  147.2260 C   0  0  1  0  0  3  0  0  0  0  0  0
  190.3100  176.8770  147.4170 C   0  0  0  0  0  2  0  0  0  0  0  0
  187.4120  178.3390  146.0590 N   0  0  1  0  0  0  0  0  0  0  0  0
  192.2310  175.3710  146.0650 O   0  0  0  0  0  0  0  0  0  0  0  0
  191.5230  176.0670  143.9670 N   0  0  0  0  0  1  0  0  0  0  0  0
  191.5840  176.2080  145.3850 C   0  0  0  0  0  0  0  0  0  0  0  0
  183.1940  178.3300  143.3850 C   0  0  0  0  0  2  0  0  0  0  0  0
  181.9020  178.9550  143.9040 C   0  0  0  0  0  2  0  0  0  0  0  0
  180.8140  179.0630  142.8350 C   0  0  1  0  0  3  0  0  0  0  0  0
  180.3230  180.3670  142.7600 O   0  0  0  0  0  1  0  0  0  0  0  0
  181.3110  178.6070  141.4720 C   0  0  2  0  0  3  0  0  0  0  0  0
  180.3590  178.9530  140.4960 O   0  0  0  0  0  0  0  0  0  0  0  0
  180.3850  177.6060  140.9000 C   0  0  0  0  0  2  0  0  0  0  0  0
  1 21  1  0  0  0  0
  1  7  1  0  0  0  0
  3  5  1  6  0  0  0
  3  2  1  0  0  0  0
  3 17  1  0  0  0  0
  6  5  1  1  0  0  0
  6  7  1  0  0  0  0
  7  2  1  1  0  0  0
  8  4  1  6  0  0  0
  8  1  1  0  0  0  0
  8  6  1  0  0  0  0
  9 11  2  0  0  0  0
 11 14  1  0  0  0  0
 11 12  1  0  0  0  0
 12 20  1  6  0  0  0
 12 16  1  0  0  0  0
 13 10  1  0  0  0  0
 14 17  1  0  0  0  0
 14 15  1  0  0  0  0
 15 16  1  1  0  0  0
 15 10  1  0  0  0  0
 17 13  1  1  0  0  0
 19 20  1  0  0  0  0
 20 18  2  0  0  0  0
 21 22  1  0  0  0  0
 23 24  1  6  0  0  0
 23 22  1  0  0  0  0
 25 23  1  1  0  0  0
 26 27  1  0  0  0  0
 26 25  1  0  0  0  0
 27 25  1  0  0  0  0
M  END
>  <MODEL>
2

>  <REMARK>
 VINA RESULT:      -7.6      4.365      7.467
  Name = 
  6 active torsions:
  status: ('A' for Active; 'I' for Inactive)
    1  A    between atoms: C_1  and  C_12
    2  A    between atoms: C_2  and  C_12
    3  A    between atoms: C_2  and  C_18
    4  A    between atoms: C_7  and  C_27
    5  A    between atoms: N_8  and  C_18
    6  A    between atoms: C_11  and  N_24
                            x       y       z     vdW  Elec       q    Type
                         _______ _______ _______ _____ _____    ______ ____

>  <TORSDO>
F 6

$$$$
=
 OpenBabel10232411433D

 27 31  0  0  1  0  0  0  0  0999 V2000
  188.1650  178.3980  139.6010 N   0  0  0  0  0  0  0  0  0  0  0  0
  186.8780  178.5590  141.8010 C   0  0  0  0  0  2  0  0  0  0  0  0
  187.2780  177.5480  142.8680 C   0  0  1  0  0  3  0  0  0  0  0  0
  190.4030  177.7850  139.3710 O   0  0  0  0  0  1  0  0  0  0  0  0
  188.5350  176.8880  142.3200 C   0  0  0  0  0  2  0  0  0  0  0  0
  189.2160  177.9120  141.4320 C   0  0  2  0  0  3  0  0  0  0  0  0
  188.1430  178.8840  140.9960 C   0  0  1  0  0  3  0  0  0  0  0  0
  189.1990  177.4440  139.9900 C   0  0  1  0  0  3  0  0  0  0  0  0
  190.4530  178.6530  144.2310 O   0  0  0  0  0  0  0  0  0  0  0  0
  186.6980  177.4990  146.2930 C   0  0  0  0  0  2  0  0  0  0  0  0
  189.8050  177.9950  145.0880 C   0  0  0  0  0  0  0  0  0  0  0  0
  190.2790  177.7520  146.4660 C   0  0  1  0  0  3  0  0  0  0  0  0
  186.3460  178.1600  144.9640 C   0  0  0  0  0  2  0  0  0  0  0  0
  188.5090  177.4830  144.8440 N   0  0  0  0  0  0  0  0  0  0  0  0
  188.0300  176.8480  146.0450 C   0  0  1  0  0  3  0  0  0  0  0  0
  189.0320  177.1910  147.1560 C   0  0  0  0  0  2  0  0  0  0  0  0
  187.5560  178.2340  144.1370 N   0  0  1  0  0  0  0  0  0  0  0  0
  191.6980  176.1490  145.4220 O   0  0  0  0  0  0  0  0  0  0  0  0
  192.1030  176.4680  147.6850 N   0  0  0  0  0  1  0  0  0  0  0  0
  191.3890  176.7490  146.4830 C   0  0  0  0  0  0  0  0  0  0  0  0
  186.9800  177.6270  139.2140 C   0  0  0  0  0  2  0  0  0  0  0  0
  186.0700  178.4550  138.3110 C   0  0  0  0  0  2  0  0  0  0  0  0
  184.7050  178.7450  138.9360 C   0  0  1  0  0  3  0  0  0  0  0  0
  184.5120  180.1190  139.0870 O   0  0  0  0  0  1  0  0  0  0  0  0
  183.5690  178.1390  138.1270 C   0  0  2  0  0  3  0  0  0  0  0  0
  182.3480  178.4210  138.7650 O   0  0  0  0  0  0  0  0  0  0  0  0
  182.8570  177.1210  138.9290 C   0  0  0  0  0  2  0  0  0  0  0  0
  1  8  1  0  0  0  0
  1  7  1  0  0  0  0
  3  2  1  6  0  0  0
  3 17  1  0  0  0  0
  5  3  1  0  0  0  0
  6  5  1  1  0  0  0
  7  6  1  0  0  0  0
  7  2  1  1  0  0  0
  8  4  1  6  0  0  0
  8  6  1  0  0  0  0
  9 11  2  0  0  0  0
 11 12  1  0  0  0  0
 12 20  1  6  0  0  0
 12 16  1  0  0  0  0
 13 10  1  0  0  0  0
 14 11  1  0  0  0  0
 14 15  1  0  0  0  0
 15 10  1  1  0  0  0
 15 16  1  0  0  0  0
 17 14  1  0  0  0  0
 17 13  1  1  0  0  0
 18 20  2  0  0  0  0
 20 19  1  0  0  0  0
 21  1  1  0  0  0  0
 22 23  1  0  0  0  0
 22 21  1  0  0  0  0
 23 24  1  6  0  0  0
 25 26  1  0  0  0  0
 25 27  1  0  0  0  0
 25 23  1  1  0  0  0
 26 27  1  0  0  0  0
M  END
>  <MODEL>
3

>  <REMARK>
 VINA RESULT:      -7.1      3.306      5.459
  Name = 
  6 active torsions:
  status: ('A' for Active; 'I' for Inactive)
    1  A    between atoms: C_1  and  C_12
    2  A    between atoms: C_2  and  C_12
    3  A    between atoms: C_2  and  C_18
    4  A    between atoms: C_7  and  C_27
    5  A    between atoms: N_8  and  C_18
    6  A    between atoms: C_11  and  N_24
                            x       y       z     vdW  Elec       q    Type
                         _______ _______ _______ _____ _____    ______ ____

>  <TORSDO>
F 6

$$$$
=
 OpenBabel10232411433D

 27 31  0  0  1  0  0  0  0  0999 V2000
  190.1140  177.3690  138.5000 N   0  0  0  0  0  0  0  0  0  0  0  0
  188.4930  177.7810  140.4300 C   0  0  0  0  0  2  0  0  0  0  0  0
  188.7710  176.9850  141.6980 C   0  0  1  0  0  3  0  0  0  0  0  0
  192.3880  176.8950  138.7060 O   0  0  0  0  0  1  0  0  0  0  0  0
  190.1280  176.3410  141.4590 C   0  0  0  0  0  2  0  0  0  0  0  0
  190.8890  177.2590  140.5200 C   0  0  2  0  0  3  0  0  0  0  0  0
  189.8500  178.0680  139.7750 C   0  0  1  0  0  3  0  0  0  0  0  0
  191.1200  176.5680  139.1910 C   0  0  1  0  0  3  0  0  0  0  0  0
  191.6190  178.0270  143.6890 O   0  0  0  0  0  0  0  0  0  0  0  0
  187.3330  177.6840  144.7830 C   0  0  0  0  0  2  0  0  0  0  0  0
  190.6820  177.6220  144.4290 C   0  0  0  0  0  0  0  0  0  0  0  0
  190.7460  177.6160  145.9050 C   0  0  1  0  0  3  0  0  0  0  0  0
  187.4350  178.0950  143.3170 C   0  0  0  0  0  2  0  0  0  0  0  0
  189.4310  177.2000  143.9210 N   0  0  0  0  0  0  0  0  0  0  0  0
  188.5720  176.8690  145.0290 C   0  0  1  0  0  3  0  0  0  0  0  0
  189.2960  177.3300  146.3030 C   0  0  0  0  0  2  0  0  0  0  0  0
  188.8130  177.8820  142.8610 N   0  0  1  0  0  0  0  0  0  0  0  0
  192.0340  175.6350  145.6070 O   0  0  0  0  0  0  0  0  0  0  0  0
  192.0950  176.5110  147.7550 N   0  0  0  0  0  1  0  0  0  0  0  0
  191.6540  176.5340  146.3990 C   0  0  0  0  0  0  0  0  0  0  0  0
  189.0430  176.4610  138.0800 C   0  0  0  0  0  2  0  0  0  0  0  0
  188.3050  177.0230  136.8680 C   0  0  0  0  0  2  0  0  0  0  0  0
  186.8960  177.5190  137.1990 C   0  0  1  0  0  3  0  0  0  0  0  0
  186.8850  178.9060  137.3570 O   0  0  0  0  0  1  0  0  0  0  0  0
  185.8840  177.1000  136.1430 C   0  0  2  0  0  3  0  0  0  0  0  0
  184.5860  177.3320  136.6330 O   0  0  0  0  0  0  0  0  0  0  0  0
  185.0390  176.0000  136.6540 C   0  0  0  0  0  2  0  0  0  0  0  0
  1  8  1  0  0  0  0
  1  7  1  0  0  0  0
  3  2  1  6  0  0  0
  3 17  1  0  0  0  0
  5  3  1  0  0  0  0
  6  5  1  1  0  0  0
  7  2  1  1  0  0  0
  7  6  1  0  0  0  0
  8  4  1  6  0  0  0
  8  6  1  0  0  0  0
  9 11  2  0  0  0  0
 11 12  1  0  0  0  0
 12 16  1  0  0  0  0
 12 20  1  6  0  0  0
 13 10  1  0  0  0  0
 14 11  1  0  0  0  0
 14 15  1  0  0  0  0
 15 10  1  6  0  0  0
 15 16  1  0  0  0  0
 17 13  1  1  0  0  0
 17 14  1  0  0  0  0
 18 20  2  0  0  0  0
 20 19  1  0  0  0  0
 21  1  1  0  0  0  0
 22 23  1  0  0  0  0
 22 21  1  0  0  0  0
 23 24  1  6  0  0  0
 25 26  1  0  0  0  0
 25 27  1  0  0  0  0
 25 23  1  1  0  0  0
 26 27  1  0  0  0  0
M  END
>  <MODEL>
4

>  <REMARK>
 VINA RESULT:      -7.1      2.939      4.787
  Name = 
  6 active torsions:
  status: ('A' for Active; 'I' for Inactive)
    1  A    between atoms: C_1  and  C_12
    2  A    between atoms: C_2  and  C_12
    3  A    between atoms: C_2  and  C_18
    4  A    between atoms: C_7  and  C_27
    5  A    between atoms: N_8  and  C_18
    6  A    between atoms: C_11  and  N_24
                            x       y       z     vdW  Elec       q    Type
                         _______ _______ _______ _____ _____    ______ ____

>  <TORSDO>
F 6

$$$$
=
 OpenBabel10232411433D

 27 31  0  0  1  0  0  0  0  0999 V2000
  190.6970  177.1080  138.3200 N   0  0  0  0  0  0  0  0  0  0  0  0
  188.7630  177.4160  139.9590 C   0  0  0  0  0  2  0  0  0  0  0  0
  189.0050  176.8820  141.3640 C   0  0  1  0  0  3  0  0  0  0  0  0
  192.9650  177.1740  138.8580 O   0  0  0  0  0  1  0  0  0  0  0  0
  190.4840  176.5230  141.3890 C   0  0  0  0  0  2  0  0  0  0  0  0
  191.1760  177.4480  140.4060 C   0  0  2  0  0  3  0  0  0  0  0  0
  190.1170  177.9000  139.4240 C   0  0  1  0  0  3  0  0  0  0  0  0
  191.7310  176.6480  139.2430 C   0  0  1  0  0  3  0  0  0  0  0  0
  191.0850  178.1790  144.0380 O   0  0  0  0  0  0  0  0  0  0  0  0
  186.6670  177.9510  143.7010 C   0  0  0  0  0  2  0  0  0  0  0  0
  189.9450  177.8640  144.4730 C   0  0  0  0  0  0  0  0  0  0  0  0
  189.5250  178.0430  145.8780 C   0  0  1  0  0  3  0  0  0  0  0  0
  187.2550  178.1770  142.3110 C   0  0  0  0  0  2  0  0  0  0  0  0
  188.9130  177.3750  143.6380 N   0  0  0  0  0  0  0  0  0  0  0  0
  187.7290  177.1810  144.4350 C   0  0  1  0  0  3  0  0  0  0  0  0
  188.0150  177.8000  145.8100 C   0  0  0  0  0  2  0  0  0  0  0  0
  188.6980  177.9170  142.3600 N   0  0  1  0  0  0  0  0  0  0  0  0
  189.4720  176.2820  147.4810 O   0  0  0  0  0  0  0  0  0  0  0  0
  191.6030  176.9170  146.8150 N   0  0  0  0  0  1  0  0  0  0  0  0
  190.1830  177.0350  146.7680 C   0  0  0  0  0  0  0  0  0  0  0  0
  189.9010  175.9400  137.9360 C   0  0  0  0  0  2  0  0  0  0  0  0
  189.6780  175.9120  136.4260 C   0  0  0  0  0  2  0  0  0  0  0  0
  189.0760  177.2090  135.8830 C   0  0  1  0  0  3  0  0  0  0  0  0
  189.4310  177.3970  134.5470 O   0  0  0  0  0  1  0  0  0  0  0  0
  187.5630  177.2400  136.0360 C   0  0  2  0  0  3  0  0  0  0  0  0
  187.0630  178.4040  135.4240 O   0  0  0  0  0  0  0  0  0  0  0  0
  187.1540  178.4200  136.8270 C   0  0  0  0  0  2  0  0  0  0  0  0
  1  8  1  0  0  0  0
  1  7  1  0  0  0  0
  3  2  1  6  0  0  0
  3  5  1  0  0  0  0
  3 17  1  0  0  0  0
  6  5  1  1  0  0  0
  7  2  1  1  0  0  0
  7  6  1  0  0  0  0
  8  4  1  6  0  0  0
  8  6  1  0  0  0  0
  9 11  2  0  0  0  0
 11 12  1  0  0  0  0
 12 20  1  1  0  0  0
 13 10  1  0  0  0  0
 14 15  1  0  0  0  0
 14 11  1  0  0  0  0
 15 10  1  6  0  0  0
 15 16  1  0  0  0  0
 16 12  1  0  0  0  0
 17 13  1  1  0  0  0
 17 14  1  0  0  0  0
 20 19  1  0  0  0  0
 20 18  2  0  0  0  0
 21  1  1  0  0  0  0
 22 21  1  0  0  0  0
 23 24  1  6  0  0  0
 23 22  1  0  0  0  0
 25 23  1  6  0  0  0
 25 27  1  0  0  0  0
 26 25  1  0  0  0  0
 26 27  1  0  0  0  0
M  END
>  <MODEL>
5

>  <REMARK>
 VINA RESULT:      -7.1      2.477      4.187
  Name = 
  6 active torsions:
  status: ('A' for Active; 'I' for Inactive)
    1  A    between atoms: C_1  and  C_12
    2  A    between atoms: C_2  and  C_12
    3  A    between atoms: C_2  and  C_18
    4  A    between atoms: C_7  and  C_27
    5  A    between atoms: N_8  and  C_18
    6  A    between atoms: C_11  and  N_24
                            x       y       z     vdW  Elec       q    Type
                         _______ _______ _______ _____ _____    ______ ____

>  <TORSDO>
F 6

$$$$
=
 OpenBabel10232411433D

 27 31  0  0  1  0  0  0  0  0999 V2000
  188.4030  177.8490  145.5400 N   0  0  0  0  0  0  0  0  0  0  0  0
  190.3030  177.6800  143.8420 C   0  0  0  0  0  2  0  0  0  0  0  0
  189.9770  176.9080  142.5710 C   0  0  1  0  0  3  0  0  0  0  0  0
  186.1310  177.9960  145.0340 O   0  0  0  0  0  1  0  0  0  0  0  0
  188.4750  176.6730  142.6380 C   0  0  0  0  0  2  0  0  0  0  0  0
  187.8870  177.8220  143.4350 C   0  0  2  0  0  3  0  0  0  0  0  0
  189.0070  178.3660  144.2940 C   0  0  1  0  0  3  0  0  0  0  0  0
  187.3080  177.3070  144.7390 C   0  0  1  0  0  3  0  0  0  0  0  0
  187.8190  178.7900  140.3430 O   0  0  0  0  0  0  0  0  0  0  0  0
  191.7640  176.9040  139.5910 C   0  0  0  0  0  2  0  0  0  0  0  0
  188.5960  178.0460  139.6870 C   0  0  0  0  0  0  0  0  0  0  0  0
  188.6290  177.9910  138.2110 C   0  0  1  0  0  3  0  0  0  0  0  0
  191.7210  177.3950  141.0350 C   0  0  0  0  0  2  0  0  0  0  0  0
  189.5800  177.2340  140.2990 N   0  0  0  0  0  0  0  0  0  0  0  0
  190.3350  176.5680  139.2680 C   0  0  1  0  0  3  0  0  0  0  0  0
  189.9050  177.1930  137.9330 C   0  0  0  0  0  2  0  0  0  0  0  0
  190.3310  177.7050  141.3880 N   0  0  1  0  0  0  0  0  0  0  0  0
  187.5090  176.0510  137.4030 O   0  0  0  0  0  0  0  0  0  0  0  0
  186.1990  177.9650  137.4650 N   0  0  0  0  0  1  0  0  0  0  0  0
  187.4300  177.2760  137.6730 C   0  0  0  0  0  0  0  0  0  0  0  0
  189.1180  176.7150  146.1300 C   0  0  0  0  0  2  0  0  0  0  0  0
  189.7360  177.1060  147.4700 C   0  0  0  0  0  2  0  0  0  0  0  0
  191.2570  176.9530  147.4990 C   0  0  1  0  0  3  0  0  0  0  0  0
  191.8050  177.6600  148.5710 O   0  0  0  0  0  1  0  0  0  0  0  0
  191.6800  175.4930  147.5580 C   0  0  2  0  0  3  0  0  0  0  0  0
  193.0810  175.4160  147.4670 O   0  0  0  0  0  0  0  0  0  0  0  0
  192.3570  175.1060  146.3020 C   0  0  0  0  0  2  0  0  0  0  0  0
  1 21  1  0  0  0  0
  3  5  1  6  0  0  0
  3  2  1  0  0  0  0
  6  5  1  6  0  0  0
  6  7  1  0  0  0  0
  6  8  1  0  0  0  0
  7  2  1  6  0  0  0
  7  1  1  0  0  0  0
  8  4  1  1  0  0  0
  8  1  1  0  0  0  0
 10 13  1  0  0  0  0
 11 14  1  0  0  0  0
 11  9  2  0  0  0  0
 12 20  1  1  0  0  0
 12 11  1  0  0  0  0
 14 17  1  0  0  0  0
 15 16  1  6  0  0  0
 15 10  1  0  0  0  0
 15 14  1  0  0  0  0
 16 12  1  0  0  0  0
 17 13  1  6  0  0  0
 17  3  1  0  0  0  0
 18 20  2  0  0  0  0
 19 20  1  0  0  0  0
 21 22  1  0  0  0  0
 22 23  1  0  0  0  0
 23 24  1  1  0  0  0
 25 23  1  6  0  0  0
 26 25  1  0  0  0  0
 27 26  1  0  0  0  0
 27 25  1  0  0  0  0
M  END
>  <MODEL>
6

>  <REMARK>
 VINA RESULT:      -7.0      2.638      7.301
  Name = 
  6 active torsions:
  status: ('A' for Active; 'I' for Inactive)
    1  A    between atoms: C_1  and  C_12
    2  A    between atoms: C_2  and  C_12
    3  A    between atoms: C_2  and  C_18
    4  A    between atoms: C_7  and  C_27
    5  A    between atoms: N_8  and  C_18
    6  A    between atoms: C_11  and  N_24
                            x       y       z     vdW  Elec       q    Type
                         _______ _______ _______ _____ _____    ______ ____

>  <TORSDO>
F 6

$$$$
=
 OpenBabel10232411433D

 27 31  0  0  1  0  0  0  0  0999 V2000
  190.2620  177.3220  138.4050 N   0  0  0  0  0  0  0  0  0  0  0  0
  188.5780  177.7280  140.2810 C   0  0  0  0  0  2  0  0  0  0  0  0
  188.8420  176.9660  141.5730 C   0  0  1  0  0  3  0  0  0  0  0  0
  192.5410  176.9130  138.6810 O   0  0  0  0  0  1  0  0  0  0  0  0
  190.2220  176.3540  141.3830 C   0  0  0  0  0  2  0  0  0  0  0  0
  190.9840  177.2730  140.4470 C   0  0  2  0  0  3  0  0  0  0  0  0
  189.9450  178.0380  139.6570 C   0  0  1  0  0  3  0  0  0  0  0  0
  191.2700  176.5620  139.1390 C   0  0  1  0  0  3  0  0  0  0  0  0
  191.6020  178.1010  143.6360 O   0  0  0  0  0  0  0  0  0  0  0  0
  187.2880  177.6990  144.5920 C   0  0  0  0  0  2  0  0  0  0  0  0
  190.6480  177.6930  144.3520 C   0  0  0  0  0  0  0  0  0  0  0  0
  190.6620  177.7180  145.8290 C   0  0  1  0  0  3  0  0  0  0  0  0
  187.4320  178.0830  143.1230 C   0  0  0  0  0  2  0  0  0  0  0  0
  189.4220  177.2370  143.8120 N   0  0  0  0  0  0  0  0  0  0  0  0
  188.5320  176.9130  144.8970 C   0  0  1  0  0  3  0  0  0  0  0  0
  189.2040  177.4120  146.1840 C   0  0  0  0  0  2  0  0  0  0  0  0
  188.8290  177.8870  142.7170 N   0  0  1  0  0  0  0  0  0  0  0  0
  191.9820  175.7460  145.6200 O   0  0  0  0  0  0  0  0  0  0  0  0
  191.9820  176.6860  147.7410 N   0  0  0  0  0  1  0  0  0  0  0  0
  191.5720  176.6630  146.3760 C   0  0  0  0  0  0  0  0  0  0  0  0
  189.2280  176.3780  137.9740 C   0  0  0  0  0  2  0  0  0  0  0  0
  189.8580  175.0950  137.4390 C   0  0  0  0  0  2  0  0  0  0  0  0
  188.9330  174.3160  136.5010 C   0  0  1  0  0  3  0  0  0  0  0  0
  189.0070  172.9470  136.7610 O   0  0  0  0  0  1  0  0  0  0  0  0
  187.4930  174.7950  136.5980 C   0  0  2  0  0  3  0  0  0  0  0  0
  186.6700  173.9310  135.8540 O   0  0  0  0  0  0  0  0  0  0  0  0
  186.9880  175.1650  135.2590 C   0  0  0  0  0  2  0  0  0  0  0  0
  1  8  1  0  0  0  0
  1  7  1  0  0  0  0
  3  2  1  6  0  0  0
  3 17  1  0  0  0  0
  5  3  1  0  0  0  0
  6  5  1  1  0  0  0
  7  2  1  1  0  0  0
  7  6  1  0  0  0  0
  8  4  1  6  0  0  0
  8  6  1  0  0  0  0
  9 11  2  0  0  0  0
 11 12  1  0  0  0  0
 12 16  1  0  0  0  0
 12 20  1  1  0  0  0
 13 10  1  0  0  0  0
 14 11  1  0  0  0  0
 14 15  1  0  0  0  0
 15 10  1  6  0  0  0
 15 16  1  0  0  0  0
 17 13  1  1  0  0  0
 17 14  1  0  0  0  0
 18 20  2  0  0  0  0
 20 19  1  0  0  0  0
 21  1  1  0  0  0  0
 22 21  1  0  0  0  0
 23 24  1  1  0  0  0
 23 22  1  0  0  0  0
 25 23  1  6  0  0  0
 26 25  1  0  0  0  0
 27 26  1  0  0  0  0
 27 25  1  0  0  0  0
M  END
>  <MODEL>
7

>  <REMARK>
 VINA RESULT:      -6.8      2.639      4.379
  Name = 
  6 active torsions:
  status: ('A' for Active; 'I' for Inactive)
    1  A    between atoms: C_1  and  C_12
    2  A    between atoms: C_2  and  C_12
    3  A    between atoms: C_2  and  C_18
    4  A    between atoms: C_7  and  C_27
    5  A    between atoms: N_8  and  C_18
    6  A    between atoms: C_11  and  N_24
                            x       y       z     vdW  Elec       q    Type
                         _______ _______ _______ _____ _____    ______ ____

>  <TORSDO>
F 6

$$$$
=
 OpenBabel10232411433D

 27 31  0  0  1  0  0  0  0  0999 V2000
  188.3630  178.4130  139.7060 N   0  0  0  0  0  0  0  0  0  0  0  0
  186.9740  178.6710  141.8330 C   0  0  0  0  0  2  0  0  0  0  0  0
  187.2520  177.6460  142.9240 C   0  0  1  0  0  3  0  0  0  0  0  0
  190.5670  177.6590  139.5980 O   0  0  0  0  0  1  0  0  0  0  0  0
  188.4920  176.9040  142.4470 C   0  0  0  0  0  2  0  0  0  0  0  0
  189.2830  177.8760  141.5920 C   0  0  2  0  0  3  0  0  0  0  0  0
  188.2980  178.9110  141.0950 C   0  0  1  0  0  3  0  0  0  0  0  0
  189.3130  177.3980  140.1530 C   0  0  1  0  0  3  0  0  0  0  0  0
  190.4030  178.7180  144.3680 O   0  0  0  0  0  0  0  0  0  0  0  0
  186.5910  177.5810  146.3340 C   0  0  0  0  0  2  0  0  0  0  0  0
  189.7290  178.0600  145.2060 C   0  0  0  0  0  0  0  0  0  0  0  0
  190.1690  177.8050  146.5930 C   0  0  1  0  0  3  0  0  0  0  0  0
  186.2760  178.2530  145.0010 C   0  0  0  0  0  2  0  0  0  0  0  0
  188.4350  177.5590  144.9280 N   0  0  0  0  0  0  0  0  0  0  0  0
  187.9230  176.9210  146.1130 C   0  0  1  0  0  3  0  0  0  0  0  0
  188.9020  177.2500  147.2500 C   0  0  0  0  0  2  0  0  0  0  0  0
  187.5050  178.3220  144.2030 N   0  0  1  0  0  0  0  0  0  0  0  0
  191.5740  176.1690  145.5820 O   0  0  0  0  0  0  0  0  0  0  0  0
  191.9830  176.5320  147.8370 N   0  0  0  0  0  1  0  0  0  0  0  0
  191.2710  176.7940  146.6310 C   0  0  0  0  0  0  0  0  0  0  0  0
  187.1540  177.7160  139.2590 C   0  0  0  0  0  2  0  0  0  0  0  0
  186.8720  178.0140  137.7890 C   0  0  0  0  0  2  0  0  0  0  0  0
  187.1500  176.8240  136.8700 C   0  0  1  0  0  3  0  0  0  0  0  0
  186.3980  176.9190  135.6980 O   0  0  0  0  0  1  0  0  0  0  0  0
  188.6290  176.6950  136.5390 C   0  0  2  0  0  3  0  0  0  0  0  0
  188.8010  175.6720  135.5910 O   0  0  0  0  0  0  0  0  0  0  0  0
  189.1230  175.3560  136.9220 C   0  0  0  0  0  2  0  0  0  0  0  0
  1  8  1  0  0  0  0
  1  7  1  0  0  0  0
  3  2  1  6  0  0  0
  3 17  1  0  0  0  0
  5  3  1  0  0  0  0
  6  5  1  1  0  0  0
  7  6  1  0  0  0  0
  7  2  1  1  0  0  0
  8  4  1  6  0  0  0
  8  6  1  0  0  0  0
  9 11  2  0  0  0  0
 11 12  1  0  0  0  0
 12 20  1  6  0  0  0
 12 16  1  0  0  0  0
 13 10  1  0  0  0  0
 14 11  1  0  0  0  0
 14 15  1  0  0  0  0
 15 10  1  1  0  0  0
 15 16  1  0  0  0  0
 17 14  1  0  0  0  0
 17 13  1  1  0  0  0
 18 20  2  0  0  0  0
 20 19  1  0  0  0  0
 21  1  1  0  0  0  0
 22 21  1  0  0  0  0
 23 24  1  6  0  0  0
 23 22  1  0  0  0  0
 25 23  1  1  0  0  0
 25 27  1  0  0  0  0
 26 25  1  0  0  0  0
 26 27  1  0  0  0  0
M  END
>  <MODEL>
8

>  <REMARK>
 VINA RESULT:      -6.8      2.545      4.215
  Name = 
  6 active torsions:
  status: ('A' for Active; 'I' for Inactive)
    1  A    between atoms: C_1  and  C_12
    2  A    between atoms: C_2  and  C_12
    3  A    between atoms: C_2  and  C_18
    4  A    between atoms: C_7  and  C_27
    5  A    between atoms: N_8  and  C_18
    6  A    between atoms: C_11  and  N_24
                            x       y       z     vdW  Elec       q    Type
                         _______ _______ _______ _____ _____    ______ ____

>  <TORSDO>
F 6

$$$$
=
 OpenBabel10232411433D

 27 31  0  0  1  0  0  0  0  0999 V2000
  183.7400  178.8310  141.1480 N   0  0  0  0  0  0  0  0  0  0  0  0
  184.7750  178.0980  143.3640 C   0  0  0  0  0  2  0  0  0  0  0  0
  186.2320  177.6580  143.2910 C   0  0  1  0  0  3  0  0  0  0  0  0
  184.8560  179.9230  139.4150 O   0  0  0  0  0  1  0  0  0  0  0  0
  186.6770  178.0340  141.8860 C   0  0  0  0  0  2  0  0  0  0  0  0
  185.8450  179.2320  141.4690 C   0  0  2  0  0  3  0  0  0  0  0  0
  184.5850  179.1920  142.3050 C   0  0  1  0  0  3  0  0  0  0  0  0
  184.9370  178.8570  140.3130 C   0  0  1  0  0  3  0  0  0  0  0  0
  189.7450  178.5580  143.2270 O   0  0  0  0  0  0  0  0  0  0  0  0
  187.0500  177.7840  146.6660 C   0  0  0  0  0  2  0  0  0  0  0  0
  189.4520  177.9870  144.3110 C   0  0  0  0  0  0  0  0  0  0  0  0
  190.4160  177.7590  145.4060 C   0  0  1  0  0  3  0  0  0  0  0  0
  186.2410  178.4210  145.5400 C   0  0  0  0  0  2  0  0  0  0  0  0
  188.1370  177.5700  144.6280 N   0  0  0  0  0  0  0  0  0  0  0  0
  188.1350  177.0210  145.9590 C   0  0  1  0  0  3  0  0  0  0  0  0
  189.5130  177.3250  146.5640 C   0  0  0  0  0  2  0  0  0  0  0  0
  187.0270  178.3670  144.3020 N   0  0  1  0  0  0  0  0  0  0  0  0
  192.0130  176.0830  145.9680 O   0  0  0  0  0  0  0  0  0  0  0  0
  191.5960  176.2950  143.6950 N   0  0  0  0  0  1  0  0  0  0  0  0
  191.3830  176.6730  145.0540 C   0  0  0  0  0  0  0  0  0  0  0  0
  183.2490  177.4510  141.1690 C   0  0  0  0  0  2  0  0  0  0  0  0
  182.9760  176.9540  139.7520 C   0  0  0  0  0  2  0  0  0  0  0  0
  181.6270  176.2450  139.6130 C   0  0  1  0  0  3  0  0  0  0  0  0
  180.5770  177.1600  139.6980 O   0  0  0  0  0  1  0  0  0  0  0  0
  181.5340  175.4530  138.3180 C   0  0  2  0  0  3  0  0  0  0  0  0
  180.4050  175.8820  137.5970 O   0  0  0  0  0  0  0  0  0  0  0  0
  180.2840  174.6650  138.2910 C   0  0  0  0  0  2  0  0  0  0  0  0
  1 21  1  0  0  0  0
  1  7  1  0  0  0  0
  3  5  1  6  0  0  0
  3  2  1  0  0  0  0
  3 17  1  0  0  0  0
  6  5  1  1  0  0  0
  6  7  1  0  0  0  0
  7  2  1  1  0  0  0
  8  4  1  6  0  0  0
  8  1  1  0  0  0  0
  8  6  1  0  0  0  0
  9 11  2  0  0  0  0
 11 14  1  0  0  0  0
 11 12  1  0  0  0  0
 12 20  1  6  0  0  0
 12 16  1  0  0  0  0
 13 10  1  0  0  0  0
 14 15  1  0  0  0  0
 15 16  1  1  0  0  0
 15 10  1  0  0  0  0
 17 14  1  0  0  0  0
 17 13  1  1  0  0  0
 19 20  1  0  0  0  0
 20 18  2  0  0  0  0
 22 21  1  0  0  0  0
 23 24  1  6  0  0  0
 23 22  1  0  0  0  0
 25 23  1  1  0  0  0
 26 27  1  0  0  0  0
 26 25  1  0  0  0  0
 27 25  1  0  0  0  0
M  END
>  <MODEL>
9

>  <REMARK>
 VINA RESULT:      -6.8      4.755      6.920
  Name = 
  6 active torsions:
  status: ('A' for Active; 'I' for Inactive)
    1  A    between atoms: C_1  and  C_12
    2  A    between atoms: C_2  and  C_12
    3  A    between atoms: C_2  and  C_18
    4  A    between atoms: C_7  and  C_27
    5  A    between atoms: N_8  and  C_18
    6  A    between atoms: C_11  and  N_24
                            x       y       z     vdW  Elec       q    Type
                         _______ _______ _______ _____ _____    ______ ____

>  <TORSDO>
F 6

$$$$
