=
 OpenBabel10232412253D

 38 43  0  0  1  0  0  0  0  0999 V2000
  186.3970  178.4200  140.8840 C   0  0  0  0  0  0  0  0  0  0  0  0
  188.5820  178.5970  139.6060 C   0  0  2  0  0  3  0  0  0  0  0  0
  185.0550  178.1060  140.6690 C   0  0  0  0  0  3  0  0  0  0  0  0
  189.4630  178.4910  142.1420 C   0  0  1  0  0  3  0  0  0  0  0  0
  185.9330  178.4350  143.3180 C   0  0  0  0  0  0  0  0  0  0  0  0
  188.9740  178.4250  143.5450 N   0  0  0  0  0  0  0  0  0  0  0  0
  189.1600  177.2020  141.3650 C   0  0  1  0  0  3  0  0  0  0  0  0
  188.7440  177.8850  144.8230 C   0  0  0  0  0  0  0  0  0  0  0  0
  186.8800  178.6220  142.2220 C   0  0  0  0  0  0  0  0  0  0  0  0
  184.6040  178.1090  143.0210 C   0  0  0  0  0  3  0  0  0  0  0  0
  187.5010  178.0890  145.0670 C   0  0  0  0  0  0  0  0  0  0  0  0
  188.3030  179.2090  142.4560 C   0  0  2  0  0  3  0  0  0  0  0  0
  189.2170  177.3860  139.9630 O   0  0  0  0  0  0  0  0  0  0  0  0
  187.1660  178.5040  139.7100 O   0  0  0  0  0  0  0  0  0  0  0  0
  184.1650  177.9580  141.7170 C   0  0  0  0  0  3  0  0  0  0  0  0
  186.2840  178.4300  144.7860 C   0  0  0  0  0  0  0  0  0  0  0  0
  191.1220  177.4510  145.3340 C   0  0  0  0  0  0  0  0  0  0  0  0
  189.4610  176.8010  146.9430 C   0  0  0  0  0  2  0  0  0  0  0  0
  191.7460  175.8720  145.8620 S   0  0  0  0  0  0  0  0  0  0  0  0
  191.7990  178.2140  144.6640 O   0  0  0  0  0  0  0  0  0  0  0  0
  190.7490  176.1040  147.3580 C   0  0  0  0  0  2  0  0  0  0  0  0
  189.7990  177.8520  145.8900 C   0  0  2  0  0  3  0  0  0  0  0  0
  184.1530  179.1370  145.5840 O   0  0  0  0  0  0  0  0  0  0  0  0
  185.3330  178.7960  145.8630 C   0  0  0  0  0  0  0  0  0  0  0  0
  185.7510  178.7930  147.2960 C   0  0  0  0  0  1  0  0  0  0  0  0
  189.5760  175.3210  142.7710 O   0  0  0  0  0  1  0  0  0  0  0  0
  190.1410  176.1180  141.7750 C   0  0  0  0  0  2  0  0  0  0  0  0
  188.9540  178.9690  138.2790 O   0  0  0  0  0  0  0  0  0  0  0  0
  189.0780  176.5540  135.4690 C   0  0  0  0  0  3  0  0  0  0  0  0
  187.0120  177.8030  135.3250 C   0  0  0  0  0  0  0  0  0  0  0  0
  187.3670  178.5190  136.4700 C   0  0  0  0  0  3  0  0  0  0  0  0
  189.4410  177.2700  136.6150 C   0  0  0  0  0  0  0  0  0  0  0  0
  187.8670  176.8190  134.8240 C   0  0  0  0  0  3  0  0  0  0  0  0
  188.5820  178.2610  137.1270 C   0  0  0  0  0  0  0  0  0  0  0  0
  185.8370  178.0600  134.7020 F   0  0  0  0  0  0  0  0  0  0  0  0
  190.7380  176.9520  137.2880 C   0  0  0  0  0  2  0  0  0  0  0  0
  190.8090  175.4860  137.6870 C   0  0  0  0  0  2  0  0  0  0  0  0
  192.2430  174.9910  137.6590 C   0  0  0  0  0  1  0  0  0  0  0  0
  1  9  1  0  0  0  0
  2 28  1  6  0  0  0
  2 14  1  0  0  0  0
  2 13  1  0  0  0  0
  3  1  2  0  0  0  0
  3 15  1  0  0  0  0
  4 12  1  0  0  0  0
  4  6  1  1  0  0  0
  5 16  1  0  0  0  0
  6  8  1  0  0  0  0
  7 27  1  1  0  0  0
  7  4  1  0  0  0  0
  8 11  2  0  0  0  0
  9  5  2  0  0  0  0
 10  5  1  0  0  0  0
 12  9  1  6  0  0  0
 12  6  1  0  0  0  0
 13  7  1  0  0  0  0
 14  1  1  0  0  0  0
 15 10  2  0  0  0  0
 16 11  2  0  0  0  0
 16 24  1  0  0  0  0
 17 19  1  0  0  0  0
 17 22  1  0  0  0  0
 18 21  1  0  0  0  0
 19 21  1  0  0  0  0
 20 17  2  0  0  0  0
 22  8  1  6  0  0  0
 22 18  1  0  0  0  0
 23 24  2  0  0  0  0
 24 25  1  0  0  0  0
 27 26  1  0  0  0  0
 29 32  1  0  0  0  0
 30 31  2  0  0  0  0
 31 34  1  0  0  0  0
 32 34  2  0  0  0  0
 32 36  1  0  0  0  0
 33 30  1  0  0  0  0
 33 29  2  0  0  0  0
 34 28  1  0  0  0  0
 35 30  1  0  0  0  0
 36 37  1  0  0  0  0
 38 37  1  0  0  0  0
M  END
>  <MODEL>
1

>  <REMARK>
 VINA RESULT:      -8.4      0.000      0.000
  Name = 
  7 active torsions:
  status: ('A' for Active; 'I' for Inactive)
    1  A    between atoms: C_4  and  O_12
    2  A    between atoms: C_5  and  C_36
    3  A    between atoms: O_12  and  C_23
    4  A    between atoms: C_17  and  C_35
    5  A    between atoms: C_18  and  C_27
    6  A    between atoms: C_22  and  C_38
    7  A    between atoms: C_24  and  C_27
                            x       y       z     vdW  Elec       q    Type
                         _______ _______ _______ _____ _____    ______ ____

>  <TORSDO>
F 7

$$$$
=
 OpenBabel10232412253D

 38 43  0  0  1  0  0  0  0  0999 V2000
  186.4190  178.3870  140.9980 C   0  0  0  0  0  0  0  0  0  0  0  0
  188.5850  178.5290  139.6850 C   0  0  2  0  0  3  0  0  0  0  0  0
  185.0710  178.0850  140.8060 C   0  0  0  0  0  3  0  0  0  0  0  0
  189.5030  178.4390  142.2090 C   0  0  1  0  0  3  0  0  0  0  0  0
  185.9910  178.4320  143.4390 C   0  0  0  0  0  0  0  0  0  0  0  0
  189.0350  178.3930  143.6200 N   0  0  0  0  0  0  0  0  0  0  0  0
  189.1760  177.1450  141.4500 C   0  0  1  0  0  3  0  0  0  0  0  0
  188.8190  177.8680  144.9070 C   0  0  0  0  0  0  0  0  0  0  0  0
  186.9240  178.5980  142.3260 C   0  0  0  0  0  0  0  0  0  0  0  0
  184.6540  178.1170  143.1640 C   0  0  0  0  0  3  0  0  0  0  0  0
  187.5820  178.0870  145.1670 C   0  0  0  0  0  0  0  0  0  0  0  0
  188.3550  179.1720  142.5330 C   0  0  2  0  0  3  0  0  0  0  0  0
  189.2130  177.3150  140.0450 O   0  0  0  0  0  0  0  0  0  0  0  0
  187.1710  178.4520  139.8120 O   0  0  0  0  0  0  0  0  0  0  0  0
  184.1940  177.9570  141.8690 C   0  0  0  0  0  3  0  0  0  0  0  0
  186.3650  178.4380  144.9000 C   0  0  0  0  0  0  0  0  0  0  0  0
  191.2000  177.4140  145.3870 C   0  0  0  0  0  0  0  0  0  0  0  0
  189.5560  176.7980  147.0270 C   0  0  0  0  0  2  0  0  0  0  0  0
  191.8150  175.8340  145.9210 S   0  0  0  0  0  0  0  0  0  0  0  0
  191.8750  178.1630  144.6990 O   0  0  0  0  0  0  0  0  0  0  0  0
  190.8430  176.0910  147.4300 C   0  0  0  0  0  2  0  0  0  0  0  0
  189.8890  177.8340  145.9580 C   0  0  2  0  0  3  0  0  0  0  0  0
  184.2540  179.1790  145.7230 O   0  0  0  0  0  0  0  0  0  0  0  0
  185.4330  178.8250  145.9880 C   0  0  0  0  0  0  0  0  0  0  0  0
  185.8710  178.8280  147.4150 C   0  0  0  0  0  1  0  0  0  0  0  0
  189.6150  175.3070  142.9040 O   0  0  0  0  0  1  0  0  0  0  0  0
  190.1510  176.0560  141.8560 C   0  0  0  0  0  2  0  0  0  0  0  0
  188.9410  178.8840  138.3500 O   0  0  0  0  0  0  0  0  0  0  0  0
  188.7860  176.8130  135.2780 C   0  0  0  0  0  3  0  0  0  0  0  0
  190.8640  176.3440  136.4230 C   0  0  0  0  0  0  0  0  0  0  0  0
  190.5190  177.2590  137.4210 C   0  0  0  0  0  3  0  0  0  0  0  0
  188.4330  177.7290  136.2760 C   0  0  0  0  0  0  0  0  0  0  0  0
  189.9980  176.1210  135.3510 C   0  0  0  0  0  3  0  0  0  0  0  0
  189.3040  177.9600  137.3570 C   0  0  0  0  0  0  0  0  0  0  0  0
  192.0400  175.6760  136.4950 F   0  0  0  0  0  0  0  0  0  0  0  0
  187.1340  178.4610  136.1610 C   0  0  0  0  0  2  0  0  0  0  0  0
  185.9760  177.5010  135.9330 C   0  0  0  0  0  2  0  0  0  0  0  0
  185.6070  176.7910  137.2220 C   0  0  0  0  0  1  0  0  0  0  0  0
  1  9  1  0  0  0  0
  2 28  1  6  0  0  0
  2 14  1  0  0  0  0
  2 13  1  0  0  0  0
  3  1  2  0  0  0  0
  3 15  1  0  0  0  0
  4 12  1  0  0  0  0
  4  6  1  1  0  0  0
  5 16  1  0  0  0  0
  6  8  1  0  0  0  0
  7 27  1  6  0  0  0
  7  4  1  0  0  0  0
  8 11  2  0  0  0  0
  9  5  2  0  0  0  0
 10  5  1  0  0  0  0
 12  9  1  6  0  0  0
 12  6  1  0  0  0  0
 13  7  1  0  0  0  0
 14  1  1  0  0  0  0
 15 10  2  0  0  0  0
 16 11  2  0  0  0  0
 16 24  1  0  0  0  0
 17 19  1  0  0  0  0
 17 22  1  0  0  0  0
 18 21  1  0  0  0  0
 19 21  1  0  0  0  0
 20 17  2  0  0  0  0
 22  8  1  6  0  0  0
 22 18  1  0  0  0  0
 23 24  2  0  0  0  0
 24 25  1  0  0  0  0
 27 26  1  0  0  0  0
 29 33  2  0  0  0  0
 29 32  1  0  0  0  0
 30 35  1  0  0  0  0
 30 31  2  0  0  0  0
 32 34  2  0  0  0  0
 33 30  1  0  0  0  0
 34 31  1  0  0  0  0
 34 28  1  0  0  0  0
 36 32  1  0  0  0  0
 37 36  1  0  0  0  0
 37 38  1  0  0  0  0
M  END
>  <MODEL>
2

>  <REMARK>
 VINA RESULT:      -8.3      1.260      2.179
  Name = 
  7 active torsions:
  status: ('A' for Active; 'I' for Inactive)
    1  A    between atoms: C_4  and  O_12
    2  A    between atoms: C_5  and  C_36
    3  A    between atoms: O_12  and  C_23
    4  A    between atoms: C_17  and  C_35
    5  A    between atoms: C_18  and  C_27
    6  A    between atoms: C_22  and  C_38
    7  A    between atoms: C_24  and  C_27
                            x       y       z     vdW  Elec       q    Type
                         _______ _______ _______ _____ _____    ______ ____

>  <TORSDO>
F 7

$$$$
=
 OpenBabel10232412253D

 38 43  0  0  1  0  0  0  0  0999 V2000
  186.5320  178.1530  144.2970 C   0  0  0  0  0  0  0  0  0  0  0  0
  188.5950  177.0730  145.3050 C   0  0  2  0  0  3  0  0  0  0  0  0
  185.4120  178.8880  144.6870 C   0  0  0  0  0  3  0  0  0  0  0  0
  189.2660  177.1650  142.7050 C   0  0  1  0  0  3  0  0  0  0  0  0
  185.9150  178.5910  141.9380 C   0  0  0  0  0  0  0  0  0  0  0  0
  188.7310  177.5640  141.3750 N   0  0  0  0  0  0  0  0  0  0  0  0
  189.5050  178.3770  143.6170 C   0  0  1  0  0  3  0  0  0  0  0  0
  188.6160  178.2990  140.1810 C   0  0  0  0  0  0  0  0  0  0  0  0
  186.8100  177.9560  142.9020 C   0  0  0  0  0  0  0  0  0  0  0  0
  184.8170  179.3230  142.4080 C   0  0  0  0  0  3  0  0  0  0  0  0
  187.3680  178.5720  140.0610 C   0  0  0  0  0  0  0  0  0  0  0  0
  187.9050  176.9410  142.4620 C   0  0  2  0  0  3  0  0  0  0  0  0
  189.5950  178.0190  144.9830 O   0  0  0  0  0  0  0  0  0  0  0  0
  187.3040  177.6670  145.3670 O   0  0  0  0  0  0  0  0  0  0  0  0
  184.5600  179.4610  143.7610 C   0  0  0  0  0  3  0  0  0  0  0  0
  186.1350  178.6470  140.4460 C   0  0  0  0  0  0  0  0  0  0  0  0
  188.9730  178.6960  137.7680 C   0  0  0  0  0  0  0  0  0  0  0  0
  189.6770  176.6000  138.7080 C   0  0  0  0  0  2  0  0  0  0  0  0
  188.4730  177.5580  136.4970 S   0  0  0  0  0  0  0  0  0  0  0  0
  188.9810  179.9020  137.5800 O   0  0  0  0  0  0  0  0  0  0  0  0
  189.6940  176.4150  137.1970 C   0  0  0  0  0  2  0  0  0  0  0  0
  189.5300  178.0880  139.0100 C   0  0  2  0  0  3  0  0  0  0  0  0
  184.4910  179.8810  139.2400 O   0  0  0  0  0  0  0  0  0  0  0  0
  185.0390  178.7680  139.4540 C   0  0  0  0  0  0  0  0  0  0  0  0
  184.5400  177.5760  138.7050 C   0  0  0  0  0  1  0  0  0  0  0  0
  191.7990  178.8130  144.1010 O   0  0  0  0  0  1  0  0  0  0  0  0
  190.7760  179.0900  143.1940 C   0  0  0  0  0  2  0  0  0  0  0  0
  188.9060  176.4390  146.5450 O   0  0  0  0  0  0  0  0  0  0  0  0
  191.2190  178.0360  148.9640 C   0  0  0  0  0  3  0  0  0  0  0  0
  192.3590  176.1800  147.9130 C   0  0  0  0  0  0  0  0  0  0  0  0
  191.2160  175.9080  147.1570 C   0  0  0  0  0  3  0  0  0  0  0  0
  190.0720  177.7710  148.2070 C   0  0  0  0  0  0  0  0  0  0  0  0
  192.3600  177.2430  148.8180 C   0  0  0  0  0  3  0  0  0  0  0  0
  190.0630  176.6980  147.2960 C   0  0  0  0  0  0  0  0  0  0  0  0
  193.4630  175.4090  147.7710 F   0  0  0  0  0  0  0  0  0  0  0  0
  188.8630  178.6310  148.3980 C   0  0  0  0  0  2  0  0  0  0  0  0
  187.6380  177.7960  148.7400 C   0  0  0  0  0  2  0  0  0  0  0  0
  186.3800  178.4370  148.1860 C   0  0  0  0  0  1  0  0  0  0  0  0
  1  3  1  0  0  0  0
  1 14  1  0  0  0  0
  2 14  1  0  0  0  0
  2 28  1  1  0  0  0
  4  6  1  6  0  0  0
  4  7  1  0  0  0  0
  5 10  2  0  0  0  0
  5  9  1  0  0  0  0
  6 12  1  0  0  0  0
  7 27  1  6  0  0  0
  7 13  1  0  0  0  0
  8  6  1  0  0  0  0
  9  1  2  0  0  0  0
 10 15  1  0  0  0  0
 11  8  2  0  0  0  0
 11 16  2  0  0  0  0
 12  4  1  0  0  0  0
 12  9  1  1  0  0  0
 13  2  1  0  0  0  0
 15  3  2  0  0  0  0
 16  5  1  0  0  0  0
 17 22  1  0  0  0  0
 18 22  1  0  0  0  0
 19 21  1  0  0  0  0
 19 17  1  0  0  0  0
 20 17  2  0  0  0  0
 21 18  1  0  0  0  0
 22  8  1  1  0  0  0
 23 24  2  0  0  0  0
 24 16  1  0  0  0  0
 25 24  1  0  0  0  0
 27 26  1  0  0  0  0
 28 34  1  0  0  0  0
 30 33  2  0  0  0  0
 31 34  2  0  0  0  0
 31 30  1  0  0  0  0
 32 36  1  0  0  0  0
 32 29  2  0  0  0  0
 33 29  1  0  0  0  0
 34 32  1  0  0  0  0
 35 30  1  0  0  0  0
 36 37  1  0  0  0  0
 38 37  1  0  0  0  0
M  END
>  <MODEL>
3

>  <REMARK>
 VINA RESULT:      -8.2      3.500      8.211
  Name = 
  7 active torsions:
  status: ('A' for Active; 'I' for Inactive)
    1  A    between atoms: C_4  and  O_12
    2  A    between atoms: C_5  and  C_36
    3  A    between atoms: O_12  and  C_23
    4  A    between atoms: C_17  and  C_35
    5  A    between atoms: C_18  and  C_27
    6  A    between atoms: C_22  and  C_38
    7  A    between atoms: C_24  and  C_27
                            x       y       z     vdW  Elec       q    Type
                         _______ _______ _______ _____ _____    ______ ____

>  <TORSDO>
F 7

$$$$
=
 OpenBabel10232412253D

 38 43  0  0  1  0  0  0  0  0999 V2000
  189.6580  177.3960  140.8440 C   0  0  0  0  0  0  0  0  0  0  0  0
  189.4090  178.2630  143.2160 C   0  0  2  0  0  3  0  0  0  0  0  0
  190.4450  176.5120  140.1070 C   0  0  0  0  0  3  0  0  0  0  0  0
  187.0480  178.9710  142.1470 C   0  0  1  0  0  3  0  0  0  0  0  0
  188.1820  177.6260  138.8670 C   0  0  0  0  0  0  0  0  0  0  0  0
  186.2920  178.9440  140.8660 N   0  0  0  0  0  0  0  0  0  0  0  0
  187.2540  177.5640  142.7260 C   0  0  1  0  0  3  0  0  0  0  0  0
  185.2860  178.5820  139.9510 C   0  0  0  0  0  0  0  0  0  0  0  0
  188.5070  178.0070  140.2400 C   0  0  0  0  0  0  0  0  0  0  0  0
  189.0160  176.7230  138.1960 C   0  0  0  0  0  3  0  0  0  0  0  0
  185.8990  178.2780  138.8650 C   0  0  0  0  0  0  0  0  0  0  0  0
  187.7720  179.1720  140.9650 C   0  0  2  0  0  3  0  0  0  0  0  0
  188.3010  177.5140  143.6760 O   0  0  0  0  0  0  0  0  0  0  0  0
  190.0980  177.5980  142.1640 O   0  0  0  0  0  0  0  0  0  0  0  0
  190.1380  176.1810  138.7990 C   0  0  0  0  0  3  0  0  0  0  0  0
  186.9280  178.0190  138.1250 C   0  0  0  0  0  0  0  0  0  0  0  0
  182.9980  178.3990  140.8660 C   0  0  0  0  0  0  0  0  0  0  0  0
  183.2770  179.1340  138.5960 C   0  0  0  0  0  2  0  0  0  0  0  0
  181.6770  177.5300  140.0530 S   0  0  0  0  0  0  0  0  0  0  0  0
  183.0710  178.4590  142.0830 O   0  0  0  0  0  0  0  0  0  0  0  0
  181.8030  178.7860  138.7510 C   0  0  0  0  0  2  0  0  0  0  0  0
  183.9110  179.1800  139.9820 C   0  0  2  0  0  3  0  0  0  0  0  0
  187.4960  179.0070  136.0320 O   0  0  0  0  0  0  0  0  0  0  0  0
  186.8430  178.1240  136.6480 C   0  0  0  0  0  0  0  0  0  0  0  0
  185.9690  177.2080  135.8570 C   0  0  0  0  0  1  0  0  0  0  0  0
  185.3600  178.1340  144.0600 O   0  0  0  0  0  1  0  0  0  0  0  0
  185.9640  177.0840  143.3670 C   0  0  0  0  0  2  0  0  0  0  0  0
  190.3010  178.5270  144.2990 O   0  0  0  0  0  0  0  0  0  0  0  0
  189.9710  176.7280  147.5250 C   0  0  0  0  0  3  0  0  0  0  0  0
  191.8820  175.8420  146.3370 C   0  0  0  0  0  0  0  0  0  0  0  0
  191.6390  176.7300  145.2860 C   0  0  0  0  0  3  0  0  0  0  0  0
  189.7240  177.6230  146.4780 C   0  0  0  0  0  0  0  0  0  0  0  0
  191.0470  175.8400  147.4560 C   0  0  0  0  0  3  0  0  0  0  0  0
  190.5600  177.6280  145.3450 C   0  0  0  0  0  0  0  0  0  0  0  0
  192.9240  174.9800  146.2670 F   0  0  0  0  0  0  0  0  0  0  0  0
  188.5560  178.5520  146.5780 C   0  0  0  0  0  2  0  0  0  0  0  0
  187.3040  177.8190  147.0330 C   0  0  0  0  0  2  0  0  0  0  0  0
  186.1690  178.7960  147.2790 C   0  0  0  0  0  1  0  0  0  0  0  0
  1 14  1  0  0  0  0
  2 13  1  0  0  0  0
  2 28  1  1  0  0  0
  3  1  2  0  0  0  0
  4  6  1  6  0  0  0
  4  7  1  0  0  0  0
  5  9  2  0  0  0  0
  6 12  1  0  0  0  0
  7 27  1  1  0  0  0
  7 13  1  0  0  0  0
  8  6  1  0  0  0  0
  9  1  1  0  0  0  0
 10 15  2  0  0  0  0
 10  5  1  0  0  0  0
 11  8  2  0  0  0  0
 12  9  1  6  0  0  0
 12  4  1  0  0  0  0
 14  2  1  0  0  0  0
 15  3  1  0  0  0  0
 16 11  2  0  0  0  0
 16  5  1  0  0  0  0
 17 20  2  0  0  0  0
 18 21  1  0  0  0  0
 18 22  1  0  0  0  0
 19 17  1  0  0  0  0
 21 19  1  0  0  0  0
 22  8  1  6  0  0  0
 22 17  1  0  0  0  0
 23 24  2  0  0  0  0
 24 16  1  0  0  0  0
 25 24  1  0  0  0  0
 27 26  1  0  0  0  0
 28 34  1  0  0  0  0
 30 33  2  0  0  0  0
 31 34  2  0  0  0  0
 31 30  1  0  0  0  0
 32 36  1  0  0  0  0
 32 29  2  0  0  0  0
 33 29  1  0  0  0  0
 34 32  1  0  0  0  0
 35 30  1  0  0  0  0
 36 37  1  0  0  0  0
 37 38  1  0  0  0  0
M  END
>  <MODEL>
4

>  <REMARK>
 VINA RESULT:      -8.2      3.460      8.424
  Name = 
  7 active torsions:
  status: ('A' for Active; 'I' for Inactive)
    1  A    between atoms: C_4  and  O_12
    2  A    between atoms: C_5  and  C_36
    3  A    between atoms: O_12  and  C_23
    4  A    between atoms: C_17  and  C_35
    5  A    between atoms: C_18  and  C_27
    6  A    between atoms: C_22  and  C_38
    7  A    between atoms: C_24  and  C_27
                            x       y       z     vdW  Elec       q    Type
                         _______ _______ _______ _____ _____    ______ ____

>  <TORSDO>
F 7

$$$$
=
 OpenBabel10232412253D

 38 43  0  0  1  0  0  0  0  0999 V2000
  190.8740  177.3740  142.8480 C   0  0  0  0  0  0  0  0  0  0  0  0
  190.0680  176.8270  140.5050 C   0  0  2  0  0  3  0  0  0  0  0  0
  192.0040  177.8650  143.5020 C   0  0  0  0  0  3  0  0  0  0  0  0
  187.7450  176.9310  141.8500 C   0  0  1  0  0  3  0  0  0  0  0  0
  189.6420  177.5440  144.9910 C   0  0  0  0  0  0  0  0  0  0  0  0
  187.1960  177.1330  143.2170 N   0  0  0  0  0  0  0  0  0  0  0  0
  188.3800  178.2100  141.2880 C   0  0  1  0  0  3  0  0  0  0  0  0
  186.4970  177.7630  144.2640 C   0  0  0  0  0  0  0  0  0  0  0  0
  189.6540  177.1720  143.5790 C   0  0  0  0  0  0  0  0  0  0  0  0
  190.8150  178.0400  145.5740 C   0  0  0  0  0  3  0  0  0  0  0  0
  187.2930  177.7490  145.2700 C   0  0  0  0  0  0  0  0  0  0  0  0
  188.4720  176.4010  142.9220 C   0  0  2  0  0  3  0  0  0  0  0  0
  189.2640  177.9520  140.2130 O   0  0  0  0  0  0  0  0  0  0  0  0
  191.0630  177.1250  141.4770 O   0  0  0  0  0  0  0  0  0  0  0  0
  191.9840  178.1880  144.8470 C   0  0  0  0  0  3  0  0  0  0  0  0
  188.4220  177.5710  145.8780 C   0  0  0  0  0  0  0  0  0  0  0  0
  184.3290  178.4180  143.2770 C   0  0  0  0  0  0  0  0  0  0  0  0
  184.5480  178.3990  145.6690 C   0  0  0  0  0  2  0  0  0  0  0  0
  183.4510  179.9000  143.7200 S   0  0  0  0  0  0  0  0  0  0  0  0
  184.2680  177.9520  142.1500 O   0  0  0  0  0  0  0  0  0  0  0  0
  183.2660  179.1640  145.3660 C   0  0  0  0  0  2  0  0  0  0  0  0
  185.0040  177.6980  144.3940 C   0  0  2  0  0  3  0  0  0  0  0  0
  188.9960  176.3710  147.8560 O   0  0  0  0  0  0  0  0  0  0  0  0
  188.4680  177.3970  147.3510 C   0  0  0  0  0  0  0  0  0  0  0  0
  187.8730  178.4140  148.2670 C   0  0  0  0  0  1  0  0  0  0  0  0
  186.6140  178.6200  139.7380 O   0  0  0  0  0  1  0  0  0  0  0  0
  187.2900  179.1620  140.8320 C   0  0  0  0  0  2  0  0  0  0  0  0
  190.6780  176.3410  139.3090 O   0  0  0  0  0  0  0  0  0  0  0  0
  190.2060  176.1940  135.6350 C   0  0  0  0  0  3  0  0  0  0  0  0
  188.0340  176.3240  136.6890 C   0  0  0  0  0  0  0  0  0  0  0  0
  188.6460  176.3570  137.9440 C   0  0  0  0  0  3  0  0  0  0  0  0
  190.8270  176.2300  136.8890 C   0  0  0  0  0  0  0  0  0  0  0  0
  188.8140  176.2410  135.5340 C   0  0  0  0  0  3  0  0  0  0  0  0
  190.0460  176.3100  138.0570 C   0  0  0  0  0  0  0  0  0  0  0  0
  186.6840  176.3680  136.5930 F   0  0  0  0  0  0  0  0  0  0  0  0
  192.3190  176.1650  136.9610 C   0  0  0  0  0  2  0  0  0  0  0  0
  192.8160  174.7310  136.8510 C   0  0  0  0  0  2  0  0  0  0  0  0
  194.0390  174.5190  137.7240 C   0  0  0  0  0  1  0  0  0  0  0  0
  1  3  2  0  0  0  0
  1  9  1  0  0  0  0
  2 28  1  6  0  0  0
  2 14  1  0  0  0  0
  3 15  1  0  0  0  0
  4 12  1  0  0  0  0
  4  6  1  1  0  0  0
  5 10  1  0  0  0  0
  5 16  1  0  0  0  0
  6  8  1  0  0  0  0
  7 27  1  6  0  0  0
  7  4  1  0  0  0  0
  8 11  2  0  0  0  0
  9  5  2  0  0  0  0
 11 16  2  0  0  0  0
 12  6  1  0  0  0  0
 12  9  1  1  0  0  0
 13  2  1  0  0  0  0
 13  7  1  0  0  0  0
 14  1  1  0  0  0  0
 15 10  2  0  0  0  0
 16 24  1  0  0  0  0
 17 19  1  0  0  0  0
 17 22  1  0  0  0  0
 19 21  1  0  0  0  0
 20 17  2  0  0  0  0
 21 18  1  0  0  0  0
 22  8  1  6  0  0  0
 22 18  1  0  0  0  0
 24 23  2  0  0  0  0
 24 25  1  0  0  0  0
 26 27  1  0  0  0  0
 29 32  1  0  0  0  0
 30 31  2  0  0  0  0
 31 34  1  0  0  0  0
 32 36  1  0  0  0  0
 32 34  2  0  0  0  0
 33 29  2  0  0  0  0
 33 30  1  0  0  0  0
 34 28  1  0  0  0  0
 35 30  1  0  0  0  0
 37 36  1  0  0  0  0
 37 38  1  0  0  0  0
M  END
>  <MODEL>
5

>  <REMARK>
 VINA RESULT:      -7.9      2.317      4.508
  Name = 
  7 active torsions:
  status: ('A' for Active; 'I' for Inactive)
    1  A    between atoms: C_4  and  O_12
    2  A    between atoms: C_5  and  C_36
    3  A    between atoms: O_12  and  C_23
    4  A    between atoms: C_17  and  C_35
    5  A    between atoms: C_18  and  C_27
    6  A    between atoms: C_22  and  C_38
    7  A    between atoms: C_24  and  C_27
                            x       y       z     vdW  Elec       q    Type
                         _______ _______ _______ _____ _____    ______ ____

>  <TORSDO>
F 7

$$$$
=
 OpenBabel10232412253D

 38 43  0  0  1  0  0  0  0  0999 V2000
  187.5270  178.2320  141.4460 C   0  0  0  0  0  0  0  0  0  0  0  0
  189.9330  177.7780  140.7820 C   0  0  2  0  0  3  0  0  0  0  0  0
  186.2590  178.3250  140.8720 C   0  0  0  0  0  3  0  0  0  0  0  0
  190.0390  177.3940  143.4390 C   0  0  1  0  0  3  0  0  0  0  0  0
  186.4530  178.3570  143.6760 C   0  0  0  0  0  0  0  0  0  0  0  0
  189.1960  177.4590  144.6620 N   0  0  0  0  0  0  0  0  0  0  0  0
  189.6090  176.2570  142.5010 C   0  0  1  0  0  3  0  0  0  0  0  0
  188.4910  176.9960  145.7880 C   0  0  0  0  0  0  0  0  0  0  0  0
  187.6720  178.2710  142.8750 C   0  0  0  0  0  0  0  0  0  0  0  0
  185.2150  178.4360  143.0250 C   0  0  0  0  0  3  0  0  0  0  0  0
  187.3360  177.5510  145.7270 C   0  0  0  0  0  0  0  0  0  0  0  0
  189.0850  178.4150  143.5110 C   0  0  2  0  0  3  0  0  0  0  0  0
  190.0870  176.4300  141.1810 O   0  0  0  0  0  0  0  0  0  0  0  0
  188.5740  178.1000  140.5160 O   0  0  0  0  0  0  0  0  0  0  0  0
  185.1170  178.4330  141.6440 C   0  0  0  0  0  3  0  0  0  0  0  0
  186.3840  178.2350  145.1780 C   0  0  0  0  0  0  0  0  0  0  0  0
  188.9500  177.6990  148.1130 C   0  0  0  0  0  0  0  0  0  0  0  0
  190.6810  176.5710  146.8860 C   0  0  0  0  0  2  0  0  0  0  0  0
  190.3850  178.6310  148.5960 S   0  0  0  0  0  0  0  0  0  0  0  0
  187.8810  177.8260  148.6880 O   0  0  0  0  0  0  0  0  0  0  0  0
  191.3540  177.1780  148.1100 C   0  0  0  0  0  2  0  0  0  0  0  0
  189.1700  176.6470  147.0800 C   0  0  2  0  0  3  0  0  0  0  0  0
  185.6070  179.4250  147.0910 O   0  0  0  0  0  0  0  0  0  0  0  0
  185.3200  178.8510  146.0080 C   0  0  0  0  0  0  0  0  0  0  0  0
  183.8860  178.7880  145.5970 C   0  0  0  0  0  1  0  0  0  0  0  0
  191.3330  175.1070  143.6810 O   0  0  0  0  0  1  0  0  0  0  0  0
  190.1020  174.9300  143.0490 C   0  0  0  0  0  2  0  0  0  0  0  0
  190.7350  178.0390  139.6300 O   0  0  0  0  0  0  0  0  0  0  0  0
  190.2550  176.4130  136.3330 C   0  0  0  0  0  3  0  0  0  0  0  0
  191.9760  175.2190  137.5410 C   0  0  0  0  0  0  0  0  0  0  0  0
  191.8300  176.0990  138.6160 C   0  0  0  0  0  3  0  0  0  0  0  0
  190.1010  177.2960  137.4070 C   0  0  0  0  0  0  0  0  0  0  0  0
  191.1890  175.3760  136.3980 C   0  0  0  0  0  3  0  0  0  0  0  0
  190.8940  177.1450  138.5600 C   0  0  0  0  0  0  0  0  0  0  0  0
  192.8830  174.2150  137.6060 F   0  0  0  0  0  0  0  0  0  0  0  0
  189.1010  178.4030  137.2990 C   0  0  0  0  0  2  0  0  0  0  0  0
  187.8990  177.9820  136.4670 C   0  0  0  0  0  2  0  0  0  0  0  0
  186.6050  178.2960  137.1950 C   0  0  0  0  0  1  0  0  0  0  0  0
  1  9  1  0  0  0  0
  2 28  1  6  0  0  0
  2 13  1  0  0  0  0
  3  1  2  0  0  0  0
  3 15  1  0  0  0  0
  4 12  1  0  0  0  0
  4  6  1  1  0  0  0
  5 16  1  0  0  0  0
  6  8  1  0  0  0  0
  7 27  1  1  0  0  0
  7  4  1  0  0  0  0
  9  5  2  0  0  0  0
 10  5  1  0  0  0  0
 11  8  2  0  0  0  0
 12  9  1  6  0  0  0
 12  6  1  0  0  0  0
 13  7  1  0  0  0  0
 14  2  1  0  0  0  0
 14  1  1  0  0  0  0
 15 10  2  0  0  0  0
 16 11  2  0  0  0  0
 16 24  1  0  0  0  0
 17 19  1  0  0  0  0
 17 20  2  0  0  0  0
 18 22  1  0  0  0  0
 18 21  1  0  0  0  0
 21 19  1  0  0  0  0
 22  8  1  6  0  0  0
 22 17  1  0  0  0  0
 24 23  2  0  0  0  0
 25 24  1  0  0  0  0
 27 26  1  0  0  0  0
 29 33  2  0  0  0  0
 29 32  1  0  0  0  0
 30 35  1  0  0  0  0
 30 31  2  0  0  0  0
 32 34  2  0  0  0  0
 33 30  1  0  0  0  0
 34 31  1  0  0  0  0
 34 28  1  0  0  0  0
 36 32  1  0  0  0  0
 37 38  1  0  0  0  0
 37 36  1  0  0  0  0
M  END
>  <MODEL>
6

>  <REMARK>
 VINA RESULT:      -7.8      2.100      3.042
  Name = 
  7 active torsions:
  status: ('A' for Active; 'I' for Inactive)
    1  A    between atoms: C_4  and  O_12
    2  A    between atoms: C_5  and  C_36
    3  A    between atoms: O_12  and  C_23
    4  A    between atoms: C_17  and  C_35
    5  A    between atoms: C_18  and  C_27
    6  A    between atoms: C_22  and  C_38
    7  A    between atoms: C_24  and  C_27
                            x       y       z     vdW  Elec       q    Type
                         _______ _______ _______ _____ _____    ______ ____

>  <TORSDO>
F 7

$$$$
=
 OpenBabel10232412253D

 38 43  0  0  1  0  0  0  0  0999 V2000
  187.0520  178.3860  141.3330 C   0  0  0  0  0  0  0  0  0  0  0  0
  189.4490  178.0330  140.5800 C   0  0  2  0  0  3  0  0  0  0  0  0
  185.7630  178.4500  140.8030 C   0  0  0  0  0  3  0  0  0  0  0  0
  189.6550  177.5840  143.2210 C   0  0  1  0  0  3  0  0  0  0  0  0
  186.0470  178.4160  143.5990 C   0  0  0  0  0  0  0  0  0  0  0  0
  188.8500  177.5880  144.4720 N   0  0  0  0  0  0  0  0  0  0  0  0
  189.2330  176.4580  142.2670 C   0  0  1  0  0  3  0  0  0  0  0  0
  188.1990  177.0720  145.6070 C   0  0  0  0  0  0  0  0  0  0  0  0
  187.2420  178.3930  142.7570 C   0  0  0  0  0  0  0  0  0  0  0  0
  184.7870  178.4690  142.9900 C   0  0  0  0  0  3  0  0  0  0  0  0
  187.0240  177.5880  145.5980 C   0  0  0  0  0  0  0  0  0  0  0  0
  188.6690  178.5690  143.3510 C   0  0  2  0  0  3  0  0  0  0  0  0
  189.6610  176.6820  140.9370 O   0  0  0  0  0  0  0  0  0  0  0  0
  188.0710  178.3160  140.3670 O   0  0  0  0  0  0  0  0  0  0  0  0
  184.6430  178.4980  141.6140 C   0  0  0  0  0  3  0  0  0  0  0  0
  186.0320  178.2530  145.0980 C   0  0  0  0  0  0  0  0  0  0  0  0
  188.6100  177.6580  147.9720 C   0  0  0  0  0  0  0  0  0  0  0  0
  190.4380  176.8220  146.6580 C   0  0  0  0  0  2  0  0  0  0  0  0
  189.9370  178.7110  148.5110 S   0  0  0  0  0  0  0  0  0  0  0  0
  187.5420  177.6230  148.5620 O   0  0  0  0  0  0  0  0  0  0  0  0
  191.0570  177.4140  147.9170 C   0  0  0  0  0  2  0  0  0  0  0  0
  188.9310  176.7120  146.8660 C   0  0  2  0  0  3  0  0  0  0  0  0
  185.2620  179.2320  147.1300 O   0  0  0  0  0  0  0  0  0  0  0  0
  184.9760  178.8100  145.9780 C   0  0  0  0  0  0  0  0  0  0  0  0
  183.5510  178.8620  145.5370 C   0  0  0  0  0  1  0  0  0  0  0  0
  191.0340  175.3370  143.3570 O   0  0  0  0  0  1  0  0  0  0  0  0
  189.7880  175.1350  142.7630 C   0  0  0  0  0  2  0  0  0  0  0  0
  190.2020  178.3520  139.4110 O   0  0  0  0  0  0  0  0  0  0  0  0
  190.3940  176.3520  136.2940 C   0  0  0  0  0  3  0  0  0  0  0  0
  188.5620  177.9180  136.0970 C   0  0  0  0  0  0  0  0  0  0  0  0
  188.8440  178.4070  137.3750 C   0  0  0  0  0  3  0  0  0  0  0  0
  190.6840  176.8400  137.5740 C   0  0  0  0  0  0  0  0  0  0  0  0
  189.3360  176.8900  135.5570 C   0  0  0  0  0  3  0  0  0  0  0  0
  189.9050  177.8740  138.1250 C   0  0  0  0  0  0  0  0  0  0  0  0
  187.5340  178.4390  135.3850 F   0  0  0  0  0  0  0  0  0  0  0  0
  191.8160  176.2340  138.3410 C   0  0  0  0  0  2  0  0  0  0  0  0
  192.3690  175.0050  137.6320 C   0  0  0  0  0  2  0  0  0  0  0  0
  193.8390  175.1920  137.3050 C   0  0  0  0  0  1  0  0  0  0  0  0
  1  9  1  0  0  0  0
  2 28  1  6  0  0  0
  2 13  1  0  0  0  0
  3  1  2  0  0  0  0
  3 15  1  0  0  0  0
  4 12  1  0  0  0  0
  4  6  1  1  0  0  0
  5 16  1  0  0  0  0
  6  8  1  0  0  0  0
  7 27  1  1  0  0  0
  7  4  1  0  0  0  0
  9  5  2  0  0  0  0
 10  5  1  0  0  0  0
 11  8  2  0  0  0  0
 12  9  1  6  0  0  0
 12  6  1  0  0  0  0
 13  7  1  0  0  0  0
 14  2  1  0  0  0  0
 14  1  1  0  0  0  0
 15 10  2  0  0  0  0
 16 11  2  0  0  0  0
 16 24  1  0  0  0  0
 17 19  1  0  0  0  0
 17 20  2  0  0  0  0
 18 22  1  0  0  0  0
 18 21  1  0  0  0  0
 21 19  1  0  0  0  0
 22  8  1  6  0  0  0
 22 17  1  0  0  0  0
 24 23  2  0  0  0  0
 25 24  1  0  0  0  0
 27 26  1  0  0  0  0
 29 32  1  0  0  0  0
 30 31  2  0  0  0  0
 31 34  1  0  0  0  0
 32 34  2  0  0  0  0
 32 36  1  0  0  0  0
 33 30  1  0  0  0  0
 33 29  2  0  0  0  0
 34 28  1  0  0  0  0
 35 30  1  0  0  0  0
 37 36  1  0  0  0  0
 38 37  1  0  0  0  0
M  END
>  <MODEL>
7

>  <REMARK>
 VINA RESULT:      -7.6      1.535      1.889
  Name = 
  7 active torsions:
  status: ('A' for Active; 'I' for Inactive)
    1  A    between atoms: C_4  and  O_12
    2  A    between atoms: C_5  and  C_36
    3  A    between atoms: O_12  and  C_23
    4  A    between atoms: C_17  and  C_35
    5  A    between atoms: C_18  and  C_27
    6  A    between atoms: C_22  and  C_38
    7  A    between atoms: C_24  and  C_27
                            x       y       z     vdW  Elec       q    Type
                         _______ _______ _______ _____ _____    ______ ____

>  <TORSDO>
F 7

$$$$
=
 OpenBabel10232412253D

 38 43  0  0  1  0  0  0  0  0999 V2000
  190.9730  177.7580  142.2640 C   0  0  0  0  0  0  0  0  0  0  0  0
  189.8850  177.4250  139.9960 C   0  0  2  0  0  3  0  0  0  0  0  0
  192.1590  178.2350  142.8200 C   0  0  0  0  0  3  0  0  0  0  0  0
  187.7590  177.2560  141.6290 C   0  0  1  0  0  3  0  0  0  0  0  0
  190.0310  177.6270  144.5520 C   0  0  0  0  0  0  0  0  0  0  0  0
  187.3890  177.2790  143.0690 N   0  0  0  0  0  0  0  0  0  0  0  0
  188.2630  178.6210  141.1410 C   0  0  1  0  0  3  0  0  0  0  0  0
  186.8110  177.7520  144.2610 C   0  0  0  0  0  0  0  0  0  0  0  0
  189.8700  177.4110  143.1160 C   0  0  0  0  0  0  0  0  0  0  0  0
  191.2510  178.1200  145.0330 C   0  0  0  0  0  3  0  0  0  0  0  0
  187.7340  177.6730  145.1490 C   0  0  0  0  0  0  0  0  0  0  0  0
  188.6430  176.6530  142.5320 C   0  0  2  0  0  3  0  0  0  0  0  0
  189.0050  178.5290  139.9390 O   0  0  0  0  0  0  0  0  0  0  0  0
  190.9880  177.6690  140.8600 O   0  0  0  0  0  0  0  0  0  0  0  0
  192.3050  178.4100  144.1850 C   0  0  0  0  0  3  0  0  0  0  0  0
  188.9390  177.4910  145.5840 C   0  0  0  0  0  0  0  0  0  0  0  0
  184.5000  178.2550  143.5440 C   0  0  0  0  0  0  0  0  0  0  0  0
  185.0090  178.2770  145.8920 C   0  0  0  0  0  2  0  0  0  0  0  0
  183.5880  179.6810  144.0850 S   0  0  0  0  0  0  0  0  0  0  0  0
  184.3350  177.7730  142.4350 O   0  0  0  0  0  0  0  0  0  0  0  0
  183.6530  178.9540  145.7440 C   0  0  0  0  0  2  0  0  0  0  0  0
  185.3520  177.5920  144.5730 C   0  0  2  0  0  3  0  0  0  0  0  0
  190.0530  176.3020  147.3240 O   0  0  0  0  0  0  0  0  0  0  0  0
  189.1870  177.1610  147.0090 C   0  0  0  0  0  0  0  0  0  0  0  0
  188.4070  177.8160  148.1010 C   0  0  0  0  0  1  0  0  0  0  0  0
  186.1490  178.9650  140.0910 O   0  0  0  0  0  1  0  0  0  0  0  0
  187.0850  179.5570  140.9400 C   0  0  0  0  0  2  0  0  0  0  0  0
  190.3500  177.1060  138.6840 O   0  0  0  0  0  0  0  0  0  0  0  0
  188.3570  174.5460  136.8890 C   0  0  0  0  0  3  0  0  0  0  0  0
  190.6490  173.7860  137.0260 C   0  0  0  0  0  0  0  0  0  0  0  0
  190.9930  174.9520  137.7130 C   0  0  0  0  0  3  0  0  0  0  0  0
  188.6950  175.7150  137.5800 C   0  0  0  0  0  0  0  0  0  0  0  0
  189.3310  173.5830  136.6130 C   0  0  0  0  0  3  0  0  0  0  0  0
  190.0220  175.9270  137.9960 C   0  0  0  0  0  0  0  0  0  0  0  0
  191.5950  172.8540  136.7580 F   0  0  0  0  0  0  0  0  0  0  0  0
  187.6300  176.7310  137.8480 C   0  0  0  0  0  2  0  0  0  0  0  0
  187.5370  177.7450  136.7170 C   0  0  0  0  0  2  0  0  0  0  0  0
  186.2760  177.5240  135.9020 C   0  0  0  0  0  1  0  0  0  0  0  0
  1  3  2  0  0  0  0
  1  9  1  0  0  0  0
  2 28  1  6  0  0  0
  2 14  1  0  0  0  0
  3 15  1  0  0  0  0
  4 12  1  0  0  0  0
  4  6  1  1  0  0  0
  5 10  1  0  0  0  0
  5 16  1  0  0  0  0
  6  8  1  0  0  0  0
  7 27  1  6  0  0  0
  7  4  1  0  0  0  0
  8 11  2  0  0  0  0
  9  5  2  0  0  0  0
 11 16  2  0  0  0  0
 12  6  1  0  0  0  0
 12  9  1  1  0  0  0
 13  2  1  0  0  0  0
 13  7  1  0  0  0  0
 14  1  1  0  0  0  0
 15 10  2  0  0  0  0
 16 24  1  0  0  0  0
 17 19  1  0  0  0  0
 17 22  1  0  0  0  0
 19 21  1  0  0  0  0
 20 17  2  0  0  0  0
 21 18  1  0  0  0  0
 22  8  1  6  0  0  0
 22 18  1  0  0  0  0
 24 23  2  0  0  0  0
 24 25  1  0  0  0  0
 26 27  1  0  0  0  0
 29 32  1  0  0  0  0
 30 31  2  0  0  0  0
 31 34  1  0  0  0  0
 32 36  1  0  0  0  0
 32 34  2  0  0  0  0
 33 29  2  0  0  0  0
 33 30  1  0  0  0  0
 34 28  1  0  0  0  0
 35 30  1  0  0  0  0
 37 36  1  0  0  0  0
 38 37  1  0  0  0  0
M  END
>  <MODEL>
8

>  <REMARK>
 VINA RESULT:      -7.6      2.593      4.984
  Name = 
  7 active torsions:
  status: ('A' for Active; 'I' for Inactive)
    1  A    between atoms: C_4  and  O_12
    2  A    between atoms: C_5  and  C_36
    3  A    between atoms: O_12  and  C_23
    4  A    between atoms: C_17  and  C_35
    5  A    between atoms: C_18  and  C_27
    6  A    between atoms: C_22  and  C_38
    7  A    between atoms: C_24  and  C_27
                            x       y       z     vdW  Elec       q    Type
                         _______ _______ _______ _____ _____    ______ ____

>  <TORSDO>
F 7

$$$$
=
 OpenBabel10232412253D

 38 43  0  0  1  0  0  0  0  0999 V2000
  188.5030  177.9600  140.0180 C   0  0  0  0  0  0  0  0  0  0  0  0
  186.5240  178.4020  138.4930 C   0  0  2  0  0  3  0  0  0  0  0  0
  188.8050  177.8640  141.3760 C   0  0  0  0  0  3  0  0  0  0  0  0
  188.2740  177.3020  136.7770 C   0  0  1  0  0  3  0  0  0  0  0  0
  190.7830  177.1260  139.5210 C   0  0  0  0  0  0  0  0  0  0  0  0
  189.6620  176.7710  136.7060 N   0  0  0  0  0  0  0  0  0  0  0  0
  187.3610  176.4170  137.6380 C   0  0  1  0  0  3  0  0  0  0  0  0
  190.6920  175.8230  136.5600 C   0  0  0  0  0  0  0  0  0  0  0  0
  189.4950  177.6170  139.0370 C   0  0  0  0  0  0  0  0  0  0  0  0
  191.0060  177.0480  140.9010 C   0  0  0  0  0  3  0  0  0  0  0  0
  191.4960  176.0310  137.5380 C   0  0  0  0  0  0  0  0  0  0  0  0
  189.2540  177.9530  137.5360 C   0  0  2  0  0  3  0  0  0  0  0  0
  186.1960  177.0940  138.0690 O   0  0  0  0  0  0  0  0  0  0  0  0
  187.1950  178.4000  139.7470 O   0  0  0  0  0  0  0  0  0  0  0  0
  190.0390  177.4220  141.8180 C   0  0  0  0  0  3  0  0  0  0  0  0
  191.8810  176.5560  138.6580 C   0  0  0  0  0  0  0  0  0  0  0  0
  190.8900  173.8480  135.0890 C   0  0  0  0  0  0  0  0  0  0  0  0
  192.6430  175.4910  135.0560 C   0  0  0  0  0  2  0  0  0  0  0  0
  192.3350  172.8150  135.0140 S   0  0  0  0  0  0  0  0  0  0  0  0
  189.7710  173.3950  134.9100 O   0  0  0  0  0  0  0  0  0  0  0  0
  193.1980  174.2630  134.3460 C   0  0  0  0  0  2  0  0  0  0  0  0
  191.1370  175.3120  135.2220 C   0  0  2  0  0  3  0  0  0  0  0  0
  193.8010  177.5730  139.6350 O   0  0  0  0  0  0  0  0  0  0  0  0
  193.3180  176.5840  139.0250 C   0  0  0  0  0  0  0  0  0  0  0  0
  194.2300  175.4580  138.6630 C   0  0  0  0  0  1  0  0  0  0  0  0
  186.7170  175.5170  135.5250 O   0  0  0  0  0  1  0  0  0  0  0  0
  186.9680  175.1770  136.8550 C   0  0  0  0  0  2  0  0  0  0  0  0
  185.3420  179.1990  138.5680 O   0  0  0  0  0  0  0  0  0  0  0  0
  182.4670  178.1830  140.6770 C   0  0  0  0  0  3  0  0  0  0  0  0
  181.9120  177.7670  138.3610 C   0  0  0  0  0  0  0  0  0  0  0  0
  183.1640  178.2520  137.9750 C   0  0  0  0  0  3  0  0  0  0  0  0
  183.7240  178.6680  140.2990 C   0  0  0  0  0  0  0  0  0  0  0  0
  181.5630  177.7330  139.7120 C   0  0  0  0  0  3  0  0  0  0  0  0
  184.0810  178.7070  138.9370 C   0  0  0  0  0  0  0  0  0  0  0  0
  181.0360  177.3330  137.4230 F   0  0  0  0  0  0  0  0  0  0  0  0
  184.6630  179.1530  141.3560 C   0  0  0  0  0  2  0  0  0  0  0  0
  184.9940  178.0500  142.3510 C   0  0  0  0  0  2  0  0  0  0  0  0
  184.5020  178.4140  143.7390 C   0  0  0  0  0  1  0  0  0  0  0  0
  1  3  1  0  0  0  0
  2 28  1  1  0  0  0
  2 14  1  0  0  0  0
  3 15  2  0  0  0  0
  4  6  1  6  0  0  0
  4 12  1  0  0  0  0
  4  7  1  0  0  0  0
  5 10  2  0  0  0  0
  6 12  1  0  0  0  0
  7 27  1  6  0  0  0
  7 13  1  0  0  0  0
  8  6  1  0  0  0  0
  8 11  2  0  0  0  0
  9  5  1  0  0  0  0
  9  1  2  0  0  0  0
 10 15  1  0  0  0  0
 11 16  2  0  0  0  0
 12  9  1  1  0  0  0
 13  2  1  0  0  0  0
 14  1  1  0  0  0  0
 16 24  1  0  0  0  0
 16  5  1  0  0  0  0
 17 22  1  0  0  0  0
 18 22  1  0  0  0  0
 19 17  1  0  0  0  0
 20 17  2  0  0  0  0
 21 19  1  0  0  0  0
 21 18  1  0  0  0  0
 22  8  1  1  0  0  0
 24 23  2  0  0  0  0
 25 24  1  0  0  0  0
 26 27  1  0  0  0  0
 28 34  1  0  0  0  0
 30 33  1  0  0  0  0
 31 30  2  0  0  0  0
 31 34  1  0  0  0  0
 32 29  1  0  0  0  0
 32 36  1  0  0  0  0
 33 29  2  0  0  0  0
 34 32  2  0  0  0  0
 35 30  1  0  0  0  0
 36 37  1  0  0  0  0
 37 38  1  0  0  0  0
M  END
>  <MODEL>
9

>  <REMARK>
 VINA RESULT:      -7.4      3.602      7.929
  Name = 
  7 active torsions:
  status: ('A' for Active; 'I' for Inactive)
    1  A    between atoms: C_4  and  O_12
    2  A    between atoms: C_5  and  C_36
    3  A    between atoms: O_12  and  C_23
    4  A    between atoms: C_17  and  C_35
    5  A    between atoms: C_18  and  C_27
    6  A    between atoms: C_22  and  C_38
    7  A    between atoms: C_24  and  C_27
                            x       y       z     vdW  Elec       q    Type
                         _______ _______ _______ _____ _____    ______ ____

>  <TORSDO>
F 7

$$$$
