=
 OpenBabel10232409493D

 45 50  0  0  1  0  0  0  0  0999 V2000
  184.0650  179.1740  140.9010 C   0  0  0  0  0  2  0  0  0  0  0  0
  187.5660  178.2430  138.6260 C   0  0  0  0  0  0  0  0  0  0  0  0
  183.8660  178.0830  143.4570 O   0  0  0  0  0  0  0  0  0  0  0  0
  183.9780  178.8030  139.4270 C   0  0  1  0  0  3  0  0  0  0  0  0
  186.1510  178.5240  143.9490 C   0  0  2  0  0  3  0  0  0  0  0  0
  185.0100  178.3670  143.0030 C   0  0  0  0  0  0  0  0  0  0  0  0
  189.0440  178.7350  136.6700 C   0  0  0  0  0  2  0  0  0  0  0  0
  188.7340  177.5850  139.2520 C   0  0  0  0  0  0  0  0  0  0  0  0
  186.9070  177.2240  143.9790 C   0  0  0  0  0  2  0  0  0  0  0  0
  185.2770  179.1540  138.7190 C   0  0  0  0  0  2  0  0  0  0  0  0
  189.8300  177.2900  138.5460 C   0  0  0  0  0  3  0  0  0  0  0  0
  188.9600  176.5780  142.8590 N   0  0  0  0  0  0  0  0  0  0  0  0
  188.6530  177.3330  140.6500 N   0  0  0  0  0  0  0  0  0  0  0  0
  187.5070  177.6370  141.4220 C   0  0  0  0  0  0  0  0  0  0  0  0
  190.6520  176.2160  141.2460 O   0  0  0  0  0  0  0  0  0  0  0  0
  186.4240  178.2380  140.8640 C   0  0  0  0  0  0  0  0  0  0  0  0
  186.4730  178.5220  139.3790 C   0  0  0  0  0  0  0  0  0  0  0  0
  189.5200  176.6730  141.5540 C   0  0  0  0  0  0  0  0  0  0  0  0
  185.1910  178.5290  141.5860 N   0  0  0  0  0  0  0  0  0  0  0  0
  187.7930  177.1450  142.7900 C   0  0  0  0  0  0  0  0  0  0  0  0
  189.8920  177.5270  137.0620 C   0  0  0  0  0  2  0  0  0  0  0  0
  187.6050  178.5340  137.1450 C   0  0  0  0  0  2  0  0  0  0  0  0
  183.5450  177.3810  139.2010 C   0  0  0  0  0  0  0  0  0  0  0  0
  183.0750  176.7150  140.1110 O   0  0  0  0  0  0  0  0  0  0  0  0
  183.7580  176.6370  137.5790 S   0  0  0  0  0  0  0  0  0  0  0  0
  183.5990  173.9070  137.1020 C   0  0  1  0  0  3  0  0  0  0  0  0
  182.4580  173.0940  136.7230 N   0  0  0  0  0  2  0  0  0  0  0  0
  181.6340  174.9800  137.9110 N   0  0  0  0  0  2  0  0  0  0  0  0
  183.0790  174.9930  138.0130 C   0  0  2  0  0  3  0  0  0  0  0  0
  181.3120  173.6430  137.4380 C   0  0  0  0  0  2  0  0  0  0  0  0
  184.6220  173.0460  137.8240 C   0  0  0  0  0  2  0  0  0  0  0  0
  186.0300  173.4690  137.4510 C   0  0  0  0  0  1  0  0  0  0  0  0
  185.6930  178.8330  145.2330 O   0  0  0  0  0  0  0  0  0  0  0  0
  186.2910  177.8830  146.0660 C   0  0  0  0  0  2  0  0  0  0  0  0
  186.6570  178.5160  147.3960 C   0  0  0  0  0  2  0  0  0  0  0  0
  187.8090  177.7610  148.0380 C   0  0  0  0  0  2  0  0  0  0  0  0
  188.7070  177.1640  146.9690 C   0  0  0  0  0  2  0  0  0  0  0  0
  190.0850  177.5770  147.1880 N   0  0  0  0  0  2  0  0  0  0  0  0
  190.9430  176.5240  146.6620 C   0  0  2  0  0  3  0  0  0  0  0  0
  192.0940  176.2780  147.5850 C   0  0  0  0  0  0  0  0  0  0  0  0
  192.3570  177.1790  148.6070 O   0  0  0  0  0  1  0  0  0  0  0  0
  192.8130  175.2520  147.4540 O   0  0  0  0  0  0  0  0  0  0  0  0
  191.7360  175.8760  144.4150 F   0  0  0  0  0  0  0  0  0  0  0  0
  191.4190  176.8700  145.2820 C   0  0  0  0  0  0  0  0  0  0  0  0
  191.5230  178.0350  144.9320 O   0  0  0  0  0  0  0  0  0  0  0  0
  1 19  1  0  0  0  0
  2  8  1  0  0  0  0
  2 17  2  0  0  0  0
  4 23  1  1  0  0  0
  4  1  1  0  0  0  0
  5  9  1  0  0  0  0
  5 33  1  1  0  0  0
  6  3  2  0  0  0  0
  6  5  1  0  0  0  0
  7 21  1  0  0  0  0
  7 22  1  0  0  0  0
  8 13  1  0  0  0  0
 10 17  1  0  0  0  0
 10  4  1  0  0  0  0
 11  8  2  0  0  0  0
 13 14  1  0  0  0  0
 13 18  1  0  0  0  0
 14 20  1  0  0  0  0
 15 18  2  0  0  0  0
 16 14  2  0  0  0  0
 16 19  1  0  0  0  0
 17 16  1  0  0  0  0
 18 12  1  0  0  0  0
 19  6  1  0  0  0  0
 20 12  2  0  0  0  0
 20  9  1  0  0  0  0
 21 11  1  0  0  0  0
 22  2  1  0  0  0  0
 23 24  2  0  0  0  0
 25 23  1  0  0  0  0
 26 31  1  1  0  0  0
 26 29  1  0  0  0  0
 27 26  1  0  0  0  0
 27 30  1  0  0  0  0
 28 29  1  0  0  0  0
 29 25  1  6  0  0  0
 30 28  1  0  0  0  0
 32 31  1  0  0  0  0
 33 34  1  0  0  0  0
 34 35  1  0  0  0  0
 35 36  1  0  0  0  0
 37 38  1  0  0  0  0
 37 36  1  0  0  0  0
 39 44  1  6  0  0  0
 39 38  1  0  0  0  0
 39 40  1  0  0  0  0
 40 41  1  0  0  0  0
 42 40  2  0  0  0  0
 43 44  1  0  0  0  0
 45 44  2  0  0  0  0
M  END
>  <MODEL>
1

>  <REMARK>
 VINA RESULT:      -7.8      0.000      0.000
  Name = 
  13 active torsions:
  status: ('A' for Active; 'I' for Inactive)
    1  A    between atoms: CA_2  and  C_13
    2  A    between atoms: CA_2  and  N_41
    3  A    between atoms: CA_2  and  C_42
    4  A    between atoms: S_4  and  C_14
    5  A    between atoms: S_4  and  C_20
    6  A    between atoms: C_5  and  C_30
    7  A    between atoms: C_8  and  C_14
    8  A    between atoms: C_9  and  O_18
    9  A    between atoms: C_9  and  C_38
   10  A    between atoms: C_10  and  O_18
   11  A    between atoms: C_12  and  C_34
   12  A    between atoms: C_12  and  N_41
   13  A    between atoms: C_34  and  C_38
                            x       y       z     vdW  Elec       q    Type
                         _______ _______ _______ _____ _____    ______ ____

>  <TORSDO>
F 13

$$$$
=
 OpenBabel10232409493D

 45 50  0  0  1  0  0  0  0  0999 V2000
  184.0210  178.1370  138.1680 C   0  0  0  0  0  2  0  0  0  0  0  0
  187.9210  177.2790  136.6350 C   0  0  0  0  0  0  0  0  0  0  0  0
  183.7010  178.1430  140.9360 O   0  0  0  0  0  0  0  0  0  0  0  0
  184.2190  177.2010  136.9840 C   0  0  1  0  0  3  0  0  0  0  0  0
  185.7520  179.2950  141.2870 C   0  0  2  0  0  3  0  0  0  0  0  0
  184.8120  178.4960  140.4510 C   0  0  0  0  0  0  0  0  0  0  0  0
  189.5200  177.3010  134.7130 C   0  0  0  0  0  2  0  0  0  0  0  0
  189.1020  177.2370  137.5250 C   0  0  0  0  0  0  0  0  0  0  0  0
  186.7520  178.3470  141.8900 C   0  0  0  0  0  2  0  0  0  0  0  0
  185.5020  177.5510  136.2470 C   0  0  0  0  0  2  0  0  0  0  0  0
  190.3230  176.9680  137.0520 C   0  0  0  0  0  3  0  0  0  0  0  0
  189.0300  177.8400  141.2270 N   0  0  0  0  0  0  0  0  0  0  0  0
  188.8820  177.5520  138.8940 N   0  0  0  0  0  0  0  0  0  0  0  0
  187.6020  177.8430  139.4220 C   0  0  0  0  0  0  0  0  0  0  0  0
  190.9680  177.2990  139.9830 O   0  0  0  0  0  0  0  0  0  0  0  0
  186.5050  177.8820  138.6210 C   0  0  0  0  0  0  0  0  0  0  0  0
  186.7000  177.5530  137.1570 C   0  0  0  0  0  0  0  0  0  0  0  0
  189.7330  177.5440  140.0260 C   0  0  0  0  0  0  0  0  0  0  0  0
  185.1500  178.1200  139.1050 N   0  0  0  0  0  0  0  0  0  0  0  0
  187.7910  178.0240  140.8800 C   0  0  0  0  0  0  0  0  0  0  0  0
  190.5390  176.6010  135.6100 C   0  0  0  0  0  2  0  0  0  0  0  0
  188.1030  176.9550  135.1710 C   0  0  0  0  0  2  0  0  0  0  0  0
  184.1290  175.7480  137.3600 C   0  0  0  0  0  0  0  0  0  0  0  0
  183.5910  175.3990  138.4000 O   0  0  0  0  0  0  0  0  0  0  0  0
  184.8590  174.5080  136.2830 S   0  0  0  0  0  0  0  0  0  0  0  0
  183.6760  172.1290  135.4760 C   0  0  1  0  0  3  0  0  0  0  0  0
  182.6170  171.8990  134.5110 N   0  0  0  0  0  2  0  0  0  0  0  0
  182.3340  174.0940  135.3770 N   0  0  0  0  0  2  0  0  0  0  0  0
  183.3730  173.4460  136.1510 C   0  0  2  0  0  3  0  0  0  0  0  0
  181.6840  173.0100  134.6580 C   0  0  0  0  0  2  0  0  0  0  0  0
  183.6980  170.9990  136.4900 C   0  0  0  0  0  2  0  0  0  0  0  0
  183.3850  169.6750  135.8170 C   0  0  0  0  0  1  0  0  0  0  0  0
  185.0660  179.9660  142.3040 O   0  0  0  0  0  0  0  0  0  0  0  0
  185.2710  179.1900  143.4480 C   0  0  0  0  0  2  0  0  0  0  0  0
  184.0900  179.3340  144.3900 C   0  0  0  0  0  2  0  0  0  0  0  0
  184.3630  178.5970  145.6910 C   0  0  0  0  0  2  0  0  0  0  0  0
  185.7910  178.8440  146.1450 C   0  0  0  0  0  2  0  0  0  0  0  0
  186.5000  177.5790  146.2680 N   0  0  0  0  0  2  0  0  0  0  0  0
  187.9150  177.8880  146.4200 C   0  0  2  0  0  3  0  0  0  0  0  0
  188.6650  177.5250  145.1780 C   0  0  0  0  0  0  0  0  0  0  0  0
  189.8580  178.1710  144.8850 O   0  0  0  0  0  1  0  0  0  0  0  0
  188.2340  176.6270  144.4060 O   0  0  0  0  0  0  0  0  0  0  0  0
  189.5100  176.3150  147.4600 F   0  0  0  0  0  0  0  0  0  0  0  0
  188.4840  177.1890  147.6190 C   0  0  0  0  0  0  0  0  0  0  0  0
  188.0360  177.4000  148.7350 O   0  0  0  0  0  0  0  0  0  0  0  0
  1 19  1  0  0  0  0
  2 17  2  0  0  0  0
  2  8  1  0  0  0  0
  4 23  1  1  0  0  0
  4  1  1  0  0  0  0
  5  9  1  0  0  0  0
  5 33  1  1  0  0  0
  6  3  2  0  0  0  0
  6  5  1  0  0  0  0
  7 22  1  0  0  0  0
  7 21  1  0  0  0  0
  8 13  1  0  0  0  0
 10  4  1  0  0  0  0
 10 17  1  0  0  0  0
 11  8  2  0  0  0  0
 13 14  1  0  0  0  0
 13 18  1  0  0  0  0
 14 20  1  0  0  0  0
 15 18  2  0  0  0  0
 16 19  1  0  0  0  0
 16 14  2  0  0  0  0
 17 16  1  0  0  0  0
 18 12  1  0  0  0  0
 19  6  1  0  0  0  0
 20 12  2  0  0  0  0
 20  9  1  0  0  0  0
 21 11  1  0  0  0  0
 22  2  1  0  0  0  0
 23 24  2  0  0  0  0
 25 23  1  0  0  0  0
 26 29  1  0  0  0  0
 26 31  1  1  0  0  0
 27 30  1  0  0  0  0
 27 26  1  0  0  0  0
 28 29  1  0  0  0  0
 29 25  1  6  0  0  0
 30 28  1  0  0  0  0
 32 31  1  0  0  0  0
 33 34  1  0  0  0  0
 34 35  1  0  0  0  0
 35 36  1  0  0  0  0
 36 37  1  0  0  0  0
 37 38  1  0  0  0  0
 38 39  1  0  0  0  0
 39 40  1  6  0  0  0
 39 44  1  0  0  0  0
 41 40  1  0  0  0  0
 42 40  2  0  0  0  0
 43 44  1  0  0  0  0
 44 45  2  0  0  0  0
M  END
>  <MODEL>
2

>  <REMARK>
 VINA RESULT:      -7.3      2.187      3.060
  Name = 
  13 active torsions:
  status: ('A' for Active; 'I' for Inactive)
    1  A    between atoms: CA_2  and  C_13
    2  A    between atoms: CA_2  and  N_41
    3  A    between atoms: CA_2  and  C_42
    4  A    between atoms: S_4  and  C_14
    5  A    between atoms: S_4  and  C_20
    6  A    between atoms: C_5  and  C_30
    7  A    between atoms: C_8  and  C_14
    8  A    between atoms: C_9  and  O_18
    9  A    between atoms: C_9  and  C_38
   10  A    between atoms: C_10  and  O_18
   11  A    between atoms: C_12  and  C_34
   12  A    between atoms: C_12  and  N_41
   13  A    between atoms: C_34  and  C_38
                            x       y       z     vdW  Elec       q    Type
                         _______ _______ _______ _____ _____    ______ ____

>  <TORSDO>
F 13

$$$$
=
 OpenBabel10232409493D

 45 50  0  0  1  0  0  0  0  0999 V2000
  190.8870  178.0070  141.2530 C   0  0  0  0  0  2  0  0  0  0  0  0
  186.9630  178.1060  139.5520 C   0  0  0  0  0  0  0  0  0  0  0  0
  192.7500  176.2940  140.0870 O   0  0  0  0  0  0  0  0  0  0  0  0
  189.6430  178.0110  142.1300 C   0  0  1  0  0  3  0  0  0  0  0  0
  192.0710  176.8690  137.8810 C   0  0  2  0  0  3  0  0  0  0  0  0
  191.8630  176.8180  139.3560 C   0  0  0  0  0  0  0  0  0  0  0  0
  184.7480  179.2470  139.3390 C   0  0  0  0  0  2  0  0  0  0  0  0
  186.6740  177.4570  138.2550 C   0  0  0  0  0  0  0  0  0  0  0  0
  191.3400  175.7030  137.2720 C   0  0  0  0  0  2  0  0  0  0  0  0
  188.4880  178.6810  141.4010 C   0  0  0  0  0  2  0  0  0  0  0  0
  185.4490  177.4820  137.7190 C   0  0  0  0  0  3  0  0  0  0  0  0
  189.1830  175.6100  136.1640 N   0  0  0  0  0  0  0  0  0  0  0  0
  187.7730  176.8540  137.5820 N   0  0  0  0  0  0  0  0  0  0  0  0
  189.0790  176.8140  138.1230 C   0  0  0  0  0  0  0  0  0  0  0  0
  186.8970  175.8720  135.6160 O   0  0  0  0  0  0  0  0  0  0  0  0
  189.3630  177.4010  139.3150 C   0  0  0  0  0  0  0  0  0  0  0  0
  188.2190  178.0530  140.0610 C   0  0  0  0  0  0  0  0  0  0  0  0
  187.8650  176.0970  136.3890 C   0  0  0  0  0  0  0  0  0  0  0  0
  190.6710  177.3510  139.9580 N   0  0  0  0  0  0  0  0  0  0  0  0
  189.8960  176.0320  137.1660 C   0  0  0  0  0  0  0  0  0  0  0  0
  184.2870  178.0900  138.4550 C   0  0  0  0  0  2  0  0  0  0  0  0
  185.8300  178.7610  140.3040 C   0  0  0  0  0  2  0  0  0  0  0  0
  189.2950  176.6500  142.6650 C   0  0  0  0  0  0  0  0  0  0  0  0
  190.0320  175.6930  142.4790 O   0  0  0  0  0  0  0  0  0  0  0  0
  187.7530  176.4160  143.5580 S   0  0  0  0  0  0  0  0  0  0  0  0
  189.1550  176.8930  145.9060 C   0  0  1  0  0  3  0  0  0  0  0  0
  188.6620  177.1240  147.2520 N   0  0  0  0  0  2  0  0  0  0  0  0
  186.9730  177.8320  145.7380 N   0  0  0  0  0  2  0  0  0  0  0  0
  188.1560  177.5190  144.9620 C   0  0  2  0  0  3  0  0  0  0  0  0
  187.4470  177.9170  147.1100 C   0  0  0  0  0  2  0  0  0  0  0  0
  190.5210  177.5370  145.7450 C   0  0  0  0  0  2  0  0  0  0  0  0
  191.6190  176.5020  145.9120 C   0  0  0  0  0  1  0  0  0  0  0  0
  193.4300  176.7870  137.5670 O   0  0  0  0  0  0  0  0  0  0  0  0
  193.4790  176.0900  136.3570 C   0  0  0  0  0  2  0  0  0  0  0  0
  194.7750  176.4030  135.6300 C   0  0  0  0  0  2  0  0  0  0  0  0
  195.2780  175.1690  134.9010 C   0  0  0  0  0  2  0  0  0  0  0  0
  196.5010  174.6050  135.6020 C   0  0  0  0  0  2  0  0  0  0  0  0
  196.7220  175.3040  136.8580 N   0  0  0  0  0  2  0  0  0  0  0  0
  197.1310  174.3110  137.8420 C   0  0  2  0  0  3  0  0  0  0  0  0
  196.0710  174.1390  138.8820 C   0  0  0  0  0  0  0  0  0  0  0  0
  195.7250  175.2120  139.6920 O   0  0  0  0  0  1  0  0  0  0  0  0
  195.4760  173.0360  139.0180 O   0  0  0  0  0  0  0  0  0  0  0  0
  199.4710  173.8050  138.4460 F   0  0  0  0  0  0  0  0  0  0  0  0
  198.4430  174.6890  138.4630 C   0  0  0  0  0  0  0  0  0  0  0  0
  198.5950  175.7850  138.9810 O   0  0  0  0  0  0  0  0  0  0  0  0
  1  4  1  0  0  0  0
  2 17  2  0  0  0  0
  2 22  1  0  0  0  0
  4 23  1  6  0  0  0
  5 33  1  1  0  0  0
  5  6  1  0  0  0  0
  6 19  1  0  0  0  0
  6  3  2  0  0  0  0
  7 22  1  0  0  0  0
  8  2  1  0  0  0  0
  9  5  1  0  0  0  0
 10  4  1  0  0  0  0
 11  8  2  0  0  0  0
 11 21  1  0  0  0  0
 12 18  1  0  0  0  0
 12 20  2  0  0  0  0
 13 14  1  0  0  0  0
 13  8  1  0  0  0  0
 14 16  2  0  0  0  0
 15 18  2  0  0  0  0
 16 19  1  0  0  0  0
 16 17  1  0  0  0  0
 17 10  1  0  0  0  0
 18 13  1  0  0  0  0
 19  1  1  0  0  0  0
 20  9  1  0  0  0  0
 20 14  1  0  0  0  0
 21  7  1  0  0  0  0
 23 25  1  0  0  0  0
 24 23  2  0  0  0  0
 26 31  1  1  0  0  0
 26 27  1  0  0  0  0
 28 30  1  0  0  0  0
 29 25  1  6  0  0  0
 29 28  1  0  0  0  0
 29 26  1  0  0  0  0
 30 27  1  0  0  0  0
 31 32  1  0  0  0  0
 34 33  1  0  0  0  0
 35 34  1  0  0  0  0
 36 37  1  0  0  0  0
 36 35  1  0  0  0  0
 37 38  1  0  0  0  0
 39 38  1  6  0  0  0
 39 44  1  0  0  0  0
 39 40  1  0  0  0  0
 40 42  2  0  0  0  0
 40 41  1  0  0  0  0
 43 44  1  0  0  0  0
 44 45  2  0  0  0  0
M  END
>  <MODEL>
3

>  <REMARK>
 VINA RESULT:      -7.2      4.397      8.797
  Name = 
  13 active torsions:
  status: ('A' for Active; 'I' for Inactive)
    1  A    between atoms: CA_2  and  C_13
    2  A    between atoms: CA_2  and  N_41
    3  A    between atoms: CA_2  and  C_42
    4  A    between atoms: S_4  and  C_14
    5  A    between atoms: S_4  and  C_20
    6  A    between atoms: C_5  and  C_30
    7  A    between atoms: C_8  and  C_14
    8  A    between atoms: C_9  and  O_18
    9  A    between atoms: C_9  and  C_38
   10  A    between atoms: C_10  and  O_18
   11  A    between atoms: C_12  and  C_34
   12  A    between atoms: C_12  and  N_41
   13  A    between atoms: C_34  and  C_38
                            x       y       z     vdW  Elec       q    Type
                         _______ _______ _______ _____ _____    ______ ____

>  <TORSDO>
F 13

$$$$
=
 OpenBabel10232409493D

 45 50  0  0  1  0  0  0  0  0999 V2000
  191.9250  174.7000  137.9570 C   0  0  0  0  0  2  0  0  0  0  0  0
  188.2060  174.6140  135.8460 C   0  0  0  0  0  0  0  0  0  0  0  0
  192.4480  176.9280  139.5470 O   0  0  0  0  0  0  0  0  0  0  0  0
  191.8480  174.2530  136.5040 C   0  0  1  0  0  3  0  0  0  0  0  0
  190.2270  176.9910  140.3930 C   0  0  2  0  0  3  0  0  0  0  0  0
  191.2530  176.5460  139.4080 C   0  0  0  0  0  0  0  0  0  0  0  0
  186.4980  173.3110  134.5660 C   0  0  0  0  0  2  0  0  0  0  0  0
  187.1360  175.5940  136.1370 C   0  0  0  0  0  0  0  0  0  0  0  0
  189.5120  178.1790  139.8090 C   0  0  0  0  0  2  0  0  0  0  0  0
  190.4660  173.6970  136.1980 C   0  0  0  0  0  2  0  0  0  0  0  0
  185.9720  175.5730  135.4790 C   0  0  0  0  0  3  0  0  0  0  0  0
  187.3590  178.3250  138.7000 N   0  0  0  0  0  0  0  0  0  0  0  0
  187.3860  176.5200  137.1880 N   0  0  0  0  0  0  0  0  0  0  0  0
  188.6060  176.5630  137.9020 C   0  0  0  0  0  0  0  0  0  0  0  0
  185.4990  177.9440  137.2880 O   0  0  0  0  0  0  0  0  0  0  0  0
  189.6020  175.6740  137.6450 C   0  0  0  0  0  0  0  0  0  0  0  0
  189.3720  174.6730  136.5350 C   0  0  0  0  0  0  0  0  0  0  0  0
  186.6480  177.6200  137.6890 C   0  0  0  0  0  0  0  0  0  0  0  0
  190.9030  175.6950  138.3030 N   0  0  0  0  0  0  0  0  0  0  0  0
  188.4950  177.7090  138.8340 C   0  0  0  0  0  0  0  0  0  0  0  0
  185.7320  174.6140  134.3460 C   0  0  0  0  0  2  0  0  0  0  0  0
  187.9870  173.6090  134.7400 C   0  0  0  0  0  2  0  0  0  0  0  0
  192.2870  175.3160  135.5360 C   0  0  0  0  0  0  0  0  0  0  0  0
  191.8580  175.3410  134.3920 O   0  0  0  0  0  0  0  0  0  0  0  0
  193.4900  176.5450  136.0560 S   0  0  0  0  0  0  0  0  0  0  0  0
  195.6140  174.9280  136.8180 C   0  0  1  0  0  3  0  0  0  0  0  0
  197.0420  175.1630  136.7220 N   0  0  0  0  0  2  0  0  0  0  0  0
  195.9900  176.4240  135.0050 N   0  0  0  0  0  2  0  0  0  0  0  0
  194.9810  175.5800  135.6120 C   0  0  2  0  0  3  0  0  0  0  0  0
  197.2540  175.8730  135.4670 C   0  0  0  0  0  2  0  0  0  0  0  0
  195.3410  173.4330  136.8240 C   0  0  0  0  0  2  0  0  0  0  0  0
  195.5890  172.8540  138.2050 C   0  0  0  0  0  1  0  0  0  0  0  0
  190.8230  177.3490  141.6050 O   0  0  0  0  0  0  0  0  0  0  0  0
  189.8030  177.9540  142.3440 C   0  0  0  0  0  2  0  0  0  0  0  0
  189.5960  177.2080  143.6490 C   0  0  0  0  0  2  0  0  0  0  0  0
  188.2220  176.5600  143.6720 C   0  0  0  0  0  2  0  0  0  0  0  0
  187.2640  177.3870  144.5120 C   0  0  0  0  0  2  0  0  0  0  0  0
  186.3770  178.1520  143.6490 N   0  0  0  0  0  2  0  0  0  0  0  0
  185.0670  178.1750  144.2840 C   0  0  2  0  0  3  0  0  0  0  0  0
  184.0720  178.8630  143.4040 C   0  0  0  0  0  0  0  0  0  0  0  0
  182.8980  179.3580  143.9540 O   0  0  0  0  0  1  0  0  0  0  0  0
  184.2990  179.0130  142.1740 O   0  0  0  0  0  0  0  0  0  0  0  0
  185.9550  179.9020  145.8090 F   0  0  0  0  0  0  0  0  0  0  0  0
  185.1420  178.8300  145.6310 C   0  0  0  0  0  0  0  0  0  0  0  0
  184.4790  178.4110  146.5670 O   0  0  0  0  0  0  0  0  0  0  0  0
  1 19  1  0  0  0  0
  2  8  1  0  0  0  0
  2 17  2  0  0  0  0
  4 23  1  6  0  0  0
  4  1  1  0  0  0  0
  5 33  1  1  0  0  0
  6  3  2  0  0  0  0
  6  5  1  0  0  0  0
  7 22  1  0  0  0  0
  8 13  1  0  0  0  0
  9  5  1  0  0  0  0
 10  4  1  0  0  0  0
 10 17  1  0  0  0  0
 11  8  2  0  0  0  0
 12 20  2  0  0  0  0
 13 18  1  0  0  0  0
 13 14  1  0  0  0  0
 14 20  1  0  0  0  0
 15 18  2  0  0  0  0
 16 14  2  0  0  0  0
 16 19  1  0  0  0  0
 17 16  1  0  0  0  0
 18 12  1  0  0  0  0
 19  6  1  0  0  0  0
 20  9  1  0  0  0  0
 21  7  1  0  0  0  0
 21 11  1  0  0  0  0
 22  2  1  0  0  0  0
 23 25  1  0  0  0  0
 24 23  2  0  0  0  0
 26 31  1  6  0  0  0
 27 26  1  0  0  0  0
 28 30  1  0  0  0  0
 28 29  1  0  0  0  0
 29 25  1  1  0  0  0
 29 26  1  0  0  0  0
 30 27  1  0  0  0  0
 31 32  1  0  0  0  0
 33 34  1  0  0  0  0
 34 35  1  0  0  0  0
 35 36  1  0  0  0  0
 36 37  1  0  0  0  0
 38 39  1  0  0  0  0
 38 37  1  0  0  0  0
 39 40  1  6  0  0  0
 39 44  1  0  0  0  0
 40 41  1  0  0  0  0
 42 40  2  0  0  0  0
 44 43  1  0  0  0  0
 44 45  2  0  0  0  0
M  END
>  <MODEL>
4

>  <REMARK>
 VINA RESULT:      -6.9      4.279      8.193
  Name = 
  13 active torsions:
  status: ('A' for Active; 'I' for Inactive)
    1  A    between atoms: CA_2  and  C_13
    2  A    between atoms: CA_2  and  N_41
    3  A    between atoms: CA_2  and  C_42
    4  A    between atoms: S_4  and  C_14
    5  A    between atoms: S_4  and  C_20
    6  A    between atoms: C_5  and  C_30
    7  A    between atoms: C_8  and  C_14
    8  A    between atoms: C_9  and  O_18
    9  A    between atoms: C_9  and  C_38
   10  A    between atoms: C_10  and  O_18
   11  A    between atoms: C_12  and  C_34
   12  A    between atoms: C_12  and  N_41
   13  A    between atoms: C_34  and  C_38
                            x       y       z     vdW  Elec       q    Type
                         _______ _______ _______ _____ _____    ______ ____

>  <TORSDO>
F 13

$$$$
=
 OpenBabel10232409493D

 45 50  0  0  1  0  0  0  0  0999 V2000
  191.8920  175.0180  138.1730 C   0  0  0  0  0  2  0  0  0  0  0  0
  188.2900  174.4640  135.9340 C   0  0  0  0  0  0  0  0  0  0  0  0
  192.1530  177.3830  139.6220 O   0  0  0  0  0  0  0  0  0  0  0  0
  191.9180  174.4700  136.7520 C   0  0  1  0  0  3  0  0  0  0  0  0
  189.9000  177.3050  140.3770 C   0  0  2  0  0  3  0  0  0  0  0  0
  191.0020  176.8890  139.4650 C   0  0  0  0  0  0  0  0  0  0  0  0
  186.7570  172.9330  134.6850 C   0  0  0  0  0  2  0  0  0  0  0  0
  187.1280  175.3620  136.1160 C   0  0  0  0  0  0  0  0  0  0  0  0
  189.1120  178.3840  139.6860 C   0  0  0  0  0  2  0  0  0  0  0  0
  190.6030  173.7750  136.4340 C   0  0  0  0  0  2  0  0  0  0  0  0
  186.0000  175.1950  135.4180 C   0  0  0  0  0  3  0  0  0  0  0  0
  187.0040  178.2650  138.4900 N   0  0  0  0  0  0  0  0  0  0  0  0
  187.2520  176.3740  137.1080 N   0  0  0  0  0  0  0  0  0  0  0  0
  188.4320  176.5720  137.8640 C   0  0  0  0  0  0  0  0  0  0  0  0
  185.2480  177.6290  137.0380 O   0  0  0  0  0  0  0  0  0  0  0  0
  189.5100  175.7600  137.7070 C   0  0  0  0  0  0  0  0  0  0  0  0
  189.4160  174.6710  136.6610 C   0  0  0  0  0  0  0  0  0  0  0  0
  186.4020  177.4350  137.5040 C   0  0  0  0  0  0  0  0  0  0  0  0
  190.7750  175.9390  138.4100 N   0  0  0  0  0  0  0  0  0  0  0  0
  188.1830  177.7630  138.7090 C   0  0  0  0  0  0  0  0  0  0  0  0
  185.8930  174.1460  134.3460 C   0  0  0  0  0  2  0  0  0  0  0  0
  188.2060  173.3720  134.8940 C   0  0  0  0  0  2  0  0  0  0  0  0
  192.3060  175.5020  135.7300 C   0  0  0  0  0  0  0  0  0  0  0  0
  191.5590  175.7820  134.8040 O   0  0  0  0  0  0  0  0  0  0  0  0
  193.9070  176.3080  135.8480 S   0  0  0  0  0  0  0  0  0  0  0  0
  195.9430  174.8820  137.0850 C   0  0  1  0  0  3  0  0  0  0  0  0
  197.1800  174.3600  136.5330 N   0  0  0  0  0  2  0  0  0  0  0  0
  195.6010  174.4870  134.7620 N   0  0  0  0  0  2  0  0  0  0  0  0
  194.9010  174.7780  135.9960 C   0  0  2  0  0  3  0  0  0  0  0  0
  196.8630  173.9030  135.1860 C   0  0  0  0  0  2  0  0  0  0  0  0
  195.5360  174.0590  138.2960 C   0  0  0  0  0  2  0  0  0  0  0  0
  194.9750  172.7180  137.8630 C   0  0  0  0  0  1  0  0  0  0  0  0
  190.4100  177.7940  141.5830 O   0  0  0  0  0  0  0  0  0  0  0  0
  190.5990  176.6610  142.3800 C   0  0  0  0  0  2  0  0  0  0  0  0
  191.6060  176.9600  143.4760 C   0  0  0  0  0  2  0  0  0  0  0  0
  191.3840  176.0330  144.6590 C   0  0  0  0  0  2  0  0  0  0  0  0
  191.1610  176.8390  145.9250 C   0  0  0  0  0  2  0  0  0  0  0  0
  190.1000  177.8130  145.7150 N   0  0  0  0  0  2  0  0  0  0  0  0
  188.8690  177.2340  146.2360 C   0  0  2  0  0  3  0  0  0  0  0  0
  187.7020  177.6510  145.3990 C   0  0  0  0  0  0  0  0  0  0  0  0
  186.6930  178.4190  145.9640 O   0  0  0  0  0  1  0  0  0  0  0  0
  187.6350  177.3280  144.1830 O   0  0  0  0  0  0  0  0  0  0  0  0
  189.0850  178.8340  148.1050 F   0  0  0  0  0  0  0  0  0  0  0  0
  188.6700  177.6160  147.6720 C   0  0  0  0  0  0  0  0  0  0  0  0
  188.1360  176.8460  148.4550 O   0  0  0  0  0  0  0  0  0  0  0  0
  1 19  1  0  0  0  0
  2  8  1  0  0  0  0
  2 17  2  0  0  0  0
  4 23  1  6  0  0  0
  4  1  1  0  0  0  0
  5 33  1  1  0  0  0
  6  3  2  0  0  0  0
  6  5  1  0  0  0  0
  7 22  1  0  0  0  0
  8 13  1  0  0  0  0
  9  5  1  0  0  0  0
 10 17  1  0  0  0  0
 10  4  1  0  0  0  0
 11  8  2  0  0  0  0
 12 20  2  0  0  0  0
 13 18  1  0  0  0  0
 13 14  1  0  0  0  0
 14 20  1  0  0  0  0
 15 18  2  0  0  0  0
 16 14  2  0  0  0  0
 16 19  1  0  0  0  0
 17 16  1  0  0  0  0
 18 12  1  0  0  0  0
 19  6  1  0  0  0  0
 20  9  1  0  0  0  0
 21  7  1  0  0  0  0
 21 11  1  0  0  0  0
 22  2  1  0  0  0  0
 23 25  1  0  0  0  0
 24 23  2  0  0  0  0
 26 31  1  1  0  0  0
 27 26  1  0  0  0  0
 28 30  1  0  0  0  0
 28 29  1  0  0  0  0
 29 25  1  6  0  0  0
 29 26  1  0  0  0  0
 30 27  1  0  0  0  0
 32 31  1  0  0  0  0
 33 34  1  0  0  0  0
 34 35  1  0  0  0  0
 35 36  1  0  0  0  0
 36 37  1  0  0  0  0
 38 37  1  0  0  0  0
 38 39  1  0  0  0  0
 39 40  1  6  0  0  0
 39 44  1  0  0  0  0
 40 41  1  0  0  0  0
 42 40  2  0  0  0  0
 44 43  1  0  0  0  0
 44 45  2  0  0  0  0
M  END
>  <MODEL>
5

>  <REMARK>
 VINA RESULT:      -6.8      4.281      7.682
  Name = 
  13 active torsions:
  status: ('A' for Active; 'I' for Inactive)
    1  A    between atoms: CA_2  and  C_13
    2  A    between atoms: CA_2  and  N_41
    3  A    between atoms: CA_2  and  C_42
    4  A    between atoms: S_4  and  C_14
    5  A    between atoms: S_4  and  C_20
    6  A    between atoms: C_5  and  C_30
    7  A    between atoms: C_8  and  C_14
    8  A    between atoms: C_9  and  O_18
    9  A    between atoms: C_9  and  C_38
   10  A    between atoms: C_10  and  O_18
   11  A    between atoms: C_12  and  C_34
   12  A    between atoms: C_12  and  N_41
   13  A    between atoms: C_34  and  C_38
                            x       y       z     vdW  Elec       q    Type
                         _______ _______ _______ _____ _____    ______ ____

>  <TORSDO>
F 13

$$$$
=
 OpenBabel10232409493D

 45 50  0  0  1  0  0  0  0  0999 V2000
  188.8170  178.6810  141.0300 C   0  0  0  0  0  2  0  0  0  0  0  0
  184.9110  178.5030  139.2950 C   0  0  0  0  0  0  0  0  0  0  0  0
  190.6930  176.8130  140.1630 O   0  0  0  0  0  0  0  0  0  0  0  0
  187.5630  178.8170  141.8830 C   0  0  1  0  0  3  0  0  0  0  0  0
  190.0370  177.0370  137.8880 C   0  0  2  0  0  3  0  0  0  0  0  0
  189.8140  177.2150  139.3500 C   0  0  0  0  0  0  0  0  0  0  0  0
  182.6970  179.5910  138.8850 C   0  0  0  0  0  2  0  0  0  0  0  0
  184.6350  177.6610  138.1110 C   0  0  0  0  0  0  0  0  0  0  0  0
  189.3130  175.7890  137.4590 C   0  0  0  0  0  2  0  0  0  0  0  0
  186.4160  179.3630  141.0480 C   0  0  0  0  0  2  0  0  0  0  0  0
  183.4160  177.5990  137.5660 C   0  0  0  0  0  3  0  0  0  0  0  0
  187.1690  175.5200  136.3570 N   0  0  0  0  0  0  0  0  0  0  0  0
  185.7420  176.9640  137.5510 N   0  0  0  0  0  0  0  0  0  0  0  0
  187.0430  177.0120  138.1050 C   0  0  0  0  0  0  0  0  0  0  0  0
  184.8880  175.6860  135.7520 O   0  0  0  0  0  0  0  0  0  0  0  0
  187.3140  177.7780  139.1950 C   0  0  0  0  0  0  0  0  0  0  0  0
  186.1620  178.5340  139.8180 C   0  0  0  0  0  0  0  0  0  0  0  0
  185.8480  176.0310  136.4910 C   0  0  0  0  0  0  0  0  0  0  0  0
  188.6150  177.8320  139.8500 N   0  0  0  0  0  0  0  0  0  0  0  0
  187.8700  176.0940  137.2890 C   0  0  0  0  0  0  0  0  0  0  0  0
  182.2460  178.3100  138.1870 C   0  0  0  0  0  2  0  0  0  0  0  0
  183.7680  179.2650  139.9250 C   0  0  0  0  0  2  0  0  0  0  0  0
  187.2120  177.5540  142.6190 C   0  0  0  0  0  0  0  0  0  0  0  0
  186.0530  177.2980  142.9100 O   0  0  0  0  0  0  0  0  0  0  0  0
  188.5180  176.4240  143.1140 S   0  0  0  0  0  0  0  0  0  0  0  0
  190.4860  176.9370  145.0030 C   0  0  1  0  0  3  0  0  0  0  0  0
  190.4150  176.9030  146.4520 N   0  0  0  0  0  2  0  0  0  0  0  0
  188.2350  177.3830  145.6370 N   0  0  0  0  0  2  0  0  0  0  0  0
  189.1450  177.4270  144.5110 C   0  0  2  0  0  3  0  0  0  0  0  0
  189.0980  177.4190  146.8070 C   0  0  0  0  0  2  0  0  0  0  0  0
  191.5950  177.8800  144.5680 C   0  0  0  0  0  2  0  0  0  0  0  0
  191.0100  179.1560  143.9910 C   0  0  0  0  0  1  0  0  0  0  0  0
  191.4000  176.9120  137.6040 O   0  0  0  0  0  0  0  0  0  0  0  0
  191.5150  175.6990  136.9200 C   0  0  0  0  0  2  0  0  0  0  0  0
  192.5960  175.8020  135.8590 C   0  0  0  0  0  2  0  0  0  0  0  0
  193.9430  176.0760  136.5080 C   0  0  0  0  0  2  0  0  0  0  0  0
  194.9550  175.0270  136.0830 C   0  0  0  0  0  2  0  0  0  0  0  0
  196.2680  175.3570  136.6130 N   0  0  0  0  0  2  0  0  0  0  0  0
  196.7550  174.1850  137.3280 C   0  0  2  0  0  3  0  0  0  0  0  0
  196.1770  174.1370  138.7070 C   0  0  0  0  0  0  0  0  0  0  0  0
  195.3590  173.0760  139.0700 O   0  0  0  0  0  0  0  0  0  0  0  0
  196.4410  175.0400  139.5460 O   0  0  0  0  0  1  0  0  0  0  0  0
  198.8990  173.1640  138.0040 F   0  0  0  0  0  0  0  0  0  0  0  0
  198.2540  174.1750  137.3690 C   0  0  0  0  0  0  0  0  0  0  0  0
  198.8990  175.0640  136.8360 O   0  0  0  0  0  0  0  0  0  0  0  0
  1  4  1  0  0  0  0
  2 17  2  0  0  0  0
  2 22  1  0  0  0  0
  4 23  1  6  0  0  0
  5 33  1  1  0  0  0
  5  6  1  0  0  0  0
  6 19  1  0  0  0  0
  6  3  2  0  0  0  0
  7 22  1  0  0  0  0
  8  2  1  0  0  0  0
  9  5  1  0  0  0  0
 10  4  1  0  0  0  0
 11  8  2  0  0  0  0
 11 21  1  0  0  0  0
 12 18  1  0  0  0  0
 12 20  2  0  0  0  0
 13 14  1  0  0  0  0
 13  8  1  0  0  0  0
 14 16  2  0  0  0  0
 15 18  2  0  0  0  0
 16 17  1  0  0  0  0
 16 19  1  0  0  0  0
 17 10  1  0  0  0  0
 18 13  1  0  0  0  0
 19  1  1  0  0  0  0
 20  9  1  0  0  0  0
 20 14  1  0  0  0  0
 21  7  1  0  0  0  0
 23 24  2  0  0  0  0
 23 25  1  0  0  0  0
 26 31  1  1  0  0  0
 26 27  1  0  0  0  0
 27 30  1  0  0  0  0
 28 30  1  0  0  0  0
 29 25  1  6  0  0  0
 29 26  1  0  0  0  0
 29 28  1  0  0  0  0
 32 31  1  0  0  0  0
 34 33  1  0  0  0  0
 35 36  1  0  0  0  0
 35 34  1  0  0  0  0
 37 36  1  0  0  0  0
 37 38  1  0  0  0  0
 39 38  1  1  0  0  0
 39 44  1  0  0  0  0
 39 40  1  0  0  0  0
 40 41  2  0  0  0  0
 40 42  1  0  0  0  0
 44 43  1  0  0  0  0
 45 44  2  0  0  0  0
M  END
>  <MODEL>
6

>  <REMARK>
 VINA RESULT:      -6.8      4.226      8.536
  Name = 
  13 active torsions:
  status: ('A' for Active; 'I' for Inactive)
    1  A    between atoms: CA_2  and  C_13
    2  A    between atoms: CA_2  and  N_41
    3  A    between atoms: CA_2  and  C_42
    4  A    between atoms: S_4  and  C_14
    5  A    between atoms: S_4  and  C_20
    6  A    between atoms: C_5  and  C_30
    7  A    between atoms: C_8  and  C_14
    8  A    between atoms: C_9  and  O_18
    9  A    between atoms: C_9  and  C_38
   10  A    between atoms: C_10  and  O_18
   11  A    between atoms: C_12  and  C_34
   12  A    between atoms: C_12  and  N_41
   13  A    between atoms: C_34  and  C_38
                            x       y       z     vdW  Elec       q    Type
                         _______ _______ _______ _____ _____    ______ ____

>  <TORSDO>
F 13

$$$$
=
 OpenBabel10232409493D

 45 50  0  0  1  0  0  0  0  0999 V2000
  185.2450  179.1500  138.3170 C   0  0  0  0  0  2  0  0  0  0  0  0
  182.4350  175.9700  137.7850 C   0  0  0  0  0  0  0  0  0  0  0  0
  187.9450  178.4730  138.4350 O   0  0  0  0  0  0  0  0  0  0  0  0
  183.9550  179.0890  139.1230 C   0  0  1  0  0  3  0  0  0  0  0  0
  187.7500  176.9090  136.6530 C   0  0  2  0  0  3  0  0  0  0  0  0
  187.1720  177.7740  137.7210 C   0  0  0  0  0  0  0  0  0  0  0  0
  180.1150  175.2330  137.2090 C   0  0  0  0  0  2  0  0  0  0  0  0
  182.8800  174.6050  137.4250 C   0  0  0  0  0  0  0  0  0  0  0  0
  187.8740  175.5150  137.2060 C   0  0  0  0  0  2  0  0  0  0  0  0
  182.8900  178.3250  138.3520 C   0  0  0  0  0  2  0  0  0  0  0  0
  182.0070  173.6070  137.2600 C   0  0  0  0  0  3  0  0  0  0  0  0
  186.4500  173.5750  136.9020 N   0  0  0  0  0  0  0  0  0  0  0  0
  184.2750  174.4240  137.2120 N   0  0  0  0  0  0  0  0  0  0  0  0
  185.2210  175.4620  137.3780 C   0  0  0  0  0  0  0  0  0  0  0  0
  184.5870  172.1250  136.7440 O   0  0  0  0  0  0  0  0  0  0  0  0
  184.8310  176.7200  137.7110 C   0  0  0  0  0  0  0  0  0  0  0  0
  183.3550  176.9520  137.9460 C   0  0  0  0  0  0  0  0  0  0  0  0
  185.0590  173.2770  136.9350 C   0  0  0  0  0  0  0  0  0  0  0  0
  185.7540  177.8230  137.9520 N   0  0  0  0  0  0  0  0  0  0  0  0
  186.5500  174.8470  137.1510 C   0  0  0  0  0  0  0  0  0  0  0  0
  180.5390  173.8000  137.5240 C   0  0  0  0  0  2  0  0  0  0  0  0
  180.9630  176.2140  138.0190 C   0  0  0  0  0  2  0  0  0  0  0  0
  184.1580  178.5750  140.5210 C   0  0  0  0  0  0  0  0  0  0  0  0
  183.3710  177.7840  141.0210 O   0  0  0  0  0  0  0  0  0  0  0  0
  185.5550  179.1610  141.4870 S   0  0  0  0  0  0  0  0  0  0  0  0
  184.8310  179.4570  144.1510 C   0  0  1  0  0  3  0  0  0  0  0  0
  185.4780  178.9570  145.3500 N   0  0  0  0  0  2  0  0  0  0  0  0
  186.0370  177.4880  143.5690 N   0  0  0  0  0  2  0  0  0  0  0  0
  185.0380  178.4150  143.0770 C   0  0  2  0  0  3  0  0  0  0  0  0
  185.9930  177.6350  145.0140 C   0  0  0  0  0  2  0  0  0  0  0  0
  183.3500  179.6640  144.4170 C   0  0  0  0  0  2  0  0  0  0  0  0
  182.5560  178.4460  143.9830 C   0  0  0  0  0  1  0  0  0  0  0  0
  189.0080  177.3750  136.2630 O   0  0  0  0  0  0  0  0  0  0  0  0
  189.8700  176.2920  136.4620 C   0  0  0  0  0  2  0  0  0  0  0  0
  191.1110  176.7470  137.2080 C   0  0  0  0  0  2  0  0  0  0  0  0
  191.1590  176.1070  138.5850 C   0  0  0  0  0  2  0  0  0  0  0  0
  190.9760  177.1610  139.6620 C   0  0  0  0  0  2  0  0  0  0  0  0
  190.0640  176.6750  140.6860 N   0  0  0  0  0  2  0  0  0  0  0  0
  190.5250  177.2000  141.9640 C   0  0  2  0  0  3  0  0  0  0  0  0
  190.8520  176.0820  142.9010 C   0  0  0  0  0  0  0  0  0  0  0  0
  191.9700  176.1770  143.7170 O   0  0  0  0  0  1  0  0  0  0  0  0
  190.1110  175.0650  142.9710 O   0  0  0  0  0  0  0  0  0  0  0  0
  188.6550  178.7980  141.7400 F   0  0  0  0  0  0  0  0  0  0  0  0
  189.5010  178.1220  142.5570 C   0  0  0  0  0  0  0  0  0  0  0  0
  189.4210  178.2690  143.7670 O   0  0  0  0  0  0  0  0  0  0  0  0
  1  4  1  0  0  0  0
  2 17  2  0  0  0  0
  2 22  1  0  0  0  0
  4 23  1  1  0  0  0
  5 33  1  1  0  0  0
  5  9  1  0  0  0  0
  5  6  1  0  0  0  0
  6 19  1  0  0  0  0
  6  3  2  0  0  0  0
  7 21  1  0  0  0  0
  7 22  1  0  0  0  0
  8  2  1  0  0  0  0
 10  4  1  0  0  0  0
 11  8  2  0  0  0  0
 11 21  1  0  0  0  0
 12 18  1  0  0  0  0
 12 20  2  0  0  0  0
 13 14  1  0  0  0  0
 13  8  1  0  0  0  0
 14 16  2  0  0  0  0
 15 18  2  0  0  0  0
 16 17  1  0  0  0  0
 16 19  1  0  0  0  0
 17 10  1  0  0  0  0
 18 13  1  0  0  0  0
 19  1  1  0  0  0  0
 20  9  1  0  0  0  0
 20 14  1  0  0  0  0
 23 24  2  0  0  0  0
 23 25  1  0  0  0  0
 26 31  1  1  0  0  0
 26 27  1  0  0  0  0
 28 30  1  0  0  0  0
 29 25  1  6  0  0  0
 29 28  1  0  0  0  0
 29 26  1  0  0  0  0
 30 27  1  0  0  0  0
 32 31  1  0  0  0  0
 33 34  1  0  0  0  0
 34 35  1  0  0  0  0
 35 36  1  0  0  0  0
 36 37  1  0  0  0  0
 37 38  1  0  0  0  0
 39 38  1  6  0  0  0
 39 44  1  0  0  0  0
 39 40  1  0  0  0  0
 40 42  2  0  0  0  0
 40 41  1  0  0  0  0
 43 44  1  0  0  0  0
 44 45  2  0  0  0  0
M  END
>  <MODEL>
7

>  <REMARK>
 VINA RESULT:      -6.8      2.592      6.976
  Name = 
  13 active torsions:
  status: ('A' for Active; 'I' for Inactive)
    1  A    between atoms: CA_2  and  C_13
    2  A    between atoms: CA_2  and  N_41
    3  A    between atoms: CA_2  and  C_42
    4  A    between atoms: S_4  and  C_14
    5  A    between atoms: S_4  and  C_20
    6  A    between atoms: C_5  and  C_30
    7  A    between atoms: C_8  and  C_14
    8  A    between atoms: C_9  and  O_18
    9  A    between atoms: C_9  and  C_38
   10  A    between atoms: C_10  and  O_18
   11  A    between atoms: C_12  and  C_34
   12  A    between atoms: C_12  and  N_41
   13  A    between atoms: C_34  and  C_38
                            x       y       z     vdW  Elec       q    Type
                         _______ _______ _______ _____ _____    ______ ____

>  <TORSDO>
F 13

$$$$
=
 OpenBabel10232409493D

 45 50  0  0  1  0  0  0  0  0999 V2000
  193.0970  174.6790  137.8920 C   0  0  0  0  0  2  0  0  0  0  0  0
  189.4950  173.5090  135.9040 C   0  0  0  0  0  0  0  0  0  0  0  0
  193.1400  177.1890  139.1010 O   0  0  0  0  0  0  0  0  0  0  0  0
  193.1280  174.0010  136.5280 C   0  0  1  0  0  3  0  0  0  0  0  0
  190.9440  176.9320  139.9760 C   0  0  2  0  0  3  0  0  0  0  0  0
  192.0490  176.5550  139.0500 C   0  0  0  0  0  0  0  0  0  0  0  0
  188.1010  171.7010  134.8830 C   0  0  0  0  0  2  0  0  0  0  0  0
  188.2450  174.2840  136.0630 C   0  0  0  0  0  0  0  0  0  0  0  0
  190.0070  177.8440  139.2300 C   0  0  0  0  0  2  0  0  0  0  0  0
  191.8910  173.1360  136.3440 C   0  0  0  0  0  2  0  0  0  0  0  0
  187.1170  173.9240  135.4420 C   0  0  0  0  0  3  0  0  0  0  0  0
  187.8810  177.3730  138.1610 N   0  0  0  0  0  0  0  0  0  0  0  0
  188.2910  175.3950  136.9490 N   0  0  0  0  0  0  0  0  0  0  0  0
  189.4700  175.7970  137.6210 C   0  0  0  0  0  0  0  0  0  0  0  0
  186.1530  176.4050  136.8680 O   0  0  0  0  0  0  0  0  0  0  0  0
  190.6280  175.1000  137.4840 C   0  0  0  0  0  0  0  0  0  0  0  0
  190.6180  173.9110  136.5490 C   0  0  0  0  0  0  0  0  0  0  0  0
  187.3390  176.3880  137.2890 C   0  0  0  0  0  0  0  0  0  0  0  0
  191.8910  175.4880  138.1010 N   0  0  0  0  0  0  0  0  0  0  0  0
  189.1180  177.0290  138.3640 C   0  0  0  0  0  0  0  0  0  0  0  0
  187.0880  172.7700  134.4790 C   0  0  0  0  0  2  0  0  0  0  0  0
  189.4970  172.3180  134.9750 C   0  0  0  0  0  2  0  0  0  0  0  0
  193.3500  174.9650  135.3960 C   0  0  0  0  0  0  0  0  0  0  0  0
  192.7230  174.8650  134.3530 O   0  0  0  0  0  0  0  0  0  0  0  0
  194.5860  176.2600  135.5640 S   0  0  0  0  0  0  0  0  0  0  0  0
  196.8040  174.9560  136.6070 C   0  0  1  0  0  3  0  0  0  0  0  0
  198.2120  175.1310  136.3050 N   0  0  0  0  0  2  0  0  0  0  0  0
  196.9780  175.7750  134.3780 N   0  0  0  0  0  2  0  0  0  0  0  0
  196.0480  175.1860  135.3200 C   0  0  2  0  0  3  0  0  0  0  0  0
  198.2910  175.3910  134.8720 C   0  0  0  0  0  2  0  0  0  0  0  0
  196.5640  173.5480  137.1260 C   0  0  0  0  0  2  0  0  0  0  0  0
  197.8530  172.9530  137.6610 C   0  0  0  0  0  1  0  0  0  0  0  0
  191.4430  177.5910  141.1040 O   0  0  0  0  0  0  0  0  0  0  0  0
  190.7110  177.0740  142.1760 C   0  0  0  0  0  2  0  0  0  0  0  0
  191.6440  176.7300  143.3230 C   0  0  0  0  0  2  0  0  0  0  0  0
  191.4850  177.7380  144.4490 C   0  0  0  0  0  2  0  0  0  0  0  0
  190.0540  178.2400  144.5070 C   0  0  0  0  0  2  0  0  0  0  0  0
  189.2650  177.3970  145.3930 N   0  0  0  0  0  2  0  0  0  0  0  0
  187.9690  178.0380  145.5640 C   0  0  2  0  0  3  0  0  0  0  0  0
  187.3910  177.7010  146.9010 C   0  0  0  0  0  0  0  0  0  0  0  0
  188.0960  176.8720  147.7620 O   0  0  0  0  0  1  0  0  0  0  0  0
  186.2820  178.1780  147.2600 O   0  0  0  0  0  0  0  0  0  0  0  0
  187.3730  176.6320  143.6230 F   0  0  0  0  0  0  0  0  0  0  0  0
  187.0350  177.6470  144.4570 C   0  0  0  0  0  0  0  0  0  0  0  0
  185.9740  178.2310  144.3010 O   0  0  0  0  0  0  0  0  0  0  0  0
  1 19  1  0  0  0  0
  2  8  1  0  0  0  0
  2 17  2  0  0  0  0
  4 23  1  6  0  0  0
  4  1  1  0  0  0  0
  5 33  1  1  0  0  0
  6  3  2  0  0  0  0
  6  5  1  0  0  0  0
  7 22  1  0  0  0  0
  8 13  1  0  0  0  0
  9  5  1  0  0  0  0
 10  4  1  0  0  0  0
 10 17  1  0  0  0  0
 11  8  2  0  0  0  0
 12 20  2  0  0  0  0
 13 18  1  0  0  0  0
 13 14  1  0  0  0  0
 14 20  1  0  0  0  0
 15 18  2  0  0  0  0
 16 14  2  0  0  0  0
 16 19  1  0  0  0  0
 17 16  1  0  0  0  0
 18 12  1  0  0  0  0
 19  6  1  0  0  0  0
 20  9  1  0  0  0  0
 21  7  1  0  0  0  0
 21 11  1  0  0  0  0
 22  2  1  0  0  0  0
 23 25  1  0  0  0  0
 24 23  2  0  0  0  0
 26 31  1  6  0  0  0
 27 26  1  0  0  0  0
 28 30  1  0  0  0  0
 28 29  1  0  0  0  0
 29 25  1  1  0  0  0
 29 26  1  0  0  0  0
 30 27  1  0  0  0  0
 31 32  1  0  0  0  0
 33 34  1  0  0  0  0
 34 35  1  0  0  0  0
 35 36  1  0  0  0  0
 36 37  1  0  0  0  0
 37 38  1  0  0  0  0
 38 39  1  0  0  0  0
 39 44  1  6  0  0  0
 39 40  1  0  0  0  0
 40 42  2  0  0  0  0
 40 41  1  0  0  0  0
 43 44  1  0  0  0  0
 45 44  2  0  0  0  0
M  END
>  <MODEL>
8

>  <REMARK>
 VINA RESULT:      -6.6      4.865      8.473
  Name = 
  13 active torsions:
  status: ('A' for Active; 'I' for Inactive)
    1  A    between atoms: CA_2  and  C_13
    2  A    between atoms: CA_2  and  N_41
    3  A    between atoms: CA_2  and  C_42
    4  A    between atoms: S_4  and  C_14
    5  A    between atoms: S_4  and  C_20
    6  A    between atoms: C_5  and  C_30
    7  A    between atoms: C_8  and  C_14
    8  A    between atoms: C_9  and  O_18
    9  A    between atoms: C_9  and  C_38
   10  A    between atoms: C_10  and  O_18
   11  A    between atoms: C_12  and  C_34
   12  A    between atoms: C_12  and  N_41
   13  A    between atoms: C_34  and  C_38
                            x       y       z     vdW  Elec       q    Type
                         _______ _______ _______ _____ _____    ______ ____

>  <TORSDO>
F 13

$$$$
=
 OpenBabel10232409493D

 45 50  0  0  1  0  0  0  0  0999 V2000
  187.2540  179.1950  141.4480 C   0  0  0  0  0  2  0  0  0  0  0  0
  183.1020  178.7580  142.3780 C   0  0  0  0  0  0  0  0  0  0  0  0
  188.2150  177.8580  139.2000 O   0  0  0  0  0  0  0  0  0  0  0  0
  186.7820  178.9580  142.8760 C   0  0  1  0  0  3  0  0  0  0  0  0
  186.3060  178.4290  137.9020 C   0  0  2  0  0  3  0  0  0  0  0  0
  187.0220  178.2720  139.2000 C   0  0  0  0  0  0  0  0  0  0  0  0
  181.0960  179.5440  143.6480 C   0  0  0  0  0  2  0  0  0  0  0  0
  182.1630  178.1370  141.4180 C   0  0  0  0  0  0  0  0  0  0  0  0
  185.4740  177.1940  137.6820 C   0  0  0  0  0  2  0  0  0  0  0  0
  185.3620  179.4740  143.0520 C   0  0  0  0  0  2  0  0  0  0  0  0
  180.8640  177.9960  141.7040 C   0  0  0  0  0  3  0  0  0  0  0  0
  183.1030  176.8180  138.0340 N   0  0  0  0  0  0  0  0  0  0  0  0
  182.6990  177.7500  140.1590 N   0  0  0  0  0  0  0  0  0  0  0  0
  184.0670  177.8900  139.8280 C   0  0  0  0  0  0  0  0  0  0  0  0
  180.9270  176.7410  138.9580 O   0  0  0  0  0  0  0  0  0  0  0  0
  184.9450  178.4540  140.6990 C   0  0  0  0  0  0  0  0  0  0  0  0
  184.4120  178.8790  142.0490 C   0  0  0  0  0  0  0  0  0  0  0  0
  182.1370  177.0780  139.0460 C   0  0  0  0  0  0  0  0  0  0  0  0
  186.3760  178.5790  140.4470 N   0  0  0  0  0  0  0  0  0  0  0  0
  184.2260  177.2960  138.4800 C   0  0  0  0  0  0  0  0  0  0  0  0
  180.3150  178.3740  143.0520 C   0  0  0  0  0  2  0  0  0  0  0  0
  182.5800  179.1880  143.7290 C   0  0  0  0  0  2  0  0  0  0  0  0
  186.9560  177.5340  143.3260 C   0  0  0  0  0  0  0  0  0  0  0  0
  187.4730  176.7030  142.5950 O   0  0  0  0  0  0  0  0  0  0  0  0
  186.3580  177.0370  144.9460 S   0  0  0  0  0  0  0  0  0  0  0  0
  188.9700  177.2480  145.8620 C   0  0  1  0  0  3  0  0  0  0  0  0
  189.4840  177.2180  147.2190 N   0  0  0  0  0  2  0  0  0  0  0  0
  187.2480  178.0160  147.3160 N   0  0  0  0  0  2  0  0  0  0  0  0
  187.6240  177.9320  145.9190 C   0  0  2  0  0  3  0  0  0  0  0  0
  188.5050  177.9200  148.0400 C   0  0  0  0  0  2  0  0  0  0  0  0
  189.9260  178.0210  144.9700 C   0  0  0  0  0  2  0  0  0  0  0  0
  190.8330  177.0680  144.2130 C   0  0  0  0  0  1  0  0  0  0  0  0
  187.2120  178.5790  136.8490 O   0  0  0  0  0  0  0  0  0  0  0  0
  186.9920  177.4730  136.0230 C   0  0  0  0  0  2  0  0  0  0  0  0
  188.3180  176.8940  135.5650 C   0  0  0  0  0  2  0  0  0  0  0  0
  188.7140  175.7240  136.4490 C   0  0  0  0  0  2  0  0  0  0  0  0
  190.2210  175.6830  136.6260 C   0  0  0  0  0  2  0  0  0  0  0  0
  190.5550  175.5510  138.0350 N   0  0  0  0  0  2  0  0  0  0  0  0
  191.5770  176.5440  138.3350 C   0  0  2  0  0  3  0  0  0  0  0  0
  192.9260  176.0460  137.9260 C   0  0  0  0  0  0  0  0  0  0  0  0
  193.8380  176.9250  137.3580 O   0  0  0  0  0  0  0  0  0  0  0  0
  193.2490  174.8420  138.1090 O   0  0  0  0  0  1  0  0  0  0  0  0
  190.5790  176.4040  140.5890 F   0  0  0  0  0  0  0  0  0  0  0  0
  191.5520  176.9070  139.7900 C   0  0  0  0  0  0  0  0  0  0  0  0
  192.4000  177.6480  140.2630 O   0  0  0  0  0  0  0  0  0  0  0  0
  1  4  1  0  0  0  0
  2 22  1  0  0  0  0
  4 10  1  0  0  0  0
  4 23  1  6  0  0  0
  5 33  1  6  0  0  0
  5  6  1  0  0  0  0
  6  3  2  0  0  0  0
  6 19  1  0  0  0  0
  7 22  1  0  0  0  0
  8 11  2  0  0  0  0
  8  2  1  0  0  0  0
  9  5  1  0  0  0  0
  9 20  1  0  0  0  0
 11 21  1  0  0  0  0
 12 20  2  0  0  0  0
 12 18  1  0  0  0  0
 13  8  1  0  0  0  0
 14 13  1  0  0  0  0
 14 16  2  0  0  0  0
 15 18  2  0  0  0  0
 16 17  1  0  0  0  0
 17  2  2  0  0  0  0
 17 10  1  0  0  0  0
 18 13  1  0  0  0  0
 19 16  1  0  0  0  0
 19  1  1  0  0  0  0
 20 14  1  0  0  0  0
 21  7  1  0  0  0  0
 23 25  1  0  0  0  0
 24 23  2  0  0  0  0
 26 31  1  6  0  0  0
 26 29  1  0  0  0  0
 26 27  1  0  0  0  0
 27 30  1  0  0  0  0
 28 30  1  0  0  0  0
 29 25  1  6  0  0  0
 29 28  1  0  0  0  0
 32 31  1  0  0  0  0
 34 33  1  0  0  0  0
 35 34  1  0  0  0  0
 35 36  1  0  0  0  0
 36 37  1  0  0  0  0
 37 38  1  0  0  0  0
 38 39  1  0  0  0  0
 39 40  1  1  0  0  0
 39 44  1  0  0  0  0
 40 42  1  0  0  0  0
 41 40  2  0  0  0  0
 44 45  2  0  0  0  0
 44 43  1  0  0  0  0
M  END
>  <MODEL>
9

>  <REMARK>
 VINA RESULT:      -6.6      3.126      8.284
  Name = 
  13 active torsions:
  status: ('A' for Active; 'I' for Inactive)
    1  A    between atoms: CA_2  and  C_13
    2  A    between atoms: CA_2  and  N_41
    3  A    between atoms: CA_2  and  C_42
    4  A    between atoms: S_4  and  C_14
    5  A    between atoms: S_4  and  C_20
    6  A    between atoms: C_5  and  C_30
    7  A    between atoms: C_8  and  C_14
    8  A    between atoms: C_9  and  O_18
    9  A    between atoms: C_9  and  C_38
   10  A    between atoms: C_10  and  O_18
   11  A    between atoms: C_12  and  C_34
   12  A    between atoms: C_12  and  N_41
   13  A    between atoms: C_34  and  C_38
                            x       y       z     vdW  Elec       q    Type
                         _______ _______ _______ _____ _____    ______ ____

>  <TORSDO>
F 13

$$$$
