=
 OpenBabel10232410373D

 50 55  0  0  1  0  0  0  0  0999 V2000
  188.9980  177.7340  140.3830 C   0  0  0  0  0  2  0  0  0  0  0  0
  188.3420  177.3820  142.6390 C   0  0  0  0  0  3  0  0  0  0  0  0
  188.6660  178.2010  141.7050 N   0  0  0  0  0  0  0  0  0  0  0  0
  188.0220  177.8870  144.0110 C   0  0  2  0  0  3  0  0  0  0  0  0
  189.1060  177.5350  144.9840 C   0  0  0  0  0  0  0  0  0  0  0  0
  191.4410  177.0560  145.4080 C   0  0  0  0  0  3  0  0  0  0  0  0
  192.1710  176.5160  147.6430 O   0  0  0  0  0  1  0  0  0  0  0  0
  191.1570  176.8530  146.7620 C   0  0  0  0  0  0  0  0  0  0  0  0
  190.4180  177.3950  144.5220 C   0  0  0  0  0  3  0  0  0  0  0  0
  189.8450  176.9880  147.2310 C   0  0  0  0  0  3  0  0  0  0  0  0
  188.8220  177.3280  146.3440 C   0  0  0  0  0  3  0  0  0  0  0  0
  186.7510  177.3400  144.4580 N   0  0  0  0  0  2  0  0  0  0  0  0
  185.3840  179.0620  143.4320 C   0  0  0  0  0  2  0  0  0  0  0  0
  184.6150  177.9810  145.4430 C   0  0  0  0  0  2  0  0  0  0  0  0
  183.9270  179.4420  143.6390 C   0  0  2  0  0  3  0  0  0  0  0  0
  185.8620  178.4580  144.7330 C   0  0  1  0  0  3  0  0  0  0  0  0
  183.5200  178.9310  145.0120 C   0  0  0  0  0  2  0  0  0  0  0  0
  180.0920  177.6300  141.4500 C   0  0  0  0  0  1  0  0  0  0  0  0
  183.5930  178.0490  141.4910 C   0  0  0  0  0  2  0  0  0  0  0  0
  181.0910  179.9400  143.1350 O   0  0  0  0  0  0  0  0  0  0  0  0
  181.2040  178.6070  141.1270 C   0  0  1  0  0  3  0  0  0  0  0  0
  181.7460  179.1870  142.3700 C   0  0  0  0  0  0  0  0  0  0  0  0
  182.3990  177.8440  140.5420 C   0  0  1  0  0  3  0  0  0  0  0  0
  183.0950  178.8410  142.6000 N   0  0  0  0  0  0  0  0  0  0  0  0
  183.8440  179.2810  139.4040 C   0  0  0  0  0  1  0  0  0  0  0  0
  182.7170  178.3830  139.2300 N   0  0  0  0  0  2  0  0  0  0  0  0
  188.1540  178.3780  139.3820 N   0  0  0  0  0  2  0  0  0  0  0  0
  188.9620  178.6180  138.2020 C   0  0  0  0  0  2  0  0  0  0  0  0
  188.2530  178.1290  136.9470 C   0  0  2  0  0  3  0  0  0  0  0  0
  186.4910  178.2980  137.1390 Cl  0  0  0  0  0  0  0  0  0  0  0  0
  188.6250  176.6920  136.5910 C   0  0  0  0  0  2  0  0  0  0  0  0
  189.5600  176.6170  135.3900 C   0  0  0  0  0  2  0  0  0  0  0  0
  191.6460  173.7300  136.6690 C   0  0  2  0  0  3  0  0  0  0  0  0
  195.6540  175.6980  135.6000 C   0  0  0  0  0  3  0  0  0  0  0  0
  193.1010  175.5830  135.7990 C   0  0  0  0  0  0  0  0  0  0  0  0
  192.9370  174.4160  136.6300 N   0  0  0  0  0  0  0  0  0  0  0  0
  191.6510  172.6280  135.7260 N   0  0  0  0  0  1  0  0  0  0  0  0
  194.4090  176.1540  135.4130 C   0  0  0  0  0  3  0  0  0  0  0  0
  195.1050  173.3820  136.4770 C   0  0  0  0  0  2  0  0  0  0  0  0
  190.5470  174.6390  136.3490 N   0  0  0  0  0  0  0  0  0  0  0  0
  190.7260  175.7560  135.7120 C   0  0  0  0  0  0  0  0  0  0  0  0
  194.0200  173.8500  137.4110 C   0  0  0  0  0  2  0  0  0  0  0  0
  196.0400  174.4670  136.2370 N   0  0  0  0  0  0  0  0  0  0  0  0
  192.0430  176.2030  135.3810 N   0  0  0  0  0  0  0  0  0  0  0  0
  197.9340  174.5020  137.7790 C   0  0  2  0  0  3  0  0  0  0  0  0
  197.7090  173.0720  137.3570 C   0  0  0  0  0  2  0  0  0  0  0  0
  197.4660  174.1920  136.3660 C   0  0  1  0  0  3  0  0  0  0  0  0
  199.3010  174.7840  137.7480 O   0  0  0  0  0  0  0  0  0  0  0  0
  198.4940  175.8460  139.3390 O   0  0  0  0  0  1  0  0  0  0  0  0
  199.5840  175.2230  138.9550 O   0  0  0  0  0  0  0  0  0  0  0  0
  1  3  1  0  0  0  0
  3  2  2  0  0  0  0
  4  2  1  6  0  0  0
  4 12  1  0  0  0  0
  4  5  1  0  0  0  0
  5 11  1  0  0  0  0
  6  8  2  0  0  0  0
  8 10  1  0  0  0  0
  8  7  1  0  0  0  0
  9  5  2  0  0  0  0
  9  6  1  0  0  0  0
 11 10  2  0  0  0  0
 13 15  1  0  0  0  0
 13 16  1  0  0  0  0
 15 24  1  6  0  0  0
 15 17  1  0  0  0  0
 16 12  1  6  0  0  0
 16 14  1  0  0  0  0
 17 14  1  0  0  0  0
 19 24  1  0  0  0  0
 21 18  1  1  0  0  0
 21 22  1  0  0  0  0
 22 24  1  0  0  0  0
 22 20  2  0  0  0  0
 23 26  1  6  0  0  0
 23 21  1  0  0  0  0
 23 19  1  0  0  0  0
 26 25  1  0  0  0  0
 27  1  1  0  0  0  0
 28 27  1  0  0  0  0
 29 30  1  1  0  0  0
 29 28  1  0  0  0  0
 31 29  1  0  0  0  0
 32 41  1  0  0  0  0
 32 31  1  0  0  0  0
 33 37  1  6  0  0  0
 34 43  1  0  0  0  0
 35 36  1  0  0  0  0
 36 33  1  0  0  0  0
 36 42  1  0  0  0  0
 38 34  2  0  0  0  0
 38 35  1  0  0  0  0
 39 42  1  0  0  0  0
 40 33  1  0  0  0  0
 41 40  2  0  0  0  0
 43 39  1  0  0  0  0
 44 41  1  0  0  0  0
 44 35  2  0  0  0  0
 45 48  1  6  0  0  0
 46 45  1  0  0  0  0
 47 43  1  1  0  0  0
 47 46  1  0  0  0  0
 47 45  1  0  0  0  0
 48 50  1  0  0  0  0
 50 49  1  0  0  0  0
M  END
>  <MODEL>
1

>  <REMARK>
 VINA RESULT:      -8.6      0.000      0.000
  Name = 
  16 active torsions:
  status: ('A' for Active; 'I' for Inactive)
    1  A    between atoms: C_2  and  C_43
    2  A    between atoms: C_8  and  O_44
    3  A    between atoms: N_13  and  C_32
    4  A    between atoms: N_13  and  C_38
    5  A    between atoms: N_20  and  C_39
    6  A    between atoms: C_25  and  C_35
    7  A    between atoms: C_25  and  C_38
    8  A    between atoms: C_27  and  C_43
    9  A    between atoms: C_28  and  N_42
   10  A    between atoms: C_29  and  N_46
   11  A    between atoms: C_31  and  C_50
   12  A    between atoms: C_32  and  N_48
   13  A    between atoms: C_35  and  C_50
   14  A    between atoms: N_40  and  C_41
   15  A    between atoms: C_43  and  N_46
   16  A    between atoms: O_44  and  O_49
                            x       y       z     vdW  Elec       q    Type
                         _______ _______ _______ _____ _____    ______ ____

>  <TORSDO>
F 16

$$$$
=
 OpenBabel10232410373D

 50 55  0  0  1  0  0  0  0  0999 V2000
  190.9520  177.5840  142.2310 C   0  0  0  0  0  2  0  0  0  0  0  0
  190.2500  177.2460  139.9870 C   0  0  0  0  0  3  0  0  0  0  0  0
  191.1960  177.2330  140.8550 N   0  0  0  0  0  0  0  0  0  0  0  0
  190.5300  176.9000  138.5580 C   0  0  2  0  0  3  0  0  0  0  0  0
  189.3170  177.1050  137.7030 C   0  0  0  0  0  0  0  0  0  0  0  0
  186.9560  176.7240  137.3230 C   0  0  0  0  0  3  0  0  0  0  0  0
  185.8990  177.6090  135.3440 O   0  0  0  0  0  1  0  0  0  0  0  0
  187.0300  177.4420  136.1260 C   0  0  0  0  0  0  0  0  0  0  0  0
  188.0970  176.5550  138.1100 C   0  0  0  0  0  3  0  0  0  0  0  0
  188.2490  177.9910  135.7120 C   0  0  0  0  0  3  0  0  0  0  0  0
  189.3890  177.8230  136.4990 C   0  0  0  0  0  3  0  0  0  0  0  0
  190.9830  175.5210  138.4620 N   0  0  0  0  0  2  0  0  0  0  0  0
  192.9880  175.9330  137.1590 C   0  0  0  0  0  2  0  0  0  0  0  0
  191.7700  173.8790  136.8400 C   0  0  0  0  0  2  0  0  0  0  0  0
  193.8540  175.0010  136.3290 C   0  0  2  0  0  3  0  0  0  0  0  0
  191.5940  175.3490  137.1530 C   0  0  1  0  0  3  0  0  0  0  0  0
  192.9960  173.8020  135.9570 C   0  0  0  0  0  2  0  0  0  0  0  0
  198.1060  173.0800  137.3400 C   0  0  0  0  0  1  0  0  0  0  0  0
  195.0370  174.3450  138.5280 C   0  0  0  0  0  2  0  0  0  0  0  0
  196.6280  174.8920  135.4140 O   0  0  0  0  0  0  0  0  0  0  0  0
  197.3560  174.3600  137.6510 C   0  0  1  0  0  3  0  0  0  0  0  0
  196.3460  174.6220  136.6090 C   0  0  0  0  0  0  0  0  0  0  0  0
  196.5140  174.1610  138.9170 C   0  0  1  0  0  3  0  0  0  0  0  0
  195.0220  174.5780  137.0970 N   0  0  0  0  0  0  0  0  0  0  0  0
  198.3350  175.2740  139.8630 C   0  0  0  0  0  1  0  0  0  0  0  0
  196.8890  175.1600  139.9050 N   0  0  0  0  0  2  0  0  0  0  0  0
  191.9920  177.0330  143.0960 N   0  0  0  0  0  2  0  0  0  0  0  0
  191.3430  176.3020  144.1670 C   0  0  0  0  0  2  0  0  0  0  0  0
  191.5850  176.9760  145.5100 C   0  0  2  0  0  3  0  0  0  0  0  0
  191.9650  175.7510  146.7450 Cl  0  0  0  0  0  0  0  0  0  0  0  0
  190.4060  177.8410  145.9480 C   0  0  0  0  0  2  0  0  0  0  0  0
  189.1790  177.0100  146.3030 C   0  0  0  0  0  2  0  0  0  0  0  0
  185.6660  178.1580  145.4910 C   0  0  2  0  0  3  0  0  0  0  0  0
  186.4850  178.6270  140.9980 C   0  0  0  0  0  3  0  0  0  0  0  0
  187.0770  178.0250  143.4180 C   0  0  0  0  0  0  0  0  0  0  0  0
  185.7750  178.0420  144.0370 N   0  0  0  0  0  0  0  0  0  0  0  0
  185.4710  179.5490  145.8550 N   0  0  0  0  0  1  0  0  0  0  0  0
  187.3180  178.2490  141.9760 C   0  0  0  0  0  3  0  0  0  0  0  0
  184.4560  179.2150  142.4020 C   0  0  0  0  0  2  0  0  0  0  0  0
  186.8580  177.6430  146.1600 N   0  0  0  0  0  0  0  0  0  0  0  0
  187.9980  177.5080  145.5540 C   0  0  0  0  0  0  0  0  0  0  0  0
  184.5430  177.9910  143.2750 C   0  0  0  0  0  2  0  0  0  0  0  0
  185.0880  178.9440  141.1220 N   0  0  0  0  0  0  0  0  0  0  0  0
  188.1130  177.7650  144.1520 N   0  0  0  0  0  0  0  0  0  0  0  0
  183.8700  178.0400  139.2070 C   0  0  2  0  0  3  0  0  0  0  0  0
  182.9100  178.8820  140.0080 C   0  0  0  0  0  2  0  0  0  0  0  0
  184.3640  179.2960  139.9060 C   0  0  1  0  0  3  0  0  0  0  0  0
  183.7070  178.3160  137.8480 O   0  0  0  0  0  0  0  0  0  0  0  0
  182.4530  177.9140  136.2440 O   0  0  0  0  0  1  0  0  0  0  0  0
  182.5020  177.8800  137.5550 O   0  0  0  0  0  0  0  0  0  0  0  0
  1 27  1  0  0  0  0
  2  3  2  0  0  0  0
  3  1  1  0  0  0  0
  4  2  1  1  0  0  0
  5  9  1  0  0  0  0
  5  4  1  0  0  0  0
  6  9  2  0  0  0  0
  7  8  1  0  0  0  0
  8  6  1  0  0  0  0
 10  8  2  0  0  0  0
 10 11  1  0  0  0  0
 11  5  2  0  0  0  0
 12  4  1  0  0  0  0
 14 16  1  0  0  0  0
 15 17  1  1  0  0  0
 15 24  1  0  0  0  0
 15 13  1  0  0  0  0
 16 13  1  0  0  0  0
 16 12  1  1  0  0  0
 17 14  1  0  0  0  0
 19 23  1  0  0  0  0
 20 22  2  0  0  0  0
 21 18  1  6  0  0  0
 21 23  1  0  0  0  0
 22 24  1  0  0  0  0
 22 21  1  0  0  0  0
 23 26  1  1  0  0  0
 24 19  1  0  0  0  0
 25 26  1  0  0  0  0
 27 28  1  0  0  0  0
 28 29  1  0  0  0  0
 29 31  1  0  0  0  0
 29 30  1  1  0  0  0
 31 32  1  0  0  0  0
 33 37  1  6  0  0  0
 33 40  1  0  0  0  0
 34 43  1  0  0  0  0
 34 38  2  0  0  0  0
 35 36  1  0  0  0  0
 35 44  2  0  0  0  0
 36 33  1  0  0  0  0
 38 35  1  0  0  0  0
 39 42  1  0  0  0  0
 41 40  2  0  0  0  0
 41 32  1  0  0  0  0
 42 36  1  0  0  0  0
 43 39  1  0  0  0  0
 44 41  1  0  0  0  0
 45 48  1  6  0  0  0
 45 47  1  0  0  0  0
 45 46  1  0  0  0  0
 47 46  1  1  0  0  0
 47 43  1  0  0  0  0
 49 50  1  0  0  0  0
 50 48  1  0  0  0  0
M  END
>  <MODEL>
2

>  <REMARK>
 VINA RESULT:      -8.4      3.296     12.172
  Name = 
  16 active torsions:
  status: ('A' for Active; 'I' for Inactive)
    1  A    between atoms: C_2  and  C_43
    2  A    between atoms: C_8  and  O_44
    3  A    between atoms: N_13  and  C_32
    4  A    between atoms: N_13  and  C_38
    5  A    between atoms: N_20  and  C_39
    6  A    between atoms: C_25  and  C_35
    7  A    between atoms: C_25  and  C_38
    8  A    between atoms: C_27  and  C_43
    9  A    between atoms: C_28  and  N_42
   10  A    between atoms: C_29  and  N_46
   11  A    between atoms: C_31  and  C_50
   12  A    between atoms: C_32  and  N_48
   13  A    between atoms: C_35  and  C_50
   14  A    between atoms: N_40  and  C_41
   15  A    between atoms: C_43  and  N_46
   16  A    between atoms: O_44  and  O_49
                            x       y       z     vdW  Elec       q    Type
                         _______ _______ _______ _____ _____    ______ ____

>  <TORSDO>
F 16

$$$$
=
 OpenBabel10232410373D

 50 55  0  0  1  0  0  0  0  0999 V2000
  187.2960  178.2920  137.8770 C   0  0  0  0  0  2  0  0  0  0  0  0
  189.5650  177.5960  137.9800 C   0  0  0  0  0  3  0  0  0  0  0  0
  188.3390  177.3950  138.3050 N   0  0  0  0  0  0  0  0  0  0  0  0
  190.6360  176.6630  138.4530 C   0  0  2  0  0  3  0  0  0  0  0  0
  190.9370  176.8770  139.9050 C   0  0  0  0  0  0  0  0  0  0  0  0
  190.2290  176.7330  142.2170 C   0  0  0  0  0  3  0  0  0  0  0  0
  191.7030  177.4820  143.9740 O   0  0  0  0  0  1  0  0  0  0  0  0
  191.4490  177.2810  142.6270 C   0  0  0  0  0  0  0  0  0  0  0  0
  189.9750  176.5320  140.8590 C   0  0  0  0  0  3  0  0  0  0  0  0
  192.4150  177.6310  141.6770 C   0  0  0  0  0  3  0  0  0  0  0  0
  192.1600  177.4290  140.3190 C   0  0  0  0  0  3  0  0  0  0  0  0
  191.8400  176.8470  137.6590 N   0  0  0  0  0  2  0  0  0  0  0  0
  193.3010  175.6570  136.1300 C   0  0  0  0  0  2  0  0  0  0  0  0
  191.6370  174.4340  137.3710 C   0  0  0  0  0  2  0  0  0  0  0  0
  193.5990  174.1750  135.9770 C   0  0  2  0  0  3  0  0  0  0  0  0
  191.9020  175.7600  136.6940 C   0  0  1  0  0  3  0  0  0  0  0  0
  192.4290  173.4150  136.5820 C   0  0  0  0  0  2  0  0  0  0  0  0
  197.8030  172.1060  136.8880 C   0  0  0  0  0  1  0  0  0  0  0  0
  195.0730  173.9860  138.0890 C   0  0  0  0  0  2  0  0  0  0  0  0
  196.1710  173.5080  134.7570 O   0  0  0  0  0  0  0  0  0  0  0  0
  197.2130  173.5000  136.9330 C   0  0  1  0  0  3  0  0  0  0  0  0
  196.0690  173.5960  136.0080 C   0  0  0  0  0  0  0  0  0  0  0  0
  196.5760  173.7400  138.3080 C   0  0  1  0  0  3  0  0  0  0  0  0
  194.8420  173.8360  136.6650 N   0  0  0  0  0  0  0  0  0  0  0  0
  196.6130  175.0340  140.2490 C   0  0  0  0  0  1  0  0  0  0  0  0
  197.1810  174.9120  138.9200 N   0  0  0  0  0  2  0  0  0  0  0  0
  186.2850  178.4420  138.9200 N   0  0  0  0  0  2  0  0  0  0  0  0
  185.0260  178.7670  138.2790 C   0  0  0  0  0  2  0  0  0  0  0  0
  183.9650  177.7250  138.6040 C   0  0  2  0  0  3  0  0  0  0  0  0
  182.4510  178.1120  137.7490 Cl  0  0  0  0  0  0  0  0  0  0  0  0
  183.7210  177.5900  140.1050 C   0  0  0  0  0  2  0  0  0  0  0  0
  183.6090  178.9440  140.7960 C   0  0  0  0  0  2  0  0  0  0  0  0
  183.7800  179.3750  144.5530 C   0  0  2  0  0  3  0  0  0  0  0  0
  187.6790  176.9930  144.9970 C   0  0  0  0  0  3  0  0  0  0  0  0
  185.7500  178.0730  143.7000 C   0  0  0  0  0  0  0  0  0  0  0  0
  185.1510  178.8940  144.7220 N   0  0  0  0  0  0  0  0  0  0  0  0
  182.8620  178.4780  145.2260 N   0  0  0  0  0  1  0  0  0  0  0  0
  186.9700  177.2600  143.8930 C   0  0  0  0  0  3  0  0  0  0  0  0
  186.1100  177.9780  146.7300 C   0  0  0  0  0  2  0  0  0  0  0  0
  183.4180  179.4720  143.1400 N   0  0  0  0  0  0  0  0  0  0  0  0
  184.0520  178.8260  142.2090 C   0  0  0  0  0  0  0  0  0  0  0  0
  185.8340  179.2390  145.9530 C   0  0  0  0  0  2  0  0  0  0  0  0
  187.4000  177.4390  146.3360 N   0  0  0  0  0  0  0  0  0  0  0  0
  185.2180  178.0600  142.5190 N   0  0  0  0  0  0  0  0  0  0  0  0
  189.6890  177.7120  147.1450 C   0  0  2  0  0  3  0  0  0  0  0  0
  188.7600  178.2660  148.1950 C   0  0  0  0  0  2  0  0  0  0  0  0
  188.3390  177.0570  147.3850 C   0  0  1  0  0  3  0  0  0  0  0  0
  190.6780  176.9420  147.7610 O   0  0  0  0  0  0  0  0  0  0  0  0
  192.4750  176.0310  147.2600 O   0  0  0  0  0  1  0  0  0  0  0  0
  191.7440  177.0910  147.0050 O   0  0  0  0  0  0  0  0  0  0  0  0
  1  3  1  0  0  0  0
  1 27  1  0  0  0  0
  2  3  2  0  0  0  0
  4  2  1  6  0  0  0
  4  5  1  0  0  0  0
  5 11  2  0  0  0  0
  5  9  1  0  0  0  0
  6  8  1  0  0  0  0
  8  7  1  0  0  0  0
  9  6  2  0  0  0  0
 10  8  2  0  0  0  0
 11 10  1  0  0  0  0
 12  4  1  0  0  0  0
 13 16  1  0  0  0  0
 15 13  1  1  0  0  0
 15 17  1  0  0  0  0
 15 24  1  0  0  0  0
 16 14  1  0  0  0  0
 16 12  1  1  0  0  0
 17 14  1  0  0  0  0
 19 23  1  0  0  0  0
 20 22  2  0  0  0  0
 21 18  1  1  0  0  0
 21 23  1  0  0  0  0
 22 24  1  0  0  0  0
 22 21  1  0  0  0  0
 23 26  1  6  0  0  0
 24 19  1  0  0  0  0
 26 25  1  0  0  0  0
 28 29  1  0  0  0  0
 28 27  1  0  0  0  0
 29 30  1  6  0  0  0
 29 31  1  0  0  0  0
 31 32  1  0  0  0  0
 32 41  1  0  0  0  0
 33 36  1  0  0  0  0
 33 37  1  1  0  0  0
 34 43  1  0  0  0  0
 35 38  1  0  0  0  0
 35 36  1  0  0  0  0
 36 42  1  0  0  0  0
 38 34  2  0  0  0  0
 40 33  1  0  0  0  0
 41 44  1  0  0  0  0
 41 40  2  0  0  0  0
 42 39  1  0  0  0  0
 43 39  1  0  0  0  0
 44 35  2  0  0  0  0
 45 47  1  0  0  0  0
 45 48  1  1  0  0  0
 45 46  1  0  0  0  0
 47 43  1  6  0  0  0
 47 46  1  0  0  0  0
 50 49  1  0  0  0  0
 50 48  1  0  0  0  0
M  END
>  <MODEL>
3

>  <REMARK>
 VINA RESULT:      -7.9      2.761     11.209
  Name = 
  16 active torsions:
  status: ('A' for Active; 'I' for Inactive)
    1  A    between atoms: C_2  and  C_43
    2  A    between atoms: C_8  and  O_44
    3  A    between atoms: N_13  and  C_32
    4  A    between atoms: N_13  and  C_38
    5  A    between atoms: N_20  and  C_39
    6  A    between atoms: C_25  and  C_35
    7  A    between atoms: C_25  and  C_38
    8  A    between atoms: C_27  and  C_43
    9  A    between atoms: C_28  and  N_42
   10  A    between atoms: C_29  and  N_46
   11  A    between atoms: C_31  and  C_50
   12  A    between atoms: C_32  and  N_48
   13  A    between atoms: C_35  and  C_50
   14  A    between atoms: N_40  and  C_41
   15  A    between atoms: C_43  and  N_46
   16  A    between atoms: O_44  and  O_49
                            x       y       z     vdW  Elec       q    Type
                         _______ _______ _______ _____ _____    ______ ____

>  <TORSDO>
F 16

$$$$
=
 OpenBabel10232410373D

 50 55  0  0  1  0  0  0  0  0999 V2000
  190.5850  176.6320  142.6940 C   0  0  0  0  0  2  0  0  0  0  0  0
  190.3340  176.5370  140.3340 C   0  0  0  0  0  3  0  0  0  0  0  0
  191.0640  176.8290  141.3490 N   0  0  0  0  0  0  0  0  0  0  0  0
  190.8430  176.7700  138.9450 C   0  0  2  0  0  3  0  0  0  0  0  0
  189.7290  177.1440  138.0160 C   0  0  0  0  0  0  0  0  0  0  0  0
  187.9830  176.4590  136.4840 C   0  0  0  0  0  3  0  0  0  0  0  0
  186.6310  178.1230  135.3800 O   0  0  0  0  0  1  0  0  0  0  0  0
  187.6560  177.7980  136.2530 C   0  0  0  0  0  0  0  0  0  0  0  0
  189.0180  176.1330  137.3630 C   0  0  0  0  0  3  0  0  0  0  0  0
  188.3660  178.8150  136.9010 C   0  0  0  0  0  3  0  0  0  0  0  0
  189.4000  178.4890  137.7810 C   0  0  0  0  0  3  0  0  0  0  0  0
  191.5210  175.5780  138.4590 N   0  0  0  0  0  2  0  0  0  0  0  0
  193.9040  175.2260  138.1710 C   0  0  0  0  0  2  0  0  0  0  0  0
  192.5370  175.7000  136.2450 C   0  0  0  0  0  2  0  0  0  0  0  0
  194.7340  174.9500  136.9290 C   0  0  2  0  0  3  0  0  0  0  0  0
  192.6950  176.0120  137.7170 C   0  0  1  0  0  3  0  0  0  0  0  0
  193.9390  175.4520  135.7350 C   0  0  0  0  0  2  0  0  0  0  0  0
  196.8560  170.7110  137.4950 C   0  0  0  0  0  1  0  0  0  0  0  0
  194.5310  172.6780  135.7190 C   0  0  0  0  0  2  0  0  0  0  0  0
  195.8780  173.1780  138.9550 O   0  0  0  0  0  0  0  0  0  0  0  0
  195.4490  171.2700  137.5420 C   0  0  1  0  0  3  0  0  0  0  0  0
  195.4850  172.7110  137.8550 C   0  0  0  0  0  0  0  0  0  0  0  0
  194.8370  171.2290  136.1370 C   0  0  1  0  0  3  0  0  0  0  0  0
  194.9980  173.5190  136.8050 N   0  0  0  0  0  0  0  0  0  0  0  0
  193.8700  169.2750  136.9680 C   0  0  0  0  0  1  0  0  0  0  0  0
  193.6050  170.4580  136.1710 N   0  0  0  0  0  2  0  0  0  0  0  0
  191.6130  176.9950  143.6650 N   0  0  0  0  0  2  0  0  0  0  0  0
  191.5700  176.0280  144.7450 C   0  0  0  0  0  2  0  0  0  0  0  0
  191.5910  176.7230  146.0990 C   0  0  2  0  0  3  0  0  0  0  0  0
  191.5970  175.5120  147.4040 Cl  0  0  0  0  0  0  0  0  0  0  0  0
  190.4300  177.7000  146.2700 C   0  0  0  0  0  2  0  0  0  0  0  0
  189.1530  177.0050  146.7260 C   0  0  0  0  0  2  0  0  0  0  0  0
  185.6800  178.2290  145.8490 C   0  0  2  0  0  3  0  0  0  0  0  0
  186.5700  178.6060  141.3610 C   0  0  0  0  0  3  0  0  0  0  0  0
  187.1150  178.0270  143.7980 C   0  0  0  0  0  0  0  0  0  0  0  0
  185.8060  178.0860  144.3990 N   0  0  0  0  0  0  0  0  0  0  0  0
  185.5170  179.6290  146.1890 N   0  0  0  0  0  1  0  0  0  0  0  0
  187.3790  178.2220  142.3560 C   0  0  0  0  0  3  0  0  0  0  0  0
  184.5380  179.2670  142.7290 C   0  0  0  0  0  2  0  0  0  0  0  0
  186.8510  177.6940  146.5420 N   0  0  0  0  0  0  0  0  0  0  0  0
  187.9950  177.5210  145.9530 C   0  0  0  0  0  0  0  0  0  0  0  0
  184.5830  178.0550  143.6210 C   0  0  0  0  0  2  0  0  0  0  0  0
  185.1800  178.9600  141.4620 N   0  0  0  0  0  0  0  0  0  0  0  0
  188.1340  177.7530  144.5490 N   0  0  0  0  0  0  0  0  0  0  0  0
  183.9850  178.0550  139.5320 C   0  0  2  0  0  3  0  0  0  0  0  0
  183.0200  178.9140  140.3100 C   0  0  0  0  0  2  0  0  0  0  0  0
  184.4800  179.3110  140.2300 C   0  0  1  0  0  3  0  0  0  0  0  0
  183.8480  178.3230  138.1690 O   0  0  0  0  0  0  0  0  0  0  0  0
  184.0670  176.7820  136.7950 O   0  0  0  0  0  1  0  0  0  0  0  0
  183.2270  177.2730  137.6770 O   0  0  0  0  0  0  0  0  0  0  0  0
  1 27  1  0  0  0  0
  2  3  2  0  0  0  0
  3  1  1  0  0  0  0
  4  2  1  1  0  0  0
  5  4  1  0  0  0  0
  6  9  1  0  0  0  0
  7  8  1  0  0  0  0
  8  6  2  0  0  0  0
  8 10  1  0  0  0  0
  9  5  2  0  0  0  0
 10 11  2  0  0  0  0
 11  5  1  0  0  0  0
 12  4  1  0  0  0  0
 14 16  1  0  0  0  0
 15 17  1  6  0  0  0
 15 13  1  0  0  0  0
 16 13  1  0  0  0  0
 16 12  1  1  0  0  0
 17 14  1  0  0  0  0
 19 23  1  0  0  0  0
 19 24  1  0  0  0  0
 21 18  1  6  0  0  0
 21 22  1  0  0  0  0
 22 20  2  0  0  0  0
 23 26  1  1  0  0  0
 23 21  1  0  0  0  0
 24 15  1  0  0  0  0
 24 22  1  0  0  0  0
 26 25  1  0  0  0  0
 27 28  1  0  0  0  0
 28 29  1  0  0  0  0
 29 31  1  0  0  0  0
 29 30  1  1  0  0  0
 31 32  1  0  0  0  0
 33 37  1  6  0  0  0
 33 40  1  0  0  0  0
 34 43  1  0  0  0  0
 34 38  2  0  0  0  0
 35 36  1  0  0  0  0
 35 44  2  0  0  0  0
 36 33  1  0  0  0  0
 38 35  1  0  0  0  0
 39 42  1  0  0  0  0
 41 40  2  0  0  0  0
 41 32  1  0  0  0  0
 42 36  1  0  0  0  0
 43 39  1  0  0  0  0
 44 41  1  0  0  0  0
 45 48  1  6  0  0  0
 45 47  1  0  0  0  0
 45 46  1  0  0  0  0
 47 46  1  1  0  0  0
 47 43  1  0  0  0  0
 49 50  1  0  0  0  0
 50 48  1  0  0  0  0
M  END
>  <MODEL>
4

>  <REMARK>
 VINA RESULT:      -7.9      3.274     12.102
  Name = 
  16 active torsions:
  status: ('A' for Active; 'I' for Inactive)
    1  A    between atoms: C_2  and  C_43
    2  A    between atoms: C_8  and  O_44
    3  A    between atoms: N_13  and  C_32
    4  A    between atoms: N_13  and  C_38
    5  A    between atoms: N_20  and  C_39
    6  A    between atoms: C_25  and  C_35
    7  A    between atoms: C_25  and  C_38
    8  A    between atoms: C_27  and  C_43
    9  A    between atoms: C_28  and  N_42
   10  A    between atoms: C_29  and  N_46
   11  A    between atoms: C_31  and  C_50
   12  A    between atoms: C_32  and  N_48
   13  A    between atoms: C_35  and  C_50
   14  A    between atoms: N_40  and  C_41
   15  A    between atoms: C_43  and  N_46
   16  A    between atoms: O_44  and  O_49
                            x       y       z     vdW  Elec       q    Type
                         _______ _______ _______ _____ _____    ______ ____

>  <TORSDO>
F 16

$$$$
=
 OpenBabel10232410373D

 50 55  0  0  1  0  0  0  0  0999 V2000
  183.1000  179.1890  138.8780 C   0  0  0  0  0  2  0  0  0  0  0  0
  184.3020  177.5090  137.7060 C   0  0  0  0  0  3  0  0  0  0  0  0
  183.3930  178.4160  137.6980 N   0  0  0  0  0  0  0  0  0  0  0  0
  184.5750  176.7030  136.4740 C   0  0  2  0  0  3  0  0  0  0  0  0
  184.1980  175.2660  136.6720 C   0  0  0  0  0  0  0  0  0  0  0  0
  182.5240  173.5210  136.5370 C   0  0  0  0  0  3  0  0  0  0  0  0
  183.0680  171.2770  137.2360 O   0  0  0  0  0  1  0  0  0  0  0  0
  183.4420  172.5980  137.0490 C   0  0  0  0  0  0  0  0  0  0  0  0
  182.9020  174.8520  136.3500 C   0  0  0  0  0  3  0  0  0  0  0  0
  184.7390  173.0070  137.3770 C   0  0  0  0  0  3  0  0  0  0  0  0
  185.1160  174.3380  137.1890 C   0  0  0  0  0  3  0  0  0  0  0  0
  185.9810  176.8060  136.1160 N   0  0  0  0  0  2  0  0  0  0  0  0
  187.5630  176.8770  137.9550 C   0  0  0  0  0  2  0  0  0  0  0  0
  187.4840  178.7060  136.3890 C   0  0  0  0  0  2  0  0  0  0  0  0
  188.7820  177.7510  138.1950 C   0  0  2  0  0  3  0  0  0  0  0  0
  186.6200  177.6800  137.0880 C   0  0  1  0  0  3  0  0  0  0  0  0
  188.6110  179.0050  137.3530 C   0  0  0  0  0  2  0  0  0  0  0  0
  193.3800  176.4730  138.0530 C   0  0  0  0  0  1  0  0  0  0  0  0
  190.1890  176.3320  136.5600 C   0  0  0  0  0  2  0  0  0  0  0  0
  191.0650  177.1010  139.9030 O   0  0  0  0  0  0  0  0  0  0  0  0
  192.0310  175.7850  138.1270 C   0  0  1  0  0  3  0  0  0  0  0  0
  191.0300  176.6940  138.7130 C   0  0  0  0  0  0  0  0  0  0  0  0
  191.5040  175.5460  136.7070 C   0  0  1  0  0  3  0  0  0  0  0  0
  189.9980  177.0380  137.8120 N   0  0  0  0  0  0  0  0  0  0  0  0
  192.3350  173.6060  135.7110 C   0  0  0  0  0  1  0  0  0  0  0  0
  191.2500  174.1270  136.5210 N   0  0  0  0  0  2  0  0  0  0  0  0
  181.7560  179.7550  138.8040 N   0  0  0  0  0  2  0  0  0  0  0  0
  181.1660  179.6830  140.1260 C   0  0  0  0  0  2  0  0  0  0  0  0
  181.5760  178.4010  140.8360 C   0  0  2  0  0  3  0  0  0  0  0  0
  180.7990  176.9990  140.0590 Cl  0  0  0  0  0  0  0  0  0  0  0  0
  181.2610  178.4360  142.3290 C   0  0  0  0  0  2  0  0  0  0  0  0
  182.0530  179.5120  143.0620 C   0  0  0  0  0  2  0  0  0  0  0  0
  185.5130  178.0340  142.6470 C   0  0  2  0  0  3  0  0  0  0  0  0
  186.4440  178.0650  147.1420 C   0  0  0  0  0  3  0  0  0  0  0  0
  184.9810  178.4290  145.0690 C   0  0  0  0  0  0  0  0  0  0  0  0
  185.7500  177.7430  144.0600 N   0  0  0  0  0  0  0  0  0  0  0  0
  186.4590  179.0350  142.1900 N   0  0  0  0  0  1  0  0  0  0  0  0
  185.3440  178.4800  146.5020 C   0  0  0  0  0  3  0  0  0  0  0  0
  187.8900  177.5040  145.1350 C   0  0  0  0  0  2  0  0  0  0  0  0
  184.1510  178.5140  142.4200 N   0  0  0  0  0  0  0  0  0  0  0  0
  183.4170  179.0120  143.3690 C   0  0  0  0  0  0  0  0  0  0  0  0
  186.7960  176.7930  144.3820 C   0  0  0  0  0  2  0  0  0  0  0  0
  187.6080  177.4550  146.5590 N   0  0  0  0  0  0  0  0  0  0  0  0
  183.8800  179.0170  144.7210 N   0  0  0  0  0  0  0  0  0  0  0  0
  190.0090  177.6060  146.9890 C   0  0  2  0  0  3  0  0  0  0  0  0
  189.2910  178.2430  148.1520 C   0  0  0  0  0  2  0  0  0  0  0  0
  188.6780  177.0420  147.4610 C   0  0  1  0  0  3  0  0  0  0  0  0
  191.0380  176.7930  147.4690 O   0  0  0  0  0  0  0  0  0  0  0  0
  191.4860  177.6650  145.6390 O   0  0  0  0  0  1  0  0  0  0  0  0
  191.9820  176.8670  146.5560 O   0  0  0  0  0  0  0  0  0  0  0  0
  3  2  2  0  0  0  0
  3  1  1  0  0  0  0
  4  5  1  0  0  0  0
  4  2  1  1  0  0  0
  5 11  1  0  0  0  0
  6  8  2  0  0  0  0
  8  7  1  0  0  0  0
  8 10  1  0  0  0  0
  9  6  1  0  0  0  0
  9  5  2  0  0  0  0
 11 10  2  0  0  0  0
 12  4  1  0  0  0  0
 13 15  1  0  0  0  0
 14 16  1  0  0  0  0
 14 17  1  0  0  0  0
 15 17  1  6  0  0  0
 16 12  1  6  0  0  0
 16 13  1  0  0  0  0
 19 23  1  0  0  0  0
 19 24  1  0  0  0  0
 21 18  1  6  0  0  0
 21 22  1  0  0  0  0
 22 20  2  0  0  0  0
 23 26  1  1  0  0  0
 23 21  1  0  0  0  0
 24 15  1  0  0  0  0
 24 22  1  0  0  0  0
 25 26  1  0  0  0  0
 27  1  1  0  0  0  0
 27 28  1  0  0  0  0
 28 29  1  0  0  0  0
 29 30  1  6  0  0  0
 29 31  1  0  0  0  0
 31 32  1  0  0  0  0
 32 41  1  0  0  0  0
 33 37  1  1  0  0  0
 33 36  1  0  0  0  0
 35 38  1  0  0  0  0
 36 42  1  0  0  0  0
 36 35  1  0  0  0  0
 38 34  2  0  0  0  0
 39 43  1  0  0  0  0
 40 33  1  0  0  0  0
 40 41  2  0  0  0  0
 41 44  1  0  0  0  0
 42 39  1  0  0  0  0
 43 34  1  0  0  0  0
 44 35  2  0  0  0  0
 45 47  1  0  0  0  0
 45 48  1  1  0  0  0
 45 46  1  0  0  0  0
 47 43  1  6  0  0  0
 47 46  1  0  0  0  0
 49 50  1  0  0  0  0
 50 48  1  0  0  0  0
M  END
>  <MODEL>
5

>  <REMARK>
 VINA RESULT:      -7.4      3.452     10.727
  Name = 
  16 active torsions:
  status: ('A' for Active; 'I' for Inactive)
    1  A    between atoms: C_2  and  C_43
    2  A    between atoms: C_8  and  O_44
    3  A    between atoms: N_13  and  C_32
    4  A    between atoms: N_13  and  C_38
    5  A    between atoms: N_20  and  C_39
    6  A    between atoms: C_25  and  C_35
    7  A    between atoms: C_25  and  C_38
    8  A    between atoms: C_27  and  C_43
    9  A    between atoms: C_28  and  N_42
   10  A    between atoms: C_29  and  N_46
   11  A    between atoms: C_31  and  C_50
   12  A    between atoms: C_32  and  N_48
   13  A    between atoms: C_35  and  C_50
   14  A    between atoms: N_40  and  C_41
   15  A    between atoms: C_43  and  N_46
   16  A    between atoms: O_44  and  O_49
                            x       y       z     vdW  Elec       q    Type
                         _______ _______ _______ _____ _____    ______ ____

>  <TORSDO>
F 16

$$$$
=
 OpenBabel10232410373D

 50 55  0  0  1  0  0  0  0  0999 V2000
  189.2840  177.7160  139.8930 C   0  0  0  0  0  2  0  0  0  0  0  0
  189.3940  176.7210  137.7390 C   0  0  0  0  0  3  0  0  0  0  0  0
  189.5000  176.5960  139.0130 N   0  0  0  0  0  0  0  0  0  0  0  0
  189.6440  175.5500  136.8410 C   0  0  2  0  0  3  0  0  0  0  0  0
  188.4820  174.6030  136.8500 C   0  0  0  0  0  0  0  0  0  0  0  0
  186.0870  174.2540  136.7610 C   0  0  0  0  0  3  0  0  0  0  0  0
  185.1930  172.0180  136.9040 O   0  0  0  0  0  1  0  0  0  0  0  0
  186.2820  172.8750  136.8860 C   0  0  0  0  0  0  0  0  0  0  0  0
  187.1860  175.1160  136.7440 C   0  0  0  0  0  3  0  0  0  0  0  0
  187.5770  172.3560  136.9950 C   0  0  0  0  0  3  0  0  0  0  0  0
  188.6740  173.2190  136.9770 C   0  0  0  0  0  3  0  0  0  0  0  0
  190.8550  174.8590  137.2540 N   0  0  0  0  0  2  0  0  0  0  0  0
  193.0090  175.6150  136.4320 C   0  0  0  0  0  2  0  0  0  0  0  0
  192.2210  173.4180  135.8370 C   0  0  0  0  0  2  0  0  0  0  0  0
  194.1680  174.8550  135.8090 C   0  0  2  0  0  3  0  0  0  0  0  0
  191.7570  174.8310  136.1120 C   0  0  1  0  0  3  0  0  0  0  0  0
  193.6070  173.5580  135.2490 C   0  0  0  0  0  2  0  0  0  0  0  0
  198.3510  173.5810  137.7250 C   0  0  0  0  0  1  0  0  0  0  0  0
  194.9260  174.2680  138.2070 C   0  0  0  0  0  2  0  0  0  0  0  0
  197.0550  175.2440  135.5510 O   0  0  0  0  0  0  0  0  0  0  0  0
  197.3460  174.7040  137.8840 C   0  0  1  0  0  3  0  0  0  0  0  0
  196.5640  174.8630  136.6440 C   0  0  0  0  0  0  0  0  0  0  0  0
  196.2900  174.3000  138.9190 C   0  0  1  0  0  3  0  0  0  0  0  0
  195.1910  174.5800  136.8150 N   0  0  0  0  0  0  0  0  0  0  0  0
  197.5200  175.1700  140.7020 C   0  0  0  0  0  1  0  0  0  0  0  0
  196.2620  175.2860  139.9880 N   0  0  0  0  0  2  0  0  0  0  0  0
  188.2780  178.6190  139.3430 N   0  0  0  0  0  2  0  0  0  0  0  0
  187.1930  178.7180  140.2990 C   0  0  0  0  0  2  0  0  0  0  0  0
  185.8560  178.4150  139.6380 C   0  0  2  0  0  3  0  0  0  0  0  0
  186.0500  178.3630  137.8690 Cl  0  0  0  0  0  0  0  0  0  0  0  0
  184.7710  179.4130  140.0360 C   0  0  0  0  0  2  0  0  0  0  0  0
  183.6930  178.7780  140.9060 C   0  0  0  0  0  2  0  0  0  0  0  0
  183.9300  179.4210  144.6290 C   0  0  2  0  0  3  0  0  0  0  0  0
  187.7510  176.9330  145.1660 C   0  0  0  0  0  3  0  0  0  0  0  0
  185.8430  178.0030  143.8300 C   0  0  0  0  0  0  0  0  0  0  0  0
  185.2850  178.9020  144.8090 N   0  0  0  0  0  0  0  0  0  0  0  0
  182.9900  178.5960  145.3640 N   0  0  0  0  0  1  0  0  0  0  0  0
  187.0360  177.1600  144.0560 C   0  0  0  0  0  3  0  0  0  0  0  0
  186.2400  178.0710  146.8560 C   0  0  0  0  0  2  0  0  0  0  0  0
  183.5520  179.4480  143.2170 N   0  0  0  0  0  0  0  0  0  0  0  0
  184.1500  178.7270  142.3180 C   0  0  0  0  0  0  0  0  0  0  0  0
  185.9970  179.2940  146.0100 C   0  0  0  0  0  2  0  0  0  0  0  0
  187.5050  177.4650  146.4790 N   0  0  0  0  0  0  0  0  0  0  0  0
  185.2940  177.9400  142.6580 N   0  0  0  0  0  0  0  0  0  0  0  0
  189.8430  177.5860  147.1790 C   0  0  2  0  0  3  0  0  0  0  0  0
  189.0220  178.3570  148.1810 C   0  0  0  0  0  2  0  0  0  0  0  0
  188.4450  177.1120  147.5380 C   0  0  1  0  0  3  0  0  0  0  0  0
  190.7740  176.7940  147.8530 O   0  0  0  0  0  0  0  0  0  0  0  0
  191.7250  176.2270  146.0980 O   0  0  0  0  0  1  0  0  0  0  0  0
  191.8960  176.9440  147.1840 O   0  0  0  0  0  0  0  0  0  0  0  0
  2  3  2  0  0  0  0
  3  1  1  0  0  0  0
  4  5  1  0  0  0  0
  4 12  1  0  0  0  0
  4  2  1  1  0  0  0
  5 11  1  0  0  0  0
  6  8  2  0  0  0  0
  8  7  1  0  0  0  0
  8 10  1  0  0  0  0
  9  6  1  0  0  0  0
  9  5  2  0  0  0  0
 11 10  2  0  0  0  0
 14 16  1  0  0  0  0
 15 17  1  1  0  0  0
 15 13  1  0  0  0  0
 15 24  1  0  0  0  0
 16 13  1  0  0  0  0
 16 12  1  1  0  0  0
 17 14  1  0  0  0  0
 19 23  1  0  0  0  0
 20 22  2  0  0  0  0
 21 18  1  6  0  0  0
 21 23  1  0  0  0  0
 22 24  1  0  0  0  0
 22 21  1  0  0  0  0
 23 26  1  1  0  0  0
 24 19  1  0  0  0  0
 26 25  1  0  0  0  0
 27  1  1  0  0  0  0
 27 28  1  0  0  0  0
 29 30  1  6  0  0  0
 29 31  1  0  0  0  0
 29 28  1  0  0  0  0
 31 32  1  0  0  0  0
 32 41  1  0  0  0  0
 33 36  1  0  0  0  0
 33 37  1  1  0  0  0
 34 43  1  0  0  0  0
 35 38  1  0  0  0  0
 35 36  1  0  0  0  0
 36 42  1  0  0  0  0
 38 34  2  0  0  0  0
 40 33  1  0  0  0  0
 41 44  1  0  0  0  0
 41 40  2  0  0  0  0
 42 39  1  0  0  0  0
 43 39  1  0  0  0  0
 44 35  2  0  0  0  0
 45 47  1  0  0  0  0
 45 48  1  1  0  0  0
 45 46  1  0  0  0  0
 47 43  1  6  0  0  0
 47 46  1  0  0  0  0
 49 50  1  0  0  0  0
 50 48  1  0  0  0  0
M  END
>  <MODEL>
6

>  <REMARK>
 VINA RESULT:      -7.4      2.492     11.787
  Name = 
  16 active torsions:
  status: ('A' for Active; 'I' for Inactive)
    1  A    between atoms: C_2  and  C_43
    2  A    between atoms: C_8  and  O_44
    3  A    between atoms: N_13  and  C_32
    4  A    between atoms: N_13  and  C_38
    5  A    between atoms: N_20  and  C_39
    6  A    between atoms: C_25  and  C_35
    7  A    between atoms: C_25  and  C_38
    8  A    between atoms: C_27  and  C_43
    9  A    between atoms: C_28  and  N_42
   10  A    between atoms: C_29  and  N_46
   11  A    between atoms: C_31  and  C_50
   12  A    between atoms: C_32  and  N_48
   13  A    between atoms: C_35  and  C_50
   14  A    between atoms: N_40  and  C_41
   15  A    between atoms: C_43  and  N_46
   16  A    between atoms: O_44  and  O_49
                            x       y       z     vdW  Elec       q    Type
                         _______ _______ _______ _____ _____    ______ ____

>  <TORSDO>
F 16

$$$$
=
 OpenBabel10232410373D

 50 55  0  0  1  0  0  0  0  0999 V2000
  189.8810  177.4080  141.9840 C   0  0  0  0  0  2  0  0  0  0  0  0
  189.0400  177.2370  139.7690 C   0  0  0  0  0  3  0  0  0  0  0  0
  190.0510  177.2650  140.5600 N   0  0  0  0  0  0  0  0  0  0  0  0
  189.2410  177.1090  138.2910 C   0  0  2  0  0  3  0  0  0  0  0  0
  187.9470  176.8260  137.5910 C   0  0  0  0  0  0  0  0  0  0  0  0
  185.8490  177.6400  136.6960 C   0  0  0  0  0  3  0  0  0  0  0  0
  184.3000  176.0990  135.6740 O   0  0  0  0  0  1  0  0  0  0  0  0
  185.5070  176.3410  136.3090 C   0  0  0  0  0  0  0  0  0  0  0  0
  187.0660  177.8820  137.3370 C   0  0  0  0  0  3  0  0  0  0  0  0
  186.3830  175.2800  136.5640 C   0  0  0  0  0  3  0  0  0  0  0  0
  187.6000  175.5220  137.2030 C   0  0  0  0  0  3  0  0  0  0  0  0
  190.2020  176.0540  138.0110 N   0  0  0  0  0  2  0  0  0  0  0  0
  192.5180  176.4640  137.4170 C   0  0  0  0  0  2  0  0  0  0  0  0
  191.0010  175.6170  135.7490 C   0  0  0  0  0  2  0  0  0  0  0  0
  193.3420  176.0170  136.2200 C   0  0  2  0  0  3  0  0  0  0  0  0
  191.0810  176.5280  136.9530 C   0  0  1  0  0  3  0  0  0  0  0  0
  192.3670  175.6860  135.1010 C   0  0  0  0  0  2  0  0  0  0  0  0
  195.8820  172.0080  135.7130 C   0  0  0  0  0  1  0  0  0  0  0  0
  194.1540  174.2010  137.8660 C   0  0  0  0  0  2  0  0  0  0  0  0
  195.4930  174.8150  134.6460 O   0  0  0  0  0  0  0  0  0  0  0  0
  196.0010  173.3170  136.4670 C   0  0  1  0  0  3  0  0  0  0  0  0
  195.2180  174.3660  135.7880 C   0  0  0  0  0  0  0  0  0  0  0  0
  195.3090  173.1850  137.8290 C   0  0  1  0  0  3  0  0  0  0  0  0
  194.1420  174.8460  136.5670 N   0  0  0  0  0  0  0  0  0  0  0  0
  195.7580  174.6510  139.5880 C   0  0  0  0  0  1  0  0  0  0  0  0
  196.2620  173.4870  138.8840 N   0  0  0  0  0  2  0  0  0  0  0  0
  191.1510  177.2160  142.6780 N   0  0  0  0  0  2  0  0  0  0  0  0
  191.2620  178.2370  143.7010 C   0  0  0  0  0  2  0  0  0  0  0  0
  191.4360  177.6110  145.0770 C   0  0  2  0  0  3  0  0  0  0  0  0
  191.5690  175.8420  144.9300 Cl  0  0  0  0  0  0  0  0  0  0  0  0
  190.3110  177.9930  146.0370 C   0  0  0  0  0  2  0  0  0  0  0  0
  189.2370  176.9150  146.1260 C   0  0  0  0  0  2  0  0  0  0  0  0
  185.8680  178.4880  146.8330 C   0  0  2  0  0  3  0  0  0  0  0  0
  184.5740  178.5320  142.4290 C   0  0  0  0  0  3  0  0  0  0  0  0
  186.1510  178.0170  144.3830 C   0  0  0  0  0  0  0  0  0  0  0  0
  185.2870  178.2590  145.5110 N   0  0  0  0  0  0  0  0  0  0  0  0
  185.9940  179.9140  147.0700 N   0  0  0  0  0  1  0  0  0  0  0  0
  185.7230  178.1070  142.9700 C   0  0  0  0  0  3  0  0  0  0  0  0
  183.4810  179.4930  144.5060 C   0  0  0  0  0  2  0  0  0  0  0  0
  187.1810  177.8570  146.9570 N   0  0  0  0  0  0  0  0  0  0  0  0
  187.8970  177.5230  145.9270 C   0  0  0  0  0  0  0  0  0  0  0  0
  183.8440  178.3300  145.3930 C   0  0  0  0  0  2  0  0  0  0  0  0
  183.4270  179.0490  143.1240 N   0  0  0  0  0  0  0  0  0  0  0  0
  187.3790  177.6660  144.6020 N   0  0  0  0  0  0  0  0  0  0  0  0
  181.4360  178.1810  142.0040 C   0  0  2  0  0  3  0  0  0  0  0  0
  180.9810  179.1300  143.0840 C   0  0  0  0  0  2  0  0  0  0  0  0
  182.2620  179.4160  142.3260 C   0  0  1  0  0  3  0  0  0  0  0  0
  180.7060  178.4190  140.8390 O   0  0  0  0  0  0  0  0  0  0  0  0
  181.5530  176.8440  139.7850 O   0  0  0  0  0  1  0  0  0  0  0  0
  180.4340  177.2260  140.3580 O   0  0  0  0  0  0  0  0  0  0  0  0
  1 27  1  0  0  0  0
  2  3  2  0  0  0  0
  3  1  1  0  0  0  0
  4  2  1  1  0  0  0
  5  4  1  0  0  0  0
  6  9  2  0  0  0  0
  7  8  1  0  0  0  0
  8 10  2  0  0  0  0
  8  6  1  0  0  0  0
  9  5  1  0  0  0  0
 10 11  1  0  0  0  0
 11  5  2  0  0  0  0
 12  4  1  0  0  0  0
 14 16  1  0  0  0  0
 15 17  1  6  0  0  0
 15 24  1  0  0  0  0
 15 13  1  0  0  0  0
 16 13  1  0  0  0  0
 16 12  1  1  0  0  0
 17 14  1  0  0  0  0
 20 22  2  0  0  0  0
 21 18  1  6  0  0  0
 21 23  1  0  0  0  0
 22 21  1  0  0  0  0
 22 24  1  0  0  0  0
 23 19  1  0  0  0  0
 23 26  1  1  0  0  0
 24 19  1  0  0  0  0
 26 25  1  0  0  0  0
 27 28  1  0  0  0  0
 28 29  1  0  0  0  0
 29 30  1  6  0  0  0
 29 31  1  0  0  0  0
 31 32  1  0  0  0  0
 33 40  1  0  0  0  0
 33 37  1  6  0  0  0
 34 38  2  0  0  0  0
 34 43  1  0  0  0  0
 35 44  2  0  0  0  0
 35 36  1  0  0  0  0
 36 33  1  0  0  0  0
 38 35  1  0  0  0  0
 39 42  1  0  0  0  0
 41 32  1  0  0  0  0
 41 40  2  0  0  0  0
 42 36  1  0  0  0  0
 43 39  1  0  0  0  0
 44 41  1  0  0  0  0
 45 48  1  6  0  0  0
 45 47  1  0  0  0  0
 45 46  1  0  0  0  0
 47 46  1  1  0  0  0
 47 43  1  0  0  0  0
 49 50  1  0  0  0  0
 50 48  1  0  0  0  0
M  END
>  <MODEL>
7

>  <REMARK>
 VINA RESULT:      -7.3      3.145     12.626
  Name = 
  16 active torsions:
  status: ('A' for Active; 'I' for Inactive)
    1  A    between atoms: C_2  and  C_43
    2  A    between atoms: C_8  and  O_44
    3  A    between atoms: N_13  and  C_32
    4  A    between atoms: N_13  and  C_38
    5  A    between atoms: N_20  and  C_39
    6  A    between atoms: C_25  and  C_35
    7  A    between atoms: C_25  and  C_38
    8  A    between atoms: C_27  and  C_43
    9  A    between atoms: C_28  and  N_42
   10  A    between atoms: C_29  and  N_46
   11  A    between atoms: C_31  and  C_50
   12  A    between atoms: C_32  and  N_48
   13  A    between atoms: C_35  and  C_50
   14  A    between atoms: N_40  and  C_41
   15  A    between atoms: C_43  and  N_46
   16  A    between atoms: O_44  and  O_49
                            x       y       z     vdW  Elec       q    Type
                         _______ _______ _______ _____ _____    ______ ____

>  <TORSDO>
F 16

$$$$
=
 OpenBabel10232410373D

 50 55  0  0  1  0  0  0  0  0999 V2000
  186.9540  178.4190  137.4390 C   0  0  0  0  0  2  0  0  0  0  0  0
  189.1180  177.8630  138.2420 C   0  0  0  0  0  3  0  0  0  0  0  0
  187.9340  177.4820  137.9260 N   0  0  0  0  0  0  0  0  0  0  0  0
  190.1140  176.8760  138.7670 C   0  0  2  0  0  3  0  0  0  0  0  0
  190.3580  177.0790  140.2320 C   0  0  0  0  0  0  0  0  0  0  0  0
  191.8920  177.6110  142.0280 C   0  0  0  0  0  3  0  0  0  0  0  0
  191.1120  177.6230  144.3110 O   0  0  0  0  0  1  0  0  0  0  0  0
  190.8630  177.4430  142.9600 C   0  0  0  0  0  0  0  0  0  0  0  0
  191.6390  177.4280  140.6670 C   0  0  0  0  0  3  0  0  0  0  0  0
  189.5790  177.0900  142.5310 C   0  0  0  0  0  3  0  0  0  0  0  0
  189.3270  176.9080  141.1700 C   0  0  0  0  0  3  0  0  0  0  0  0
  191.3640  176.9940  138.0320 N   0  0  0  0  0  2  0  0  0  0  0  0
  192.7290  175.8220  136.4040 C   0  0  0  0  0  2  0  0  0  0  0  0
  190.9150  174.6600  137.4820 C   0  0  0  0  0  2  0  0  0  0  0  0
  192.8740  174.3410  136.0960 C   0  0  2  0  0  3  0  0  0  0  0  0
  191.3350  176.0150  136.9550 C   0  0  1  0  0  3  0  0  0  0  0  0
  191.6150  173.6520  136.5980 C   0  0  0  0  0  2  0  0  0  0  0  0
  197.0190  174.1870  138.4580 C   0  0  0  0  0  1  0  0  0  0  0  0
  194.6190  172.4850  136.5150 C   0  0  0  0  0  2  0  0  0  0  0  0
  194.2680  175.4540  138.4120 O   0  0  0  0  0  0  0  0  0  0  0  0
  195.6720  173.4950  138.5200 C   0  0  1  0  0  3  0  0  0  0  0  0
  194.6330  174.3540  137.9230 C   0  0  0  0  0  0  0  0  0  0  0  0
  195.6870  172.2680  137.6010 C   0  0  1  0  0  3  0  0  0  0  0  0
  194.0560  173.8000  136.7600 N   0  0  0  0  0  0  0  0  0  0  0  0
  196.0120  169.9600  137.7240 C   0  0  0  0  0  1  0  0  0  0  0  0
  195.3640  171.0820  138.3770 N   0  0  0  0  0  2  0  0  0  0  0  0
  185.6910  178.2640  138.1550 N   0  0  0  0  0  2  0  0  0  0  0  0
  185.0430  177.0620  137.6660 C   0  0  0  0  0  2  0  0  0  0  0  0
  183.5290  177.2040  137.7120 C   0  0  2  0  0  3  0  0  0  0  0  0
  182.8590  177.1020  136.0650 Cl  0  0  0  0  0  0  0  0  0  0  0  0
  183.0840  178.4920  138.3990 C   0  0  0  0  0  2  0  0  0  0  0  0
  181.8830  178.2760  139.3110 C   0  0  0  0  0  2  0  0  0  0  0  0
  181.7770  179.1710  142.9880 C   0  0  2  0  0  3  0  0  0  0  0  0
  186.1840  178.1190  143.7260 C   0  0  0  0  0  3  0  0  0  0  0  0
  184.0740  178.4210  142.3030 C   0  0  0  0  0  0  0  0  0  0  0  0
  183.2210  179.1400  143.2170 N   0  0  0  0  0  0  0  0  0  0  0  0
  181.1380  178.1250  143.7630 N   0  0  0  0  0  1  0  0  0  0  0  0
  185.4710  178.0340  142.5960 C   0  0  0  0  0  3  0  0  0  0  0  0
  184.3310  178.7890  145.3230 C   0  0  0  0  0  2  0  0  0  0  0  0
  181.4560  178.9910  141.5730 N   0  0  0  0  0  0  0  0  0  0  0  0
  182.2870  178.4590  140.7290 C   0  0  0  0  0  0  0  0  0  0  0  0
  183.7260  179.8120  144.3980 C   0  0  0  0  0  2  0  0  0  0  0  0
  185.7360  178.6140  145.0000 N   0  0  0  0  0  0  0  0  0  0  0  0
  183.6140  178.1150  141.1310 N   0  0  0  0  0  0  0  0  0  0  0  0
  187.0220  177.2410  146.5590 C   0  0  2  0  0  3  0  0  0  0  0  0
  188.0000  177.9780  145.6800 C   0  0  0  0  0  2  0  0  0  0  0  0
  186.7050  178.6510  146.0890 C   0  0  1  0  0  3  0  0  0  0  0  0
  187.4570  177.2950  147.8850 O   0  0  0  0  0  0  0  0  0  0  0  0
  189.2580  178.0360  148.6040 O   0  0  0  0  0  1  0  0  0  0  0  0
  188.7570  177.1070  147.8230 O   0  0  0  0  0  0  0  0  0  0  0  0
  1  3  1  0  0  0  0
  1 27  1  0  0  0  0
  3  2  2  0  0  0  0
  4  2  1  6  0  0  0
  4  5  1  0  0  0  0
  5  9  2  0  0  0  0
  5 11  1  0  0  0  0
  6  8  2  0  0  0  0
  8  7  1  0  0  0  0
  9  6  1  0  0  0  0
 10  8  1  0  0  0  0
 11 10  2  0  0  0  0
 12  4  1  0  0  0  0
 13 16  1  0  0  0  0
 15 13  1  1  0  0  0
 15 17  1  0  0  0  0
 15 24  1  0  0  0  0
 16 14  1  0  0  0  0
 16 12  1  1  0  0  0
 17 14  1  0  0  0  0
 19 24  1  0  0  0  0
 19 23  1  0  0  0  0
 21 18  1  6  0  0  0
 22 20  2  0  0  0  0
 22 21  1  0  0  0  0
 23 26  1  1  0  0  0
 23 21  1  0  0  0  0
 24 22  1  0  0  0  0
 25 26  1  0  0  0  0
 28 29  1  0  0  0  0
 28 27  1  0  0  0  0
 29 30  1  6  0  0  0
 29 31  1  0  0  0  0
 31 32  1  0  0  0  0
 32 41  1  0  0  0  0
 33 36  1  0  0  0  0
 33 37  1  1  0  0  0
 34 43  1  0  0  0  0
 35 38  1  0  0  0  0
 35 36  1  0  0  0  0
 36 42  1  0  0  0  0
 38 34  2  0  0  0  0
 40 33  1  0  0  0  0
 41 44  1  0  0  0  0
 41 40  2  0  0  0  0
 42 39  1  0  0  0  0
 43 39  1  0  0  0  0
 44 35  2  0  0  0  0
 45 48  1  1  0  0  0
 46 47  1  0  0  0  0
 46 45  1  0  0  0  0
 47 43  1  6  0  0  0
 47 45  1  0  0  0  0
 50 48  1  0  0  0  0
 50 49  1  0  0  0  0
M  END
>  <MODEL>
8

>  <REMARK>
 VINA RESULT:      -7.3      2.537     11.196
  Name = 
  16 active torsions:
  status: ('A' for Active; 'I' for Inactive)
    1  A    between atoms: C_2  and  C_43
    2  A    between atoms: C_8  and  O_44
    3  A    between atoms: N_13  and  C_32
    4  A    between atoms: N_13  and  C_38
    5  A    between atoms: N_20  and  C_39
    6  A    between atoms: C_25  and  C_35
    7  A    between atoms: C_25  and  C_38
    8  A    between atoms: C_27  and  C_43
    9  A    between atoms: C_28  and  N_42
   10  A    between atoms: C_29  and  N_46
   11  A    between atoms: C_31  and  C_50
   12  A    between atoms: C_32  and  N_48
   13  A    between atoms: C_35  and  C_50
   14  A    between atoms: N_40  and  C_41
   15  A    between atoms: C_43  and  N_46
   16  A    between atoms: O_44  and  O_49
                            x       y       z     vdW  Elec       q    Type
                         _______ _______ _______ _____ _____    ______ ____

>  <TORSDO>
F 16

$$$$
=
 OpenBabel10232410373D

 50 55  0  0  1  0  0  0  0  0999 V2000
  189.2480  177.6900  140.7570 C   0  0  0  0  0  2  0  0  0  0  0  0
  187.2920  177.6500  142.1050 C   0  0  0  0  0  3  0  0  0  0  0  0
  188.2250  178.3310  141.5440 N   0  0  0  0  0  0  0  0  0  0  0  0
  186.2520  178.3340  142.9360 C   0  0  2  0  0  3  0  0  0  0  0  0
  186.5670  178.2230  144.3970 C   0  0  0  0  0  0  0  0  0  0  0  0
  185.9270  178.6320  146.6970 C   0  0  0  0  0  3  0  0  0  0  0  0
  187.4020  177.9760  148.4900 O   0  0  0  0  0  1  0  0  0  0  0  0
  187.1250  178.0580  147.1350 C   0  0  0  0  0  0  0  0  0  0  0  0
  185.6500  178.7150  145.3310 C   0  0  0  0  0  3  0  0  0  0  0  0
  188.0480  177.5670  146.2050 C   0  0  0  0  0  3  0  0  0  0  0  0
  187.7690  177.6490  144.8400 C   0  0  0  0  0  3  0  0  0  0  0  0
  184.9430  177.7620  142.6620 N   0  0  0  0  0  2  0  0  0  0  0  0
  184.4880  178.9300  140.5850 C   0  0  0  0  0  2  0  0  0  0  0  0
  182.6680  178.4130  142.0750 C   0  0  0  0  0  2  0  0  0  0  0  0
  183.1880  179.1820  139.8400 C   0  0  2  0  0  3  0  0  0  0  0  0
  184.1300  178.8000  142.0470 C   0  0  1  0  0  3  0  0  0  0  0  0
  182.0580  179.0580  140.8500 C   0  0  0  0  0  2  0  0  0  0  0  0
  181.0760  176.1950  136.7730 C   0  0  0  0  0  1  0  0  0  0  0  0
  184.0550  177.2970  138.3030 C   0  0  0  0  0  2  0  0  0  0  0  0
  180.9590  178.9800  137.9580 O   0  0  0  0  0  0  0  0  0  0  0  0
  182.1400  177.2730  136.7280 C   0  0  1  0  0  3  0  0  0  0  0  0
  181.9530  178.2170  137.8450 C   0  0  0  0  0  0  0  0  0  0  0  0
  183.5100  176.6480  137.0190 C   0  0  1  0  0  3  0  0  0  0  0  0
  183.0240  178.2070  138.7650 N   0  0  0  0  0  0  0  0  0  0  0  0
  183.6920  176.5970  134.6920 C   0  0  0  0  0  1  0  0  0  0  0  0
  184.4090  176.9250  135.9100 N   0  0  0  0  0  2  0  0  0  0  0  0
  188.7830  177.4640  139.3920 N   0  0  0  0  0  2  0  0  0  0  0  0
  189.1520  178.6170  138.5950 C   0  0  0  0  0  2  0  0  0  0  0  0
  188.9330  178.3480  137.1130 C   0  0  2  0  0  3  0  0  0  0  0  0
  187.3690  179.0240  136.5960 Cl  0  0  0  0  0  0  0  0  0  0  0  0
  189.0220  176.8620  136.7720 C   0  0  0  0  0  2  0  0  0  0  0  0
  189.8450  176.6060  135.5150 C   0  0  0  0  0  2  0  0  0  0  0  0
  192.0460  173.8850  136.9570 C   0  0  2  0  0  3  0  0  0  0  0  0
  195.9530  175.7670  135.4510 C   0  0  0  0  0  3  0  0  0  0  0  0
  193.4180  175.6500  135.8140 C   0  0  0  0  0  0  0  0  0  0  0  0
  193.3220  174.5740  136.7690 N   0  0  0  0  0  0  0  0  0  0  0  0
  192.0110  172.6920  136.1340 N   0  0  0  0  0  1  0  0  0  0  0  0
  194.6920  176.1900  135.2930 C   0  0  0  0  0  3  0  0  0  0  0  0
  195.4920  173.5490  136.5920 C   0  0  0  0  0  2  0  0  0  0  0  0
  190.9160  174.7470  136.6120 N   0  0  0  0  0  0  0  0  0  0  0  0
  191.0410  175.7930  135.8540 C   0  0  0  0  0  0  0  0  0  0  0  0
  194.4570  174.1020  137.5370 C   0  0  0  0  0  2  0  0  0  0  0  0
  196.3940  174.6120  136.1860 N   0  0  0  0  0  0  0  0  0  0  0  0
  192.3290  176.2150  135.4000 N   0  0  0  0  0  0  0  0  0  0  0  0
  198.2830  174.3150  137.7070 C   0  0  2  0  0  3  0  0  0  0  0  0
  198.1130  173.0350  136.9280 C   0  0  0  0  0  2  0  0  0  0  0  0
  197.8300  174.3640  136.2570 C   0  0  1  0  0  3  0  0  0  0  0  0
  199.6380  174.6450  137.7670 O   0  0  0  0  0  0  0  0  0  0  0  0
  198.7010  175.7830  139.2270 O   0  0  0  0  0  1  0  0  0  0  0  0
  199.8150  175.1370  138.9730 O   0  0  0  0  0  0  0  0  0  0  0  0
  1  3  1  0  0  0  0
  3  2  2  0  0  0  0
  4  2  1  6  0  0  0
  4  5  1  0  0  0  0
  5 11  2  0  0  0  0
  5  9  1  0  0  0  0
  6  8  1  0  0  0  0
  8  7  1  0  0  0  0
  9  6  2  0  0  0  0
 10  8  2  0  0  0  0
 11 10  1  0  0  0  0
 12  4  1  0  0  0  0
 13 16  1  0  0  0  0
 15 24  1  6  0  0  0
 15 13  1  0  0  0  0
 15 17  1  0  0  0  0
 16 14  1  0  0  0  0
 16 12  1  6  0  0  0
 17 14  1  0  0  0  0
 19 24  1  0  0  0  0
 21 18  1  1  0  0  0
 21 23  1  0  0  0  0
 21 22  1  0  0  0  0
 22 20  2  0  0  0  0
 22 24  1  0  0  0  0
 23 26  1  6  0  0  0
 23 19  1  0  0  0  0
 25 26  1  0  0  0  0
 27  1  1  0  0  0  0
 28 27  1  0  0  0  0
 29 30  1  1  0  0  0
 29 28  1  0  0  0  0
 31 29  1  0  0  0  0
 32 41  1  0  0  0  0
 32 31  1  0  0  0  0
 33 37  1  6  0  0  0
 34 43  1  0  0  0  0
 35 36  1  0  0  0  0
 36 33  1  0  0  0  0
 36 42  1  0  0  0  0
 38 34  2  0  0  0  0
 38 35  1  0  0  0  0
 39 42  1  0  0  0  0
 40 33  1  0  0  0  0
 41 40  2  0  0  0  0
 43 39  1  0  0  0  0
 44 35  2  0  0  0  0
 44 41  1  0  0  0  0
 45 48  1  6  0  0  0
 46 45  1  0  0  0  0
 47 43  1  1  0  0  0
 47 46  1  0  0  0  0
 47 45  1  0  0  0  0
 48 50  1  0  0  0  0
 50 49  1  0  0  0  0
M  END
>  <MODEL>
9

>  <REMARK>
 VINA RESULT:      -7.2      1.933      2.794
  Name = 
  16 active torsions:
  status: ('A' for Active; 'I' for Inactive)
    1  A    between atoms: C_2  and  C_43
    2  A    between atoms: C_8  and  O_44
    3  A    between atoms: N_13  and  C_32
    4  A    between atoms: N_13  and  C_38
    5  A    between atoms: N_20  and  C_39
    6  A    between atoms: C_25  and  C_35
    7  A    between atoms: C_25  and  C_38
    8  A    between atoms: C_27  and  C_43
    9  A    between atoms: C_28  and  N_42
   10  A    between atoms: C_29  and  N_46
   11  A    between atoms: C_31  and  C_50
   12  A    between atoms: C_32  and  N_48
   13  A    between atoms: C_35  and  C_50
   14  A    between atoms: N_40  and  C_41
   15  A    between atoms: C_43  and  N_46
   16  A    between atoms: O_44  and  O_49
                            x       y       z     vdW  Elec       q    Type
                         _______ _______ _______ _____ _____    ______ ____

>  <TORSDO>
F 16

$$$$
