=
 OpenBabel10232408193D

 32 36  0  0  1  0  0  0  0  0999 V2000
  194.0350  173.4300  136.9750 C   0  0  0  0  0  2  0  0  0  0  0  0
  189.6900  176.7170  138.1570 C   0  0  1  0  0  3  0  0  0  0  0  0
  192.9420  175.5470  137.2640 C   0  0  0  0  0  0  0  0  0  0  0  0
  187.5650  172.6640  137.8160 O   0  0  0  0  0  0  0  0  0  0  0  0
  186.8470  177.6050  135.8140 C   0  0  1  0  0  3  0  0  0  0  0  0
  189.1910  173.2780  136.2210 C   0  0  0  0  0  0  0  0  0  0  0  0
  191.1870  177.0480  139.9630 C   0  0  0  0  0  2  0  0  0  0  0  0
  194.6860  176.8270  136.2220 O   0  0  0  0  0  0  0  0  0  0  0  0
  192.7000  174.0760  137.4180 C   0  0  1  0  0  3  0  0  0  0  0  0
  191.7400  173.4770  135.1430 C   0  0  0  0  0  3  0  0  0  0  0  0
  188.9220  177.2560  139.2090 O   0  0  0  0  0  0  0  0  0  0  0  0
  192.2300  176.5380  137.8020 C   0  0  0  0  0  3  0  0  0  0  0  0
  187.4750  178.7510  136.5680 C   0  0  0  0  0  3  0  0  0  0  0  0
  186.6300  178.0200  134.3640 C   0  0  0  0  0  1  0  0  0  0  0  0
  189.7050  177.6250  136.9040 C   0  0  2  0  0  3  0  0  0  0  0  0
  187.6690  176.3190  135.9230 C   0  0  2  0  0  3  0  0  0  0  0  0
  194.8290  174.4800  136.3410 N   0  0  0  0  0  2  0  0  0  0  0  0
  194.1870  175.7190  136.5610 C   0  0  0  0  0  0  0  0  0  0  0  0
  188.7510  178.7980  136.9950 C   0  0  0  0  0  0  0  0  0  0  0  0
  189.7670  177.4110  140.3270 C   0  0  1  0  0  3  0  0  0  0  0  0
  189.3950  176.6120  135.4170 S   0  0  0  0  0  0  0  0  0  0  0  0
  190.2780  173.5420  137.0560 C   0  0  0  0  0  3  0  0  0  0  0  0
  189.4160  173.1040  134.8500 C   0  0  0  0  0  3  0  0  0  0  0  0
  186.7870  174.0550  136.1260 N   0  0  0  0  0  2  0  0  0  0  0  0
  191.5670  173.6450  136.5260 C   0  0  0  0  0  0  0  0  0  0  0  0
  187.8230  173.2930  136.7570 C   0  0  0  0  0  0  0  0  0  0  0  0
  187.0460  175.1410  135.1850 C   0  0  0  0  0  2  0  0  0  0  0  0
  190.6750  173.1970  134.3460 N   0  0  0  0  0  0  0  0  0  0  0  0
  189.1780  179.9220  137.6240 F   0  0  0  0  0  0  0  0  0  0  0  0
  191.0490  176.2860  138.6890 C   0  0  2  0  0  3  0  0  0  0  0  0
  190.3790  176.0020  142.1490 O   0  0  0  0  0  1  0  0  0  0  0  0
  189.2840  176.5260  141.4620 C   0  0  0  0  0  2  0  0  0  0  0  0
  2 30  1  0  0  0  0
  2 11  1  1  0  0  0
  3  9  1  0  0  0  0
  3 12  2  0  0  0  0
  5 14  1  6  0  0  0
  5 16  1  0  0  0  0
  5 13  1  0  0  0  0
  6 26  1  0  0  0  0
  6 22  1  0  0  0  0
  7 20  1  0  0  0  0
  8 18  2  0  0  0  0
  9  1  1  6  0  0  0
 10 25  1  0  0  0  0
 11 20  1  0  0  0  0
 13 19  2  0  0  0  0
 15 21  1  6  0  0  0
 15 19  1  0  0  0  0
 15  2  1  0  0  0  0
 16 27  1  6  0  0  0
 17 18  1  0  0  0  0
 17  1  1  0  0  0  0
 18  3  1  0  0  0  0
 19 29  1  0  0  0  0
 20 32  1  1  0  0  0
 21 16  1  0  0  0  0
 23  6  2  0  0  0  0
 24 26  1  0  0  0  0
 25 22  2  0  0  0  0
 25  9  1  0  0  0  0
 26  4  2  0  0  0  0
 27 24  1  0  0  0  0
 28 23  1  0  0  0  0
 28 10  2  0  0  0  0
 30 12  1  6  0  0  0
 30  7  1  0  0  0  0
 32 31  1  0  0  0  0
M  END
>  <MODEL>
1

>  <REMARK>
 VINA RESULT:      -7.4      0.000      0.000
  Name = 
  1 active torsions:
  status: ('A' for Active; 'I' for Inactive)
    1  A    between atoms: C_21  and  C_25
                            x       y       z     vdW  Elec       q    Type
                         _______ _______ _______ _____ _____    ______ ____

>  <TORSDO>
F 1

$$$$
=
 OpenBabel10232408193D

 32 36  0  0  1  0  0  0  0  0999 V2000
  182.1500  172.3870  135.2750 C   0  0  0  0  0  2  0  0  0  0  0  0
  182.0070  177.7240  136.8800 C   0  0  1  0  0  3  0  0  0  0  0  0
  181.3160  174.2370  136.5570 C   0  0  0  0  0  0  0  0  0  0  0  0
  185.9390  177.7000  134.5140 O   0  0  0  0  0  0  0  0  0  0  0  0
  184.3370  179.3820  139.3660 C   0  0  1  0  0  3  0  0  0  0  0  0
  185.4520  175.9390  136.0070 C   0  0  0  0  0  0  0  0  0  0  0  0
  179.9820  177.4120  135.6900 C   0  0  0  0  0  2  0  0  0  0  0  0
  180.0570  172.8810  138.0870 O   0  0  0  0  0  0  0  0  0  0  0  0
  182.2900  173.9170  135.4630 C   0  0  1  0  0  3  0  0  0  0  0  0
  184.4160  173.4860  136.7860 C   0  0  0  0  0  3  0  0  0  0  0  0
  181.5640  179.0130  136.5160 O   0  0  0  0  0  0  0  0  0  0  0  0
  180.8300  175.4380  136.8720 C   0  0  0  0  0  3  0  0  0  0  0  0
  182.8630  179.6490  139.5510 C   0  0  0  0  0  3  0  0  0  0  0  0
  184.9670  179.1010  140.7250 C   0  0  0  0  0  1  0  0  0  0  0  0
  182.0930  177.5350  138.4130 C   0  0  2  0  0  3  0  0  0  0  0  0
  184.6020  178.2520  138.3700 C   0  0  2  0  0  3  0  0  0  0  0  0
  181.3700  171.8860  136.4040 N   0  0  0  0  0  2  0  0  0  0  0  0
  180.8570  172.9930  137.1180 C   0  0  0  0  0  0  0  0  0  0  0  0
  181.8690  178.8130  139.1950 C   0  0  0  0  0  0  0  0  0  0  0  0
  180.3890  178.8660  135.7500 C   0  0  1  0  0  3  0  0  0  0  0  0
  183.6840  176.7490  138.8400 S   0  0  0  0  0  0  0  0  0  0  0  0
  184.2180  175.5180  135.5090 C   0  0  0  0  0  3  0  0  0  0  0  0
  186.1510  175.1010  136.8840 C   0  0  0  0  0  3  0  0  0  0  0  0
  186.4140  178.1590  136.7410 N   0  0  0  0  0  2  0  0  0  0  0  0
  183.6850  174.2850  135.8930 C   0  0  0  0  0  0  0  0  0  0  0  0
  185.9550  177.2860  135.7020 C   0  0  0  0  0  0  0  0  0  0  0  0
  186.0840  177.9750  138.1510 C   0  0  0  0  0  2  0  0  0  0  0  0
  185.6280  173.8990  137.2440 N   0  0  0  0  0  0  0  0  0  0  0  0
  180.5910  179.1810  139.4680 F   0  0  0  0  0  0  0  0  0  0  0  0
  181.2050  176.6780  136.1190 C   0  0  2  0  0  3  0  0  0  0  0  0
  181.0210  180.7290  134.4060 O   0  0  0  0  0  1  0  0  0  0  0  0
  180.6220  179.3940  134.3460 C   0  0  0  0  0  2  0  0  0  0  0  0
  1 17  1  0  0  0  0
  2 11  1  1  0  0  0
  2 15  1  0  0  0  0
  3 12  2  0  0  0  0
  3 18  1  0  0  0  0
  4 26  2  0  0  0  0
  5 13  1  0  0  0  0
  5 14  1  1  0  0  0
  6 23  1  0  0  0  0
  7 20  1  0  0  0  0
  9  1  1  1  0  0  0
  9 25  1  0  0  0  0
  9  3  1  0  0  0  0
 10 28  1  0  0  0  0
 15 21  1  6  0  0  0
 15 19  1  0  0  0  0
 16 27  1  1  0  0  0
 16 21  1  0  0  0  0
 16  5  1  0  0  0  0
 17 18  1  0  0  0  0
 18  8  2  0  0  0  0
 19 29  1  0  0  0  0
 19 13  2  0  0  0  0
 20 32  1  6  0  0  0
 20 11  1  0  0  0  0
 22 25  1  0  0  0  0
 22  6  2  0  0  0  0
 23 28  2  0  0  0  0
 24 27  1  0  0  0  0
 25 10  2  0  0  0  0
 26  6  1  0  0  0  0
 26 24  1  0  0  0  0
 30  7  1  1  0  0  0
 30 12  1  0  0  0  0
 30  2  1  0  0  0  0
 32 31  1  0  0  0  0
M  END
>  <MODEL>
2

>  <REMARK>
 VINA RESULT:      -4.7      5.634      9.021
  Name = 
  1 active torsions:
  status: ('A' for Active; 'I' for Inactive)
    1  A    between atoms: C_21  and  C_25
                            x       y       z     vdW  Elec       q    Type
                         _______ _______ _______ _____ _____    ______ ____

>  <TORSDO>
F 1

$$$$
