=
 OpenBabel10232409173D

 49 54  0  0  1  0  0  0  0  0999 V2000
  183.1780  178.4280  142.1380 C   0  0  0  0  0  3  0  0  0  0  0  0
  186.5960  177.2250  145.4950 C   0  0  0  0  0  0  0  0  0  0  0  0
  186.4460  176.2920  144.6620 O   0  0  0  0  0  0  0  0  0  0  0  0
  189.2770  177.4040  143.9840 N   0  0  0  0  0  0  0  0  0  0  0  0
  187.9010  177.6200  145.9260 N   0  0  0  0  0  2  0  0  0  0  0  0
  185.1530  179.2150  145.2950 C   0  0  0  0  0  2  0  0  0  0  0  0
  189.1290  177.2740  145.2700 C   0  0  0  0  0  0  0  0  0  0  0  0
  184.0330  178.8790  139.8850 C   0  0  0  0  0  3  0  0  0  0  0  0
  186.1260  178.6520  141.2240 C   0  0  0  0  0  0  0  0  0  0  0  0
  187.5220  178.4420  140.9430 N   0  0  0  0  0  0  0  0  0  0  0  0
  188.4820  178.0800  141.7480 C   0  0  0  0  0  0  0  0  0  0  0  0
  185.4020  177.9180  146.0500 C   0  0  0  0  0  2  0  0  0  0  0  0
  185.6310  178.4750  142.4640 C   0  0  0  0  0  3  0  0  0  0  0  0
  183.2770  177.9210  140.7380 C   0  0  2  0  0  3  0  0  0  0  0  0
  188.2570  177.8740  143.1450 N   0  0  0  0  0  2  0  0  0  0  0  0
  184.0080  179.0640  144.3450 C   0  0  0  0  0  0  0  0  0  0  0  0
  184.2340  178.6630  142.9310 C   0  0  0  0  0  0  0  0  0  0  0  0
  185.3150  179.1670  140.1020 C   0  0  0  0  0  3  0  0  0  0  0  0
  182.7830  179.2960  144.8140 C   0  0  0  0  0  2  0  0  0  0  0  0
  192.4410  176.1160  147.6280 C   0  0  0  0  0  3  0  0  0  0  0  0
  192.3480  175.7330  146.2920 C   0  0  0  0  0  3  0  0  0  0  0  0
  191.4150  176.8930  148.1660 C   0  0  0  0  0  3  0  0  0  0  0  0
  190.3610  177.2560  147.3910 N   0  0  0  0  0  0  0  0  0  0  0  0
  191.2780  176.1140  145.5480 N   0  0  0  0  0  0  0  0  0  0  0  0
  190.2840  176.8730  146.0870 C   0  0  0  0  0  0  0  0  0  0  0  0
  189.8600  177.9240  141.1890 C   0  0  0  0  0  2  0  0  0  0  0  0
  192.2660  175.6850  137.3870 C   0  0  0  0  0  0  0  0  0  0  0  0
  193.3950  176.0770  137.9280 C   0  0  0  0  0  0  0  0  0  0  0  0
  192.5250  174.9290  136.1330 C   0  0  0  0  0  2  0  0  0  0  0  0
  191.0270  176.7650  139.2330 N   0  0  0  0  0  0  0  0  0  0  0  0
  189.8170  177.1670  139.8980 C   0  0  0  0  0  0  0  0  0  0  0  0
  194.4860  175.6910  137.1800 O   0  0  0  0  0  0  0  0  0  0  0  0
  194.0580  174.9850  136.0190 C   0  0  1  0  0  3  0  0  0  0  0  0
  188.6940  176.8670  139.4100 O   0  0  0  0  0  0  0  0  0  0  0  0
  190.9240  175.9570  138.0020 C   0  0  0  0  0  2  0  0  0  0  0  0
  193.4490  176.8320  139.1780 C   0  0  0  0  0  3  0  0  0  0  0  0
  192.3040  177.1520  139.7860 C   0  0  0  0  0  3  0  0  0  0  0  0
  194.5390  172.9130  137.0310 O   0  0  0  0  0  0  0  0  0  0  0  0
  194.6190  173.6020  136.0270 C   0  0  0  0  0  3  0  0  0  0  0  0
  181.8860  177.7170  140.1630 C   0  0  0  0  0  2  0  0  0  0  0  0
  181.8700  177.9980  138.6660 C   0  0  2  0  0  3  0  0  0  0  0  0
  180.7950  179.2950  136.8460 C   0  0  0  0  0  2  0  0  0  0  0  0
  180.8050  179.0340  138.3400 C   0  0  0  0  0  3  0  0  0  0  0  0
  181.4570  180.2840  137.7780 C   0  0  0  0  0  2  0  0  0  0  0  0
  181.5600  176.7020  137.9210 C   0  0  0  0  0  2  0  0  0  0  0  0
  183.4480  175.0380  138.0130 C   0  0  0  0  0  1  0  0  0  0  0  0
  182.2950  175.5080  135.8890 C   0  0  0  0  0  1  0  0  0  0  0  0
  183.7760  177.2140  136.8670 C   0  0  0  0  0  1  0  0  0  0  0  0
  182.7720  176.1210  137.1890 C   0  0  0  0  0  0  0  0  0  0  0  0
  1 17  2  0  0  0  0
  2  5  1  0  0  0  0
  2 12  1  0  0  0  0
  3  2  2  0  0  0  0
  4  7  2  0  0  0  0
  6 12  1  0  0  0  0
  7  5  1  0  0  0  0
  7 25  1  0  0  0  0
  8 18  2  0  0  0  0
  8 14  1  0  0  0  0
  9 13  2  0  0  0  0
 10  9  1  0  0  0  0
 10 11  2  0  0  0  0
 11 15  1  0  0  0  0
 13 17  1  0  0  0  0
 14 40  1  6  0  0  0
 14  1  1  0  0  0  0
 15  4  1  0  0  0  0
 16 19  2  0  0  0  0
 16  6  1  0  0  0  0
 17 16  1  0  0  0  0
 18  9  1  0  0  0  0
 20 22  2  0  0  0  0
 21 20  1  0  0  0  0
 23 22  1  0  0  0  0
 24 25  1  0  0  0  0
 24 21  2  0  0  0  0
 25 23  2  0  0  0  0
 26 11  1  0  0  0  0
 27 28  2  0  0  0  0
 27 35  1  0  0  0  0
 28 36  1  0  0  0  0
 29 27  1  0  0  0  0
 30 37  1  0  0  0  0
 30 31  1  0  0  0  0
 31 26  1  0  0  0  0
 32 28  1  0  0  0  0
 33 39  1  1  0  0  0
 33 29  1  0  0  0  0
 33 32  1  0  0  0  0
 34 31  2  0  0  0  0
 35 30  1  0  0  0  0
 36 37  2  0  0  0  0
 39 38  2  0  0  0  0
 41 45  1  6  0  0  0
 41 40  1  0  0  0  0
 42 44  1  0  0  0  0
 42 43  1  0  0  0  0
 43 41  1  0  0  0  0
 44 43  1  0  0  0  0
 47 49  1  0  0  0  0
 48 49  1  0  0  0  0
 49 45  1  0  0  0  0
 49 46  1  0  0  0  0
M  END
>  <MODEL>
1

>  <REMARK>
 VINA RESULT:      -8.7      0.000      0.000
  Name = 
  9 active torsions:
  status: ('A' for Active; 'I' for Inactive)
    1  A    between atoms: C_12  and  C_16
    2  A    between atoms: C_15  and  C_49
    3  A    between atoms: C_16  and  C_26
    4  A    between atoms: C_16  and  C_35
    5  A    between atoms: C_20  and  C_22
    6  A    between atoms: C_20  and  C_31
    7  A    between atoms: C_25  and  C_30
    8  A    between atoms: C_26  and  C_39
    9  A    between atoms: C_35  and  C_42
                            x       y       z     vdW  Elec       q    Type
                         _______ _______ _______ _____ _____    ______ ____

>  <TORSDO>
F 9

$$$$
=
 OpenBabel10232409173D

 49 54  0  0  1  0  0  0  0  0999 V2000
  193.1650  173.2330  136.5950 C   0  0  0  0  0  3  0  0  0  0  0  0
  188.2520  173.4090  136.1300 C   0  0  0  0  0  0  0  0  0  0  0  0
  188.5800  173.4020  137.3460 O   0  0  0  0  0  0  0  0  0  0  0  0
  187.4910  176.2900  136.9210 N   0  0  0  0  0  0  0  0  0  0  0  0
  187.2220  174.2810  135.6540 N   0  0  0  0  0  2  0  0  0  0  0  0
  190.0320  173.2310  134.4340 C   0  0  0  0  0  2  0  0  0  0  0  0
  186.7050  175.4150  136.3650 C   0  0  0  0  0  0  0  0  0  0  0  0
  194.2170  175.2900  137.4160 C   0  0  0  0  0  3  0  0  0  0  0  0
  191.8490  175.9950  137.0590 C   0  0  0  0  0  0  0  0  0  0  0  0
  191.0190  177.0960  137.4730 N   0  0  0  0  0  0  0  0  0  0  0  0
  189.7220  177.2130  137.4330 C   0  0  0  0  0  0  0  0  0  0  0  0
  188.9290  172.4910  135.1750 C   0  0  0  0  0  2  0  0  0  0  0  0
  191.3110  174.8720  136.5460 C   0  0  0  0  0  3  0  0  0  0  0  0
  193.8430  173.8890  137.7520 C   0  0  2  0  0  3  0  0  0  0  0  0
  188.8890  176.1900  136.8810 N   0  0  0  0  0  2  0  0  0  0  0  0
  191.3760  172.8590  134.9760 C   0  0  0  0  0  0  0  0  0  0  0  0
  192.0130  173.6580  136.0570 C   0  0  0  0  0  0  0  0  0  0  0  0
  193.3070  176.2230  137.1400 C   0  0  0  0  0  3  0  0  0  0  0  0
  191.9750  171.7880  134.4590 C   0  0  0  0  0  2  0  0  0  0  0  0
  182.5310  176.0880  136.3700 C   0  0  0  0  0  3  0  0  0  0  0  0
  183.4050  177.0200  136.9270 C   0  0  0  0  0  3  0  0  0  0  0  0
  183.0690  174.9300  135.8100 C   0  0  0  0  0  3  0  0  0  0  0  0
  184.4130  174.7340  135.8170 N   0  0  0  0  0  0  0  0  0  0  0  0
  184.7430  176.7890  136.9160 N   0  0  0  0  0  0  0  0  0  0  0  0
  185.2530  175.6540  136.3650 C   0  0  0  0  0  0  0  0  0  0  0  0
  189.1040  178.4760  137.9400 C   0  0  0  0  0  2  0  0  0  0  0  0
  189.1340  177.2250  142.8080 C   0  0  0  0  0  0  0  0  0  0  0  0
  190.4310  177.0580  142.7120 C   0  0  0  0  0  0  0  0  0  0  0  0
  188.6720  176.9300  144.1910 C   0  0  0  0  0  2  0  0  0  0  0  0
  189.0560  177.8520  140.4180 N   0  0  0  0  0  0  0  0  0  0  0  0
  188.3610  178.2190  139.2150 C   0  0  0  0  0  0  0  0  0  0  0  0
  190.9880  176.6480  143.9050 O   0  0  0  0  0  0  0  0  0  0  0  0
  189.9740  176.5130  144.8960 C   0  0  1  0  0  3  0  0  0  0  0  0
  187.1070  178.3510  139.2210 O   0  0  0  0  0  0  0  0  0  0  0  0
  188.2790  177.6830  141.6620 C   0  0  0  0  0  2  0  0  0  0  0  0
  191.1660  177.2880  141.4700 C   0  0  0  0  0  3  0  0  0  0  0  0
  190.4880  177.6660  140.3830 C   0  0  0  0  0  3  0  0  0  0  0  0
  189.3350  178.0380  146.5740 O   0  0  0  0  0  0  0  0  0  0  0  0
  190.2500  177.4330  146.0380 C   0  0  0  0  0  3  0  0  0  0  0  0
  195.0890  173.1080  138.1320 C   0  0  0  0  0  2  0  0  0  0  0  0
  195.7170  172.4560  136.9070 C   0  0  2  0  0  3  0  0  0  0  0  0
  196.5820  170.3380  135.9510 C   0  0  0  0  0  2  0  0  0  0  0  0
  195.8130  170.9520  137.1060 C   0  0  0  0  0  3  0  0  0  0  0  0
  195.0750  170.2360  135.9900 C   0  0  0  0  0  2  0  0  0  0  0  0
  197.1180  173.0300  136.7040 C   0  0  0  0  0  2  0  0  0  0  0  0
  196.0030  173.7540  134.5640 C   0  0  0  0  0  1  0  0  0  0  0  0
  197.4320  175.3150  135.8230 C   0  0  0  0  0  1  0  0  0  0  0  0
  198.4620  173.4260  134.6260 C   0  0  0  0  0  1  0  0  0  0  0  0
  197.2490  173.8640  135.4270 C   0  0  0  0  0  0  0  0  0  0  0  0
  1 14  1  0  0  0  0
  2  3  2  0  0  0  0
  5  2  1  0  0  0  0
  5  7  1  0  0  0  0
  6 16  1  0  0  0  0
  6 12  1  0  0  0  0
  7 25  1  0  0  0  0
  7  4  2  0  0  0  0
  8 14  1  0  0  0  0
  9 18  1  0  0  0  0
  9 10  1  0  0  0  0
 11 10  2  0  0  0  0
 11 26  1  0  0  0  0
 12  2  1  0  0  0  0
 13  9  2  0  0  0  0
 14 40  1  6  0  0  0
 15  4  1  0  0  0  0
 15 11  1  0  0  0  0
 16 17  1  0  0  0  0
 17 13  1  0  0  0  0
 17  1  2  0  0  0  0
 18  8  2  0  0  0  0
 19 16  2  0  0  0  0
 20 21  1  0  0  0  0
 22 23  1  0  0  0  0
 22 20  2  0  0  0  0
 23 25  2  0  0  0  0
 24 21  2  0  0  0  0
 25 24  1  0  0  0  0
 26 31  1  0  0  0  0
 27 29  1  0  0  0  0
 28 27  2  0  0  0  0
 28 32  1  0  0  0  0
 29 33  1  0  0  0  0
 30 35  1  0  0  0  0
 31 34  2  0  0  0  0
 31 30  1  0  0  0  0
 32 33  1  0  0  0  0
 33 39  1  1  0  0  0
 35 27  1  0  0  0  0
 36 28  1  0  0  0  0
 37 30  1  0  0  0  0
 37 36  2  0  0  0  0
 39 38  2  0  0  0  0
 41 45  1  1  0  0  0
 41 43  1  0  0  0  0
 41 40  1  0  0  0  0
 42 44  1  0  0  0  0
 42 43  1  0  0  0  0
 44 43  1  0  0  0  0
 46 49  1  0  0  0  0
 48 49  1  0  0  0  0
 49 47  1  0  0  0  0
 49 45  1  0  0  0  0
M  END
>  <MODEL>
2

>  <REMARK>
 VINA RESULT:      -7.5      3.378     11.244
  Name = 
  9 active torsions:
  status: ('A' for Active; 'I' for Inactive)
    1  A    between atoms: C_12  and  C_16
    2  A    between atoms: C_15  and  C_49
    3  A    between atoms: C_16  and  C_26
    4  A    between atoms: C_16  and  C_35
    5  A    between atoms: C_20  and  C_22
    6  A    between atoms: C_20  and  C_31
    7  A    between atoms: C_25  and  C_30
    8  A    between atoms: C_26  and  C_39
    9  A    between atoms: C_35  and  C_42
                            x       y       z     vdW  Elec       q    Type
                         _______ _______ _______ _____ _____    ______ ____

>  <TORSDO>
F 9

$$$$
=
 OpenBabel10232409173D

 49 54  0  0  1  0  0  0  0  0999 V2000
  190.3990  175.7820  136.7440 C   0  0  0  0  0  3  0  0  0  0  0  0
  185.7070  177.2910  137.0590 C   0  0  0  0  0  0  0  0  0  0  0  0
  185.9140  176.3280  137.8430 O   0  0  0  0  0  0  0  0  0  0  0  0
  185.5290  178.7440  139.7720 N   0  0  0  0  0  0  0  0  0  0  0  0
  184.9410  178.4250  137.4770 N   0  0  0  0  0  2  0  0  0  0  0  0
  187.5510  178.0330  135.5990 C   0  0  0  0  0  2  0  0  0  0  0  0
  184.6240  178.7520  138.8380 C   0  0  0  0  0  0  0  0  0  0  0  0
  191.7980  176.2910  138.6930 C   0  0  0  0  0  3  0  0  0  0  0  0
  189.6850  177.5160  139.2070 C   0  0  0  0  0  0  0  0  0  0  0  0
  189.0830  178.1050  140.3740 N   0  0  0  0  0  0  0  0  0  0  0  0
  187.8530  178.4890  140.5650 C   0  0  0  0  0  0  0  0  0  0  0  0
  186.2500  177.2480  135.6740 C   0  0  0  0  0  2  0  0  0  0  0  0
  188.9630  177.2790  138.0950 C   0  0  0  0  0  3  0  0  0  0  0  0
  191.0970  175.2170  137.9370 C   0  0  2  0  0  3  0  0  0  0  0  0
  186.8690  178.4080  139.5300 N   0  0  0  0  0  2  0  0  0  0  0  0
  188.7260  177.1070  135.5580 C   0  0  0  0  0  0  0  0  0  0  0  0
  189.4220  176.6990  136.8070 C   0  0  0  0  0  0  0  0  0  0  0  0
  191.1440  177.2920  139.2790 C   0  0  0  0  0  3  0  0  0  0  0  0
  189.1190  176.6620  134.3660 C   0  0  0  0  0  2  0  0  0  0  0  0
  180.7260  180.0930  139.7750 C   0  0  0  0  0  3  0  0  0  0  0  0
  181.3700  180.5260  138.6180 C   0  0  0  0  0  3  0  0  0  0  0  0
  181.3990  179.2060  140.6140 C   0  0  0  0  0  3  0  0  0  0  0  0
  182.6500  178.7860  140.2940 N   0  0  0  0  0  0  0  0  0  0  0  0
  182.6220  180.0840  138.3310 N   0  0  0  0  0  0  0  0  0  0  0  0
  183.2660  179.2170  139.1600 C   0  0  0  0  0  0  0  0  0  0  0  0
  187.4840  179.0700  141.8920 C   0  0  0  0  0  2  0  0  0  0  0  0
  190.1310  176.7660  145.4910 C   0  0  0  0  0  0  0  0  0  0  0  0
  191.1510  177.5230  145.1640 C   0  0  0  0  0  0  0  0  0  0  0  0
  190.4980  175.8480  146.6010 C   0  0  0  0  0  2  0  0  0  0  0  0
  188.7770  177.8650  143.7380 N   0  0  0  0  0  0  0  0  0  0  0  0
  187.5780  178.0270  142.9620 C   0  0  0  0  0  0  0  0  0  0  0  0
  192.2640  177.2450  145.9270 O   0  0  0  0  0  0  0  0  0  0  0  0
  191.9770  176.1940  146.8460 C   0  0  1  0  0  3  0  0  0  0  0  0
  186.5720  177.3010  143.1880 O   0  0  0  0  0  0  0  0  0  0  0  0
  188.7870  176.8710  144.8290 C   0  0  0  0  0  2  0  0  0  0  0  0
  191.0780  178.5320  144.1100 C   0  0  0  0  0  3  0  0  0  0  0  0
  189.9330  178.6780  143.4380 C   0  0  0  0  0  3  0  0  0  0  0  0
  193.1070  176.2840  148.9110 O   0  0  0  0  0  0  0  0  0  0  0  0
  192.1610  176.6760  148.2460 C   0  0  0  0  0  3  0  0  0  0  0  0
  192.1010  174.1660  137.4980 C   0  0  0  0  0  2  0  0  0  0  0  0
  193.4030  174.8130  137.0430 C   0  0  2  0  0  3  0  0  0  0  0  0
  193.9890  175.3640  134.6970 C   0  0  0  0  0  2  0  0  0  0  0  0
  193.1380  175.7660  135.8870 C   0  0  0  0  0  3  0  0  0  0  0  0
  194.4010  176.5380  135.5550 C   0  0  0  0  0  2  0  0  0  0  0  0
  194.3680  173.7210  136.5880 C   0  0  0  0  0  2  0  0  0  0  0  0
  195.4120  172.0030  138.1050 C   0  0  0  0  0  1  0  0  0  0  0  0
  196.8130  173.6420  136.9170 C   0  0  0  0  0  1  0  0  0  0  0  0
  195.3870  174.3910  138.7780 C   0  0  0  0  0  1  0  0  0  0  0  0
  195.4790  173.4350  137.6020 C   0  0  0  0  0  0  0  0  0  0  0  0
  1 17  2  0  0  0  0
  1 14  1  0  0  0  0
  2  5  1  0  0  0  0
  2  3  2  0  0  0  0
  5  7  1  0  0  0  0
  6 12  1  0  0  0  0
  7 25  1  0  0  0  0
  7  4  2  0  0  0  0
  8 18  2  0  0  0  0
  9 18  1  0  0  0  0
  9 10  1  0  0  0  0
 10 11  2  0  0  0  0
 11 26  1  0  0  0  0
 12  2  1  0  0  0  0
 13  9  2  0  0  0  0
 14 40  1  6  0  0  0
 14  8  1  0  0  0  0
 15  4  1  0  0  0  0
 15 11  1  0  0  0  0
 16  6  1  0  0  0  0
 16 17  1  0  0  0  0
 17 13  1  0  0  0  0
 19 16  2  0  0  0  0
 20 22  2  0  0  0  0
 21 20  1  0  0  0  0
 23 22  1  0  0  0  0
 24 21  2  0  0  0  0
 24 25  1  0  0  0  0
 25 23  2  0  0  0  0
 26 31  1  0  0  0  0
 27 29  1  0  0  0  0
 28 27  2  0  0  0  0
 28 32  1  0  0  0  0
 29 33  1  0  0  0  0
 30 35  1  0  0  0  0
 31 34  2  0  0  0  0
 31 30  1  0  0  0  0
 32 33  1  0  0  0  0
 33 39  1  1  0  0  0
 35 27  1  0  0  0  0
 36 28  1  0  0  0  0
 37 30  1  0  0  0  0
 37 36  2  0  0  0  0
 39 38  2  0  0  0  0
 41 45  1  6  0  0  0
 41 40  1  0  0  0  0
 42 44  1  0  0  0  0
 42 43  1  0  0  0  0
 43 41  1  0  0  0  0
 44 43  1  0  0  0  0
 45 49  1  0  0  0  0
 47 49  1  0  0  0  0
 49 46  1  0  0  0  0
 49 48  1  0  0  0  0
M  END
>  <MODEL>
3

>  <REMARK>
 VINA RESULT:      -7.3      2.885      9.831
  Name = 
  9 active torsions:
  status: ('A' for Active; 'I' for Inactive)
    1  A    between atoms: C_12  and  C_16
    2  A    between atoms: C_15  and  C_49
    3  A    between atoms: C_16  and  C_26
    4  A    between atoms: C_16  and  C_35
    5  A    between atoms: C_20  and  C_22
    6  A    between atoms: C_20  and  C_31
    7  A    between atoms: C_25  and  C_30
    8  A    between atoms: C_26  and  C_39
    9  A    between atoms: C_35  and  C_42
                            x       y       z     vdW  Elec       q    Type
                         _______ _______ _______ _____ _____    ______ ____

>  <TORSDO>
F 9

$$$$
=
 OpenBabel10232409173D

 49 54  0  0  1  0  0  0  0  0999 V2000
  188.6240  177.7610  144.6000 C   0  0  0  0  0  3  0  0  0  0  0  0
  184.6400  179.4630  142.2290 C   0  0  0  0  0  0  0  0  0  0  0  0
  185.6080  180.2570  142.0920 O   0  0  0  0  0  0  0  0  0  0  0  0
  185.2690  179.0510  139.2390 N   0  0  0  0  0  0  0  0  0  0  0  0
  183.7970  179.1380  141.1200 N   0  0  0  0  0  2  0  0  0  0  0  0
  184.9520  177.4680  143.6440 C   0  0  0  0  0  2  0  0  0  0  0  0
  184.1150  179.3770  139.7410 C   0  0  0  0  0  0  0  0  0  0  0  0
  190.4430  176.9670  143.1600 C   0  0  0  0  0  3  0  0  0  0  0  0
  188.6060  177.3950  141.5270 C   0  0  0  0  0  0  0  0  0  0  0  0
  188.5000  177.5580  140.1010 N   0  0  0  0  0  0  0  0  0  0  0  0
  187.5150  178.0390  139.3940 C   0  0  0  0  0  0  0  0  0  0  0  0
  184.3570  178.8650  143.5620 C   0  0  0  0  0  2  0  0  0  0  0  0
  187.6010  177.7620  142.3460 C   0  0  0  0  0  3  0  0  0  0  0  0
  189.9950  178.0460  144.0830 C   0  0  2  0  0  3  0  0  0  0  0  0
  186.2890  178.4580  139.9980 N   0  0  0  0  0  2  0  0  0  0  0  0
  186.2030  177.4720  144.4630 C   0  0  0  0  0  0  0  0  0  0  0  0
  187.5350  177.6500  143.8260 C   0  0  0  0  0  0  0  0  0  0  0  0
  189.8260  176.7150  142.0080 C   0  0  0  0  0  3  0  0  0  0  0  0
  186.0790  177.3170  145.7800 C   0  0  0  0  0  2  0  0  0  0  0  0
  181.0960  180.8650  137.1830 C   0  0  0  0  0  3  0  0  0  0  0  0
  181.7970  181.7200  138.0310 C   0  0  0  0  0  3  0  0  0  0  0  0
  181.4180  179.5090  137.1980 C   0  0  0  0  0  3  0  0  0  0  0  0
  182.3920  179.0510  138.0260 N   0  0  0  0  0  0  0  0  0  0  0  0
  182.7650  181.2250  138.8460 N   0  0  0  0  0  0  0  0  0  0  0  0
  183.0670  179.8980  138.8500 C   0  0  0  0  0  0  0  0  0  0  0  0
  187.6690  178.1040  137.9090 C   0  0  0  0  0  2  0  0  0  0  0  0
  190.2660  174.2790  135.9390 C   0  0  0  0  0  0  0  0  0  0  0  0
  191.3430  175.0220  136.0270 C   0  0  0  0  0  0  0  0  0  0  0  0
  190.5960  172.9520  135.3540 C   0  0  0  0  0  2  0  0  0  0  0  0
  188.9360  176.1230  136.9070 N   0  0  0  0  0  0  0  0  0  0  0  0
  187.6990  176.7250  137.3260 C   0  0  0  0  0  0  0  0  0  0  0  0
  192.4590  174.3720  135.5440 O   0  0  0  0  0  0  0  0  0  0  0  0
  192.1040  173.0750  135.0740 C   0  0  1  0  0  3  0  0  0  0  0  0
  186.6170  176.0870  137.2270 O   0  0  0  0  0  0  0  0  0  0  0  0
  188.9150  174.7340  136.4080 C   0  0  0  0  0  2  0  0  0  0  0  0
  191.3240  176.3760  136.5770 C   0  0  0  0  0  3  0  0  0  0  0  0
  190.1610  176.8840  136.9910 C   0  0  0  0  0  3  0  0  0  0  0  0
  193.7440  172.3560  136.6030 O   0  0  0  0  0  0  0  0  0  0  0  0
  192.8490  172.0330  135.8390 C   0  0  0  0  0  3  0  0  0  0  0  0
  190.9700  178.1610  145.2420 C   0  0  0  0  0  2  0  0  0  0  0  0
  190.4140  177.4880  146.4900 C   0  0  2  0  0  3  0  0  0  0  0  0
  189.7100  178.4130  148.6810 C   0  0  0  0  0  2  0  0  0  0  0  0
  189.4310  178.4150  147.1900 C   0  0  0  0  0  3  0  0  0  0  0  0
  188.5500  177.6160  148.1310 C   0  0  0  0  0  2  0  0  0  0  0  0
  191.5690  177.1670  147.4370 C   0  0  0  0  0  2  0  0  0  0  0  0
  193.1030  175.4160  148.3960 C   0  0  0  0  0  1  0  0  0  0  0  0
  190.7660  174.8700  147.8500 C   0  0  0  0  0  1  0  0  0  0  0  0
  192.3760  175.2570  146.0290 C   0  0  0  0  0  1  0  0  0  0  0  0
  191.9660  175.6890  147.4260 C   0  0  0  0  0  0  0  0  0  0  0  0
  2 12  1  0  0  0  0
  3  2  2  0  0  0  0
  4  7  2  0  0  0  0
  4 15  1  0  0  0  0
  5  2  1  0  0  0  0
  6 16  1  0  0  0  0
  7  5  1  0  0  0  0
  8 14  1  0  0  0  0
  9 18  1  0  0  0  0
  9 13  2  0  0  0  0
 10  9  1  0  0  0  0
 11 15  1  0  0  0  0
 11 10  2  0  0  0  0
 12  6  1  0  0  0  0
 13 17  1  0  0  0  0
 14  1  1  0  0  0  0
 14 40  1  1  0  0  0
 16 19  2  0  0  0  0
 17 16  1  0  0  0  0
 17  1  2  0  0  0  0
 18  8  2  0  0  0  0
 20 22  2  0  0  0  0
 20 21  1  0  0  0  0
 21 24  2  0  0  0  0
 22 23  1  0  0  0  0
 23 25  2  0  0  0  0
 24 25  1  0  0  0  0
 25  7  1  0  0  0  0
 26 11  1  0  0  0  0
 27 28  2  0  0  0  0
 27 35  1  0  0  0  0
 28 36  1  0  0  0  0
 29 27  1  0  0  0  0
 30 37  1  0  0  0  0
 30 31  1  0  0  0  0
 31 26  1  0  0  0  0
 32 28  1  0  0  0  0
 33 29  1  0  0  0  0
 33 32  1  0  0  0  0
 33 39  1  1  0  0  0
 34 31  2  0  0  0  0
 35 30  1  0  0  0  0
 36 37  2  0  0  0  0
 39 38  2  0  0  0  0
 41 40  1  6  0  0  0
 41 43  1  0  0  0  0
 41 45  1  0  0  0  0
 43 44  1  0  0  0  0
 43 42  1  0  0  0  0
 44 42  1  0  0  0  0
 48 49  1  0  0  0  0
 49 45  1  0  0  0  0
 49 47  1  0  0  0  0
 49 46  1  0  0  0  0
M  END
>  <MODEL>
4

>  <REMARK>
 VINA RESULT:      -7.2      2.782      8.368
  Name = 
  9 active torsions:
  status: ('A' for Active; 'I' for Inactive)
    1  A    between atoms: C_12  and  C_16
    2  A    between atoms: C_15  and  C_49
    3  A    between atoms: C_16  and  C_26
    4  A    between atoms: C_16  and  C_35
    5  A    between atoms: C_20  and  C_22
    6  A    between atoms: C_20  and  C_31
    7  A    between atoms: C_25  and  C_30
    8  A    between atoms: C_26  and  C_39
    9  A    between atoms: C_35  and  C_42
                            x       y       z     vdW  Elec       q    Type
                         _______ _______ _______ _____ _____    ______ ____

>  <TORSDO>
F 9

$$$$
=
 OpenBabel10232409173D

 49 54  0  0  1  0  0  0  0  0999 V2000
  188.7860  176.3330  138.2960 C   0  0  0  0  0  3  0  0  0  0  0  0
  186.2790  172.3260  136.8610 C   0  0  0  0  0  0  0  0  0  0  0  0
  185.7580  172.8270  137.8930 O   0  0  0  0  0  0  0  0  0  0  0  0
  183.6540  173.4250  135.6740 N   0  0  0  0  0  0  0  0  0  0  0  0
  185.4640  171.8670  135.7780 N   0  0  0  0  0  2  0  0  0  0  0  0
  188.3350  173.3530  135.9700 C   0  0  0  0  0  2  0  0  0  0  0  0
  184.0820  172.2000  135.5850 C   0  0  0  0  0  0  0  0  0  0  0  0
  187.6290  178.4690  137.9630 C   0  0  0  0  0  3  0  0  0  0  0  0
  186.1200  176.8500  136.8090 C   0  0  0  0  0  0  0  0  0  0  0  0
  184.7610  176.8510  136.3380 N   0  0  0  0  0  0  0  0  0  0  0  0
  184.0070  175.8480  135.9850 C   0  0  0  0  0  0  0  0  0  0  0  0
  187.7580  172.1950  136.7680 C   0  0  0  0  0  2  0  0  0  0  0  0
  186.8090  175.7010  136.9450 C   0  0  0  0  0  3  0  0  0  0  0  0
  188.0850  177.4670  138.9660 C   0  0  2  0  0  3  0  0  0  0  0  0
  184.4970  174.5040  135.9750 N   0  0  0  0  0  2  0  0  0  0  0  0
  188.9780  174.3540  136.8770 C   0  0  0  0  0  0  0  0  0  0  0  0
  188.2120  175.5180  137.3970 C   0  0  0  0  0  0  0  0  0  0  0  0
  186.7270  178.1800  137.0280 C   0  0  0  0  0  3  0  0  0  0  0  0
  190.2540  174.1600  137.2040 C   0  0  0  0  0  2  0  0  0  0  0  0
  181.4040  169.1580  134.3810 C   0  0  0  0  0  3  0  0  0  0  0  0
  180.9520  170.4550  134.6150 C   0  0  0  0  0  3  0  0  0  0  0  0
  182.7610  168.8910  134.5510 C   0  0  0  0  0  3  0  0  0  0  0  0
  183.6050  169.8820  134.9370 N   0  0  0  0  0  0  0  0  0  0  0  0
  181.8250  171.4210  135.0000 N   0  0  0  0  0  0  0  0  0  0  0  0
  183.1480  171.1440  135.1630 C   0  0  0  0  0  0  0  0  0  0  0  0
  182.6100  176.1290  135.5350 C   0  0  0  0  0  2  0  0  0  0  0  0
  180.8060  178.5050  139.5800 C   0  0  0  0  0  0  0  0  0  0  0  0
  180.8460  177.3590  140.2170 C   0  0  0  0  0  0  0  0  0  0  0  0
  180.2840  179.5770  140.4690 C   0  0  0  0  0  2  0  0  0  0  0  0
  181.6950  177.3930  137.5600 N   0  0  0  0  0  0  0  0  0  0  0  0
  182.0960  177.3800  136.1790 C   0  0  0  0  0  0  0  0  0  0  0  0
  180.3830  177.4720  141.5100 O   0  0  0  0  0  0  0  0  0  0  0  0
  179.9830  178.8140  141.7710 C   0  0  1  0  0  3  0  0  0  0  0  0
  182.0400  178.4340  135.4910 O   0  0  0  0  0  0  0  0  0  0  0  0
  181.2660  178.6710  138.1610 C   0  0  0  0  0  2  0  0  0  0  0  0
  181.3280  176.1280  139.5940 C   0  0  0  0  0  3  0  0  0  0  0  0
  181.7280  176.1660  138.3210 C   0  0  0  0  0  3  0  0  0  0  0  0
  182.0000  179.2120  142.9210 O   0  0  0  0  0  0  0  0  0  0  0  0
  180.7910  179.3800  142.8910 C   0  0  0  0  0  3  0  0  0  0  0  0
  189.0170  178.1340  139.9630 C   0  0  0  0  0  2  0  0  0  0  0  0
  188.4820  177.9980  141.3830 C   0  0  2  0  0  3  0  0  0  0  0  0
  186.5210  178.5780  142.7840 C   0  0  0  0  0  2  0  0  0  0  0  0
  187.4000  179.0360  141.6360 C   0  0  0  0  0  3  0  0  0  0  0  0
  186.0340  178.4360  141.3600 C   0  0  0  0  0  2  0  0  0  0  0  0
  189.6300  178.2110  142.3670 C   0  0  0  0  0  2  0  0  0  0  0  0
  188.9210  175.8800  143.0040 C   0  0  0  0  0  1  0  0  0  0  0  0
  191.2140  176.6580  143.4490 C   0  0  0  0  0  1  0  0  0  0  0  0
  189.3480  177.5670  144.7730 C   0  0  0  0  0  1  0  0  0  0  0  0
  189.7620  177.0840  143.3940 C   0  0  0  0  0  0  0  0  0  0  0  0
  1 14  1  0  0  0  0
  2  3  2  0  0  0  0
  4 15  1  0  0  0  0
  5  2  1  0  0  0  0
  6 12  1  0  0  0  0
  6 16  1  0  0  0  0
  7  4  2  0  0  0  0
  7  5  1  0  0  0  0
  8 14  1  0  0  0  0
  9 13  2  0  0  0  0
  9 18  1  0  0  0  0
 10  9  1  0  0  0  0
 11 10  2  0  0  0  0
 12  2  1  0  0  0  0
 13 17  1  0  0  0  0
 14 40  1  1  0  0  0
 15 11  1  0  0  0  0
 16 19  2  0  0  0  0
 16 17  1  0  0  0  0
 17  1  2  0  0  0  0
 18  8  2  0  0  0  0
 20 22  2  0  0  0  0
 20 21  1  0  0  0  0
 21 24  2  0  0  0  0
 22 23  1  0  0  0  0
 23 25  2  0  0  0  0
 24 25  1  0  0  0  0
 25  7  1  0  0  0  0
 26 11  1  0  0  0  0
 26 31  1  0  0  0  0
 27 28  2  0  0  0  0
 27 29  1  0  0  0  0
 28 32  1  0  0  0  0
 29 33  1  0  0  0  0
 30 35  1  0  0  0  0
 30 37  1  0  0  0  0
 31 30  1  0  0  0  0
 32 33  1  0  0  0  0
 33 39  1  1  0  0  0
 34 31  2  0  0  0  0
 35 27  1  0  0  0  0
 36 28  1  0  0  0  0
 37 36  2  0  0  0  0
 39 38  2  0  0  0  0
 41 40  1  6  0  0  0
 41 43  1  0  0  0  0
 41 45  1  0  0  0  0
 43 42  1  0  0  0  0
 44 43  1  0  0  0  0
 44 42  1  0  0  0  0
 45 49  1  0  0  0  0
 46 49  1  0  0  0  0
 49 47  1  0  0  0  0
 49 48  1  0  0  0  0
M  END
>  <MODEL>
5

>  <REMARK>
 VINA RESULT:      -7.2      4.674     11.034
  Name = 
  9 active torsions:
  status: ('A' for Active; 'I' for Inactive)
    1  A    between atoms: C_12  and  C_16
    2  A    between atoms: C_15  and  C_49
    3  A    between atoms: C_16  and  C_26
    4  A    between atoms: C_16  and  C_35
    5  A    between atoms: C_20  and  C_22
    6  A    between atoms: C_20  and  C_31
    7  A    between atoms: C_25  and  C_30
    8  A    between atoms: C_26  and  C_39
    9  A    between atoms: C_35  and  C_42
                            x       y       z     vdW  Elec       q    Type
                         _______ _______ _______ _____ _____    ______ ____

>  <TORSDO>
F 9

$$$$
=
 OpenBabel10232409173D

 49 54  0  0  1  0  0  0  0  0999 V2000
  186.4470  175.0870  135.0670 C   0  0  0  0  0  3  0  0  0  0  0  0
  191.2650  174.0960  135.5060 C   0  0  0  0  0  0  0  0  0  0  0  0
  191.0920  175.2870  135.1320 O   0  0  0  0  0  0  0  0  0  0  0  0
  192.1500  175.6040  138.0450 N   0  0  0  0  0  0  0  0  0  0  0  0
  192.2370  173.7770  136.5070 N   0  0  0  0  0  2  0  0  0  0  0  0
  189.2850  172.6550  135.7870 C   0  0  0  0  0  2  0  0  0  0  0  0
  192.8500  174.7230  137.3950 C   0  0  0  0  0  0  0  0  0  0  0  0
  185.5280  176.6020  136.7620 C   0  0  0  0  0  3  0  0  0  0  0  0
  187.8400  176.1830  137.6050 C   0  0  0  0  0  0  0  0  0  0  0  0
  188.7270  176.7980  138.5570 N   0  0  0  0  0  0  0  0  0  0  0  0
  190.0100  176.6370  138.7160 C   0  0  0  0  0  0  0  0  0  0  0  0
  190.4640  173.0030  134.8920 C   0  0  0  0  0  2  0  0  0  0  0  0
  188.2970  175.2980  136.6980 C   0  0  0  0  0  3  0  0  0  0  0  0
  185.9270  176.4600  135.3350 C   0  0  2  0  0  3  0  0  0  0  0  0
  190.7570  175.7090  137.9240 N   0  0  0  0  0  2  0  0  0  0  0  0
  188.0150  173.2240  135.2360 C   0  0  0  0  0  0  0  0  0  0  0  0
  187.5270  174.5620  135.6630 C   0  0  0  0  0  0  0  0  0  0  0  0
  186.4060  176.5060  137.7590 C   0  0  0  0  0  3  0  0  0  0  0  0
  187.3460  172.4900  134.3490 C   0  0  0  0  0  2  0  0  0  0  0  0
  196.9940  174.4040  138.1690 C   0  0  0  0  0  3  0  0  0  0  0  0
  196.5250  174.6280  136.8760 C   0  0  0  0  0  3  0  0  0  0  0  0
  196.0620  174.2910  139.1990 C   0  0  0  0  0  3  0  0  0  0  0  0
  194.7360  174.3980  138.9300 N   0  0  0  0  0  0  0  0  0  0  0  0
  195.1910  174.7290  136.6450 N   0  0  0  0  0  0  0  0  0  0  0  0
  194.2930  174.6160  137.6620 C   0  0  0  0  0  0  0  0  0  0  0  0
  190.7000  177.4150  139.7900 C   0  0  0  0  0  2  0  0  0  0  0  0
  189.3040  177.4270  144.6180 C   0  0  0  0  0  0  0  0  0  0  0  0
  190.3530  176.6840  144.8780 C   0  0  0  0  0  0  0  0  0  0  0  0
  188.5340  177.6930  145.8620 C   0  0  0  0  0  2  0  0  0  0  0  0
  189.9410  177.4610  142.2300 N   0  0  0  0  0  0  0  0  0  0  0  0
  189.7240  177.8130  140.8540 C   0  0  0  0  0  0  0  0  0  0  0  0
  190.4330  176.3540  146.2140 O   0  0  0  0  0  0  0  0  0  0  0  0
  189.3310  176.9130  146.9220 C   0  0  1  0  0  3  0  0  0  0  0  0
  188.7110  178.4870  140.5230 O   0  0  0  0  0  0  0  0  0  0  0  0
  188.9850  177.9430  143.2460 C   0  0  0  0  0  2  0  0  0  0  0  0
  191.3030  176.2730  143.8460 C   0  0  0  0  0  3  0  0  0  0  0  0
  191.0860  176.6550  142.5850 C   0  0  0  0  0  3  0  0  0  0  0  0
  189.0360  178.5550  148.5860 O   0  0  0  0  0  0  0  0  0  0  0  0
  189.8230  177.8480  147.9770 C   0  0  0  0  0  3  0  0  0  0  0  0
  184.7300  176.7420  134.4440 C   0  0  0  0  0  2  0  0  0  0  0  0
  183.4610  176.1350  135.0280 C   0  0  2  0  0  3  0  0  0  0  0  0
  181.9270  174.2230  134.6470 C   0  0  0  0  0  2  0  0  0  0  0  0
  183.3810  174.6560  134.6810 C   0  0  0  0  0  3  0  0  0  0  0  0
  182.7860  173.8850  135.8450 C   0  0  0  0  0  2  0  0  0  0  0  0
  182.2500  176.8580  134.4430 C   0  0  0  0  0  2  0  0  0  0  0  0
  182.2220  177.7290  136.8060 C   0  0  0  0  0  1  0  0  0  0  0  0
  181.3790  179.1110  134.9510 C   0  0  0  0  0  1  0  0  0  0  0  0
  180.0890  177.1460  135.6800 C   0  0  0  0  0  1  0  0  0  0  0  0
  181.4890  177.6950  135.4750 C   0  0  0  0  0  0  0  0  0  0  0  0
  1 14  1  0  0  0  0
  1 17  2  0  0  0  0
  2  5  1  0  0  0  0
  3  2  2  0  0  0  0
  5  7  1  0  0  0  0
  7 25  1  0  0  0  0
  7  4  2  0  0  0  0
  8 18  2  0  0  0  0
  9 18  1  0  0  0  0
  9 10  1  0  0  0  0
 10 11  2  0  0  0  0
 11 26  1  0  0  0  0
 12  2  1  0  0  0  0
 12  6  1  0  0  0  0
 13  9  2  0  0  0  0
 14 40  1  6  0  0  0
 14  8  1  0  0  0  0
 15  4  1  0  0  0  0
 15 11  1  0  0  0  0
 16 17  1  0  0  0  0
 16  6  1  0  0  0  0
 17 13  1  0  0  0  0
 19 16  2  0  0  0  0
 20 22  2  0  0  0  0
 21 20  1  0  0  0  0
 23 22  1  0  0  0  0
 24 21  2  0  0  0  0
 24 25  1  0  0  0  0
 25 23  2  0  0  0  0
 26 31  1  0  0  0  0
 27 28  2  0  0  0  0
 27 29  1  0  0  0  0
 28 32  1  0  0  0  0
 29 33  1  0  0  0  0
 30 37  1  0  0  0  0
 30 35  1  0  0  0  0
 31 30  1  0  0  0  0
 32 33  1  0  0  0  0
 33 39  1  1  0  0  0
 34 31  2  0  0  0  0
 35 27  1  0  0  0  0
 36 28  1  0  0  0  0
 37 36  2  0  0  0  0
 39 38  2  0  0  0  0
 40 41  1  0  0  0  0
 41 45  1  6  0  0  0
 42 43  1  0  0  0  0
 42 44  1  0  0  0  0
 43 41  1  0  0  0  0
 43 44  1  0  0  0  0
 45 49  1  0  0  0  0
 47 49  1  0  0  0  0
 49 48  1  0  0  0  0
 49 46  1  0  0  0  0
M  END
>  <MODEL>
6

>  <REMARK>
 VINA RESULT:      -7.0      3.030      8.200
  Name = 
  9 active torsions:
  status: ('A' for Active; 'I' for Inactive)
    1  A    between atoms: C_12  and  C_16
    2  A    between atoms: C_15  and  C_49
    3  A    between atoms: C_16  and  C_26
    4  A    between atoms: C_16  and  C_35
    5  A    between atoms: C_20  and  C_22
    6  A    between atoms: C_20  and  C_31
    7  A    between atoms: C_25  and  C_30
    8  A    between atoms: C_26  and  C_39
    9  A    between atoms: C_35  and  C_42
                            x       y       z     vdW  Elec       q    Type
                         _______ _______ _______ _____ _____    ______ ____

>  <TORSDO>
F 9

$$$$
=
 OpenBabel10232409173D

 49 54  0  0  1  0  0  0  0  0999 V2000
  185.8990  178.0830  138.7840 C   0  0  0  0  0  3  0  0  0  0  0  0
  187.8130  176.9970  143.2050 C   0  0  0  0  0  0  0  0  0  0  0  0
  187.8980  176.0060  142.4320 O   0  0  0  0  0  0  0  0  0  0  0  0
  190.8600  176.9200  142.7450 N   0  0  0  0  0  0  0  0  0  0  0  0
  188.9080  177.3630  144.0500 N   0  0  0  0  0  2  0  0  0  0  0  0
  186.6870  179.0310  142.3850 C   0  0  0  0  0  2  0  0  0  0  0  0
  190.2590  176.9050  143.8980 C   0  0  0  0  0  0  0  0  0  0  0  0
  187.5250  178.3040  136.9620 C   0  0  0  0  0  3  0  0  0  0  0  0
  188.9880  178.0880  138.9720 C   0  0  0  0  0  0  0  0  0  0  0  0
  190.3730  177.7870  139.2210 N   0  0  0  0  0  0  0  0  0  0  0  0
  190.9580  177.4470  140.3350 C   0  0  0  0  0  0  0  0  0  0  0  0
  186.5550  177.7900  143.2550 C   0  0  0  0  0  2  0  0  0  0  0  0
  188.0760  178.0380  139.9610 C   0  0  0  0  0  3  0  0  0  0  0  0
  186.4470  177.4580  137.5450 C   0  0  2  0  0  3  0  0  0  0  0  0
  190.2400  177.3680  141.5700 N   0  0  0  0  0  2  0  0  0  0  0  0
  185.9420  178.8570  141.0990 C   0  0  0  0  0  0  0  0  0  0  0  0
  186.6210  178.3300  139.8860 C   0  0  0  0  0  0  0  0  0  0  0  0
  188.6660  178.5470  137.6040 C   0  0  0  0  0  3  0  0  0  0  0  0
  184.6510  179.1860  141.0850 C   0  0  0  0  0  2  0  0  0  0  0  0
  192.4300  175.7880  147.3500 C   0  0  0  0  0  3  0  0  0  0  0  0
  192.6780  175.1780  146.1220 C   0  0  0  0  0  3  0  0  0  0  0  0
  191.4490  176.7780  147.4090 C   0  0  0  0  0  3  0  0  0  0  0  0
  190.7640  177.1230  146.2880 N   0  0  0  0  0  0  0  0  0  0  0  0
  191.9730  175.5490  145.0230 N   0  0  0  0  0  0  0  0  0  0  0  0
  191.0180  176.5170  145.0970 C   0  0  0  0  0  0  0  0  0  0  0  0
  192.4290  177.1800  140.3170 C   0  0  0  0  0  2  0  0  0  0  0  0
  195.6890  174.4410  137.6460 C   0  0  0  0  0  0  0  0  0  0  0  0
  196.4600  174.4050  138.7070 C   0  0  0  0  0  0  0  0  0  0  0  0
  196.3180  173.7020  136.5200 C   0  0  0  0  0  2  0  0  0  0  0  0
  194.0450  175.7880  138.9090 N   0  0  0  0  0  0  0  0  0  0  0  0
  192.8270  176.5420  139.0220 C   0  0  0  0  0  0  0  0  0  0  0  0
  197.6270  173.7100  138.4720 O   0  0  0  0  0  0  0  0  0  0  0  0
  197.6560  173.2440  137.1260 C   0  0  1  0  0  3  0  0  0  0  0  0
  192.0590  176.6600  138.0290 O   0  0  0  0  0  0  0  0  0  0  0  0
  194.3500  175.1190  137.6290 C   0  0  0  0  0  2  0  0  0  0  0  0
  196.0910  175.0390  139.9710 C   0  0  0  0  0  3  0  0  0  0  0  0
  194.9320  175.6960  140.0460 C   0  0  0  0  0  3  0  0  0  0  0  0
  196.8320  171.0950  136.6220 O   0  0  0  0  0  0  0  0  0  0  0  0
  197.7410  171.7540  137.1030 C   0  0  0  0  0  3  0  0  0  0  0  0
  185.3380  177.2740  136.5240 C   0  0  0  0  0  2  0  0  0  0  0  0
  184.2940  176.2860  137.0270 C   0  0  2  0  0  3  0  0  0  0  0  0
  183.3920  173.9860  136.8130 C   0  0  0  0  0  2  0  0  0  0  0  0
  184.4620  174.9450  136.3280 C   0  0  0  0  0  3  0  0  0  0  0  0
  184.8020  173.8720  137.3460 C   0  0  0  0  0  2  0  0  0  0  0  0
  182.9020  176.8400  136.7300 C   0  0  0  0  0  2  0  0  0  0  0  0
  182.3270  178.8270  138.1670 C   0  0  0  0  0  1  0  0  0  0  0  0
  180.6930  177.0200  137.8170 C   0  0  0  0  0  1  0  0  0  0  0  0
  182.6760  176.6060  139.2150 C   0  0  0  0  0  1  0  0  0  0  0  0
  182.1660  177.3270  137.9810 C   0  0  0  0  0  0  0  0  0  0  0  0
  1 17  2  0  0  0  0
  2 12  1  0  0  0  0
  2  5  1  0  0  0  0
  3  2  2  0  0  0  0
  4  7  2  0  0  0  0
  6 12  1  0  0  0  0
  7  5  1  0  0  0  0
  7 25  1  0  0  0  0
  8 14  1  0  0  0  0
  8 18  2  0  0  0  0
  9 10  1  0  0  0  0
  9 13  2  0  0  0  0
 10 11  2  0  0  0  0
 11 15  1  0  0  0  0
 14 40  1  6  0  0  0
 14  1  1  0  0  0  0
 15  4  1  0  0  0  0
 16  6  1  0  0  0  0
 17 13  1  0  0  0  0
 17 16  1  0  0  0  0
 18  9  1  0  0  0  0
 19 16  2  0  0  0  0
 20 22  2  0  0  0  0
 21 20  1  0  0  0  0
 23 22  1  0  0  0  0
 24 25  1  0  0  0  0
 24 21  2  0  0  0  0
 25 23  2  0  0  0  0
 26 11  1  0  0  0  0
 27 28  2  0  0  0  0
 28 36  1  0  0  0  0
 29 33  1  0  0  0  0
 29 27  1  0  0  0  0
 30 31  1  0  0  0  0
 30 37  1  0  0  0  0
 31 26  1  0  0  0  0
 32 28  1  0  0  0  0
 33 39  1  1  0  0  0
 33 32  1  0  0  0  0
 34 31  2  0  0  0  0
 35 27  1  0  0  0  0
 35 30  1  0  0  0  0
 36 37  2  0  0  0  0
 38 39  2  0  0  0  0
 41 40  1  6  0  0  0
 42 44  1  0  0  0  0
 43 42  1  0  0  0  0
 43 41  1  0  0  0  0
 43 44  1  0  0  0  0
 45 41  1  0  0  0  0
 45 49  1  0  0  0  0
 47 49  1  0  0  0  0
 49 46  1  0  0  0  0
 49 48  1  0  0  0  0
M  END
>  <MODEL>
7

>  <REMARK>
 VINA RESULT:      -6.8      2.025      3.489
  Name = 
  9 active torsions:
  status: ('A' for Active; 'I' for Inactive)
    1  A    between atoms: C_12  and  C_16
    2  A    between atoms: C_15  and  C_49
    3  A    between atoms: C_16  and  C_26
    4  A    between atoms: C_16  and  C_35
    5  A    between atoms: C_20  and  C_22
    6  A    between atoms: C_20  and  C_31
    7  A    between atoms: C_25  and  C_30
    8  A    between atoms: C_26  and  C_39
    9  A    between atoms: C_35  and  C_42
                            x       y       z     vdW  Elec       q    Type
                         _______ _______ _______ _____ _____    ______ ____

>  <TORSDO>
F 9

$$$$
=
 OpenBabel10232409173D

 49 54  0  0  1  0  0  0  0  0999 V2000
  183.6160  177.3660  136.3480 C   0  0  0  0  0  3  0  0  0  0  0  0
  183.5260  177.7950  141.2670 C   0  0  0  0  0  0  0  0  0  0  0  0
  184.1020  176.7270  140.9270 O   0  0  0  0  0  0  0  0  0  0  0  0
  186.4310  178.4650  142.0510 N   0  0  0  0  0  0  0  0  0  0  0  0
  184.0600  178.6150  142.3100 N   0  0  0  0  0  2  0  0  0  0  0  0
  182.5680  179.2230  139.5000 C   0  0  0  0  0  2  0  0  0  0  0  0
  185.3940  178.5260  142.8320 C   0  0  0  0  0  0  0  0  0  0  0  0
  185.8210  177.6400  135.3100 C   0  0  0  0  0  3  0  0  0  0  0  0
  186.2590  178.2590  137.6880 C   0  0  0  0  0  0  0  0  0  0  0  0
  187.4200  178.4100  138.5260 N   0  0  0  0  0  0  0  0  0  0  0  0
  187.4980  178.4840  139.8250 C   0  0  0  0  0  0  0  0  0  0  0  0
  182.2670  178.2040  140.5890 C   0  0  0  0  0  2  0  0  0  0  0  0
  185.0250  178.1680  138.2190 C   0  0  0  0  0  3  0  0  0  0  0  0
  184.7480  176.6720  135.6670 C   0  0  2  0  0  3  0  0  0  0  0  0
  186.3310  178.4700  140.6520 N   0  0  0  0  0  2  0  0  0  0  0  0
  182.5070  178.5870  138.1480 C   0  0  0  0  0  0  0  0  0  0  0  0
  183.7270  178.0270  137.5090 C   0  0  0  0  0  0  0  0  0  0  0  0
  186.5050  178.3160  136.2320 C   0  0  0  0  0  3  0  0  0  0  0  0
  181.3210  178.5380  137.5430 C   0  0  0  0  0  2  0  0  0  0  0  0
  185.9650  178.7900  147.0130 C   0  0  0  0  0  3  0  0  0  0  0  0
  187.0110  178.4140  146.1720 C   0  0  0  0  0  3  0  0  0  0  0  0
  184.7280  179.0790  146.4390 C   0  0  0  0  0  3  0  0  0  0  0  0
  184.5650  178.9900  145.0940 N   0  0  0  0  0  0  0  0  0  0  0  0
  186.8110  178.3350  144.8310 N   0  0  0  0  0  0  0  0  0  0  0  0
  185.5960  178.6200  144.2860 C   0  0  0  0  0  0  0  0  0  0  0  0
  188.8470  178.6340  140.4510 C   0  0  0  0  0  2  0  0  0  0  0  0
  191.0900  176.1950  144.2300 C   0  0  0  0  0  0  0  0  0  0  0  0
  191.3950  177.3620  144.7450 C   0  0  0  0  0  0  0  0  0  0  0  0
  191.6080  175.0970  145.0880 C   0  0  0  0  0  2  0  0  0  0  0  0
  189.9680  177.3380  142.3470 N   0  0  0  0  0  0  0  0  0  0  0  0
  189.2710  177.3470  141.0900 C   0  0  0  0  0  0  0  0  0  0  0  0
  192.1140  177.2380  145.9140 O   0  0  0  0  0  0  0  0  0  0  0  0
  192.3260  175.8620  146.2130 C   0  0  1  0  0  3  0  0  0  0  0  0
  188.9860  176.2630  140.5130 O   0  0  0  0  0  0  0  0  0  0  0  0
  190.2960  176.0380  142.9660 C   0  0  0  0  0  2  0  0  0  0  0  0
  191.0030  178.6250  144.1210 C   0  0  0  0  0  3  0  0  0  0  0  0
  190.3220  178.5900  142.9740 C   0  0  0  0  0  3  0  0  0  0  0  0
  192.4140  175.3740  148.5160 O   0  0  0  0  0  0  0  0  0  0  0  0
  191.7100  175.5250  147.5310 C   0  0  0  0  0  3  0  0  0  0  0  0
  184.2500  175.9810  134.4090 C   0  0  0  0  0  2  0  0  0  0  0  0
  183.6490  174.6200  134.7370 C   0  0  2  0  0  3  0  0  0  0  0  0
  181.4620  174.1330  135.8000 C   0  0  0  0  0  2  0  0  0  0  0  0
  182.1400  174.6550  134.5470 C   0  0  0  0  0  3  0  0  0  0  0  0
  181.5830  173.2430  134.5840 C   0  0  0  0  0  2  0  0  0  0  0  0
  183.9690  174.2740  136.1900 C   0  0  0  0  0  2  0  0  0  0  0  0
  185.4930  172.6570  135.0060 C   0  0  0  0  0  1  0  0  0  0  0  0
  185.9700  173.3660  137.3140 C   0  0  0  0  0  1  0  0  0  0  0  0
  184.0680  171.8660  136.8760 C   0  0  0  0  0  1  0  0  0  0  0  0
  184.8630  173.0400  136.3340 C   0  0  0  0  0  0  0  0  0  0  0  0
  1 17  2  0  0  0  0
  2  5  1  0  0  0  0
  3  2  2  0  0  0  0
  4  7  2  0  0  0  0
  5  7  1  0  0  0  0
  6 12  1  0  0  0  0
  7 25  1  0  0  0  0
  8 14  1  0  0  0  0
  8 18  2  0  0  0  0
  9 13  2  0  0  0  0
  9 10  1  0  0  0  0
 10 11  2  0  0  0  0
 11 26  1  0  0  0  0
 11 15  1  0  0  0  0
 12  2  1  0  0  0  0
 14 40  1  6  0  0  0
 14  1  1  0  0  0  0
 15  4  1  0  0  0  0
 16  6  1  0  0  0  0
 17 16  1  0  0  0  0
 17 13  1  0  0  0  0
 18  9  1  0  0  0  0
 19 16  2  0  0  0  0
 21 20  1  0  0  0  0
 22 20  2  0  0  0  0
 23 22  1  0  0  0  0
 24 21  2  0  0  0  0
 25 24  1  0  0  0  0
 25 23  2  0  0  0  0
 26 31  1  0  0  0  0
 27 28  2  0  0  0  0
 27 29  1  0  0  0  0
 28 32  1  0  0  0  0
 29 33  1  0  0  0  0
 30 35  1  0  0  0  0
 30 37  1  0  0  0  0
 31 30  1  0  0  0  0
 32 33  1  0  0  0  0
 33 39  1  1  0  0  0
 34 31  2  0  0  0  0
 35 27  1  0  0  0  0
 36 28  1  0  0  0  0
 37 36  2  0  0  0  0
 39 38  2  0  0  0  0
 41 40  1  1  0  0  0
 41 45  1  0  0  0  0
 43 44  1  0  0  0  0
 43 41  1  0  0  0  0
 43 42  1  0  0  0  0
 44 42  1  0  0  0  0
 45 49  1  0  0  0  0
 46 49  1  0  0  0  0
 49 48  1  0  0  0  0
 49 47  1  0  0  0  0
M  END
>  <MODEL>
8

>  <REMARK>
 VINA RESULT:      -6.6      3.202      5.982
  Name = 
  9 active torsions:
  status: ('A' for Active; 'I' for Inactive)
    1  A    between atoms: C_12  and  C_16
    2  A    between atoms: C_15  and  C_49
    3  A    between atoms: C_16  and  C_26
    4  A    between atoms: C_16  and  C_35
    5  A    between atoms: C_20  and  C_22
    6  A    between atoms: C_20  and  C_31
    7  A    between atoms: C_25  and  C_30
    8  A    between atoms: C_26  and  C_39
    9  A    between atoms: C_35  and  C_42
                            x       y       z     vdW  Elec       q    Type
                         _______ _______ _______ _____ _____    ______ ____

>  <TORSDO>
F 9

$$$$
=
 OpenBabel10232409173D

 49 54  0  0  1  0  0  0  0  0999 V2000
  192.7260  174.5200  136.9450 C   0  0  0  0  0  3  0  0  0  0  0  0
  187.8700  175.2530  136.4170 C   0  0  0  0  0  0  0  0  0  0  0  0
  188.1140  174.6880  137.5160 O   0  0  0  0  0  0  0  0  0  0  0  0
  187.2040  177.5430  138.3710 N   0  0  0  0  0  0  0  0  0  0  0  0
  186.9200  176.3200  136.3360 N   0  0  0  0  0  2  0  0  0  0  0  0
  189.7500  175.7030  134.8870 C   0  0  0  0  0  2  0  0  0  0  0  0
  186.4150  177.0620  137.4550 C   0  0  0  0  0  0  0  0  0  0  0  0
  193.8210  175.9230  138.6310 C   0  0  0  0  0  3  0  0  0  0  0  0
  191.5220  176.8890  138.5320 C   0  0  0  0  0  0  0  0  0  0  0  0
  190.7230  177.7560  139.3580 N   0  0  0  0  0  0  0  0  0  0  0  0
  189.4390  177.9760  139.3240 C   0  0  0  0  0  0  0  0  0  0  0  0
  188.5640  174.7980  135.1810 C   0  0  0  0  0  2  0  0  0  0  0  0
  190.9650  176.1500  137.5550 C   0  0  0  0  0  3  0  0  0  0  0  0
  193.3550  174.5490  138.2980 C   0  0  2  0  0  3  0  0  0  0  0  0
  188.5940  177.3650  138.3450 N   0  0  0  0  0  2  0  0  0  0  0  0
  191.0340  175.0310  135.2600 C   0  0  0  0  0  0  0  0  0  0  0  0
  191.6350  175.2240  136.6060 C   0  0  0  0  0  0  0  0  0  0  0  0
  192.9810  176.9480  138.7620 C   0  0  0  0  0  3  0  0  0  0  0  0
  191.6110  174.2540  134.3460 C   0  0  0  0  0  2  0  0  0  0  0  0
  182.2890  177.9770  137.5950 C   0  0  0  0  0  3  0  0  0  0  0  0
  183.1370  178.3440  138.6380 C   0  0  0  0  0  3  0  0  0  0  0  0
  182.8370  177.3030  136.5040 C   0  0  0  0  0  3  0  0  0  0  0  0
  184.1650  177.0200  136.4780 N   0  0  0  0  0  0  0  0  0  0  0  0
  184.4600  178.0440  138.5770 N   0  0  0  0  0  0  0  0  0  0  0  0
  184.9800  177.3850  137.5050 C   0  0  0  0  0  0  0  0  0  0  0  0
  188.8530  178.9310  140.3140 C   0  0  0  0  0  2  0  0  0  0  0  0
  189.9550  177.1180  144.8700 C   0  0  0  0  0  0  0  0  0  0  0  0
  191.1880  177.5270  144.6860 C   0  0  0  0  0  0  0  0  0  0  0  0
  189.8170  176.4620  146.1970 C   0  0  0  0  0  2  0  0  0  0  0  0
  189.3520  177.9940  142.6390 N   0  0  0  0  0  0  0  0  0  0  0  0
  188.4320  178.2050  141.5540 C   0  0  0  0  0  0  0  0  0  0  0  0
  191.9980  177.2200  145.7580 O   0  0  0  0  0  0  0  0  0  0  0  0
  191.2490  176.5310  146.7550 C   0  0  1  0  0  3  0  0  0  0  0  0
  187.2420  177.7980  141.6410 O   0  0  0  0  0  0  0  0  0  0  0  0
  188.8610  177.3370  143.8660 C   0  0  0  0  0  2  0  0  0  0  0  0
  191.6160  178.2200  143.4730 C   0  0  0  0  0  3  0  0  0  0  0  0
  190.7210  178.4320  142.5050 C   0  0  0  0  0  3  0  0  0  0  0  0
  192.2400  177.2750  148.7580 O   0  0  0  0  0  0  0  0  0  0  0  0
  191.2610  177.3060  148.0300 C   0  0  0  0  0  3  0  0  0  0  0  0
  194.5310  173.5890  138.3410 C   0  0  0  0  0  2  0  0  0  0  0  0
  195.1890  173.4720  136.9720 C   0  0  2  0  0  3  0  0  0  0  0  0
  195.3610  171.4780  135.5080 C   0  0  0  0  0  2  0  0  0  0  0  0
  195.8240  172.0990  136.8120 C   0  0  0  0  0  3  0  0  0  0  0  0
  194.7480  171.0300  136.8150 C   0  0  0  0  0  2  0  0  0  0  0  0
  196.2670  174.5460  136.8460 C   0  0  0  0  0  2  0  0  0  0  0  0
  196.6270  176.6000  135.4330 C   0  0  0  0  0  1  0  0  0  0  0  0
  197.6100  174.4400  134.7780 C   0  0  0  0  0  1  0  0  0  0  0  0
  195.1770  174.7670  134.5990 C   0  0  0  0  0  1  0  0  0  0  0  0
  196.4080  175.0960  135.4240 C   0  0  0  0  0  0  0  0  0  0  0  0
  1 14  1  0  0  0  0
  2  3  2  0  0  0  0
  5  2  1  0  0  0  0
  5  7  1  0  0  0  0
  6 12  1  0  0  0  0
  6 16  1  0  0  0  0
  7 25  1  0  0  0  0
  7  4  2  0  0  0  0
  8 18  2  0  0  0  0
  9 18  1  0  0  0  0
  9 10  1  0  0  0  0
 11 10  2  0  0  0  0
 11 26  1  0  0  0  0
 12  2  1  0  0  0  0
 13  9  2  0  0  0  0
 14 40  1  6  0  0  0
 14  8  1  0  0  0  0
 15  4  1  0  0  0  0
 15 11  1  0  0  0  0
 16 17  1  0  0  0  0
 17  1  2  0  0  0  0
 17 13  1  0  0  0  0
 19 16  2  0  0  0  0
 20 21  1  0  0  0  0
 22 20  2  0  0  0  0
 23 22  1  0  0  0  0
 23 25  2  0  0  0  0
 24 21  2  0  0  0  0
 25 24  1  0  0  0  0
 26 31  1  0  0  0  0
 27 29  1  0  0  0  0
 28 27  2  0  0  0  0
 28 32  1  0  0  0  0
 29 33  1  0  0  0  0
 30 35  1  0  0  0  0
 31 34  2  0  0  0  0
 31 30  1  0  0  0  0
 32 33  1  0  0  0  0
 33 39  1  1  0  0  0
 35 27  1  0  0  0  0
 36 28  1  0  0  0  0
 37 30  1  0  0  0  0
 37 36  2  0  0  0  0
 39 38  2  0  0  0  0
 41 45  1  1  0  0  0
 41 40  1  0  0  0  0
 42 43  1  0  0  0  0
 42 44  1  0  0  0  0
 43 44  1  0  0  0  0
 43 41  1  0  0  0  0
 47 49  1  0  0  0  0
 48 49  1  0  0  0  0
 49 46  1  0  0  0  0
 49 45  1  0  0  0  0
M  END
>  <MODEL>
9

>  <REMARK>
 VINA RESULT:      -6.3      2.846     10.713
  Name = 
  9 active torsions:
  status: ('A' for Active; 'I' for Inactive)
    1  A    between atoms: C_12  and  C_16
    2  A    between atoms: C_15  and  C_49
    3  A    between atoms: C_16  and  C_26
    4  A    between atoms: C_16  and  C_35
    5  A    between atoms: C_20  and  C_22
    6  A    between atoms: C_20  and  C_31
    7  A    between atoms: C_25  and  C_30
    8  A    between atoms: C_26  and  C_39
    9  A    between atoms: C_35  and  C_42
                            x       y       z     vdW  Elec       q    Type
                         _______ _______ _______ _____ _____    ______ ____

>  <TORSDO>
F 9

$$$$
