=
 OpenBabel10232412023D

 41 45  0  0  1  0  0  0  0  0999 V2000
  188.2010  176.8360  145.2120 C   0  0  0  0  0  3  0  0  0  0  0  0
  186.5560  178.4110  141.8710 C   0  0  0  0  0  0  0  0  0  0  0  0
  186.6790  178.3470  139.4350 C   0  0  0  0  0  0  0  0  0  0  0  0
  187.3180  177.9720  138.1460 C   0  0  0  0  0  1  0  0  0  0  0  0
  191.6770  177.5600  141.1500 C   0  0  0  0  0  3  0  0  0  0  0  0
  187.2640  178.0570  140.6930 C   0  0  0  0  0  0  0  0  0  0  0  0
  187.4450  176.4680  143.6250 S   0  0  0  0  0  0  0  0  0  0  0  0
  192.1180  178.5920  143.3650 C   0  0  0  0  0  3  0  0  0  0  0  0
  191.3960  177.7340  142.4470 C   0  0  0  0  0  0  0  0  0  0  0  0
  185.3230  179.0720  141.7560 C   0  0  0  0  0  0  0  0  0  0  0  0
  189.5450  177.3520  139.9090 C   0  0  0  0  0  3  0  0  0  0  0  0
  188.5950  177.4200  140.8380 C   0  0  0  0  0  3  0  0  0  0  0  0
  190.3100  177.1450  143.1430 N   0  0  0  0  0  0  0  0  0  0  0  0
  190.3880  177.6490  144.3330 C   0  0  0  0  0  0  0  0  0  0  0  0
  185.4790  178.9800  139.3780 N   0  0  0  0  0  0  0  0  0  0  0  0
  191.5110  178.5350  144.5060 N   0  0  0  0  0  0  0  0  0  0  0  0
  187.1570  178.2290  143.2420 C   0  0  0  0  0  2  0  0  0  0  0  0
  184.4110  179.5940  143.1700 Cl  0  0  0  0  0  0  0  0  0  0  0  0
  190.8660  176.7100  140.2090 C   0  0  1  0  0  3  0  0  0  0  0  0
  189.4300  177.3260  145.4250 C   0  0  0  0  0  0  0  0  0  0  0  0
  184.8000  179.3370  140.4930 C   0  0  0  0  0  3  0  0  0  0  0  0
  192.2200  176.5300  137.9100 C   0  0  0  0  0  0  0  0  0  0  0  0
  191.6070  176.5960  138.9490 C   0  0  0  0  0  0  0  0  0  0  0  0
  192.9330  176.4750  136.6270 C   0  0  0  0  0  2  0  0  0  0  0  0
  196.6250  176.5290  135.7050 O   0  0  0  0  0  0  0  0  0  0  0  0
  195.2020  176.2070  135.3390 S   0  0  0  0  0  0  0  0  0  0  0  0
  194.4740  177.1370  134.4040 O   0  0  0  0  0  0  0  0  0  0  0  0
  194.2830  175.9530  136.8140 N   0  0  0  0  0  0  0  0  0  0  0  0
  194.3780  174.8220  136.0240 N   0  0  2  0  0  0  0  0  0  0  0  0
  193.3580  171.9810  135.3020 C   0  0  0  0  0  1  0  0  0  0  0  0
  194.8090  171.6250  135.5810 C   0  0  1  0  0  3  0  0  0  0  0  0
  195.7160  172.8580  135.4620 C   0  0  0  0  0  2  0  0  0  0  0  0
  195.4160  173.9170  136.5400 C   0  0  2  0  0  3  0  0  0  0  0  0
  195.0170  173.2770  137.8910 C   0  0  0  0  0  2  0  0  0  0  0  0
  195.5310  171.8510  138.0380 C   0  0  0  0  0  2  0  0  0  0  0  0
  194.9290  170.9460  136.9550 C   0  0  0  0  0  2  0  0  0  0  0  0
  189.7860  177.5580  146.7860 N   0  0  0  0  0  2  0  0  0  0  0  0
  190.3550  176.5790  147.5790 O   0  0  0  0  0  0  0  0  0  0  0  0
  192.2360  175.5110  146.4840 O   0  0  0  0  0  0  0  0  0  0  0  0
  191.7210  176.3060  147.5090 C   0  0  0  0  0  0  0  0  0  0  0  0
  192.5040  176.7930  148.3720 O   0  0  0  0  0  1  0  0  0  0  0  0
  1 20  2  0  0  0  0
  2 17  1  0  0  0  0
  3  6  1  0  0  0  0
  4  3  1  0  0  0  0
  5  9  2  0  0  0  0
  6 12  1  0  0  0  0
  6  2  2  0  0  0  0
  7  1  1  0  0  0  0
  8 16  2  0  0  0  0
  9 13  1  0  0  0  0
  9  8  1  0  0  0  0
 10  2  1  0  0  0  0
 10 18  1  0  0  0  0
 11 19  1  0  0  0  0
 11 12  2  0  0  0  0
 13 14  2  0  0  0  0
 14 16  1  0  0  0  0
 14 20  1  0  0  0  0
 15  3  2  0  0  0  0
 15 21  1  0  0  0  0
 17  7  1  0  0  0  0
 19 23  1  6  0  0  0
 19  5  1  0  0  0  0
 20 37  1  0  0  0  0
 21 10  2  0  0  0  0
 22 23  3  0  0  0  0
 24 28  1  0  0  0  0
 24 22  1  0  0  0  0
 26 25  2  0  0  0  0
 26 29  1  0  0  0  0
 26 28  1  0  0  0  0
 27 26  2  0  0  0  0
 29 33  1  0  0  0  0
 29 28  1  1  0  0  0
 31 30  1  1  0  0  0
 31 36  1  0  0  0  0
 32 31  1  0  0  0  0
 33 32  1  6  0  0  0
 33 34  1  0  0  0  0
 34 35  1  0  0  0  0
 36 35  1  0  0  0  0
 37 38  1  0  0  0  0
 39 40  2  0  0  0  0
 40 38  1  0  0  0  0
 40 41  1  0  0  0  0
M  END
>  <MODEL>
1

>  <REMARK>
 VINA RESULT:      -8.5      0.000      0.000
  Name = 
  7 active torsions:
  status: ('A' for Active; 'I' for Inactive)
    1  A    between atoms: N_3  and  O_31
    2  A    between atoms: N_3  and  C_39
    3  A    between atoms: C_14  and  C_35
    4  A    between atoms: C_15  and  N_34
    5  A    between atoms: N_27  and  C_35
    6  A    between atoms: C_28  and  O_31
    7  A    between atoms: C_37  and  C_40
                            x       y       z     vdW  Elec       q    Type
                         _______ _______ _______ _____ _____    ______ ____

>  <TORSDO>
F 7

$$$$
=
 OpenBabel10232412023D

 41 45  0  0  1  0  0  0  0  0999 V2000
  192.3710  175.9330  136.3130 C   0  0  0  0  0  3  0  0  0  0  0  0
  189.0220  173.7450  135.7260 C   0  0  0  0  0  0  0  0  0  0  0  0
  186.5930  173.9200  135.5750 C   0  0  0  0  0  0  0  0  0  0  0  0
  185.3000  174.6380  135.7320 C   0  0  0  0  0  1  0  0  0  0  0  0
  188.0880  177.6180  139.1300 C   0  0  0  0  0  3  0  0  0  0  0  0
  187.8350  174.4870  135.9580 C   0  0  0  0  0  0  0  0  0  0  0  0
  190.8550  175.7810  135.3620 S   0  0  0  0  0  0  0  0  0  0  0  0
  190.2000  177.0420  140.3010 C   0  0  0  0  0  3  0  0  0  0  0  0
  189.3830  177.2800  139.1280 C   0  0  0  0  0  0  0  0  0  0  0  0
  188.9280  172.4610  135.1650 C   0  0  0  0  0  0  0  0  0  0  0  0
  186.9800  176.4760  137.2330 C   0  0  0  0  0  3  0  0  0  0  0  0
  187.9520  175.8120  136.6140 C   0  0  0  0  0  3  0  0  0  0  0  0
  190.1750  177.0490  137.9750 N   0  0  0  0  0  0  0  0  0  0  0  0
  191.3220  176.6800  138.4490 C   0  0  0  0  0  0  0  0  0  0  0  0
  186.5570  172.6780  135.0270 N   0  0  0  0  0  0  0  0  0  0  0  0
  191.3740  176.6850  139.8890 N   0  0  0  0  0  0  0  0  0  0  0  0
  190.3680  174.2340  136.1970 C   0  0  0  0  0  2  0  0  0  0  0  0
  190.3500  171.4560  134.8960 Cl  0  0  0  0  0  0  0  0  0  0  0  0
  187.2530  177.7960  137.8900 C   0  0  1  0  0  3  0  0  0  0  0  0
  192.4830  176.3130  137.5940 C   0  0  0  0  0  0  0  0  0  0  0  0
  187.6790  171.9530  134.8140 C   0  0  0  0  0  3  0  0  0  0  0  0
  184.8930  178.8310  138.6040 C   0  0  0  0  0  0  0  0  0  0  0  0
  185.9650  178.3730  138.2920 C   0  0  0  0  0  0  0  0  0  0  0  0
  183.5820  179.4040  138.9410 C   0  0  0  0  0  2  0  0  0  0  0  0
  180.7850  180.3770  136.5520 O   0  0  0  0  0  0  0  0  0  0  0  0
  181.2820  180.1950  137.9600 S   0  0  0  0  0  0  0  0  0  0  0  0
  181.6700  181.4190  138.7470 O   0  0  0  0  0  0  0  0  0  0  0  0
  182.5840  179.0160  137.9490 N   0  0  0  0  0  0  0  0  0  0  0  0
  181.4710  178.6010  138.6570 N   0  0  2  0  0  0  0  0  0  0  0  0
  182.4820  175.7750  139.4510 C   0  0  0  0  0  1  0  0  0  0  0  0
  181.1730  175.3610  138.8000 C   0  0  1  0  0  3  0  0  0  0  0  0
  180.1790  176.5300  138.7570 C   0  0  0  0  0  2  0  0  0  0  0  0
  180.6580  177.6790  137.8490 C   0  0  2  0  0  3  0  0  0  0  0  0
  181.4220  177.1600  136.6070 C   0  0  0  0  0  2  0  0  0  0  0  0
  181.0610  175.7220  136.2570 C   0  0  0  0  0  2  0  0  0  0  0  0
  181.4430  174.7770  137.4040 C   0  0  0  0  0  2  0  0  0  0  0  0
  193.8040  176.3260  138.1300 N   0  0  0  0  0  2  0  0  0  0  0  0
  194.7080  175.3070  137.8940 O   0  0  0  0  0  0  0  0  0  0  0  0
  195.8430  175.3190  140.0360 O   0  0  0  0  0  1  0  0  0  0  0  0
  195.3080  174.6230  138.9510 C   0  0  0  0  0  0  0  0  0  0  0  0
  195.3570  173.3610  138.9360 O   0  0  0  0  0  0  0  0  0  0  0  0
  1 20  2  0  0  0  0
  2  6  1  0  0  0  0
  2 17  1  0  0  0  0
  3  4  1  0  0  0  0
  3  6  2  0  0  0  0
  6 12  1  0  0  0  0
  7 17  1  0  0  0  0
  7  1  1  0  0  0  0
  9  5  2  0  0  0  0
  9  8  1  0  0  0  0
 10  2  2  0  0  0  0
 11 19  1  0  0  0  0
 12 11  2  0  0  0  0
 13 14  2  0  0  0  0
 13  9  1  0  0  0  0
 14 16  1  0  0  0  0
 15  3  1  0  0  0  0
 16  8  2  0  0  0  0
 18 10  1  0  0  0  0
 19 23  1  1  0  0  0
 19  5  1  0  0  0  0
 20 37  1  0  0  0  0
 20 14  1  0  0  0  0
 21 15  2  0  0  0  0
 21 10  1  0  0  0  0
 22 24  1  0  0  0  0
 23 22  3  0  0  0  0
 25 26  2  0  0  0  0
 26 29  1  0  0  0  0
 26 27  2  0  0  0  0
 28 26  1  0  0  0  0
 28 24  1  0  0  0  0
 29 28  1  6  0  0  0
 31 30  1  6  0  0  0
 32 31  1  0  0  0  0
 33 34  1  6  0  0  0
 33 29  1  0  0  0  0
 33 32  1  0  0  0  0
 35 34  1  0  0  0  0
 35 36  1  0  0  0  0
 36 31  1  0  0  0  0
 38 37  1  0  0  0  0
 38 40  1  0  0  0  0
 40 39  1  0  0  0  0
 41 40  2  0  0  0  0
M  END
>  <MODEL>
2

>  <REMARK>
 VINA RESULT:      -6.8      5.475     10.191
  Name = 
  7 active torsions:
  status: ('A' for Active; 'I' for Inactive)
    1  A    between atoms: N_3  and  O_31
    2  A    between atoms: N_3  and  C_39
    3  A    between atoms: C_14  and  C_35
    4  A    between atoms: C_15  and  N_34
    5  A    between atoms: N_27  and  C_35
    6  A    between atoms: C_28  and  O_31
    7  A    between atoms: C_37  and  C_40
                            x       y       z     vdW  Elec       q    Type
                         _______ _______ _______ _____ _____    ______ ____

>  <TORSDO>
F 7

$$$$
=
 OpenBabel10232412023D

 41 45  0  0  1  0  0  0  0  0999 V2000
  191.8110  177.4940  142.1720 C   0  0  0  0  0  3  0  0  0  0  0  0
  190.2480  176.2780  138.6470 C   0  0  0  0  0  0  0  0  0  0  0  0
  188.4530  176.7400  137.0600 C   0  0  0  0  0  0  0  0  0  0  0  0
  187.1810  177.3890  136.6440 C   0  0  0  0  0  1  0  0  0  0  0  0
  186.4340  177.8470  141.8820 C   0  0  0  0  0  3  0  0  0  0  0  0
  189.0040  176.8970  138.3570 C   0  0  0  0  0  0  0  0  0  0  0  0
  191.2720  178.0130  140.5390 S   0  0  0  0  0  0  0  0  0  0  0  0
  187.5000  176.5390  143.7040 C   0  0  0  0  0  3  0  0  0  0  0  0
  187.5090  177.4370  142.5670 C   0  0  0  0  0  0  0  0  0  0  0  0
  190.8710  175.4990  137.6600 C   0  0  0  0  0  0  0  0  0  0  0  0
  187.0420  177.9880  139.4860 C   0  0  0  0  0  3  0  0  0  0  0  0
  188.3300  177.6600  139.4350 C   0  0  0  0  0  3  0  0  0  0  0  0
  188.8550  177.7730  142.2710 N   0  0  0  0  0  0  0  0  0  0  0  0
  189.5450  177.1020  143.1350 C   0  0  0  0  0  0  0  0  0  0  0  0
  189.1010  175.9830  136.1380 N   0  0  0  0  0  0  0  0  0  0  0  0
  188.7310  176.3420  144.0510 N   0  0  0  0  0  0  0  0  0  0  0  0
  190.8480  176.3140  140.0300 C   0  0  0  0  0  2  0  0  0  0  0  0
  192.3880  174.6550  137.9600 Cl  0  0  0  0  0  0  0  0  0  0  0  0
  186.4870  178.7300  140.6640 C   0  0  1  0  0  3  0  0  0  0  0  0
  191.0310  177.1300  143.1990 C   0  0  0  0  0  0  0  0  0  0  0  0
  190.2800  175.3750  136.4050 C   0  0  0  0  0  3  0  0  0  0  0  0
  183.9750  179.4330  140.0730 C   0  0  0  0  0  0  0  0  0  0  0  0
  185.1130  179.1300  140.3360 C   0  0  0  0  0  0  0  0  0  0  0  0
  182.5890  179.7700  139.7220 C   0  0  0  0  0  2  0  0  0  0  0  0
  180.8240  180.5350  136.4380 O   0  0  0  0  0  0  0  0  0  0  0  0
  180.7560  180.0900  137.8740 S   0  0  0  0  0  0  0  0  0  0  0  0
  180.2650  181.0710  138.9060 O   0  0  0  0  0  0  0  0  0  0  0  0
  182.3140  179.4220  138.3320 N   0  0  0  0  0  0  0  0  0  0  0  0
  181.2900  178.4940  138.3570 N   0  0  2  0  0  0  0  0  0  0  0  0
  182.7140  175.8790  139.2340 C   0  0  0  0  0  1  0  0  0  0  0  0
  182.0860  175.3630  137.9490 C   0  0  1  0  0  3  0  0  0  0  0  0
  180.8940  176.2320  137.5250 C   0  0  0  0  0  2  0  0  0  0  0  0
  181.3150  177.6640  137.1420 C   0  0  2  0  0  3  0  0  0  0  0  0
  182.6910  177.6980  136.4370 C   0  0  0  0  0  2  0  0  0  0  0  0
  183.0500  176.3670  135.7880 C   0  0  0  0  0  2  0  0  0  0  0  0
  183.1530  175.2620  136.8470 C   0  0  0  0  0  2  0  0  0  0  0  0
  191.7080  176.7310  144.3900 N   0  0  0  0  0  2  0  0  0  0  0  0
  191.6530  177.4720  145.5550 O   0  0  0  0  0  0  0  0  0  0  0  0
  190.0250  176.6820  147.1690 O   0  0  0  0  0  0  0  0  0  0  0  0
  191.3510  176.8660  146.7750 C   0  0  0  0  0  0  0  0  0  0  0  0
  192.2850  176.4660  147.5260 O   0  0  0  0  0  1  0  0  0  0  0  0
  1 20  2  0  0  0  0
  2 17  1  0  0  0  0
  3  6  2  0  0  0  0
  4  3  1  0  0  0  0
  5  9  2  0  0  0  0
  6  2  1  0  0  0  0
  6 12  1  0  0  0  0
  7  1  1  0  0  0  0
  8 16  2  0  0  0  0
  9  8  1  0  0  0  0
 10 18  1  0  0  0  0
 10  2  2  0  0  0  0
 11 19  1  0  0  0  0
 12 11  2  0  0  0  0
 13  9  1  0  0  0  0
 13 14  2  0  0  0  0
 14 20  1  0  0  0  0
 14 16  1  0  0  0  0
 15 21  2  0  0  0  0
 15  3  1  0  0  0  0
 17  7  1  0  0  0  0
 19 23  1  6  0  0  0
 19  5  1  0  0  0  0
 20 37  1  0  0  0  0
 21 10  1  0  0  0  0
 22 23  3  0  0  0  0
 24 22  1  0  0  0  0
 25 26  2  0  0  0  0
 26 28  1  0  0  0  0
 26 29  1  0  0  0  0
 26 27  2  0  0  0  0
 28 24  1  0  0  0  0
 29 28  1  6  0  0  0
 31 30  1  1  0  0  0
 32 31  1  0  0  0  0
 33 34  1  1  0  0  0
 33 32  1  0  0  0  0
 33 29  1  0  0  0  0
 35 34  1  0  0  0  0
 35 36  1  0  0  0  0
 36 31  1  0  0  0  0
 37 38  1  0  0  0  0
 38 40  1  0  0  0  0
 40 39  2  0  0  0  0
 40 41  1  0  0  0  0
M  END
>  <MODEL>
3

>  <REMARK>
 VINA RESULT:      -6.8      4.765      8.806
  Name = 
  7 active torsions:
  status: ('A' for Active; 'I' for Inactive)
    1  A    between atoms: N_3  and  O_31
    2  A    between atoms: N_3  and  C_39
    3  A    between atoms: C_14  and  C_35
    4  A    between atoms: C_15  and  N_34
    5  A    between atoms: N_27  and  C_35
    6  A    between atoms: C_28  and  O_31
    7  A    between atoms: C_37  and  C_40
                            x       y       z     vdW  Elec       q    Type
                         _______ _______ _______ _____ _____    ______ ____

>  <TORSDO>
F 7

$$$$
=
 OpenBabel10232412023D

 41 45  0  0  1  0  0  0  0  0999 V2000
  188.0650  176.8250  145.3480 C   0  0  0  0  0  3  0  0  0  0  0  0
  186.5120  178.4040  141.9660 C   0  0  0  0  0  0  0  0  0  0  0  0
  186.7250  178.3720  139.5360 C   0  0  0  0  0  0  0  0  0  0  0  0
  187.4200  178.0250  138.2670 C   0  0  0  0  0  1  0  0  0  0  0  0
  191.6730  177.6700  141.4260 C   0  0  0  0  0  3  0  0  0  0  0  0
  187.2700  178.0790  140.8110 C   0  0  0  0  0  0  0  0  0  0  0  0
  187.3760  176.4600  143.7300 S   0  0  0  0  0  0  0  0  0  0  0  0
  192.0090  178.6850  143.6680 C   0  0  0  0  0  3  0  0  0  0  0  0
  191.3400  177.8230  142.7140 C   0  0  0  0  0  0  0  0  0  0  0  0
  185.2700  179.0410  141.8120 C   0  0  0  0  0  0  0  0  0  0  0  0
  189.5930  177.4320  140.1050 C   0  0  0  0  0  3  0  0  0  0  0  0
  188.6080  177.4690  140.9980 C   0  0  0  0  0  3  0  0  0  0  0  0
  190.2420  177.2030  143.3620 N   0  0  0  0  0  0  0  0  0  0  0  0
  190.2650  177.6940  144.5600 C   0  0  0  0  0  0  0  0  0  0  0  0
  185.5150  178.9800  139.4410 N   0  0  0  0  0  0  0  0  0  0  0  0
  191.3620  178.6010  144.7850 N   0  0  0  0  0  0  0  0  0  0  0  0
  187.0650  178.2190  143.3560 C   0  0  0  0  0  2  0  0  0  0  0  0
  184.2950  179.5260  143.1970 Cl  0  0  0  0  0  0  0  0  0  0  0  0
  190.9150  176.8140  140.4470 C   0  0  1  0  0  3  0  0  0  0  0  0
  189.2740  177.3380  145.6120 C   0  0  0  0  0  0  0  0  0  0  0  0
  184.7880  179.3100  140.5340 C   0  0  0  0  0  3  0  0  0  0  0  0
  192.3320  176.6570  138.1850 C   0  0  0  0  0  0  0  0  0  0  0  0
  191.7050  176.7310  139.2140 C   0  0  0  0  0  0  0  0  0  0  0  0
  193.0820  176.5240  136.9280 C   0  0  0  0  0  2  0  0  0  0  0  0
  193.9770  173.8140  134.4110 O   0  0  0  0  0  0  0  0  0  0  0  0
  193.5380  175.2240  134.6960 S   0  0  0  0  0  0  0  0  0  0  0  0
  194.5540  176.3300  134.5720 O   0  0  0  0  0  0  0  0  0  0  0  0
  192.7550  175.2650  136.2680 N   0  0  0  0  0  0  0  0  0  0  0  0
  191.9070  175.5800  135.2220 N   0  0  2  0  0  0  0  0  0  0  0  0
  189.1220  176.2110  136.4380 C   0  0  0  0  0  1  0  0  0  0  0  0
  188.6930  175.1160  135.4750 C   0  0  1  0  0  3  0  0  0  0  0  0
  189.7190  174.9360  134.3470 C   0  0  0  0  0  2  0  0  0  0  0  0
  191.0770  174.4200  134.8620 C   0  0  2  0  0  3  0  0  0  0  0  0
  190.9160  173.4270  136.0370 C   0  0  0  0  0  2  0  0  0  0  0  0
  189.5460  172.7620  136.0580 C   0  0  0  0  0  2  0  0  0  0  0  0
  188.4400  173.8100  136.2440 C   0  0  0  0  0  2  0  0  0  0  0  0
  189.5750  177.5620  146.9880 N   0  0  0  0  0  2  0  0  0  0  0  0
  188.7180  177.1800  148.0030 O   0  0  0  0  0  0  0  0  0  0  0  0
  187.9020  178.3130  149.9850 O   0  0  0  0  0  1  0  0  0  0  0  0
  187.8660  178.1060  148.6060 C   0  0  0  0  0  0  0  0  0  0  0  0
  187.0620  178.7750  147.8970 O   0  0  0  0  0  0  0  0  0  0  0  0
  1 20  2  0  0  0  0
  2 17  1  0  0  0  0
  3  6  1  0  0  0  0
  4  3  1  0  0  0  0
  5  9  2  0  0  0  0
  6 12  1  0  0  0  0
  6  2  2  0  0  0  0
  7  1  1  0  0  0  0
  8 16  2  0  0  0  0
  9 13  1  0  0  0  0
  9  8  1  0  0  0  0
 10  2  1  0  0  0  0
 10 18  1  0  0  0  0
 11 19  1  0  0  0  0
 11 12  2  0  0  0  0
 13 14  2  0  0  0  0
 14 16  1  0  0  0  0
 14 20  1  0  0  0  0
 15  3  2  0  0  0  0
 15 21  1  0  0  0  0
 17  7  1  0  0  0  0
 19 23  1  6  0  0  0
 19  5  1  0  0  0  0
 20 37  1  0  0  0  0
 21 10  2  0  0  0  0
 22 23  3  0  0  0  0
 24 22  1  0  0  0  0
 25 26  2  0  0  0  0
 26 29  1  0  0  0  0
 26 28  1  0  0  0  0
 27 26  2  0  0  0  0
 28 24  1  0  0  0  0
 29 28  1  1  0  0  0
 31 36  1  0  0  0  0
 31 30  1  1  0  0  0
 32 31  1  0  0  0  0
 33 32  1  1  0  0  0
 33 29  1  0  0  0  0
 33 34  1  0  0  0  0
 34 35  1  0  0  0  0
 35 36  1  0  0  0  0
 37 38  1  0  0  0  0
 38 40  1  0  0  0  0
 40 39  1  0  0  0  0
 41 40  2  0  0  0  0
M  END
>  <MODEL>
4

>  <REMARK>
 VINA RESULT:      -6.8      2.164      3.083
  Name = 
  7 active torsions:
  status: ('A' for Active; 'I' for Inactive)
    1  A    between atoms: N_3  and  O_31
    2  A    between atoms: N_3  and  C_39
    3  A    between atoms: C_14  and  C_35
    4  A    between atoms: C_15  and  N_34
    5  A    between atoms: N_27  and  C_35
    6  A    between atoms: C_28  and  O_31
    7  A    between atoms: C_37  and  C_40
                            x       y       z     vdW  Elec       q    Type
                         _______ _______ _______ _____ _____    ______ ____

>  <TORSDO>
F 7

$$$$
=
 OpenBabel10232412023D

 41 45  0  0  1  0  0  0  0  0999 V2000
  189.3140  176.5780  146.7740 C   0  0  0  0  0  3  0  0  0  0  0  0
  186.2800  178.3980  144.8160 C   0  0  0  0  0  0  0  0  0  0  0  0
  185.2430  178.6120  142.6180 C   0  0  0  0  0  0  0  0  0  0  0  0
  185.2040  178.4260  141.1430 C   0  0  0  0  0  1  0  0  0  0  0  0
  190.4670  177.9790  141.6920 C   0  0  0  0  0  3  0  0  0  0  0  0
  186.3540  178.2250  143.4090 C   0  0  0  0  0  0  0  0  0  0  0  0
  187.9030  176.3380  145.6880 S   0  0  0  0  0  0  0  0  0  0  0  0
  191.8890  178.7870  143.5600 C   0  0  0  0  0  3  0  0  0  0  0  0
  190.8270  177.9890  142.9810 C   0  0  0  0  0  0  0  0  0  0  0  0
  185.1330  178.9840  145.3750 C   0  0  0  0  0  0  0  0  0  0  0  0
  188.0030  177.7660  141.5710 C   0  0  0  0  0  3  0  0  0  0  0  0
  187.6010  177.6670  142.8350 C   0  0  0  0  0  3  0  0  0  0  0  0
  190.2000  177.2550  144.0200 N   0  0  0  0  0  0  0  0  0  0  0  0
  190.8240  177.6280  145.0900 C   0  0  0  0  0  0  0  0  0  0  0  0
  184.1520  179.1660  143.2080 N   0  0  0  0  0  0  0  0  0  0  0  0
  191.8910  178.5630  144.8340 N   0  0  0  0  0  0  0  0  0  0  0  0
  187.4560  178.1070  145.7140 C   0  0  0  0  0  2  0  0  0  0  0  0
  184.9880  179.2830  147.1050 Cl  0  0  0  0  0  0  0  0  0  0  0  0
  189.3150  177.1850  141.1360 C   0  0  1  0  0  3  0  0  0  0  0  0
  190.4950  177.1230  146.4500 C   0  0  0  0  0  0  0  0  0  0  0  0
  184.0750  179.3510  144.5470 C   0  0  0  0  0  3  0  0  0  0  0  0
  189.4200  177.2990  138.4660 C   0  0  0  0  0  0  0  0  0  0  0  0
  189.3770  177.2610  139.6720 C   0  0  0  0  0  0  0  0  0  0  0  0
  189.4980  177.3090  137.0000 C   0  0  0  0  0  2  0  0  0  0  0  0
  188.9950  174.6130  134.3610 O   0  0  0  0  0  0  0  0  0  0  0  0
  189.0630  176.0700  134.7290 S   0  0  0  0  0  0  0  0  0  0  0  0
  190.3080  176.8420  134.3760 O   0  0  0  0  0  0  0  0  0  0  0  0
  188.6820  176.2400  136.4350 N   0  0  0  0  0  0  0  0  0  0  0  0
  187.7610  176.8490  135.6030 N   0  0  2  0  0  0  0  0  0  0  0  0
  185.7040  178.0140  137.6140 C   0  0  0  0  0  1  0  0  0  0  0  0
  184.7390  177.2040  136.7640 C   0  0  1  0  0  3  0  0  0  0  0  0
  185.3300  176.9140  135.3760 C   0  0  0  0  0  2  0  0  0  0  0  0
  186.5690  176.0010  135.4430 C   0  0  2  0  0  3  0  0  0  0  0  0
  186.4510  174.9380  136.5600 C   0  0  0  0  0  2  0  0  0  0  0  0
  185.0060  174.6540  136.9480 C   0  0  0  0  0  2  0  0  0  0  0  0
  184.3380  175.9180  137.5050 C   0  0  0  0  0  2  0  0  0  0  0  0
  191.4470  177.2260  147.5070 N   0  0  0  0  0  2  0  0  0  0  0  0
  192.5440  176.3890  147.5990 O   0  0  0  0  0  0  0  0  0  0  0  0
  193.8900  176.9800  149.5270 O   0  0  0  0  0  1  0  0  0  0  0  0
  193.0930  176.0640  148.8390 C   0  0  0  0  0  0  0  0  0  0  0  0
  192.8580  174.9340  149.3530 O   0  0  0  0  0  0  0  0  0  0  0  0
  2 10  1  0  0  0  0
  2 17  1  0  0  0  0
  3 15  2  0  0  0  0
  3  6  1  0  0  0  0
  4  3  1  0  0  0  0
  5  9  2  0  0  0  0
  6  2  2  0  0  0  0
  7 17  1  0  0  0  0
  7  1  1  0  0  0  0
  8 16  2  0  0  0  0
  9  8  1  0  0  0  0
  9 13  1  0  0  0  0
 10 18  1  0  0  0  0
 11 12  2  0  0  0  0
 12  6  1  0  0  0  0
 13 14  2  0  0  0  0
 14 20  1  0  0  0  0
 15 21  1  0  0  0  0
 16 14  1  0  0  0  0
 19 23  1  6  0  0  0
 19 11  1  0  0  0  0
 19  5  1  0  0  0  0
 20  1  2  0  0  0  0
 20 37  1  0  0  0  0
 21 10  2  0  0  0  0
 22 23  3  0  0  0  0
 24 22  1  0  0  0  0
 25 26  2  0  0  0  0
 26 29  1  0  0  0  0
 26 28  1  0  0  0  0
 27 26  2  0  0  0  0
 28 24  1  0  0  0  0
 29 28  1  1  0  0  0
 31 36  1  0  0  0  0
 31 30  1  1  0  0  0
 32 31  1  0  0  0  0
 33 32  1  1  0  0  0
 33 29  1  0  0  0  0
 33 34  1  0  0  0  0
 34 35  1  0  0  0  0
 35 36  1  0  0  0  0
 37 38  1  0  0  0  0
 38 40  1  0  0  0  0
 40 41  2  0  0  0  0
 40 39  1  0  0  0  0
M  END
>  <MODEL>
5

>  <REMARK>
 VINA RESULT:      -6.7      4.040      5.352
  Name = 
  7 active torsions:
  status: ('A' for Active; 'I' for Inactive)
    1  A    between atoms: N_3  and  O_31
    2  A    between atoms: N_3  and  C_39
    3  A    between atoms: C_14  and  C_35
    4  A    between atoms: C_15  and  N_34
    5  A    between atoms: N_27  and  C_35
    6  A    between atoms: C_28  and  O_31
    7  A    between atoms: C_37  and  C_40
                            x       y       z     vdW  Elec       q    Type
                         _______ _______ _______ _____ _____    ______ ____

>  <TORSDO>
F 7

$$$$
=
 OpenBabel10232412023D

 41 45  0  0  1  0  0  0  0  0999 V2000
  186.8990  177.2280  137.2110 C   0  0  0  0  0  3  0  0  0  0  0  0
  189.5150  177.3000  140.2940 C   0  0  0  0  0  0  0  0  0  0  0  0
  191.8940  177.4460  140.8140 C   0  0  0  0  0  0  0  0  0  0  0  0
  193.3370  177.4210  140.4550 C   0  0  0  0  0  1  0  0  0  0  0  0
  191.5880  174.7540  136.2090 C   0  0  0  0  0  3  0  0  0  0  0  0
  190.8660  177.2070  139.8680 C   0  0  0  0  0  0  0  0  0  0  0  0
  188.2790  178.1040  137.9560 S   0  0  0  0  0  0  0  0  0  0  0  0
  189.4490  173.5210  135.9450 C   0  0  0  0  0  3  0  0  0  0  0  0
  190.2510  174.7060  136.1790 C   0  0  0  0  0  0  0  0  0  0  0  0
  189.2400  177.5830  141.6410 C   0  0  0  0  0  0  0  0  0  0  0  0
  192.2720  176.3570  137.9680 C   0  0  0  0  0  3  0  0  0  0  0  0
  191.1340  176.8410  138.4570 C   0  0  0  0  0  3  0  0  0  0  0  0
  189.3790  175.7980  136.4160 N   0  0  0  0  0  0  0  0  0  0  0  0
  188.1970  175.2760  136.3590 C   0  0  0  0  0  0  0  0  0  0  0  0
  191.5750  177.7260  142.1040 N   0  0  0  0  0  0  0  0  0  0  0  0
  188.2070  173.8690  136.0480 N   0  0  0  0  0  0  0  0  0  0  0  0
  188.3690  176.9610  139.3750 C   0  0  0  0  0  2  0  0  0  0  0  0
  187.5910  177.6600  142.2580 Cl  0  0  0  0  0  0  0  0  0  0  0  0
  192.3890  175.9900  136.5190 C   0  0  1  0  0  3  0  0  0  0  0  0
  186.9450  176.0550  136.5640 C   0  0  0  0  0  0  0  0  0  0  0  0
  190.2910  177.8020  142.5270 C   0  0  0  0  0  3  0  0  0  0  0  0
  194.9650  175.4550  136.0410 C   0  0  0  0  0  0  0  0  0  0  0  0
  193.7990  175.6970  136.2420 C   0  0  0  0  0  0  0  0  0  0  0  0
  196.3940  175.1980  135.8180 C   0  0  0  0  0  2  0  0  0  0  0  0
  199.2010  173.4710  137.7210 O   0  0  0  0  0  0  0  0  0  0  0  0
  198.5780  173.8720  136.4110 S   0  0  0  0  0  0  0  0  0  0  0  0
  199.1700  175.0370  135.6620 O   0  0  0  0  0  0  0  0  0  0  0  0
  196.8520  174.0930  136.6530 N   0  0  0  0  0  0  0  0  0  0  0  0
  197.1590  173.0550  135.7920 N   0  0  2  0  0  0  0  0  0  0  0  0
  194.4690  171.8400  134.8320 C   0  0  0  0  0  1  0  0  0  0  0  0
  195.0930  170.5700  135.3870 C   0  0  1  0  0  3  0  0  0  0  0  0
  196.6210  170.6940  135.4730 C   0  0  0  0  0  2  0  0  0  0  0  0
  197.0700  171.7620  136.4880 C   0  0  2  0  0  3  0  0  0  0  0  0
  196.1370  171.8240  137.7210 C   0  0  0  0  0  2  0  0  0  0  0  0
  195.3730  170.5250  137.9420 C   0  0  0  0  0  2  0  0  0  0  0  0
  194.4610  170.2250  136.7450 C   0  0  0  0  0  2  0  0  0  0  0  0
  185.6990  175.5530  136.0870 N   0  0  0  0  0  2  0  0  0  0  0  0
  184.7610  174.9810  136.9270 O   0  0  0  0  0  0  0  0  0  0  0  0
  183.9790  172.7310  136.4750 O   0  0  0  0  0  0  0  0  0  0  0  0
  184.7840  173.6130  137.1980 C   0  0  0  0  0  0  0  0  0  0  0  0
  185.5500  173.1620  138.0960 O   0  0  0  0  0  1  0  0  0  0  0  0
  1  7  1  0  0  0  0
  2 10  1  0  0  0  0
  3 15  2  0  0  0  0
  4  3  1  0  0  0  0
  5 19  1  0  0  0  0
  6  2  2  0  0  0  0
  6  3  1  0  0  0  0
  7 17  1  0  0  0  0
  8 16  2  0  0  0  0
  8  9  1  0  0  0  0
  9  5  2  0  0  0  0
  9 13  1  0  0  0  0
 10 18  1  0  0  0  0
 10 21  2  0  0  0  0
 11 12  2  0  0  0  0
 12  6  1  0  0  0  0
 14 13  2  0  0  0  0
 14 20  1  0  0  0  0
 15 21  1  0  0  0  0
 16 14  1  0  0  0  0
 17  2  1  0  0  0  0
 19 23  1  1  0  0  0
 19 11  1  0  0  0  0
 20  1  2  0  0  0  0
 22 23  3  0  0  0  0
 24 22  1  0  0  0  0
 24 28  1  0  0  0  0
 26 28  1  0  0  0  0
 26 25  2  0  0  0  0
 27 26  2  0  0  0  0
 29 26  1  0  0  0  0
 29 33  1  0  0  0  0
 29 28  1  1  0  0  0
 31 30  1  1  0  0  0
 31 32  1  0  0  0  0
 31 36  1  0  0  0  0
 33 32  1  6  0  0  0
 33 34  1  0  0  0  0
 34 35  1  0  0  0  0
 36 35  1  0  0  0  0
 37 20  1  0  0  0  0
 37 38  1  0  0  0  0
 38 40  1  0  0  0  0
 39 40  2  0  0  0  0
 40 41  1  0  0  0  0
M  END
>  <MODEL>
6

>  <REMARK>
 VINA RESULT:      -6.6      4.221      6.611
  Name = 
  7 active torsions:
  status: ('A' for Active; 'I' for Inactive)
    1  A    between atoms: N_3  and  O_31
    2  A    between atoms: N_3  and  C_39
    3  A    between atoms: C_14  and  C_35
    4  A    between atoms: C_15  and  N_34
    5  A    between atoms: N_27  and  C_35
    6  A    between atoms: C_28  and  O_31
    7  A    between atoms: C_37  and  C_40
                            x       y       z     vdW  Elec       q    Type
                         _______ _______ _______ _____ _____    ______ ____

>  <TORSDO>
F 7

$$$$
=
 OpenBabel10232412023D

 41 45  0  0  1  0  0  0  0  0999 V2000
  188.3330  176.6640  146.0830 C   0  0  0  0  0  3  0  0  0  0  0  0
  185.3550  178.4050  143.9740 C   0  0  0  0  0  0  0  0  0  0  0  0
  184.5150  178.7230  141.7060 C   0  0  0  0  0  0  0  0  0  0  0  0
  184.6310  178.6580  140.2240 C   0  0  0  0  0  1  0  0  0  0  0  0
  189.8380  178.5710  141.2650 C   0  0  0  0  0  3  0  0  0  0  0  0
  185.5750  178.3560  142.5730 C   0  0  0  0  0  0  0  0  0  0  0  0
  187.0560  176.4090  144.8450 S   0  0  0  0  0  0  0  0  0  0  0  0
  191.0040  179.3260  143.3220 C   0  0  0  0  0  3  0  0  0  0  0  0
  190.0720  178.5000  142.5810 C   0  0  0  0  0  0  0  0  0  0  0  0
  184.1140  178.8520  144.4570 C   0  0  0  0  0  0  0  0  0  0  0  0
  187.4230  178.1810  140.8800 C   0  0  0  0  0  3  0  0  0  0  0  0
  186.9140  177.9460  142.0860 C   0  0  0  0  0  3  0  0  0  0  0  0
  189.4140  177.6360  143.4920 N   0  0  0  0  0  0  0  0  0  0  0  0
  189.9010  177.9640  144.6450 C   0  0  0  0  0  0  0  0  0  0  0  0
  183.3310  179.1390  142.2230 N   0  0  0  0  0  0  0  0  0  0  0  0
  190.9050  178.9960  144.5690 N   0  0  0  0  0  0  0  0  0  0  0  0
  186.4610  178.1300  144.9610 C   0  0  0  0  0  2  0  0  0  0  0  0
  183.7830  178.9930  146.1820 Cl  0  0  0  0  0  0  0  0  0  0  0  0
  188.8140  177.7400  140.5370 C   0  0  1  0  0  3  0  0  0  0  0  0
  189.4890  177.3230  145.9230 C   0  0  0  0  0  0  0  0  0  0  0  0
  183.1120  179.2060  143.5570 C   0  0  0  0  0  3  0  0  0  0  0  0
  189.1560  178.1370  137.9140 C   0  0  0  0  0  0  0  0  0  0  0  0
  189.0080  177.9440  139.0970 C   0  0  0  0  0  0  0  0  0  0  0  0
  189.2910  178.3760  136.4710 C   0  0  0  0  0  2  0  0  0  0  0  0
  187.7140  175.6380  134.3490 O   0  0  0  0  0  0  0  0  0  0  0  0
  187.8430  176.3390  135.6740 S   0  0  0  0  0  0  0  0  0  0  0  0
  186.7530  177.2930  136.0890 O   0  0  0  0  0  0  0  0  0  0  0  0
  189.4180  177.1120  135.7520 N   0  0  0  0  0  0  0  0  0  0  0  0
  189.2500  176.1100  136.6910 N   0  0  2  0  0  0  0  0  0  0  0  0
  192.0320  176.1650  138.0660 C   0  0  0  0  0  1  0  0  0  0  0  0
  192.0020  174.6900  137.6980 C   0  0  1  0  0  3  0  0  0  0  0  0
  190.5640  174.2040  137.4680 C   0  0  0  0  0  2  0  0  0  0  0  0
  189.9050  174.8700  136.2450 C   0  0  2  0  0  3  0  0  0  0  0  0
  190.9150  175.1190  135.1010 C   0  0  0  0  0  2  0  0  0  0  0  0
  192.1250  174.1970  135.1780 C   0  0  0  0  0  2  0  0  0  0  0  0
  192.9030  174.4350  136.4790 C   0  0  0  0  0  2  0  0  0  0  0  0
  190.3250  177.4100  147.0750 N   0  0  0  0  0  2  0  0  0  0  0  0
  190.8370  176.2900  147.7040 O   0  0  0  0  0  0  0  0  0  0  0  0
  193.1530  176.0410  148.3760 O   0  0  0  0  0  1  0  0  0  0  0  0
  192.1350  175.8520  147.4410 C   0  0  0  0  0  0  0  0  0  0  0  0
  192.3920  175.2660  146.3510 O   0  0  0  0  0  0  0  0  0  0  0  0
  2 10  1  0  0  0  0
  2 17  1  0  0  0  0
  3 15  2  0  0  0  0
  3  6  1  0  0  0  0
  4  3  1  0  0  0  0
  5  9  2  0  0  0  0
  6  2  2  0  0  0  0
  7 17  1  0  0  0  0
  7  1  1  0  0  0  0
  8 16  2  0  0  0  0
  9  8  1  0  0  0  0
  9 13  1  0  0  0  0
 10 18  1  0  0  0  0
 11 12  2  0  0  0  0
 12  6  1  0  0  0  0
 13 14  2  0  0  0  0
 14 20  1  0  0  0  0
 15 21  1  0  0  0  0
 16 14  1  0  0  0  0
 19 23  1  6  0  0  0
 19 11  1  0  0  0  0
 19  5  1  0  0  0  0
 20  1  2  0  0  0  0
 20 37  1  0  0  0  0
 21 10  2  0  0  0  0
 22 23  3  0  0  0  0
 24 22  1  0  0  0  0
 25 26  2  0  0  0  0
 26 28  1  0  0  0  0
 26 27  2  0  0  0  0
 26 29  1  0  0  0  0
 28 24  1  0  0  0  0
 29 28  1  6  0  0  0
 31 30  1  6  0  0  0
 32 31  1  0  0  0  0
 33 34  1  6  0  0  0
 33 29  1  0  0  0  0
 33 32  1  0  0  0  0
 34 35  1  0  0  0  0
 35 36  1  0  0  0  0
 36 31  1  0  0  0  0
 37 38  1  0  0  0  0
 40 38  1  0  0  0  0
 40 39  1  0  0  0  0
 41 40  2  0  0  0  0
M  END
>  <MODEL>
7

>  <REMARK>
 VINA RESULT:      -6.4      3.019      3.813
  Name = 
  7 active torsions:
  status: ('A' for Active; 'I' for Inactive)
    1  A    between atoms: N_3  and  O_31
    2  A    between atoms: N_3  and  C_39
    3  A    between atoms: C_14  and  C_35
    4  A    between atoms: C_15  and  N_34
    5  A    between atoms: N_27  and  C_35
    6  A    between atoms: C_28  and  O_31
    7  A    between atoms: C_37  and  C_40
                            x       y       z     vdW  Elec       q    Type
                         _______ _______ _______ _____ _____    ______ ____

>  <TORSDO>
F 7

$$$$
=
 OpenBabel10232412023D

 41 45  0  0  1  0  0  0  0  0999 V2000
  188.2610  176.7090  146.1450 C   0  0  0  0  0  3  0  0  0  0  0  0
  185.4080  178.3880  143.8240 C   0  0  0  0  0  0  0  0  0  0  0  0
  184.6750  178.6070  141.5080 C   0  0  0  0  0  0  0  0  0  0  0  0
  184.8550  178.4690  140.0370 C   0  0  0  0  0  1  0  0  0  0  0  0
  190.0080  178.3560  141.3130 C   0  0  0  0  0  3  0  0  0  0  0  0
  185.6890  178.2680  142.4380 C   0  0  0  0  0  0  0  0  0  0  0  0
  187.0360  176.4120  144.8650 S   0  0  0  0  0  0  0  0  0  0  0  0
  191.0960  179.1940  143.3830 C   0  0  0  0  0  3  0  0  0  0  0  0
  190.1840  178.3470  142.6400 C   0  0  0  0  0  0  0  0  0  0  0  0
  184.1550  178.8760  144.2290 C   0  0  0  0  0  0  0  0  0  0  0  0
  187.6070  177.9840  140.8400 C   0  0  0  0  0  3  0  0  0  0  0  0
  187.0410  177.8150  142.0320 C   0  0  0  0  0  3  0  0  0  0  0  0
  189.4720  177.5370  143.5620 N   0  0  0  0  0  0  0  0  0  0  0  0
  189.9130  177.9150  144.7190 C   0  0  0  0  0  0  0  0  0  0  0  0
  183.4760  179.0650  141.9510 N   0  0  0  0  0  0  0  0  0  0  0  0
  190.9360  178.9270  144.6380 N   0  0  0  0  0  0  0  0  0  0  0  0
  186.4650  178.1450  144.8710 C   0  0  0  0  0  2  0  0  0  0  0  0
  183.7510  179.1060  145.9280 Cl  0  0  0  0  0  0  0  0  0  0  0  0
  189.0040  177.5070  140.5810 C   0  0  1  0  0  3  0  0  0  0  0  0
  189.4340  177.3420  146.0060 C   0  0  0  0  0  0  0  0  0  0  0  0
  183.2000  179.2000  143.2690 C   0  0  0  0  0  3  0  0  0  0  0  0
  189.4870  177.7710  137.9640 C   0  0  0  0  0  0  0  0  0  0  0  0
  189.2650  177.6370  139.1430 C   0  0  0  0  0  0  0  0  0  0  0  0
  189.7270  177.9670  136.5280 C   0  0  0  0  0  2  0  0  0  0  0  0
  186.4060  178.0140  134.6720 O   0  0  0  0  0  0  0  0  0  0  0  0
  187.1660  178.0590  135.9690 S   0  0  0  0  0  0  0  0  0  0  0  0
  187.3360  179.3880  136.6560 O   0  0  0  0  0  0  0  0  0  0  0  0
  188.7180  177.2680  135.7400 N   0  0  0  0  0  0  0  0  0  0  0  0
  187.8970  176.6180  136.6430 N   0  0  2  0  0  0  0  0  0  0  0  0
  189.8080  174.2350  137.1930 C   0  0  0  0  0  1  0  0  0  0  0  0
  188.5710  173.4360  136.8170 C   0  0  1  0  0  3  0  0  0  0  0  0
  187.2960  174.2750  136.9850 C   0  0  0  0  0  2  0  0  0  0  0  0
  187.2400  175.4650  136.0080 C   0  0  2  0  0  3  0  0  0  0  0  0
  187.8610  175.1210  134.6340 C   0  0  0  0  0  2  0  0  0  0  0  0
  187.8650  173.6240  134.3520 C   0  0  0  0  0  2  0  0  0  0  0  0
  188.7180  172.8820  135.3900 C   0  0  0  0  0  2  0  0  0  0  0  0
  190.2200  177.4730  147.1890 N   0  0  0  0  0  2  0  0  0  0  0  0
  190.7670  176.3820  147.8380 O   0  0  0  0  0  0  0  0  0  0  0  0
  193.0850  176.1850  148.5200 O   0  0  0  0  0  1  0  0  0  0  0  0
  192.0770  175.9780  147.5780 C   0  0  0  0  0  0  0  0  0  0  0  0
  192.3530  175.4050  146.4860 O   0  0  0  0  0  0  0  0  0  0  0  0
  2 10  1  0  0  0  0
  2 17  1  0  0  0  0
  3 15  2  0  0  0  0
  3  6  1  0  0  0  0
  4  3  1  0  0  0  0
  5  9  2  0  0  0  0
  6  2  2  0  0  0  0
  7 17  1  0  0  0  0
  7  1  1  0  0  0  0
  8 16  2  0  0  0  0
  9  8  1  0  0  0  0
  9 13  1  0  0  0  0
 10 18  1  0  0  0  0
 11 12  2  0  0  0  0
 12  6  1  0  0  0  0
 13 14  2  0  0  0  0
 14 20  1  0  0  0  0
 15 21  1  0  0  0  0
 16 14  1  0  0  0  0
 19 23  1  6  0  0  0
 19 11  1  0  0  0  0
 19  5  1  0  0  0  0
 20  1  2  0  0  0  0
 20 37  1  0  0  0  0
 21 10  2  0  0  0  0
 22 23  3  0  0  0  0
 24 22  1  0  0  0  0
 25 26  2  0  0  0  0
 26 29  1  0  0  0  0
 26 27  2  0  0  0  0
 28 26  1  0  0  0  0
 28 24  1  0  0  0  0
 29 28  1  6  0  0  0
 31 32  1  0  0  0  0
 31 30  1  6  0  0  0
 33 34  1  6  0  0  0
 33 29  1  0  0  0  0
 33 32  1  0  0  0  0
 35 34  1  0  0  0  0
 35 36  1  0  0  0  0
 36 31  1  0  0  0  0
 37 38  1  0  0  0  0
 40 38  1  0  0  0  0
 40 39  1  0  0  0  0
 41 40  2  0  0  0  0
M  END
>  <MODEL>
8

>  <REMARK>
 VINA RESULT:      -6.4      3.846      4.541
  Name = 
  7 active torsions:
  status: ('A' for Active; 'I' for Inactive)
    1  A    between atoms: N_3  and  O_31
    2  A    between atoms: N_3  and  C_39
    3  A    between atoms: C_14  and  C_35
    4  A    between atoms: C_15  and  N_34
    5  A    between atoms: N_27  and  C_35
    6  A    between atoms: C_28  and  O_31
    7  A    between atoms: C_37  and  C_40
                            x       y       z     vdW  Elec       q    Type
                         _______ _______ _______ _____ _____    ______ ____

>  <TORSDO>
F 7

$$$$
=
 OpenBabel10232412023D

 41 45  0  0  1  0  0  0  0  0999 V2000
  189.3020  176.0180  143.2520 C   0  0  0  0  0  3  0  0  0  0  0  0
  186.2810  178.1210  144.9240 C   0  0  0  0  0  0  0  0  0  0  0  0
  183.9760  178.8310  144.5540 C   0  0  0  0  0  0  0  0  0  0  0  0
  182.7620  179.0210  143.7160 C   0  0  0  0  0  1  0  0  0  0  0  0
  186.2410  178.7110  139.7170 C   0  0  0  0  0  3  0  0  0  0  0  0
  185.1890  178.3120  144.0370 C   0  0  0  0  0  0  0  0  0  0  0  0
  187.5700  175.9900  143.7250 S   0  0  0  0  0  0  0  0  0  0  0  0
  188.6940  179.0910  139.7830 C   0  0  0  0  0  3  0  0  0  0  0  0
  187.4700  178.4130  140.1590 C   0  0  0  0  0  0  0  0  0  0  0  0
  186.1400  178.4900  146.2720 C   0  0  0  0  0  0  0  0  0  0  0  0
  184.6460  178.4140  141.5860 C   0  0  0  0  0  3  0  0  0  0  0  0
  185.3820  177.9790  142.6050 C   0  0  0  0  0  3  0  0  0  0  0  0
  187.7850  177.4110  141.1110 N   0  0  0  0  0  0  0  0  0  0  0  0
  189.0610  177.5330  141.2850 C   0  0  0  0  0  0  0  0  0  0  0  0
  183.8880  179.1630  145.8680 N   0  0  0  0  0  0  0  0  0  0  0  0
  189.6570  178.5530  140.4600 N   0  0  0  0  0  0  0  0  0  0  0  0
  187.6330  177.6710  144.4320 C   0  0  0  0  0  2  0  0  0  0  0  0
  187.4650  178.3350  147.4220 Cl  0  0  0  0  0  0  0  0  0  0  0  0
  184.9820  178.0270  140.1770 C   0  0  1  0  0  3  0  0  0  0  0  0
  189.8450  176.6850  142.2240 C   0  0  0  0  0  0  0  0  0  0  0  0
  184.9250  179.0010  146.7220 C   0  0  0  0  0  3  0  0  0  0  0  0
  182.9720  178.8140  138.6000 C   0  0  0  0  0  0  0  0  0  0  0  0
  183.8830  178.4730  139.3140 C   0  0  0  0  0  0  0  0  0  0  0  0
  181.8800  179.2040  137.6980 C   0  0  0  0  0  2  0  0  0  0  0  0
  180.4040  176.9890  134.9780 O   0  0  0  0  0  0  0  0  0  0  0  0
  180.9530  177.1410  136.3700 S   0  0  0  0  0  0  0  0  0  0  0  0
  179.9840  177.1710  137.5240 O   0  0  0  0  0  0  0  0  0  0  0  0
  182.0180  178.5370  136.4080 N   0  0  0  0  0  0  0  0  0  0  0  0
  182.6690  177.3420  136.6540 N   0  0  2  0  0  0  0  0  0  0  0  0
  184.2230  174.8200  137.5800 C   0  0  0  0  0  1  0  0  0  0  0  0
  184.2880  174.5740  136.0820 C   0  0  1  0  0  3  0  0  0  0  0  0
  183.1830  175.3450  135.3440 C   0  0  0  0  0  2  0  0  0  0  0  0
  183.3620  176.8720  135.4440 C   0  0  2  0  0  3  0  0  0  0  0  0
  184.8520  177.2870  135.4240 C   0  0  0  0  0  2  0  0  0  0  0  0
  185.7430  176.2390  134.7690 C   0  0  0  0  0  2  0  0  0  0  0  0
  185.6890  174.9200  135.5530 C   0  0  0  0  0  2  0  0  0  0  0  0
  191.2590  176.5660  142.0760 N   0  0  0  0  0  2  0  0  0  0  0  0
  192.1460  177.3310  142.8090 O   0  0  0  0  0  0  0  0  0  0  0  0
  191.6340  177.5270  145.1710 O   0  0  0  0  0  1  0  0  0  0  0  0
  191.7080  178.0890  143.8960 C   0  0  0  0  0  0  0  0  0  0  0  0
  191.3900  179.3000  143.7300 O   0  0  0  0  0  0  0  0  0  0  0  0
  1  7  1  0  0  0  0
  2 10  1  0  0  0  0
  3 15  2  0  0  0  0
  4  3  1  0  0  0  0
  5  9  2  0  0  0  0
  5 19  1  0  0  0  0
  6  3  1  0  0  0  0
  6  2  2  0  0  0  0
  7 17  1  0  0  0  0
  8  9  1  0  0  0  0
  8 16  2  0  0  0  0
  9 13  1  0  0  0  0
 10 21  2  0  0  0  0
 10 18  1  0  0  0  0
 11 12  2  0  0  0  0
 12  6  1  0  0  0  0
 13 14  2  0  0  0  0
 14 20  1  0  0  0  0
 15 21  1  0  0  0  0
 16 14  1  0  0  0  0
 17  2  1  0  0  0  0
 19 23  1  6  0  0  0
 19 11  1  0  0  0  0
 20  1  2  0  0  0  0
 22 23  3  0  0  0  0
 24 22  1  0  0  0  0
 25 26  2  0  0  0  0
 26 28  1  0  0  0  0
 26 29  1  0  0  0  0
 26 27  2  0  0  0  0
 28 24  1  0  0  0  0
 29 28  1  6  0  0  0
 31 30  1  1  0  0  0
 32 31  1  0  0  0  0
 33 32  1  1  0  0  0
 33 29  1  0  0  0  0
 34 33  1  0  0  0  0
 35 34  1  0  0  0  0
 35 36  1  0  0  0  0
 36 31  1  0  0  0  0
 37 20  1  0  0  0  0
 37 38  1  0  0  0  0
 38 40  1  0  0  0  0
 40 39  1  0  0  0  0
 41 40  2  0  0  0  0
M  END
>  <MODEL>
9

>  <REMARK>
 VINA RESULT:      -6.2      5.256      8.160
  Name = 
  7 active torsions:
  status: ('A' for Active; 'I' for Inactive)
    1  A    between atoms: N_3  and  O_31
    2  A    between atoms: N_3  and  C_39
    3  A    between atoms: C_14  and  C_35
    4  A    between atoms: C_15  and  N_34
    5  A    between atoms: N_27  and  C_35
    6  A    between atoms: C_28  and  O_31
    7  A    between atoms: C_37  and  C_40
                            x       y       z     vdW  Elec       q    Type
                         _______ _______ _______ _____ _____    ______ ____

>  <TORSDO>
F 7

$$$$
