=
 OpenBabel10232412313D

 29 32  0  0  1  0  0  0  0  0999 V2000
  187.6770  178.6560  140.7240 N   0  0  0  0  0  0  0  0  0  0  0  0
  188.4670  178.2990  139.7560 C   0  0  0  0  0  0  0  0  0  0  0  0
  187.9660  178.0390  138.3610 C   0  0  2  0  0  3  0  0  0  0  0  0
  189.3260  176.7170  136.1720 C   0  0  0  0  0  3  0  0  0  0  0  0
  189.4600  178.0040  136.2890 N   0  0  0  0  0  0  0  0  0  0  0  0
  187.8380  176.5590  138.1020 C   0  0  0  0  0  3  0  0  0  0  0  0
  188.4720  175.9530  137.0950 C   0  0  0  0  0  3  0  0  0  0  0  0
  188.7970  178.7470  137.3190 C   0  0  0  0  0  0  0  0  0  0  0  0
  188.9040  180.0000  137.3470 O   0  0  0  0  0  0  0  0  0  0  0  0
  186.3190  178.7900  140.5460 O   0  0  0  0  0  0  0  0  0  0  0  0
  184.3380  178.2300  141.7600 C   0  0  0  0  0  2  0  0  0  0  0  0
  185.4960  179.1940  141.6230 C   0  0  1  0  0  3  0  0  0  0  0  0
  185.5270  178.1220  142.6920 C   0  0  1  0  0  3  0  0  0  0  0  0
  185.1760  178.7510  144.0270 C   0  0  0  0  0  2  0  0  0  0  0  0
  188.1190  178.1090  146.9520 O   0  0  0  0  0  0  0  0  0  0  0  0
  186.8130  178.2300  147.4600 C   0  0  0  0  0  2  0  0  0  0  0  0
  188.0720  177.1350  145.9380 C   0  0  0  0  0  2  0  0  0  0  0  0
  185.8850  178.0270  145.1580 C   0  0  0  0  0  3  0  0  0  0  0  0
  185.9090  178.8930  146.4200 C   0  0  0  0  0  2  0  0  0  0  0  0
  187.3070  177.6780  144.7300 C   0  0  0  0  0  2  0  0  0  0  0  0
  189.9330  178.2110  140.0150 C   0  0  0  0  0  2  0  0  0  0  0  0
  190.2350  177.0600  140.9210 C   0  0  0  0  0  0  0  0  0  0  0  0
  190.1670  175.8900  140.4560 O   0  0  0  0  0  0  0  0  0  0  0  0
  190.9680  178.7720  144.2120 C   0  0  0  0  0  3  0  0  0  0  0  0
  191.3890  177.6960  144.9980 C   0  0  0  0  0  3  0  0  0  0  0  0
  191.0600  176.2010  143.1230 C   0  0  0  0  0  3  0  0  0  0  0  0
  190.5920  178.5620  142.8820 C   0  0  0  0  0  3  0  0  0  0  0  0
  191.4350  176.4100  144.4530 C   0  0  0  0  0  3  0  0  0  0  0  0
  190.6350  177.2750  142.3270 C   0  0  0  0  0  0  0  0  0  0  0  0
  2 21  1  0  0  0  0
  2  1  2  0  0  0  0
  3  2  1  1  0  0  0
  4  5  2  0  0  0  0
  4  7  1  0  0  0  0
  5  8  1  0  0  0  0
  6  3  1  0  0  0  0
  7  6  2  0  0  0  0
  8  9  2  0  0  0  0
  8  3  1  0  0  0  0
 10  1  1  0  0  0  0
 11 13  1  0  0  0  0
 12 10  1  6  0  0  0
 12 11  1  0  0  0  0
 12 13  1  0  0  0  0
 13 14  1  1  0  0  0
 14 18  1  0  0  0  0
 15 16  1  0  0  0  0
 17 15  1  0  0  0  0
 18 19  1  0  0  0  0
 19 16  1  0  0  0  0
 20 18  1  0  0  0  0
 20 17  1  0  0  0  0
 21 22  1  0  0  0  0
 22 29  1  0  0  0  0
 23 22  2  0  0  0  0
 24 25  1  0  0  0  0
 26 28  1  0  0  0  0
 27 24  2  0  0  0  0
 28 25  2  0  0  0  0
 29 27  1  0  0  0  0
 29 26  2  0  0  0  0
M  END
>  <MODEL>
1

>  <REMARK>
 VINA RESULT:      -8.0      0.000      0.000
  Name = 
  8 active torsions:
  status: ('A' for Active; 'I' for Inactive)
    1  A    between atoms: N_2  and  O_19
    2  A    between atoms: C_5  and  C_9
    3  A    between atoms: C_9  and  C_25
    4  A    between atoms: C_14  and  O_19
    5  A    between atoms: C_16  and  C_22
    6  A    between atoms: C_16  and  C_25
    7  A    between atoms: C_20  and  C_24
    8  A    between atoms: C_21  and  C_24
                            x       y       z     vdW  Elec       q    Type
                         _______ _______ _______ _____ _____    ______ ____

>  <TORSDO>
F 8

$$$$
=
 OpenBabel10232412313D

 29 32  0  0  1  0  0  0  0  0999 V2000
  190.0850  176.6470  141.2530 N   0  0  0  0  0  0  0  0  0  0  0  0
  190.1390  176.4590  142.5380 C   0  0  0  0  0  0  0  0  0  0  0  0
  191.4100  176.6340  143.3250 C   0  0  2  0  0  3  0  0  0  0  0  0
  191.7730  176.5860  146.1980 C   0  0  0  0  0  3  0  0  0  0  0  0
  191.5220  177.7270  145.6320 N   0  0  0  0  0  0  0  0  0  0  0  0
  191.7560  175.3750  144.0780 C   0  0  0  0  0  3  0  0  0  0  0  0
  191.9170  175.3560  145.4030 C   0  0  0  0  0  3  0  0  0  0  0  0
  191.3620  177.8530  144.2140 C   0  0  0  0  0  0  0  0  0  0  0  0
  191.1880  178.9920  143.7070 O   0  0  0  0  0  0  0  0  0  0  0  0
  191.1970  176.9900  140.5180 O   0  0  0  0  0  0  0  0  0  0  0  0
  190.4690  176.0400  138.4500 C   0  0  0  0  0  2  0  0  0  0  0  0
  191.0840  177.2430  139.1310 C   0  0  1  0  0  3  0  0  0  0  0  0
  189.6170  177.2550  138.7550 C   0  0  1  0  0  3  0  0  0  0  0  0
  189.4420  178.0750  137.4910 C   0  0  0  0  0  2  0  0  0  0  0  0
  185.4080  176.9570  137.1660 O   0  0  0  0  0  0  0  0  0  0  0  0
  185.6430  178.0390  138.0340 C   0  0  0  0  0  2  0  0  0  0  0  0
  186.0340  177.2710  135.9460 C   0  0  0  0  0  2  0  0  0  0  0  0
  187.9680  178.2460  137.1680 C   0  0  0  0  0  3  0  0  0  0  0  0
  187.1190  178.0790  138.4300 C   0  0  0  0  0  2  0  0  0  0  0  0
  187.5530  177.2260  136.1130 C   0  0  0  0  0  2  0  0  0  0  0  0
  188.8850  176.1250  143.2730 C   0  0  0  0  0  2  0  0  0  0  0  0
  187.9890  177.3210  143.3430 C   0  0  0  0  0  0  0  0  0  0  0  0
  187.8010  177.9990  142.2980 O   0  0  0  0  0  0  0  0  0  0  0  0
  185.3400  178.5370  145.7530 C   0  0  0  0  0  3  0  0  0  0  0  0
  185.9950  178.3990  146.9790 C   0  0  0  0  0  3  0  0  0  0  0  0
  187.9550  177.5580  145.8350 C   0  0  0  0  0  3  0  0  0  0  0  0
  185.9920  178.1860  144.5670 C   0  0  0  0  0  3  0  0  0  0  0  0
  187.3030  177.9100  147.0200 C   0  0  0  0  0  3  0  0  0  0  0  0
  187.3050  177.6930  144.5990 C   0  0  0  0  0  0  0  0  0  0  0  0
  1  2  2  0  0  0  0
  2 21  1  0  0  0  0
  3  2  1  1  0  0  0
  3  6  1  0  0  0  0
  3  8  1  0  0  0  0
  5  4  2  0  0  0  0
  6  7  2  0  0  0  0
  7  4  1  0  0  0  0
  8  5  1  0  0  0  0
  9  8  2  0  0  0  0
 10  1  1  0  0  0  0
 11 13  1  0  0  0  0
 11 12  1  0  0  0  0
 12 10  1  1  0  0  0
 13 14  1  6  0  0  0
 13 12  1  0  0  0  0
 15 16  1  0  0  0  0
 16 19  1  0  0  0  0
 17 20  1  0  0  0  0
 17 15  1  0  0  0  0
 18 14  1  0  0  0  0
 18 19  1  0  0  0  0
 20 18  1  0  0  0  0
 21 22  1  0  0  0  0
 22 29  1  0  0  0  0
 23 22  2  0  0  0  0
 24 25  1  0  0  0  0
 25 28  2  0  0  0  0
 26 28  1  0  0  0  0
 27 29  1  0  0  0  0
 27 24  2  0  0  0  0
 29 26  2  0  0  0  0
M  END
>  <MODEL>
2

>  <REMARK>
 VINA RESULT:      -7.9      2.228      6.980
  Name = 
  8 active torsions:
  status: ('A' for Active; 'I' for Inactive)
    1  A    between atoms: N_2  and  O_19
    2  A    between atoms: C_5  and  C_9
    3  A    between atoms: C_9  and  C_25
    4  A    between atoms: C_14  and  O_19
    5  A    between atoms: C_16  and  C_22
    6  A    between atoms: C_16  and  C_25
    7  A    between atoms: C_20  and  C_24
    8  A    between atoms: C_21  and  C_24
                            x       y       z     vdW  Elec       q    Type
                         _______ _______ _______ _____ _____    ______ ____

>  <TORSDO>
F 8

$$$$
=
 OpenBabel10232412313D

 29 32  0  0  1  0  0  0  0  0999 V2000
  187.7970  177.7810  141.6670 N   0  0  0  0  0  0  0  0  0  0  0  0
  188.4890  177.1540  142.5700 C   0  0  0  0  0  0  0  0  0  0  0  0
  189.9940  177.1590  142.5800 C   0  0  2  0  0  3  0  0  0  0  0  0
  191.7870  176.4700  144.7480 C   0  0  0  0  0  3  0  0  0  0  0  0
  191.4090  177.7070  144.6360 N   0  0  0  0  0  0  0  0  0  0  0  0
  190.5360  175.7650  142.7720 C   0  0  0  0  0  3  0  0  0  0  0  0
  191.3570  175.4510  143.7770 C   0  0  0  0  0  3  0  0  0  0  0  0
  190.5510  178.1470  143.5750 C   0  0  0  0  0  0  0  0  0  0  0  0
  190.2700  179.3690  143.4700 O   0  0  0  0  0  0  0  0  0  0  0  0
  188.3960  178.4670  140.6340 O   0  0  0  0  0  0  0  0  0  0  0  0
  189.1330  178.8660  138.3970 C   0  0  0  0  0  2  0  0  0  0  0  0
  188.3740  177.9400  139.3220 C   0  0  1  0  0  3  0  0  0  0  0  0
  189.7900  177.6000  138.9080 C   0  0  1  0  0  3  0  0  0  0  0  0
  189.7420  176.5380  137.8250 C   0  0  0  0  0  2  0  0  0  0  0  0
  193.8400  176.4720  136.9120 O   0  0  0  0  0  0  0  0  0  0  0  0
  193.5300  176.0570  138.2200 C   0  0  0  0  0  2  0  0  0  0  0  0
  193.0290  175.7170  136.0440 C   0  0  0  0  0  2  0  0  0  0  0  0
  191.1170  175.9260  137.6210 C   0  0  0  0  0  3  0  0  0  0  0  0
  192.1260  176.5320  138.5980 C   0  0  0  0  0  2  0  0  0  0  0  0
  191.5710  176.1550  136.1820 C   0  0  0  0  0  2  0  0  0  0  0  0
  187.7710  176.4630  143.6800 C   0  0  0  0  0  2  0  0  0  0  0  0
  187.0560  177.4590  144.5380 C   0  0  0  0  0  0  0  0  0  0  0  0
  186.0780  178.0860  144.0510 O   0  0  0  0  0  0  0  0  0  0  0  0
  187.0070  178.6490  148.1270 C   0  0  0  0  0  3  0  0  0  0  0  0
  188.2130  178.1320  148.6090 C   0  0  0  0  0  3  0  0  0  0  0  0
  188.6680  177.1740  146.4320 C   0  0  0  0  0  3  0  0  0  0  0  0
  186.6320  178.4290  146.7980 C   0  0  0  0  0  3  0  0  0  0  0  0
  189.0430  177.3940  147.7610 C   0  0  0  0  0  3  0  0  0  0  0  0
  187.4590  177.6900  145.9400 C   0  0  0  0  0  0  0  0  0  0  0  0
  1  2  2  0  0  0  0
  2 21  1  0  0  0  0
  3  2  1  1  0  0  0
  3  6  1  0  0  0  0
  3  8  1  0  0  0  0
  5  4  2  0  0  0  0
  6  7  2  0  0  0  0
  7  4  1  0  0  0  0
  8  5  1  0  0  0  0
  9  8  2  0  0  0  0
 10  1  1  0  0  0  0
 11 13  1  0  0  0  0
 11 12  1  0  0  0  0
 12 10  1  1  0  0  0
 13 14  1  6  0  0  0
 13 12  1  0  0  0  0
 15 16  1  0  0  0  0
 16 19  1  0  0  0  0
 17 20  1  0  0  0  0
 17 15  1  0  0  0  0
 18 14  1  0  0  0  0
 18 19  1  0  0  0  0
 20 18  1  0  0  0  0
 21 22  1  0  0  0  0
 22 29  1  0  0  0  0
 23 22  2  0  0  0  0
 24 25  1  0  0  0  0
 26 28  1  0  0  0  0
 27 24  2  0  0  0  0
 28 25  2  0  0  0  0
 29 26  2  0  0  0  0
 29 27  1  0  0  0  0
M  END
>  <MODEL>
3

>  <REMARK>
 VINA RESULT:      -7.7      2.452      6.972
  Name = 
  8 active torsions:
  status: ('A' for Active; 'I' for Inactive)
    1  A    between atoms: N_2  and  O_19
    2  A    between atoms: C_5  and  C_9
    3  A    between atoms: C_9  and  C_25
    4  A    between atoms: C_14  and  O_19
    5  A    between atoms: C_16  and  C_22
    6  A    between atoms: C_16  and  C_25
    7  A    between atoms: C_20  and  C_24
    8  A    between atoms: C_21  and  C_24
                            x       y       z     vdW  Elec       q    Type
                         _______ _______ _______ _____ _____    ______ ____

>  <TORSDO>
F 8

$$$$
=
 OpenBabel10232412313D

 29 32  0  0  1  0  0  0  0  0999 V2000
  188.3970  177.9440  141.5110 N   0  0  0  0  0  0  0  0  0  0  0  0
  188.9010  177.2580  142.4930 C   0  0  0  0  0  0  0  0  0  0  0  0
  190.3820  177.1840  142.7480 C   0  0  2  0  0  3  0  0  0  0  0  0
  191.7580  176.4190  145.1790 C   0  0  0  0  0  3  0  0  0  0  0  0
  191.4700  177.6740  145.0080 N   0  0  0  0  0  0  0  0  0  0  0  0
  190.8110  175.7650  143.0260 C   0  0  0  0  0  3  0  0  0  0  0  0
  191.4390  175.4170  144.1510 C   0  0  0  0  0  3  0  0  0  0  0  0
  190.8210  178.1490  143.8220 C   0  0  0  0  0  0  0  0  0  0  0  0
  190.6260  179.3840  143.6730 O   0  0  0  0  0  0  0  0  0  0  0  0
  189.1900  178.6250  140.6140 O   0  0  0  0  0  0  0  0  0  0  0  0
  188.9950  177.0350  138.8420 C   0  0  0  0  0  2  0  0  0  0  0  0
  188.9630  178.4980  139.2240 C   0  0  1  0  0  3  0  0  0  0  0  0
  187.6680  177.7440  139.0070 C   0  0  1  0  0  3  0  0  0  0  0  0
  187.1160  178.1010  137.6390 C   0  0  0  0  0  2  0  0  0  0  0  0
  183.2810  176.9280  138.8840 O   0  0  0  0  0  0  0  0  0  0  0  0
  183.5650  178.2920  139.0830 C   0  0  0  0  0  2  0  0  0  0  0  0
  183.5790  176.6440  137.5380 C   0  0  0  0  0  2  0  0  0  0  0  0
  185.5980  178.0910  137.6590 C   0  0  0  0  0  3  0  0  0  0  0  0
  185.0750  178.5230  139.0310 C   0  0  0  0  0  2  0  0  0  0  0  0
  185.0910  176.6930  137.3180 C   0  0  0  0  0  2  0  0  0  0  0  0
  187.9780  176.5770  143.4460 C   0  0  0  0  0  2  0  0  0  0  0  0
  187.3730  177.5710  144.3870 C   0  0  0  0  0  0  0  0  0  0  0  0
  188.0810  178.0220  145.3270 O   0  0  0  0  0  0  0  0  0  0  0  0
  183.9250  178.9170  145.1610 C   0  0  0  0  0  3  0  0  0  0  0  0
  183.3490  178.9560  143.8880 C   0  0  0  0  0  3  0  0  0  0  0  0
  185.4000  178.0890  142.9370 C   0  0  0  0  0  3  0  0  0  0  0  0
  185.2380  178.4640  145.3210 C   0  0  0  0  0  3  0  0  0  0  0  0
  184.0870  178.5420  142.7760 C   0  0  0  0  0  3  0  0  0  0  0  0
  185.9860  178.0470  144.2110 C   0  0  0  0  0  0  0  0  0  0  0  0
  1  2  2  0  0  0  0
  2 21  1  0  0  0  0
  3  2  1  1  0  0  0
  3  6  1  0  0  0  0
  3  8  1  0  0  0  0
  5  4  2  0  0  0  0
  6  7  2  0  0  0  0
  7  4  1  0  0  0  0
  8  5  1  0  0  0  0
  9  8  2  0  0  0  0
 10  1  1  0  0  0  0
 11 13  1  0  0  0  0
 11 12  1  0  0  0  0
 12 10  1  1  0  0  0
 13 14  1  6  0  0  0
 13 12  1  0  0  0  0
 14 18  1  0  0  0  0
 15 16  1  0  0  0  0
 17 15  1  0  0  0  0
 18 19  1  0  0  0  0
 19 16  1  0  0  0  0
 20 17  1  0  0  0  0
 20 18  1  0  0  0  0
 21 22  1  0  0  0  0
 22 23  2  0  0  0  0
 24 27  1  0  0  0  0
 25 24  2  0  0  0  0
 26 29  1  0  0  0  0
 28 26  2  0  0  0  0
 28 25  1  0  0  0  0
 29 22  1  0  0  0  0
 29 27  2  0  0  0  0
M  END
>  <MODEL>
4

>  <REMARK>
 VINA RESULT:      -7.7      2.283      6.666
  Name = 
  8 active torsions:
  status: ('A' for Active; 'I' for Inactive)
    1  A    between atoms: N_2  and  O_19
    2  A    between atoms: C_5  and  C_9
    3  A    between atoms: C_9  and  C_25
    4  A    between atoms: C_14  and  O_19
    5  A    between atoms: C_16  and  C_22
    6  A    between atoms: C_16  and  C_25
    7  A    between atoms: C_20  and  C_24
    8  A    between atoms: C_21  and  C_24
                            x       y       z     vdW  Elec       q    Type
                         _______ _______ _______ _____ _____    ______ ____

>  <TORSDO>
F 8

$$$$
=
 OpenBabel10232412313D

 29 32  0  0  1  0  0  0  0  0999 V2000
  186.6640  177.1200  144.9820 N   0  0  0  0  0  0  0  0  0  0  0  0
  187.9120  177.1770  144.6240 C   0  0  0  0  0  0  0  0  0  0  0  0
  188.9690  177.8110  145.4870 C   0  0  2  0  0  3  0  0  0  0  0  0
  191.6790  176.9130  145.9730 C   0  0  0  0  0  3  0  0  0  0  0  0
  190.7440  176.4970  146.7720 N   0  0  0  0  0  0  0  0  0  0  0  0
  190.1380  178.2730  144.6550 C   0  0  0  0  0  3  0  0  0  0  0  0
  191.3850  177.8510  144.8790 C   0  0  0  0  0  3  0  0  0  0  0  0
  189.3810  176.9160  146.6300 C   0  0  0  0  0  0  0  0  0  0  0  0
  188.5240  176.5390  147.4710 O   0  0  0  0  0  0  0  0  0  0  0  0
  186.2170  177.6680  146.1630 O   0  0  0  0  0  0  0  0  0  0  0  0
  185.2480  179.7110  145.3920 C   0  0  0  0  0  2  0  0  0  0  0  0
  185.0330  178.4420  146.1870 C   0  0  1  0  0  3  0  0  0  0  0  0
  184.4930  178.5510  144.7770 C   0  0  1  0  0  3  0  0  0  0  0  0
  183.0030  178.8310  144.8440 C   0  0  0  0  0  2  0  0  0  0  0  0
  181.2870  178.0740  141.0870 O   0  0  0  0  0  0  0  0  0  0  0  0
  180.5330  178.9320  141.9080 C   0  0  0  0  0  2  0  0  0  0  0  0
  182.5930  178.5970  141.0450 C   0  0  0  0  0  2  0  0  0  0  0  0
  182.4620  179.1630  143.4640 C   0  0  0  0  0  3  0  0  0  0  0  0
  180.9820  178.7900  143.3620 C   0  0  0  0  0  2  0  0  0  0  0  0
  183.2690  178.4170  142.4050 C   0  0  0  0  0  2  0  0  0  0  0  0
  188.3270  176.5290  143.3470 C   0  0  0  0  0  2  0  0  0  0  0  0
  188.1030  177.4560  142.1950 C   0  0  0  0  0  0  0  0  0  0  0  0
  187.1620  178.2900  142.2640 O   0  0  0  0  0  0  0  0  0  0  0  0
  191.1270  176.9140  139.9890 C   0  0  0  0  0  3  0  0  0  0  0  0
  190.6530  177.3600  138.7520 C   0  0  0  0  0  3  0  0  0  0  0  0
  188.5120  177.8720  139.7600 C   0  0  0  0  0  3  0  0  0  0  0  0
  190.2930  176.9470  141.1110 C   0  0  0  0  0  3  0  0  0  0  0  0
  189.3450  177.8400  138.6380 C   0  0  0  0  0  3  0  0  0  0  0  0
  188.9800  177.4260  141.0060 C   0  0  0  0  0  0  0  0  0  0  0  0
  1 10  1  0  0  0  0
  2  1  2  0  0  0  0
  3  2  1  6  0  0  0
  3  8  1  0  0  0  0
  4  5  2  0  0  0  0
  6  7  2  0  0  0  0
  6  3  1  0  0  0  0
  7  4  1  0  0  0  0
  8  5  1  0  0  0  0
  8  9  2  0  0  0  0
 11 12  1  0  0  0  0
 12 10  1  6  0  0  0
 13 14  1  1  0  0  0
 13 11  1  0  0  0  0
 13 12  1  0  0  0  0
 15 16  1  0  0  0  0
 16 19  1  0  0  0  0
 17 15  1  0  0  0  0
 17 20  1  0  0  0  0
 18 14  1  0  0  0  0
 19 18  1  0  0  0  0
 20 18  1  0  0  0  0
 21  2  1  0  0  0  0
 22 23  2  0  0  0  0
 22 21  1  0  0  0  0
 24 27  1  0  0  0  0
 25 24  2  0  0  0  0
 26 29  1  0  0  0  0
 28 25  1  0  0  0  0
 28 26  2  0  0  0  0
 29 27  2  0  0  0  0
 29 22  1  0  0  0  0
M  END
>  <MODEL>
5

>  <REMARK>
 VINA RESULT:      -7.6      2.779      6.371
  Name = 
  8 active torsions:
  status: ('A' for Active; 'I' for Inactive)
    1  A    between atoms: N_2  and  O_19
    2  A    between atoms: C_5  and  C_9
    3  A    between atoms: C_9  and  C_25
    4  A    between atoms: C_14  and  O_19
    5  A    between atoms: C_16  and  C_22
    6  A    between atoms: C_16  and  C_25
    7  A    between atoms: C_20  and  C_24
    8  A    between atoms: C_21  and  C_24
                            x       y       z     vdW  Elec       q    Type
                         _______ _______ _______ _____ _____    ______ ____

>  <TORSDO>
F 8

$$$$
=
 OpenBabel10232412313D

 29 32  0  0  1  0  0  0  0  0999 V2000
  186.3120  178.6440  140.0150 N   0  0  0  0  0  0  0  0  0  0  0  0
  186.7130  178.0410  138.9360 C   0  0  0  0  0  0  0  0  0  0  0  0
  185.9800  178.1590  137.6270 C   0  0  2  0  0  3  0  0  0  0  0  0
  186.4300  176.6940  135.1690 C   0  0  0  0  0  3  0  0  0  0  0  0
  187.0700  177.8110  135.3420 N   0  0  0  0  0  0  0  0  0  0  0  0
  185.2520  176.8790  137.3000 C   0  0  0  0  0  3  0  0  0  0  0  0
  185.4680  176.2040  136.1690 C   0  0  0  0  0  3  0  0  0  0  0  0
  186.8850  178.6200  136.5110 C   0  0  0  0  0  0  0  0  0  0  0  0
  187.4760  179.7270  136.5990 O   0  0  0  0  0  0  0  0  0  0  0  0
  185.1670  179.4090  140.0410 O   0  0  0  0  0  0  0  0  0  0  0  0
  183.7490  177.8090  141.1070 C   0  0  0  0  0  2  0  0  0  0  0  0
  184.2250  179.2440  141.0840 C   0  0  1  0  0  3  0  0  0  0  0  0
  184.7880  178.2770  142.1030 C   0  0  1  0  0  3  0  0  0  0  0  0
  184.1210  178.5330  143.4420 C   0  0  0  0  0  2  0  0  0  0  0  0
  186.5340  177.7190  146.7800 O   0  0  0  0  0  0  0  0  0  0  0  0
  187.2490  177.9950  145.6000 C   0  0  0  0  0  2  0  0  0  0  0  0
  185.6180  178.7720  146.9560 C   0  0  0  0  0  2  0  0  0  0  0  0
  185.1630  178.8090  144.5110 C   0  0  0  0  0  3  0  0  0  0  0  0
  186.3340  177.8320  144.3860 C   0  0  0  0  0  2  0  0  0  0  0  0
  184.5230  178.6940  145.8910 C   0  0  0  0  0  2  0  0  0  0  0  0
  187.9840  177.2610  138.9750 C   0  0  0  0  0  2  0  0  0  0  0  0
  189.0570  178.0450  139.6610 C   0  0  0  0  0  0  0  0  0  0  0  0
  189.3750  179.1720  139.1950 O   0  0  0  0  0  0  0  0  0  0  0  0
  189.5810  176.4370  143.0440 C   0  0  0  0  0  3  0  0  0  0  0  0
  190.9640  176.5590  143.1990 C   0  0  0  0  0  3  0  0  0  0  0  0
  191.1060  177.6540  141.0440 C   0  0  0  0  0  3  0  0  0  0  0  0
  188.9600  176.9240  141.8890 C   0  0  0  0  0  3  0  0  0  0  0  0
  191.7270  177.1680  142.1990 C   0  0  0  0  0  3  0  0  0  0  0  0
  189.7180  177.5350  140.8800 C   0  0  0  0  0  0  0  0  0  0  0  0
  1 10  1  0  0  0  0
  2 21  1  0  0  0  0
  2  1  2  0  0  0  0
  3  2  1  1  0  0  0
  4  5  2  0  0  0  0
  4  7  1  0  0  0  0
  5  8  1  0  0  0  0
  6  3  1  0  0  0  0
  7  6  2  0  0  0  0
  8  9  2  0  0  0  0
  8  3  1  0  0  0  0
 11 13  1  0  0  0  0
 12 10  1  6  0  0  0
 12 11  1  0  0  0  0
 12 13  1  0  0  0  0
 13 14  1  1  0  0  0
 14 18  1  0  0  0  0
 15 17  1  0  0  0  0
 16 15  1  0  0  0  0
 18 20  1  0  0  0  0
 19 18  1  0  0  0  0
 19 16  1  0  0  0  0
 20 17  1  0  0  0  0
 21 22  1  0  0  0  0
 22 29  1  0  0  0  0
 23 22  2  0  0  0  0
 24 25  1  0  0  0  0
 26 28  1  0  0  0  0
 27 24  2  0  0  0  0
 28 25  2  0  0  0  0
 29 26  2  0  0  0  0
 29 27  1  0  0  0  0
M  END
>  <MODEL>
6

>  <REMARK>
 VINA RESULT:      -7.4      1.648      2.269
  Name = 
  8 active torsions:
  status: ('A' for Active; 'I' for Inactive)
    1  A    between atoms: N_2  and  O_19
    2  A    between atoms: C_5  and  C_9
    3  A    between atoms: C_9  and  C_25
    4  A    between atoms: C_14  and  O_19
    5  A    between atoms: C_16  and  C_22
    6  A    between atoms: C_16  and  C_25
    7  A    between atoms: C_20  and  C_24
    8  A    between atoms: C_21  and  C_24
                            x       y       z     vdW  Elec       q    Type
                         _______ _______ _______ _____ _____    ______ ____

>  <TORSDO>
F 8

$$$$
=
 OpenBabel10232412313D

 29 32  0  0  1  0  0  0  0  0999 V2000
  187.1630  178.1840  141.4930 N   0  0  0  0  0  0  0  0  0  0  0  0
  188.4450  178.1470  141.6960 C   0  0  0  0  0  0  0  0  0  0  0  0
  189.0400  177.7390  143.0170 C   0  0  2  0  0  3  0  0  0  0  0  0
  191.6090  176.5050  143.5340 C   0  0  0  0  0  3  0  0  0  0  0  0
  190.5880  175.7290  143.3260 N   0  0  0  0  0  0  0  0  0  0  0  0
  190.2800  178.5420  143.3220 C   0  0  0  0  0  3  0  0  0  0  0  0
  191.4630  177.9680  143.5530 C   0  0  0  0  0  3  0  0  0  0  0  0
  189.2730  176.2500  143.0970 C   0  0  0  0  0  0  0  0  0  0  0  0
  188.3040  175.4560  142.9710 O   0  0  0  0  0  0  0  0  0  0  0  0
  186.2570  177.8800  142.4850 O   0  0  0  0  0  0  0  0  0  0  0  0
  184.5790  178.7810  143.9260 C   0  0  0  0  0  2  0  0  0  0  0  0
  186.0450  178.7810  143.5540 C   0  0  1  0  0  3  0  0  0  0  0  0
  185.5710  178.0020  144.7630 C   0  0  1  0  0  3  0  0  0  0  0  0
  185.9010  178.7930  146.0150 C   0  0  0  0  0  2  0  0  0  0  0  0
  189.3830  177.8780  148.1770 O   0  0  0  0  0  0  0  0  0  0  0  0
  188.2320  178.0370  148.9700 C   0  0  0  0  0  2  0  0  0  0  0  0
  189.0560  176.9550  147.1660 C   0  0  0  0  0  2  0  0  0  0  0  0
  186.8030  177.9850  146.9320 C   0  0  0  0  0  3  0  0  0  0  0  0
  187.1570  178.7890  148.1840 C   0  0  0  0  0  2  0  0  0  0  0  0
  188.0720  177.5890  146.1820 C   0  0  0  0  0  2  0  0  0  0  0  0
  189.3650  178.4530  140.5630 C   0  0  0  0  0  2  0  0  0  0  0  0
  189.4400  177.2910  139.6240 C   0  0  0  0  0  0  0  0  0  0  0  0
  190.1770  176.3140  139.9270 O   0  0  0  0  0  0  0  0  0  0  0  0
  187.4100  178.4310  136.6450 C   0  0  0  0  0  3  0  0  0  0  0  0
  187.1440  177.2170  136.0070 C   0  0  0  0  0  3  0  0  0  0  0  0
  188.3750  176.0460  137.7320 C   0  0  0  0  0  3  0  0  0  0  0  0
  188.1590  178.4530  137.8250 C   0  0  0  0  0  3  0  0  0  0  0  0
  187.6270  176.0240  136.5510 C   0  0  0  0  0  3  0  0  0  0  0  0
  188.6480  177.2610  138.3780 C   0  0  0  0  0  0  0  0  0  0  0  0
  1  2  2  0  0  0  0
  1 10  1  0  0  0  0
  3  2  1  6  0  0  0
  3  8  1  0  0  0  0
  3  6  1  0  0  0  0
  4  7  1  0  0  0  0
  5  4  2  0  0  0  0
  6  7  2  0  0  0  0
  8  5  1  0  0  0  0
  9  8  2  0  0  0  0
 11 13  1  0  0  0  0
 12 10  1  6  0  0  0
 12 11  1  0  0  0  0
 12 13  1  0  0  0  0
 13 14  1  1  0  0  0
 14 18  1  0  0  0  0
 15 16  1  0  0  0  0
 17 15  1  0  0  0  0
 18 19  1  0  0  0  0
 19 16  1  0  0  0  0
 20 18  1  0  0  0  0
 20 17  1  0  0  0  0
 21  2  1  0  0  0  0
 22 23  2  0  0  0  0
 22 21  1  0  0  0  0
 24 27  1  0  0  0  0
 25 28  1  0  0  0  0
 25 24  2  0  0  0  0
 26 29  1  0  0  0  0
 27 29  2  0  0  0  0
 28 26  2  0  0  0  0
 29 22  1  0  0  0  0
M  END
>  <MODEL>
7

>  <REMARK>
 VINA RESULT:      -7.2      1.825      4.943
  Name = 
  8 active torsions:
  status: ('A' for Active; 'I' for Inactive)
    1  A    between atoms: N_2  and  O_19
    2  A    between atoms: C_5  and  C_9
    3  A    between atoms: C_9  and  C_25
    4  A    between atoms: C_14  and  O_19
    5  A    between atoms: C_16  and  C_22
    6  A    between atoms: C_16  and  C_25
    7  A    between atoms: C_20  and  C_24
    8  A    between atoms: C_21  and  C_24
                            x       y       z     vdW  Elec       q    Type
                         _______ _______ _______ _____ _____    ______ ____

>  <TORSDO>
F 8

$$$$
=
 OpenBabel10232412313D

 29 32  0  0  1  0  0  0  0  0999 V2000
  187.1620  176.8880  143.7630 N   0  0  0  0  0  0  0  0  0  0  0  0
  188.3380  176.9600  143.2150 C   0  0  0  0  0  0  0  0  0  0  0  0
  189.6010  177.0640  144.0280 C   0  0  2  0  0  3  0  0  0  0  0  0
  192.0740  178.4120  143.3540 C   0  0  0  0  0  3  0  0  0  0  0  0
  191.9460  177.1640  143.0180 N   0  0  0  0  0  0  0  0  0  0  0  0
  189.8760  178.4950  144.4150 C   0  0  0  0  0  3  0  0  0  0  0  0
  191.0150  179.1140  144.0970 C   0  0  0  0  0  3  0  0  0  0  0  0
  190.7730  176.4070  143.3400 C   0  0  0  0  0  0  0  0  0  0  0  0
  190.7260  175.1820  143.0540 O   0  0  0  0  0  0  0  0  0  0  0  0
  186.9890  176.9350  145.1280 O   0  0  0  0  0  0  0  0  0  0  0  0
  186.1380  178.8290  146.3090 C   0  0  0  0  0  2  0  0  0  0  0  0
  185.8110  177.4940  145.6780 C   0  0  1  0  0  3  0  0  0  0  0  0
  185.4890  178.7770  144.9410 C   0  0  1  0  0  3  0  0  0  0  0  0
  184.0050  179.0620  145.0770 C   0  0  0  0  0  2  0  0  0  0  0  0
  182.2760  178.1160  141.3700 O   0  0  0  0  0  0  0  0  0  0  0  0
  181.4530  178.8790  142.2170 C   0  0  0  0  0  2  0  0  0  0  0  0
  183.5110  178.7870  141.2920 C   0  0  0  0  0  2  0  0  0  0  0  0
  183.3890  179.3300  143.7160 C   0  0  0  0  0  3  0  0  0  0  0  0
  181.9590  178.7880  143.6570 C   0  0  0  0  0  2  0  0  0  0  0  0
  184.2440  178.6850  142.6300 C   0  0  0  0  0  2  0  0  0  0  0  0
  188.4510  176.8650  141.7320 C   0  0  0  0  0  2  0  0  0  0  0  0
  188.0480  178.1580  141.0940 C   0  0  0  0  0  0  0  0  0  0  0  0
  187.8180  179.1510  141.8350 O   0  0  0  0  0  0  0  0  0  0  0  0
  188.9820  178.7930  137.4860 C   0  0  0  0  0  3  0  0  0  0  0  0
  187.7710  178.5400  136.8360 C   0  0  0  0  0  3  0  0  0  0  0  0
  186.7360  178.0390  138.9660 C   0  0  0  0  0  3  0  0  0  0  0  0
  189.0700  178.6680  138.8750 C   0  0  0  0  0  3  0  0  0  0  0  0
  186.6480  178.1630  137.5760 C   0  0  0  0  0  3  0  0  0  0  0  0
  187.9480  178.2900  139.6270 C   0  0  0  0  0  0  0  0  0  0  0  0
  1 10  1  0  0  0  0
  2  1  2  0  0  0  0
  3  2  1  6  0  0  0
  3  6  1  0  0  0  0
  4  7  1  0  0  0  0
  5  8  1  0  0  0  0
  5  4  2  0  0  0  0
  7  6  2  0  0  0  0
  8  3  1  0  0  0  0
  9  8  2  0  0  0  0
 12 10  1  6  0  0  0
 12 11  1  0  0  0  0
 13 14  1  1  0  0  0
 13 12  1  0  0  0  0
 13 11  1  0  0  0  0
 15 16  1  0  0  0  0
 16 19  1  0  0  0  0
 17 15  1  0  0  0  0
 17 20  1  0  0  0  0
 18 14  1  0  0  0  0
 19 18  1  0  0  0  0
 20 18  1  0  0  0  0
 21  2  1  0  0  0  0
 22 21  1  0  0  0  0
 22 23  2  0  0  0  0
 24 27  1  0  0  0  0
 25 24  2  0  0  0  0
 25 28  1  0  0  0  0
 26 29  1  0  0  0  0
 27 29  2  0  0  0  0
 28 26  2  0  0  0  0
 29 22  1  0  0  0  0
M  END
>  <MODEL>
8

>  <REMARK>
 VINA RESULT:      -7.2      2.325      5.852
  Name = 
  8 active torsions:
  status: ('A' for Active; 'I' for Inactive)
    1  A    between atoms: N_2  and  O_19
    2  A    between atoms: C_5  and  C_9
    3  A    between atoms: C_9  and  C_25
    4  A    between atoms: C_14  and  O_19
    5  A    between atoms: C_16  and  C_22
    6  A    between atoms: C_16  and  C_25
    7  A    between atoms: C_20  and  C_24
    8  A    between atoms: C_21  and  C_24
                            x       y       z     vdW  Elec       q    Type
                         _______ _______ _______ _____ _____    ______ ____

>  <TORSDO>
F 8

$$$$
=
 OpenBabel10232412313D

 29 32  0  0  1  0  0  0  0  0999 V2000
  189.3060  176.6550  141.1070 N   0  0  0  0  0  0  0  0  0  0  0  0
  189.5220  176.5630  142.3850 C   0  0  0  0  0  0  0  0  0  0  0  0
  190.8690  176.8400  142.9970 C   0  0  2  0  0  3  0  0  0  0  0  0
  191.6020  176.8940  145.7980 C   0  0  0  0  0  3  0  0  0  0  0  0
  191.2050  178.0010  145.2480 N   0  0  0  0  0  0  0  0  0  0  0  0
  191.3930  175.6260  143.7220 C   0  0  0  0  0  3  0  0  0  0  0  0
  191.7230  175.6540  145.0150 C   0  0  0  0  0  3  0  0  0  0  0  0
  190.8550  178.0770  143.8600 C   0  0  0  0  0  0  0  0  0  0  0  0
  190.5430  179.1890  143.3590 O   0  0  0  0  0  0  0  0  0  0  0  0
  190.3060  176.9830  140.2190 O   0  0  0  0  0  0  0  0  0  0  0  0
  190.6170  177.0580  137.8520 C   0  0  0  0  0  2  0  0  0  0  0  0
  190.5380  176.1780  139.0790 C   0  0  1  0  0  3  0  0  0  0  0  0
  191.8860  176.5370  138.4930 C   0  0  1  0  0  3  0  0  0  0  0  0
  192.4040  175.3560  137.6930 C   0  0  0  0  0  2  0  0  0  0  0  0
  196.1310  174.4570  135.9810 O   0  0  0  0  0  0  0  0  0  0  0  0
  195.6690  175.7590  135.7150 C   0  0  0  0  0  2  0  0  0  0  0  0
  196.0630  174.2790  137.3750 C   0  0  0  0  0  2  0  0  0  0  0  0
  193.8950  175.4970  137.4430 C   0  0  0  0  0  3  0  0  0  0  0  0
  194.1650  175.8410  135.9770 C   0  0  0  0  0  2  0  0  0  0  0  0
  194.6020  174.1980  137.8190 C   0  0  0  0  0  2  0  0  0  0  0  0
  188.3810  176.2390  143.2890 C   0  0  0  0  0  2  0  0  0  0  0  0
  187.4550  177.4090  143.3990 C   0  0  0  0  0  0  0  0  0  0  0  0
  187.1310  178.0250  142.3480 O   0  0  0  0  0  0  0  0  0  0  0  0
  185.0850  178.7820  146.0060 C   0  0  0  0  0  3  0  0  0  0  0  0
  185.8340  178.6210  147.1750 C   0  0  0  0  0  3  0  0  0  0  0  0
  187.6450  177.6690  145.8810 C   0  0  0  0  0  3  0  0  0  0  0  0
  185.6170  178.3870  144.7750 C   0  0  0  0  0  3  0  0  0  0  0  0
  187.1140  178.0640  147.1130 C   0  0  0  0  0  3  0  0  0  0  0  0
  186.9000  177.8270  144.7020 C   0  0  0  0  0  0  0  0  0  0  0  0
  1  2  2  0  0  0  0
  2 21  1  0  0  0  0
  3  2  1  1  0  0  0
  3  6  1  0  0  0  0
  3  8  1  0  0  0  0
  5  4  2  0  0  0  0
  6  7  2  0  0  0  0
  7  4  1  0  0  0  0
  8  5  1  0  0  0  0
  9  8  2  0  0  0  0
 10  1  1  0  0  0  0
 11 13  1  0  0  0  0
 11 12  1  0  0  0  0
 12 10  1  1  0  0  0
 13 14  1  6  0  0  0
 13 12  1  0  0  0  0
 15 17  1  0  0  0  0
 16 19  1  0  0  0  0
 16 15  1  0  0  0  0
 17 20  1  0  0  0  0
 18 14  1  0  0  0  0
 18 20  1  0  0  0  0
 19 18  1  0  0  0  0
 21 22  1  0  0  0  0
 22 29  1  0  0  0  0
 23 22  2  0  0  0  0
 24 25  1  0  0  0  0
 26 28  1  0  0  0  0
 27 24  2  0  0  0  0
 28 25  2  0  0  0  0
 29 27  1  0  0  0  0
 29 26  2  0  0  0  0
M  END
>  <MODEL>
9

>  <REMARK>
 VINA RESULT:      -7.1      3.471      8.164
  Name = 
  8 active torsions:
  status: ('A' for Active; 'I' for Inactive)
    1  A    between atoms: N_2  and  O_19
    2  A    between atoms: C_5  and  C_9
    3  A    between atoms: C_9  and  C_25
    4  A    between atoms: C_14  and  O_19
    5  A    between atoms: C_16  and  C_22
    6  A    between atoms: C_16  and  C_25
    7  A    between atoms: C_20  and  C_24
    8  A    between atoms: C_21  and  C_24
                            x       y       z     vdW  Elec       q    Type
                         _______ _______ _______ _____ _____    ______ ____

>  <TORSDO>
F 8

$$$$
