=
 OpenBabel10232408243D

 30 33  0  0  1  0  0  0  0  0999 V2000
  188.5440  177.9260  148.4900 N   0  0  0  0  0  2  0  0  0  0  0  0
  188.8580  177.2330  144.4250 N   0  0  0  0  0  2  0  0  0  0  0  0
  188.6060  177.5540  147.2520 C   0  0  0  0  0  0  0  0  0  0  0  0
  184.5340  179.0510  145.2010 C   0  0  0  0  0  3  0  0  0  0  0  0
  185.1770  178.9040  142.7260 C   0  0  0  0  0  0  0  0  0  0  0  0
  189.9550  177.4320  146.5470 C   0  0  1  0  0  3  0  0  0  0  0  0
  184.9540  179.2700  141.3700 N   0  0  0  0  0  1  0  0  0  0  0  0
  186.2700  178.2640  143.0440 N   0  0  0  0  0  0  0  0  0  0  0  0
  187.5790  177.4760  144.9870 C   0  0  0  0  0  0  0  0  0  0  0  0
  186.4800  177.8900  144.4020 C   0  0  0  0  0  0  0  0  0  0  0  0
  185.6240  178.3430  145.4620 C   0  0  0  0  0  0  0  0  0  0  0  0
  186.2860  178.2130  146.7230 N   0  0  0  0  0  0  0  0  0  0  0  0
  190.9520  176.7390  147.4710 C   0  0  0  0  0  1  0  0  0  0  0  0
  189.8750  176.7010  145.2520 N   0  0  0  0  0  0  0  0  0  0  0  0
  184.0860  179.2020  143.7580 C   0  0  0  0  0  3  0  0  0  0  0  0
  187.4260  177.6740  146.4020 C   0  0  2  0  0  3  0  0  0  0  0  0
  191.1280  176.9070  144.5350 C   0  0  0  0  0  2  0  0  0  0  0  0
  191.6390  179.1930  144.0750 O   0  0  0  0  0  1  0  0  0  0  0  0
  190.9900  178.0670  143.5650 C   0  0  1  0  0  3  0  0  0  0  0  0
  191.5870  177.7010  142.2910 N   0  0  0  0  0  2  0  0  0  0  0  0
  190.7840  176.6300  141.7190 C   0  0  0  0  0  2  0  0  0  0  0  0
  188.8500  178.0270  138.1450 C   0  0  0  0  0  0  0  0  0  0  0  0
  190.1020  177.0990  140.4780 C   0  0  0  0  0  0  0  0  0  0  0  0
  190.7250  176.9360  139.2370 C   0  0  0  0  0  3  0  0  0  0  0  0
  190.1000  177.3970  138.0750 C   0  0  0  0  0  3  0  0  0  0  0  0
  188.8560  177.7290  140.5560 C   0  0  0  0  0  3  0  0  0  0  0  0
  188.2320  178.1900  139.3930 C   0  0  0  0  0  3  0  0  0  0  0  0
  188.3320  177.8090  135.7270 O   0  0  0  0  0  0  0  0  0  0  0  0
  187.5140  179.5710  136.9350 O   0  0  0  0  0  1  0  0  0  0  0  0
  188.1990  178.5140  136.9170 C   0  0  0  0  0  0  0  0  0  0  0  0
  2  9  1  0  0  0  0
  2 14  1  0  0  0  0
  3  1  2  0  0  0  0
  4 11  1  0  0  0  0
  5  8  2  0  0  0  0
  5 15  1  0  0  0  0
  6  3  1  0  0  0  0
  6 13  1  1  0  0  0
  7  5  1  0  0  0  0
  8 10  1  0  0  0  0
 10  9  2  0  0  0  0
 10 11  1  0  0  0  0
 11 12  2  0  0  0  0
 14  6  1  0  0  0  0
 15  4  2  0  0  0  0
 16  9  1  6  0  0  0
 16 12  1  0  0  0  0
 16  3  1  0  0  0  0
 17 14  1  0  0  0  0
 19 18  1  1  0  0  0
 19 17  1  0  0  0  0
 20 19  1  0  0  0  0
 21 20  1  0  0  0  0
 22 27  1  0  0  0  0
 23 26  1  0  0  0  0
 23 21  1  0  0  0  0
 24 23  2  0  0  0  0
 25 22  2  0  0  0  0
 25 24  1  0  0  0  0
 27 26  2  0  0  0  0
 28 30  2  0  0  0  0
 30 29  1  0  0  0  0
 30 22  1  0  0  0  0
M  END
>  <MODEL>
1

>  <REMARK>
 VINA RESULT:      -9.4      0.000      0.000
  Name = 
  6 active torsions:
  status: ('A' for Active; 'I' for Inactive)
    1  A    between atoms: C_1  and  C_28
    2  A    between atoms: C_2  and  C_4
    3  A    between atoms: C_2  and  N_11
    4  A    between atoms: N_11  and  C_21
    5  A    between atoms: C_17  and  C_21
    6  A    between atoms: C_17  and  N_24
                            x       y       z     vdW  Elec       q    Type
                         _______ _______ _______ _____ _____    ______ ____

>  <TORSDO>
F 6

$$$$
=
 OpenBabel10232408243D

 30 33  0  0  1  0  0  0  0  0999 V2000
  190.8090  176.8180  147.3670 N   0  0  0  0  0  2  0  0  0  0  0  0
  187.8200  177.9090  144.7250 N   0  0  0  0  0  2  0  0  0  0  0  0
  189.9050  177.3130  146.5850 C   0  0  0  0  0  0  0  0  0  0  0  0
  191.7670  177.2250  142.1620 C   0  0  0  0  0  3  0  0  0  0  0  0
  189.6440  177.5080  140.7570 C   0  0  0  0  0  0  0  0  0  0  0  0
  188.4230  177.1600  146.9210 C   0  0  1  0  0  3  0  0  0  0  0  0
  188.9630  177.3880  139.5150 N   0  0  0  0  0  1  0  0  0  0  0  0
  188.9630  177.7880  141.8350 N   0  0  0  0  0  0  0  0  0  0  0  0
  189.1710  177.9470  144.2930 C   0  0  0  0  0  0  0  0  0  0  0  0
  189.6540  177.9180  143.0740 C   0  0  0  0  0  0  0  0  0  0  0  0
  191.0420  177.5790  143.2160 C   0  0  0  0  0  0  0  0  0  0  0  0
  191.3620  177.3670  144.5930 N   0  0  0  0  0  0  0  0  0  0  0  0
  188.2050  177.4400  148.4050 C   0  0  0  0  0  1  0  0  0  0  0  0
  187.5440  178.0430  146.1060 N   0  0  0  0  0  0  0  0  0  0  0  0
  191.1700  177.3830  140.7760 C   0  0  0  0  0  3  0  0  0  0  0  0
  190.2380  177.6200  145.1980 C   0  0  2  0  0  3  0  0  0  0  0  0
  186.1650  177.6030  146.2850 C   0  0  0  0  0  2  0  0  0  0  0  0
  185.9460  179.6290  147.5290 O   0  0  0  0  0  1  0  0  0  0  0  0
  185.2800  178.7860  146.6370 C   0  0  1  0  0  3  0  0  0  0  0  0
  184.9580  179.5220  145.4260 N   0  0  0  0  0  2  0  0  0  0  0  0
  183.8350  178.8500  144.7870 C   0  0  0  0  0  2  0  0  0  0  0  0
  184.3250  178.8100  140.5170 C   0  0  0  0  0  0  0  0  0  0  0  0
  184.0040  178.8560  143.3050 C   0  0  0  0  0  0  0  0  0  0  0  0
  182.9100  178.5800  142.4780 C   0  0  0  0  0  3  0  0  0  0  0  0
  183.0700  178.5590  141.0900 C   0  0  0  0  0  3  0  0  0  0  0  0
  185.2590  179.1050  142.7400 C   0  0  0  0  0  3  0  0  0  0  0  0
  185.4190  179.0830  141.3520 C   0  0  0  0  0  3  0  0  0  0  0  0
  185.7570  178.7320  138.4920 O   0  0  0  0  0  1  0  0  0  0  0  0
  183.4780  178.8030  138.3000 O   0  0  0  0  0  0  0  0  0  0  0  0
  184.4870  178.7830  139.0550 C   0  0  0  0  0  0  0  0  0  0  0  0
  2 14  1  0  0  0  0
  3  6  1  0  0  0  0
  3  1  2  0  0  0  0
  4 11  1  0  0  0  0
  5 15  1  0  0  0  0
  5  8  2  0  0  0  0
  6 13  1  1  0  0  0
  7  5  1  0  0  0  0
  8 10  1  0  0  0  0
  9  2  1  0  0  0  0
 10 11  1  0  0  0  0
 10  9  2  0  0  0  0
 11 12  2  0  0  0  0
 12 16  1  0  0  0  0
 14 17  1  0  0  0  0
 14  6  1  0  0  0  0
 15  4  2  0  0  0  0
 16  9  1  6  0  0  0
 16  3  1  0  0  0  0
 17 19  1  0  0  0  0
 19 18  1  1  0  0  0
 20 19  1  0  0  0  0
 21 20  1  0  0  0  0
 22 25  2  0  0  0  0
 22 27  1  0  0  0  0
 23 21  1  0  0  0  0
 24 23  2  0  0  0  0
 25 24  1  0  0  0  0
 26 23  1  0  0  0  0
 27 26  2  0  0  0  0
 28 30  1  0  0  0  0
 29 30  2  0  0  0  0
 30 22  1  0  0  0  0
M  END
>  <MODEL>
2

>  <REMARK>
 VINA RESULT:      -9.3      2.346      5.275
  Name = 
  6 active torsions:
  status: ('A' for Active; 'I' for Inactive)
    1  A    between atoms: C_1  and  C_28
    2  A    between atoms: C_2  and  C_4
    3  A    between atoms: C_2  and  N_11
    4  A    between atoms: N_11  and  C_21
    5  A    between atoms: C_17  and  C_21
    6  A    between atoms: C_17  and  N_24
                            x       y       z     vdW  Elec       q    Type
                         _______ _______ _______ _____ _____    ______ ____

>  <TORSDO>
F 6

$$$$
=
 OpenBabel10232408243D

 30 33  0  0  1  0  0  0  0  0999 V2000
  185.5650  177.0950  136.4810 N   0  0  0  0  0  2  0  0  0  0  0  0
  187.2690  178.7450  139.8700 N   0  0  0  0  0  2  0  0  0  0  0  0
  186.0880  177.7550  137.4640 C   0  0  0  0  0  0  0  0  0  0  0  0
  182.6290  178.2080  140.7600 C   0  0  0  0  0  3  0  0  0  0  0  0
  184.0240  178.8240  142.8180 C   0  0  0  0  0  0  0  0  0  0  0  0
  187.5810  177.6440  137.7630 C   0  0  1  0  0  3  0  0  0  0  0  0
  184.1580  178.9310  144.2300 N   0  0  0  0  0  1  0  0  0  0  0  0
  185.0760  178.9830  142.0620 N   0  0  0  0  0  0  0  0  0  0  0  0
  185.8570  178.7640  139.7270 C   0  0  0  0  0  0  0  0  0  0  0  0
  184.9320  178.8850  140.6490 C   0  0  0  0  0  0  0  0  0  0  0  0
  183.7120  178.4460  140.0320 C   0  0  0  0  0  0  0  0  0  0  0  0
  183.9620  178.0140  138.6920 N   0  0  0  0  0  0  0  0  0  0  0  0
  188.3690  177.7140  136.4580 C   0  0  0  0  0  1  0  0  0  0  0  0
  188.0690  178.6890  138.7040 N   0  0  0  0  0  0  0  0  0  0  0  0
  182.6290  178.6050  142.2260 C   0  0  0  0  0  2  0  0  0  0  0  0
  185.2340  178.2420  138.5430 C   0  0  0  0  0  0  0  0  0  0  0  0
  189.4050  178.3130  139.1500 C   0  0  0  0  0  2  0  0  0  0  0  0
  190.0530  176.0700  139.6530 O   0  0  0  0  0  1  0  0  0  0  0  0
  189.3220  177.1590  140.1340 C   0  0  1  0  0  3  0  0  0  0  0  0
  189.8660  177.5780  141.4140 N   0  0  0  0  0  2  0  0  0  0  0  0
  189.7990  176.4380  142.3180 C   0  0  0  0  0  2  0  0  0  0  0  0
  187.8560  177.6060  145.9690 C   0  0  0  0  0  0  0  0  0  0  0  0
  189.1270  176.8260  143.5920 C   0  0  0  0  0  0  0  0  0  0  0  0
  187.7310  176.8570  143.6620 C   0  0  0  0  0  3  0  0  0  0  0  0
  187.0980  177.2450  144.8460 C   0  0  0  0  0  3  0  0  0  0  0  0
  189.8900  177.1880  144.7070 C   0  0  0  0  0  3  0  0  0  0  0  0
  189.2570  177.5750  145.8910 C   0  0  0  0  0  3  0  0  0  0  0  0
  185.9860  178.7180  147.1620 O   0  0  0  0  0  0  0  0  0  0  0  0
  187.6870  177.7340  148.3330 O   0  0  0  0  0  1  0  0  0  0  0  0
  187.1840  178.0170  147.2120 C   0  0  0  0  0  0  0  0  0  0  0  0
  1  3  2  0  0  0  0
  3  6  1  0  0  0  0
  3 16  1  0  0  0  0
  4 15  1  0  0  0  0
  5  7  1  0  0  0  0
  6 13  1  6  0  0  0
  6 14  1  0  0  0  0
  8  5  2  0  0  0  0
  9  2  1  0  0  0  0
  9 10  2  0  0  0  0
 10  8  1  0  0  0  0
 11 10  1  0  0  0  0
 11  4  2  0  0  0  0
 12 11  1  0  0  0  0
 14 17  1  0  0  0  0
 14  2  1  0  0  0  0
 15  5  1  0  0  0  0
 16 12  2  0  0  0  0
 16  9  1  0  0  0  0
 17 19  1  0  0  0  0
 19 18  1  6  0  0  0
 19 20  1  0  0  0  0
 20 21  1  0  0  0  0
 21 23  1  0  0  0  0
 22 30  1  0  0  0  0
 23 24  2  0  0  0  0
 23 26  1  0  0  0  0
 24 25  1  0  0  0  0
 25 22  2  0  0  0  0
 26 27  2  0  0  0  0
 27 22  1  0  0  0  0
 28 30  2  0  0  0  0
 30 29  1  0  0  0  0
M  END
>  <MODEL>
3

>  <REMARK>
 VINA RESULT:      -8.7      2.843      7.042
  Name = 
  6 active torsions:
  status: ('A' for Active; 'I' for Inactive)
    1  A    between atoms: C_1  and  C_28
    2  A    between atoms: C_2  and  C_4
    3  A    between atoms: C_2  and  N_11
    4  A    between atoms: N_11  and  C_21
    5  A    between atoms: C_17  and  C_21
    6  A    between atoms: C_17  and  N_24
                            x       y       z     vdW  Elec       q    Type
                         _______ _______ _______ _____ _____    ______ ____

>  <TORSDO>
F 6

$$$$
=
 OpenBabel10232408243D

 30 33  0  0  1  0  0  0  0  0999 V2000
  191.0440  176.1870  136.6410 N   0  0  0  0  0  2  0  0  0  0  0  0
  189.8680  177.9430  140.1960 N   0  0  0  0  0  2  0  0  0  0  0  0
  190.7430  176.8740  137.6950 C   0  0  0  0  0  0  0  0  0  0  0  0
  186.0680  177.8980  137.3380 C   0  0  0  0  0  3  0  0  0  0  0  0
  185.5470  178.5480  139.7600 C   0  0  0  0  0  0  0  0  0  0  0  0
  191.5000  176.6530  139.0030 C   0  0  1  0  0  3  0  0  0  0  0  0
  184.6060  178.7550  140.8060 N   0  0  0  0  0  1  0  0  0  0  0  0
  186.8230  178.5510  140.0380 N   0  0  0  0  0  0  0  0  0  0  0  0
  189.0390  178.0760  139.0530 C   0  0  0  0  0  0  0  0  0  0  0  0
  187.7590  178.3540  138.9840 C   0  0  0  0  0  0  0  0  0  0  0  0
  187.3530  177.9780  137.6590 C   0  0  0  0  0  0  0  0  0  0  0  0
  188.4560  177.4200  136.9410 N   0  0  0  0  0  0  0  0  0  0  0  0
  192.9950  176.5480  138.7160 C   0  0  0  0  0  1  0  0  0  0  0  0
  191.2530  177.7220  140.0100 N   0  0  0  0  0  0  0  0  0  0  0  0
  185.0330  178.4080  138.3250 C   0  0  0  0  0  2  0  0  0  0  0  0
  189.4380  177.5200  137.7890 C   0  0  0  0  0  0  0  0  0  0  0  0
  191.7650  177.2640  141.2960 C   0  0  0  0  0  2  0  0  0  0  0  0
  190.4080  175.5990  142.3360 O   0  0  0  0  0  1  0  0  0  0  0  0
  190.6150  176.9760  142.2440 C   0  0  1  0  0  3  0  0  0  0  0  0
  190.9320  177.5060  143.5600 N   0  0  0  0  0  2  0  0  0  0  0  0
  190.3900  176.5850  144.5490 C   0  0  0  0  0  2  0  0  0  0  0  0
  186.8500  178.2750  146.3040 C   0  0  0  0  0  0  0  0  0  0  0  0
  189.1570  177.1540  145.1650 C   0  0  0  0  0  0  0  0  0  0  0  0
  188.0030  177.3190  144.3920 C   0  0  0  0  0  3  0  0  0  0  0  0
  186.8540  177.8760  144.9600 C   0  0  0  0  0  3  0  0  0  0  0  0
  189.1600  177.5530  146.5060 C   0  0  0  0  0  3  0  0  0  0  0  0
  188.0110  178.1100  147.0730 C   0  0  0  0  0  3  0  0  0  0  0  0
  184.3800  178.4080  146.5160 O   0  0  0  0  0  0  0  0  0  0  0  0
  185.7270  179.7850  147.7510 O   0  0  0  0  0  1  0  0  0  0  0  0
  185.6370  178.8640  146.8950 C   0  0  0  0  0  0  0  0  0  0  0  0
  1  3  2  0  0  0  0
  3 16  1  0  0  0  0
  3  6  1  0  0  0  0
  4 11  2  0  0  0  0
  4 15  1  0  0  0  0
  5  8  2  0  0  0  0
  5  7  1  0  0  0  0
  6 13  1  6  0  0  0
  6 14  1  0  0  0  0
  9  2  1  0  0  0  0
 10  9  2  0  0  0  0
 10  8  1  0  0  0  0
 11 10  1  0  0  0  0
 12 11  1  0  0  0  0
 12 16  2  0  0  0  0
 14  2  1  0  0  0  0
 14 17  1  0  0  0  0
 15  5  1  0  0  0  0
 16  9  1  0  0  0  0
 17 19  1  0  0  0  0
 19 18  1  1  0  0  0
 19 20  1  0  0  0  0
 20 21  1  0  0  0  0
 21 23  1  0  0  0  0
 22 30  1  0  0  0  0
 22 27  1  0  0  0  0
 23 26  1  0  0  0  0
 24 25  1  0  0  0  0
 24 23  2  0  0  0  0
 25 22  2  0  0  0  0
 26 27  2  0  0  0  0
 28 30  2  0  0  0  0
 30 29  1  0  0  0  0
M  END
>  <MODEL>
4

>  <REMARK>
 VINA RESULT:      -8.5      2.953      7.178
  Name = 
  6 active torsions:
  status: ('A' for Active; 'I' for Inactive)
    1  A    between atoms: C_1  and  C_28
    2  A    between atoms: C_2  and  C_4
    3  A    between atoms: C_2  and  N_11
    4  A    between atoms: N_11  and  C_21
    5  A    between atoms: C_17  and  C_21
    6  A    between atoms: C_17  and  N_24
                            x       y       z     vdW  Elec       q    Type
                         _______ _______ _______ _____ _____    ______ ____

>  <TORSDO>
F 6

$$$$
=
 OpenBabel10232408243D

 30 33  0  0  1  0  0  0  0  0999 V2000
  183.3700  178.5110  138.3160 N   0  0  0  0  0  2  0  0  0  0  0  0
  186.8780  178.2220  140.4860 N   0  0  0  0  0  2  0  0  0  0  0  0
  184.4920  178.5780  138.9560 C   0  0  0  0  0  0  0  0  0  0  0  0
  183.3600  178.9240  143.6070 C   0  0  0  0  0  3  0  0  0  0  0  0
  185.5990  178.2940  144.6800 C   0  0  0  0  0  0  0  0  0  0  0  0
  185.7400  177.8960  138.4010 C   0  0  1  0  0  3  0  0  0  0  0  0
  186.3450  177.8480  145.8050 N   0  0  0  0  0  1  0  0  0  0  0  0
  186.1820  178.3620  143.5130 N   0  0  0  0  0  0  0  0  0  0  0  0
  185.7180  178.7410  141.1150 C   0  0  0  0  0  0  0  0  0  0  0  0
  185.4320  178.8210  142.3930 C   0  0  0  0  0  0  0  0  0  0  0  0
  184.0150  179.0430  142.4590 C   0  0  0  0  0  0  0  0  0  0  0  0
  183.4530  179.0540  141.1450 N   0  0  0  0  0  0  0  0  0  0  0  0
  185.8450  178.1650  136.9030 C   0  0  0  0  0  1  0  0  0  0  0  0
  186.9940  178.3270  139.0800 N   0  0  0  0  0  0  0  0  0  0  0  0
  184.1550  178.7570  144.8900 C   0  0  0  0  0  2  0  0  0  0  0  0
  184.4940  178.9000  140.3790 C   0  0  0  0  0  0  0  0  0  0  0  0
  188.0600  177.4110  138.6930 C   0  0  0  0  0  2  0  0  0  0  0  0
  189.0300  179.4840  138.0160 O   0  0  0  0  0  1  0  0  0  0  0  0
  189.3370  178.1820  138.4150 C   0  0  1  0  0  3  0  0  0  0  0  0
  190.1450  178.2250  139.6220 N   0  0  0  0  0  2  0  0  0  0  0  0
  190.2480  176.8660  140.1340 C   0  0  0  0  0  2  0  0  0  0  0  0
  190.5570  176.9530  144.4190 C   0  0  0  0  0  0  0  0  0  0  0  0
  190.3640  176.8790  141.6210 C   0  0  0  0  0  0  0  0  0  0  0  0
  189.2680  176.5100  142.4090 C   0  0  0  0  0  3  0  0  0  0  0  0
  189.3650  176.5460  143.8020 C   0  0  0  0  0  3  0  0  0  0  0  0
  191.5550  177.2890  142.2300 C   0  0  0  0  0  3  0  0  0  0  0  0
  191.6510  177.3250  143.6240 C   0  0  0  0  0  3  0  0  0  0  0  0
  191.8940  177.0080  146.5100 O   0  0  0  0  0  0  0  0  0  0  0  0
  189.6080  177.0140  146.5940 O   0  0  0  0  0  1  0  0  0  0  0  0
  190.6510  176.9920  145.8880 C   0  0  0  0  0  0  0  0  0  0  0  0
  1  3  2  0  0  0  0
  2  9  1  0  0  0  0
  3 16  1  0  0  0  0
  4 15  1  0  0  0  0
  5 15  1  0  0  0  0
  5  7  1  0  0  0  0
  6 13  1  6  0  0  0
  6  3  1  0  0  0  0
  6 14  1  0  0  0  0
  8  5  2  0  0  0  0
  9 10  2  0  0  0  0
 10 11  1  0  0  0  0
 10  8  1  0  0  0  0
 11  4  2  0  0  0  0
 12 11  1  0  0  0  0
 14  2  1  0  0  0  0
 16  9  1  0  0  0  0
 16 12  2  0  0  0  0
 17 14  1  0  0  0  0
 19 18  1  1  0  0  0
 19 17  1  0  0  0  0
 19 20  1  0  0  0  0
 20 21  1  0  0  0  0
 21 23  1  0  0  0  0
 22 30  1  0  0  0  0
 23 26  2  0  0  0  0
 23 24  1  0  0  0  0
 24 25  2  0  0  0  0
 25 22  1  0  0  0  0
 26 27  1  0  0  0  0
 27 22  2  0  0  0  0
 30 28  2  0  0  0  0
 30 29  1  0  0  0  0
M  END
>  <MODEL>
5

>  <REMARK>
 VINA RESULT:      -8.5      2.019      6.462
  Name = 
  6 active torsions:
  status: ('A' for Active; 'I' for Inactive)
    1  A    between atoms: C_1  and  C_28
    2  A    between atoms: C_2  and  C_4
    3  A    between atoms: C_2  and  N_11
    4  A    between atoms: N_11  and  C_21
    5  A    between atoms: C_17  and  C_21
    6  A    between atoms: C_17  and  N_24
                            x       y       z     vdW  Elec       q    Type
                         _______ _______ _______ _____ _____    ______ ____

>  <TORSDO>
F 6

$$$$
=
 OpenBabel10232408243D

 30 33  0  0  1  0  0  0  0  0999 V2000
  187.7510  178.3720  137.7560 N   0  0  0  0  0  2  0  0  0  0  0  0
  190.9450  176.8180  139.8730 N   0  0  0  0  0  2  0  0  0  0  0  0
  188.6560  177.7550  138.4440 C   0  0  0  0  0  0  0  0  0  0  0  0
  191.8090  176.0290  135.2640 C   0  0  0  0  0  3  0  0  0  0  0  0
  193.8030  175.5490  136.7980 C   0  0  0  0  0  0  0  0  0  0  0  0
  188.9930  178.2090  139.8620 C   0  0  1  0  0  3  0  0  0  0  0  0
  195.1930  175.3090  136.9750 N   0  0  0  0  0  1  0  0  0  0  0  0
  193.0530  175.7590  137.8460 N   0  0  0  0  0  0  0  0  0  0  0  0
  190.7760  176.4540  138.5120 C   0  0  0  0  0  0  0  0  0  0  0  0
  191.6590  175.9870  137.6620 C   0  0  0  0  0  0  0  0  0  0  0  0
  191.0780  176.1690  136.3620 C   0  0  0  0  0  0  0  0  0  0  0  0
  189.8050  176.8100  136.4730 N   0  0  0  0  0  0  0  0  0  0  0  0
  187.7040  178.5030  140.6240 C   0  0  0  0  0  1  0  0  0  0  0  0
  189.8100  177.2190  140.6160 N   0  0  0  0  0  0  0  0  0  0  0  0
  193.2160  175.4710  135.3870 C   0  0  0  0  0  3  0  0  0  0  0  0
  189.6520  176.9370  137.7590 C   0  0  2  0  0  3  0  0  0  0  0  0
  190.3230  177.8690  141.8160 C   0  0  0  0  0  2  0  0  0  0  0  0
  192.0040  177.5850  143.4870 O   0  0  0  0  0  1  0  0  0  0  0  0
  191.1490  176.8900  142.6300 C   0  0  1  0  0  3  0  0  0  0  0  0
  190.2610  176.0460  143.4130 N   0  0  0  0  0  2  0  0  0  0  0  0
  190.2320  176.5760  144.7690 C   0  0  0  0  0  2  0  0  0  0  0  0
  186.3070  178.0500  145.7130 C   0  0  0  0  0  0  0  0  0  0  0  0
  188.8740  177.1050  145.0890 C   0  0  0  0  0  0  0  0  0  0  0  0
  188.5890  177.5590  146.3810 C   0  0  0  0  0  3  0  0  0  0  0  0
  187.3110  178.0310  146.6910 C   0  0  0  0  0  3  0  0  0  0  0  0
  187.8760  177.1180  144.1090 C   0  0  0  0  0  3  0  0  0  0  0  0
  186.5970  177.5900  144.4200 C   0  0  0  0  0  3  0  0  0  0  0  0
  184.1740  179.1470  145.0730 O   0  0  0  0  0  0  0  0  0  0  0  0
  184.5090  178.4260  147.2180 O   0  0  0  0  0  1  0  0  0  0  0  0
  184.9610  178.5450  146.0470 C   0  0  0  0  0  0  0  0  0  0  0  0
  1  3  2  0  0  0  0
  2 14  1  0  0  0  0
  3  6  1  0  0  0  0
  4 15  2  0  0  0  0
  4 11  1  0  0  0  0
  5  7  1  0  0  0  0
  5  8  2  0  0  0  0
  6 14  1  0  0  0  0
  6 13  1  1  0  0  0
  9  2  1  0  0  0  0
 10  8  1  0  0  0  0
 10  9  2  0  0  0  0
 11 12  2  0  0  0  0
 11 10  1  0  0  0  0
 14 17  1  0  0  0  0
 15  5  1  0  0  0  0
 16 12  1  6  0  0  0
 16  3  1  0  0  0  0
 16  9  1  0  0  0  0
 17 19  1  0  0  0  0
 19 20  1  0  0  0  0
 19 18  1  1  0  0  0
 20 21  1  0  0  0  0
 21 23  1  0  0  0  0
 22 30  1  0  0  0  0
 22 25  1  0  0  0  0
 23 24  1  0  0  0  0
 24 25  2  0  0  0  0
 26 27  1  0  0  0  0
 26 23  2  0  0  0  0
 27 22  2  0  0  0  0
 28 30  2  0  0  0  0
 30 29  1  0  0  0  0
M  END
>  <MODEL>
6

>  <REMARK>
 VINA RESULT:      -8.4      3.386      8.316
  Name = 
  6 active torsions:
  status: ('A' for Active; 'I' for Inactive)
    1  A    between atoms: C_1  and  C_28
    2  A    between atoms: C_2  and  C_4
    3  A    between atoms: C_2  and  N_11
    4  A    between atoms: N_11  and  C_21
    5  A    between atoms: C_17  and  C_21
    6  A    between atoms: C_17  and  N_24
                            x       y       z     vdW  Elec       q    Type
                         _______ _______ _______ _____ _____    ______ ____

>  <TORSDO>
F 6

$$$$
=
 OpenBabel10232408243D

 30 33  0  0  1  0  0  0  0  0999 V2000
  188.2230  178.0450  148.3660 N   0  0  0  0  0  2  0  0  0  0  0  0
  188.7410  177.3290  144.3260 N   0  0  0  0  0  2  0  0  0  0  0  0
  188.3500  177.6650  147.1360 C   0  0  0  0  0  0  0  0  0  0  0  0
  184.3420  179.0450  144.8860 C   0  0  0  0  0  3  0  0  0  0  0  0
  185.1030  178.8950  142.4450 C   0  0  0  0  0  0  0  0  0  0  0  0
  189.7330  177.5710  146.4950 C   0  0  1  0  0  3  0  0  0  0  0  0
  184.9350  179.2450  141.0770 N   0  0  0  0  0  1  0  0  0  0  0  0
  186.1950  178.2840  142.8180 N   0  0  0  0  0  0  0  0  0  0  0  0
  187.4320  177.5440  144.8260 C   0  0  0  0  0  0  0  0  0  0  0  0
  186.3510  177.9270  144.1880 C   0  0  0  0  0  0  0  0  0  0  0  0
  185.4370  178.3660  145.2030 C   0  0  0  0  0  0  0  0  0  0  0  0
  186.0420  178.2630  146.4940 N   0  0  0  0  0  0  0  0  0  0  0  0
  190.7030  176.9100  147.4700 C   0  0  0  0  0  1  0  0  0  0  0  0
  189.7310  176.8290  145.2050 N   0  0  0  0  0  0  0  0  0  0  0  0
  183.9590  179.1740  143.4220 C   0  0  0  0  0  3  0  0  0  0  0  0
  187.2090  177.7490  146.2310 C   0  0  2  0  0  3  0  0  0  0  0  0
  191.0110  177.0600  144.5440 C   0  0  0  0  0  2  0  0  0  0  0  0
  191.3970  179.2900  143.7830 O   0  0  0  0  0  1  0  0  0  0  0  0
  190.8430  178.0620  143.4160 C   0  0  1  0  0  3  0  0  0  0  0  0
  191.5160  177.5650  142.2280 N   0  0  0  0  0  2  0  0  0  0  0  0
  190.5690  177.6330  141.1230 C   0  0  0  0  0  2  0  0  0  0  0  0
  192.3600  176.1670  137.5020 C   0  0  0  0  0  0  0  0  0  0  0  0
  191.1920  177.1070  139.8740 C   0  0  0  0  0  0  0  0  0  0  0  0
  192.5600  177.2870  139.6480 C   0  0  0  0  0  3  0  0  0  0  0  0
  193.1420  176.8180  138.4670 C   0  0  0  0  0  3  0  0  0  0  0  0
  190.4050  176.4610  138.9140 C   0  0  0  0  0  3  0  0  0  0  0  0
  190.9880  175.9920  137.7330 C   0  0  0  0  0  3  0  0  0  0  0  0
  192.1860  175.1930  135.2260 O   0  0  0  0  0  0  0  0  0  0  0  0
  194.2310  175.6980  136.1180 O   0  0  0  0  0  1  0  0  0  0  0  0
  192.9780  175.6790  136.2590 C   0  0  0  0  0  0  0  0  0  0  0  0
  2  9  1  0  0  0  0
  2 14  1  0  0  0  0
  3  1  2  0  0  0  0
  4 11  1  0  0  0  0
  5  8  2  0  0  0  0
  5 15  1  0  0  0  0
  6  3  1  0  0  0  0
  6 13  1  1  0  0  0
  7  5  1  0  0  0  0
  8 10  1  0  0  0  0
 10  9  2  0  0  0  0
 10 11  1  0  0  0  0
 11 12  2  0  0  0  0
 14  6  1  0  0  0  0
 15  4  2  0  0  0  0
 16  9  1  6  0  0  0
 16 12  1  0  0  0  0
 16  3  1  0  0  0  0
 17 14  1  0  0  0  0
 19 18  1  1  0  0  0
 19 17  1  0  0  0  0
 20 19  1  0  0  0  0
 21 20  1  0  0  0  0
 22 27  2  0  0  0  0
 22 25  1  0  0  0  0
 23 21  1  0  0  0  0
 24 23  1  0  0  0  0
 25 24  2  0  0  0  0
 26 23  2  0  0  0  0
 27 26  1  0  0  0  0
 28 30  2  0  0  0  0
 29 30  1  0  0  0  0
 30 22  1  0  0  0  0
M  END
>  <MODEL>
7

>  <REMARK>
 VINA RESULT:      -8.3      1.841      2.381
  Name = 
  6 active torsions:
  status: ('A' for Active; 'I' for Inactive)
    1  A    between atoms: C_1  and  C_28
    2  A    between atoms: C_2  and  C_4
    3  A    between atoms: C_2  and  N_11
    4  A    between atoms: N_11  and  C_21
    5  A    between atoms: C_17  and  C_21
    6  A    between atoms: C_17  and  N_24
                            x       y       z     vdW  Elec       q    Type
                         _______ _______ _______ _____ _____    ______ ____

>  <TORSDO>
F 6

$$$$
=
 OpenBabel10232408243D

 30 33  0  0  1  0  0  0  0  0999 V2000
  180.9560  179.1140  143.7380 N   0  0  0  0  0  2  0  0  0  0  0  0
  184.6200  178.2710  142.0160 N   0  0  0  0  0  2  0  0  0  0  0  0
  182.1130  179.0100  143.1680 C   0  0  0  0  0  0  0  0  0  0  0  0
  185.3130  178.5300  146.7130 C   0  0  0  0  0  3  0  0  0  0  0  0
  187.3180  177.6130  145.4090 C   0  0  0  0  0  0  0  0  0  0  0  0
  182.2370  178.3910  141.7790 C   0  0  1  0  0  3  0  0  0  0  0  0
  188.5660  176.9320  145.3850 N   0  0  0  0  0  1  0  0  0  0  0  0
  186.7100  177.8730  144.2830 N   0  0  0  0  0  0  0  0  0  0  0  0
  184.5760  178.7130  143.3620 C   0  0  0  0  0  0  0  0  0  0  0  0
  185.4660  178.5650  144.3150 C   0  0  0  0  0  0  0  0  0  0  0  0
  184.7690  178.8320  145.5410 C   0  0  0  0  0  0  0  0  0  0  0  0
  183.3920  179.1140  145.2770 N   0  0  0  0  0  0  0  0  0  0  0  0
  181.1300  178.9300  140.8780 C   0  0  0  0  0  1  0  0  0  0  0  0
  183.5640  178.6320  141.1460 N   0  0  0  0  0  0  0  0  0  0  0  0
  186.7660  178.0910  146.7540 C   0  0  0  0  0  2  0  0  0  0  0  0
  183.3250  179.0610  143.9790 C   0  0  0  0  0  0  0  0  0  0  0  0
  183.6800  177.7580  139.9850 C   0  0  0  0  0  2  0  0  0  0  0  0
  184.6810  179.7910  139.2340 O   0  0  0  0  0  1  0  0  0  0  0  0
  184.2950  178.5140  138.8210 C   0  0  1  0  0  3  0  0  0  0  0  0
  185.4600  177.7910  138.3390 N   0  0  0  0  0  2  0  0  0  0  0  0
  186.5900  178.7090  138.3610 C   0  0  0  0  0  2  0  0  0  0  0  0
  189.6090  177.2130  141.0290 C   0  0  0  0  0  0  0  0  0  0  0  0
  187.6470  178.2070  139.2870 C   0  0  0  0  0  0  0  0  0  0  0  0
  188.7000  177.4340  138.7880 C   0  0  0  0  0  3  0  0  0  0  0  0
  189.6780  176.9400  139.6560 C   0  0  0  0  0  3  0  0  0  0  0  0
  187.5700  178.4810  140.6560 C   0  0  0  0  0  3  0  0  0  0  0  0
  188.5480  177.9870  141.5240 C   0  0  0  0  0  3  0  0  0  0  0  0
  190.4440  175.4800  142.5970 O   0  0  0  0  0  1  0  0  0  0  0  0
  191.7110  177.3260  142.1270 O   0  0  0  0  0  0  0  0  0  0  0  0
  190.6400  176.6880  141.9390 C   0  0  0  0  0  0  0  0  0  0  0  0
  2  9  1  0  0  0  0
  3  1  2  0  0  0  0
  3 16  1  0  0  0  0
  4 15  1  0  0  0  0
  5 15  1  0  0  0  0
  6 13  1  6  0  0  0
  6  3  1  0  0  0  0
  7  5  1  0  0  0  0
  8 10  1  0  0  0  0
  8  5  2  0  0  0  0
  9 16  1  0  0  0  0
  9 10  2  0  0  0  0
 10 11  1  0  0  0  0
 11  4  2  0  0  0  0
 12 11  1  0  0  0  0
 14  6  1  0  0  0  0
 14  2  1  0  0  0  0
 16 12  2  0  0  0  0
 17 14  1  0  0  0  0
 19 18  1  1  0  0  0
 19 17  1  0  0  0  0
 20 21  1  0  0  0  0
 20 19  1  0  0  0  0
 21 23  1  0  0  0  0
 22 27  1  0  0  0  0
 22 30  1  0  0  0  0
 23 26  1  0  0  0  0
 24 23  2  0  0  0  0
 24 25  1  0  0  0  0
 25 22  2  0  0  0  0
 26 27  2  0  0  0  0
 30 29  2  0  0  0  0
 30 28  1  0  0  0  0
M  END
>  <MODEL>
8

>  <REMARK>
 VINA RESULT:      -8.3      2.319      5.929
  Name = 
  6 active torsions:
  status: ('A' for Active; 'I' for Inactive)
    1  A    between atoms: C_1  and  C_28
    2  A    between atoms: C_2  and  C_4
    3  A    between atoms: C_2  and  N_11
    4  A    between atoms: N_11  and  C_21
    5  A    between atoms: C_17  and  C_21
    6  A    between atoms: C_17  and  N_24
                            x       y       z     vdW  Elec       q    Type
                         _______ _______ _______ _____ _____    ______ ____

>  <TORSDO>
F 6

$$$$
=
 OpenBabel10232408243D

 30 33  0  0  1  0  0  0  0  0999 V2000
  191.1960  177.3740  144.8560 N   0  0  0  0  0  2  0  0  0  0  0  0
  187.9450  177.9010  142.3550 N   0  0  0  0  0  2  0  0  0  0  0  0
  190.1790  177.3760  144.0570 C   0  0  0  0  0  0  0  0  0  0  0  0
  186.3100  178.0380  146.8180 C   0  0  0  0  0  3  0  0  0  0  0  0
  184.5940  178.7480  145.0540 C   0  0  0  0  0  0  0  0  0  0  0  0
  190.3280  177.8620  142.6170 C   0  0  1  0  0  3  0  0  0  0  0  0
  183.3620  179.3700  144.7120 N   0  0  0  0  0  1  0  0  0  0  0  0
  185.4260  178.4140  144.1040 N   0  0  0  0  0  0  0  0  0  0  0  0
  187.7220  177.5850  143.7190 C   0  0  0  0  0  0  0  0  0  0  0  0
  186.6520  177.7810  144.4530 C   0  0  0  0  0  0  0  0  0  0  0  0
  187.0890  177.6550  145.8150 C   0  0  0  0  0  0  0  0  0  0  0  0
  188.4970  177.4090  145.8640 N   0  0  0  0  0  0  0  0  0  0  0  0
  191.6090  177.2910  142.0150 C   0  0  0  0  0  1  0  0  0  0  0  0
  189.1650  177.5090  141.7560 N   0  0  0  0  0  0  0  0  0  0  0  0
  184.8690  178.4170  146.5220 C   0  0  0  0  0  2  0  0  0  0  0  0
  188.8280  177.3480  144.6060 C   0  0  0  0  0  0  0  0  0  0  0  0
  189.2690  178.2680  140.5160 C   0  0  0  0  0  2  0  0  0  0  0  0
  187.2890  178.4130  139.1890 O   0  0  0  0  0  1  0  0  0  0  0  0
  188.4160  177.6260  139.4360 C   0  0  1  0  0  3  0  0  0  0  0  0
  189.1960  177.5030  138.2170 N   0  0  0  0  0  2  0  0  0  0  0  0
  189.3350  176.0830  137.9230 C   0  0  0  0  0  2  0  0  0  0  0  0
  193.4940  175.0190  137.7210 C   0  0  0  0  0  0  0  0  0  0  0  0
  190.7770  175.7040  137.8690 C   0  0  0  0  0  0  0  0  0  0  0  0
  191.7510  176.6030  138.3150 C   0  0  0  0  0  3  0  0  0  0  0  0
  193.1040  176.2610  138.2420 C   0  0  0  0  0  3  0  0  0  0  0  0
  191.1590  174.4640  137.3450 C   0  0  0  0  0  3  0  0  0  0  0  0
  192.5120  174.1230  137.2730 C   0  0  0  0  0  3  0  0  0  0  0  0
  195.7550  174.8770  138.7350 O   0  0  0  0  0  1  0  0  0  0  0  0
  195.3990  174.1690  136.5890 O   0  0  0  0  0  0  0  0  0  0  0  0
  194.9210  174.6670  137.6440 C   0  0  0  0  0  0  0  0  0  0  0  0
  2  9  1  0  0  0  0
  3 16  1  0  0  0  0
  3  1  2  0  0  0  0
  5 15  1  0  0  0  0
  6 13  1  6  0  0  0
  6  3  1  0  0  0  0
  7  5  1  0  0  0  0
  8 10  1  0  0  0  0
  8  5  2  0  0  0  0
  9 10  2  0  0  0  0
  9 16  1  0  0  0  0
 10 11  1  0  0  0  0
 11 12  1  0  0  0  0
 11  4  2  0  0  0  0
 14  2  1  0  0  0  0
 14  6  1  0  0  0  0
 15  4  1  0  0  0  0
 16 12  2  0  0  0  0
 17 14  1  0  0  0  0
 19 18  1  6  0  0  0
 19 17  1  0  0  0  0
 20 19  1  0  0  0  0
 21 20  1  0  0  0  0
 22 25  1  0  0  0  0
 23 21  1  0  0  0  0
 23 24  1  0  0  0  0
 25 24  2  0  0  0  0
 26 23  2  0  0  0  0
 27 26  1  0  0  0  0
 27 22  2  0  0  0  0
 29 30  2  0  0  0  0
 30 22  1  0  0  0  0
 30 28  1  0  0  0  0
M  END
>  <MODEL>
9

>  <REMARK>
 VINA RESULT:      -8.1      3.033      4.554
  Name = 
  6 active torsions:
  status: ('A' for Active; 'I' for Inactive)
    1  A    between atoms: C_1  and  C_28
    2  A    between atoms: C_2  and  C_4
    3  A    between atoms: C_2  and  N_11
    4  A    between atoms: N_11  and  C_21
    5  A    between atoms: C_17  and  C_21
    6  A    between atoms: C_17  and  N_24
                            x       y       z     vdW  Elec       q    Type
                         _______ _______ _______ _____ _____    ______ ____

>  <TORSDO>
F 6

$$$$
