=
 OpenBabel10232408063D

 38 43  0  0  1  0  0  0  0  0999 V2000
  186.2260  178.0200  138.2030 N   0  0  0  0  0  0  0  0  0  0  0  0
  185.0700  178.6620  138.7990 C   0  0  0  0  0  2  0  0  0  0  0  0
  188.0610  175.5870  135.0020 N   0  0  0  0  0  0  0  0  0  0  0  0
  189.7190  178.4530  139.1280 N   0  0  0  0  0  0  0  0  0  0  0  0
  190.3240  176.5070  135.6440 S   0  0  0  0  0  0  0  0  0  0  0  0
  184.3530  177.0840  137.0970 C   0  0  0  0  0  2  0  0  0  0  0  0
  190.1930  178.0060  142.6620 C   0  0  0  0  0  0  0  0  0  0  0  0
  183.8520  177.9570  138.2400 C   0  0  1  0  0  3  0  0  0  0  0  0
  186.2160  175.6020  137.7250 C   0  0  0  0  0  1  0  0  0  0  0  0
  188.7810  178.4230  138.2410 C   0  0  0  0  0  0  0  0  0  0  0  0
  189.0270  178.1530  140.3340 C   0  0  0  0  0  0  0  0  0  0  0  0
  186.4510  177.3020  135.8340 C   0  0  0  0  0  2  0  0  0  0  0  0
  187.6320  177.9510  140.1410 N   0  0  0  0  0  0  0  0  0  0  0  0
  189.6090  178.0800  141.4990 C   0  0  0  0  0  0  0  0  0  0  0  0
  187.4970  178.0960  138.8640 C   0  0  0  0  0  0  0  0  0  0  0  0
  190.3710  179.1580  143.4190 O   0  0  0  0  0  1  0  0  0  0  0  0
  189.0190  178.7140  136.8020 C   0  0  0  0  0  2  0  0  0  0  0  0
  187.8370  176.7820  135.6120 C   0  0  0  0  0  0  0  0  0  0  0  0
  185.8650  177.0000  137.2210 C   0  0  2  0  0  0  0  0  0  0  0  0
  189.3820  175.3030  134.9420 C   0  0  0  0  0  0  0  0  0  0  0  0
  188.9840  177.4460  136.0270 C   0  0  0  0  0  0  0  0  0  0  0  0
  189.9030  174.1420  134.3710 O   0  0  0  0  0  0  0  0  0  0  0  0
  190.3030  173.0380  135.1660 C   0  0  0  0  0  1  0  0  0  0  0  0
  190.6640  176.6810  143.1690 C   0  0  2  0  0  3  0  0  0  0  0  0
  188.2320  176.2370  143.4980 C   0  0  0  0  0  1  0  0  0  0  0  0
  189.5530  175.6530  143.0360 C   0  0  0  0  0  2  0  0  0  0  0  0
  191.8280  175.6560  144.9900 O   0  0  0  0  0  1  0  0  0  0  0  0
  191.1120  176.7950  144.6210 C   0  0  0  0  0  2  0  0  0  0  0  0
  183.2360  177.0920  139.3320 C   0  0  0  0  0  2  0  0  0  0  0  0
  182.8000  178.2960  141.5080 C   0  0  0  0  0  0  0  0  0  0  0  0
  182.0060  179.0540  142.3240 C   0  0  0  0  0  0  0  0  0  0  0  0
  180.2800  179.1000  140.6620 C   0  0  0  0  0  3  0  0  0  0  0  0
  184.0790  178.0230  142.2140 C   0  0  0  0  0  3  0  0  0  0  0  0
  183.8890  178.7120  143.4940 N   0  0  0  0  0  0  0  0  0  0  0  0
  182.7280  179.2900  143.5540 C   0  0  0  0  0  3  0  0  0  0  0  0
  180.7360  179.4770  141.9370 C   0  0  0  0  0  2  0  0  0  0  0  0
  182.3680  177.9040  140.2370 C   0  0  0  0  0  0  0  0  0  0  0  0
  181.0930  178.3180  139.8160 C   0  0  0  0  0  3  0  0  0  0  0  0
  1  2  1  0  0  0  0
  1 15  1  0  0  0  0
  3 18  1  0  0  0  0
  4 11  1  0  0  0  0
  5 21  1  0  0  0  0
  6 19  1  0  0  0  0
  6  8  1  0  0  0  0
  7 24  1  0  0  0  0
  7 16  1  0  0  0  0
  8  2  1  0  0  0  0
  8 29  1  1  0  0  0
 10 15  1  0  0  0  0
 10  4  2  0  0  0  0
 11 14  2  0  0  0  0
 12 19  1  0  0  0  0
 13 11  1  0  0  0  0
 14  7  2  0  0  0  0
 15 13  2  0  0  0  0
 17 10  1  0  0  0  0
 18 12  1  0  0  0  0
 18 21  2  0  0  0  0
 19  9  1  1  0  0  0
 19  1  1  0  0  0  0
 20  3  2  0  0  0  0
 20  5  1  0  0  0  0
 21 17  1  0  0  0  0
 22 20  1  0  0  0  0
 22 23  1  0  0  0  0
 24 26  1  1  0  0  0
 24 28  1  0  0  0  0
 26 25  1  0  0  0  0
 28 27  1  0  0  0  0
 29 37  1  0  0  0  0
 30 33  1  0  0  0  0
 30 31  1  0  0  0  0
 31 35  2  0  0  0  0
 32 36  1  0  0  0  0
 33 34  2  0  0  0  0
 34 35  1  0  0  0  0
 36 31  1  0  0  0  0
 37 30  2  0  0  0  0
 38 37  1  0  0  0  0
 38 32  2  0  0  0  0
M  END
>  <MODEL>
1

>  <REMARK>
 VINA RESULT:      -7.2      0.000      0.000
  Name = 
  6 active torsions:
  status: ('A' for Active; 'I' for Inactive)
    1  A    between atoms: C_2  and  C_11
    2  A    between atoms: C_2  and  C_27
    3  A    between atoms: C_2  and  C_31
    4  A    between atoms: O_8  and  C_35
    5  A    between atoms: C_13  and  C_21
    6  A    between atoms: C_21  and  C_36
                            x       y       z     vdW  Elec       q    Type
                         _______ _______ _______ _____ _____    ______ ____

>  <TORSDO>
F 6

$$$$
=
 OpenBabel10232408063D

 38 43  0  0  1  0  0  0  0  0999 V2000
  190.0240  176.9470  137.2700 N   0  0  0  0  0  0  0  0  0  0  0  0
  188.9810  177.9430  137.1040 C   0  0  0  0  0  2  0  0  0  0  0  0
  192.1660  173.3420  135.8770 N   0  0  0  0  0  0  0  0  0  0  0  0
  192.7810  177.0060  139.6430 N   0  0  0  0  0  0  0  0  0  0  0  0
  194.1310  173.9880  137.3270 S   0  0  0  0  0  0  0  0  0  0  0  0
  188.5790  176.0690  135.6120 C   0  0  0  0  0  2  0  0  0  0  0  0
  191.6070  177.6120  142.9850 C   0  0  0  0  0  0  0  0  0  0  0  0
  187.9470  177.3320  136.1820 C   0  0  1  0  0  3  0  0  0  0  0  0
  189.4710  174.5460  137.3280 C   0  0  0  0  0  1  0  0  0  0  0  0
  192.3280  176.8700  138.4420 C   0  0  0  0  0  0  0  0  0  0  0  0
  191.6010  177.2300  140.4060 C   0  0  0  0  0  0  0  0  0  0  0  0
  190.9660  175.4940  135.4870 C   0  0  0  0  0  2  0  0  0  0  0  0
  190.4190  177.2360  139.6150 N   0  0  0  0  0  0  0  0  0  0  0  0
  191.6040  177.4230  141.6950 C   0  0  0  0  0  0  0  0  0  0  0  0
  190.8700  176.9950  138.4280 C   0  0  0  0  0  0  0  0  0  0  0  0
  191.8030  178.8910  143.4930 O   0  0  0  0  0  1  0  0  0  0  0  0
  193.2100  176.6460  137.2660 C   0  0  0  0  0  2  0  0  0  0  0  0
  192.0900  174.6870  136.0600 C   0  0  0  0  0  0  0  0  0  0  0  0
  189.8020  175.7540  136.4550 C   0  0  2  0  0  0  0  0  0  0  0  0
  193.2410  172.8170  136.5110 C   0  0  0  0  0  0  0  0  0  0  0  0
  193.1090  175.2280  136.8320 C   0  0  0  0  0  0  0  0  0  0  0  0
  193.5670  171.4620  136.4970 O   0  0  0  0  0  0  0  0  0  0  0  0
  194.9150  171.0220  136.5370 C   0  0  0  0  0  1  0  0  0  0  0  0
  191.4010  176.4510  143.9040 C   0  0  2  0  0  3  0  0  0  0  0  0
  188.9390  176.2840  143.5390 C   0  0  0  0  0  1  0  0  0  0  0  0
  190.2720  175.5770  143.3840 C   0  0  0  0  0  2  0  0  0  0  0  0
  191.9740  176.3540  146.2240 O   0  0  0  0  0  1  0  0  0  0  0  0
  191.0910  176.9360  145.3140 C   0  0  0  0  0  2  0  0  0  0  0  0
  186.7070  176.9810  136.9930 C   0  0  0  0  0  2  0  0  0  0  0  0
  185.3440  174.9590  136.3370 C   0  0  0  0  0  0  0  0  0  0  0  0
  184.3920  174.3500  135.5670 C   0  0  0  0  0  0  0  0  0  0  0  0
  184.0290  176.3790  134.3460 C   0  0  0  0  0  3  0  0  0  0  0  0
  185.8690  173.9680  137.3130 C   0  0  0  0  0  2  0  0  0  0  0  0
  185.1000  172.7630  136.9860 N   0  0  0  0  0  0  0  0  0  0  0  0
  184.2740  172.9790  136.0090 C   0  0  0  0  0  3  0  0  0  0  0  0
  183.7110  175.0270  134.5590 C   0  0  0  0  0  3  0  0  0  0  0  0
  185.6820  176.3020  136.1440 C   0  0  0  0  0  0  0  0  0  0  0  0
  185.0090  177.0140  135.1360 C   0  0  0  0  0  3  0  0  0  0  0  0
  1 15  1  0  0  0  0
  2  1  1  0  0  0  0
  3 18  1  0  0  0  0
  3 20  2  0  0  0  0
  4 11  1  0  0  0  0
  6  8  1  0  0  0  0
  6 19  1  0  0  0  0
  7 16  1  0  0  0  0
  7 24  1  0  0  0  0
  8 29  1  1  0  0  0
  8  2  1  0  0  0  0
 10  4  2  0  0  0  0
 11 14  2  0  0  0  0
 12 18  1  0  0  0  0
 12 19  1  0  0  0  0
 13 11  1  0  0  0  0
 14  7  2  0  0  0  0
 15 10  1  0  0  0  0
 15 13  2  0  0  0  0
 17 10  1  0  0  0  0
 18 21  2  0  0  0  0
 19  1  1  0  0  0  0
 19  9  1  1  0  0  0
 20  5  1  0  0  0  0
 21 17  1  0  0  0  0
 21  5  1  0  0  0  0
 22 20  1  0  0  0  0
 22 23  1  0  0  0  0
 24 26  1  6  0  0  0
 24 28  1  0  0  0  0
 26 25  1  0  0  0  0
 28 27  1  0  0  0  0
 30 33  1  0  0  0  0
 31 35  1  0  0  0  0
 31 30  2  0  0  0  0
 32 36  2  0  0  0  0
 32 38  1  0  0  0  0
 34 33  1  0  0  0  0
 35 34  2  0  0  0  0
 36 31  1  0  0  0  0
 37 30  1  0  0  0  0
 37 29  1  0  0  0  0
 38 37  2  0  0  0  0
M  END
>  <MODEL>
2

>  <REMARK>
 VINA RESULT:      -7.1      3.941      5.028
  Name = 
  6 active torsions:
  status: ('A' for Active; 'I' for Inactive)
    1  A    between atoms: C_2  and  C_11
    2  A    between atoms: C_2  and  C_27
    3  A    between atoms: C_2  and  C_31
    4  A    between atoms: O_8  and  C_35
    5  A    between atoms: C_13  and  C_21
    6  A    between atoms: C_21  and  C_36
                            x       y       z     vdW  Elec       q    Type
                         _______ _______ _______ _____ _____    ______ ____

>  <TORSDO>
F 6

$$$$
=
 OpenBabel10232408063D

 38 43  0  0  1  0  0  0  0  0999 V2000
  188.9650  176.3960  137.0640 N   0  0  0  0  0  0  0  0  0  0  0  0
  187.7950  177.2530  137.0290 C   0  0  0  0  0  2  0  0  0  0  0  0
  191.3170  173.0160  135.4590 N   0  0  0  0  0  0  0  0  0  0  0  0
  192.0040  176.8790  139.0060 N   0  0  0  0  0  0  0  0  0  0  0  0
  193.3730  173.9500  136.5900 S   0  0  0  0  0  0  0  0  0  0  0  0
  187.4190  175.2850  135.6560 C   0  0  0  0  0  2  0  0  0  0  0  0
  191.2510  177.4790  142.4690 C   0  0  0  0  0  0  0  0  0  0  0  0
  186.7240  176.4860  136.2830 C   0  0  1  0  0  3  0  0  0  0  0  0
  188.7270  173.9510  137.2590 C   0  0  0  0  0  1  0  0  0  0  0  0
  191.4050  176.6420  137.8880 C   0  0  0  0  0  0  0  0  0  0  0  0
  190.9260  176.9940  139.9280 C   0  0  0  0  0  0  0  0  0  0  0  0
  189.8160  174.9930  135.1980 C   0  0  0  0  0  2  0  0  0  0  0  0
  189.6510  176.8260  139.3180 N   0  0  0  0  0  0  0  0  0  0  0  0
  191.0880  177.2380  141.1990 C   0  0  0  0  0  0  0  0  0  0  0  0
  189.9550  176.5910  138.0840 C   0  0  0  0  0  0  0  0  0  0  0  0
  191.3580  178.7920  142.9130 O   0  0  0  0  0  1  0  0  0  0  0  0
  192.1310  176.4750  136.6010 C   0  0  0  0  0  2  0  0  0  0  0  0
  191.1010  174.3490  135.6190 C   0  0  0  0  0  0  0  0  0  0  0  0
  188.7790  175.1530  136.3190 C   0  0  2  0  0  0  0  0  0  0  0  0
  192.5270  172.6500  135.9410 C   0  0  0  0  0  0  0  0  0  0  0  0
  192.1460  175.0380  136.2210 C   0  0  0  0  0  0  0  0  0  0  0  0
  193.0120  171.3430  135.9120 O   0  0  0  0  0  0  0  0  0  0  0  0
  193.6970  170.8310  134.7790 C   0  0  0  0  0  1  0  0  0  0  0  0
  191.3230  176.3410  143.4350 C   0  0  2  0  0  3  0  0  0  0  0  0
  188.8400  176.1300  143.3080 C   0  0  0  0  0  1  0  0  0  0  0  0
  190.1600  175.3910  143.1990 C   0  0  0  0  0  2  0  0  0  0  0  0
  192.0180  175.9900  145.6970 O   0  0  0  0  0  1  0  0  0  0  0  0
  191.3040  176.8560  144.8690 C   0  0  0  0  0  2  0  0  0  0  0  0
  185.6640  176.0240  137.2740 C   0  0  0  0  0  2  0  0  0  0  0  0
  184.2930  177.9940  138.0580 C   0  0  0  0  0  0  0  0  0  0  0  0
  183.1870  178.7960  137.9810 C   0  0  0  0  0  0  0  0  0  0  0  0
  182.3030  177.4650  136.1950 C   0  0  0  0  0  3  0  0  0  0  0  0
  185.1810  178.5160  139.1300 C   0  0  0  0  0  3  0  0  0  0  0  0
  184.4360  179.6790  139.6220 N   0  0  0  0  0  0  0  0  0  0  0  0
  183.3200  179.8350  138.9770 C   0  0  0  0  0  3  0  0  0  0  0  0
  182.1670  178.5640  137.0610 C   0  0  0  0  0  2  0  0  0  0  0  0
  184.4510  176.8930  137.2100 C   0  0  0  0  0  0  0  0  0  0  0  0
  183.4400  176.6350  136.2680 C   0  0  0  0  0  3  0  0  0  0  0  0
  1 15  1  0  0  0  0
  2  1  1  0  0  0  0
  3 18  1  0  0  0  0
  3 20  2  0  0  0  0
  4 11  1  0  0  0  0
  6  8  1  0  0  0  0
  6 19  1  0  0  0  0
  7 16  1  0  0  0  0
  7 24  1  0  0  0  0
  8  2  1  0  0  0  0
  8 29  1  1  0  0  0
 10 15  1  0  0  0  0
 10  4  2  0  0  0  0
 11 14  2  0  0  0  0
 12 18  1  0  0  0  0
 12 19  1  0  0  0  0
 13 11  1  0  0  0  0
 14  7  2  0  0  0  0
 15 13  2  0  0  0  0
 17 10  1  0  0  0  0
 18 21  2  0  0  0  0
 19  1  1  0  0  0  0
 19  9  1  1  0  0  0
 20  5  1  0  0  0  0
 21  5  1  0  0  0  0
 21 17  1  0  0  0  0
 22 20  1  0  0  0  0
 23 22  1  0  0  0  0
 24 26  1  1  0  0  0
 24 28  1  0  0  0  0
 26 25  1  0  0  0  0
 28 27  1  0  0  0  0
 30 33  1  0  0  0  0
 31 30  1  0  0  0  0
 31 35  2  0  0  0  0
 32 38  2  0  0  0  0
 32 36  1  0  0  0  0
 33 34  2  0  0  0  0
 35 34  1  0  0  0  0
 36 31  1  0  0  0  0
 37 29  1  0  0  0  0
 37 30  2  0  0  0  0
 38 37  1  0  0  0  0
M  END
>  <MODEL>
3

>  <REMARK>
 VINA RESULT:      -7.0      2.358      3.468
  Name = 
  6 active torsions:
  status: ('A' for Active; 'I' for Inactive)
    1  A    between atoms: C_2  and  C_11
    2  A    between atoms: C_2  and  C_27
    3  A    between atoms: C_2  and  C_31
    4  A    between atoms: O_8  and  C_35
    5  A    between atoms: C_13  and  C_21
    6  A    between atoms: C_21  and  C_36
                            x       y       z     vdW  Elec       q    Type
                         _______ _______ _______ _____ _____    ______ ____

>  <TORSDO>
F 6

$$$$
=
 OpenBabel10232408063D

 38 43  0  0  1  0  0  0  0  0999 V2000
  186.5860  177.2440  136.6010 N   0  0  0  0  0  0  0  0  0  0  0  0
  185.3110  177.6390  136.0310 C   0  0  0  0  0  2  0  0  0  0  0  0
  190.3530  174.9430  136.3930 N   0  0  0  0  0  0  0  0  0  0  0  0
  188.2730  178.7080  139.4730 N   0  0  0  0  0  0  0  0  0  0  0  0
  191.3660  176.5070  138.0990 S   0  0  0  0  0  0  0  0  0  0  0  0
  186.1790  175.7000  134.8520 C   0  0  0  0  0  2  0  0  0  0  0  0
  186.0730  178.9150  142.3070 C   0  0  0  0  0  0  0  0  0  0  0  0
  184.9380  176.5660  135.0300 C   0  0  1  0  0  3  0  0  0  0  0  0
  187.1150  174.8660  136.9710 C   0  0  0  0  0  1  0  0  0  0  0  0
  188.2760  178.3050  138.2470 C   0  0  0  0  0  0  0  0  0  0  0  0
  186.9490  178.4130  139.9030 C   0  0  0  0  0  0  0  0  0  0  0  0
  188.5120  176.2760  135.3640 C   0  0  0  0  0  2  0  0  0  0  0  0
  186.1500  177.8270  138.8830 N   0  0  0  0  0  0  0  0  0  0  0  0
  186.5100  178.6650  141.1050 C   0  0  0  0  0  0  0  0  0  0  0  0
  186.9710  177.7460  137.8890 C   0  0  0  0  0  0  0  0  0  0  0  0
  185.5560  180.1700  142.6060 O   0  0  0  0  0  1  0  0  0  0  0  0
  189.4580  178.4370  137.3550 C   0  0  0  0  0  2  0  0  0  0  0  0
  189.6640  176.1120  136.3070 C   0  0  0  0  0  0  0  0  0  0  0  0
  187.1300  176.0340  135.9880 C   0  0  2  0  0  0  0  0  0  0  0  0
  191.3240  175.0100  137.3330 C   0  0  0  0  0  0  0  0  0  0  0  0
  190.0960  177.1070  137.1750 C   0  0  0  0  0  0  0  0  0  0  0  0
  192.1860  173.9570  137.6370 O   0  0  0  0  0  0  0  0  0  0  0  0
  193.5050  173.9020  137.1170 C   0  0  0  0  0  1  0  0  0  0  0  0
  186.1330  177.8480  143.3520 C   0  0  2  0  0  3  0  0  0  0  0  0
  186.2290  178.0220  145.8390 C   0  0  0  0  0  1  0  0  0  0  0  0
  185.4000  178.3080  144.6010 C   0  0  0  0  0  2  0  0  0  0  0  0
  187.8560  176.1890  143.3150 O   0  0  0  0  0  1  0  0  0  0  0  0
  187.5810  177.5070  143.6830 C   0  0  0  0  0  2  0  0  0  0  0  0
  183.7930  175.7370  135.5980 C   0  0  0  0  0  2  0  0  0  0  0  0
  182.4090  176.5970  137.5260 C   0  0  0  0  0  0  0  0  0  0  0  0
  181.4400  177.4140  138.0390 C   0  0  0  0  0  0  0  0  0  0  0  0
  181.0180  178.3380  135.8690 C   0  0  0  0  0  3  0  0  0  0  0  0
  182.9810  175.7870  138.6350 C   0  0  0  0  0  3  0  0  0  0  0  0
  182.2170  176.2540  139.7950 N   0  0  0  0  0  0  0  0  0  0  0  0
  181.3550  177.1650  139.4610 C   0  0  0  0  0  3  0  0  0  0  0  0
  180.7200  178.3010  137.2420 C   0  0  0  0  0  2  0  0  0  0  0  0
  182.7230  176.6120  136.1640 C   0  0  0  0  0  0  0  0  0  0  0  0
  182.0160  177.4980  135.3320 C   0  0  0  0  0  3  0  0  0  0  0  0
  1 15  1  0  0  0  0
  2  1  1  0  0  0  0
  3 20  2  0  0  0  0
  4 11  1  0  0  0  0
  6  8  1  0  0  0  0
  6 19  1  0  0  0  0
  7 16  1  0  0  0  0
  7 24  1  0  0  0  0
  8 29  1  1  0  0  0
  8  2  1  0  0  0  0
 10  4  2  0  0  0  0
 11 14  2  0  0  0  0
 12 19  1  0  0  0  0
 12 18  1  0  0  0  0
 13 11  1  0  0  0  0
 14  7  2  0  0  0  0
 15 10  1  0  0  0  0
 15 13  2  0  0  0  0
 17 10  1  0  0  0  0
 18  3  1  0  0  0  0
 18 21  2  0  0  0  0
 19  1  1  0  0  0  0
 19  9  1  1  0  0  0
 20 22  1  0  0  0  0
 20  5  1  0  0  0  0
 21 17  1  0  0  0  0
 21  5  1  0  0  0  0
 23 22  1  0  0  0  0
 24 28  1  1  0  0  0
 24 26  1  0  0  0  0
 26 25  1  0  0  0  0
 27 28  1  0  0  0  0
 29 37  1  0  0  0  0
 30 31  1  0  0  0  0
 30 33  1  0  0  0  0
 31 35  2  0  0  0  0
 32 36  1  0  0  0  0
 33 34  2  0  0  0  0
 35 34  1  0  0  0  0
 36 31  1  0  0  0  0
 37 30  2  0  0  0  0
 38 32  2  0  0  0  0
 38 37  1  0  0  0  0
M  END
>  <MODEL>
4

>  <REMARK>
 VINA RESULT:      -6.9      2.505      3.545
  Name = 
  6 active torsions:
  status: ('A' for Active; 'I' for Inactive)
    1  A    between atoms: C_2  and  C_11
    2  A    between atoms: C_2  and  C_27
    3  A    between atoms: C_2  and  C_31
    4  A    between atoms: O_8  and  C_35
    5  A    between atoms: C_13  and  C_21
    6  A    between atoms: C_21  and  C_36
                            x       y       z     vdW  Elec       q    Type
                         _______ _______ _______ _____ _____    ______ ____

>  <TORSDO>
F 6

$$$$
=
 OpenBabel10232408063D

 38 43  0  0  1  0  0  0  0  0999 V2000
  187.2270  177.1700  137.3380 N   0  0  0  0  0  0  0  0  0  0  0  0
  186.0480  178.0120  137.4170 C   0  0  0  0  0  2  0  0  0  0  0  0
  189.5560  173.9760  135.3620 N   0  0  0  0  0  0  0  0  0  0  0  0
  190.3240  177.5170  139.2150 N   0  0  0  0  0  0  0  0  0  0  0  0
  191.6400  174.8320  136.5040 S   0  0  0  0  0  0  0  0  0  0  0  0
  185.6460  176.1690  135.8870 C   0  0  0  0  0  2  0  0  0  0  0  0
  189.6830  177.7980  142.7400 C   0  0  0  0  0  0  0  0  0  0  0  0
  184.9600  177.3010  136.6410 C   0  0  1  0  0  3  0  0  0  0  0  0
  187.0190  174.7140  137.3220 C   0  0  0  0  0  1  0  0  0  0  0  0
  189.6910  177.3720  138.1010 C   0  0  0  0  0  0  0  0  0  0  0  0
  189.2770  177.5350  140.1780 C   0  0  0  0  0  0  0  0  0  0  0  0
  188.0290  175.9490  135.3270 C   0  0  0  0  0  2  0  0  0  0  0  0
  187.9850  177.4070  139.5980 N   0  0  0  0  0  0  0  0  0  0  0  0
  189.4790  177.6680  141.4590 C   0  0  0  0  0  0  0  0  0  0  0  0
  188.2490  177.2860  138.3380 C   0  0  0  0  0  0  0  0  0  0  0  0
  189.7920  179.0670  143.2960 O   0  0  0  0  0  1  0  0  0  0  0  0
  190.3750  177.3300  136.7810 C   0  0  0  0  0  2  0  0  0  0  0  0
  189.3330  175.2870  135.6470 C   0  0  0  0  0  0  0  0  0  0  0  0
  187.0280  175.9960  136.4910 C   0  0  2  0  0  0  0  0  0  0  0  0
  190.7850  173.5830  135.7700 C   0  0  0  0  0  0  0  0  0  0  0  0
  190.3910  175.9330  136.2740 C   0  0  0  0  0  0  0  0  0  0  0  0
  191.2810  172.2910  135.6080 O   0  0  0  0  0  0  0  0  0  0  0  0
  192.6690  172.0430  135.4470 C   0  0  0  0  0  1  0  0  0  0  0  0
  189.7980  176.5790  143.5980 C   0  0  2  0  0  3  0  0  0  0  0  0
  188.8360  177.1630  145.8250 C   0  0  0  0  0  1  0  0  0  0  0  0
  190.1150  176.9830  145.0280 C   0  0  0  0  0  2  0  0  0  0  0  0
  191.8570  175.4410  144.0280 O   0  0  0  0  0  1  0  0  0  0  0  0
  190.8750  175.6470  143.0590 C   0  0  0  0  0  2  0  0  0  0  0  0
  183.9390  176.7400  137.6210 C   0  0  0  0  0  2  0  0  0  0  0  0
  182.4890  178.1310  139.1510 C   0  0  0  0  0  0  0  0  0  0  0  0
  181.4850  179.0350  139.3600 C   0  0  0  0  0  0  0  0  0  0  0  0
  181.0790  179.1850  137.0030 C   0  0  0  0  0  3  0  0  0  0  0  0
  183.0630  177.7470  140.4680 C   0  0  0  0  0  3  0  0  0  0  0  0
  182.2610  178.5390  141.4060 N   0  0  0  0  0  0  0  0  0  0  0  0
  181.3780  179.2600  140.7840 C   0  0  0  0  0  3  0  0  0  0  0  0
  180.7540  179.5870  138.3100 C   0  0  0  0  0  2  0  0  0  0  0  0
  182.8300  177.7120  137.8610 C   0  0  0  0  0  0  0  0  0  0  0  0
  182.1140  178.2540  136.7790 C   0  0  0  0  0  3  0  0  0  0  0  0
  1  2  1  0  0  0  0
  1 15  1  0  0  0  0
  3 18  1  0  0  0  0
  3 20  2  0  0  0  0
  4 11  1  0  0  0  0
  6 19  1  0  0  0  0
  6  8  1  0  0  0  0
  7 16  1  0  0  0  0
  7 24  1  0  0  0  0
  8  2  1  0  0  0  0
  8 29  1  1  0  0  0
 10 15  1  0  0  0  0
 10  4  2  0  0  0  0
 11 14  2  0  0  0  0
 12 18  1  0  0  0  0
 12 19  1  0  0  0  0
 13 11  1  0  0  0  0
 14  7  2  0  0  0  0
 15 13  2  0  0  0  0
 17 10  1  0  0  0  0
 18 21  2  0  0  0  0
 19  9  1  1  0  0  0
 19  1  1  0  0  0  0
 20  5  1  0  0  0  0
 21  5  1  0  0  0  0
 21 17  1  0  0  0  0
 22 20  1  0  0  0  0
 23 22  1  0  0  0  0
 24 28  1  6  0  0  0
 24 26  1  0  0  0  0
 26 25  1  0  0  0  0
 28 27  1  0  0  0  0
 29 37  1  0  0  0  0
 30 31  1  0  0  0  0
 30 33  1  0  0  0  0
 31 35  2  0  0  0  0
 32 36  1  0  0  0  0
 33 34  2  0  0  0  0
 35 34  1  0  0  0  0
 36 31  1  0  0  0  0
 37 30  2  0  0  0  0
 38 32  2  0  0  0  0
 38 37  1  0  0  0  0
M  END
>  <MODEL>
5

>  <REMARK>
 VINA RESULT:      -6.9      1.537      2.130
  Name = 
  6 active torsions:
  status: ('A' for Active; 'I' for Inactive)
    1  A    between atoms: C_2  and  C_11
    2  A    between atoms: C_2  and  C_27
    3  A    between atoms: C_2  and  C_31
    4  A    between atoms: O_8  and  C_35
    5  A    between atoms: C_13  and  C_21
    6  A    between atoms: C_21  and  C_36
                            x       y       z     vdW  Elec       q    Type
                         _______ _______ _______ _____ _____    ______ ____

>  <TORSDO>
F 6

$$$$
=
 OpenBabel10232408063D

 38 43  0  0  1  0  0  0  0  0999 V2000
  187.6210  177.1150  136.9520 N   0  0  0  0  0  0  0  0  0  0  0  0
  186.5470  178.0900  136.9710 C   0  0  0  0  0  2  0  0  0  0  0  0
  189.6390  173.6400  135.1130 N   0  0  0  0  0  0  0  0  0  0  0  0
  190.6540  177.1250  138.9610 N   0  0  0  0  0  0  0  0  0  0  0  0
  191.7590  174.2640  136.3370 S   0  0  0  0  0  0  0  0  0  0  0  0
  185.9960  176.2840  135.4430 C   0  0  0  0  0  2  0  0  0  0  0  0
  189.9010  177.5320  142.4510 C   0  0  0  0  0  0  0  0  0  0  0  0
  185.4160  177.5000  136.1550 C   0  0  1  0  0  3  0  0  0  0  0  0
  187.1260  174.7000  136.9510 C   0  0  0  0  0  1  0  0  0  0  0  0
  190.0560  177.0390  137.8210 C   0  0  0  0  0  0  0  0  0  0  0  0
  189.5760  177.2810  139.8760 C   0  0  0  0  0  0  0  0  0  0  0  0
  188.3580  175.7780  134.9910 C   0  0  0  0  0  2  0  0  0  0  0  0
  188.3040  177.2950  139.2410 N   0  0  0  0  0  0  0  0  0  0  0  0
  189.7380  177.4080  141.1640 C   0  0  0  0  0  0  0  0  0  0  0  0
  188.6050  177.1260  137.9960 C   0  0  0  0  0  0  0  0  0  0  0  0
  190.1350  178.7880  142.9980 O   0  0  0  0  0  1  0  0  0  0  0  0
  190.7860  176.8970  136.5330 C   0  0  0  0  0  2  0  0  0  0  0  0
  189.5610  174.9720  135.3740 C   0  0  0  0  0  0  0  0  0  0  0  0
  187.3210  175.9590  136.1090 C   0  0  2  0  0  0  0  0  0  0  0  0
  190.7950  173.1130  135.5780 C   0  0  0  0  0  0  0  0  0  0  0  0
  190.6590  175.5000  136.0410 C   0  0  0  0  0  0  0  0  0  0  0  0
  191.1430  171.7690  135.4510 O   0  0  0  0  0  0  0  0  0  0  0  0
  190.6830  170.9820  134.3640 C   0  0  0  0  0  1  0  0  0  0  0  0
  189.8350  176.3220  143.3250 C   0  0  2  0  0  3  0  0  0  0  0  0
  187.6360  176.9860  144.2990 C   0  0  0  0  0  1  0  0  0  0  0  0
  189.0840  176.6500  144.6050 C   0  0  0  0  0  2  0  0  0  0  0  0
  191.6700  176.3560  144.8600 O   0  0  0  0  0  1  0  0  0  0  0  0
  191.2370  175.8190  143.6470 C   0  0  0  0  0  2  0  0  0  0  0  0
  184.2960  177.0770  137.0950 C   0  0  0  0  0  2  0  0  0  0  0  0
  182.8120  175.1320  136.4670 C   0  0  0  0  0  0  0  0  0  0  0  0
  181.7540  174.5990  135.7850 C   0  0  0  0  0  0  0  0  0  0  0  0
  181.2810  176.7260  134.7860 C   0  0  0  0  0  3  0  0  0  0  0  0
  183.4370  174.0580  137.2840 C   0  0  0  0  0  2  0  0  0  0  0  0
  182.6050  172.8940  136.9670 N   0  0  0  0  0  0  0  0  0  0  0  0
  181.6630  173.1980  136.1280 C   0  0  0  0  0  3  0  0  0  0  0  0
  180.9620  175.3650  134.9320 C   0  0  0  0  0  3  0  0  0  0  0  0
  183.1530  176.4820  136.3380 C   0  0  0  0  0  0  0  0  0  0  0  0
  182.3710  177.2820  135.4870 C   0  0  0  0  0  3  0  0  0  0  0  0
  1  2  1  0  0  0  0
  1 15  1  0  0  0  0
  3 18  1  0  0  0  0
  3 20  2  0  0  0  0
  4 11  1  0  0  0  0
  6 19  1  0  0  0  0
  6  8  1  0  0  0  0
  7 16  1  0  0  0  0
  7 24  1  0  0  0  0
  8  2  1  0  0  0  0
  8 29  1  1  0  0  0
 10 15  1  0  0  0  0
 10  4  2  0  0  0  0
 11 14  2  0  0  0  0
 12 18  1  0  0  0  0
 12 19  1  0  0  0  0
 13 11  1  0  0  0  0
 14  7  2  0  0  0  0
 15 13  2  0  0  0  0
 17 10  1  0  0  0  0
 18 21  2  0  0  0  0
 19  9  1  1  0  0  0
 19  1  1  0  0  0  0
 20  5  1  0  0  0  0
 21  5  1  0  0  0  0
 21 17  1  0  0  0  0
 22 20  1  0  0  0  0
 23 22  1  0  0  0  0
 24 28  1  1  0  0  0
 24 26  1  0  0  0  0
 25 26  1  0  0  0  0
 28 27  1  0  0  0  0
 30 33  1  0  0  0  0
 31 35  1  0  0  0  0
 31 30  2  0  0  0  0
 32 36  2  0  0  0  0
 32 38  1  0  0  0  0
 34 33  1  0  0  0  0
 35 34  2  0  0  0  0
 36 31  1  0  0  0  0
 37 30  1  0  0  0  0
 37 29  1  0  0  0  0
 38 37  2  0  0  0  0
M  END
>  <MODEL>
6

>  <REMARK>
 VINA RESULT:      -6.3      2.940      3.890
  Name = 
  6 active torsions:
  status: ('A' for Active; 'I' for Inactive)
    1  A    between atoms: C_2  and  C_11
    2  A    between atoms: C_2  and  C_27
    3  A    between atoms: C_2  and  C_31
    4  A    between atoms: O_8  and  C_35
    5  A    between atoms: C_13  and  C_21
    6  A    between atoms: C_21  and  C_36
                            x       y       z     vdW  Elec       q    Type
                         _______ _______ _______ _____ _____    ______ ____

>  <TORSDO>
F 6

$$$$
=
 OpenBabel10232408063D

 38 43  0  0  1  0  0  0  0  0999 V2000
  190.4940  176.1130  136.7570 N   0  0  0  0  0  0  0  0  0  0  0  0
  189.2760  176.8350  136.4390 C   0  0  0  0  0  2  0  0  0  0  0  0
  193.4890  173.0030  135.8140 N   0  0  0  0  0  0  0  0  0  0  0  0
  192.9560  176.9420  139.3040 N   0  0  0  0  0  0  0  0  0  0  0  0
  195.1310  174.1670  137.3400 S   0  0  0  0  0  0  0  0  0  0  0  0
  189.4260  174.8280  135.0780 C   0  0  0  0  0  2  0  0  0  0  0  0
  191.3940  177.4780  142.4960 C   0  0  0  0  0  0  0  0  0  0  0  0
  188.4850  175.9490  135.4990 C   0  0  1  0  0  3  0  0  0  0  0  0
  190.4800  173.6580  136.9710 C   0  0  0  0  0  1  0  0  0  0  0  0
  192.6490  176.6320  138.0900 C   0  0  0  0  0  0  0  0  0  0  0  0
  191.6940  176.9420  139.9620 C   0  0  0  0  0  0  0  0  0  0  0  0
  191.8820  174.8000  135.1680 C   0  0  0  0  0  2  0  0  0  0  0  0
  190.6130  176.6310  139.0920 N   0  0  0  0  0  0  0  0  0  0  0  0
  191.5430  177.2110  141.2290 C   0  0  0  0  0  0  0  0  0  0  0  0
  191.2060  176.4230  137.9630 C   0  0  0  0  0  0  0  0  0  0  0  0
  191.2590  178.7970  142.9120 O   0  0  0  0  0  1  0  0  0  0  0  0
  193.6560  176.5390  137.0000 C   0  0  0  0  0  2  0  0  0  0  0  0
  193.1030  174.3050  135.8810 C   0  0  0  0  0  0  0  0  0  0  0  0
  190.6110  174.8520  136.0280 C   0  0  2  0  0  0  0  0  0  0  0  0
  194.5940  172.7760  136.5620 C   0  0  0  0  0  0  0  0  0  0  0  0
  193.9080  175.1100  136.6760 C   0  0  0  0  0  0  0  0  0  0  0  0
  195.2100  171.5310  136.6800 O   0  0  0  0  0  0  0  0  0  0  0  0
  194.4540  170.3360  136.7960 C   0  0  0  0  0  1  0  0  0  0  0  0
  191.3700  176.3610  143.4890 C   0  0  2  0  0  3  0  0  0  0  0  0
  188.8870  176.1630  143.3450 C   0  0  0  0  0  1  0  0  0  0  0  0
  190.2060  175.4300  143.1900 C   0  0  0  0  0  2  0  0  0  0  0  0
  191.9810  176.1040  145.7870 O   0  0  0  0  0  1  0  0  0  0  0  0
  191.2590  176.9090  144.9060 C   0  0  0  0  0  2  0  0  0  0  0  0
  187.2870  175.3800  136.2470 C   0  0  0  0  0  2  0  0  0  0  0  0
  185.1870  176.6930  136.7360 C   0  0  0  0  0  0  0  0  0  0  0  0
  184.5090  177.6670  137.4160 C   0  0  0  0  0  0  0  0  0  0  0  0
  186.4900  178.2440  138.6340 C   0  0  0  0  0  3  0  0  0  0  0  0
  184.2440  176.0270  135.7980 C   0  0  0  0  0  3  0  0  0  0  0  0
  182.9910  176.7470  136.0450 N   0  0  0  0  0  0  0  0  0  0  0  0
  183.1410  177.6640  136.9520 C   0  0  0  0  0  3  0  0  0  0  0  0
  185.1270  178.4660  138.3760 C   0  0  0  0  0  2  0  0  0  0  0  0
  186.5440  176.4540  136.9720 C   0  0  0  0  0  0  0  0  0  0  0  0
  187.1950  177.2420  137.9370 C   0  0  0  0  0  3  0  0  0  0  0  0
  1 15  1  0  0  0  0
  2  1  1  0  0  0  0
  3 18  1  0  0  0  0
  3 20  2  0  0  0  0
  4 11  1  0  0  0  0
  6  8  1  0  0  0  0
  6 19  1  0  0  0  0
  7 16  1  0  0  0  0
  7 24  1  0  0  0  0
  8 29  1  1  0  0  0
  8  2  1  0  0  0  0
 10  4  2  0  0  0  0
 11 14  2  0  0  0  0
 12 18  1  0  0  0  0
 12 19  1  0  0  0  0
 13 11  1  0  0  0  0
 14  7  2  0  0  0  0
 15 10  1  0  0  0  0
 15 13  2  0  0  0  0
 17 10  1  0  0  0  0
 18 21  2  0  0  0  0
 19  1  1  0  0  0  0
 19  9  1  1  0  0  0
 20 22  1  0  0  0  0
 20  5  1  0  0  0  0
 21 17  1  0  0  0  0
 21  5  1  0  0  0  0
 22 23  1  0  0  0  0
 24 26  1  6  0  0  0
 24 28  1  0  0  0  0
 26 25  1  0  0  0  0
 28 27  1  0  0  0  0
 29 37  1  0  0  0  0
 30 37  2  0  0  0  0
 30 31  1  0  0  0  0
 31 36  1  0  0  0  0
 33 34  2  0  0  0  0
 33 30  1  0  0  0  0
 34 35  1  0  0  0  0
 35 31  2  0  0  0  0
 36 32  1  0  0  0  0
 37 38  1  0  0  0  0
 38 32  2  0  0  0  0
M  END
>  <MODEL>
7

>  <REMARK>
 VINA RESULT:      -6.3      3.202      4.972
  Name = 
  6 active torsions:
  status: ('A' for Active; 'I' for Inactive)
    1  A    between atoms: C_2  and  C_11
    2  A    between atoms: C_2  and  C_27
    3  A    between atoms: C_2  and  C_31
    4  A    between atoms: O_8  and  C_35
    5  A    between atoms: C_13  and  C_21
    6  A    between atoms: C_21  and  C_36
                            x       y       z     vdW  Elec       q    Type
                         _______ _______ _______ _____ _____    ______ ____

>  <TORSDO>
F 6

$$$$
=
 OpenBabel10232408063D

 38 43  0  0  1  0  0  0  0  0999 V2000
  190.2890  177.1010  138.6960 N   0  0  0  0  0  0  0  0  0  0  0  0
  191.1140  177.2920  139.8750 C   0  0  0  0  0  2  0  0  0  0  0  0
  186.4910  177.6860  136.5140 N   0  0  0  0  0  0  0  0  0  0  0  0
  191.3340  175.8450  135.4450 N   0  0  0  0  0  0  0  0  0  0  0  0
  187.7020  177.2210  134.3460 S   0  0  0  0  0  0  0  0  0  0  0  0
  188.8000  177.8240  140.3900 C   0  0  0  0  0  2  0  0  0  0  0  0
  193.1370  172.7530  135.7650 C   0  0  0  0  0  0  0  0  0  0  0  0
  190.1660  177.5810  141.0200 C   0  0  1  0  0  3  0  0  0  0  0  0
  188.0780  176.0270  138.8700 C   0  0  0  0  0  1  0  0  0  0  0  0
  190.7360  176.7240  136.1760 C   0  0  0  0  0  0  0  0  0  0  0  0
  191.7980  174.8970  136.4000 C   0  0  0  0  0  0  0  0  0  0  0  0
  188.2940  178.4410  138.0660 C   0  0  0  0  0  2  0  0  0  0  0  0
  191.4640  175.2470  137.7390 N   0  0  0  0  0  0  0  0  0  0  0  0
  192.4690  173.8250  136.0830 C   0  0  0  0  0  0  0  0  0  0  0  0
  190.8010  176.3460  137.5890 C   0  0  0  0  0  0  0  0  0  0  0  0
  194.5180  172.8170  135.6230 O   0  0  0  0  0  1  0  0  0  0  0  0
  190.1050  177.9490  135.6160 C   0  0  0  0  0  2  0  0  0  0  0  0
  187.8010  177.9820  136.7280 C   0  0  0  0  0  0  0  0  0  0  0  0
  188.8700  177.3300  138.9560 C   0  0  2  0  0  0  0  0  0  0  0  0
  186.2820  177.2590  135.2470 C   0  0  0  0  0  0  0  0  0  0  0  0
  188.6270  177.7960  135.6270 C   0  0  0  0  0  0  0  0  0  0  0  0
  185.0350  176.8850  134.7490 O   0  0  0  0  0  0  0  0  0  0  0  0
  184.5830  175.5410  134.8100 C   0  0  0  0  0  1  0  0  0  0  0  0
  192.4100  171.4640  135.5550 C   0  0  2  0  0  3  0  0  0  0  0  0
  193.8580  169.7320  136.6180 C   0  0  0  0  0  1  0  0  0  0  0  0
  193.4070  170.3440  135.3050 C   0  0  0  0  0  2  0  0  0  0  0  0
  190.2160  171.0050  134.7200 O   0  0  0  0  0  1  0  0  0  0  0  0
  191.4410  171.5820  134.3850 C   0  0  0  0  0  2  0  0  0  0  0  0
  190.1150  176.3680  141.9380 C   0  0  0  0  0  2  0  0  0  0  0  0
  190.0980  176.8430  144.4180 C   0  0  0  0  0  0  0  0  0  0  0  0
  189.4430  177.1530  145.5780 C   0  0  0  0  0  0  0  0  0  0  0  0
  187.3420  177.1820  144.4260 C   0  0  0  0  0  3  0  0  0  0  0  0
  191.5510  176.7290  144.7120 C   0  0  0  0  0  3  0  0  0  0  0  0
  191.6070  177.0080  146.1500 N   0  0  0  0  0  0  0  0  0  0  0  0
  190.4260  177.2450  146.6330 C   0  0  0  0  0  3  0  0  0  0  0  0
  188.0620  177.3310  145.6240 C   0  0  0  0  0  2  0  0  0  0  0  0
  189.4050  176.6870  143.2140 C   0  0  0  0  0  0  0  0  0  0  0  0
  188.0100  176.8630  143.2260 C   0  0  0  0  0  3  0  0  0  0  0  0
  1 19  1  0  0  0  0
  1  2  1  0  0  0  0
  2  8  1  0  0  0  0
  3 18  1  0  0  0  0
  4 10  2  0  0  0  0
  4 11  1  0  0  0  0
  5 20  1  0  0  0  0
  5 21  1  0  0  0  0
  6  8  1  0  0  0  0
  7 14  2  0  0  0  0
  8 29  1  1  0  0  0
 10 15  1  0  0  0  0
 11 13  1  0  0  0  0
 12 19  1  0  0  0  0
 14 11  2  0  0  0  0
 15 13  2  0  0  0  0
 15  1  1  0  0  0  0
 16  7  1  0  0  0  0
 17 21  1  0  0  0  0
 17 10  1  0  0  0  0
 18 12  1  0  0  0  0
 19  9  1  6  0  0  0
 19  6  1  0  0  0  0
 20  3  2  0  0  0  0
 21 18  2  0  0  0  0
 22 23  1  0  0  0  0
 22 20  1  0  0  0  0
 24 28  1  6  0  0  0
 24  7  1  0  0  0  0
 26 24  1  0  0  0  0
 26 25  1  0  0  0  0
 28 27  1  0  0  0  0
 29 37  1  0  0  0  0
 30 33  1  0  0  0  0
 30 31  1  0  0  0  0
 31 36  1  0  0  0  0
 31 35  2  0  0  0  0
 32 36  1  0  0  0  0
 33 34  2  0  0  0  0
 34 35  1  0  0  0  0
 37 38  1  0  0  0  0
 37 30  2  0  0  0  0
 38 32  2  0  0  0  0
M  END
>  <MODEL>
8

>  <REMARK>
 VINA RESULT:      -6.2      4.337      7.014
  Name = 
  6 active torsions:
  status: ('A' for Active; 'I' for Inactive)
    1  A    between atoms: C_2  and  C_11
    2  A    between atoms: C_2  and  C_27
    3  A    between atoms: C_2  and  C_31
    4  A    between atoms: O_8  and  C_35
    5  A    between atoms: C_13  and  C_21
    6  A    between atoms: C_21  and  C_36
                            x       y       z     vdW  Elec       q    Type
                         _______ _______ _______ _____ _____    ______ ____

>  <TORSDO>
F 6

$$$$
=
 OpenBabel10232408063D

 38 43  0  0  1  0  0  0  0  0999 V2000
  184.8550  178.9540  141.3790 N   0  0  0  0  0  0  0  0  0  0  0  0
  185.5890  179.2900  142.5850 C   0  0  0  0  0  2  0  0  0  0  0  0
  181.0500  178.1330  139.2870 N   0  0  0  0  0  0  0  0  0  0  0  0
  186.1190  178.8780  137.9680 N   0  0  0  0  0  0  0  0  0  0  0  0
  182.1860  178.6400  137.0880 S   0  0  0  0  0  0  0  0  0  0  0  0
  183.3230  178.6280  143.1550 C   0  0  0  0  0  2  0  0  0  0  0  0
  189.1250  176.9240  137.7380 C   0  0  0  0  0  0  0  0  0  0  0  0
  184.6940  178.9220  143.7490 C   0  0  1  0  0  3  0  0  0  0  0  0
  183.3690  176.9880  141.3200 C   0  0  0  0  0  1  0  0  0  0  0  0
  185.2450  179.2550  138.8400 C   0  0  0  0  0  0  0  0  0  0  0  0
  187.0210  178.0930  138.7390 C   0  0  0  0  0  0  0  0  0  0  0  0
  182.4330  179.3390  140.9770 C   0  0  0  0  0  2  0  0  0  0  0  0
  186.6620  178.0200  140.1130 N   0  0  0  0  0  0  0  0  0  0  0  0
  188.0740  177.5090  138.2400 C   0  0  0  0  0  0  0  0  0  0  0  0
  185.5710  178.7110  140.1590 C   0  0  0  0  0  0  0  0  0  0  0  0
  190.3200  177.6260  137.6310 O   0  0  0  0  0  1  0  0  0  0  0  0
  184.0980  180.1410  138.5050 C   0  0  0  0  0  2  0  0  0  0  0  0
  182.1040  178.9440  139.5710 C   0  0  0  0  0  0  0  0  0  0  0  0
  183.5030  178.4720  141.6550 C   0  0  2  0  0  0  0  0  0  0  0  0
  180.9650  177.8800  137.9600 C   0  0  0  0  0  0  0  0  0  0  0  0
  182.8470  179.3410  138.4660 C   0  0  0  0  0  0  0  0  0  0  0  0
  179.9820  177.0770  137.3830 O   0  0  0  0  0  0  0  0  0  0  0  0
  180.2150  175.7070  137.0980 C   0  0  0  0  0  1  0  0  0  0  0  0
  189.0340  175.5030  137.2840 C   0  0  2  0  0  3  0  0  0  0  0  0
  190.8980  173.8750  136.9670 C   0  0  0  0  0  1  0  0  0  0  0  0
  190.2550  175.1490  136.4510 C   0  0  0  0  0  2  0  0  0  0  0  0
  186.8870  174.4520  137.1840 O   0  0  0  0  0  1  0  0  0  0  0  0
  187.7600  175.2810  136.4790 C   0  0  0  0  0  2  0  0  0  0  0  0
  185.2520  177.6780  144.4270 C   0  0  0  0  0  2  0  0  0  0  0  0
  187.4070  177.7060  145.7430 C   0  0  0  0  0  0  0  0  0  0  0  0
  188.1380  178.0540  146.8460 C   0  0  0  0  0  0  0  0  0  0  0  0
  186.2200  179.1000  147.8310 C   0  0  0  0  0  3  0  0  0  0  0  0
  188.2960  176.9800  144.7970 C   0  0  0  0  0  3  0  0  0  0  0  0
  189.5780  176.9740  145.5070 N   0  0  0  0  0  0  0  0  0  0  0  0
  189.4880  177.5760  146.6540 C   0  0  0  0  0  3  0  0  0  0  0  0
  187.5790  178.7530  147.9140 C   0  0  0  0  0  2  0  0  0  0  0  0
  186.0530  178.0370  145.6370 C   0  0  0  0  0  0  0  0  0  0  0  0
  185.4610  178.7450  146.6970 C   0  0  0  0  0  3  0  0  0  0  0  0
  1 19  1  0  0  0  0
  1  2  1  0  0  0  0
  2  8  1  0  0  0  0
  3 18  1  0  0  0  0
  4 11  1  0  0  0  0
  4 10  2  0  0  0  0
  5 20  1  0  0  0  0
  5 21  1  0  0  0  0
  6  8  1  0  0  0  0
  7 14  2  0  0  0  0
  8 29  1  6  0  0  0
 10 15  1  0  0  0  0
 11 13  1  0  0  0  0
 12 19  1  0  0  0  0
 13 15  2  0  0  0  0
 14 11  2  0  0  0  0
 15  1  1  0  0  0  0
 16  7  1  0  0  0  0
 17 10  1  0  0  0  0
 18 12  1  0  0  0  0
 19  9  1  6  0  0  0
 19  6  1  0  0  0  0
 20  3  2  0  0  0  0
 21 17  1  0  0  0  0
 21 18  2  0  0  0  0
 22 20  1  0  0  0  0
 23 22  1  0  0  0  0
 24 26  1  6  0  0  0
 24  7  1  0  0  0  0
 26 25  1  0  0  0  0
 28 27  1  0  0  0  0
 28 24  1  0  0  0  0
 29 37  1  0  0  0  0
 30 31  1  0  0  0  0
 31 36  1  0  0  0  0
 32 36  1  0  0  0  0
 33 34  2  0  0  0  0
 33 30  1  0  0  0  0
 34 35  1  0  0  0  0
 35 31  2  0  0  0  0
 37 30  2  0  0  0  0
 37 38  1  0  0  0  0
 38 32  2  0  0  0  0
M  END
>  <MODEL>
9

>  <REMARK>
 VINA RESULT:      -6.1      3.563      6.770
  Name = 
  6 active torsions:
  status: ('A' for Active; 'I' for Inactive)
    1  A    between atoms: C_2  and  C_11
    2  A    between atoms: C_2  and  C_27
    3  A    between atoms: C_2  and  C_31
    4  A    between atoms: O_8  and  C_35
    5  A    between atoms: C_13  and  C_21
    6  A    between atoms: C_21  and  C_36
                            x       y       z     vdW  Elec       q    Type
                         _______ _______ _______ _____ _____    ______ ____

>  <TORSDO>
F 6

$$$$
