=
 OpenBabel10232408393D

 28 32  0  0  1  0  0  0  0  0999 V2000
  185.6970  178.4360  146.9350 C   0  0  0  0  0  3  0  0  0  0  0  0
  186.3010  177.2060  146.3420 C   0  0  0  0  0  2  0  0  0  0  0  0
  187.3360  177.6020  145.2980 C   0  0  2  0  0  0  0  0  0  0  0  0
  184.4440  178.9350  144.9210 C   0  0  0  0  0  0  0  0  0  0  0  0
  184.8120  178.2210  142.6640 N   0  0  0  0  0  0  0  0  0  0  0  0
  186.8120  178.3650  144.0830 C   0  0  1  0  0  3  0  0  0  0  0  0
  184.8660  179.1810  146.2710 N   0  0  0  0  0  0  0  0  0  0  0  0
  187.2340  176.9000  143.9490 C   0  0  1  0  0  3  0  0  0  0  0  0
  182.6240  178.8940  143.3240 C   0  0  0  0  0  3  0  0  0  0  0  0
  183.5020  178.4120  142.3570 C   0  0  0  0  0  3  0  0  0  0  0  0
  183.1020  179.1600  144.6040 C   0  0  0  0  0  3  0  0  0  0  0  0
  185.3150  178.4600  143.9070 C   0  0  0  0  0  0  0  0  0  0  0  0
  188.5560  176.8300  143.2040 C   0  0  0  0  0  2  0  0  0  0  0  0
  188.3540  177.1880  141.7370 C   0  0  0  0  0  2  0  0  0  0  0  0
  189.6350  177.6640  141.0450 C   0  0  1  0  0  3  0  0  0  0  0  0
  192.0880  177.4130  140.7380 C   0  0  0  0  0  2  0  0  0  0  0  0
  190.8610  176.8440  141.4250 C   0  0  0  0  0  3  0  0  0  0  0  0
  191.8330  177.7120  142.2000 C   0  0  0  0  0  2  0  0  0  0  0  0
  188.7110  178.9190  139.1990 O   0  0  0  0  0  1  0  0  0  0  0  0
  189.4710  177.7950  139.5310 C   0  0  0  0  0  2  0  0  0  0  0  0
  188.6800  178.1630  145.7900 C   0  0  0  0  0  2  0  0  0  0  0  0
  189.1320  177.9980  148.1940 C   0  0  0  0  0  2  0  0  0  0  0  0
  189.2250  177.4330  146.9890 C   0  0  0  0  0  0  0  0  0  0  0  0
  191.9130  175.8200  145.1480 O   0  0  0  0  0  1  0  0  0  0  0  0
  191.3480  176.8930  145.8430 C   0  0  2  0  0  3  0  0  0  0  0  0
  191.6160  176.8210  147.3470 C   0  0  2  0  0  3  0  0  0  0  0  0
  192.4030  175.5920  147.7820 C   0  0  0  0  0  1  0  0  0  0  0  0
  190.2760  176.3800  146.7880 C   0  0  1  0  0  3  0  0  0  0  0  0
  2  1  1  0  0  0  0
  3 21  1  1  0  0  0
  3  2  1  0  0  0  0
  4  7  1  0  0  0  0
  5 12  1  0  0  0  0
  6 12  1  1  0  0  0
  6  3  1  0  0  0  0
  7  1  2  0  0  0  0
  8 13  1  6  0  0  0
  8  6  1  0  0  0  0
  8  3  1  0  0  0  0
  9 11  2  0  0  0  0
 10  5  2  0  0  0  0
 10  9  1  0  0  0  0
 11  4  1  0  0  0  0
 12  4  2  0  0  0  0
 14 13  1  0  0  0  0
 15 20  1  6  0  0  0
 15 17  1  0  0  0  0
 15 14  1  0  0  0  0
 16 17  1  0  0  0  0
 16 18  1  0  0  0  0
 17 18  1  0  0  0  0
 19 20  1  0  0  0  0
 21 23  1  0  0  0  0
 23 22  2  0  0  0  0
 25 24  1  6  0  0  0
 25 28  1  0  0  0  0
 25 26  1  0  0  0  0
 26 27  1  6  0  0  0
 28 23  1  1  0  0  0
 28 26  1  0  0  0  0
M  END
>  <MODEL>
1

>  <REMARK>
 VINA RESULT:      -9.0      0.000      0.000
  Name = 
  8 active torsions:
  status: ('A' for Active; 'I' for Inactive)
    1  A    between atoms: C_6  and  C_20
    2  A    between atoms: C_7  and  C_15
    3  A    between atoms: C_7  and  C_27
    4  A    between atoms: C_13  and  C_20
    5  A    between atoms: C_13  and  C_28
    6  A    between atoms: C_14  and  C_16
    7  A    between atoms: C_16  and  C_25
    8  A    between atoms: C_16  and  C_27
                            x       y       z     vdW  Elec       q    Type
                         _______ _______ _______ _____ _____    ______ ____

>  <TORSDO>
F 8

$$$$
=
 OpenBabel10232408393D

 28 32  0  0  1  0  0  0  0  0999 V2000
  191.3710  177.6630  142.3870 C   0  0  0  0  0  3  0  0  0  0  0  0
  190.2740  178.4980  142.9610 C   0  0  0  0  0  2  0  0  0  0  0  0
  189.0580  177.6240  143.2310 C   0  0  2  0  0  0  0  0  0  0  0  0
  190.2400  177.4330  140.2560 C   0  0  0  0  0  0  0  0  0  0  0  0
  187.9200  177.6840  139.7100 N   0  0  0  0  0  0  0  0  0  0  0  0
  188.4100  176.9740  142.0100 C   0  0  1  0  0  3  0  0  0  0  0  0
  191.3220  177.2090  141.1710 N   0  0  0  0  0  0  0  0  0  0  0  0
  187.7240  178.1480  142.7110 C   0  0  1  0  0  3  0  0  0  0  0  0
  189.5500  177.9610  137.9950 C   0  0  0  0  0  3  0  0  0  0  0  0
  188.2230  177.9620  138.4150 C   0  0  0  0  0  3  0  0  0  0  0  0
  190.5550  177.6900  138.9200 C   0  0  0  0  0  3  0  0  0  0  0  0
  188.8760  177.4250  140.6450 C   0  0  0  0  0  0  0  0  0  0  0  0
  186.5280  177.6300  143.4920 C   0  0  0  0  0  2  0  0  0  0  0  0
  185.6960  178.7930  144.0150 C   0  0  0  0  0  2  0  0  0  0  0  0
  184.4190  179.0420  143.2050 C   0  0  1  0  0  3  0  0  0  0  0  0
  183.0490  178.4930  141.2070 C   0  0  0  0  0  2  0  0  0  0  0  0
  184.2800  178.1130  142.0060 C   0  0  0  0  0  3  0  0  0  0  0  0
  184.4210  178.9130  140.7250 C   0  0  0  0  0  2  0  0  0  0  0  0
  183.4880  179.1730  145.4300 O   0  0  0  0  0  1  0  0  0  0  0  0
  183.1650  179.0550  144.0770 C   0  0  0  0  0  2  0  0  0  0  0  0
  189.1100  176.6640  144.4300 C   0  0  0  0  0  2  0  0  0  0  0  0
  190.8920  176.8020  146.1080 C   0  0  0  0  0  2  0  0  0  0  0  0
  189.7310  177.2790  145.6560 C   0  0  0  0  0  0  0  0  0  0  0  0
  186.5370  178.1550  147.1560 O   0  0  0  0  0  1  0  0  0  0  0  0
  187.5660  177.2600  146.8490 C   0  0  2  0  0  3  0  0  0  0  0  0
  188.6660  177.2470  147.9110 C   0  0  2  0  0  3  0  0  0  0  0  0
  188.4400  178.2270  149.0550 C   0  0  0  0  0  1  0  0  0  0  0  0
  188.8580  178.0250  146.6220 C   0  0  1  0  0  3  0  0  0  0  0  0
  1  2  1  0  0  0  0
  2  3  1  0  0  0  0
  3 21  1  1  0  0  0
  4 12  1  0  0  0  0
  4  7  1  0  0  0  0
  5 12  2  0  0  0  0
  6 12  1  6  0  0  0
  6  8  1  0  0  0  0
  6  3  1  0  0  0  0
  7  1  2  0  0  0  0
  8  3  1  0  0  0  0
  8 13  1  1  0  0  0
  9 10  2  0  0  0  0
  9 11  1  0  0  0  0
 10  5  1  0  0  0  0
 11  4  2  0  0  0  0
 13 14  1  0  0  0  0
 15 14  1  1  0  0  0
 15 20  1  0  0  0  0
 16 17  1  0  0  0  0
 17 15  1  0  0  0  0
 18 16  1  0  0  0  0
 18 17  1  0  0  0  0
 20 19  1  0  0  0  0
 21 23  1  0  0  0  0
 23 22  2  0  0  0  0
 25 24  1  1  0  0  0
 25 26  1  0  0  0  0
 26 27  1  1  0  0  0
 28 23  1  6  0  0  0
 28 25  1  0  0  0  0
 28 26  1  0  0  0  0
M  END
>  <MODEL>
2

>  <REMARK>
 VINA RESULT:      -8.7      2.768      5.840
  Name = 
  8 active torsions:
  status: ('A' for Active; 'I' for Inactive)
    1  A    between atoms: C_6  and  C_20
    2  A    between atoms: C_7  and  C_15
    3  A    between atoms: C_7  and  C_27
    4  A    between atoms: C_13  and  C_20
    5  A    between atoms: C_13  and  C_28
    6  A    between atoms: C_14  and  C_16
    7  A    between atoms: C_16  and  C_25
    8  A    between atoms: C_16  and  C_27
                            x       y       z     vdW  Elec       q    Type
                         _______ _______ _______ _____ _____    ______ ____

>  <TORSDO>
F 8

$$$$
=
 OpenBabel10232408393D

 28 32  0  0  1  0  0  0  0  0999 V2000
  186.9610  177.3260  144.3920 C   0  0  0  0  0  3  0  0  0  0  0  0
  187.7730  176.5500  143.4090 C   0  0  0  0  0  2  0  0  0  0  0  0
  188.7320  177.4880  142.6900 C   0  0  2  0  0  0  0  0  0  0  0  0
  185.6560  178.3930  142.6510 C   0  0  0  0  0  0  0  0  0  0  0  0
  186.1590  178.7160  140.3300 N   0  0  0  0  0  0  0  0  0  0  0  0
  188.0930  178.5840  141.8390 C   0  0  1  0  0  3  0  0  0  0  0  0
  186.0190  178.1370  144.0150 N   0  0  0  0  0  0  0  0  0  0  0  0
  188.7630  177.3820  141.1690 C   0  0  1  0  0  3  0  0  0  0  0  0
  183.8830  178.7170  141.0330 C   0  0  0  0  0  3  0  0  0  0  0  0
  184.8380  178.8080  140.0250 C   0  0  0  0  0  3  0  0  0  0  0  0
  184.2980  178.5150  142.3470 C   0  0  0  0  0  3  0  0  0  0  0  0
  186.6030  178.5080  141.6010 C   0  0  0  0  0  0  0  0  0  0  0  0
  190.0830  177.8250  140.5600 C   0  0  0  0  0  2  0  0  0  0  0  0
  190.5890  176.7760  139.5800 C   0  0  0  0  0  2  0  0  0  0  0  0
  189.7370  176.6670  138.3110 C   0  0  1  0  0  3  0  0  0  0  0  0
  188.9110  177.7520  136.2330 C   0  0  0  0  0  2  0  0  0  0  0  0
  189.6180  177.9850  137.5550 C   0  0  0  0  0  3  0  0  0  0  0  0
  188.1540  178.3500  137.3990 C   0  0  0  0  0  2  0  0  0  0  0  0
  190.9530  174.5910  138.1040 O   0  0  0  0  0  1  0  0  0  0  0  0
  190.1750  175.5170  137.4060 C   0  0  0  0  0  2  0  0  0  0  0  0
  189.9550  178.0040  143.4650 C   0  0  0  0  0  2  0  0  0  0  0  0
  191.4740  176.0850  143.3260 C   0  0  0  0  0  2  0  0  0  0  0  0
  190.7620  176.9050  144.1020 C   0  0  0  0  0  0  0  0  0  0  0  0
  191.4920  175.9180  147.5240 O   0  0  0  0  0  1  0  0  0  0  0  0
  191.4430  176.8430  146.4770 C   0  0  2  0  0  3  0  0  0  0  0  0
  190.1050  177.5800  146.4110 C   0  0  2  0  0  3  0  0  0  0  0  0
  189.0960  177.1360  147.4610 C   0  0  0  0  0  1  0  0  0  0  0  0
  190.3860  176.4210  145.4720 C   0  0  1  0  0  3  0  0  0  0  0  0
  2  1  1  0  0  0  0
  3  2  1  0  0  0  0
  3 21  1  1  0  0  0
  4  7  1  0  0  0  0
  5 12  1  0  0  0  0
  6 12  1  1  0  0  0
  6  3  1  0  0  0  0
  7  1  2  0  0  0  0
  8 13  1  6  0  0  0
  8  6  1  0  0  0  0
  8  3  1  0  0  0  0
  9 11  2  0  0  0  0
 10  5  2  0  0  0  0
 10  9  1  0  0  0  0
 11  4  1  0  0  0  0
 12  4  2  0  0  0  0
 14 13  1  0  0  0  0
 15 20  1  6  0  0  0
 15 14  1  0  0  0  0
 16 18  1  0  0  0  0
 16 17  1  0  0  0  0
 17 15  1  0  0  0  0
 18 17  1  0  0  0  0
 20 19  1  0  0  0  0
 21 23  1  0  0  0  0
 22 23  2  0  0  0  0
 25 24  1  1  0  0  0
 26 25  1  0  0  0  0
 26 27  1  1  0  0  0
 28 23  1  6  0  0  0
 28 26  1  0  0  0  0
 28 25  1  0  0  0  0
M  END
>  <MODEL>
3

>  <REMARK>
 VINA RESULT:      -8.2      2.019      3.389
  Name = 
  8 active torsions:
  status: ('A' for Active; 'I' for Inactive)
    1  A    between atoms: C_6  and  C_20
    2  A    between atoms: C_7  and  C_15
    3  A    between atoms: C_7  and  C_27
    4  A    between atoms: C_13  and  C_20
    5  A    between atoms: C_13  and  C_28
    6  A    between atoms: C_14  and  C_16
    7  A    between atoms: C_16  and  C_25
    8  A    between atoms: C_16  and  C_27
                            x       y       z     vdW  Elec       q    Type
                         _______ _______ _______ _____ _____    ______ ____

>  <TORSDO>
F 8

$$$$
=
 OpenBabel10232408393D

 28 32  0  0  1  0  0  0  0  0999 V2000
  186.9260  178.5550  140.6440 C   0  0  0  0  0  3  0  0  0  0  0  0
  188.0700  178.8790  141.5470 C   0  0  0  0  0  2  0  0  0  0  0  0
  188.4520  177.6420  142.3470 C   0  0  2  0  0  0  0  0  0  0  0  0
  185.3510  178.4480  142.4840 C   0  0  0  0  0  0  0  0  0  0  0  0
  185.7380  178.0960  144.8220 N   0  0  0  0  0  0  0  0  0  0  0  0
  187.3880  177.0990  143.3000 C   0  0  1  0  0  3  0  0  0  0  0  0
  185.7230  178.3740  141.1000 N   0  0  0  0  0  0  0  0  0  0  0  0
  188.6110  177.8350  143.8500 C   0  0  1  0  0  3  0  0  0  0  0  0
  183.7470  179.2070  144.1320 C   0  0  0  0  0  3  0  0  0  0  0  0
  184.5730  178.7180  145.1410 C   0  0  0  0  0  3  0  0  0  0  0  0
  184.1390  179.0640  142.8040 C   0  0  0  0  0  3  0  0  0  0  0  0
  186.1600  177.9460  143.5360 C   0  0  0  0  0  0  0  0  0  0  0  0
  189.5500  176.8280  144.4920 C   0  0  0  0  0  2  0  0  0  0  0  0
  190.5510  177.5400  145.3920 C   0  0  0  0  0  2  0  0  0  0  0  0
  190.2960  177.3130  146.8860 C   0  0  1  0  0  3  0  0  0  0  0  0
  188.5290  177.4800  148.6250 C   0  0  0  0  0  2  0  0  0  0  0  0
  188.8330  177.0330  147.2080 C   0  0  0  0  0  3  0  0  0  0  0  0
  188.1090  178.3430  147.4540 C   0  0  0  0  0  2  0  0  0  0  0  0
  192.2910  176.8690  148.1730 O   0  0  0  0  0  1  0  0  0  0  0  0
  191.2330  176.2670  147.4890 C   0  0  0  0  0  2  0  0  0  0  0  0
  189.1980  176.5130  141.6180 C   0  0  0  0  0  2  0  0  0  0  0  0
  191.4710  177.4250  141.7140 C   0  0  0  0  0  2  0  0  0  0  0  0
  190.4710  176.9720  140.9580 C   0  0  0  0  0  0  0  0  0  0  0  0
  191.4810  176.7460  137.4730 O   0  0  0  0  0  1  0  0  0  0  0  0
  190.8860  176.2420  138.6330 C   0  0  2  0  0  3  0  0  0  0  0  0
  189.4040  176.6010  138.7340 C   0  0  2  0  0  3  0  0  0  0  0  0
  188.8900  177.4560  137.5840 C   0  0  0  0  0  1  0  0  0  0  0  0
  190.4360  177.3910  139.5170 C   0  0  1  0  0  3  0  0  0  0  0  0
  1  7  2  0  0  0  0
  1  2  1  0  0  0  0
  2  3  1  0  0  0  0
  3 21  1  6  0  0  0
  3  6  1  0  0  0  0
  3  8  1  0  0  0  0
  4 11  2  0  0  0  0
  4 12  1  0  0  0  0
  5 10  1  0  0  0  0
  6 12  1  6  0  0  0
  6  8  1  0  0  0  0
  7  4  1  0  0  0  0
  8 13  1  1  0  0  0
  9 10  2  0  0  0  0
 11  9  1  0  0  0  0
 12  5  2  0  0  0  0
 13 14  1  0  0  0  0
 15 14  1  6  0  0  0
 15 17  1  0  0  0  0
 15 20  1  0  0  0  0
 17 18  1  0  0  0  0
 17 16  1  0  0  0  0
 18 16  1  0  0  0  0
 20 19  1  0  0  0  0
 23 21  1  0  0  0  0
 23 22  2  0  0  0  0
 25 24  1  6  0  0  0
 25 26  1  0  0  0  0
 25 28  1  0  0  0  0
 26 27  1  6  0  0  0
 26 28  1  0  0  0  0
 28 23  1  1  0  0  0
M  END
>  <MODEL>
4

>  <REMARK>
 VINA RESULT:      -8.2      1.595      5.948
  Name = 
  8 active torsions:
  status: ('A' for Active; 'I' for Inactive)
    1  A    between atoms: C_6  and  C_20
    2  A    between atoms: C_7  and  C_15
    3  A    between atoms: C_7  and  C_27
    4  A    between atoms: C_13  and  C_20
    5  A    between atoms: C_13  and  C_28
    6  A    between atoms: C_14  and  C_16
    7  A    between atoms: C_16  and  C_25
    8  A    between atoms: C_16  and  C_27
                            x       y       z     vdW  Elec       q    Type
                         _______ _______ _______ _____ _____    ______ ____

>  <TORSDO>
F 8

$$$$
=
 OpenBabel10232408393D

 28 32  0  0  1  0  0  0  0  0999 V2000
  190.9400  177.4490  143.6680 C   0  0  0  0  0  3  0  0  0  0  0  0
  189.7990  178.4120  143.6870 C   0  0  0  0  0  2  0  0  0  0  0  0
  188.4920  177.6550  143.4990 C   0  0  2  0  0  0  0  0  0  0  0  0
  190.7350  177.0700  141.2830 C   0  0  0  0  0  0  0  0  0  0  0  0
  188.8660  177.4180  139.8250 N   0  0  0  0  0  0  0  0  0  0  0  0
  188.3200  176.9250  142.1680 C   0  0  1  0  0  3  0  0  0  0  0  0
  191.3320  176.8720  142.5730 N   0  0  0  0  0  0  0  0  0  0  0  0
  187.5390  178.2100  142.4470 C   0  0  1  0  0  3  0  0  0  0  0  0
  191.0640  177.4000  138.9060 C   0  0  0  0  0  3  0  0  0  0  0  0
  189.6870  177.5360  138.7490 C   0  0  0  0  0  3  0  0  0  0  0  0
  191.5820  177.1620  140.1760 C   0  0  0  0  0  3  0  0  0  0  0  0
  189.3360  177.1960  141.0840 C   0  0  0  0  0  0  0  0  0  0  0  0
  186.0830  177.8600  142.7070 C   0  0  0  0  0  2  0  0  0  0  0  0
  185.1680  178.8440  141.9900 C   0  0  0  0  0  2  0  0  0  0  0  0
  183.6860  178.6530  142.3270 C   0  0  1  0  0  3  0  0  0  0  0  0
  181.9630  178.9480  144.0930 C   0  0  0  0  0  2  0  0  0  0  0  0
  183.2120  179.5410  143.4700 C   0  0  0  0  0  3  0  0  0  0  0  0
  183.3030  178.7780  144.7780 C   0  0  0  0  0  2  0  0  0  0  0  0
  183.5340  178.9800  139.9380 O   0  0  0  0  0  1  0  0  0  0  0  0
  182.7860  178.7610  141.0970 C   0  0  0  0  0  2  0  0  0  0  0  0
  187.9610  176.8270  144.6800 C   0  0  0  0  0  2  0  0  0  0  0  0
  186.7400  178.4060  146.1040 C   0  0  0  0  0  2  0  0  0  0  0  0
  187.8120  177.6270  145.9470 C   0  0  0  0  0  0  0  0  0  0  0  0
  189.5570  178.4110  149.0380 O   0  0  0  0  0  1  0  0  0  0  0  0
  188.7970  177.5760  148.2130 C   0  0  2  0  0  3  0  0  0  0  0  0
  189.6650  176.6850  147.3250 C   0  0  2  0  0  3  0  0  0  0  0  0
  191.1620  176.9100  147.4890 C   0  0  0  0  0  1  0  0  0  0  0  0
  189.0340  177.9440  146.7590 C   0  0  1  0  0  3  0  0  0  0  0  0
  1  2  1  0  0  0  0
  3  2  1  0  0  0  0
  3 21  1  1  0  0  0
  4  7  1  0  0  0  0
  5 12  2  0  0  0  0
  6 12  1  6  0  0  0
  6  8  1  0  0  0  0
  6  3  1  0  0  0  0
  7  1  2  0  0  0  0
  8 13  1  1  0  0  0
  8  3  1  0  0  0  0
  9 11  1  0  0  0  0
 10  9  2  0  0  0  0
 10  5  1  0  0  0  0
 11  4  2  0  0  0  0
 12  4  1  0  0  0  0
 14 15  1  0  0  0  0
 14 13  1  0  0  0  0
 15 20  1  6  0  0  0
 15 17  1  0  0  0  0
 16 18  1  0  0  0  0
 17 16  1  0  0  0  0
 17 18  1  0  0  0  0
 19 20  1  0  0  0  0
 21 23  1  0  0  0  0
 23 22  2  0  0  0  0
 25 24  1  1  0  0  0
 26 27  1  1  0  0  0
 26 25  1  0  0  0  0
 28 23  1  6  0  0  0
 28 26  1  0  0  0  0
 28 25  1  0  0  0  0
M  END
>  <MODEL>
5

>  <REMARK>
 VINA RESULT:      -8.1      2.444      5.836
  Name = 
  8 active torsions:
  status: ('A' for Active; 'I' for Inactive)
    1  A    between atoms: C_6  and  C_20
    2  A    between atoms: C_7  and  C_15
    3  A    between atoms: C_7  and  C_27
    4  A    between atoms: C_13  and  C_20
    5  A    between atoms: C_13  and  C_28
    6  A    between atoms: C_14  and  C_16
    7  A    between atoms: C_16  and  C_25
    8  A    between atoms: C_16  and  C_27
                            x       y       z     vdW  Elec       q    Type
                         _______ _______ _______ _____ _____    ______ ____

>  <TORSDO>
F 8

$$$$
=
 OpenBabel10232408393D

 28 32  0  0  1  0  0  0  0  0999 V2000
  190.8320  177.4450  143.7590 C   0  0  0  0  0  3  0  0  0  0  0  0
  189.7010  178.4190  143.7440 C   0  0  0  0  0  2  0  0  0  0  0  0
  188.3920  177.6740  143.5290 C   0  0  2  0  0  0  0  0  0  0  0  0
  190.6820  177.0530  141.3720 C   0  0  0  0  0  0  0  0  0  0  0  0
  188.8530  177.4100  139.8660 N   0  0  0  0  0  0  0  0  0  0  0  0
  188.2450  176.9370  142.1980 C   0  0  1  0  0  3  0  0  0  0  0  0
  191.2460  176.8580  142.6770 N   0  0  0  0  0  0  0  0  0  0  0  0
  187.4700  178.2320  142.4500 C   0  0  1  0  0  3  0  0  0  0  0  0
  191.0720  177.3650  139.0020 C   0  0  0  0  0  3  0  0  0  0  0  0
  189.7010  177.5130  138.8100 C   0  0  0  0  0  3  0  0  0  0  0  0
  191.5570  177.1300  140.2860 C   0  0  0  0  0  3  0  0  0  0  0  0
  189.2900  177.1910  141.1370 C   0  0  0  0  0  0  0  0  0  0  0  0
  186.0050  177.8980  142.6760 C   0  0  0  0  0  2  0  0  0  0  0  0
  185.2390  179.1440  143.0990 C   0  0  0  0  0  2  0  0  0  0  0  0
  183.7590  179.1120  142.7060 C   0  0  1  0  0  3  0  0  0  0  0  0
  182.0340  178.3260  141.0990 C   0  0  0  0  0  2  0  0  0  0  0  0
  183.4600  178.1330  141.5770 C   0  0  0  0  0  3  0  0  0  0  0  0
  183.1830  178.9020  140.2990 C   0  0  0  0  0  2  0  0  0  0  0  0
  183.5500  178.9540  145.1070 O   0  0  0  0  0  1  0  0  0  0  0  0
  182.8370  178.9090  143.9080 C   0  0  0  0  0  2  0  0  0  0  0  0
  187.8230  176.8590  144.7010 C   0  0  0  0  0  2  0  0  0  0  0  0
  186.6870  178.4240  146.2070 C   0  0  0  0  0  2  0  0  0  0  0  0
  187.7440  177.6400  145.9850 C   0  0  0  0  0  0  0  0  0  0  0  0
  189.6360  178.4650  148.9780 O   0  0  0  0  0  1  0  0  0  0  0  0
  188.8140  177.6320  148.2140 C   0  0  2  0  0  3  0  0  0  0  0  0
  189.6130  176.6760  147.3270 C   0  0  2  0  0  3  0  0  0  0  0  0
  191.1220  176.8480  147.4260 C   0  0  0  0  0  1  0  0  0  0  0  0
  189.0080  177.9380  146.7390 C   0  0  1  0  0  3  0  0  0  0  0  0
  2  1  1  0  0  0  0
  3  2  1  0  0  0  0
  3 21  1  1  0  0  0
  4  7  1  0  0  0  0
  5 12  2  0  0  0  0
  6 12  1  6  0  0  0
  6  8  1  0  0  0  0
  6  3  1  0  0  0  0
  7  1  2  0  0  0  0
  8 13  1  1  0  0  0
  8  3  1  0  0  0  0
  9 11  1  0  0  0  0
 10  9  2  0  0  0  0
 10  5  1  0  0  0  0
 11  4  2  0  0  0  0
 12  4  1  0  0  0  0
 13 14  1  0  0  0  0
 15 14  1  1  0  0  0
 15 20  1  0  0  0  0
 16 17  1  0  0  0  0
 17 15  1  0  0  0  0
 18 16  1  0  0  0  0
 18 17  1  0  0  0  0
 20 19  1  0  0  0  0
 21 23  1  0  0  0  0
 23 22  2  0  0  0  0
 25 24  1  1  0  0  0
 26 27  1  1  0  0  0
 26 25  1  0  0  0  0
 28 23  1  6  0  0  0
 28 26  1  0  0  0  0
 28 25  1  0  0  0  0
M  END
>  <MODEL>
6

>  <REMARK>
 VINA RESULT:      -8.1      2.673      5.887
  Name = 
  8 active torsions:
  status: ('A' for Active; 'I' for Inactive)
    1  A    between atoms: C_6  and  C_20
    2  A    between atoms: C_7  and  C_15
    3  A    between atoms: C_7  and  C_27
    4  A    between atoms: C_13  and  C_20
    5  A    between atoms: C_13  and  C_28
    6  A    between atoms: C_14  and  C_16
    7  A    between atoms: C_16  and  C_25
    8  A    between atoms: C_16  and  C_27
                            x       y       z     vdW  Elec       q    Type
                         _______ _______ _______ _____ _____    ______ ____

>  <TORSDO>
F 8

$$$$
=
 OpenBabel10232408393D

 28 32  0  0  1  0  0  0  0  0999 V2000
  191.2330  176.1780  143.7450 C   0  0  0  0  0  3  0  0  0  0  0  0
  190.0030  175.8570  142.9620 C   0  0  0  0  0  2  0  0  0  0  0  0
  189.3880  177.1440  142.4310 C   0  0  2  0  0  0  0  0  0  0  0  0
  189.9600  177.1080  145.5860 C   0  0  0  0  0  0  0  0  0  0  0  0
  187.7230  177.9650  145.6320 N   0  0  0  0  0  0  0  0  0  0  0  0
  188.8930  178.1380  143.4800 C   0  0  1  0  0  3  0  0  0  0  0  0
  191.1730  176.7340  144.9170 N   0  0  0  0  0  0  0  0  0  0  0  0
  187.8920  177.3200  142.6630 C   0  0  1  0  0  3  0  0  0  0  0  0
  188.7050  177.1810  147.6560 C   0  0  0  0  0  3  0  0  0  0  0  0
  187.6240  177.7210  146.9650 C   0  0  0  0  0  3  0  0  0  0  0  0
  189.8740  176.8820  146.9610 C   0  0  0  0  0  3  0  0  0  0  0  0
  188.8450  177.6760  144.9170 C   0  0  0  0  0  0  0  0  0  0  0  0
  187.2260  178.2260  141.6410 C   0  0  0  0  0  2  0  0  0  0  0  0
  186.3150  179.2280  142.3390 C   0  0  0  0  0  2  0  0  0  0  0  0
  185.0410  178.5970  142.9110 C   0  0  1  0  0  3  0  0  0  0  0  0
  183.0470  178.8230  144.3770 C   0  0  0  0  0  2  0  0  0  0  0  0
  184.3300  179.4910  143.9180 C   0  0  0  0  0  3  0  0  0  0  0  0
  184.2730  178.7950  145.2650 C   0  0  0  0  0  2  0  0  0  0  0  0
  183.9500  179.0260  140.7990 O   0  0  0  0  0  1  0  0  0  0  0  0
  184.0990  178.0870  141.8210 C   0  0  0  0  0  2  0  0  0  0  0  0
  190.0880  177.8490  141.2580 C   0  0  0  0  0  2  0  0  0  0  0  0
  191.3110  176.5720  139.5600 C   0  0  0  0  0  2  0  0  0  0  0  0
  190.1340  177.0150  140.0060 C   0  0  0  0  0  0  0  0  0  0  0  0
  187.7200  178.8290  137.9800 O   0  0  0  0  0  1  0  0  0  0  0  0
  189.0210  178.4690  138.3450 C   0  0  2  0  0  3  0  0  0  0  0  0
  189.5160  177.2300  137.5990 C   0  0  2  0  0  3  0  0  0  0  0  0
  188.4930  176.6240  136.6490 C   0  0  0  0  0  1  0  0  0  0  0  0
  189.0040  177.1110  139.0220 C   0  0  1  0  0  3  0  0  0  0  0  0
  1  7  2  0  0  0  0
  2  1  1  0  0  0  0
  3 21  1  6  0  0  0
  3  8  1  0  0  0  0
  3  2  1  0  0  0  0
  3  6  1  0  0  0  0
  4 11  1  0  0  0  0
  5 10  2  0  0  0  0
  6 12  1  1  0  0  0
  7  4  1  0  0  0  0
  8 13  1  6  0  0  0
  8  6  1  0  0  0  0
 10  9  1  0  0  0  0
 11  9  2  0  0  0  0
 12  4  2  0  0  0  0
 12  5  1  0  0  0  0
 13 14  1  0  0  0  0
 14 15  1  0  0  0  0
 15 20  1  6  0  0  0
 15 17  1  0  0  0  0
 16 18  1  0  0  0  0
 17 16  1  0  0  0  0
 17 18  1  0  0  0  0
 19 20  1  0  0  0  0
 22 23  2  0  0  0  0
 23 21  1  0  0  0  0
 25 24  1  6  0  0  0
 25 28  1  0  0  0  0
 26 27  1  6  0  0  0
 26 25  1  0  0  0  0
 26 28  1  0  0  0  0
 28 23  1  1  0  0  0
M  END
>  <MODEL>
7

>  <REMARK>
 VINA RESULT:      -8.1      2.357      6.757
  Name = 
  8 active torsions:
  status: ('A' for Active; 'I' for Inactive)
    1  A    between atoms: C_6  and  C_20
    2  A    between atoms: C_7  and  C_15
    3  A    between atoms: C_7  and  C_27
    4  A    between atoms: C_13  and  C_20
    5  A    between atoms: C_13  and  C_28
    6  A    between atoms: C_14  and  C_16
    7  A    between atoms: C_16  and  C_25
    8  A    between atoms: C_16  and  C_27
                            x       y       z     vdW  Elec       q    Type
                         _______ _______ _______ _____ _____    ______ ____

>  <TORSDO>
F 8

$$$$
=
 OpenBabel10232408393D

 28 32  0  0  1  0  0  0  0  0999 V2000
  184.3650  178.8030  140.1820 C   0  0  0  0  0  3  0  0  0  0  0  0
  184.4260  177.8580  141.3360 C   0  0  0  0  0  2  0  0  0  0  0  0
  185.2040  178.4990  142.4760 C   0  0  2  0  0  0  0  0  0  0  0  0
  186.7060  178.4820  139.6430 C   0  0  0  0  0  0  0  0  0  0  0  0
  188.5050  177.6900  141.0120 N   0  0  0  0  0  0  0  0  0  0  0  0
  186.6720  178.8160  142.1970 C   0  0  1  0  0  3  0  0  0  0  0  0
  185.4040  179.0530  139.4450 N   0  0  0  0  0  0  0  0  0  0  0  0
  186.2980  177.6450  143.1070 C   0  0  1  0  0  3  0  0  0  0  0  0
  188.6810  177.4980  138.6440 C   0  0  0  0  0  3  0  0  0  0  0  0
  189.2040  177.2910  139.9180 C   0  0  0  0  0  3  0  0  0  0  0  0
  187.4320  178.1000  138.5130 C   0  0  0  0  0  3  0  0  0  0  0  0
  187.2770  178.2720  140.9240 C   0  0  0  0  0  0  0  0  0  0  0  0
  186.6000  178.0200  144.5480 C   0  0  0  0  0  2  0  0  0  0  0  0
  187.5660  177.0160  145.1630 C   0  0  0  0  0  2  0  0  0  0  0  0
  188.6340  177.6640  146.0510 C   0  0  1  0  0  3  0  0  0  0  0  0
  189.3020  178.1590  148.3920 C   0  0  0  0  0  2  0  0  0  0  0  0
  188.6030  177.1610  147.4890 C   0  0  0  0  0  3  0  0  0  0  0  0
  187.7900  178.1150  148.3420 C   0  0  0  0  0  2  0  0  0  0  0  0
  190.2260  178.5890  144.4870 O   0  0  0  0  0  1  0  0  0  0  0  0
  190.0320  177.5860  145.4390 C   0  0  0  0  0  2  0  0  0  0  0  0
  184.5190  179.6150  143.2800 C   0  0  0  0  0  2  0  0  0  0  0  0
  183.4950  178.9080  145.3920 C   0  0  0  0  0  2  0  0  0  0  0  0
  183.3430  179.1320  144.0850 C   0  0  0  0  0  0  0  0  0  0  0  0
  179.9820  177.7580  143.8890 O   0  0  0  0  0  1  0  0  0  0  0  0
  180.8920  178.8090  144.0390 C   0  0  2  0  0  3  0  0  0  0  0  0
  181.2890  179.4340  142.7020 C   0  0  2  0  0  3  0  0  0  0  0  0
  180.6510  178.7710  141.4900 C   0  0  0  0  0  1  0  0  0  0  0  0
  182.2110  178.4390  143.3830 C   0  0  1  0  0  3  0  0  0  0  0  0
  1  2  1  0  0  0  0
  2  3  1  0  0  0  0
  3  8  1  0  0  0  0
  3 21  1  1  0  0  0
  4 12  1  0  0  0  0
  6 12  1  6  0  0  0
  6  3  1  0  0  0  0
  6  8  1  0  0  0  0
  7  4  1  0  0  0  0
  7  1  2  0  0  0  0
  8 13  1  1  0  0  0
  9 10  2  0  0  0  0
 10  5  1  0  0  0  0
 11  9  1  0  0  0  0
 11  4  2  0  0  0  0
 12  5  2  0  0  0  0
 13 14  1  0  0  0  0
 15 14  1  6  0  0  0
 15 17  1  0  0  0  0
 17 18  1  0  0  0  0
 17 16  1  0  0  0  0
 18 16  1  0  0  0  0
 19 20  1  0  0  0  0
 20 15  1  0  0  0  0
 21 23  1  0  0  0  0
 23 22  2  0  0  0  0
 25 24  1  6  0  0  0
 26 27  1  6  0  0  0
 26 28  1  0  0  0  0
 26 25  1  0  0  0  0
 28 25  1  0  0  0  0
 28 23  1  1  0  0  0
M  END
>  <MODEL>
8

>  <REMARK>
 VINA RESULT:      -7.8      2.643      7.113
  Name = 
  8 active torsions:
  status: ('A' for Active; 'I' for Inactive)
    1  A    between atoms: C_6  and  C_20
    2  A    between atoms: C_7  and  C_15
    3  A    between atoms: C_7  and  C_27
    4  A    between atoms: C_13  and  C_20
    5  A    between atoms: C_13  and  C_28
    6  A    between atoms: C_14  and  C_16
    7  A    between atoms: C_16  and  C_25
    8  A    between atoms: C_16  and  C_27
                            x       y       z     vdW  Elec       q    Type
                         _______ _______ _______ _____ _____    ______ ____

>  <TORSDO>
F 8

$$$$
=
 OpenBabel10232408393D

 28 32  0  0  1  0  0  0  0  0999 V2000
  186.9180  177.5260  144.7460 C   0  0  0  0  0  3  0  0  0  0  0  0
  187.6180  176.7360  143.6900 C   0  0  0  0  0  2  0  0  0  0  0  0
  188.4410  177.6720  142.8170 C   0  0  2  0  0  0  0  0  0  0  0  0
  185.3590  178.4880  143.1590 C   0  0  0  0  0  0  0  0  0  0  0  0
  185.5380  178.7340  140.7820 N   0  0  0  0  0  0  0  0  0  0  0  0
  187.6590  178.7160  142.0210 C   0  0  1  0  0  3  0  0  0  0  0  0
  185.9080  178.2950  144.4700 N   0  0  0  0  0  0  0  0  0  0  0  0
  188.2730  177.5090  141.3110 C   0  0  1  0  0  3  0  0  0  0  0  0
  183.3770  178.6990  141.7830 C   0  0  0  0  0  3  0  0  0  0  0  0
  184.1870  178.7770  140.6530 C   0  0  0  0  0  3  0  0  0  0  0  0
  183.9690  178.5590  143.0350 C   0  0  0  0  0  3  0  0  0  0  0  0
  186.1540  178.5890  141.9880 C   0  0  0  0  0  0  0  0  0  0  0  0
  189.4850  177.9640  140.5150 C   0  0  0  0  0  2  0  0  0  0  0  0
  189.1300  178.0950  139.0410 C   0  0  0  0  0  2  0  0  0  0  0  0
  190.0690  177.3130  138.1160 C   0  0  1  0  0  3  0  0  0  0  0  0
  191.6910  175.4490  137.8570 C   0  0  0  0  0  2  0  0  0  0  0  0
  190.9290  176.2960  138.8570 C   0  0  0  0  0  3  0  0  0  0  0  0
  192.3940  176.5760  138.5840 C   0  0  0  0  0  2  0  0  0  0  0  0
  188.1570  177.3830  136.6420 O   0  0  0  0  0  1  0  0  0  0  0  0
  189.3400  176.6960  136.9230 C   0  0  0  0  0  2  0  0  0  0  0  0
  189.7380  178.2530  143.4030 C   0  0  0  0  0  2  0  0  0  0  0  0
  191.4580  176.5870  142.8790 C   0  0  0  0  0  2  0  0  0  0  0  0
  190.7290  177.1970  143.8150 C   0  0  0  0  0  0  0  0  0  0  0  0
  191.9070  175.7990  146.9570 O   0  0  0  0  0  1  0  0  0  0  0  0
  191.6760  176.8560  146.0720 C   0  0  2  0  0  3  0  0  0  0  0  0
  190.2920  177.4790  146.2540 C   0  0  2  0  0  3  0  0  0  0  0  0
  189.4410  176.8060  147.3220 C   0  0  0  0  0  1  0  0  0  0  0  0
  190.5450  176.4930  145.1280 C   0  0  1  0  0  3  0  0  0  0  0  0
  2  1  1  0  0  0  0
  3 21  1  1  0  0  0
  3  2  1  0  0  0  0
  4  7  1  0  0  0  0
  5 12  1  0  0  0  0
  6 12  1  1  0  0  0
  6  3  1  0  0  0  0
  7  1  2  0  0  0  0
  8 13  1  6  0  0  0
  8  6  1  0  0  0  0
  8  3  1  0  0  0  0
  9 11  2  0  0  0  0
 10  5  2  0  0  0  0
 10  9  1  0  0  0  0
 11  4  1  0  0  0  0
 12  4  2  0  0  0  0
 14 13  1  0  0  0  0
 15 20  1  6  0  0  0
 15 17  1  0  0  0  0
 15 14  1  0  0  0  0
 16 18  1  0  0  0  0
 16 17  1  0  0  0  0
 18 17  1  0  0  0  0
 19 20  1  0  0  0  0
 21 23  1  0  0  0  0
 22 23  2  0  0  0  0
 25 26  1  0  0  0  0
 25 24  1  1  0  0  0
 26 27  1  1  0  0  0
 28 23  1  6  0  0  0
 28 25  1  0  0  0  0
 28 26  1  0  0  0  0
M  END
>  <MODEL>
9

>  <REMARK>
 VINA RESULT:      -7.6      1.718      2.791
  Name = 
  8 active torsions:
  status: ('A' for Active; 'I' for Inactive)
    1  A    between atoms: C_6  and  C_20
    2  A    between atoms: C_7  and  C_15
    3  A    between atoms: C_7  and  C_27
    4  A    between atoms: C_13  and  C_20
    5  A    between atoms: C_13  and  C_28
    6  A    between atoms: C_14  and  C_16
    7  A    between atoms: C_16  and  C_25
    8  A    between atoms: C_16  and  C_27
                            x       y       z     vdW  Elec       q    Type
                         _______ _______ _______ _____ _____    ______ ____

>  <TORSDO>
F 8

$$$$
