=
 OpenBabel10232412383D

 37 41  0  0  1  0  0  0  0  0999 V2000
  193.1370  175.4900  134.4350 C   0  0  0  0  0  2  0  0  0  0  0  0
  194.6410  174.1900  137.1580 C   0  0  0  0  0  2  0  0  0  0  0  0
  185.8730  174.8170  134.3810 C   0  0  0  0  0  2  0  0  0  0  0  0
  195.3620  176.2420  135.3740 C   0  0  0  0  0  2  0  0  0  0  0  0
  186.3750  174.0520  135.6040 C   0  0  2  0  0  3  0  0  0  0  0  0
  187.6470  176.6250  134.5170 C   0  0  0  0  0  2  0  0  0  0  0  0
  191.8350  174.7010  137.8640 C   0  0  0  0  0  1  0  0  0  0  0  0
  195.9300  174.8270  135.2030 C   0  0  0  0  0  2  0  0  0  0  0  0
  190.4440  172.7160  136.5630 O   0  0  0  0  0  1  0  0  0  0  0  0
  188.7950  174.8320  135.9390 C   0  0  1  0  0  3  0  0  0  0  0  0
  188.2010  176.2520  135.8860 C   0  0  1  0  0  3  0  0  0  0  0  0
  191.0770  173.6400  135.7230 C   0  0  1  0  0  3  0  0  0  0  0  0
  193.4910  173.5150  136.4100 C   0  0  0  0  0  2  0  0  0  0  0  0
  190.4890  177.1360  136.1010 C   0  0  0  0  0  3  0  0  0  0  0  0
  187.8540  173.7410  135.4110 C   0  0  0  0  0  2  0  0  0  0  0  0
  192.3690  175.6610  135.6750 N   0  0  1  0  0  0  0  0  0  0  0  0
  186.1550  176.3140  134.4830 C   0  0  0  0  0  2  0  0  0  0  0  0
  189.1910  177.2640  136.3910 C   0  0  0  0  0  0  0  0  0  0  0  0
  190.1520  174.7380  135.2040 C   0  0  2  0  0  3  0  0  0  0  0  0
  195.9080  174.0320  136.4430 N   0  0  0  0  0  0  0  0  0  0  0  0
  194.2700  176.5100  134.3460 C   0  0  0  0  0  2  0  0  0  0  0  0
  191.0180  176.0200  135.2360 C   0  0  1  0  0  3  0  0  0  0  0  0
  192.2160  174.3850  136.4110 C   0  0  2  0  0  0  0  0  0  0  0  0
  188.5470  177.9650  138.7040 C   0  0  0  0  0  0  0  0  0  0  0  0
  187.1480  177.9520  139.2030 C   0  0  0  0  0  2  0  0  0  0  0  0
  186.3280  178.3470  138.0350 C   0  0  0  0  0  0  0  0  0  0  0  0
  190.4560  177.1730  140.1890 O   0  0  0  0  0  0  0  0  0  0  0  0
  185.1290  178.1160  137.9830 O   0  0  0  0  0  0  0  0  0  0  0  0
  189.5330  177.5660  139.4620 C   0  0  0  0  0  0  0  0  0  0  0  0
  188.7610  178.3980  137.2820 C   0  0  2  0  0  3  0  0  0  0  0  0
  187.1940  179.1090  136.6680 S   0  0  0  0  0  0  0  0  0  0  0  0
  196.9640  174.5230  137.3160 C   0  0  0  0  0  2  0  0  0  0  0  0
  196.5900  174.2830  138.7590 C   0  0  0  0  0  1  0  0  0  0  0  0
  185.6120  172.7470  135.7390 C   0  0  0  0  0  2  0  0  0  0  0  0
  184.6480  172.8200  136.8720 C   0  0  0  0  0  0  0  0  0  0  0  0
  183.9480  171.8160  137.1670 O   0  0  0  0  0  0  0  0  0  0  0  0
  184.5420  174.0120  137.6430 N   0  0  0  0  0  1  0  0  0  0  0  0
  3 17  1  0  0  0  0
  3  5  1  0  0  0  0
  5 34  1  6  0  0  0
  8  4  1  0  0  0  0
  8 20  1  0  0  0  0
 10 15  1  6  0  0  0
 11  6  1  6  0  0  0
 11 10  1  0  0  0  0
 11 18  1  0  0  0  0
 12 23  1  0  0  0  0
 12  9  1  1  0  0  0
 13 23  1  0  0  0  0
 13  2  1  0  0  0  0
 14 18  2  0  0  0  0
 15  5  1  0  0  0  0
 16  1  1  6  0  0  0
 16 23  1  0  0  0  0
 17  6  1  0  0  0  0
 18 30  1  0  0  0  0
 19 22  1  0  0  0  0
 19 12  1  0  0  0  0
 19 10  1  0  0  0  0
 20  2  1  0  0  0  0
 20 32  1  0  0  0  0
 21  1  1  0  0  0  0
 21  4  1  0  0  0  0
 22 16  1  0  0  0  0
 22 14  1  0  0  0  0
 23  7  1  0  0  0  0
 24 25  1  0  0  0  0
 24 29  2  0  0  0  0
 26 25  1  0  0  0  0
 28 26  2  0  0  0  0
 29 27  2  0  0  0  0
 30 24  1  0  0  0  0
 31 30  1  0  0  0  0
 31 26  1  0  0  0  0
 32 33  1  0  0  0  0
 34 35  1  0  0  0  0
 35 36  2  0  0  0  0
 35 37  1  0  0  0  0
M  END
>  <MODEL>
1

>  <REMARK>
 VINA RESULT:      -5.5      0.000      0.000
  Name = 
  4 active torsions:
  status: ('A' for Active; 'I' for Inactive)
    1  A    between atoms: C_6  and  C_16
    2  A    between atoms: C_7  and  C_16
    3  A    between atoms: C_8  and  N_32
    4  A    between atoms: C_30  and  C_33
                            x       y       z     vdW  Elec       q    Type
                         _______ _______ _______ _____ _____    ______ ____

>  <TORSDO>
F 4

$$$$
=
 OpenBabel10232412383D

 37 41  0  0  1  0  0  0  0  0999 V2000
  188.4170  174.8550  137.3610 C   0  0  0  0  0  2  0  0  0  0  0  0
  190.1410  176.7700  135.1860 C   0  0  0  0  0  2  0  0  0  0  0  0
  182.0140  177.6620  139.4460 C   0  0  0  0  0  2  0  0  0  0  0  0
  190.1070  174.0010  135.6850 C   0  0  0  0  0  2  0  0  0  0  0  0
  182.7000  178.7230  138.5890 C   0  0  2  0  0  3  0  0  0  0  0  0
  182.9270  175.6990  138.1250 C   0  0  0  0  0  2  0  0  0  0  0  0
  187.3210  177.5820  135.0280 C   0  0  0  0  0  1  0  0  0  0  0  0
  191.1940  174.8910  136.3040 C   0  0  0  0  0  2  0  0  0  0  0  0
  186.9000  179.0000  137.3480 O   0  0  0  0  0  1  0  0  0  0  0  0
  184.5960  177.4910  137.3800 C   0  0  1  0  0  3  0  0  0  0  0  0
  183.4980  176.4960  136.9590 C   0  0  1  0  0  3  0  0  0  0  0  0
  187.1710  177.6380  137.5290 C   0  0  1  0  0  3  0  0  0  0  0  0
  189.3950  177.3160  136.4040 C   0  0  0  0  0  2  0  0  0  0  0  0
  185.2390  175.1610  135.8420 C   0  0  0  0  0  3  0  0  0  0  0  0
  184.1920  178.4180  138.5350 C   0  0  0  0  0  2  0  0  0  0  0  0
  187.5700  175.5630  136.3930 N   0  0  1  0  0  0  0  0  0  0  0  0
  181.6810  176.4040  138.6480 C   0  0  0  0  0  2  0  0  0  0  0  0
  183.9800  175.6070  135.8470 C   0  0  0  0  0  0  0  0  0  0  0  0
  185.9240  176.7820  137.7330 C   0  0  2  0  0  3  0  0  0  0  0  0
  191.4090  176.1510  135.5710 N   0  0  0  0  0  0  0  0  0  0  0  0
  189.0630  173.6250  136.7280 C   0  0  0  0  0  2  0  0  0  0  0  0
  186.2150  175.4810  136.9460 C   0  0  1  0  0  3  0  0  0  0  0  0
  187.8840  177.0100  136.3360 C   0  0  2  0  0  0  0  0  0  0  0  0
  181.7970  176.0240  134.7010 C   0  0  0  0  0  0  0  0  0  0  0  0
  180.5570  175.2600  134.9990 C   0  0  0  0  0  2  0  0  0  0  0  0
  181.0220  173.8800  135.2670 C   0  0  0  0  0  0  0  0  0  0  0  0
  181.7080  178.5420  134.3460 O   0  0  0  0  0  0  0  0  0  0  0  0
  180.3280  173.0740  135.8690 O   0  0  0  0  0  0  0  0  0  0  0  0
  181.7580  177.3150  134.5120 C   0  0  0  0  0  0  0  0  0  0  0  0
  183.0870  175.2550  134.6890 C   0  0  2  0  0  3  0  0  0  0  0  0
  182.6810  173.4740  134.7370 S   0  0  0  0  0  0  0  0  0  0  0  0
  192.1330  175.8450  134.3460 C   0  0  0  0  0  2  0  0  0  0  0  0
  193.6020  176.1410  134.5300 C   0  0  0  0  0  1  0  0  0  0  0  0
  182.5030  180.0920  139.2150 C   0  0  0  0  0  2  0  0  0  0  0  0
  181.6980  180.9670  138.3170 C   0  0  0  0  0  0  0  0  0  0  0  0
  181.8330  182.2170  138.3710 O   0  0  0  0  0  0  0  0  0  0  0  0
  180.8010  180.3890  137.3750 N   0  0  0  0  0  1  0  0  0  0  0  0
  2 20  1  0  0  0  0
  2 13  1  0  0  0  0
  4  8  1  0  0  0  0
  4 21  1  0  0  0  0
  5 34  1  1  0  0  0
  5  3  1  0  0  0  0
  6 17  1  0  0  0  0
  7 23  1  0  0  0  0
 10 19  1  0  0  0  0
 10 15  1  1  0  0  0
 11 10  1  0  0  0  0
 11  6  1  1  0  0  0
 12  9  1  6  0  0  0
 12 19  1  0  0  0  0
 14 18  2  0  0  0  0
 14 22  1  0  0  0  0
 15  5  1  0  0  0  0
 16 22  1  0  0  0  0
 16  1  1  1  0  0  0
 17  3  1  0  0  0  0
 18 11  1  0  0  0  0
 20  8  1  0  0  0  0
 21  1  1  0  0  0  0
 22 19  1  0  0  0  0
 23 16  1  0  0  0  0
 23 13  1  0  0  0  0
 23 12  1  0  0  0  0
 24 25  1  0  0  0  0
 25 26  1  0  0  0  0
 26 28  2  0  0  0  0
 27 29  2  0  0  0  0
 29 24  2  0  0  0  0
 30 24  1  0  0  0  0
 30 31  1  0  0  0  0
 30 18  1  0  0  0  0
 31 26  1  0  0  0  0
 32 33  1  0  0  0  0
 32 20  1  0  0  0  0
 35 36  2  0  0  0  0
 35 34  1  0  0  0  0
 37 35  1  0  0  0  0
M  END
>  <MODEL>
2

>  <REMARK>
 VINA RESULT:      -5.5      3.518      6.774
  Name = 
  4 active torsions:
  status: ('A' for Active; 'I' for Inactive)
    1  A    between atoms: C_6  and  C_16
    2  A    between atoms: C_7  and  C_16
    3  A    between atoms: C_8  and  N_32
    4  A    between atoms: C_30  and  C_33
                            x       y       z     vdW  Elec       q    Type
                         _______ _______ _______ _____ _____    ______ ____

>  <TORSDO>
F 4

$$$$
=
 OpenBabel10232412383D

 37 41  0  0  1  0  0  0  0  0999 V2000
  186.4380  174.6180  136.7600 C   0  0  0  0  0  2  0  0  0  0  0  0
  184.8710  177.2820  135.4110 C   0  0  0  0  0  2  0  0  0  0  0  0
  193.7180  175.1020  136.8210 C   0  0  0  0  0  2  0  0  0  0  0  0
  184.0870  175.3670  137.3170 C   0  0  0  0  0  2  0  0  0  0  0  0
  193.2030  176.3170  136.0520 C   0  0  2  0  0  3  0  0  0  0  0  0
  191.7700  175.0370  138.4440 C   0  0  0  0  0  2  0  0  0  0  0  0
  187.5540  178.1610  136.2260 C   0  0  0  0  0  1  0  0  0  0  0  0
  183.6750  175.2160  135.8470 C   0  0  0  0  0  2  0  0  0  0  0  0
  189.2250  177.0440  134.3470 O   0  0  0  0  0  1  0  0  0  0  0  0
  190.7010  176.4490  136.5960 C   0  0  1  0  0  3  0  0  0  0  0  0
  191.1550  176.3780  138.0650 C   0  0  1  0  0  3  0  0  0  0  0  0
  188.5680  176.1240  135.1730 C   0  0  1  0  0  3  0  0  0  0  0  0
  186.1340  176.6440  134.8290 C   0  0  0  0  0  2  0  0  0  0  0  0
  188.7820  176.3950  138.7220 C   0  0  0  0  0  3  0  0  0  0  0  0
  191.7800  176.0340  135.5860 C   0  0  0  0  0  2  0  0  0  0  0  0
  187.0920  175.9010  137.0500 N   0  0  1  0  0  0  0  0  0  0  0  0
  193.2830  175.1200  138.2830 C   0  0  0  0  0  2  0  0  0  0  0  0
  190.0360  176.7700  138.9900 C   0  0  0  0  0  0  0  0  0  0  0  0
  189.4170  175.6250  136.3400 C   0  0  2  0  0  3  0  0  0  0  0  0
  183.6820  176.4870  135.1010 N   0  0  0  0  0  0  0  0  0  0  0  0
  185.2210  174.4080  137.6580 C   0  0  0  0  0  2  0  0  0  0  0  0
  188.4300  175.5430  137.5290 C   0  0  1  0  0  3  0  0  0  0  0  0
  187.3140  176.6990  135.8230 C   0  0  2  0  0  0  0  0  0  0  0  0
  191.5810  177.3140  140.8800 C   0  0  0  0  0  0  0  0  0  0  0  0
  191.4910  176.6760  142.2190 C   0  0  0  0  0  2  0  0  0  0  0  0
  190.0400  176.4960  142.4530 C   0  0  0  0  0  0  0  0  0  0  0  0
  193.8440  177.7120  139.7880 O   0  0  0  0  0  0  0  0  0  0  0  0
  189.6160  175.7070  143.2850 O   0  0  0  0  0  0  0  0  0  0  0  0
  192.7390  177.5270  140.3160 C   0  0  0  0  0  0  0  0  0  0  0  0
  190.2870  177.6400  140.1910 C   0  0  2  0  0  3  0  0  0  0  0  0
  188.9350  177.4310  141.4020 S   0  0  0  0  0  0  0  0  0  0  0  0
  182.5220  177.2620  135.5140 C   0  0  0  0  0  2  0  0  0  0  0  0
  182.0730  178.1550  134.3830 C   0  0  0  0  0  1  0  0  0  0  0  0
  194.0780  176.5600  134.8350 C   0  0  0  0  0  2  0  0  0  0  0  0
  195.3460  177.2360  135.2290 C   0  0  0  0  0  0  0  0  0  0  0  0
  195.3540  178.4740  135.4540 O   0  0  0  0  0  0  0  0  0  0  0  0
  196.5400  176.4770  135.3830 N   0  0  0  0  0  1  0  0  0  0  0  0
  1 21  1  0  0  0  0
  3 17  1  0  0  0  0
  4 21  1  0  0  0  0
  5 34  1  6  0  0  0
  5  3  1  0  0  0  0
  8  4  1  0  0  0  0
 10 15  1  6  0  0  0
 10 11  1  0  0  0  0
 11  6  1  1  0  0  0
 11 18  1  0  0  0  0
 12  9  1  1  0  0  0
 12 23  1  0  0  0  0
 12 19  1  0  0  0  0
 13  2  1  0  0  0  0
 13 23  1  0  0  0  0
 14 18  2  0  0  0  0
 15  5  1  0  0  0  0
 16  1  1  6  0  0  0
 16 22  1  0  0  0  0
 17  6  1  0  0  0  0
 18 30  1  0  0  0  0
 19 10  1  0  0  0  0
 19 22  1  0  0  0  0
 20  2  1  0  0  0  0
 20 32  1  0  0  0  0
 20  8  1  0  0  0  0
 22 14  1  0  0  0  0
 23  7  1  0  0  0  0
 23 16  1  0  0  0  0
 24 25  1  0  0  0  0
 25 26  1  0  0  0  0
 26 28  2  0  0  0  0
 27 29  2  0  0  0  0
 29 24  2  0  0  0  0
 30 24  1  0  0  0  0
 30 31  1  0  0  0  0
 31 26  1  0  0  0  0
 33 32  1  0  0  0  0
 34 35  1  0  0  0  0
 35 37  1  0  0  0  0
 35 36  2  0  0  0  0
M  END
>  <MODEL>
3

>  <REMARK>
 VINA RESULT:      -5.4      2.789      8.063
  Name = 
  4 active torsions:
  status: ('A' for Active; 'I' for Inactive)
    1  A    between atoms: C_6  and  C_16
    2  A    between atoms: C_7  and  C_16
    3  A    between atoms: C_8  and  N_32
    4  A    between atoms: C_30  and  C_33
                            x       y       z     vdW  Elec       q    Type
                         _______ _______ _______ _____ _____    ______ ____

>  <TORSDO>
F 4

$$$$
=
 OpenBabel10232412383D

 37 41  0  0  1  0  0  0  0  0999 V2000
  186.9710  176.8110  134.3920 C   0  0  0  0  0  2  0  0  0  0  0  0
  188.9650  174.9930  136.4130 C   0  0  0  0  0  2  0  0  0  0  0  0
  179.9850  174.7090  134.3460 C   0  0  0  0  0  2  0  0  0  0  0  0
  189.1080  177.6370  135.4630 C   0  0  0  0  0  2  0  0  0  0  0  0
  180.7440  173.6910  135.1940 C   0  0  2  0  0  3  0  0  0  0  0  0
  181.4050  176.6840  135.0620 C   0  0  0  0  0  2  0  0  0  0  0  0
  186.2030  174.6360  137.3510 C   0  0  0  0  0  1  0  0  0  0  0  0
  189.9020  176.5180  134.7750 C   0  0  0  0  0  2  0  0  0  0  0  0
  185.0660  172.9790  135.4710 O   0  0  0  0  0  1  0  0  0  0  0  0
  183.0030  174.7910  135.7050 C   0  0  1  0  0  3  0  0  0  0  0  0
  182.1600  175.9860  136.1860 C   0  0  1  0  0  3  0  0  0  0  0  0
  185.4290  174.2470  134.9980 C   0  0  1  0  0  3  0  0  0  0  0  0
  187.8840  174.3950  135.5110 C   0  0  0  0  0  2  0  0  0  0  0  0
  184.2590  177.1950  136.6270 C   0  0  0  0  0  3  0  0  0  0  0  0
  182.2260  173.7790  134.8520 C   0  0  0  0  0  2  0  0  0  0  0  0
  186.3200  176.3810  135.6360 N   0  0  1  0  0  0  0  0  0  0  0  0
  180.0000  176.1020  134.9690 C   0  0  0  0  0  2  0  0  0  0  0  0
  182.9970  176.9430  136.9870 C   0  0  0  0  0  0  0  0  0  0  0  0
  184.2700  175.2390  134.9400 C   0  0  2  0  0  3  0  0  0  0  0  0
  190.1570  175.3580  135.6470 N   0  0  0  0  0  0  0  0  0  0  0  0
  187.8830  178.0110  134.6370 C   0  0  0  0  0  2  0  0  0  0  0  0
  184.8870  176.5810  135.4020 C   0  0  1  0  0  3  0  0  0  0  0  0
  186.4800  174.9270  135.8690 C   0  0  2  0  0  0  0  0  0  0  0  0
  182.2370  179.0600  138.0800 C   0  0  0  0  0  0  0  0  0  0  0  0
  183.1460  179.9680  138.8260 C   0  0  0  0  0  2  0  0  0  0  0  0
  184.1040  179.0670  139.5040 C   0  0  0  0  0  0  0  0  0  0  0  0
  180.4590  180.0040  136.5230 O   0  0  0  0  0  0  0  0  0  0  0  0
  185.1800  179.4690  139.9220 O   0  0  0  0  0  0  0  0  0  0  0  0
  181.3180  179.5380  137.2840 C   0  0  0  0  0  0  0  0  0  0  0  0
  182.4640  177.5840  138.2400 C   0  0  2  0  0  3  0  0  0  0  0  0
  183.6450  177.3420  139.6120 S   0  0  0  0  0  0  0  0  0  0  0  0
  191.1920  175.7250  136.6010 C   0  0  0  0  0  2  0  0  0  0  0  0
  190.6870  175.5190  138.0090 C   0  0  0  0  0  1  0  0  0  0  0  0
  180.2500  172.2910  134.8770 C   0  0  0  0  0  2  0  0  0  0  0  0
  180.6720  171.3350  135.9380 C   0  0  0  0  0  0  0  0  0  0  0  0
  180.5010  171.6260  137.1510 O   0  0  0  0  0  0  0  0  0  0  0  0
  181.2380  170.0780  135.5810 N   0  0  0  0  0  1  0  0  0  0  0  0
  1 21  1  0  0  0  0
  3 17  1  0  0  0  0
  3  5  1  0  0  0  0
  5 34  1  6  0  0  0
  8  4  1  0  0  0  0
  8 20  1  0  0  0  0
 10 15  1  6  0  0  0
 10 11  1  0  0  0  0
 11  6  1  6  0  0  0
 11 18  1  0  0  0  0
 12  9  1  1  0  0  0
 12 23  1  0  0  0  0
 13 23  1  0  0  0  0
 13  2  1  0  0  0  0
 14 18  2  0  0  0  0
 15  5  1  0  0  0  0
 16  1  1  6  0  0  0
 16 23  1  0  0  0  0
 17  6  1  0  0  0  0
 18 30  1  0  0  0  0
 19 12  1  0  0  0  0
 19 22  1  0  0  0  0
 19 10  1  0  0  0  0
 20  2  1  0  0  0  0
 20 32  1  0  0  0  0
 21  4  1  0  0  0  0
 22 16  1  0  0  0  0
 22 14  1  0  0  0  0
 23  7  1  0  0  0  0
 24 30  1  0  0  0  0
 24 25  1  0  0  0  0
 25 26  1  0  0  0  0
 26 31  1  0  0  0  0
 26 28  2  0  0  0  0
 27 29  2  0  0  0  0
 29 24  2  0  0  0  0
 30 31  1  0  0  0  0
 32 33  1  0  0  0  0
 34 35  1  0  0  0  0
 35 36  2  0  0  0  0
 37 35  1  0  0  0  0
M  END
>  <MODEL>
4

>  <REMARK>
 VINA RESULT:      -5.3      3.426      5.994
  Name = 
  4 active torsions:
  status: ('A' for Active; 'I' for Inactive)
    1  A    between atoms: C_6  and  C_16
    2  A    between atoms: C_7  and  C_16
    3  A    between atoms: C_8  and  N_32
    4  A    between atoms: C_30  and  C_33
                            x       y       z     vdW  Elec       q    Type
                         _______ _______ _______ _____ _____    ______ ____

>  <TORSDO>
F 4

$$$$
=
 OpenBabel10232412383D

 37 41  0  0  1  0  0  0  0  0999 V2000
  182.6370  179.8970  138.5130 C   0  0  0  0  0  2  0  0  0  0  0  0
  182.0680  178.6820  141.6070 C   0  0  0  0  0  2  0  0  0  0  0  0
  188.9280  177.7270  135.5230 C   0  0  0  0  0  2  0  0  0  0  0  0
  180.3570  179.5560  139.5520 C   0  0  0  0  0  2  0  0  0  0  0  0
  188.9180  177.1990  136.9560 C   0  0  2  0  0  3  0  0  0  0  0  0
  186.4300  177.4580  135.1800 C   0  0  0  0  0  2  0  0  0  0  0  0
  184.0200  176.9090  140.3130 C   0  0  0  0  0  1  0  0  0  0  0  0
  180.7270  180.4950  140.7080 C   0  0  0  0  0  2  0  0  0  0  0  0
  186.3570  178.3610  140.3250 O   0  0  0  0  0  1  0  0  0  0  0  0
  186.4870  177.4210  137.7390 C   0  0  1  0  0  3  0  0  0  0  0  0
  186.1430  176.6590  136.4450 C   0  0  1  0  0  3  0  0  0  0  0  0
  185.3370  178.8910  139.5260 C   0  0  1  0  0  3  0  0  0  0  0  0
  183.4240  179.2000  141.1250 C   0  0  0  0  0  2  0  0  0  0  0  0
  183.7630  176.8920  137.0280 C   0  0  0  0  0  3  0  0  0  0  0  0
  187.9070  178.0020  137.7650 C   0  0  0  0  0  2  0  0  0  0  0  0
  183.1130  178.5210  138.7070 N   0  0  1  0  0  0  0  0  0  0  0  0
  187.8230  177.1060  134.6730 C   0  0  0  0  0  2  0  0  0  0  0  0
  184.7300  176.1480  136.4850 C   0  0  0  0  0  0  0  0  0  0  0  0
  185.4680  178.5440  138.0450 C   0  0  2  0  0  3  0  0  0  0  0  0
  181.1590  179.7850  141.9250 N   0  0  0  0  0  0  0  0  0  0  0  0
  181.1270  179.9290  138.2910 C   0  0  0  0  0  2  0  0  0  0  0  0
  184.0170  178.2710  137.5810 C   0  0  1  0  0  3  0  0  0  0  0  0
  183.9520  178.3910  139.9210 C   0  0  2  0  0  0  0  0  0  0  0  0
  183.7450  173.9160  137.0340 C   0  0  0  0  0  0  0  0  0  0  0  0
  184.5420  172.7740  137.5520 C   0  0  0  0  0  2  0  0  0  0  0  0
  185.8440  172.8780  136.8530 C   0  0  0  0  0  0  0  0  0  0  0  0
  181.4470  174.4290  137.9990 O   0  0  0  0  0  0  0  0  0  0  0  0
  186.8460  172.3200  137.2750 O   0  0  0  0  0  0  0  0  0  0  0  0
  182.5620  174.1820  137.5200 C   0  0  0  0  0  0  0  0  0  0  0  0
  184.3850  174.7740  135.9800 C   0  0  2  0  0  3  0  0  0  0  0  0
  185.8960  173.9250  135.4040 S   0  0  0  0  0  0  0  0  0  0  0  0
  179.9820  179.2080  142.5570 C   0  0  0  0  0  2  0  0  0  0  0  0
  180.3910  178.4060  143.7690 C   0  0  0  0  0  1  0  0  0  0  0  0
  190.2930  177.3760  137.5760 C   0  0  0  0  0  2  0  0  0  0  0  0
  190.5750  176.2800  138.5440 C   0  0  0  0  0  0  0  0  0  0  0  0
  190.5010  176.5010  139.7810 O   0  0  0  0  0  0  0  0  0  0  0  0
  190.8940  174.9760  138.0730 N   0  0  0  0  0  1  0  0  0  0  0  0
  2 20  1  0  0  0  0
  3  5  1  0  0  0  0
  4  8  1  0  0  0  0
  5 34  1  1  0  0  0
  5 15  1  0  0  0  0
  8 20  1  0  0  0  0
 10 15  1  6  0  0  0
 10 19  1  0  0  0  0
 11  6  1  6  0  0  0
 11 18  1  0  0  0  0
 11 10  1  0  0  0  0
 12 23  1  0  0  0  0
 12  9  1  1  0  0  0
 13  2  1  0  0  0  0
 14 22  1  0  0  0  0
 16  1  1  6  0  0  0
 16 23  1  0  0  0  0
 17  6  1  0  0  0  0
 17  3  1  0  0  0  0
 18 14  2  0  0  0  0
 19 12  1  0  0  0  0
 20 32  1  0  0  0  0
 21  1  1  0  0  0  0
 21  4  1  0  0  0  0
 22 19  1  0  0  0  0
 22 16  1  0  0  0  0
 23  7  1  0  0  0  0
 23 13  1  0  0  0  0
 24 29  2  0  0  0  0
 24 25  1  0  0  0  0
 26 28  2  0  0  0  0
 26 25  1  0  0  0  0
 29 27  2  0  0  0  0
 30 18  1  0  0  0  0
 30 24  1  0  0  0  0
 31 30  1  0  0  0  0
 31 26  1  0  0  0  0
 32 33  1  0  0  0  0
 34 35  1  0  0  0  0
 35 36  2  0  0  0  0
 37 35  1  0  0  0  0
M  END
>  <MODEL>
5

>  <REMARK>
 VINA RESULT:      -5.1      3.817      9.609
  Name = 
  4 active torsions:
  status: ('A' for Active; 'I' for Inactive)
    1  A    between atoms: C_6  and  C_16
    2  A    between atoms: C_7  and  C_16
    3  A    between atoms: C_8  and  N_32
    4  A    between atoms: C_30  and  C_33
                            x       y       z     vdW  Elec       q    Type
                         _______ _______ _______ _____ _____    ______ ____

>  <TORSDO>
F 4

$$$$
=
 OpenBabel10232412383D

 37 41  0  0  1  0  0  0  0  0999 V2000
  194.6840  175.4240  134.4840 C   0  0  0  0  0  2  0  0  0  0  0  0
  196.6620  173.6080  136.5250 C   0  0  0  0  0  2  0  0  0  0  0  0
  187.5470  174.8330  135.8760 C   0  0  0  0  0  2  0  0  0  0  0  0
  197.0910  175.9620  135.0450 C   0  0  0  0  0  2  0  0  0  0  0  0
  188.2580  173.8410  136.7950 C   0  0  2  0  0  3  0  0  0  0  0  0
  189.3970  176.5650  135.9620 C   0  0  0  0  0  2  0  0  0  0  0  0
  194.0960  173.9950  137.9040 C   0  0  0  0  0  1  0  0  0  0  0  0
  197.5400  174.6020  134.4930 C   0  0  0  0  0  2  0  0  0  0  0  0
  192.3650  172.3110  136.5850 O   0  0  0  0  0  1  0  0  0  0  0  0
  190.7290  174.5220  136.7400 C   0  0  1  0  0  3  0  0  0  0  0  0
  190.2090  175.9300  137.0840 C   0  0  1  0  0  3  0  0  0  0  0  0
  192.8530  173.3760  135.8170 C   0  0  1  0  0  3  0  0  0  0  0  0
  195.3480  173.1000  135.9300 C   0  0  0  0  0  2  0  0  0  0  0  0
  192.5310  176.7370  136.9620 C   0  0  0  0  0  3  0  0  0  0  0  0
  189.6450  173.5610  136.2330 C   0  0  0  0  0  2  0  0  0  0  0  0
  194.2040  175.3570  135.8700 N   0  0  1  0  0  0  0  0  0  0  0  0
  187.9190  176.2780  136.1930 C   0  0  0  0  0  2  0  0  0  0  0  0
  191.3320  176.8170  137.5440 C   0  0  0  0  0  0  0  0  0  0  0  0
  191.8950  174.5610  135.7250 C   0  0  2  0  0  3  0  0  0  0  0  0
  197.7400  173.5820  135.5360 N   0  0  0  0  0  0  0  0  0  0  0  0
  195.8220  176.4330  134.3460 C   0  0  0  0  0  2  0  0  0  0  0  0
  192.8110  175.8060  135.8090 C   0  0  1  0  0  3  0  0  0  0  0  0
  194.1470  173.9640  136.3700 C   0  0  2  0  0  0  0  0  0  0  0  0
  191.7670  177.2370  139.9710 C   0  0  0  0  0  0  0  0  0  0  0  0
  190.8340  176.8270  141.0520 C   0  0  0  0  0  2  0  0  0  0  0  0
  189.4830  177.0250  140.4780 C   0  0  0  0  0  0  0  0  0  0  0  0
  194.2780  176.9410  140.2510 O   0  0  0  0  0  0  0  0  0  0  0  0
  188.4970  176.4790  140.9510 O   0  0  0  0  0  0  0  0  0  0  0  0
  193.0570  177.0940  140.1100 C   0  0  0  0  0  0  0  0  0  0  0  0
  191.1550  177.7600  138.7030 C   0  0  2  0  0  3  0  0  0  0  0  0
  189.3760  178.0400  139.0100 S   0  0  0  0  0  0  0  0  0  0  0  0
  198.9790  173.8860  136.2370 C   0  0  0  0  0  2  0  0  0  0  0  0
  199.1040  173.0130  137.4620 C   0  0  0  0  0  1  0  0  0  0  0  0
  187.4770  172.5400  136.8450 C   0  0  0  0  0  2  0  0  0  0  0  0
  186.0350  172.8050  137.1100 C   0  0  0  0  0  0  0  0  0  0  0  0
  185.6970  173.7860  137.8230 O   0  0  0  0  0  0  0  0  0  0  0  0
  185.0380  171.9710  136.5300 N   0  0  0  0  0  1  0  0  0  0  0  0
  3 17  1  0  0  0  0
  3  5  1  0  0  0  0
  5 34  1  6  0  0  0
  6 17  1  0  0  0  0
  8  4  1  0  0  0  0
  8 20  1  0  0  0  0
 10 15  1  6  0  0  0
 10 11  1  0  0  0  0
 11  6  1  6  0  0  0
 11 18  1  0  0  0  0
 12 23  1  0  0  0  0
 12  9  1  1  0  0  0
 13 23  1  0  0  0  0
 13  2  1  0  0  0  0
 14 18  2  0  0  0  0
 15  5  1  0  0  0  0
 16  1  1  6  0  0  0
 16 23  1  0  0  0  0
 18 30  1  0  0  0  0
 19 22  1  0  0  0  0
 19 12  1  0  0  0  0
 19 10  1  0  0  0  0
 20 32  1  0  0  0  0
 20  2  1  0  0  0  0
 21  1  1  0  0  0  0
 21  4  1  0  0  0  0
 22 16  1  0  0  0  0
 22 14  1  0  0  0  0
 23  7  1  0  0  0  0
 24 29  2  0  0  0  0
 24 25  1  0  0  0  0
 26 28  2  0  0  0  0
 26 25  1  0  0  0  0
 29 27  2  0  0  0  0
 30 31  1  0  0  0  0
 30 24  1  0  0  0  0
 31 26  1  0  0  0  0
 32 33  1  0  0  0  0
 34 35  1  0  0  0  0
 35 36  2  0  0  0  0
 37 35  1  0  0  0  0
M  END
>  <MODEL>
6

>  <REMARK>
 VINA RESULT:      -4.3      1.958      2.605
  Name = 
  4 active torsions:
  status: ('A' for Active; 'I' for Inactive)
    1  A    between atoms: C_6  and  C_16
    2  A    between atoms: C_7  and  C_16
    3  A    between atoms: C_8  and  N_32
    4  A    between atoms: C_30  and  C_33
                            x       y       z     vdW  Elec       q    Type
                         _______ _______ _______ _____ _____    ______ ____

>  <TORSDO>
F 4

$$$$
=
 OpenBabel10232412383D

 37 41  0  0  1  0  0  0  0  0999 V2000
  186.4260  174.0200  137.0030 C   0  0  0  0  0  2  0  0  0  0  0  0
  184.5580  176.3500  135.4390 C   0  0  0  0  0  2  0  0  0  0  0  0
  193.6000  175.3460  136.9320 C   0  0  0  0  0  2  0  0  0  0  0  0
  184.0050  174.5390  137.5190 C   0  0  0  0  0  2  0  0  0  0  0  0
  192.9460  176.4190  136.0630 C   0  0  2  0  0  3  0  0  0  0  0  0
  191.6760  175.2040  138.5780 C   0  0  0  0  0  2  0  0  0  0  0  0
  187.1210  177.6040  136.1390 C   0  0  0  0  0  1  0  0  0  0  0  0
  183.6110  174.2080  136.0730 C   0  0  0  0  0  2  0  0  0  0  0  0
  188.9080  176.5230  134.3480 O   0  0  0  0  0  1  0  0  0  0  0  0
  190.4470  176.3090  136.6230 C   0  0  1  0  0  3  0  0  0  0  0  0
  190.9080  176.4250  138.0880 C   0  0  1  0  0  3  0  0  0  0  0  0
  188.3640  175.6120  135.2620 C   0  0  1  0  0  3  0  0  0  0  0  0
  185.8850  175.8140  134.9020 C   0  0  0  0  0  2  0  0  0  0  0  0
  188.5500  176.2270  138.7690 C   0  0  0  0  0  3  0  0  0  0  0  0
  191.5660  175.9320  135.6420 C   0  0  0  0  0  2  0  0  0  0  0  0
  186.9260  175.3900  137.1690 N   0  0  1  0  0  0  0  0  0  0  0  0
  193.1690  175.4470  138.3920 C   0  0  0  0  0  2  0  0  0  0  0  0
  189.7530  176.7660  138.9870 C   0  0  0  0  0  0  0  0  0  0  0  0
  189.2670  175.3220  136.4580 C   0  0  2  0  0  3  0  0  0  0  0  0
  183.4690  175.3980  135.2170 N   0  0  0  0  0  0  0  0  0  0  0  0
  185.2430  173.7520  137.9310 C   0  0  0  0  0  2  0  0  0  0  0  0
  188.2980  175.2350  137.6610 C   0  0  1  0  0  3  0  0  0  0  0  0
  187.0530  176.0940  135.8720 C   0  0  2  0  0  0  0  0  0  0  0  0
  189.4390  177.2250  141.4250 C   0  0  0  0  0  0  0  0  0  0  0  0
  188.1970  177.8080  141.9950 C   0  0  0  0  0  2  0  0  0  0  0  0
  187.7340  178.7770  140.9750 C   0  0  0  0  0  0  0  0  0  0  0  0
  190.6360  175.3200  142.6140 O   0  0  0  0  0  0  0  0  0  0  0  0
  186.5820  179.1840  140.9510 O   0  0  0  0  0  0  0  0  0  0  0  0
  190.0620  176.2520  142.0330 C   0  0  0  0  0  0  0  0  0  0  0  0
  189.9020  177.7650  140.1020 C   0  0  2  0  0  3  0  0  0  0  0  0
  188.9240  179.2620  139.7310 S   0  0  0  0  0  0  0  0  0  0  0  0
  182.2270  176.0680  135.5720 C   0  0  0  0  0  2  0  0  0  0  0  0
  181.0500  175.2000  135.1960 C   0  0  0  0  0  1  0  0  0  0  0  0
  193.7850  176.6510  134.8190 C   0  0  0  0  0  2  0  0  0  0  0  0
  195.1660  177.0670  135.1890 C   0  0  0  0  0  0  0  0  0  0  0  0
  195.5350  178.2560  135.0060 O   0  0  0  0  0  0  0  0  0  0  0  0
  196.0590  176.1290  135.7820 N   0  0  0  0  0  1  0  0  0  0  0  0
  1 21  1  0  0  0  0
  3 17  1  0  0  0  0
  4 21  1  0  0  0  0
  5 34  1  6  0  0  0
  5  3  1  0  0  0  0
  8  4  1  0  0  0  0
 10 15  1  6  0  0  0
 10 11  1  0  0  0  0
 11  6  1  1  0  0  0
 11 18  1  0  0  0  0
 12  9  1  6  0  0  0
 12 23  1  0  0  0  0
 12 19  1  0  0  0  0
 13  2  1  0  0  0  0
 13 23  1  0  0  0  0
 14 18  2  0  0  0  0
 15  5  1  0  0  0  0
 16  1  1  6  0  0  0
 16 22  1  0  0  0  0
 17  6  1  0  0  0  0
 18 30  1  0  0  0  0
 19 10  1  0  0  0  0
 19 22  1  0  0  0  0
 20  2  1  0  0  0  0
 20 32  1  0  0  0  0
 20  8  1  0  0  0  0
 22 14  1  0  0  0  0
 23  7  1  0  0  0  0
 23 16  1  0  0  0  0
 24 25  1  0  0  0  0
 24 29  2  0  0  0  0
 26 25  1  0  0  0  0
 28 26  2  0  0  0  0
 29 27  2  0  0  0  0
 30 24  1  0  0  0  0
 31 30  1  0  0  0  0
 31 26  1  0  0  0  0
 33 32  1  0  0  0  0
 34 35  1  0  0  0  0
 35 37  1  0  0  0  0
 36 35  2  0  0  0  0
M  END
>  <MODEL>
7

>  <REMARK>
 VINA RESULT:      -4.1      2.543      7.863
  Name = 
  4 active torsions:
  status: ('A' for Active; 'I' for Inactive)
    1  A    between atoms: C_6  and  C_16
    2  A    between atoms: C_7  and  C_16
    3  A    between atoms: C_8  and  N_32
    4  A    between atoms: C_30  and  C_33
                            x       y       z     vdW  Elec       q    Type
                         _______ _______ _______ _____ _____    ______ ____

>  <TORSDO>
F 4

$$$$
=
 OpenBabel10232412383D

 37 41  0  0  1  0  0  0  0  0999 V2000
  190.0050  177.6070  135.5560 C   0  0  0  0  0  2  0  0  0  0  0  0
  187.4200  176.1750  137.1810 C   0  0  0  0  0  2  0  0  0  0  0  0
  196.5750  175.1650  137.5770 C   0  0  0  0  0  2  0  0  0  0  0  0
  187.6550  177.3790  134.6490 C   0  0  0  0  0  2  0  0  0  0  0  0
  195.5580  174.5140  138.5110 C   0  0  2  0  0  3  0  0  0  0  0  0
  195.0450  175.1500  135.5540 C   0  0  0  0  0  2  0  0  0  0  0  0
  189.7180  174.3590  137.4120 C   0  0  0  0  0  1  0  0  0  0  0  0
  187.1020  178.1730  135.8400 C   0  0  0  0  0  2  0  0  0  0  0  0
  191.3670  175.5910  139.2380 O   0  0  0  0  0  1  0  0  0  0  0  0
  193.2820  174.8790  137.3900 C   0  0  1  0  0  3  0  0  0  0  0  0
  193.9500  174.2700  136.1430 C   0  0  1  0  0  3  0  0  0  0  0  0
  191.2060  176.2790  138.0290 C   0  0  1  0  0  3  0  0  0  0  0  0
  188.7220  176.6120  137.8550 C   0  0  0  0  0  2  0  0  0  0  0  0
  191.8500  174.6600  134.9180 C   0  0  0  0  0  3  0  0  0  0  0  0
  194.2710  175.3270  138.4750 C   0  0  0  0  0  2  0  0  0  0  0  0
  190.2050  176.1830  135.8510 N   0  0  1  0  0  0  0  0  0  0  0  0
  196.3900  174.7230  136.1280 C   0  0  0  0  0  2  0  0  0  0  0  0
  192.9200  173.8850  135.1190 C   0  0  0  0  0  0  0  0  0  0  0  0
  192.3430  176.0560  137.0350 C   0  0  2  0  0  3  0  0  0  0  0  0
  186.5510  177.3210  136.9080 N   0  0  0  0  0  0  0  0  0  0  0  0
  189.0900  177.7930  134.3470 C   0  0  0  0  0  2  0  0  0  0  0  0
  191.6400  175.9560  135.6600 C   0  0  1  0  0  3  0  0  0  0  0  0
  189.9450  175.8710  137.2750 C   0  0  2  0  0  0  0  0  0  0  0  0
  192.0840  171.5440  134.8470 C   0  0  0  0  0  0  0  0  0  0  0  0
  192.6800  170.3750  135.5450 C   0  0  0  0  0  2  0  0  0  0  0  0
  194.1320  170.6620  135.5850 C   0  0  0  0  0  0  0  0  0  0  0  0
  189.5590  171.7660  134.6260 O   0  0  0  0  0  0  0  0  0  0  0  0
  194.8780  170.0960  136.3710 O   0  0  0  0  0  0  0  0  0  0  0  0
  190.7890  171.6610  134.7240 C   0  0  0  0  0  0  0  0  0  0  0  0
  193.0310  172.5970  134.3480 C   0  0  2  0  0  3  0  0  0  0  0  0
  194.7290  171.9380  134.4830 S   0  0  0  0  0  0  0  0  0  0  0  0
  185.2710  176.7970  136.4570 C   0  0  0  0  0  2  0  0  0  0  0  0
  185.2910  175.2880  136.4960 C   0  0  0  0  0  1  0  0  0  0  0  0
  196.0970  174.5110  139.9310 C   0  0  0  0  0  2  0  0  0  0  0  0
  197.2790  175.4090  140.0440 C   0  0  0  0  0  0  0  0  0  0  0  0
  197.2030  176.4670  140.7220 O   0  0  0  0  0  0  0  0  0  0  0  0
  198.5060  175.0560  139.4130 N   0  0  0  0  0  1  0  0  0  0  0  0
  2 13  1  0  0  0  0
  3  5  1  0  0  0  0
  4  8  1  0  0  0  0
  5 34  1  1  0  0  0
  6 17  1  0  0  0  0
  8 20  1  0  0  0  0
 10 15  1  1  0  0  0
 11  6  1  6  0  0  0
 11 10  1  0  0  0  0
 12  9  1  1  0  0  0
 14 18  2  0  0  0  0
 14 22  1  0  0  0  0
 15  5  1  0  0  0  0
 16  1  1  1  0  0  0
 16 23  1  0  0  0  0
 17  3  1  0  0  0  0
 18 11  1  0  0  0  0
 19 10  1  0  0  0  0
 19 12  1  0  0  0  0
 20  2  1  0  0  0  0
 21  4  1  0  0  0  0
 21  1  1  0  0  0  0
 22 16  1  0  0  0  0
 22 19  1  0  0  0  0
 23  7  1  0  0  0  0
 23 13  1  0  0  0  0
 23 12  1  0  0  0  0
 24 25  1  0  0  0  0
 25 26  1  0  0  0  0
 26 28  2  0  0  0  0
 27 29  2  0  0  0  0
 29 24  2  0  0  0  0
 30 31  1  0  0  0  0
 30 24  1  0  0  0  0
 30 18  1  0  0  0  0
 31 26  1  0  0  0  0
 32 33  1  0  0  0  0
 32 20  1  0  0  0  0
 34 35  1  0  0  0  0
 35 36  2  0  0  0  0
 37 35  1  0  0  0  0
M  END
>  <MODEL>
8

>  <REMARK>
 VINA RESULT:      -3.9      2.995      8.573
  Name = 
  4 active torsions:
  status: ('A' for Active; 'I' for Inactive)
    1  A    between atoms: C_6  and  C_16
    2  A    between atoms: C_7  and  C_16
    3  A    between atoms: C_8  and  N_32
    4  A    between atoms: C_30  and  C_33
                            x       y       z     vdW  Elec       q    Type
                         _______ _______ _______ _____ _____    ______ ____

>  <TORSDO>
F 4

$$$$
=
 OpenBabel10232412383D

 37 41  0  0  1  0  0  0  0  0999 V2000
  191.3390  175.6090  134.8260 C   0  0  0  0  0  2  0  0  0  0  0  0
  190.0450  176.2760  137.8670 C   0  0  0  0  0  2  0  0  0  0  0  0
  198.2180  173.1820  134.9320 C   0  0  0  0  0  2  0  0  0  0  0  0
  188.8790  175.5500  135.4120 C   0  0  0  0  0  2  0  0  0  0  0  0
  197.8640  173.5600  136.3680 C   0  0  2  0  0  3  0  0  0  0  0  0
  195.8890  172.3680  134.3460 C   0  0  0  0  0  2  0  0  0  0  0  0
  192.2930  174.4250  138.2560 C   0  0  0  0  0  1  0  0  0  0  0  0
  188.9320  177.0220  135.8440 C   0  0  0  0  0  2  0  0  0  0  0  0
  194.5240  175.9860  137.8580 O   0  0  0  0  0  1  0  0  0  0  0  0
  195.3100  173.7880  136.3950 C   0  0  1  0  0  3  0  0  0  0  0  0
  195.3140  172.3870  135.7560 C   0  0  1  0  0  3  0  0  0  0  0  0
  193.7230  175.8010  136.7240 C   0  0  1  0  0  3  0  0  0  0  0  0
  191.4670  176.6430  137.4420 C   0  0  0  0  0  2  0  0  0  0  0  0
  192.8590  172.5190  135.6290 C   0  0  0  0  0  3  0  0  0  0  0  0
  196.6680  174.5030  136.3440 C   0  0  0  0  0  2  0  0  0  0  0  0
  191.7790  174.6800  135.8750 N   0  0  1  0  0  0  0  0  0  0  0  0
  197.3720  172.0220  134.4170 C   0  0  0  0  0  2  0  0  0  0  0  0
  193.9460  171.7670  135.8190 C   0  0  0  0  0  0  0  0  0  0  0  0
  194.2250  174.7060  135.7860 C   0  0  2  0  0  3  0  0  0  0  0  0
  189.0630  177.2010  137.3000 N   0  0  0  0  0  0  0  0  0  0  0  0
  189.9300  175.2660  134.3460 C   0  0  0  0  0  2  0  0  0  0  0  0
  192.9400  173.9900  135.3050 C   0  0  1  0  0  3  0  0  0  0  0  0
  192.2940  175.3940  137.0660 C   0  0  2  0  0  0  0  0  0  0  0  0
  194.7890  169.8190  137.1420 C   0  0  0  0  0  0  0  0  0  0  0  0
  195.8060  168.8630  136.6340 C   0  0  0  0  0  2  0  0  0  0  0  0
  195.5050  168.7260  135.1900 C   0  0  0  0  0  0  0  0  0  0  0  0
  194.8820  170.6460  139.5470 O   0  0  0  0  0  0  0  0  0  0  0  0
  196.3310  168.2950  134.3990 O   0  0  0  0  0  0  0  0  0  0  0  0
  194.8270  170.2430  138.3770 C   0  0  0  0  0  0  0  0  0  0  0  0
  193.7650  170.3130  136.1610 C   0  0  2  0  0  3  0  0  0  0  0  0
  193.8990  169.2980  134.6480 S   0  0  0  0  0  0  0  0  0  0  0  0
  187.7780  176.9000  137.9130 C   0  0  0  0  0  2  0  0  0  0  0  0
  186.8570  178.0890  137.7830 C   0  0  0  0  0  1  0  0  0  0  0  0
  199.0380  174.2740  137.0140 C   0  0  0  0  0  2  0  0  0  0  0  0
  198.7840  174.4920  138.4650 C   0  0  0  0  0  0  0  0  0  0  0  0
  197.7900  173.9530  139.0170 O   0  0  0  0  0  0  0  0  0  0  0  0
  199.6830  175.2820  139.2360 N   0  0  0  0  0  1  0  0  0  0  0  0
  3  5  1  0  0  0  0
  4  8  1  0  0  0  0
  5 34  1  6  0  0  0
  6 17  1  0  0  0  0
  8 20  1  0  0  0  0
 10 15  1  6  0  0  0
 11  6  1  6  0  0  0
 11 18  1  0  0  0  0
 11 10  1  0  0  0  0
 12 23  1  0  0  0  0
 12  9  1  1  0  0  0
 13  2  1  0  0  0  0
 14 18  2  0  0  0  0
 15  5  1  0  0  0  0
 16  1  1  6  0  0  0
 16 23  1  0  0  0  0
 17  3  1  0  0  0  0
 18 30  1  0  0  0  0
 19 10  1  0  0  0  0
 19 12  1  0  0  0  0
 20  2  1  0  0  0  0
 20 32  1  0  0  0  0
 21  1  1  0  0  0  0
 21  4  1  0  0  0  0
 22 14  1  0  0  0  0
 22 19  1  0  0  0  0
 22 16  1  0  0  0  0
 23 13  1  0  0  0  0
 23  7  1  0  0  0  0
 24 29  2  0  0  0  0
 25 24  1  0  0  0  0
 26 25  1  0  0  0  0
 28 26  2  0  0  0  0
 29 27  2  0  0  0  0
 30 24  1  0  0  0  0
 31 26  1  0  0  0  0
 31 30  1  0  0  0  0
 33 32  1  0  0  0  0
 34 35  1  0  0  0  0
 35 36  2  0  0  0  0
 35 37  1  0  0  0  0
M  END
>  <MODEL>
9

>  <REMARK>
 VINA RESULT:      -3.9      4.017      9.260
  Name = 
  4 active torsions:
  status: ('A' for Active; 'I' for Inactive)
    1  A    between atoms: C_6  and  C_16
    2  A    between atoms: C_7  and  C_16
    3  A    between atoms: C_8  and  N_32
    4  A    between atoms: C_30  and  C_33
                            x       y       z     vdW  Elec       q    Type
                         _______ _______ _______ _____ _____    ______ ____

>  <TORSDO>
F 4

$$$$
