=
 OpenBabel10232408533D

 51 56  0  0  1  0  0  0  0  0999 V2000
  189.5830  176.9840  136.1320 C   0  0  0  0  0  2  0  0  0  0  0  0
  188.9720  173.3420  136.9890 C   0  0  0  0  0  3  0  0  0  0  0  0
  191.7040  176.5460  137.7450 C   0  0  1  0  0  3  0  0  0  0  0  0
  186.7600  172.7520  136.2200 C   0  0  0  0  0  3  0  0  0  0  0  0
  187.9710  172.3870  136.8080 C   0  0  0  0  0  3  0  0  0  0  0  0
  190.9670  175.3270  137.4020 N   0  0  0  0  0  2  0  0  0  0  0  0
  188.7530  174.6620  136.5720 C   0  0  0  0  0  0  0  0  0  0  0  0
  189.9450  178.2180  138.4890 C   0  0  1  0  0  3  0  0  0  0  0  0
  189.7740  175.6590  136.7320 N   0  0  0  0  0  0  0  0  0  0  0  0
  188.5760  177.5340  138.4120 C   0  0  0  0  0  2  0  0  0  0  0  0
  191.0340  177.2710  138.8370 N   0  0  0  0  0  0  0  0  0  0  0  0
  187.5570  174.9910  136.0060 N   0  0  0  0  0  0  0  0  0  0  0  0
  189.1960  178.0790  137.1410 C   0  0  2  0  0  3  0  0  0  0  0  0
  186.5620  174.0790  135.8290 C   0  0  0  0  0  0  0  0  0  0  0  0
  184.7580  176.4420  136.7780 C   0  0  0  0  0  2  0  0  0  0  0  0
  185.3200  174.4520  135.2220 N   0  0  0  0  0  2  0  0  0  0  0  0
  183.0310  178.0500  137.6940 C   0  0  0  0  0  3  0  0  0  0  0  0
  183.4580  175.9070  134.9080 N   0  0  0  0  0  0  0  0  0  0  0  0
  184.5380  175.6010  135.5680 C   0  0  0  0  0  0  0  0  0  0  0  0
  181.7850  178.1030  137.1930 C   0  0  0  0  0  2  0  0  0  0  0  0
  183.8110  177.3580  136.6810 C   0  0  0  0  0  0  0  0  0  0  0  0
  181.7470  177.4150  135.8790 C   0  0  0  0  0  0  0  0  0  0  0  0
  182.9830  177.0480  135.5980 C   0  0  0  0  0  0  0  0  0  0  0  0
  180.5320  176.9960  135.1660 C   0  0  0  0  0  0  0  0  0  0  0  0
  179.9820  177.7770  134.3460 O   0  0  0  0  0  0  0  0  0  0  0  0
  179.9840  175.7360  135.3860 O   0  0  0  0  0  1  0  0  0  0  0  0
  193.5850  177.0520  139.1440 O   0  0  0  0  0  1  0  0  0  0  0  0
  193.1460  176.2050  138.1240 C   0  0  2  0  0  3  0  0  0  0  0  0
  194.0680  176.3440  136.9240 C   0  0  0  0  0  2  0  0  0  0  0  0
  194.6780  174.9960  136.5850 C   0  0  0  0  0  2  0  0  0  0  0  0
  195.3050  171.8440  138.1100 C   0  0  1  0  0  3  0  0  0  0  0  0
  193.6370  172.7520  136.6400 C   0  0  0  0  0  0  0  0  0  0  0  0
  195.0910  173.3070  138.3350 C   0  0  0  0  0  0  0  0  0  0  0  0
  195.6930  173.9390  139.1890 O   0  0  0  0  0  0  0  0  0  0  0  0
  194.0580  173.9200  137.4630 C   0  0  1  0  0  3  0  0  0  0  0  0
  192.7330  172.8150  135.8200 O   0  0  0  0  0  0  0  0  0  0  0  0
  194.3740  171.4800  136.9370 C   0  0  1  0  0  3  0  0  0  0  0  0
  196.6520  171.5950  137.8260 O   0  0  0  0  0  1  0  0  0  0  0  0
  195.1170  170.9880  135.6980 C   0  0  0  0  0  2  0  0  0  0  0  0
  194.9420  169.6110  135.5500 O   0  0  0  0  0  1  0  0  0  0  0  0
  190.7130  176.4280  139.9940 C   0  0  0  0  0  2  0  0  0  0  0  0
  191.0910  177.1590  141.2660 C   0  0  0  0  0  2  0  0  0  0  0  0
  189.8400  177.4930  142.0640 C   0  0  0  0  0  2  0  0  0  0  0  0
  190.2600  175.2740  142.8690 O   0  0  0  0  0  1  0  0  0  0  0  0
  189.5850  176.4610  143.1570 C   0  0  2  0  0  3  0  0  0  0  0  0
  188.0930  176.1990  143.3140 C   0  0  0  0  0  2  0  0  0  0  0  0
  187.4660  177.2200  144.2520 C   0  0  0  0  0  2  0  0  0  0  0  0
  187.7860  177.7210  146.5910 C   0  0  0  0  0  0  0  0  0  0  0  0
  188.2620  177.3440  145.4520 N   0  0  0  0  0  0  0  0  0  0  0  0
  188.6990  177.8100  147.7630 C   0  0  0  0  0  1  0  0  0  0  0  0
  186.3440  178.0900  146.7740 C   0  0  0  0  0  1  0  0  0  0  0  0
  1  9  1  0  0  0  0
  3 28  1  1  0  0  0
  3 11  1  0  0  0  0
  4  5  2  0  0  0  0
  5  2  1  0  0  0  0
  6  3  1  0  0  0  0
  7  9  1  0  0  0  0
  7  2  2  0  0  0  0
  8 10  1  1  0  0  0
  8 11  1  0  0  0  0
  9  6  1  0  0  0  0
 11 41  1  0  0  0  0
 12  7  1  0  0  0  0
 13  1  1  6  0  0  0
 13 10  1  0  0  0  0
 13  8  1  0  0  0  0
 14 12  2  0  0  0  0
 14  4  1  0  0  0  0
 16 19  1  0  0  0  0
 16 14  1  0  0  0  0
 18 19  2  0  0  0  0
 18 23  1  0  0  0  0
 19 15  1  0  0  0  0
 20 17  1  0  0  0  0
 21 15  1  0  0  0  0
 21 17  2  0  0  0  0
 22 20  1  0  0  0  0
 23 22  2  0  0  0  0
 23 21  1  0  0  0  0
 24 26  1  0  0  0  0
 24 22  1  0  0  0  0
 25 24  2  0  0  0  0
 28 27  1  1  0  0  0
 29 28  1  0  0  0  0
 30 29  1  0  0  0  0
 31 38  1  6  0  0  0
 31 33  1  0  0  0  0
 32 37  1  0  0  0  0
 32 35  1  0  0  0  0
 33 34  2  0  0  0  0
 35 30  1  6  0  0  0
 35 33  1  0  0  0  0
 36 32  2  0  0  0  0
 37 39  1  6  0  0  0
 37 31  1  0  0  0  0
 40 39  1  0  0  0  0
 41 42  1  0  0  0  0
 42 43  1  0  0  0  0
 43 45  1  0  0  0  0
 45 44  1  6  0  0  0
 45 46  1  0  0  0  0
 46 47  1  0  0  0  0
 47 49  1  0  0  0  0
 48 51  1  0  0  0  0
 48 50  1  0  0  0  0
 49 48  2  0  0  0  0
M  END
>  <MODEL>
1

>  <REMARK>
 VINA RESULT:      -7.1      0.000      0.000
  Name = 
  14 active torsions:
  status: ('A' for Active; 'I' for Inactive)
    1  A    between atoms: C_3  and  C_33
    2  A    between atoms: C_3  and  C_47
    3  A    between atoms: C_6  and  C_44
    4  A    between atoms: C_7  and  C_40
    5  A    between atoms: C_12  and  C_44
    6  A    between atoms: C_12  and  C_46
    7  A    between atoms: N_14  and  C_51
    8  A    between atoms: N_18  and  C_33
    9  A    between atoms: C_19  and  C_36
   10  A    between atoms: C_30  and  C_46
   11  A    between atoms: N_37  and  C_39
   12  A    between atoms: C_39  and  C_45
   13  A    between atoms: C_45  and  C_49
   14  A    between atoms: C_47  and  C_49
                            x       y       z     vdW  Elec       q    Type
                         _______ _______ _______ _____ _____    ______ ____

>  <TORSDO>
F 14

$$$$
=
 OpenBabel10232408533D

 51 56  0  0  1  0  0  0  0  0999 V2000
  189.4530  177.4530  136.9280 C   0  0  0  0  0  2  0  0  0  0  0  0
  188.9690  173.7090  137.2710 C   0  0  0  0  0  3  0  0  0  0  0  0
  191.5370  176.8820  138.5500 C   0  0  1  0  0  3  0  0  0  0  0  0
  186.8100  173.1450  136.3470 C   0  0  0  0  0  3  0  0  0  0  0  0
  188.0160  172.7500  136.9270 C   0  0  0  0  0  3  0  0  0  0  0  0
  190.8640  175.6930  138.0200 N   0  0  0  0  0  2  0  0  0  0  0  0
  188.7080  175.0640  137.0250 C   0  0  0  0  0  0  0  0  0  0  0  0
  189.6850  178.3720  139.4400 C   0  0  1  0  0  3  0  0  0  0  0  0
  189.6800  176.0680  137.3550 N   0  0  0  0  0  0  0  0  0  0  0  0
  188.3490  177.6550  139.2210 C   0  0  0  0  0  2  0  0  0  0  0  0
  190.8000  177.4290  139.7010 N   0  0  0  0  0  0  0  0  0  0  0  0
  187.5190  175.4210  136.4620 N   0  0  0  0  0  0  0  0  0  0  0  0
  188.9880  178.3880  138.0580 C   0  0  2  0  0  3  0  0  0  0  0  0
  186.5690  174.5040  136.1270 C   0  0  0  0  0  0  0  0  0  0  0  0
  184.7330  176.7850  137.2050 C   0  0  0  0  0  2  0  0  0  0  0  0
  185.3340  174.9080  135.5280 N   0  0  0  0  0  2  0  0  0  0  0  0
  182.9800  178.3160  138.2000 C   0  0  0  0  0  3  0  0  0  0  0  0
  183.4650  176.3680  135.2840 N   0  0  0  0  0  0  0  0  0  0  0  0
  184.5380  176.0260  135.9390 C   0  0  0  0  0  0  0  0  0  0  0  0
  181.7420  178.3940  137.6850 C   0  0  0  0  0  2  0  0  0  0  0  0
  183.7810  177.6990  137.1560 C   0  0  0  0  0  0  0  0  0  0  0  0
  181.7270  177.7960  136.3270 C   0  0  0  0  0  0  0  0  0  0  0  0
  182.9710  177.4570  136.0410 C   0  0  0  0  0  0  0  0  0  0  0  0
  180.5270  177.4170  135.5700 C   0  0  0  0  0  0  0  0  0  0  0  0
  179.9820  178.2470  134.7970 O   0  0  0  0  0  0  0  0  0  0  0  0
  179.9870  176.1410  135.6950 O   0  0  0  0  0  1  0  0  0  0  0  0
  193.5660  177.6400  139.5770 O   0  0  0  0  0  1  0  0  0  0  0  0
  192.9790  176.5480  138.9350 C   0  0  2  0  0  3  0  0  0  0  0  0
  193.7970  176.1870  137.7070 C   0  0  0  0  0  2  0  0  0  0  0  0
  194.3320  174.7730  137.8430 C   0  0  0  0  0  2  0  0  0  0  0  0
  196.6190  172.4830  136.3670 C   0  0  1  0  0  3  0  0  0  0  0  0
  196.2940  174.8630  136.3380 C   0  0  0  0  0  0  0  0  0  0  0  0
  195.1830  172.8580  136.5410 C   0  0  0  0  0  0  0  0  0  0  0  0
  194.2930  172.0300  136.6600 O   0  0  0  0  0  0  0  0  0  0  0  0
  194.9190  174.3190  136.5160 C   0  0  1  0  0  3  0  0  0  0  0  0
  196.5180  176.0560  136.1990 O   0  0  0  0  0  0  0  0  0  0  0  0
  197.3740  173.8240  136.2870 C   0  0  1  0  0  3  0  0  0  0  0  0
  197.0410  171.6910  137.4390 O   0  0  0  0  0  1  0  0  0  0  0  0
  198.3720  174.0310  137.4240 C   0  0  0  0  0  2  0  0  0  0  0  0
  199.5600  174.5700  136.9280 O   0  0  0  0  0  1  0  0  0  0  0  0
  190.4780  176.4270  140.7230 C   0  0  0  0  0  2  0  0  0  0  0  0
  190.8870  176.9510  142.0850 C   0  0  0  0  0  2  0  0  0  0  0  0
  189.7490  176.7620  143.0760 C   0  0  0  0  0  2  0  0  0  0  0  0
  190.9220  177.7800  144.9030 O   0  0  0  0  0  1  0  0  0  0  0  0
  189.7520  177.8520  144.1430 C   0  0  2  0  0  3  0  0  0  0  0  0
  188.5280  177.7320  145.0400 C   0  0  0  0  0  2  0  0  0  0  0  0
  187.4650  176.8640  144.3820 C   0  0  0  0  0  2  0  0  0  0  0  0
  185.6850  178.2500  143.5260 C   0  0  0  0  0  0  0  0  0  0  0  0
  186.1760  177.5120  144.4650 N   0  0  0  0  0  0  0  0  0  0  0  0
  184.3450  178.8670  143.7180 C   0  0  0  0  0  1  0  0  0  0  0  0
  186.4260  178.5240  142.2510 C   0  0  0  0  0  1  0  0  0  0  0  0
  1  9  1  0  0  0  0
  3 28  1  1  0  0  0
  3 11  1  0  0  0  0
  4  5  2  0  0  0  0
  5  2  1  0  0  0  0
  6  3  1  0  0  0  0
  7  2  2  0  0  0  0
  7  9  1  0  0  0  0
  8 10  1  1  0  0  0
  8 11  1  0  0  0  0
  9  6  1  0  0  0  0
 11 41  1  0  0  0  0
 12  7  1  0  0  0  0
 13  1  1  6  0  0  0
 13 10  1  0  0  0  0
 13  8  1  0  0  0  0
 14  4  1  0  0  0  0
 14 12  2  0  0  0  0
 16 19  1  0  0  0  0
 16 14  1  0  0  0  0
 18 19  2  0  0  0  0
 18 23  1  0  0  0  0
 19 15  1  0  0  0  0
 20 17  1  0  0  0  0
 21 15  1  0  0  0  0
 21 17  2  0  0  0  0
 22 20  1  0  0  0  0
 23 22  2  0  0  0  0
 23 21  1  0  0  0  0
 24 26  1  0  0  0  0
 24 22  1  0  0  0  0
 25 24  2  0  0  0  0
 28 27  1  6  0  0  0
 29 30  1  0  0  0  0
 29 28  1  0  0  0  0
 31 33  1  0  0  0  0
 31 38  1  1  0  0  0
 32 35  1  0  0  0  0
 33 34  2  0  0  0  0
 35 33  1  0  0  0  0
 35 30  1  1  0  0  0
 36 32  2  0  0  0  0
 37 32  1  0  0  0  0
 37 31  1  0  0  0  0
 37 39  1  1  0  0  0
 40 39  1  0  0  0  0
 41 42  1  0  0  0  0
 42 43  1  0  0  0  0
 43 45  1  0  0  0  0
 45 44  1  1  0  0  0
 45 46  1  0  0  0  0
 47 49  1  0  0  0  0
 47 46  1  0  0  0  0
 48 50  1  0  0  0  0
 48 49  2  0  0  0  0
 51 48  1  0  0  0  0
M  END
>  <MODEL>
2

>  <REMARK>
 VINA RESULT:      -6.9      1.591      2.255
  Name = 
  14 active torsions:
  status: ('A' for Active; 'I' for Inactive)
    1  A    between atoms: C_3  and  C_33
    2  A    between atoms: C_3  and  C_47
    3  A    between atoms: C_6  and  C_44
    4  A    between atoms: C_7  and  C_40
    5  A    between atoms: C_12  and  C_44
    6  A    between atoms: C_12  and  C_46
    7  A    between atoms: N_14  and  C_51
    8  A    between atoms: N_18  and  C_33
    9  A    between atoms: C_19  and  C_36
   10  A    between atoms: C_30  and  C_46
   11  A    between atoms: N_37  and  C_39
   12  A    between atoms: C_39  and  C_45
   13  A    between atoms: C_45  and  C_49
   14  A    between atoms: C_47  and  C_49
                            x       y       z     vdW  Elec       q    Type
                         _______ _______ _______ _____ _____    ______ ____

>  <TORSDO>
F 14

$$$$
=
 OpenBabel10232408533D

 51 56  0  0  1  0  0  0  0  0999 V2000
  188.3080  178.8860  137.2850 C   0  0  0  0  0  2  0  0  0  0  0  0
  188.6310  177.3340  140.7280 C   0  0  0  0  0  3  0  0  0  0  0  0
  185.6920  178.5720  137.8780 C   0  0  1  0  0  3  0  0  0  0  0  0
  190.9480  176.7440  141.0700 C   0  0  0  0  0  3  0  0  0  0  0  0
  189.6400  176.8300  141.5490 C   0  0  0  0  0  3  0  0  0  0  0  0
  186.5840  178.3050  139.0080 N   0  0  0  0  0  2  0  0  0  0  0  0
  188.9420  177.7550  139.4290 C   0  0  0  0  0  0  0  0  0  0  0  0
  186.6540  177.2640  135.9270 C   0  0  1  0  0  3  0  0  0  0  0  0
  187.9230  178.2930  138.5710 N   0  0  0  0  0  0  0  0  0  0  0  0
  187.8980  176.5190  136.4210 C   0  0  0  0  0  2  0  0  0  0  0  0
  185.6210  177.4050  136.9820 N   0  0  0  0  0  0  0  0  0  0  0  0
  190.2270  177.6550  138.9860 N   0  0  0  0  0  0  0  0  0  0  0  0
  188.0150  177.9890  136.0700 C   0  0  2  0  0  3  0  0  0  0  0  0
  191.2270  177.1570  139.7650 C   0  0  0  0  0  0  0  0  0  0  0  0
  192.2450  175.0270  137.7240 C   0  0  0  0  0  2  0  0  0  0  0  0
  192.5690  177.0730  139.2760 N   0  0  0  0  0  2  0  0  0  0  0  0
  193.2770  173.1270  136.4080 C   0  0  0  0  0  3  0  0  0  0  0  0
  194.2530  176.2260  137.8160 N   0  0  0  0  0  0  0  0  0  0  0  0
  193.0270  176.1790  138.2550 C   0  0  0  0  0  0  0  0  0  0  0  0
  194.6080  173.0200  136.2550 C   0  0  0  0  0  3  0  0  0  0  0  0
  193.0590  174.5020  136.8260 C   0  0  2  0  0  3  0  0  0  0  0  0
  195.2560  174.3060  136.6080 C   0  0  0  0  0  0  0  0  0  0  0  0
  194.2900  175.1650  136.8790 C   0  0  0  0  0  0  0  0  0  0  0  0
  196.6900  174.5030  136.8630 C   0  0  0  0  0  0  0  0  0  0  0  0
  197.3600  173.5950  137.4220 O   0  0  0  0  0  1  0  0  0  0  0  0
  197.3180  175.6850  136.4860 O   0  0  0  0  0  0  0  0  0  0  0  0
  184.3650  180.1550  139.0960 O   0  0  0  0  0  1  0  0  0  0  0  0
  184.3000  178.9570  138.3800 C   0  0  2  0  0  3  0  0  0  0  0  0
  183.7270  177.8690  139.2720 C   0  0  0  0  0  2  0  0  0  0  0  0
  182.9780  178.4980  140.4340 C   0  0  0  0  0  2  0  0  0  0  0  0
  180.5210  177.2410  138.1900 C   0  0  1  0  0  3  0  0  0  0  0  0
  180.8890  179.2970  139.3750 C   0  0  0  0  0  0  0  0  0  0  0  0
  181.2420  177.0260  139.4820 C   0  0  0  0  0  0  0  0  0  0  0  0
  181.5750  175.9190  139.8770 O   0  0  0  0  0  0  0  0  0  0  0  0
  181.4850  178.2630  140.2660 C   0  0  1  0  0  3  0  0  0  0  0  0
  180.8200  180.4760  139.6880 O   0  0  0  0  0  0  0  0  0  0  0  0
  180.3320  178.7670  138.0880 C   0  0  1  0  0  3  0  0  0  0  0  0
  181.2690  176.7180  137.1300 O   0  0  0  0  0  1  0  0  0  0  0  0
  181.0510  179.3920  136.8940 C   0  0  0  0  0  2  0  0  0  0  0  0
  180.3010  180.4520  136.3840 O   0  0  0  0  0  1  0  0  0  0  0  0
  185.3340  176.1460  137.6780 C   0  0  0  0  0  2  0  0  0  0  0  0
  184.5500  175.2330  136.7570 C   0  0  0  0  0  2  0  0  0  0  0  0
  183.9050  174.1150  137.5630 C   0  0  0  0  0  2  0  0  0  0  0  0
  183.8070  171.7340  137.3020 O   0  0  0  0  0  1  0  0  0  0  0  0
  183.5090  172.9430  136.6710 C   0  0  2  0  0  3  0  0  0  0  0  0
  184.2130  173.0290  135.3240 C   0  0  0  0  0  2  0  0  0  0  0  0
  185.2360  171.9100  135.1830 C   0  0  0  0  0  2  0  0  0  0  0  0
  187.4760  172.7230  135.5600 C   0  0  0  0  0  0  0  0  0  0  0  0
  186.5050  172.4520  134.7540 N   0  0  0  0  0  0  0  0  0  0  0  0
  188.7420  173.2760  135.0070 C   0  0  0  0  0  1  0  0  0  0  0  0
  187.3690  172.5170  137.0410 C   0  0  0  0  0  1  0  0  0  0  0  0
  1  9  1  0  0  0  0
  2  5  1  0  0  0  0
  3 28  1  1  0  0  0
  3  6  1  0  0  0  0
  4  5  2  0  0  0  0
  7  2  2  0  0  0  0
  8 13  1  0  0  0  0
  8 10  1  1  0  0  0
  8 11  1  0  0  0  0
  9  6  1  0  0  0  0
  9  7  1  0  0  0  0
 11 41  1  0  0  0  0
 11  3  1  0  0  0  0
 12  7  1  0  0  0  0
 12 14  2  0  0  0  0
 13 10  1  1  0  0  0
 13  1  1  0  0  0  0
 14  4  1  0  0  0  0
 15 19  1  0  0  0  0
 16 14  1  0  0  0  0
 18 19  2  0  0  0  0
 19 16  1  0  0  0  0
 20 17  2  0  0  0  0
 20 22  1  0  0  0  0
 21 17  1  1  0  0  0
 21 23  1  0  0  0  0
 21 15  1  0  0  0  0
 22 24  1  0  0  0  0
 22 23  2  0  0  0  0
 23 18  1  0  0  0  0
 24 25  1  0  0  0  0
 26 24  2  0  0  0  0
 28 27  1  1  0  0  0
 28 29  1  0  0  0  0
 29 30  1  0  0  0  0
 31 38  1  6  0  0  0
 31 33  1  0  0  0  0
 32 36  2  0  0  0  0
 32 35  1  0  0  0  0
 33 34  2  0  0  0  0
 33 35  1  0  0  0  0
 35 30  1  6  0  0  0
 37 39  1  6  0  0  0
 37 31  1  0  0  0  0
 37 32  1  0  0  0  0
 40 39  1  0  0  0  0
 42 43  1  0  0  0  0
 42 41  1  0  0  0  0
 45 44  1  1  0  0  0
 45 43  1  0  0  0  0
 46 45  1  0  0  0  0
 47 46  1  0  0  0  0
 48 51  1  0  0  0  0
 49 47  1  0  0  0  0
 49 48  2  0  0  0  0
 50 48  1  0  0  0  0
M  END
>  <MODEL>
3

>  <REMARK>
 VINA RESULT:      -6.5      3.040     11.156
  Name = 
  14 active torsions:
  status: ('A' for Active; 'I' for Inactive)
    1  A    between atoms: C_3  and  C_33
    2  A    between atoms: C_3  and  C_47
    3  A    between atoms: C_6  and  C_44
    4  A    between atoms: C_7  and  C_40
    5  A    between atoms: C_12  and  C_44
    6  A    between atoms: C_12  and  C_46
    7  A    between atoms: N_14  and  C_51
    8  A    between atoms: N_18  and  C_33
    9  A    between atoms: C_19  and  C_36
   10  A    between atoms: C_30  and  C_46
   11  A    between atoms: N_37  and  C_39
   12  A    between atoms: C_39  and  C_45
   13  A    between atoms: C_45  and  C_49
   14  A    between atoms: C_47  and  C_49
                            x       y       z     vdW  Elec       q    Type
                         _______ _______ _______ _____ _____    ______ ____

>  <TORSDO>
F 14

$$$$
=
 OpenBabel10232408533D

 51 56  0  0  1  0  0  0  0  0999 V2000
  188.0080  178.4530  136.8840 C   0  0  0  0  0  2  0  0  0  0  0  0
  188.6230  177.2400  140.4230 C   0  0  0  0  0  3  0  0  0  0  0  0
  185.4590  177.9760  137.6390 C   0  0  1  0  0  3  0  0  0  0  0  0
  190.9950  176.8770  140.6890 C   0  0  0  0  0  3  0  0  0  0  0  0
  189.7090  176.8950  141.2280 C   0  0  0  0  0  3  0  0  0  0  0  0
  186.4230  177.8840  138.7390 N   0  0  0  0  0  2  0  0  0  0  0  0
  188.8360  177.5710  139.0780 C   0  0  0  0  0  0  0  0  0  0  0  0
  186.4420  176.5870  135.7550 C   0  0  1  0  0  3  0  0  0  0  0  0
  187.7360  177.9450  138.2330 N   0  0  0  0  0  0  0  0  0  0  0  0
  187.7670  175.9940  136.2420 C   0  0  0  0  0  2  0  0  0  0  0  0
  185.4490  176.7340  136.8490 N   0  0  0  0  0  0  0  0  0  0  0  0
  190.1030  177.5390  138.5770 N   0  0  0  0  0  0  0  0  0  0  0  0
  187.7390  177.4320  135.7650 C   0  0  2  0  0  3  0  0  0  0  0  0
  191.1770  177.1960  139.3410 C   0  0  0  0  0  0  0  0  0  0  0  0
  192.3520  174.8870  137.6000 C   0  0  0  0  0  2  0  0  0  0  0  0
  192.4980  177.1810  138.7890 N   0  0  0  0  0  2  0  0  0  0  0  0
  193.5440  172.9230  136.5370 C   0  0  0  0  0  3  0  0  0  0  0  0
  194.2060  176.2980  137.3800 N   0  0  0  0  0  0  0  0  0  0  0  0
  193.0140  176.1890  137.8950 C   0  0  0  0  0  0  0  0  0  0  0  0
  194.8700  172.9400  136.3210 C   0  0  0  0  0  3  0  0  0  0  0  0
  193.1830  174.3160  136.7470 C   0  0  2  0  0  3  0  0  0  0  0  0
  195.3760  174.3300  136.4290 C   0  0  0  0  0  0  0  0  0  0  0  0
  194.3280  175.1090  136.6210 C   0  0  0  0  0  0  0  0  0  0  0  0
  196.7860  174.7210  136.5620 C   0  0  0  0  0  0  0  0  0  0  0  0
  197.1470  175.8880  136.2560 O   0  0  0  0  0  0  0  0  0  0  0  0
  197.7300  173.8120  137.0290 O   0  0  0  0  0  1  0  0  0  0  0  0
  183.1280  178.2460  137.1450 O   0  0  0  0  0  1  0  0  0  0  0  0
  184.0630  178.2870  138.1820 C   0  0  2  0  0  3  0  0  0  0  0  0
  184.0300  179.6580  138.8350 C   0  0  0  0  0  2  0  0  0  0  0  0
  182.8450  179.7470  139.7810 C   0  0  0  0  0  2  0  0  0  0  0  0
  181.5190  178.3570  142.7750 C   0  0  1  0  0  3  0  0  0  0  0  0
  183.6810  178.4810  141.7350 C   0  0  0  0  0  0  0  0  0  0  0  0
  181.4270  178.4000  141.2830 C   0  0  0  0  0  0  0  0  0  0  0  0
  180.3620  178.3530  140.6860 O   0  0  0  0  0  0  0  0  0  0  0  0
  182.7360  178.4610  140.5850 C   0  0  1  0  0  3  0  0  0  0  0  0
  184.8940  178.4630  141.5920 O   0  0  0  0  0  0  0  0  0  0  0  0
  183.0250  178.4680  143.0840 C   0  0  1  0  0  3  0  0  0  0  0  0
  180.7760  179.4030  143.3310 O   0  0  0  0  0  1  0  0  0  0  0  0
  183.3950  179.7220  143.8740 C   0  0  0  0  0  2  0  0  0  0  0  0
  183.6500  179.3920  145.2050 O   0  0  0  0  0  1  0  0  0  0  0  0
  185.3060  175.5210  137.6610 C   0  0  0  0  0  2  0  0  0  0  0  0
  183.9790  174.8610  137.3450 C   0  0  0  0  0  2  0  0  0  0  0  0
  183.9880  174.3340  135.9180 C   0  0  0  0  0  2  0  0  0  0  0  0
  184.2520  172.2860  137.1370 O   0  0  0  0  0  1  0  0  0  0  0  0
  183.9200  172.8110  135.8870 C   0  0  2  0  0  3  0  0  0  0  0  0
  184.8440  172.2520  134.8130 C   0  0  0  0  0  2  0  0  0  0  0  0
  185.8830  171.3270  135.4300 C   0  0  0  0  0  2  0  0  0  0  0  0
  188.0870  172.2270  135.8300 C   0  0  0  0  0  0  0  0  0  0  0  0
  187.2100  171.7310  135.0220 N   0  0  0  0  0  0  0  0  0  0  0  0
  189.4240  172.6060  135.3000 C   0  0  0  0  0  1  0  0  0  0  0  0
  187.7990  172.4520  137.2840 C   0  0  0  0  0  1  0  0  0  0  0  0
  1  9  1  0  0  0  0
  2  5  1  0  0  0  0
  3 28  1  1  0  0  0
  3  6  1  0  0  0  0
  4  5  2  0  0  0  0
  7  2  2  0  0  0  0
  8 13  1  0  0  0  0
  8 10  1  1  0  0  0
  8 11  1  0  0  0  0
  9  6  1  0  0  0  0
  9  7  1  0  0  0  0
 11  3  1  0  0  0  0
 11 41  1  0  0  0  0
 12  7  1  0  0  0  0
 12 14  2  0  0  0  0
 13 10  1  1  0  0  0
 13  1  1  0  0  0  0
 14  4  1  0  0  0  0
 15 19  1  0  0  0  0
 16 14  1  0  0  0  0
 18 19  2  0  0  0  0
 19 16  1  0  0  0  0
 20 22  1  0  0  0  0
 20 17  2  0  0  0  0
 21 17  1  1  0  0  0
 21 15  1  0  0  0  0
 22 24  1  0  0  0  0
 22 23  2  0  0  0  0
 23 21  1  0  0  0  0
 23 18  1  0  0  0  0
 24 26  1  0  0  0  0
 25 24  2  0  0  0  0
 28 27  1  6  0  0  0
 28 29  1  0  0  0  0
 29 30  1  0  0  0  0
 31 37  1  0  0  0  0
 31 38  1  1  0  0  0
 32 37  1  0  0  0  0
 33 31  1  0  0  0  0
 34 33  2  0  0  0  0
 35 30  1  1  0  0  0
 35 33  1  0  0  0  0
 35 32  1  0  0  0  0
 36 32  2  0  0  0  0
 37 39  1  6  0  0  0
 39 40  1  0  0  0  0
 42 41  1  0  0  0  0
 43 42  1  0  0  0  0
 45 43  1  0  0  0  0
 45 44  1  1  0  0  0
 46 47  1  0  0  0  0
 46 45  1  0  0  0  0
 48 51  1  0  0  0  0
 49 47  1  0  0  0  0
 49 48  2  0  0  0  0
 50 48  1  0  0  0  0
M  END
>  <MODEL>
4

>  <REMARK>
 VINA RESULT:      -6.4      3.263     11.152
  Name = 
  14 active torsions:
  status: ('A' for Active; 'I' for Inactive)
    1  A    between atoms: C_3  and  C_33
    2  A    between atoms: C_3  and  C_47
    3  A    between atoms: C_6  and  C_44
    4  A    between atoms: C_7  and  C_40
    5  A    between atoms: C_12  and  C_44
    6  A    between atoms: C_12  and  C_46
    7  A    between atoms: N_14  and  C_51
    8  A    between atoms: N_18  and  C_33
    9  A    between atoms: C_19  and  C_36
   10  A    between atoms: C_30  and  C_46
   11  A    between atoms: N_37  and  C_39
   12  A    between atoms: C_39  and  C_45
   13  A    between atoms: C_45  and  C_49
   14  A    between atoms: C_47  and  C_49
                            x       y       z     vdW  Elec       q    Type
                         _______ _______ _______ _____ _____    ______ ____

>  <TORSDO>
F 14

$$$$
=
 OpenBabel10232408533D

 51 56  0  0  1  0  0  0  0  0999 V2000
  189.1360  178.7420  139.7310 C   0  0  0  0  0  2  0  0  0  0  0  0
  185.6520  178.1710  141.1110 C   0  0  0  0  0  3  0  0  0  0  0  0
  187.8170  178.2670  137.4230 C   0  0  1  0  0  3  0  0  0  0  0  0
  185.8190  177.9810  143.5120 C   0  0  0  0  0  3  0  0  0  0  0  0
  185.0400  178.0220  142.3560 C   0  0  0  0  0  3  0  0  0  0  0  0
  186.9340  178.4100  138.5830 N   0  0  0  0  0  2  0  0  0  0  0  0
  187.0470  178.2830  141.0340 C   0  0  0  0  0  0  0  0  0  0  0  0
  189.6240  176.6360  138.1390 C   0  0  1  0  0  3  0  0  0  0  0  0
  187.6980  178.4540  139.7660 N   0  0  0  0  0  0  0  0  0  0  0  0
  189.3300  176.2010  139.5780 C   0  0  0  0  0  2  0  0  0  0  0  0
  188.3880  176.9120  137.3650 N   0  0  0  0  0  0  0  0  0  0  0  0
  187.7830  178.2330  142.1800 N   0  0  0  0  0  0  0  0  0  0  0  0
  190.0070  177.5360  139.3390 C   0  0  2  0  0  3  0  0  0  0  0  0
  187.2090  178.0780  143.4050 C   0  0  0  0  0  0  0  0  0  0  0  0
  189.9590  176.6250  143.6530 C   0  0  0  0  0  2  0  0  0  0  0  0
  188.0070  178.0400  144.5930 N   0  0  0  0  0  2  0  0  0  0  0  0
  191.9750  175.1580  144.0940 C   0  0  0  0  0  3  0  0  0  0  0  0
  190.0080  177.5580  145.7970 N   0  0  0  0  0  0  0  0  0  0  0  0
  189.3220  177.4790  144.6930 C   0  0  0  0  0  0  0  0  0  0  0  0
  192.4650  174.9930  145.3330 C   0  0  0  0  0  2  0  0  0  0  0  0
  191.1380  176.3440  144.1780 C   0  0  0  0  0  0  0  0  0  0  0  0
  191.9210  176.0420  146.2290 C   0  0  0  0  0  0  0  0  0  0  0  0
  191.1910  176.8490  145.4820 C   0  0  0  0  0  0  0  0  0  0  0  0
  191.9700  176.0250  147.6980 C   0  0  0  0  0  0  0  0  0  0  0  0
  192.0290  177.1080  148.3380 O   0  0  0  0  0  0  0  0  0  0  0  0
  191.9460  174.8200  148.3920 O   0  0  0  0  0  1  0  0  0  0  0  0
  186.9350  179.9750  135.9890 O   0  0  0  0  0  1  0  0  0  0  0  0
  187.0570  178.5920  136.1350 C   0  0  2  0  0  3  0  0  0  0  0  0
  185.6740  177.9640  136.1500 C   0  0  0  0  0  2  0  0  0  0  0  0
  185.4100  177.2690  134.8260 C   0  0  0  0  0  2  0  0  0  0  0  0
  182.2380  177.2990  136.4350 C   0  0  1  0  0  3  0  0  0  0  0  0
  183.9760  175.6810  136.0680 C   0  0  0  0  0  0  0  0  0  0  0  0
  182.9830  177.5490  135.1630 C   0  0  0  0  0  0  0  0  0  0  0  0
  182.7050  178.4650  134.4040 O   0  0  0  0  0  0  0  0  0  0  0  0
  184.0610  176.5700  134.8760 C   0  0  1  0  0  3  0  0  0  0  0  0
  184.6660  174.6810  136.1960 O   0  0  0  0  0  0  0  0  0  0  0  0
  182.9360  176.0820  137.0730 C   0  0  1  0  0  3  0  0  0  0  0  0
  182.2850  178.4350  137.2500 O   0  0  0  0  0  1  0  0  0  0  0  0
  183.5830  176.3870  138.4220 C   0  0  0  0  0  2  0  0  0  0  0  0
  182.7350  175.9980  139.4590 O   0  0  0  0  0  1  0  0  0  0  0  0
  187.3870  175.8460  137.4820 C   0  0  0  0  0  2  0  0  0  0  0  0
  187.8890  174.6070  136.7680 C   0  0  0  0  0  2  0  0  0  0  0  0
  188.1970  174.9360  135.3150 C   0  0  0  0  0  2  0  0  0  0  0  0
  190.1400  173.6700  135.9220 O   0  0  0  0  0  1  0  0  0  0  0  0
  189.6030  174.4910  134.9280 C   0  0  2  0  0  3  0  0  0  0  0  0
  190.5040  175.6960  134.6910 C   0  0  0  0  0  2  0  0  0  0  0  0
  191.9470  175.3620  135.0400 C   0  0  0  0  0  2  0  0  0  0  0  0
  192.9690  175.6410  137.2080 C   0  0  0  0  0  0  0  0  0  0  0  0
  192.3740  176.1440  136.1780 N   0  0  0  0  0  0  0  0  0  0  0  0
  193.3670  176.5420  138.3230 C   0  0  0  0  0  1  0  0  0  0  0  0
  193.2590  174.1750  137.3300 C   0  0  0  0  0  1  0  0  0  0  0  0
  1  9  1  0  0  0  0
  2  5  1  0  0  0  0
  3 28  1  6  0  0  0
  3  6  1  0  0  0  0
  5  4  2  0  0  0  0
  6  9  1  0  0  0  0
  7  2  2  0  0  0  0
  7 12  1  0  0  0  0
  8 13  1  0  0  0  0
  8 10  1  1  0  0  0
  9  7  1  0  0  0  0
 11  3  1  0  0  0  0
 11 41  1  0  0  0  0
 11  8  1  0  0  0  0
 12 14  2  0  0  0  0
 13 10  1  1  0  0  0
 13  1  1  0  0  0  0
 14  4  1  0  0  0  0
 14 16  1  0  0  0  0
 15 21  1  0  0  0  0
 15 19  1  0  0  0  0
 16 19  1  0  0  0  0
 17 21  2  0  0  0  0
 17 20  1  0  0  0  0
 19 18  2  0  0  0  0
 20 22  1  0  0  0  0
 21 23  1  0  0  0  0
 22 24  1  0  0  0  0
 23 18  1  0  0  0  0
 23 22  2  0  0  0  0
 24 25  2  0  0  0  0
 24 26  1  0  0  0  0
 28 27  1  1  0  0  0
 28 29  1  0  0  0  0
 30 29  1  0  0  0  0
 31 37  1  0  0  0  0
 31 38  1  1  0  0  0
 32 36  2  0  0  0  0
 32 37  1  0  0  0  0
 33 31  1  0  0  0  0
 34 33  2  0  0  0  0
 35 30  1  1  0  0  0
 35 33  1  0  0  0  0
 35 32  1  0  0  0  0
 37 39  1  1  0  0  0
 39 40  1  0  0  0  0
 42 41  1  0  0  0  0
 43 42  1  0  0  0  0
 45 43  1  0  0  0  0
 45 44  1  1  0  0  0
 46 45  1  0  0  0  0
 46 47  1  0  0  0  0
 47 49  1  0  0  0  0
 48 51  1  0  0  0  0
 48 50  1  0  0  0  0
 49 48  2  0  0  0  0
M  END
>  <MODEL>
5

>  <REMARK>
 VINA RESULT:      -5.9      2.942     10.399
  Name = 
  14 active torsions:
  status: ('A' for Active; 'I' for Inactive)
    1  A    between atoms: C_3  and  C_33
    2  A    between atoms: C_3  and  C_47
    3  A    between atoms: C_6  and  C_44
    4  A    between atoms: C_7  and  C_40
    5  A    between atoms: C_12  and  C_44
    6  A    between atoms: C_12  and  C_46
    7  A    between atoms: N_14  and  C_51
    8  A    between atoms: N_18  and  C_33
    9  A    between atoms: C_19  and  C_36
   10  A    between atoms: C_30  and  C_46
   11  A    between atoms: N_37  and  C_39
   12  A    between atoms: C_39  and  C_45
   13  A    between atoms: C_45  and  C_49
   14  A    between atoms: C_47  and  C_49
                            x       y       z     vdW  Elec       q    Type
                         _______ _______ _______ _____ _____    ______ ____

>  <TORSDO>
F 14

$$$$
=
 OpenBabel10232408533D

 51 56  0  0  1  0  0  0  0  0999 V2000
  189.0740  178.6830  139.6110 C   0  0  0  0  0  2  0  0  0  0  0  0
  185.6690  178.1070  141.1720 C   0  0  0  0  0  3  0  0  0  0  0  0
  187.6640  178.0790  137.3890 C   0  0  1  0  0  3  0  0  0  0  0  0
  185.9470  178.0290  143.5700 C   0  0  0  0  0  3  0  0  0  0  0  0
  185.1170  178.0030  142.4500 C   0  0  0  0  0  3  0  0  0  0  0  0
  186.8310  178.2570  138.5810 N   0  0  0  0  0  2  0  0  0  0  0  0
  187.0560  178.2430  141.0270 C   0  0  0  0  0  0  0  0  0  0  0  0
  189.5370  176.5170  138.0940 C   0  0  1  0  0  3  0  0  0  0  0  0
  187.6460  178.3690  139.7240 N   0  0  0  0  0  0  0  0  0  0  0  0
  189.3170  176.1420  139.5620 C   0  0  0  0  0  2  0  0  0  0  0  0
  188.2620  176.7330  137.3650 N   0  0  0  0  0  0  0  0  0  0  0  0
  187.8430  178.2590  142.1400 N   0  0  0  0  0  0  0  0  0  0  0  0
  189.9530  177.4780  139.2330 C   0  0  2  0  0  3  0  0  0  0  0  0
  187.3280  178.1490  143.3950 C   0  0  0  0  0  0  0  0  0  0  0  0
  189.9780  176.5270  143.6910 C   0  0  0  0  0  2  0  0  0  0  0  0
  188.1790  178.1800  144.5460 N   0  0  0  0  0  2  0  0  0  0  0  0
  191.9050  174.9700  144.2100 C   0  0  0  0  0  3  0  0  0  0  0  0
  190.1980  177.6830  145.7130 N   0  0  0  0  0  0  0  0  0  0  0  0
  189.4540  177.5360  144.6540 C   0  0  0  0  0  0  0  0  0  0  0  0
  192.4430  174.9040  145.4390 C   0  0  0  0  0  2  0  0  0  0  0  0
  191.1590  176.2170  144.1950 C   0  0  0  0  0  0  0  0  0  0  0  0
  192.0190  176.0820  146.2330 C   0  0  0  0  0  0  0  0  0  0  0  0
  191.3120  176.8560  145.4310 C   0  0  0  0  0  0  0  0  0  0  0  0
  192.1390  176.2220  147.6910 C   0  0  0  0  0  0  0  0  0  0  0  0
  192.4700  175.2310  148.3930 O   0  0  0  0  0  1  0  0  0  0  0  0
  191.8960  177.4460  148.3060 O   0  0  0  0  0  0  0  0  0  0  0  0
  187.0710  179.6240  135.6530 O   0  0  0  0  0  1  0  0  0  0  0  0
  186.8410  178.3300  136.1240 C   0  0  2  0  0  3  0  0  0  0  0  0
  185.3580  178.1520  136.4000 C   0  0  0  0  0  2  0  0  0  0  0  0
  184.7580  177.1900  135.3900 C   0  0  0  0  0  2  0  0  0  0  0  0
  181.5600  178.1060  136.6470 C   0  0  1  0  0  3  0  0  0  0  0  0
  183.3990  176.7660  137.4130 C   0  0  0  0  0  0  0  0  0  0  0  0
  182.3120  177.4820  135.5160 C   0  0  0  0  0  0  0  0  0  0  0  0
  181.9940  177.6340  134.3470 O   0  0  0  0  0  0  0  0  0  0  0  0
  183.4530  176.6280  135.9320 C   0  0  1  0  0  3  0  0  0  0  0  0
  184.1470  176.1520  138.1600 O   0  0  0  0  0  0  0  0  0  0  0  0
  182.3180  177.6750  137.9170 C   0  0  1  0  0  3  0  0  0  0  0  0
  181.5210  179.4950  136.4880 O   0  0  0  0  0  1  0  0  0  0  0  0
  182.9190  178.8440  138.6960 C   0  0  0  0  0  2  0  0  0  0  0  0
  182.4380  178.8440  140.0050 O   0  0  0  0  0  1  0  0  0  0  0  0
  187.2900  175.6540  137.5750 C   0  0  0  0  0  2  0  0  0  0  0  0
  187.3130  174.7210  136.3810 C   0  0  0  0  0  2  0  0  0  0  0  0
  187.0350  173.2960  136.8320 C   0  0  0  0  0  2  0  0  0  0  0  0
  185.5020  173.5070  135.0010 O   0  0  0  0  0  1  0  0  0  0  0  0
  185.8540  172.6930  136.0800 C   0  0  2  0  0  3  0  0  0  0  0  0
  184.6640  172.4990  137.0100 C   0  0  0  0  0  2  0  0  0  0  0  0
  183.3580  172.7370  136.2650 C   0  0  0  0  0  2  0  0  0  0  0  0
  181.2730  173.8500  136.7490 C   0  0  0  0  0  0  0  0  0  0  0  0
  182.3830  173.3280  137.1520 N   0  0  0  0  0  0  0  0  0  0  0  0
  180.3400  174.4300  137.7540 C   0  0  0  0  0  1  0  0  0  0  0  0
  180.8960  173.9110  135.3000 C   0  0  0  0  0  1  0  0  0  0  0  0
  1  9  1  0  0  0  0
  2  5  1  0  0  0  0
  3 28  1  6  0  0  0
  3  6  1  0  0  0  0
  5  4  2  0  0  0  0
  6  9  1  0  0  0  0
  7  2  2  0  0  0  0
  7 12  1  0  0  0  0
  8 13  1  0  0  0  0
  8 10  1  1  0  0  0
  9  7  1  0  0  0  0
 11  3  1  0  0  0  0
 11 41  1  0  0  0  0
 11  8  1  0  0  0  0
 12 14  2  0  0  0  0
 13 10  1  1  0  0  0
 13  1  1  0  0  0  0
 14  4  1  0  0  0  0
 14 16  1  0  0  0  0
 15 21  1  0  0  0  0
 15 19  1  0  0  0  0
 16 19  1  0  0  0  0
 17 20  1  0  0  0  0
 19 18  2  0  0  0  0
 20 22  1  0  0  0  0
 21 17  2  0  0  0  0
 21 23  1  0  0  0  0
 22 24  1  0  0  0  0
 23 18  1  0  0  0  0
 23 22  2  0  0  0  0
 24 26  2  0  0  0  0
 24 25  1  0  0  0  0
 28 27  1  1  0  0  0
 28 29  1  0  0  0  0
 30 29  1  0  0  0  0
 31 38  1  6  0  0  0
 31 37  1  0  0  0  0
 32 37  1  0  0  0  0
 32 36  2  0  0  0  0
 33 35  1  0  0  0  0
 33 31  1  0  0  0  0
 34 33  2  0  0  0  0
 35 30  1  6  0  0  0
 35 32  1  0  0  0  0
 37 39  1  6  0  0  0
 39 40  1  0  0  0  0
 42 43  1  0  0  0  0
 42 41  1  0  0  0  0
 45 44  1  6  0  0  0
 45 43  1  0  0  0  0
 45 46  1  0  0  0  0
 47 46  1  0  0  0  0
 47 49  1  0  0  0  0
 48 49  2  0  0  0  0
 48 50  1  0  0  0  0
 51 48  1  0  0  0  0
M  END
>  <MODEL>
6

>  <REMARK>
 VINA RESULT:      -5.9      4.378     10.862
  Name = 
  14 active torsions:
  status: ('A' for Active; 'I' for Inactive)
    1  A    between atoms: C_3  and  C_33
    2  A    between atoms: C_3  and  C_47
    3  A    between atoms: C_6  and  C_44
    4  A    between atoms: C_7  and  C_40
    5  A    between atoms: C_12  and  C_44
    6  A    between atoms: C_12  and  C_46
    7  A    between atoms: N_14  and  C_51
    8  A    between atoms: N_18  and  C_33
    9  A    between atoms: C_19  and  C_36
   10  A    between atoms: C_30  and  C_46
   11  A    between atoms: N_37  and  C_39
   12  A    between atoms: C_39  and  C_45
   13  A    between atoms: C_45  and  C_49
   14  A    between atoms: C_47  and  C_49
                            x       y       z     vdW  Elec       q    Type
                         _______ _______ _______ _____ _____    ______ ____

>  <TORSDO>
F 14

$$$$
=
 OpenBabel10232408533D

 51 56  0  0  1  0  0  0  0  0999 V2000
  188.0990  176.2200  134.8300 C   0  0  0  0  0  2  0  0  0  0  0  0
  187.4610  172.8080  136.3550 C   0  0  0  0  0  3  0  0  0  0  0  0
  190.6280  175.2730  134.8740 C   0  0  1  0  0  3  0  0  0  0  0  0
  185.1860  172.7640  137.1650 C   0  0  0  0  0  3  0  0  0  0  0  0
  186.4020  172.1160  136.9430 C   0  0  0  0  0  3  0  0  0  0  0  0
  189.6190  174.2650  135.2120 N   0  0  0  0  0  2  0  0  0  0  0  0
  187.2900  174.1490  135.9850 C   0  0  0  0  0  0  0  0  0  0  0  0
  190.0700  177.2980  136.3000 C   0  0  1  0  0  3  0  0  0  0  0  0
  188.3600  174.8780  135.3620 N   0  0  0  0  0  0  0  0  0  0  0  0
  188.8480  176.9550  137.1570 C   0  0  0  0  0  2  0  0  0  0  0  0
  190.9320  176.1180  136.0410 N   0  0  0  0  0  0  0  0  0  0  0  0
  186.0930  174.7580  136.2190 N   0  0  0  0  0  0  0  0  0  0  0  0
  188.6400  177.3590  135.7110 C   0  0  2  0  0  3  0  0  0  0  0  0
  185.0490  174.1060  136.8010 C   0  0  0  0  0  0  0  0  0  0  0  0
  184.7500  177.0430  137.8140 C   0  0  0  0  0  2  0  0  0  0  0  0
  183.8000  174.7680  137.0250 N   0  0  0  0  0  2  0  0  0  0  0  0
  184.3780  179.2440  139.0060 C   0  0  0  0  0  3  0  0  0  0  0  0
  182.4610  176.6860  137.4840 N   0  0  0  0  0  0  0  0  0  0  0  0
  183.6420  176.1480  137.3760 C   0  0  0  0  0  0  0  0  0  0  0  0
  183.1550  179.6250  139.4120 C   0  0  0  0  0  2  0  0  0  0  0  0
  184.1360  178.1910  138.0330 C   0  0  0  0  0  0  0  0  0  0  0  0
  182.1250  178.7990  138.7370 C   0  0  0  0  0  0  0  0  0  0  0  0
  182.7570  178.0100  137.8880 C   0  0  0  0  0  0  0  0  0  0  0  0
  180.7130  178.6960  139.1330 C   0  0  0  0  0  0  0  0  0  0  0  0
  180.0930  179.7200  139.5220 O   0  0  0  0  0  1  0  0  0  0  0  0
  180.0510  177.4740  139.0750 O   0  0  0  0  0  0  0  0  0  0  0  0
  192.0510  173.3450  134.9390 O   0  0  0  0  0  1  0  0  0  0  0  0
  191.8950  174.5990  134.3460 C   0  0  2  0  0  3  0  0  0  0  0  0
  193.1210  175.4490  134.6370 C   0  0  0  0  0  2  0  0  0  0  0  0
  194.2590  174.5630  135.1140 C   0  0  0  0  0  2  0  0  0  0  0  0
  197.4800  175.0350  136.5470 C   0  0  1  0  0  3  0  0  0  0  0  0
  195.3370  174.2770  137.3230 C   0  0  0  0  0  0  0  0  0  0  0  0
  196.3520  175.6720  135.8010 C   0  0  0  0  0  0  0  0  0  0  0  0
  196.5270  176.4980  134.9180 O   0  0  0  0  0  0  0  0  0  0  0  0
  195.0000  175.2520  136.2490 C   0  0  1  0  0  3  0  0  0  0  0  0
  194.4850  173.7330  138.0100 O   0  0  0  0  0  0  0  0  0  0  0  0
  196.8060  174.0570  137.5290 C   0  0  1  0  0  3  0  0  0  0  0  0
  198.3430  174.3920  135.6540 O   0  0  0  0  0  1  0  0  0  0  0  0
  197.1700  172.5950  137.2810 C   0  0  0  0  0  2  0  0  0  0  0  0
  196.2110  171.9940  136.4660 O   0  0  0  0  0  1  0  0  0  0  0  0
  191.2400  175.3550  137.2560 C   0  0  0  0  0  2  0  0  0  0  0  0
  192.0670  176.2150  138.1910 C   0  0  0  0  0  2  0  0  0  0  0  0
  191.3340  176.3990  139.5100 C   0  0  0  0  0  2  0  0  0  0  0  0
  193.3840  177.2850  140.3810 O   0  0  0  0  0  1  0  0  0  0  0  0
  191.9990  177.4650  140.3740 C   0  0  2  0  0  3  0  0  0  0  0  0
  191.4510  177.4290  141.7940 C   0  0  0  0  0  2  0  0  0  0  0  0
  190.3430  176.3920  141.9130 C   0  0  0  0  0  2  0  0  0  0  0  0
  188.5790  177.1860  143.3570 C   0  0  0  0  0  0  0  0  0  0  0  0
  189.6760  176.5260  143.1890 N   0  0  0  0  0  0  0  0  0  0  0  0
  187.9780  177.2550  144.7160 C   0  0  0  0  0  1  0  0  0  0  0  0
  187.8960  177.9040  142.2320 C   0  0  0  0  0  1  0  0  0  0  0  0
  1  9  1  0  0  0  0
  2  5  1  0  0  0  0
  3 28  1  1  0  0  0
  3  6  1  0  0  0  0
  3 11  1  0  0  0  0
  5  4  2  0  0  0  0
  6  9  1  0  0  0  0
  7 12  1  0  0  0  0
  7  2  2  0  0  0  0
  8 10  1  1  0  0  0
  9  7  1  0  0  0  0
 11  8  1  0  0  0  0
 11 41  1  0  0  0  0
 12 14  2  0  0  0  0
 13  1  1  6  0  0  0
 13  8  1  0  0  0  0
 13 10  1  0  0  0  0
 14 16  1  0  0  0  0
 14  4  1  0  0  0  0
 15 21  1  0  0  0  0
 16 19  1  0  0  0  0
 17 20  1  0  0  0  0
 18 23  1  0  0  0  0
 19 18  2  0  0  0  0
 19 15  1  0  0  0  0
 21 17  2  0  0  0  0
 22 24  1  0  0  0  0
 22 20  1  0  0  0  0
 23 21  1  0  0  0  0
 23 22  2  0  0  0  0
 24 25  1  0  0  0  0
 26 24  2  0  0  0  0
 28 29  1  0  0  0  0
 28 27  1  1  0  0  0
 29 30  1  0  0  0  0
 31 38  1  6  0  0  0
 31 37  1  0  0  0  0
 32 37  1  0  0  0  0
 32 36  2  0  0  0  0
 33 35  1  0  0  0  0
 33 31  1  0  0  0  0
 34 33  2  0  0  0  0
 35 30  1  6  0  0  0
 35 32  1  0  0  0  0
 37 39  1  6  0  0  0
 40 39  1  0  0  0  0
 41 42  1  0  0  0  0
 42 43  1  0  0  0  0
 43 45  1  0  0  0  0
 45 44  1  1  0  0  0
 45 46  1  0  0  0  0
 46 47  1  0  0  0  0
 47 49  1  0  0  0  0
 48 50  1  0  0  0  0
 49 48  2  0  0  0  0
 51 48  1  0  0  0  0
M  END
>  <MODEL>
7

>  <REMARK>
 VINA RESULT:      -5.7      2.109      3.169
  Name = 
  14 active torsions:
  status: ('A' for Active; 'I' for Inactive)
    1  A    between atoms: C_3  and  C_33
    2  A    between atoms: C_3  and  C_47
    3  A    between atoms: C_6  and  C_44
    4  A    between atoms: C_7  and  C_40
    5  A    between atoms: C_12  and  C_44
    6  A    between atoms: C_12  and  C_46
    7  A    between atoms: N_14  and  C_51
    8  A    between atoms: N_18  and  C_33
    9  A    between atoms: C_19  and  C_36
   10  A    between atoms: C_30  and  C_46
   11  A    between atoms: N_37  and  C_39
   12  A    between atoms: C_39  and  C_45
   13  A    between atoms: C_45  and  C_49
   14  A    between atoms: C_47  and  C_49
                            x       y       z     vdW  Elec       q    Type
                         _______ _______ _______ _____ _____    ______ ____

>  <TORSDO>
F 14

$$$$
=
 OpenBabel10232408533D

 51 56  0  0  1  0  0  0  0  0999 V2000
  189.3270  178.7760  139.7240 C   0  0  0  0  0  2  0  0  0  0  0  0
  185.9560  178.1400  141.3380 C   0  0  0  0  0  3  0  0  0  0  0  0
  187.8860  178.1760  137.5200 C   0  0  1  0  0  3  0  0  0  0  0  0
  186.2770  178.0410  143.7290 C   0  0  0  0  0  3  0  0  0  0  0  0
  185.4280  178.0160  142.6230 C   0  0  0  0  0  3  0  0  0  0  0  0
  187.0720  178.3310  138.7280 N   0  0  0  0  0  2  0  0  0  0  0  0
  187.3390  178.2950  141.1700 C   0  0  0  0  0  0  0  0  0  0  0  0
  189.7910  176.6310  138.1770 C   0  0  1  0  0  3  0  0  0  0  0  0
  187.9050  178.4420  139.8590 N   0  0  0  0  0  0  0  0  0  0  0  0
  189.6010  176.2390  139.6450 C   0  0  0  0  0  2  0  0  0  0  0  0
  188.5010  176.8390  137.4730 N   0  0  0  0  0  0  0  0  0  0  0  0
  188.1450  178.3100  142.2690 N   0  0  0  0  0  0  0  0  0  0  0  0
  190.2150  177.5860  139.3190 C   0  0  2  0  0  3  0  0  0  0  0  0
  187.6530  178.1810  143.5320 C   0  0  0  0  0  0  0  0  0  0  0  0
  190.1730  176.3750  143.8900 C   0  0  0  0  0  2  0  0  0  0  0  0
  188.5240  178.2110  144.6680 N   0  0  0  0  0  2  0  0  0  0  0  0
  191.9810  174.7030  144.4770 C   0  0  0  0  0  3  0  0  0  0  0  0
  190.5170  177.6250  145.8380 N   0  0  0  0  0  0  0  0  0  0  0  0
  189.7460  177.4760  144.7980 C   0  0  0  0  0  0  0  0  0  0  0  0
  192.5340  174.6670  145.7010 C   0  0  0  0  0  2  0  0  0  0  0  0
  191.3340  176.0030  144.3980 C   0  0  0  0  0  0  0  0  0  0  0  0
  192.2150  175.9190  146.4290 C   0  0  0  0  0  0  0  0  0  0  0  0
  191.5570  176.6980  145.5910 C   0  0  0  0  0  0  0  0  0  0  0  0
  192.3710  176.1330  147.8750 C   0  0  0  0  0  0  0  0  0  0  0  0
  192.9730  175.2780  148.5770 O   0  0  0  0  0  1  0  0  0  0  0  0
  191.8630  177.2800  148.4770 O   0  0  0  0  0  0  0  0  0  0  0  0
  186.7550  179.7910  136.1560 O   0  0  0  0  0  1  0  0  0  0  0  0
  187.0380  178.4290  136.2730 C   0  0  2  0  0  3  0  0  0  0  0  0
  185.7370  177.6490  136.3360 C   0  0  0  0  0  2  0  0  0  0  0  0
  185.0970  177.8260  137.7020 C   0  0  0  0  0  2  0  0  0  0  0  0
  182.2250  178.9100  139.4990 C   0  0  1  0  0  3  0  0  0  0  0  0
  182.6440  177.5260  137.5800 C   0  0  0  0  0  0  0  0  0  0  0  0
  183.4520  179.3310  138.7560 C   0  0  0  0  0  0  0  0  0  0  0  0
  184.1330  180.2870  139.0940 O   0  0  0  0  0  0  0  0  0  0  0  0
  183.7530  178.5200  137.5500 C   0  0  1  0  0  3  0  0  0  0  0  0
  182.4810  176.6930  136.7020 O   0  0  0  0  0  0  0  0  0  0  0  0
  181.7120  177.6660  138.7470 C   0  0  1  0  0  3  0  0  0  0  0  0
  182.5420  178.6400  140.8340 O   0  0  0  0  0  1  0  0  0  0  0  0
  181.7170  176.3950  139.5940 C   0  0  0  0  0  2  0  0  0  0  0  0
  180.4150  175.9230  139.7570 O   0  0  0  0  0  1  0  0  0  0  0  0
  187.5470  175.7450  137.6880 C   0  0  0  0  0  2  0  0  0  0  0  0
  187.8150  174.6420  136.6840 C   0  0  0  0  0  2  0  0  0  0  0  0
  186.9210  173.4470  136.9760 C   0  0  0  0  0  2  0  0  0  0  0  0
  184.8620  172.9400  138.0940 O   0  0  0  0  0  1  0  0  0  0  0  0
  185.4910  173.8820  137.2780 C   0  0  2  0  0  3  0  0  0  0  0  0
  184.7040  174.0800  135.9900 C   0  0  0  0  0  2  0  0  0  0  0  0
  184.7570  172.8250  135.1310 C   0  0  0  0  0  2  0  0  0  0  0  0
  182.9180  171.2710  135.2940 C   0  0  0  0  0  0  0  0  0  0  0  0
  183.4170  172.3700  134.8360 N   0  0  0  0  0  0  0  0  0  0  0  0
  181.5250  170.9020  134.9260 C   0  0  0  0  0  1  0  0  0  0  0  0
  183.7000  170.3400  136.1710 C   0  0  0  0  0  1  0  0  0  0  0  0
  1  9  1  0  0  0  0
  2  5  1  0  0  0  0
  3 28  1  6  0  0  0
  3  6  1  0  0  0  0
  5  4  2  0  0  0  0
  6  9  1  0  0  0  0
  7  2  2  0  0  0  0
  7 12  1  0  0  0  0
  8 13  1  0  0  0  0
  8 10  1  1  0  0  0
  9  7  1  0  0  0  0
 11  3  1  0  0  0  0
 11 41  1  0  0  0  0
 11  8  1  0  0  0  0
 12 14  2  0  0  0  0
 13 10  1  1  0  0  0
 13  1  1  0  0  0  0
 14  4  1  0  0  0  0
 14 16  1  0  0  0  0
 15 21  1  0  0  0  0
 15 19  1  0  0  0  0
 16 19  1  0  0  0  0
 17 20  1  0  0  0  0
 19 18  2  0  0  0  0
 20 22  1  0  0  0  0
 21 17  2  0  0  0  0
 21 23  1  0  0  0  0
 22 24  1  0  0  0  0
 23 18  1  0  0  0  0
 23 22  2  0  0  0  0
 24 26  2  0  0  0  0
 24 25  1  0  0  0  0
 28 27  1  1  0  0  0
 28 29  1  0  0  0  0
 29 30  1  0  0  0  0
 31 38  1  1  0  0  0
 32 37  1  0  0  0  0
 33 34  2  0  0  0  0
 33 31  1  0  0  0  0
 35 32  1  0  0  0  0
 35 30  1  1  0  0  0
 35 33  1  0  0  0  0
 36 32  2  0  0  0  0
 37 31  1  0  0  0  0
 37 39  1  1  0  0  0
 39 40  1  0  0  0  0
 42 43  1  0  0  0  0
 42 41  1  0  0  0  0
 43 45  1  0  0  0  0
 45 44  1  1  0  0  0
 46 45  1  0  0  0  0
 47 46  1  0  0  0  0
 48 51  1  0  0  0  0
 49 47  1  0  0  0  0
 49 48  2  0  0  0  0
 50 48  1  0  0  0  0
M  END
>  <MODEL>
8

>  <REMARK>
 VINA RESULT:      -5.5      4.464     11.020
  Name = 
  14 active torsions:
  status: ('A' for Active; 'I' for Inactive)
    1  A    between atoms: C_3  and  C_33
    2  A    between atoms: C_3  and  C_47
    3  A    between atoms: C_6  and  C_44
    4  A    between atoms: C_7  and  C_40
    5  A    between atoms: C_12  and  C_44
    6  A    between atoms: C_12  and  C_46
    7  A    between atoms: N_14  and  C_51
    8  A    between atoms: N_18  and  C_33
    9  A    between atoms: C_19  and  C_36
   10  A    between atoms: C_30  and  C_46
   11  A    between atoms: N_37  and  C_39
   12  A    between atoms: C_39  and  C_45
   13  A    between atoms: C_45  and  C_49
   14  A    between atoms: C_47  and  C_49
                            x       y       z     vdW  Elec       q    Type
                         _______ _______ _______ _____ _____    ______ ____

>  <TORSDO>
F 14

$$$$
=
 OpenBabel10232408533D

 51 56  0  0  1  0  0  0  0  0999 V2000
  190.7350  176.4280  137.5270 C   0  0  0  0  0  2  0  0  0  0  0  0
  188.6680  177.6770  134.6060 C   0  0  0  0  0  3  0  0  0  0  0  0
  192.0330  175.1940  135.5060 C   0  0  1  0  0  3  0  0  0  0  0  0
  186.6930  178.7500  135.4900 C   0  0  0  0  0  3  0  0  0  0  0  0
  187.4850  178.3890  134.4000 C   0  0  0  0  0  3  0  0  0  0  0  0
  191.0380  176.1700  135.0540 N   0  0  0  0  0  2  0  0  0  0  0  0
  189.0520  177.3350  135.9100 C   0  0  0  0  0  0  0  0  0  0  0  0
  190.8450  173.7610  137.2320 C   0  0  1  0  0  3  0  0  0  0  0  0
  190.2720  176.6180  136.1480 N   0  0  0  0  0  0  0  0  0  0  0  0
  189.4010  174.2580  137.3510 C   0  0  0  0  0  2  0  0  0  0  0  0
  191.3890  173.9180  135.8600 N   0  0  0  0  0  0  0  0  0  0  0  0
  188.2550  177.6970  136.9540 N   0  0  0  0  0  0  0  0  0  0  0  0
  190.4980  175.0100  138.0780 C   0  0  2  0  0  3  0  0  0  0  0  0
  187.0920  178.3830  136.7770 C   0  0  0  0  0  0  0  0  0  0  0  0
  187.8950  177.9930  139.7680 C   0  0  0  0  0  2  0  0  0  0  0  0
  186.2800  178.7580  137.8950 N   0  0  0  0  0  2  0  0  0  0  0  0
  188.2500  177.3640  142.1940 C   0  0  0  0  0  3  0  0  0  0  0  0
  185.9020  179.1310  140.2190 N   0  0  0  0  0  0  0  0  0  0  0  0
  186.6790  178.6940  139.2700 C   0  0  0  0  0  0  0  0  0  0  0  0
  187.2790  177.5220  143.1090 C   0  0  0  0  0  2  0  0  0  0  0  0
  187.8430  178.1940  141.0720 C   0  0  0  0  0  0  0  0  0  0  0  0
  186.2270  178.4190  142.5720 C   0  0  0  0  0  0  0  0  0  0  0  0
  186.6410  178.8360  141.3890 C   0  0  0  0  0  0  0  0  0  0  0  0
  184.8800  178.5920  143.1310 C   0  0  0  0  0  0  0  0  0  0  0  0
  183.8990  178.0020  142.6060 O   0  0  0  0  0  0  0  0  0  0  0  0
  184.6760  179.4010  144.2450 O   0  0  0  0  0  1  0  0  0  0  0  0
  193.4350  173.6320  134.3470 O   0  0  0  0  0  1  0  0  0  0  0  0
  193.0980  174.9850  134.4280 C   0  0  2  0  0  3  0  0  0  0  0  0
  194.3450  175.7950  134.7360 C   0  0  0  0  0  2  0  0  0  0  0  0
  195.5190  174.8630  134.9770 C   0  0  0  0  0  2  0  0  0  0  0  0
  197.8320  173.5840  137.3580 C   0  0  1  0  0  3  0  0  0  0  0  0
  195.4620  173.9700  137.2830 C   0  0  0  0  0  0  0  0  0  0  0  0
  197.4750  174.7370  136.4740 C   0  0  0  0  0  0  0  0  0  0  0  0
  198.3130  175.4030  135.8870 O   0  0  0  0  0  0  0  0  0  0  0  0
  196.0210  175.0310  136.4020 C   0  0  1  0  0  3  0  0  0  0  0  0
  194.2730  173.8960  137.5530 O   0  0  0  0  0  0  0  0  0  0  0  0
  196.4820  173.0320  137.8570 C   0  0  1  0  0  3  0  0  0  0  0  0
  198.5680  172.6380  136.6370 O   0  0  0  0  0  1  0  0  0  0  0  0
  196.2070  171.5980  137.4100 C   0  0  0  0  0  2  0  0  0  0  0  0
  195.7160  170.8490  138.4790 O   0  0  0  0  0  1  0  0  0  0  0  0
  190.4860  173.4070  134.8230 C   0  0  0  0  0  2  0  0  0  0  0  0
  189.9820  172.0370  135.2290 C   0  0  0  0  0  2  0  0  0  0  0  0
  188.5860  171.8120  134.6690 C   0  0  0  0  0  2  0  0  0  0  0  0
  188.2000  169.9440  136.1210 O   0  0  0  0  0  1  0  0  0  0  0  0
  187.6690  171.1650  135.7010 C   0  0  2  0  0  3  0  0  0  0  0  0
  186.2700  170.9700  135.1330 C   0  0  0  0  0  2  0  0  0  0  0  0
  185.6860  172.3000  134.6790 C   0  0  0  0  0  2  0  0  0  0  0  0
  184.8290  173.7690  136.3900 C   0  0  0  0  0  0  0  0  0  0  0  0
  184.6810  172.7460  135.6170 N   0  0  0  0  0  0  0  0  0  0  0  0
  183.7250  174.1400  137.3170 C   0  0  0  0  0  1  0  0  0  0  0  0
  186.0830  174.5910  136.4020 C   0  0  0  0  0  1  0  0  0  0  0  0
  1 13  1  0  0  0  0
  2  7  2  0  0  0  0
  3 28  1  6  0  0  0
  3 11  1  0  0  0  0
  4 14  1  0  0  0  0
  5  2  1  0  0  0  0
  5  4  2  0  0  0  0
  6  3  1  0  0  0  0
  6  9  1  0  0  0  0
  7  9  1  0  0  0  0
  7 12  1  0  0  0  0
  8 10  1  6  0  0  0
  8 13  1  0  0  0  0
  9  1  1  0  0  0  0
 11  8  1  0  0  0  0
 13 10  1  6  0  0  0
 14 12  2  0  0  0  0
 14 16  1  0  0  0  0
 15 21  1  0  0  0  0
 16 19  1  0  0  0  0
 17 20  1  0  0  0  0
 18 23  1  0  0  0  0
 19 15  1  0  0  0  0
 19 18  2  0  0  0  0
 21 23  1  0  0  0  0
 21 17  2  0  0  0  0
 22 20  1  0  0  0  0
 22 24  1  0  0  0  0
 23 22  2  0  0  0  0
 24 26  1  0  0  0  0
 25 24  2  0  0  0  0
 28 27  1  1  0  0  0
 28 29  1  0  0  0  0
 29 30  1  0  0  0  0
 31 38  1  6  0  0  0
 31 37  1  0  0  0  0
 32 36  2  0  0  0  0
 32 37  1  0  0  0  0
 33 31  1  0  0  0  0
 34 33  2  0  0  0  0
 35 30  1  6  0  0  0
 35 33  1  0  0  0  0
 35 32  1  0  0  0  0
 37 39  1  6  0  0  0
 39 40  1  0  0  0  0
 41 42  1  0  0  0  0
 41 11  1  0  0  0  0
 43 42  1  0  0  0  0
 43 45  1  0  0  0  0
 45 44  1  6  0  0  0
 46 45  1  0  0  0  0
 47 46  1  0  0  0  0
 47 49  1  0  0  0  0
 48 51  1  0  0  0  0
 48 50  1  0  0  0  0
 49 48  2  0  0  0  0
M  END
>  <MODEL>
9

>  <REMARK>
 VINA RESULT:      -5.3      3.268      6.472
  Name = 
  14 active torsions:
  status: ('A' for Active; 'I' for Inactive)
    1  A    between atoms: C_3  and  C_33
    2  A    between atoms: C_3  and  C_47
    3  A    between atoms: C_6  and  C_44
    4  A    between atoms: C_7  and  C_40
    5  A    between atoms: C_12  and  C_44
    6  A    between atoms: C_12  and  C_46
    7  A    between atoms: N_14  and  C_51
    8  A    between atoms: N_18  and  C_33
    9  A    between atoms: C_19  and  C_36
   10  A    between atoms: C_30  and  C_46
   11  A    between atoms: N_37  and  C_39
   12  A    between atoms: C_39  and  C_45
   13  A    between atoms: C_45  and  C_49
   14  A    between atoms: C_47  and  C_49
                            x       y       z     vdW  Elec       q    Type
                         _______ _______ _______ _____ _____    ______ ____

>  <TORSDO>
F 14

$$$$
