=
 OpenBabel10232412363D

 37 39  0  0  1  0  0  0  0  0999 V2000
  190.3920  177.7750  141.1310 C   0  0  2  0  0  3  0  0  0  0  0  0
  188.0120  178.4160  141.3000 C   0  0  0  0  0  1  0  0  0  0  0  0
  190.6580  176.8400  143.3490 C   0  0  2  0  0  3  0  0  0  0  0  0
  191.4160  177.1900  142.0830 C   0  0  0  0  0  2  0  0  0  0  0  0
  189.3000  177.5170  143.2190 C   0  0  1  0  0  3  0  0  0  0  0  0
  189.3070  178.3010  141.9720 N   0  0  0  0  0  0  0  0  0  0  0  0
  191.3570  177.3570  144.4740 O   0  0  0  0  0  0  0  0  0  0  0  0
  192.0780  175.4240  145.5130 O   0  0  0  0  0  0  0  0  0  0  0  0
  191.6120  176.5900  145.6160 C   0  0  0  0  0  0  0  0  0  0  0  0
  191.3570  177.1100  146.8870 O   0  0  0  0  0  0  0  0  0  0  0  0
  189.2670  176.2640  147.3360 F   0  0  0  0  0  0  0  0  0  0  0  0
  190.1160  177.8930  148.6390 F   0  0  0  0  0  0  0  0  0  0  0  0
  190.0440  177.4090  147.3470 C   0  0  0  0  0  0  0  0  0  0  0  0
  189.4650  178.3700  146.5360 F   0  0  0  0  0  0  0  0  0  0  0  0
  188.1400  176.5160  143.3740 C   0  0  0  0  0  2  0  0  0  0  0  0
  187.3280  176.7290  144.6460 C   0  0  0  0  0  2  0  0  0  0  0  0
  186.9740  178.1990  144.8080 C   0  0  0  0  0  2  0  0  0  0  0  0
  181.4370  178.6180  140.0570 F   0  0  0  0  0  0  0  0  0  0  0  0
  183.2500  178.4670  141.5980 C   0  0  0  0  0  3  0  0  0  0  0  0
  183.7250  178.5700  142.9060 C   0  0  0  0  0  0  0  0  0  0  0  0
  185.0670  178.3250  143.1970 C   0  0  0  0  0  3  0  0  0  0  0  0
  185.5240  178.4260  144.5140 C   0  0  0  0  0  0  0  0  0  0  0  0
  185.0010  178.8760  146.7270 O   0  0  0  0  0  0  0  0  0  0  0  0
  181.0300  179.0780  142.3610 C   0  0  0  0  0  3  0  0  0  0  0  0
  184.6180  178.7800  145.5310 C   0  0  0  0  0  0  0  0  0  0  0  0
  181.5030  179.1800  143.6730 C   0  0  0  0  0  3  0  0  0  0  0  0
  182.8480  178.9270  143.9510 C   0  0  0  0  0  0  0  0  0  0  0  0
  183.3120  179.0190  145.2260 N   0  0  0  0  0  2  0  0  0  0  0  0
  181.9010  178.7210  141.3250 C   0  0  0  0  0  0  0  0  0  0  0  0
  189.9520  176.6820  140.1520 C   0  0  0  0  0  2  0  0  0  0  0  0
  191.2030  175.3560  138.6140 O   0  0  0  0  0  1  0  0  0  0  0  0
  190.8410  176.6690  138.9210 C   0  0  1  0  0  3  0  0  0  0  0  0
  190.0810  177.2720  137.7540 C   0  0  0  0  0  2  0  0  0  0  0  0
  188.1630  179.2740  137.1270 O   0  0  0  0  0  0  0  0  0  0  0  0
  188.6500  177.1550  137.9800 N   0  0  0  0  0  2  0  0  0  0  0  0
  187.7440  178.2050  137.6450 C   0  0  0  0  0  0  0  0  0  0  0  0
  186.2910  178.0350  137.9100 C   0  0  0  0  0  1  0  0  0  0  0  0
  1 30  1  6  0  0  0
  1  6  1  0  0  0  0
  1  4  1  0  0  0  0
  2  6  1  0  0  0  0
  3  7  1  1  0  0  0
  4  3  1  0  0  0  0
  5  3  1  0  0  0  0
  5 15  1  6  0  0  0
  6  5  1  0  0  0  0
  7  9  1  0  0  0  0
  8  9  2  0  0  0  0
  9 10  1  0  0  0  0
 10 13  1  0  0  0  0
 11 13  1  0  0  0  0
 13 12  1  0  0  0  0
 14 13  1  0  0  0  0
 15 16  1  0  0  0  0
 16 17  1  0  0  0  0
 18 29  1  0  0  0  0
 19 20  1  0  0  0  0
 20 21  1  0  0  0  0
 20 27  2  0  0  0  0
 21 22  2  0  0  0  0
 22 17  1  0  0  0  0
 22 25  1  0  0  0  0
 24 26  2  0  0  0  0
 25 23  2  0  0  0  0
 26 27  1  0  0  0  0
 27 28  1  0  0  0  0
 28 25  1  0  0  0  0
 29 19  2  0  0  0  0
 29 24  1  0  0  0  0
 32 31  1  6  0  0  0
 32 30  1  0  0  0  0
 33 35  1  0  0  0  0
 33 32  1  0  0  0  0
 34 36  2  0  0  0  0
 36 37  1  0  0  0  0
 36 35  1  0  0  0  0
M  END
>  <MODEL>
1

>  <REMARK>
 VINA RESULT:      -9.0      0.000      0.000
  Name = 
  12 active torsions:
  status: ('A' for Active; 'I' for Inactive)
    1  A    between atoms: C_1  and  C_31
    2  A    between atoms: O_4  and  C_7
    3  A    between atoms: O_4  and  C_11
    4  A    between atoms: C_11  and  O_28
    5  A    between atoms: C_13  and  C_17
    6  A    between atoms: C_16  and  C_18
    7  A    between atoms: C_17  and  C_34
    8  A    between atoms: C_18  and  C_34
    9  A    between atoms: N_20  and  C_29
   10  A    between atoms: C_24  and  C_29
   11  A    between atoms: C_24  and  C_31
   12  A    between atoms: C_25  and  O_28
                            x       y       z     vdW  Elec       q    Type
                         _______ _______ _______ _____ _____    ______ ____

>  <TORSDO>
F 12

$$$$
=
 OpenBabel10232412363D

 37 39  0  0  1  0  0  0  0  0999 V2000
  188.7930  177.2790  137.9820 C   0  0  2  0  0  3  0  0  0  0  0  0
  186.8860  178.8090  137.6250 C   0  0  0  0  0  1  0  0  0  0  0  0
  188.8570  177.3630  140.4010 C   0  0  2  0  0  3  0  0  0  0  0  0
  189.5790  176.8080  139.1880 C   0  0  0  0  0  2  0  0  0  0  0  0
  187.8740  178.3930  139.8610 C   0  0  1  0  0  3  0  0  0  0  0  0
  188.0830  178.4930  138.4070 N   0  0  0  0  0  0  0  0  0  0  0  0
  189.7990  177.9900  141.2630 O   0  0  0  0  0  0  0  0  0  0  0  0
  190.1940  176.0990  142.5300 O   0  0  0  0  0  0  0  0  0  0  0  0
  190.5140  177.2820  142.2350 C   0  0  0  0  0  0  0  0  0  0  0  0
  191.5950  177.8760  142.8880 O   0  0  0  0  0  0  0  0  0  0  0  0
  190.2190  179.0670  144.2930 F   0  0  0  0  0  0  0  0  0  0  0  0
  191.6530  177.5580  145.1510 F   0  0  0  0  0  0  0  0  0  0  0  0
  191.4760  178.5040  144.1600 C   0  0  0  0  0  0  0  0  0  0  0  0
  192.4410  179.4860  144.2960 F   0  0  0  0  0  0  0  0  0  0  0  0
  186.4300  178.1010  140.3120 C   0  0  0  0  0  2  0  0  0  0  0  0
  185.9410  179.0410  141.4070 C   0  0  0  0  0  2  0  0  0  0  0  0
  184.9900  178.3140  142.3440 C   0  0  0  0  0  2  0  0  0  0  0  0
  189.9840  176.5120  147.3650 F   0  0  0  0  0  0  0  0  0  0  0  0
  188.3680  177.1030  145.7150 C   0  0  0  0  0  3  0  0  0  0  0  0
  187.1660  177.7290  145.3810 C   0  0  0  0  0  0  0  0  0  0  0  0
  186.7010  177.7230  144.0670 C   0  0  0  0  0  3  0  0  0  0  0  0
  185.4980  178.3600  143.7510 C   0  0  0  0  0  0  0  0  0  0  0  0
  183.6840  179.5840  144.5140 O   0  0  0  0  0  0  0  0  0  0  0  0
  188.0610  177.7550  148.0300 C   0  0  0  0  0  3  0  0  0  0  0  0
  184.7700  178.9990  144.7710 C   0  0  0  0  0  0  0  0  0  0  0  0
  186.8570  178.3850  147.7000 C   0  0  0  0  0  3  0  0  0  0  0  0
  186.4050  178.3750  146.3780 C   0  0  0  0  0  0  0  0  0  0  0  0
  185.2380  178.9900  146.0490 N   0  0  0  0  0  2  0  0  0  0  0  0
  188.8160  177.1160  147.0400 C   0  0  0  0  0  0  0  0  0  0  0  0
  187.8720  176.1430  137.5230 C   0  0  0  0  0  2  0  0  0  0  0  0
  189.0220  176.7230  135.5160 O   0  0  0  0  0  1  0  0  0  0  0  0
  188.0410  175.8770  136.0380 C   0  0  1  0  0  3  0  0  0  0  0  0
  188.4580  174.4320  135.8360 C   0  0  0  0  0  2  0  0  0  0  0  0
  190.5330  173.7620  137.6600 O   0  0  0  0  0  0  0  0  0  0  0  0
  189.8720  174.3650  135.5030 N   0  0  0  0  0  2  0  0  0  0  0  0
  190.8610  174.0260  136.4730 C   0  0  0  0  0  0  0  0  0  0  0  0
  192.2940  173.9860  136.0790 C   0  0  0  0  0  1  0  0  0  0  0  0
  1 30  1  1  0  0  0
  1  6  1  0  0  0  0
  1  4  1  0  0  0  0
  2  6  1  0  0  0  0
  3  7  1  1  0  0  0
  4  3  1  0  0  0  0
  5 15  1  6  0  0  0
  5  3  1  0  0  0  0
  6  5  1  0  0  0  0
  7  9  1  0  0  0  0
  9  8  2  0  0  0  0
  9 10  1  0  0  0  0
 10 13  1  0  0  0  0
 13 11  1  0  0  0  0
 13 14  1  0  0  0  0
 13 12  1  0  0  0  0
 15 16  1  0  0  0  0
 16 17  1  0  0  0  0
 17 22  1  0  0  0  0
 19 29  1  0  0  0  0
 20 19  2  0  0  0  0
 20 27  1  0  0  0  0
 21 20  1  0  0  0  0
 22 21  2  0  0  0  0
 22 25  1  0  0  0  0
 23 25  2  0  0  0  0
 25 28  1  0  0  0  0
 26 24  1  0  0  0  0
 27 26  2  0  0  0  0
 28 27  1  0  0  0  0
 29 18  1  0  0  0  0
 29 24  2  0  0  0  0
 32 31  1  1  0  0  0
 32 30  1  0  0  0  0
 33 32  1  0  0  0  0
 35 33  1  0  0  0  0
 35 36  1  0  0  0  0
 36 34  2  0  0  0  0
 37 36  1  0  0  0  0
M  END
>  <MODEL>
2

>  <REMARK>
 VINA RESULT:      -8.5      2.637      4.867
  Name = 
  12 active torsions:
  status: ('A' for Active; 'I' for Inactive)
    1  A    between atoms: C_1  and  C_31
    2  A    between atoms: O_4  and  C_7
    3  A    between atoms: O_4  and  C_11
    4  A    between atoms: C_11  and  O_28
    5  A    between atoms: C_13  and  C_17
    6  A    between atoms: C_16  and  C_18
    7  A    between atoms: C_17  and  C_34
    8  A    between atoms: C_18  and  C_34
    9  A    between atoms: N_20  and  C_29
   10  A    between atoms: C_24  and  C_29
   11  A    between atoms: C_24  and  C_31
   12  A    between atoms: C_25  and  O_28
                            x       y       z     vdW  Elec       q    Type
                         _______ _______ _______ _____ _____    ______ ____

>  <TORSDO>
F 12

$$$$
=
 OpenBabel10232412363D

 37 39  0  0  1  0  0  0  0  0999 V2000
  184.5950  178.1570  138.0750 C   0  0  2  0  0  3  0  0  0  0  0  0
  182.9610  179.6010  139.2360 C   0  0  0  0  0  1  0  0  0  0  0  0
  186.3490  178.2040  139.7450 C   0  0  2  0  0  3  0  0  0  0  0  0
  186.0140  177.7030  138.3530 C   0  0  0  0  0  2  0  0  0  0  0  0
  185.2490  179.1950  140.1030 C   0  0  1  0  0  3  0  0  0  0  0  0
  184.3680  179.3290  138.9310 N   0  0  0  0  0  0  0  0  0  0  0  0
  187.6090  178.8590  139.7190 O   0  0  0  0  0  0  0  0  0  0  0  0
  189.6740  178.5320  138.7370 O   0  0  0  0  0  0  0  0  0  0  0  0
  188.8150  178.1620  139.5810 C   0  0  0  0  0  0  0  0  0  0  0  0
  189.0830  177.0500  140.3800 O   0  0  0  0  0  0  0  0  0  0  0  0
  191.0660  177.1610  141.5380 F   0  0  0  0  0  0  0  0  0  0  0  0
  189.2830  178.3290  142.2640 F   0  0  0  0  0  0  0  0  0  0  0  0
  189.6880  177.1530  141.6650 C   0  0  0  0  0  0  0  0  0  0  0  0
  189.3020  176.0860  142.4570 F   0  0  0  0  0  0  0  0  0  0  0  0
  184.5520  178.8280  141.4270 C   0  0  0  0  0  2  0  0  0  0  0  0
  185.5190  178.3430  142.5000 C   0  0  0  0  0  2  0  0  0  0  0  0
  184.8230  178.2810  143.8510 C   0  0  0  0  0  2  0  0  0  0  0  0
  191.5450  176.6490  146.2040 F   0  0  0  0  0  0  0  0  0  0  0  0
  189.3600  177.1890  145.4210 C   0  0  0  0  0  3  0  0  0  0  0  0
  188.0570  177.6100  145.6930 C   0  0  0  0  0  0  0  0  0  0  0  0
  187.1240  177.7460  144.6660 C   0  0  0  0  0  3  0  0  0  0  0  0
  185.8260  178.1760  144.9560 C   0  0  0  0  0  0  0  0  0  0  0  0
  184.3170  178.8530  146.5800 O   0  0  0  0  0  0  0  0  0  0  0  0
  189.8970  177.3400  147.7810 C   0  0  0  0  0  3  0  0  0  0  0  0
  185.4790  178.4620  146.2890 C   0  0  0  0  0  0  0  0  0  0  0  0
  188.5930  177.7640  148.0570 C   0  0  0  0  0  3  0  0  0  0  0  0
  187.6700  177.9010  147.0180 C   0  0  0  0  0  0  0  0  0  0  0  0
  186.4020  178.3180  147.2790 N   0  0  0  0  0  2  0  0  0  0  0  0
  190.2800  177.0540  146.4660 C   0  0  0  0  0  0  0  0  0  0  0  0
  183.6440  176.9870  138.3480 C   0  0  0  0  0  2  0  0  0  0  0  0
  183.7020  177.0370  135.9650 O   0  0  0  0  0  1  0  0  0  0  0  0
  183.0430  176.4650  137.0550 C   0  0  1  0  0  3  0  0  0  0  0  0
  183.1980  174.9570  137.0080 C   0  0  0  0  0  2  0  0  0  0  0  0
  184.2170  172.3550  137.5270 O   0  0  0  0  0  0  0  0  0  0  0  0
  184.6070  174.6020  137.0260 N   0  0  0  0  0  2  0  0  0  0  0  0
  185.0480  173.2730  137.3000 C   0  0  0  0  0  0  0  0  0  0  0  0
  186.5040  172.9710  137.3180 C   0  0  0  0  0  1  0  0  0  0  0  0
  1 30  1  1  0  0  0
  1  4  1  0  0  0  0
  1  6  1  0  0  0  0
  3  7  1  6  0  0  0
  3  5  1  0  0  0  0
  4  3  1  0  0  0  0
  5 15  1  1  0  0  0
  6  2  1  0  0  0  0
  6  5  1  0  0  0  0
  8  9  2  0  0  0  0
  9  7  1  0  0  0  0
  9 10  1  0  0  0  0
 10 13  1  0  0  0  0
 11 13  1  0  0  0  0
 13 12  1  0  0  0  0
 13 14  1  0  0  0  0
 15 16  1  0  0  0  0
 16 17  1  0  0  0  0
 17 22  1  0  0  0  0
 18 29  1  0  0  0  0
 19 20  2  0  0  0  0
 19 29  1  0  0  0  0
 20 27  1  0  0  0  0
 21 22  2  0  0  0  0
 21 20  1  0  0  0  0
 22 25  1  0  0  0  0
 24 26  1  0  0  0  0
 25 23  2  0  0  0  0
 25 28  1  0  0  0  0
 27 28  1  0  0  0  0
 27 26  2  0  0  0  0
 29 24  2  0  0  0  0
 32 31  1  6  0  0  0
 32 30  1  0  0  0  0
 33 35  1  0  0  0  0
 33 32  1  0  0  0  0
 35 36  1  0  0  0  0
 36 37  1  0  0  0  0
 36 34  2  0  0  0  0
M  END
>  <MODEL>
3

>  <REMARK>
 VINA RESULT:      -8.4      3.224      6.402
  Name = 
  12 active torsions:
  status: ('A' for Active; 'I' for Inactive)
    1  A    between atoms: C_1  and  C_31
    2  A    between atoms: O_4  and  C_7
    3  A    between atoms: O_4  and  C_11
    4  A    between atoms: C_11  and  O_28
    5  A    between atoms: C_13  and  C_17
    6  A    between atoms: C_16  and  C_18
    7  A    between atoms: C_17  and  C_34
    8  A    between atoms: C_18  and  C_34
    9  A    between atoms: N_20  and  C_29
   10  A    between atoms: C_24  and  C_29
   11  A    between atoms: C_24  and  C_31
   12  A    between atoms: C_25  and  O_28
                            x       y       z     vdW  Elec       q    Type
                         _______ _______ _______ _____ _____    ______ ____

>  <TORSDO>
F 12

$$$$
=
 OpenBabel10232412363D

 37 39  0  0  1  0  0  0  0  0999 V2000
  191.4290  177.2550  142.9200 C   0  0  2  0  0  3  0  0  0  0  0  0
  191.0690  179.5780  143.6770 C   0  0  0  0  0  1  0  0  0  0  0  0
  191.3050  176.1630  145.0780 C   0  0  2  0  0  3  0  0  0  0  0  0
  191.5840  175.9130  143.6070 C   0  0  0  0  0  2  0  0  0  0  0  0
  191.3130  177.6760  145.2490 C   0  0  1  0  0  3  0  0  0  0  0  0
  191.6710  178.2720  143.9520 N   0  0  0  0  0  0  0  0  0  0  0  0
  192.3380  175.5760  145.8580 O   0  0  0  0  0  0  0  0  0  0  0  0
  191.2250  175.2130  147.8500 O   0  0  0  0  0  0  0  0  0  0  0  0
  192.2900  175.5320  147.2560 C   0  0  0  0  0  0  0  0  0  0  0  0
  193.4230  175.8370  148.0110 O   0  0  0  0  0  0  0  0  0  0  0  0
  192.9680  175.4000  150.2210 F   0  0  0  0  0  0  0  0  0  0  0  0
  194.5930  176.8640  149.6850 F   0  0  0  0  0  0  0  0  0  0  0  0
  193.3500  176.3810  149.3240 C   0  0  0  0  0  0  0  0  0  0  0  0
  192.4360  177.4200  149.3560 F   0  0  0  0  0  0  0  0  0  0  0  0
  190.0070  178.1900  145.8840 C   0  0  0  0  0  2  0  0  0  0  0  0
  188.8480  177.2080  145.7530 C   0  0  0  0  0  2  0  0  0  0  0  0
  187.7090  177.6070  146.6780 C   0  0  0  0  0  2  0  0  0  0  0  0
  184.2000  178.1400  140.2910 F   0  0  0  0  0  0  0  0  0  0  0  0
  185.3520  177.9500  142.3690 C   0  0  0  0  0  3  0  0  0  0  0  0
  185.3730  178.1380  143.7520 C   0  0  0  0  0  0  0  0  0  0  0  0
  186.4900  177.7760  144.5030 C   0  0  0  0  0  3  0  0  0  0  0  0
  186.4900  177.9650  145.8880 C   0  0  0  0  0  0  0  0  0  0  0  0
  185.3270  178.7040  147.7510 O   0  0  0  0  0  0  0  0  0  0  0  0
  183.1170  178.8860  142.2780 C   0  0  0  0  0  3  0  0  0  0  0  0
  185.3560  178.5240  146.5050 C   0  0  0  0  0  0  0  0  0  0  0  0
  183.1320  179.0730  143.6640 C   0  0  0  0  0  3  0  0  0  0  0  0
  184.2570  178.7010  144.4050 C   0  0  0  0  0  0  0  0  0  0  0  0
  184.2760  178.8760  145.7540 N   0  0  0  0  0  2  0  0  0  0  0  0
  184.2240  178.3250  141.6320 C   0  0  0  0  0  0  0  0  0  0  0  0
  190.0350  177.3230  142.2870 C   0  0  0  0  0  2  0  0  0  0  0  0
  190.4930  176.1950  140.2370 O   0  0  0  0  0  1  0  0  0  0  0  0
  190.1320  177.4310  140.7760 C   0  0  1  0  0  3  0  0  0  0  0  0
  188.7840  177.8520  140.2210 C   0  0  0  0  0  2  0  0  0  0  0  0
  189.0020  179.5880  137.9800 O   0  0  0  0  0  0  0  0  0  0  0  0
  188.6670  177.4390  138.8320 N   0  0  0  0  0  2  0  0  0  0  0  0
  188.7820  178.3680  137.7550 C   0  0  0  0  0  0  0  0  0  0  0  0
  188.6420  177.8910  136.3550 C   0  0  0  0  0  1  0  0  0  0  0  0
  1 30  1  1  0  0  0
  1  4  1  0  0  0  0
  1  6  1  0  0  0  0
  2  6  1  0  0  0  0
  3  5  1  0  0  0  0
  3  7  1  1  0  0  0
  4  3  1  0  0  0  0
  5 15  1  6  0  0  0
  6  5  1  0  0  0  0
  7  9  1  0  0  0  0
  9  8  2  0  0  0  0
  9 10  1  0  0  0  0
 10 13  1  0  0  0  0
 13 14  1  0  0  0  0
 13 12  1  0  0  0  0
 13 11  1  0  0  0  0
 16 15  1  0  0  0  0
 16 17  1  0  0  0  0
 18 29  1  0  0  0  0
 19 20  1  0  0  0  0
 20 27  2  0  0  0  0
 20 21  1  0  0  0  0
 21 22  2  0  0  0  0
 22 25  1  0  0  0  0
 22 17  1  0  0  0  0
 24 26  2  0  0  0  0
 25 23  2  0  0  0  0
 26 27  1  0  0  0  0
 27 28  1  0  0  0  0
 28 25  1  0  0  0  0
 29 24  1  0  0  0  0
 29 19  2  0  0  0  0
 32 31  1  6  0  0  0
 32 30  1  0  0  0  0
 33 32  1  0  0  0  0
 35 33  1  0  0  0  0
 36 34  2  0  0  0  0
 36 35  1  0  0  0  0
 37 36  1  0  0  0  0
M  END
>  <MODEL>
4

>  <REMARK>
 VINA RESULT:      -8.2      1.958      2.574
  Name = 
  12 active torsions:
  status: ('A' for Active; 'I' for Inactive)
    1  A    between atoms: C_1  and  C_31
    2  A    between atoms: O_4  and  C_7
    3  A    between atoms: O_4  and  C_11
    4  A    between atoms: C_11  and  O_28
    5  A    between atoms: C_13  and  C_17
    6  A    between atoms: C_16  and  C_18
    7  A    between atoms: C_17  and  C_34
    8  A    between atoms: C_18  and  C_34
    9  A    between atoms: N_20  and  C_29
   10  A    between atoms: C_24  and  C_29
   11  A    between atoms: C_24  and  C_31
   12  A    between atoms: C_25  and  O_28
                            x       y       z     vdW  Elec       q    Type
                         _______ _______ _______ _____ _____    ______ ____

>  <TORSDO>
F 12

$$$$
=
 OpenBabel10232412363D

 37 39  0  0  1  0  0  0  0  0999 V2000
  188.4170  177.3770  138.4100 C   0  0  2  0  0  3  0  0  0  0  0  0
  190.4690  176.0460  138.7530 C   0  0  0  0  0  1  0  0  0  0  0  0
  188.2510  178.3380  140.6260 C   0  0  2  0  0  3  0  0  0  0  0  0
  187.5370  178.2400  139.2910 C   0  0  0  0  0  2  0  0  0  0  0  0
  189.3480  177.2830  140.5870 C   0  0  1  0  0  3  0  0  0  0  0  0
  189.2150  176.5440  139.3200 N   0  0  0  0  0  0  0  0  0  0  0  0
  187.3330  178.0520  141.6730 O   0  0  0  0  0  0  0  0  0  0  0  0
  185.7950  179.6640  141.0620 O   0  0  0  0  0  0  0  0  0  0  0  0
  186.0610  178.6320  141.7350 C   0  0  0  0  0  0  0  0  0  0  0  0
  185.0680  178.0710  142.5410 O   0  0  0  0  0  0  0  0  0  0  0  0
  183.8540  178.1540  144.4910 F   0  0  0  0  0  0  0  0  0  0  0  0
  184.8470  180.0200  143.7140 F   0  0  0  0  0  0  0  0  0  0  0  0
  184.1990  178.8560  143.3500 C   0  0  0  0  0  0  0  0  0  0  0  0
  183.0550  179.1790  142.6410 F   0  0  0  0  0  0  0  0  0  0  0  0
  190.7370  177.8860  140.8680 C   0  0  0  0  0  2  0  0  0  0  0  0
  191.3170  177.4580  142.2110 C   0  0  0  0  0  2  0  0  0  0  0  0
  190.4970  176.3240  142.8050 C   0  0  0  0  0  2  0  0  0  0  0  0
  185.1470  178.7170  147.1690 F   0  0  0  0  0  0  0  0  0  0  0  0
  186.8800  177.9270  145.7360 C   0  0  0  0  0  3  0  0  0  0  0  0
  188.2000  177.5040  145.5680 C   0  0  0  0  0  0  0  0  0  0  0  0
  188.6710  177.1220  144.3130 C   0  0  0  0  0  3  0  0  0  0  0  0
  189.9930  176.6950  144.1640 C   0  0  0  0  0  0  0  0  0  0  0  0
  192.0300  176.2790  145.1880 O   0  0  0  0  0  0  0  0  0  0  0  0
  187.2960  178.2710  148.1000 C   0  0  0  0  0  3  0  0  0  0  0  0
  190.8350  176.6610  145.2920 C   0  0  0  0  0  0  0  0  0  0  0  0
  188.6180  177.8460  147.9360 C   0  0  0  0  0  3  0  0  0  0  0  0
  189.0750  177.4620  146.6740 C   0  0  0  0  0  0  0  0  0  0  0  0
  190.3580  177.0430  146.5090 N   0  0  0  0  0  2  0  0  0  0  0  0
  186.4280  178.3110  147.0030 C   0  0  0  0  0  0  0  0  0  0  0  0
  189.2490  178.2910  137.5040 C   0  0  0  0  0  2  0  0  0  0  0  0
  189.6450  176.9240  135.5910 O   0  0  0  0  0  1  0  0  0  0  0  0
  188.9320  178.0370  136.0410 C   0  0  1  0  0  3  0  0  0  0  0  0
  187.4440  177.7810  135.8930 C   0  0  0  0  0  2  0  0  0  0  0  0
  185.8150  175.6250  136.7750 O   0  0  0  0  0  0  0  0  0  0  0  0
  187.2240  176.5470  135.1570 N   0  0  0  0  0  2  0  0  0  0  0  0
  186.3960  175.5020  135.6650 C   0  0  0  0  0  0  0  0  0  0  0  0
  186.2170  174.2560  134.8740 C   0  0  0  0  0  1  0  0  0  0  0  0
  1 30  1  1  0  0  0
  1  4  1  0  0  0  0
  1  6  1  0  0  0  0
  2  6  1  0  0  0  0
  3  7  1  1  0  0  0
  4  3  1  0  0  0  0
  5  3  1  0  0  0  0
  5 15  1  6  0  0  0
  6  5  1  0  0  0  0
  7  9  1  0  0  0  0
  8  9  2  0  0  0  0
  9 10  1  0  0  0  0
 10 13  1  0  0  0  0
 13 12  1  0  0  0  0
 13 11  1  0  0  0  0
 14 13  1  0  0  0  0
 15 16  1  0  0  0  0
 16 17  1  0  0  0  0
 17 22  1  0  0  0  0
 19 29  1  0  0  0  0
 20 19  2  0  0  0  0
 20 27  1  0  0  0  0
 21 20  1  0  0  0  0
 22 21  2  0  0  0  0
 22 25  1  0  0  0  0
 23 25  2  0  0  0  0
 25 28  1  0  0  0  0
 26 24  1  0  0  0  0
 27 26  2  0  0  0  0
 28 27  1  0  0  0  0
 29 18  1  0  0  0  0
 29 24  2  0  0  0  0
 32 31  1  1  0  0  0
 32 30  1  0  0  0  0
 33 32  1  0  0  0  0
 35 36  1  0  0  0  0
 35 33  1  0  0  0  0
 36 34  2  0  0  0  0
 37 36  1  0  0  0  0
M  END
>  <MODEL>
5

>  <REMARK>
 VINA RESULT:      -7.9      2.797      5.787
  Name = 
  12 active torsions:
  status: ('A' for Active; 'I' for Inactive)
    1  A    between atoms: C_1  and  C_31
    2  A    between atoms: O_4  and  C_7
    3  A    between atoms: O_4  and  C_11
    4  A    between atoms: C_11  and  O_28
    5  A    between atoms: C_13  and  C_17
    6  A    between atoms: C_16  and  C_18
    7  A    between atoms: C_17  and  C_34
    8  A    between atoms: C_18  and  C_34
    9  A    between atoms: N_20  and  C_29
   10  A    between atoms: C_24  and  C_29
   11  A    between atoms: C_24  and  C_31
   12  A    between atoms: C_25  and  O_28
                            x       y       z     vdW  Elec       q    Type
                         _______ _______ _______ _____ _____    ______ ____

>  <TORSDO>
F 12

$$$$
=
 OpenBabel10232412363D

 37 39  0  0  1  0  0  0  0  0999 V2000
  190.0480  177.7940  140.9990 C   0  0  2  0  0  3  0  0  0  0  0  0
  187.5880  178.0140  141.0320 C   0  0  0  0  0  1  0  0  0  0  0  0
  190.3830  177.2780  143.3410 C   0  0  2  0  0  3  0  0  0  0  0  0
  191.1190  177.5580  142.0450 C   0  0  0  0  0  2  0  0  0  0  0  0
  188.9340  177.6710  143.0870 C   0  0  1  0  0  3  0  0  0  0  0  0
  188.8550  178.2400  141.7310 N   0  0  0  0  0  0  0  0  0  0  0  0
  190.9340  178.0790  144.3770 O   0  0  0  0  0  0  0  0  0  0  0  0
  189.7670  177.8820  146.3610 O   0  0  0  0  0  0  0  0  0  0  0  0
  190.8450  177.7250  145.7280 C   0  0  0  0  0  0  0  0  0  0  0  0
  191.9500  177.1890  146.3910 O   0  0  0  0  0  0  0  0  0  0  0  0
  192.9890  175.7100  147.8130 F   0  0  0  0  0  0  0  0  0  0  0  0
  190.7710  175.5450  147.4550 F   0  0  0  0  0  0  0  0  0  0  0  0
  191.9850  175.8490  146.8700 C   0  0  0  0  0  0  0  0  0  0  0  0
  192.2120  174.9760  145.8200 F   0  0  0  0  0  0  0  0  0  0  0  0
  187.9620  176.5140  143.3850 C   0  0  0  0  0  2  0  0  0  0  0  0
  187.1330  176.7350  144.6450 C   0  0  0  0  0  2  0  0  0  0  0  0
  186.7810  178.2060  144.7960 C   0  0  0  0  0  2  0  0  0  0  0  0
  181.2550  178.6820  140.0380 F   0  0  0  0  0  0  0  0  0  0  0  0
  183.0640  178.5120  141.5800 C   0  0  0  0  0  3  0  0  0  0  0  0
  183.5360  178.5960  142.8910 C   0  0  0  0  0  0  0  0  0  0  0  0
  184.8780  178.3510  143.1820 C   0  0  0  0  0  3  0  0  0  0  0  0
  185.3310  178.4330  144.5010 C   0  0  0  0  0  0  0  0  0  0  0  0
  184.8010  178.8460  146.7190 O   0  0  0  0  0  0  0  0  0  0  0  0
  180.8410  179.1030  142.3470 C   0  0  0  0  0  3  0  0  0  0  0  0
  184.4210  178.7670  145.5210 C   0  0  0  0  0  0  0  0  0  0  0  0
  181.3100  179.1860  143.6620 C   0  0  0  0  0  3  0  0  0  0  0  0
  182.6550  178.9330  143.9400 C   0  0  0  0  0  0  0  0  0  0  0  0
  183.1160  179.0070  145.2170 N   0  0  0  0  0  2  0  0  0  0  0  0
  181.7160  178.7660  141.3080 C   0  0  0  0  0  0  0  0  0  0  0  0
  189.8480  176.5010  140.2010 C   0  0  0  0  0  2  0  0  0  0  0  0
  190.0310  178.1450  138.4850 O   0  0  0  0  0  1  0  0  0  0  0  0
  189.8810  176.7750  138.7080 C   0  0  1  0  0  3  0  0  0  0  0  0
  191.0500  176.0290  138.0920 C   0  0  0  0  0  2  0  0  0  0  0  0
  189.9550  175.3390  135.5620 O   0  0  0  0  0  0  0  0  0  0  0  0
  190.6350  174.6930  137.7000 N   0  0  0  0  0  2  0  0  0  0  0  0
  190.0860  174.4190  136.4120 C   0  0  0  0  0  0  0  0  0  0  0  0
  189.6670  173.0350  136.0710 C   0  0  0  0  0  1  0  0  0  0  0  0
  1 30  1  1  0  0  0
  1  6  1  0  0  0  0
  1  4  1  0  0  0  0
  2  6  1  0  0  0  0
  3  7  1  1  0  0  0
  4  3  1  0  0  0  0
  5  3  1  0  0  0  0
  5 15  1  6  0  0  0
  6  5  1  0  0  0  0
  7  9  1  0  0  0  0
  9  8  2  0  0  0  0
  9 10  1  0  0  0  0
 10 13  1  0  0  0  0
 13 12  1  0  0  0  0
 13 11  1  0  0  0  0
 14 13  1  0  0  0  0
 15 16  1  0  0  0  0
 16 17  1  0  0  0  0
 18 29  1  0  0  0  0
 19 20  1  0  0  0  0
 20 21  1  0  0  0  0
 20 27  2  0  0  0  0
 21 22  2  0  0  0  0
 22 17  1  0  0  0  0
 22 25  1  0  0  0  0
 24 26  2  0  0  0  0
 25 23  2  0  0  0  0
 26 27  1  0  0  0  0
 27 28  1  0  0  0  0
 28 25  1  0  0  0  0
 29 19  2  0  0  0  0
 29 24  1  0  0  0  0
 32 31  1  1  0  0  0
 32 30  1  0  0  0  0
 33 32  1  0  0  0  0
 34 36  2  0  0  0  0
 35 33  1  0  0  0  0
 36 35  1  0  0  0  0
 37 36  1  0  0  0  0
M  END
>  <MODEL>
6

>  <REMARK>
 VINA RESULT:      -7.8      1.649      2.145
  Name = 
  12 active torsions:
  status: ('A' for Active; 'I' for Inactive)
    1  A    between atoms: C_1  and  C_31
    2  A    between atoms: O_4  and  C_7
    3  A    between atoms: O_4  and  C_11
    4  A    between atoms: C_11  and  O_28
    5  A    between atoms: C_13  and  C_17
    6  A    between atoms: C_16  and  C_18
    7  A    between atoms: C_17  and  C_34
    8  A    between atoms: C_18  and  C_34
    9  A    between atoms: N_20  and  C_29
   10  A    between atoms: C_24  and  C_29
   11  A    between atoms: C_24  and  C_31
   12  A    between atoms: C_25  and  O_28
                            x       y       z     vdW  Elec       q    Type
                         _______ _______ _______ _____ _____    ______ ____

>  <TORSDO>
F 12

$$$$
=
 OpenBabel10232412363D

 37 39  0  0  1  0  0  0  0  0999 V2000
  190.4790  176.7440  137.7330 C   0  0  2  0  0  3  0  0  0  0  0  0
  188.5840  178.2460  137.2250 C   0  0  0  0  0  1  0  0  0  0  0  0
  190.5670  177.0940  140.1280 C   0  0  2  0  0  3  0  0  0  0  0  0
  191.2720  176.4000  138.9780 C   0  0  0  0  0  2  0  0  0  0  0  0
  189.5890  178.0680  139.4860 C   0  0  1  0  0  3  0  0  0  0  0  0
  189.7850  178.0060  138.0280 N   0  0  0  0  0  0  0  0  0  0  0  0
  191.5230  177.8010  140.9070 O   0  0  0  0  0  0  0  0  0  0  0  0
  191.1350  178.5640  143.0520 O   0  0  0  0  0  0  0  0  0  0  0  0
  191.6020  177.6700  142.2980 C   0  0  0  0  0  0  0  0  0  0  0  0
  192.1970  176.5430  142.8680 O   0  0  0  0  0  0  0  0  0  0  0  0
  191.6910  176.5460  145.1100 F   0  0  0  0  0  0  0  0  0  0  0  0
  190.2720  175.5890  143.6470 F   0  0  0  0  0  0  0  0  0  0  0  0
  191.6030  175.8170  143.9380 C   0  0  0  0  0  0  0  0  0  0  0  0
  192.2450  174.6010  144.0990 F   0  0  0  0  0  0  0  0  0  0  0  0
  188.1470  177.8440  139.9770 C   0  0  0  0  0  2  0  0  0  0  0  0
  187.8900  178.4120  141.3680 C   0  0  0  0  0  2  0  0  0  0  0  0
  186.7030  177.7170  142.0140 C   0  0  0  0  0  2  0  0  0  0  0  0
  190.2360  177.6230  148.4090 F   0  0  0  0  0  0  0  0  0  0  0  0
  189.0990  177.6610  146.3150 C   0  0  0  0  0  3  0  0  0  0  0  0
  187.9210  177.8580  145.5910 C   0  0  0  0  0  0  0  0  0  0  0  0
  187.9040  177.7090  144.2050 C   0  0  0  0  0  3  0  0  0  0  0  0
  186.7170  177.9170  143.4970 C   0  0  0  0  0  0  0  0  0  0  0  0
  184.4680  178.4690  143.5860 O   0  0  0  0  0  0  0  0  0  0  0  0
  187.9140  178.1570  148.3720 C   0  0  0  0  0  3  0  0  0  0  0  0
  185.5510  178.2730  144.1990 C   0  0  0  0  0  0  0  0  0  0  0  0
  186.7320  178.3580  147.6500 C   0  0  0  0  0  3  0  0  0  0  0  0
  186.7310  178.2100  146.2610 C   0  0  0  0  0  0  0  0  0  0  0  0
  185.5870  178.4090  145.5530 N   0  0  0  0  0  2  0  0  0  0  0  0
  189.0950  177.8100  147.7060 C   0  0  0  0  0  0  0  0  0  0  0  0
  189.5430  175.5750  137.4090 C   0  0  0  0  0  2  0  0  0  0  0  0
  188.8720  175.0610  135.1800 O   0  0  0  0  0  1  0  0  0  0  0  0
  189.9230  174.9280  136.0890 C   0  0  1  0  0  3  0  0  0  0  0  0
  191.1600  175.6120  135.5390 C   0  0  0  0  0  2  0  0  0  0  0  0
  193.8490  176.2640  136.1900 O   0  0  0  0  0  0  0  0  0  0  0  0
  192.2740  174.6780  135.5130 N   0  0  0  0  0  2  0  0  0  0  0  0
  193.6020  175.0780  135.8480 C   0  0  0  0  0  0  0  0  0  0  0  0
  194.7050  174.0830  135.7920 C   0  0  0  0  0  1  0  0  0  0  0  0
  1 30  1  1  0  0  0
  1  6  1  0  0  0  0
  1  4  1  0  0  0  0
  2  6  1  0  0  0  0
  3  7  1  1  0  0  0
  4  3  1  0  0  0  0
  5 15  1  6  0  0  0
  5  3  1  0  0  0  0
  6  5  1  0  0  0  0
  7  9  1  0  0  0  0
  9 10  1  0  0  0  0
  9  8  2  0  0  0  0
 10 13  1  0  0  0  0
 12 13  1  0  0  0  0
 13 14  1  0  0  0  0
 13 11  1  0  0  0  0
 15 16  1  0  0  0  0
 16 17  1  0  0  0  0
 17 22  1  0  0  0  0
 19 29  1  0  0  0  0
 20 27  1  0  0  0  0
 20 19  2  0  0  0  0
 21 20  1  0  0  0  0
 22 25  1  0  0  0  0
 22 21  2  0  0  0  0
 23 25  2  0  0  0  0
 25 28  1  0  0  0  0
 26 24  1  0  0  0  0
 27 26  2  0  0  0  0
 28 27  1  0  0  0  0
 29 24  2  0  0  0  0
 29 18  1  0  0  0  0
 32 31  1  6  0  0  0
 32 30  1  0  0  0  0
 33 32  1  0  0  0  0
 35 33  1  0  0  0  0
 35 36  1  0  0  0  0
 36 34  2  0  0  0  0
 37 36  1  0  0  0  0
M  END
>  <MODEL>
7

>  <REMARK>
 VINA RESULT:      -7.8      2.952      5.244
  Name = 
  12 active torsions:
  status: ('A' for Active; 'I' for Inactive)
    1  A    between atoms: C_1  and  C_31
    2  A    between atoms: O_4  and  C_7
    3  A    between atoms: O_4  and  C_11
    4  A    between atoms: C_11  and  O_28
    5  A    between atoms: C_13  and  C_17
    6  A    between atoms: C_16  and  C_18
    7  A    between atoms: C_17  and  C_34
    8  A    between atoms: C_18  and  C_34
    9  A    between atoms: N_20  and  C_29
   10  A    between atoms: C_24  and  C_29
   11  A    between atoms: C_24  and  C_31
   12  A    between atoms: C_25  and  O_28
                            x       y       z     vdW  Elec       q    Type
                         _______ _______ _______ _____ _____    ______ ____

>  <TORSDO>
F 12

$$$$
=
 OpenBabel10232412363D

 37 39  0  0  1  0  0  0  0  0999 V2000
  187.8540  176.7920  136.5030 C   0  0  2  0  0  3  0  0  0  0  0  0
  189.5950  176.0500  138.0900 C   0  0  0  0  0  1  0  0  0  0  0  0
  186.5570  178.1610  138.0230 C   0  0  2  0  0  3  0  0  0  0  0  0
  186.5860  177.6160  136.6070 C   0  0  0  0  0  2  0  0  0  0  0  0
  187.6250  177.3880  138.7850 C   0  0  1  0  0  3  0  0  0  0  0  0
  188.1840  176.3760  137.8730 N   0  0  0  0  0  0  0  0  0  0  0  0
  185.2770  177.9200  138.5930 O   0  0  0  0  0  0  0  0  0  0  0  0
  184.5380  180.0500  139.0950 O   0  0  0  0  0  0  0  0  0  0  0  0
  184.6460  178.8420  139.4360 C   0  0  0  0  0  0  0  0  0  0  0  0
  184.1230  178.4330  140.6640 O   0  0  0  0  0  0  0  0  0  0  0  0
  185.7670  179.6550  141.7070 F   0  0  0  0  0  0  0  0  0  0  0  0
  183.7960  179.3240  142.7430 F   0  0  0  0  0  0  0  0  0  0  0  0
  184.7360  178.7540  141.9070 C   0  0  0  0  0  0  0  0  0  0  0  0
  185.2320  177.6070  142.5010 F   0  0  0  0  0  0  0  0  0  0  0  0
  188.6480  178.3250  139.4530 C   0  0  0  0  0  2  0  0  0  0  0  0
  188.5450  178.3420  140.9730 C   0  0  0  0  0  2  0  0  0  0  0  0
  189.5150  177.3410  141.5800 C   0  0  0  0  0  2  0  0  0  0  0  0
  185.5060  178.4030  147.5970 F   0  0  0  0  0  0  0  0  0  0  0  0
  186.7990  178.0500  145.6260 C   0  0  0  0  0  3  0  0  0  0  0  0
  188.0060  177.6750  145.0320 C   0  0  0  0  0  0  0  0  0  0  0  0
  188.1490  177.6800  143.6450 C   0  0  0  0  0  3  0  0  0  0  0  0
  189.3620  177.2950  143.0690 C   0  0  0  0  0  0  0  0  0  0  0  0
  191.5320  176.5560  143.4100 O   0  0  0  0  0  0  0  0  0  0  0  0
  187.7610  177.6620  147.8180 C   0  0  0  0  0  3  0  0  0  0  0  0
  190.4280  176.9100  143.9030 C   0  0  0  0  0  0  0  0  0  0  0  0
  188.9710  177.2840  147.2270 C   0  0  0  0  0  3  0  0  0  0  0  0
  189.0980  177.2880  145.8360 C   0  0  0  0  0  0  0  0  0  0  0  0
  190.2700  176.9170  145.2550 N   0  0  0  0  0  2  0  0  0  0  0  0
  186.6770  178.0440  147.0190 C   0  0  0  0  0  0  0  0  0  0  0  0
  188.9350  177.6420  135.8270 C   0  0  0  0  0  2  0  0  0  0  0  0
  190.7190  177.0770  134.3490 O   0  0  0  0  0  1  0  0  0  0  0  0
  189.3300  177.0490  134.4860 C   0  0  1  0  0  3  0  0  0  0  0  0
  188.8400  175.6150  134.4140 C   0  0  0  0  0  2  0  0  0  0  0  0
  189.0740  173.3160  136.0680 O   0  0  0  0  0  0  0  0  0  0  0  0
  189.9720  174.7030  134.4190 N   0  0  0  0  0  2  0  0  0  0  0  0
  190.0250  173.5690  135.2830 C   0  0  0  0  0  0  0  0  0  0  0  0
  191.2140  172.6780  135.2540 C   0  0  0  0  0  1  0  0  0  0  0  0
  1 30  1  1  0  0  0
  1  4  1  0  0  0  0
  1  6  1  0  0  0  0
  3  7  1  1  0  0  0
  3  5  1  0  0  0  0
  4  3  1  0  0  0  0
  5 15  1  6  0  0  0
  6  2  1  0  0  0  0
  6  5  1  0  0  0  0
  7  9  1  0  0  0  0
  8  9  2  0  0  0  0
  9 10  1  0  0  0  0
 10 13  1  0  0  0  0
 11 13  1  0  0  0  0
 13 14  1  0  0  0  0
 13 12  1  0  0  0  0
 15 16  1  0  0  0  0
 16 17  1  0  0  0  0
 17 22  1  0  0  0  0
 19 29  1  0  0  0  0
 20 19  2  0  0  0  0
 20 27  1  0  0  0  0
 21 20  1  0  0  0  0
 22 21  2  0  0  0  0
 22 25  1  0  0  0  0
 23 25  2  0  0  0  0
 25 28  1  0  0  0  0
 26 24  1  0  0  0  0
 27 26  2  0  0  0  0
 28 27  1  0  0  0  0
 29 18  1  0  0  0  0
 29 24  2  0  0  0  0
 32 31  1  1  0  0  0
 32 30  1  0  0  0  0
 33 35  1  0  0  0  0
 33 32  1  0  0  0  0
 35 36  1  0  0  0  0
 36 34  2  0  0  0  0
 37 36  1  0  0  0  0
M  END
>  <MODEL>
8

>  <REMARK>
 VINA RESULT:      -7.7      2.967      6.646
  Name = 
  12 active torsions:
  status: ('A' for Active; 'I' for Inactive)
    1  A    between atoms: C_1  and  C_31
    2  A    between atoms: O_4  and  C_7
    3  A    between atoms: O_4  and  C_11
    4  A    between atoms: C_11  and  O_28
    5  A    between atoms: C_13  and  C_17
    6  A    between atoms: C_16  and  C_18
    7  A    between atoms: C_17  and  C_34
    8  A    between atoms: C_18  and  C_34
    9  A    between atoms: N_20  and  C_29
   10  A    between atoms: C_24  and  C_29
   11  A    between atoms: C_24  and  C_31
   12  A    between atoms: C_25  and  O_28
                            x       y       z     vdW  Elec       q    Type
                         _______ _______ _______ _____ _____    ______ ____

>  <TORSDO>
F 12

$$$$
=
 OpenBabel10232412363D

 37 39  0  0  1  0  0  0  0  0999 V2000
  189.9760  177.4730  138.7790 C   0  0  2  0  0  3  0  0  0  0  0  0
  187.8160  178.4760  138.1200 C   0  0  0  0  0  1  0  0  0  0  0  0
  189.7690  177.7470  141.1760 C   0  0  2  0  0  3  0  0  0  0  0  0
  190.7210  177.2920  140.0860 C   0  0  0  0  0  2  0  0  0  0  0  0
  188.6370  178.4700  140.4610 C   0  0  1  0  0  3  0  0  0  0  0  0
  188.9660  178.5120  139.0260 N   0  0  0  0  0  0  0  0  0  0  0  0
  190.4470  178.6400  142.0490 O   0  0  0  0  0  0  0  0  0  0  0  0
  191.2810  179.1570  144.1400 O   0  0  0  0  0  0  0  0  0  0  0  0
  190.7530  178.3080  143.3740 C   0  0  0  0  0  0  0  0  0  0  0  0
  190.4710  177.0320  143.8650 O   0  0  0  0  0  0  0  0  0  0  0  0
  190.7040  174.8690  143.1240 F   0  0  0  0  0  0  0  0  0  0  0  0
  192.4170  176.3150  142.9060 F   0  0  0  0  0  0  0  0  0  0  0  0
  191.3630  175.9340  143.7130 C   0  0  0  0  0  0  0  0  0  0  0  0
  191.8550  175.5490  144.9470 F   0  0  0  0  0  0  0  0  0  0  0  0
  187.2600  177.8770  140.8150 C   0  0  0  0  0  2  0  0  0  0  0  0
  186.3890  178.8260  141.6300 C   0  0  0  0  0  2  0  0  0  0  0  0
  185.4530  178.0400  142.5350 C   0  0  0  0  0  2  0  0  0  0  0  0
  190.3190  176.9110  147.8690 F   0  0  0  0  0  0  0  0  0  0  0  0
  188.7450  177.2830  146.1170 C   0  0  0  0  0  3  0  0  0  0  0  0
  187.5020  177.7640  145.7020 C   0  0  0  0  0  0  0  0  0  0  0  0
  187.1170  177.6790  144.3650 C   0  0  0  0  0  3  0  0  0  0  0  0
  185.8710  178.1710  143.9660 C   0  0  0  0  0  0  0  0  0  0  0  0
  183.8920  179.1990  144.5960 O   0  0  0  0  0  0  0  0  0  0  0  0
  188.2350  177.9430  148.3940 C   0  0  0  0  0  3  0  0  0  0  0  0
  185.0190  178.7450  144.9270 C   0  0  0  0  0  0  0  0  0  0  0  0
  186.9900  178.4270  147.9820 C   0  0  0  0  0  3  0  0  0  0  0  0
  186.6190  178.3410  146.6380 C   0  0  0  0  0  0  0  0  0  0  0  0
  185.4110  178.8140  146.2290 N   0  0  0  0  0  2  0  0  0  0  0  0
  189.1120  177.3730  147.4640 C   0  0  0  0  0  0  0  0  0  0  0  0
  189.3940  176.1210  138.3540 C   0  0  0  0  0  2  0  0  0  0  0  0
  190.1050  173.9530  137.6610 O   0  0  0  0  0  1  0  0  0  0  0  0
  190.4170  175.3120  137.5780 C   0  0  1  0  0  3  0  0  0  0  0  0
  190.3970  175.7490  136.1250 C   0  0  0  0  0  2  0  0  0  0  0  0
  189.0180  177.9400  134.9520 O   0  0  0  0  0  0  0  0  0  0  0  0
  189.0390  175.7000  135.6100 N   0  0  0  0  0  2  0  0  0  0  0  0
  188.4060  176.8430  135.0380 C   0  0  0  0  0  0  0  0  0  0  0  0
  187.0100  176.7380  134.5400 C   0  0  0  0  0  1  0  0  0  0  0  0
  1 30  1  1  0  0  0
  1  6  1  0  0  0  0
  1  4  1  0  0  0  0
  2  6  1  0  0  0  0
  3  7  1  1  0  0  0
  4  3  1  0  0  0  0
  5 15  1  6  0  0  0
  5  3  1  0  0  0  0
  6  5  1  0  0  0  0
  7  9  1  0  0  0  0
  9 10  1  0  0  0  0
  9  8  2  0  0  0  0
 11 13  1  0  0  0  0
 12 13  1  0  0  0  0
 13 10  1  0  0  0  0
 13 14  1  0  0  0  0
 15 16  1  0  0  0  0
 16 17  1  0  0  0  0
 17 22  1  0  0  0  0
 19 29  1  0  0  0  0
 20 19  2  0  0  0  0
 20 27  1  0  0  0  0
 21 20  1  0  0  0  0
 22 21  2  0  0  0  0
 22 25  1  0  0  0  0
 23 25  2  0  0  0  0
 25 28  1  0  0  0  0
 26 24  1  0  0  0  0
 27 26  2  0  0  0  0
 28 27  1  0  0  0  0
 29 18  1  0  0  0  0
 29 24  2  0  0  0  0
 32 31  1  6  0  0  0
 32 30  1  0  0  0  0
 33 32  1  0  0  0  0
 34 36  2  0  0  0  0
 35 33  1  0  0  0  0
 36 35  1  0  0  0  0
 37 36  1  0  0  0  0
M  END
>  <MODEL>
9

>  <REMARK>
 VINA RESULT:      -7.6      2.663      4.524
  Name = 
  12 active torsions:
  status: ('A' for Active; 'I' for Inactive)
    1  A    between atoms: C_1  and  C_31
    2  A    between atoms: O_4  and  C_7
    3  A    between atoms: O_4  and  C_11
    4  A    between atoms: C_11  and  O_28
    5  A    between atoms: C_13  and  C_17
    6  A    between atoms: C_16  and  C_18
    7  A    between atoms: C_17  and  C_34
    8  A    between atoms: C_18  and  C_34
    9  A    between atoms: N_20  and  C_29
   10  A    between atoms: C_24  and  C_29
   11  A    between atoms: C_24  and  C_31
   12  A    between atoms: C_25  and  O_28
                            x       y       z     vdW  Elec       q    Type
                         _______ _______ _______ _____ _____    ______ ____

>  <TORSDO>
F 12

$$$$
