=
 OpenBabel10232410253D

 33 34  0  0  1  0  0  0  0  0999 V2000
  190.8910  178.9560  143.8200 O   0  0  0  0  0  0  0  0  0  0  0  0
  191.0530  177.0300  142.5010 N   0  0  0  0  0  2  0  0  0  0  0  0
  190.8010  177.7030  143.7400 C   0  0  0  0  0  0  0  0  0  0  0  0
  191.5220  177.6700  141.2770 C   0  0  1  0  0  3  0  0  0  0  0  0
  188.9690  177.1260  138.7460 O   0  0  0  0  0  0  0  0  0  0  0  0
  192.3660  176.3140  138.3980 C   0  0  1  0  0  3  0  0  0  0  0  0
  190.0850  176.9660  139.3040 C   0  0  0  0  0  0  0  0  0  0  0  0
  192.8060  177.0260  140.7470 C   0  0  0  0  0  2  0  0  0  0  0  0
  190.4520  177.8430  140.3360 O   0  0  0  0  0  0  0  0  0  0  0  0
  193.0380  177.3590  139.2840 C   0  0  0  0  0  2  0  0  0  0  0  0
  190.9680  175.8520  138.8290 C   0  0  0  0  0  2  0  0  0  0  0  0
  192.5580  176.5400  136.8940 C   0  0  0  0  0  2  0  0  0  0  0  0
  193.8440  176.0000  136.2580 C   0  0  1  0  0  3  0  0  0  0  0  0
  194.7520  177.0210  135.9660 O   0  0  0  0  0  1  0  0  0  0  0  0
  194.4900  174.8440  137.0260 C   0  0  2  0  0  3  0  0  0  0  0  0
  195.8110  175.1360  137.3820 O   0  0  0  0  0  1  0  0  0  0  0  0
  194.4120  173.5390  136.2370 C   0  0  2  0  0  3  0  0  0  0  0  0
  194.7900  173.7640  134.9130 O   0  0  0  0  0  1  0  0  0  0  0  0
  193.0200  172.9280  136.2690 C   0  0  0  0  0  1  0  0  0  0  0  0
  190.4470  176.9200  144.9660 C   0  0  2  0  0  3  0  0  0  0  0  0
  186.7830  178.2230  146.8320 C   0  0  0  0  0  0  0  0  0  0  0  0
  187.9320  177.3650  144.8550 C   0  0  0  0  0  0  0  0  0  0  0  0
  185.5590  177.7950  144.8510 F   0  0  0  0  0  0  0  0  0  0  0  0
  189.1600  177.8320  146.9120 C   0  0  0  0  0  3  0  0  0  0  0  0
  187.9870  178.2480  147.5320 C   0  0  0  0  0  3  0  0  0  0  0  0
  189.1540  177.3900  145.5790 C   0  0  0  0  0  0  0  0  0  0  0  0
  185.6450  178.6330  147.4450 F   0  0  0  0  0  0  0  0  0  0  0  0
  186.7490  177.7840  145.5050 C   0  0  0  0  0  0  0  0  0  0  0  0
  187.6430  177.7330  142.5140 O   0  0  0  0  0  0  0  0  0  0  0  0
  187.8700  176.9090  143.4400 C   0  0  0  0  0  0  0  0  0  0  0  0
  188.0750  175.5760  143.1080 O   0  0  0  0  0  1  0  0  0  0  0  0
  192.0560  175.8380  146.3180 O   0  0  0  0  0  0  0  0  0  0  0  0
  191.5610  176.8970  145.9680 C   0  0  0  0  0  3  0  0  0  0  0  0
  2  3  1  0  0  0  0
  3  1  2  0  0  0  0
  3 20  1  0  0  0  0
  4  2  1  1  0  0  0
  5  7  2  0  0  0  0
  6 12  1  6  0  0  0
  6 11  1  0  0  0  0
  6 10  1  0  0  0  0
  7  9  1  0  0  0  0
  8  4  1  0  0  0  0
  9  4  1  0  0  0  0
 10  8  1  0  0  0  0
 11  7  1  0  0  0  0
 13 14  1  1  0  0  0
 13 12  1  0  0  0  0
 13 15  1  0  0  0  0
 15 16  1  6  0  0  0
 17 19  1  6  0  0  0
 17 15  1  0  0  0  0
 18 17  1  0  0  0  0
 20 26  1  0  0  0  0
 20 33  1  1  0  0  0
 21 27  1  0  0  0  0
 21 25  1  0  0  0  0
 22 28  1  0  0  0  0
 22 26  2  0  0  0  0
 23 28  1  0  0  0  0
 24 25  2  0  0  0  0
 26 24  1  0  0  0  0
 28 21  2  0  0  0  0
 29 30  2  0  0  0  0
 30 22  1  0  0  0  0
 31 30  1  0  0  0  0
 33 32  2  0  0  0  0
M  END
>  <MODEL>
1

>  <REMARK>
 VINA RESULT:      -7.8      0.000      0.000
  Name = 
  9 active torsions:
  status: ('A' for Active; 'I' for Inactive)
    1  A    between atoms: C_1  and  N_12
    2  A    between atoms: C_2  and  C_5
    3  A    between atoms: C_2  and  C_8
    4  A    between atoms: C_5  and  C_27
    5  A    between atoms: C_6  and  C_27
    6  A    between atoms: C_9  and  C_24
    7  A    between atoms: C_11  and  C_15
    8  A    between atoms: C_15  and  C_17
    9  A    between atoms: C_15  and  C_26
                            x       y       z     vdW  Elec       q    Type
                         _______ _______ _______ _____ _____    ______ ____

>  <TORSDO>
F 9

$$$$
=
 OpenBabel10232410253D

 33 34  0  0  1  0  0  0  0  0999 V2000
  193.4380  176.8460  138.7690 O   0  0  0  0  0  0  0  0  0  0  0  0
  191.2670  176.0120  139.0250 N   0  0  0  0  0  2  0  0  0  0  0  0
  192.5930  175.9570  138.4870 C   0  0  0  0  0  0  0  0  0  0  0  0
  190.7330  177.1020  139.8330 C   0  0  1  0  0  3  0  0  0  0  0  0
  191.9610  176.6150  143.2210 O   0  0  0  0  0  0  0  0  0  0  0  0
  188.5880  177.0000  142.3300 C   0  0  1  0  0  3  0  0  0  0  0  0
  191.1010  176.6340  142.3030 C   0  0  0  0  0  0  0  0  0  0  0  0
  189.2040  177.0640  139.9150 C   0  0  0  0  0  2  0  0  0  0  0  0
  191.4400  177.2240  141.0760 O   0  0  0  0  0  0  0  0  0  0  0  0
  188.6840  177.8780  141.0850 C   0  0  0  0  0  2  0  0  0  0  0  0
  189.7550  176.0340  142.5740 C   0  0  0  0  0  2  0  0  0  0  0  0
  188.0480  177.7180  143.5720 C   0  0  0  0  0  2  0  0  0  0  0  0
  188.8770  177.6240  144.8580 C   0  0  1  0  0  3  0  0  0  0  0  0
  189.8350  178.6370  144.9370 O   0  0  0  0  0  1  0  0  0  0  0  0
  188.0450  177.5030  146.1370 C   0  0  2  0  0  3  0  0  0  0  0  0
  186.9450  178.3670  146.1200 O   0  0  0  0  0  1  0  0  0  0  0  0
  188.9000  177.7310  147.3810 C   0  0  2  0  0  3  0  0  0  0  0  0
  189.7510  176.6420  147.5760 O   0  0  0  0  0  1  0  0  0  0  0  0
  188.0580  177.9440  148.6290 C   0  0  0  0  0  1  0  0  0  0  0  0
  192.9860  174.8460  137.5620 C   0  0  2  0  0  3  0  0  0  0  0  0
  196.6950  175.6300  135.5050 C   0  0  0  0  0  0  0  0  0  0  0  0
  195.5230  174.5930  137.3800 C   0  0  0  0  0  0  0  0  0  0  0  0
  197.9110  174.3900  137.1140 F   0  0  0  0  0  0  0  0  0  0  0  0
  194.3070  175.8910  135.7090 C   0  0  0  0  0  3  0  0  0  0  0  0
  195.4930  176.1470  135.0280 C   0  0  0  0  0  3  0  0  0  0  0  0
  194.3020  175.1200  136.8830 C   0  0  0  0  0  0  0  0  0  0  0  0
  197.8460  175.8880  134.8360 F   0  0  0  0  0  0  0  0  0  0  0  0
  196.7170  174.8570  136.6700 C   0  0  0  0  0  0  0  0  0  0  0  0
  195.9000  174.2980  139.7190 O   0  0  0  0  0  1  0  0  0  0  0  0
  195.5740  173.7730  138.6210 C   0  0  0  0  0  0  0  0  0  0  0  0
  195.2490  172.4220  138.6000 O   0  0  0  0  0  0  0  0  0  0  0  0
  191.4880  173.3800  136.4700 O   0  0  0  0  0  0  0  0  0  0  0  0
  191.9070  174.5210  136.5740 C   0  0  0  0  0  3  0  0  0  0  0  0
  3  1  2  0  0  0  0
  3  2  1  0  0  0  0
  4  2  1  1  0  0  0
  4  8  1  0  0  0  0
  4  9  1  0  0  0  0
  6 11  1  0  0  0  0
  6 12  1  1  0  0  0
  7 11  1  0  0  0  0
  7  5  2  0  0  0  0
  8 10  1  0  0  0  0
  9  7  1  0  0  0  0
 10  6  1  0  0  0  0
 12 13  1  0  0  0  0
 13 14  1  1  0  0  0
 13 15  1  0  0  0  0
 15 16  1  6  0  0  0
 15 17  1  0  0  0  0
 17 18  1  0  0  0  0
 17 19  1  1  0  0  0
 20 33  1  6  0  0  0
 20  3  1  0  0  0  0
 21 28  1  0  0  0  0
 22 30  1  0  0  0  0
 24 26  2  0  0  0  0
 25 21  2  0  0  0  0
 25 24  1  0  0  0  0
 26 22  1  0  0  0  0
 26 20  1  0  0  0  0
 27 21  1  0  0  0  0
 28 23  1  0  0  0  0
 28 22  2  0  0  0  0
 30 29  1  0  0  0  0
 31 30  2  0  0  0  0
 32 33  2  0  0  0  0
M  END
>  <MODEL>
2

>  <REMARK>
 VINA RESULT:      -7.7      4.405     10.203
  Name = 
  9 active torsions:
  status: ('A' for Active; 'I' for Inactive)
    1  A    between atoms: C_1  and  N_12
    2  A    between atoms: C_2  and  C_5
    3  A    between atoms: C_2  and  C_8
    4  A    between atoms: C_5  and  C_27
    5  A    between atoms: C_6  and  C_27
    6  A    between atoms: C_9  and  C_24
    7  A    between atoms: C_11  and  C_15
    8  A    between atoms: C_15  and  C_17
    9  A    between atoms: C_15  and  C_26
                            x       y       z     vdW  Elec       q    Type
                         _______ _______ _______ _____ _____    ______ ____

>  <TORSDO>
F 9

$$$$
=
 OpenBabel10232410253D

 33 34  0  0  1  0  0  0  0  0999 V2000
  184.4490  179.9780  139.5180 O   0  0  0  0  0  0  0  0  0  0  0  0
  184.1910  178.3060  141.1350 N   0  0  0  0  0  2  0  0  0  0  0  0
  183.9470  178.8700  139.8410 C   0  0  0  0  0  0  0  0  0  0  0  0
  184.9210  178.9630  142.2130 C   0  0  1  0  0  3  0  0  0  0  0  0
  188.4440  178.2020  141.7310 O   0  0  0  0  0  0  0  0  0  0  0  0
  186.6400  177.6350  144.6880 C   0  0  1  0  0  3  0  0  0  0  0  0
  187.3200  178.1310  142.2920 C   0  0  0  0  0  0  0  0  0  0  0  0
  184.5400  178.4080  143.5890 C   0  0  0  0  0  2  0  0  0  0  0  0
  186.3230  179.0450  141.9190 O   0  0  0  0  0  0  0  0  0  0  0  0
  185.5870  178.7380  144.6380 C   0  0  0  0  0  2  0  0  0  0  0  0
  187.1100  177.0780  143.3380 C   0  0  0  0  0  2  0  0  0  0  0  0
  187.7380  177.8550  145.7360 C   0  0  0  0  0  2  0  0  0  0  0  0
  189.1710  177.4770  145.3450 C   0  0  1  0  0  3  0  0  0  0  0  0
  189.8840  178.5720  144.8490 O   0  0  0  0  0  1  0  0  0  0  0  0
  189.9410  176.7200  146.4300 C   0  0  2  0  0  3  0  0  0  0  0  0
  189.7150  177.2660  147.6980 O   0  0  0  0  0  1  0  0  0  0  0  0
  191.4350  176.6650  146.1170 C   0  0  2  0  0  3  0  0  0  0  0  0
  191.6320  176.1100  144.8520 O   0  0  0  0  0  1  0  0  0  0  0  0
  192.2110  175.8620  147.1490 C   0  0  0  0  0  1  0  0  0  0  0  0
  183.0720  178.1540  138.8590 C   0  0  2  0  0  3  0  0  0  0  0  0
  185.2030  174.9850  136.8540 C   0  0  0  0  0  0  0  0  0  0  0  0
  183.1930  175.7450  138.0130 C   0  0  0  0  0  0  0  0  0  0  0  0
  183.3880  173.4960  137.1620 F   0  0  0  0  0  0  0  0  0  0  0  0
  185.0900  177.2440  137.6880 C   0  0  0  0  0  3  0  0  0  0  0  0
  185.7890  176.2360  137.0310 C   0  0  0  0  0  3  0  0  0  0  0  0
  183.7970  177.0180  138.1860 C   0  0  0  0  0  0  0  0  0  0  0  0
  185.8940  174.0080  136.2160 F   0  0  0  0  0  0  0  0  0  0  0  0
  183.9150  174.7350  137.3360 C   0  0  0  0  0  0  0  0  0  0  0  0
  180.8610  175.3170  137.7240 O   0  0  0  0  0  0  0  0  0  0  0  0
  181.8250  175.4510  138.5240 C   0  0  0  0  0  0  0  0  0  0  0  0
  181.5860  175.3040  139.8840 O   0  0  0  0  0  1  0  0  0  0  0  0
  181.4390  178.7690  137.2650 O   0  0  0  0  0  0  0  0  0  0  0  0
  182.4540  179.0870  137.8630 C   0  0  0  0  0  3  0  0  0  0  0  0
  1  3  2  0  0  0  0
  3  2  1  0  0  0  0
  4  2  1  6  0  0  0
  4  8  1  0  0  0  0
  5  7  2  0  0  0  0
  6 12  1  6  0  0  0
  7 11  1  0  0  0  0
  8 10  1  0  0  0  0
  9  4  1  0  0  0  0
  9  7  1  0  0  0  0
 10  6  1  0  0  0  0
 11  6  1  0  0  0  0
 13 14  1  1  0  0  0
 13 12  1  0  0  0  0
 13 15  1  0  0  0  0
 15 16  1  1  0  0  0
 17 15  1  0  0  0  0
 17 19  1  1  0  0  0
 18 17  1  0  0  0  0
 20 33  1  6  0  0  0
 20  3  1  0  0  0  0
 21 25  2  0  0  0  0
 21 28  1  0  0  0  0
 22 26  1  0  0  0  0
 22 30  1  0  0  0  0
 23 28  1  0  0  0  0
 24 26  2  0  0  0  0
 25 24  1  0  0  0  0
 26 20  1  0  0  0  0
 27 21  1  0  0  0  0
 28 22  2  0  0  0  0
 29 30  2  0  0  0  0
 30 31  1  0  0  0  0
 32 33  2  0  0  0  0
M  END
>  <MODEL>
3

>  <REMARK>
 VINA RESULT:      -7.7      5.757      9.411
  Name = 
  9 active torsions:
  status: ('A' for Active; 'I' for Inactive)
    1  A    between atoms: C_1  and  N_12
    2  A    between atoms: C_2  and  C_5
    3  A    between atoms: C_2  and  C_8
    4  A    between atoms: C_5  and  C_27
    5  A    between atoms: C_6  and  C_27
    6  A    between atoms: C_9  and  C_24
    7  A    between atoms: C_11  and  C_15
    8  A    between atoms: C_15  and  C_17
    9  A    between atoms: C_15  and  C_26
                            x       y       z     vdW  Elec       q    Type
                         _______ _______ _______ _____ _____    ______ ____

>  <TORSDO>
F 9

$$$$
=
 OpenBabel10232410253D

 33 34  0  0  1  0  0  0  0  0999 V2000
  184.6300  179.6220  139.7550 O   0  0  0  0  0  0  0  0  0  0  0  0
  184.0840  178.2470  141.5690 N   0  0  0  0  0  2  0  0  0  0  0  0
  183.9500  178.6620  140.2040 C   0  0  0  0  0  0  0  0  0  0  0  0
  184.9000  178.9180  142.5750 C   0  0  1  0  0  3  0  0  0  0  0  0
  188.3380  177.8660  142.0310 O   0  0  0  0  0  0  0  0  0  0  0  0
  186.6110  177.6330  145.0780 C   0  0  1  0  0  3  0  0  0  0  0  0
  187.2340  177.9170  142.6320 C   0  0  0  0  0  0  0  0  0  0  0  0
  184.5320  178.4850  143.9960 C   0  0  0  0  0  2  0  0  0  0  0  0
  186.2930  178.8750  142.2300 O   0  0  0  0  0  0  0  0  0  0  0  0
  185.6380  178.8060  144.9860 C   0  0  0  0  0  2  0  0  0  0  0  0
  186.9880  176.9540  143.7540 C   0  0  0  0  0  2  0  0  0  0  0  0
  187.7600  177.8400  146.0710 C   0  0  0  0  0  2  0  0  0  0  0  0
  189.1650  177.4230  145.6210 C   0  0  1  0  0  3  0  0  0  0  0  0
  189.8330  178.4600  144.9650 O   0  0  0  0  0  1  0  0  0  0  0  0
  190.0150  176.7820  146.7210 C   0  0  2  0  0  3  0  0  0  0  0  0
  189.9120  177.4850  147.9270 O   0  0  0  0  0  1  0  0  0  0  0  0
  191.4740  176.6470  146.2900 C   0  0  2  0  0  3  0  0  0  0  0  0
  191.5410  176.0270  145.0420 O   0  0  0  0  0  1  0  0  0  0  0  0
  192.3010  175.8580  147.2930 C   0  0  0  0  0  1  0  0  0  0  0  0
  182.9810  177.9690  139.2970 C   0  0  2  0  0  3  0  0  0  0  0  0
  180.7780  180.7910  136.8920 C   0  0  0  0  0  0  0  0  0  0  0  0
  181.9790  178.6700  137.0530 C   0  0  0  0  0  0  0  0  0  0  0  0
  180.9830  179.4040  134.9830 F   0  0  0  0  0  0  0  0  0  0  0  0
  181.7580  180.1330  138.9930 C   0  0  0  0  0  3  0  0  0  0  0  0
  181.0390  181.0510  138.2340 C   0  0  0  0  0  3  0  0  0  0  0  0
  182.2370  178.9430  138.4220 C   0  0  0  0  0  0  0  0  0  0  0  0
  180.0790  181.6930  136.1600 F   0  0  0  0  0  0  0  0  0  0  0  0
  181.2390  179.6110  136.3000 C   0  0  0  0  0  0  0  0  0  0  0  0
  181.7080  176.4250  136.2870 O   0  0  0  0  0  1  0  0  0  0  0  0
  182.4650  177.4260  136.3970 C   0  0  0  0  0  0  0  0  0  0  0  0
  183.7530  177.3450  135.8810 O   0  0  0  0  0  0  0  0  0  0  0  0
  181.7380  175.9800  139.5870 O   0  0  0  0  0  0  0  0  0  0  0  0
  182.0470  177.0670  140.0460 C   0  0  0  0  0  3  0  0  0  0  0  0
  1  3  2  0  0  0  0
  3  2  1  0  0  0  0
  4  2  1  6  0  0  0
  4  8  1  0  0  0  0
  5  7  2  0  0  0  0
  6 12  1  6  0  0  0
  7 11  1  0  0  0  0
  8 10  1  0  0  0  0
  9  4  1  0  0  0  0
  9  7  1  0  0  0  0
 10  6  1  0  0  0  0
 11  6  1  0  0  0  0
 13 14  1  1  0  0  0
 13 12  1  0  0  0  0
 13 15  1  0  0  0  0
 15 16  1  1  0  0  0
 17 15  1  0  0  0  0
 17 19  1  1  0  0  0
 18 17  1  0  0  0  0
 20 33  1  1  0  0  0
 20  3  1  0  0  0  0
 21 25  1  0  0  0  0
 22 26  2  0  0  0  0
 23 28  1  0  0  0  0
 25 24  2  0  0  0  0
 26 24  1  0  0  0  0
 26 20  1  0  0  0  0
 27 21  1  0  0  0  0
 28 21  2  0  0  0  0
 28 22  1  0  0  0  0
 29 30  1  0  0  0  0
 30 22  1  0  0  0  0
 31 30  2  0  0  0  0
 32 33  2  0  0  0  0
M  END
>  <MODEL>
4

>  <REMARK>
 VINA RESULT:      -7.5      6.291      9.745
  Name = 
  9 active torsions:
  status: ('A' for Active; 'I' for Inactive)
    1  A    between atoms: C_1  and  N_12
    2  A    between atoms: C_2  and  C_5
    3  A    between atoms: C_2  and  C_8
    4  A    between atoms: C_5  and  C_27
    5  A    between atoms: C_6  and  C_27
    6  A    between atoms: C_9  and  C_24
    7  A    between atoms: C_11  and  C_15
    8  A    between atoms: C_15  and  C_17
    9  A    between atoms: C_15  and  C_26
                            x       y       z     vdW  Elec       q    Type
                         _______ _______ _______ _____ _____    ______ ____

>  <TORSDO>
F 9

$$$$
=
 OpenBabel10232410253D

 33 34  0  0  1  0  0  0  0  0999 V2000
  189.5290  175.4230  142.8220 O   0  0  0  0  0  0  0  0  0  0  0  0
  189.6490  177.5140  141.7770 N   0  0  0  0  0  2  0  0  0  0  0  0
  189.8850  176.6290  142.8790 C   0  0  0  0  0  0  0  0  0  0  0  0
  188.9130  177.1700  140.5660 C   0  0  1  0  0  3  0  0  0  0  0  0
  191.2120  175.3730  138.3970 O   0  0  0  0  0  0  0  0  0  0  0  0
  189.3650  178.2120  137.4760 C   0  0  1  0  0  3  0  0  0  0  0  0
  190.5060  176.3460  138.7670 C   0  0  0  0  0  0  0  0  0  0  0  0
  188.4650  178.4130  139.7920 C   0  0  0  0  0  2  0  0  0  0  0  0
  189.5920  176.1530  139.8140 O   0  0  0  0  0  0  0  0  0  0  0  0
  188.1210  178.0830  138.3510 C   0  0  0  0  0  2  0  0  0  0  0  0
  190.6710  177.6570  138.0600 C   0  0  0  0  0  2  0  0  0  0  0  0
  189.1260  177.9230  135.9890 C   0  0  0  0  0  2  0  0  0  0  0  0
  187.7880  177.2860  135.6000 C   0  0  1  0  0  3  0  0  0  0  0  0
  187.0130  178.1390  134.8100 O   0  0  0  0  0  1  0  0  0  0  0  0
  187.9080  175.8820  135.0030 C   0  0  2  0  0  3  0  0  0  0  0  0
  186.7160  175.4790  134.3900 O   0  0  0  0  0  1  0  0  0  0  0  0
  188.3530  174.8670  136.0530 C   0  0  2  0  0  3  0  0  0  0  0  0
  188.7870  173.6980  135.4260 O   0  0  0  0  0  1  0  0  0  0  0  0
  187.2450  174.5320  137.0390 C   0  0  0  0  0  1  0  0  0  0  0  0
  190.5430  177.1350  144.1260 C   0  0  2  0  0  3  0  0  0  0  0  0
  187.6360  177.9070  147.2170 C   0  0  0  0  0  0  0  0  0  0  0  0
  189.8990  177.2290  146.5970 C   0  0  0  0  0  0  0  0  0  0  0  0
  189.2080  177.3660  148.9040 F   0  0  0  0  0  0  0  0  0  0  0  0
  188.2470  177.7800  144.8880 C   0  0  0  0  0  3  0  0  0  0  0  0
  187.2990  178.0420  145.8730 C   0  0  0  0  0  3  0  0  0  0  0  0
  189.5470  177.3730  145.2290 C   0  0  0  0  0  0  0  0  0  0  0  0
  186.7050  178.1610  148.1680 F   0  0  0  0  0  0  0  0  0  0  0  0
  188.9250  177.5060  147.5830 C   0  0  0  0  0  0  0  0  0  0  0  0
  191.8340  177.3470  147.9910 O   0  0  0  0  0  1  0  0  0  0  0  0
  191.2610  176.7970  147.0130 C   0  0  0  0  0  0  0  0  0  0  0  0
  191.9220  175.7720  146.3470 O   0  0  0  0  0  0  0  0  0  0  0  0
  190.9550  179.4620  144.1010 O   0  0  0  0  0  0  0  0  0  0  0  0
  191.3890  178.3460  143.8700 C   0  0  0  0  0  3  0  0  0  0  0  0
  1  3  2  0  0  0  0
  2  3  1  0  0  0  0
  3 20  1  0  0  0  0
  4  2  1  1  0  0  0
  5  7  2  0  0  0  0
  6 12  1  6  0  0  0
  6 11  1  0  0  0  0
  6 10  1  0  0  0  0
  7  9  1  0  0  0  0
  8  4  1  0  0  0  0
  9  4  1  0  0  0  0
 10  8  1  0  0  0  0
 11  7  1  0  0  0  0
 13 14  1  6  0  0  0
 13 12  1  0  0  0  0
 15 16  1  1  0  0  0
 15 13  1  0  0  0  0
 15 17  1  0  0  0  0
 17 19  1  1  0  0  0
 18 17  1  0  0  0  0
 20 33  1  6  0  0  0
 20 26  1  0  0  0  0
 21 28  1  0  0  0  0
 21 27  1  0  0  0  0
 22 30  1  0  0  0  0
 22 28  2  0  0  0  0
 24 26  2  0  0  0  0
 24 25  1  0  0  0  0
 25 21  2  0  0  0  0
 26 22  1  0  0  0  0
 28 23  1  0  0  0  0
 30 29  1  0  0  0  0
 31 30  2  0  0  0  0
 33 32  2  0  0  0  0
M  END
>  <MODEL>
5

>  <REMARK>
 VINA RESULT:      -7.4      2.695      4.453
  Name = 
  9 active torsions:
  status: ('A' for Active; 'I' for Inactive)
    1  A    between atoms: C_1  and  N_12
    2  A    between atoms: C_2  and  C_5
    3  A    between atoms: C_2  and  C_8
    4  A    between atoms: C_5  and  C_27
    5  A    between atoms: C_6  and  C_27
    6  A    between atoms: C_9  and  C_24
    7  A    between atoms: C_11  and  C_15
    8  A    between atoms: C_15  and  C_17
    9  A    between atoms: C_15  and  C_26
                            x       y       z     vdW  Elec       q    Type
                         _______ _______ _______ _____ _____    ______ ____

>  <TORSDO>
F 9

$$$$
=
 OpenBabel10232410253D

 33 34  0  0  1  0  0  0  0  0999 V2000
  191.0650  178.3870  143.1910 O   0  0  0  0  0  0  0  0  0  0  0  0
  190.4820  176.6780  141.7020 N   0  0  0  0  0  2  0  0  0  0  0  0
  190.7310  177.1860  143.0180 C   0  0  0  0  0  0  0  0  0  0  0  0
  190.6780  177.4230  140.4640 C   0  0  1  0  0  3  0  0  0  0  0  0
  187.4000  178.5510  139.3680 O   0  0  0  0  0  0  0  0  0  0  0  0
  189.6630  176.7150  137.4130 C   0  0  1  0  0  3  0  0  0  0  0  0
  188.4480  177.8560  139.3280 C   0  0  0  0  0  0  0  0  0  0  0  0
  191.2320  176.5390  139.3420 C   0  0  0  0  0  2  0  0  0  0  0  0
  189.5280  178.2200  140.1460 O   0  0  0  0  0  0  0  0  0  0  0  0
  191.0090  177.1620  137.9750 C   0  0  0  0  0  2  0  0  0  0  0  0
  188.4890  176.6800  138.4000 C   0  0  0  0  0  2  0  0  0  0  0  0
  189.3440  177.2670  136.0180 C   0  0  0  0  0  2  0  0  0  0  0  0
  188.2980  176.5190  135.1850 C   0  0  1  0  0  3  0  0  0  0  0  0
  188.2680  175.1550  135.4860 O   0  0  0  0  0  1  0  0  0  0  0  0
  186.9050  177.1540  135.2040 C   0  0  2  0  0  3  0  0  0  0  0  0
  186.9250  178.4220  135.7950 O   0  0  0  0  0  1  0  0  0  0  0  0
  185.8890  176.2460  135.8930 C   0  0  2  0  0  3  0  0  0  0  0  0
  185.0450  175.6730  134.9410 O   0  0  0  0  0  1  0  0  0  0  0  0
  185.0570  176.9900  136.9260 C   0  0  0  0  0  1  0  0  0  0  0  0
  190.6160  176.2830  144.2090 C   0  0  2  0  0  3  0  0  0  0  0  0
  188.3810  178.0200  147.4630 C   0  0  0  0  0  0  0  0  0  0  0  0
  188.4480  177.2650  145.1410 C   0  0  0  0  0  0  0  0  0  0  0  0
  186.4420  178.1840  146.1130 F   0  0  0  0  0  0  0  0  0  0  0  0
  190.4290  177.1250  146.5600 C   0  0  0  0  0  3  0  0  0  0  0  0
  189.7210  177.6760  147.6230 C   0  0  0  0  0  3  0  0  0  0  0  0
  189.8130  176.9140  145.3150 C   0  0  0  0  0  0  0  0  0  0  0  0
  187.7010  178.5600  148.5040 F   0  0  0  0  0  0  0  0  0  0  0  0
  187.7430  177.8160  146.2350 C   0  0  0  0  0  0  0  0  0  0  0  0
  187.3700  178.0560  143.1640 O   0  0  0  0  0  0  0  0  0  0  0  0
  187.7480  177.0650  143.8430 C   0  0  0  0  0  0  0  0  0  0  0  0
  187.5130  175.7890  143.3460 O   0  0  0  0  0  1  0  0  0  0  0  0
  192.3530  174.6930  144.4040 O   0  0  0  0  0  0  0  0  0  0  0  0
  191.9530  175.8090  144.6920 C   0  0  0  0  0  3  0  0  0  0  0  0
  2  3  1  0  0  0  0
  3  1  2  0  0  0  0
  3 20  1  0  0  0  0
  4  2  1  1  0  0  0
  6 12  1  6  0  0  0
  6 10  1  0  0  0  0
  6 11  1  0  0  0  0
  7  5  2  0  0  0  0
  7  9  1  0  0  0  0
  8  4  1  0  0  0  0
  9  4  1  0  0  0  0
 10  8  1  0  0  0  0
 11  7  1  0  0  0  0
 13 15  1  0  0  0  0
 13 14  1  1  0  0  0
 13 12  1  0  0  0  0
 15 16  1  1  0  0  0
 15 17  1  0  0  0  0
 17 19  1  1  0  0  0
 18 17  1  0  0  0  0
 20 33  1  1  0  0  0
 20 26  1  0  0  0  0
 21 25  1  0  0  0  0
 21 27  1  0  0  0  0
 22 26  2  0  0  0  0
 22 28  1  0  0  0  0
 23 28  1  0  0  0  0
 24 25  2  0  0  0  0
 26 24  1  0  0  0  0
 28 21  2  0  0  0  0
 29 30  2  0  0  0  0
 30 22  1  0  0  0  0
 31 30  1  0  0  0  0
 32 33  2  0  0  0  0
M  END
>  <MODEL>
6

>  <REMARK>
 VINA RESULT:      -7.4      2.886      4.177
  Name = 
  9 active torsions:
  status: ('A' for Active; 'I' for Inactive)
    1  A    between atoms: C_1  and  N_12
    2  A    between atoms: C_2  and  C_5
    3  A    between atoms: C_2  and  C_8
    4  A    between atoms: C_5  and  C_27
    5  A    between atoms: C_6  and  C_27
    6  A    between atoms: C_9  and  C_24
    7  A    between atoms: C_11  and  C_15
    8  A    between atoms: C_15  and  C_17
    9  A    between atoms: C_15  and  C_26
                            x       y       z     vdW  Elec       q    Type
                         _______ _______ _______ _____ _____    ______ ____

>  <TORSDO>
F 9

$$$$
=
 OpenBabel10232410253D

 33 34  0  0  1  0  0  0  0  0999 V2000
  189.3270  178.8960  137.7940 O   0  0  0  0  0  0  0  0  0  0  0  0
  189.3850  177.0680  139.2550 N   0  0  0  0  0  2  0  0  0  0  0  0
  189.3690  177.6470  137.9440 C   0  0  0  0  0  0  0  0  0  0  0  0
  189.2520  177.8110  140.5020 C   0  0  1  0  0  3  0  0  0  0  0  0
  191.7450  176.4920  142.7980 O   0  0  0  0  0  0  0  0  0  0  0  0
  188.3110  176.7560  143.4760 C   0  0  1  0  0  3  0  0  0  0  0  0
  190.5860  176.6860  142.3480 C   0  0  0  0  0  0  0  0  0  0  0  0
  187.8890  177.5870  141.1640 C   0  0  0  0  0  2  0  0  0  0  0  0
  190.4080  177.6410  141.3370 O   0  0  0  0  0  0  0  0  0  0  0  0
  187.9100  177.9640  142.6350 C   0  0  0  0  0  2  0  0  0  0  0  0
  189.4540  175.8920  142.9280 C   0  0  0  0  0  2  0  0  0  0  0  0
  188.3410  177.0180  144.9870 C   0  0  0  0  0  2  0  0  0  0  0  0
  189.7060  177.2850  145.6300 C   0  0  1  0  0  3  0  0  0  0  0  0
  190.1560  178.5840  145.3820 O   0  0  0  0  0  1  0  0  0  0  0  0
  189.7900  176.9080  147.1110 C   0  0  2  0  0  3  0  0  0  0  0  0
  189.4790  177.9930  147.9370 O   0  0  0  0  0  1  0  0  0  0  0  0
  191.1590  176.3290  147.4620 C   0  0  2  0  0  3  0  0  0  0  0  0
  191.9110  177.2790  148.1530 O   0  0  0  0  0  1  0  0  0  0  0  0
  191.9260  175.8750  146.2290 C   0  0  0  0  0  1  0  0  0  0  0  0
  189.3830  176.7680  136.7310 C   0  0  2  0  0  3  0  0  0  0  0  0
  186.7470  173.3710  137.0580 C   0  0  0  0  0  0  0  0  0  0  0  0
  187.0270  175.7900  136.8820 C   0  0  0  0  0  0  0  0  0  0  0  0
  184.8420  174.7770  137.0080 F   0  0  0  0  0  0  0  0  0  0  0  0
  188.9640  174.3090  136.9510 C   0  0  0  0  0  3  0  0  0  0  0  0
  188.1280  173.2010  137.0490 C   0  0  0  0  0  3  0  0  0  0  0  0
  188.4350  175.6070  136.8690 C   0  0  0  0  0  0  0  0  0  0  0  0
  185.9400  172.2850  137.1570 F   0  0  0  0  0  0  0  0  0  0  0  0
  186.1930  174.6520  136.9740 C   0  0  0  0  0  0  0  0  0  0  0  0
  185.9400  177.6930  137.8300 O   0  0  0  0  0  1  0  0  0  0  0  0
  186.4130  177.1440  136.8000 C   0  0  0  0  0  0  0  0  0  0  0  0
  186.3640  177.8360  135.5960 O   0  0  0  0  0  0  0  0  0  0  0  0
  191.7150  176.6070  137.0850 O   0  0  0  0  0  0  0  0  0  0  0  0
  190.7670  176.3160  136.3730 C   0  0  0  0  0  3  0  0  0  0  0  0
  1  3  2  0  0  0  0
  3  2  1  0  0  0  0
  4  2  1  6  0  0  0
  4  8  1  0  0  0  0
  4  9  1  0  0  0  0
  6 12  1  1  0  0  0
  7  5  2  0  0  0  0
  7 11  1  0  0  0  0
  8 10  1  0  0  0  0
  9  7  1  0  0  0  0
 10  6  1  0  0  0  0
 11  6  1  0  0  0  0
 12 13  1  0  0  0  0
 13 14  1  1  0  0  0
 13 15  1  0  0  0  0
 15 17  1  0  0  0  0
 15 16  1  1  0  0  0
 17 19  1  6  0  0  0
 17 18  1  0  0  0  0
 20 33  1  1  0  0  0
 20 26  1  0  0  0  0
 20  3  1  0  0  0  0
 21 27  1  0  0  0  0
 22 28  1  0  0  0  0
 24 25  2  0  0  0  0
 25 21  1  0  0  0  0
 26 22  2  0  0  0  0
 26 24  1  0  0  0  0
 28 23  1  0  0  0  0
 28 21  2  0  0  0  0
 30 22  1  0  0  0  0
 30 29  1  0  0  0  0
 31 30  2  0  0  0  0
 33 32  2  0  0  0  0
M  END
>  <MODEL>
7

>  <REMARK>
 VINA RESULT:      -7.3      3.602      8.684
  Name = 
  9 active torsions:
  status: ('A' for Active; 'I' for Inactive)
    1  A    between atoms: C_1  and  N_12
    2  A    between atoms: C_2  and  C_5
    3  A    between atoms: C_2  and  C_8
    4  A    between atoms: C_5  and  C_27
    5  A    between atoms: C_6  and  C_27
    6  A    between atoms: C_9  and  C_24
    7  A    between atoms: C_11  and  C_15
    8  A    between atoms: C_15  and  C_17
    9  A    between atoms: C_15  and  C_26
                            x       y       z     vdW  Elec       q    Type
                         _______ _______ _______ _____ _____    ______ ____

>  <TORSDO>
F 9

$$$$
=
 OpenBabel10232410253D

 33 34  0  0  1  0  0  0  0  0999 V2000
  189.3970  178.6660  137.5930 O   0  0  0  0  0  0  0  0  0  0  0  0
  189.5420  176.9600  139.1880 N   0  0  0  0  0  2  0  0  0  0  0  0
  189.4430  177.4330  137.8390 C   0  0  0  0  0  0  0  0  0  0  0  0
  189.4970  177.8020  140.3780 C   0  0  1  0  0  3  0  0  0  0  0  0
  191.2940  176.0340  142.9990 O   0  0  0  0  0  0  0  0  0  0  0  0
  188.0160  177.2590  143.2690 C   0  0  1  0  0  3  0  0  0  0  0  0
  190.2830  176.4990  142.4120 C   0  0  0  0  0  0  0  0  0  0  0  0
  188.0670  178.0010  140.8890 C   0  0  0  0  0  2  0  0  0  0  0  0
  190.4740  177.3890  141.3460 O   0  0  0  0  0  0  0  0  0  0  0  0
  188.0470  178.4660  142.3340 C   0  0  0  0  0  2  0  0  0  0  0  0
  188.9260  176.0820  142.8930 C   0  0  0  0  0  2  0  0  0  0  0  0
  187.9690  177.6150  144.7600 C   0  0  0  0  0  2  0  0  0  0  0  0
  186.5970  177.6100  145.4430 C   0  0  1  0  0  3  0  0  0  0  0  0
  186.6890  177.2870  146.7990 O   0  0  0  0  0  1  0  0  0  0  0  0
  185.7660  178.8720  145.1960 C   0  0  2  0  0  3  0  0  0  0  0  0
  185.2350  179.3800  146.3860 O   0  0  0  0  0  1  0  0  0  0  0  0
  184.6650  178.6210  144.1680 C   0  0  2  0  0  3  0  0  0  0  0  0
  184.8200  179.4910  143.0880 O   0  0  0  0  0  1  0  0  0  0  0  0
  183.2740  178.7910  144.7600 C   0  0  0  0  0  1  0  0  0  0  0  0
  189.3710  176.4610  136.7020 C   0  0  2  0  0  3  0  0  0  0  0  0
  186.3630  173.4170  137.2460 C   0  0  0  0  0  0  0  0  0  0  0  0
  186.9220  175.7780  136.9670 C   0  0  0  0  0  0  0  0  0  0  0  0
  184.6380  175.0400  137.2030 F   0  0  0  0  0  0  0  0  0  0  0  0
  188.6710  174.0780  137.0300 C   0  0  0  0  0  3  0  0  0  0  0  0
  187.7140  173.0830  137.1970 C   0  0  0  0  0  3  0  0  0  0  0  0
  188.2970  175.4270  136.9150 C   0  0  0  0  0  0  0  0  0  0  0  0
  185.4380  172.4400  137.4120 F   0  0  0  0  0  0  0  0  0  0  0  0
  185.9630  174.7520  137.1300 C   0  0  0  0  0  0  0  0  0  0  0  0
  186.0060  177.7960  137.8570 O   0  0  0  0  0  1  0  0  0  0  0  0
  186.4700  177.1920  136.8540 C   0  0  0  0  0  0  0  0  0  0  0  0
  186.5660  177.8800  135.6500 O   0  0  0  0  0  0  0  0  0  0  0  0
  191.7320  176.3820  136.7500 O   0  0  0  0  0  0  0  0  0  0  0  0
  190.6980  175.8300  136.4090 C   0  0  0  0  0  3  0  0  0  0  0  0
  1  3  2  0  0  0  0
  3  2  1  0  0  0  0
  4  2  1  6  0  0  0
  4  8  1  0  0  0  0
  4  9  1  0  0  0  0
  6 12  1  1  0  0  0
  7 11  1  0  0  0  0
  7  5  2  0  0  0  0
  8 10  1  0  0  0  0
  9  7  1  0  0  0  0
 10  6  1  0  0  0  0
 11  6  1  0  0  0  0
 12 13  1  0  0  0  0
 13 14  1  1  0  0  0
 15 13  1  0  0  0  0
 15 16  1  1  0  0  0
 17 19  1  1  0  0  0
 17 15  1  0  0  0  0
 18 17  1  0  0  0  0
 20 33  1  1  0  0  0
 20 26  1  0  0  0  0
 20  3  1  0  0  0  0
 21 27  1  0  0  0  0
 22 28  1  0  0  0  0
 24 25  2  0  0  0  0
 25 21  1  0  0  0  0
 26 22  2  0  0  0  0
 26 24  1  0  0  0  0
 28 23  1  0  0  0  0
 28 21  2  0  0  0  0
 30 22  1  0  0  0  0
 30 29  1  0  0  0  0
 31 30  2  0  0  0  0
 33 32  2  0  0  0  0
M  END
>  <MODEL>
8

>  <REMARK>
 VINA RESULT:      -7.2      3.736      9.203
  Name = 
  9 active torsions:
  status: ('A' for Active; 'I' for Inactive)
    1  A    between atoms: C_1  and  N_12
    2  A    between atoms: C_2  and  C_5
    3  A    between atoms: C_2  and  C_8
    4  A    between atoms: C_5  and  C_27
    5  A    between atoms: C_6  and  C_27
    6  A    between atoms: C_9  and  C_24
    7  A    between atoms: C_11  and  C_15
    8  A    between atoms: C_15  and  C_17
    9  A    between atoms: C_15  and  C_26
                            x       y       z     vdW  Elec       q    Type
                         _______ _______ _______ _____ _____    ______ ____

>  <TORSDO>
F 9

$$$$
=
 OpenBabel10232410253D

 33 34  0  0  1  0  0  0  0  0999 V2000
  188.8800  179.1330  138.0620 O   0  0  0  0  0  0  0  0  0  0  0  0
  188.6640  177.2810  139.4760 N   0  0  0  0  0  2  0  0  0  0  0  0
  188.6840  177.8960  138.1820 C   0  0  0  0  0  0  0  0  0  0  0  0
  188.7580  177.9940  140.7450 C   0  0  1  0  0  3  0  0  0  0  0  0
  191.2720  176.2860  142.7420 O   0  0  0  0  0  0  0  0  0  0  0  0
  187.9900  176.9710  143.7800 C   0  0  1  0  0  3  0  0  0  0  0  0
  190.1100  176.6440  142.4200 C   0  0  0  0  0  0  0  0  0  0  0  0
  187.4510  177.9260  141.5410 C   0  0  0  0  0  2  0  0  0  0  0  0
  189.9590  177.6470  141.4510 O   0  0  0  0  0  0  0  0  0  0  0  0
  187.6700  178.2480  143.0090 C   0  0  0  0  0  2  0  0  0  0  0  0
  188.9470  175.9840  143.0980 C   0  0  0  0  0  2  0  0  0  0  0  0
  188.2070  177.1760  145.2840 C   0  0  0  0  0  2  0  0  0  0  0  0
  189.6520  177.3030  145.7780 C   0  0  1  0  0  3  0  0  0  0  0  0
  190.1970  178.5560  145.4860 O   0  0  0  0  0  1  0  0  0  0  0  0
  189.8550  176.9020  147.2410 C   0  0  2  0  0  3  0  0  0  0  0  0
  189.5940  177.9680  148.1080 O   0  0  0  0  0  1  0  0  0  0  0  0
  191.2550  176.3370  147.4740 C   0  0  2  0  0  3  0  0  0  0  0  0
  192.0070  177.2360  148.2320 O   0  0  0  0  0  1  0  0  0  0  0  0
  191.9820  176.0410  146.1710 C   0  0  0  0  0  1  0  0  0  0  0  0
  188.4500  177.0730  136.9530 C   0  0  2  0  0  3  0  0  0  0  0  0
  191.2620  173.8160  136.6690 C   0  0  0  0  0  0  0  0  0  0  0  0
  188.9600  174.6100  136.4940 C   0  0  0  0  0  0  0  0  0  0  0  0
  189.5380  172.3100  136.0600 F   0  0  0  0  0  0  0  0  0  0  0  0
  190.7610  176.1270  137.1330 C   0  0  0  0  0  3  0  0  0  0  0  0
  191.6840  175.0900  137.0380 C   0  0  0  0  0  3  0  0  0  0  0  0
  189.4000  175.9080  136.8680 C   0  0  0  0  0  0  0  0  0  0  0  0
  192.1680  172.8110  136.5820 F   0  0  0  0  0  0  0  0  0  0  0  0
  189.9130  173.5710  136.3960 C   0  0  0  0  0  0  0  0  0  0  0  0
  187.1660  173.9850  135.0480 O   0  0  0  0  0  0  0  0  0  0  0  0
  187.5280  174.3230  136.2060 C   0  0  0  0  0  0  0  0  0  0  0  0
  186.5660  174.4050  137.2050 O   0  0  0  0  0  1  0  0  0  0  0  0
  188.0210  177.4540  134.6600 O   0  0  0  0  0  0  0  0  0  0  0  0
  188.4700  177.9000  135.7030 C   0  0  0  0  0  3  0  0  0  0  0  0
  1  3  2  0  0  0  0
  3  2  1  0  0  0  0
  4  2  1  6  0  0  0
  4  9  1  0  0  0  0
  4  8  1  0  0  0  0
  6 12  1  1  0  0  0
  7  5  2  0  0  0  0
  7 11  1  0  0  0  0
  8 10  1  0  0  0  0
  9  7  1  0  0  0  0
 10  6  1  0  0  0  0
 11  6  1  0  0  0  0
 12 13  1  0  0  0  0
 13 14  1  1  0  0  0
 13 15  1  0  0  0  0
 15 17  1  0  0  0  0
 15 16  1  1  0  0  0
 17 19  1  6  0  0  0
 17 18  1  0  0  0  0
 20 33  1  6  0  0  0
 20  3  1  0  0  0  0
 21 25  1  0  0  0  0
 22 26  2  0  0  0  0
 23 28  1  0  0  0  0
 25 24  2  0  0  0  0
 26 20  1  0  0  0  0
 26 24  1  0  0  0  0
 27 21  1  0  0  0  0
 28 22  1  0  0  0  0
 28 21  2  0  0  0  0
 29 30  2  0  0  0  0
 30 22  1  0  0  0  0
 30 31  1  0  0  0  0
 32 33  2  0  0  0  0
M  END
>  <MODEL>
9

>  <REMARK>
 VINA RESULT:      -7.1      4.251      9.208
  Name = 
  9 active torsions:
  status: ('A' for Active; 'I' for Inactive)
    1  A    between atoms: C_1  and  N_12
    2  A    between atoms: C_2  and  C_5
    3  A    between atoms: C_2  and  C_8
    4  A    between atoms: C_5  and  C_27
    5  A    between atoms: C_6  and  C_27
    6  A    between atoms: C_9  and  C_24
    7  A    between atoms: C_11  and  C_15
    8  A    between atoms: C_15  and  C_17
    9  A    between atoms: C_15  and  C_26
                            x       y       z     vdW  Elec       q    Type
                         _______ _______ _______ _____ _____    ______ ____

>  <TORSDO>
F 9

$$$$
