=
 OpenBabel10232409573D

 34 36  0  0  1  0  0  0  0  0999 V2000
  186.1140  178.7070  141.2980 Cl  0  0  0  0  0  0  0  0  0  0  0  0
  181.1970  178.4440  143.8510 Cl  0  0  0  0  0  0  0  0  0  0  0  0
  182.2180  178.7320  142.4500 C   0  0  0  0  0  0  0  0  0  0  0  0
  183.6720  179.0610  140.0700 C   0  0  0  0  0  0  0  0  0  0  0  0
  182.2810  179.1390  140.0610 C   0  0  0  0  0  3  0  0  0  0  0  0
  181.5600  178.9710  141.2410 C   0  0  0  0  0  3  0  0  0  0  0  0
  183.6370  178.6630  142.4800 C   0  0  0  0  0  0  0  0  0  0  0  0
  184.3530  178.8110  141.2770 C   0  0  0  0  0  0  0  0  0  0  0  0
  184.3760  178.4400  143.6530 O   0  0  0  0  0  0  0  0  0  0  0  0
  184.6990  179.4370  144.6090 C   0  0  0  0  0  2  0  0  0  0  0  0
  184.8420  178.8000  145.9730 C   0  0  0  0  0  2  0  0  0  0  0  0
  185.7330  177.6950  145.8880 O   0  0  0  0  0  0  0  0  0  0  0  0
  188.9950  178.2160  148.2570 S   0  0  0  0  0  0  0  0  0  0  0  0
  189.3520  177.0370  145.8400 C   0  0  0  0  0  3  0  0  0  0  0  0
  189.6260  176.8040  147.2940 C   0  0  1  0  0  3  0  0  0  0  0  0
  187.9270  177.5890  143.9480 C   0  0  0  0  0  1  0  0  0  0  0  0
  187.0510  177.7360  146.3610 C   0  0  0  0  0  0  0  0  0  0  0  0
  187.3130  177.9960  147.6500 C   0  0  0  0  0  3  0  0  0  0  0  0
  188.1540  177.4500  145.4130 C   0  0  0  0  0  0  0  0  0  0  0  0
  191.8320  176.9460  146.2780 N   0  0  0  0  0  1  0  0  0  0  0  0
  191.1200  176.6430  147.5070 C   0  0  0  0  0  2  0  0  0  0  0  0
  184.4080  179.2210  138.7820 C   0  0  0  0  0  2  0  0  0  0  0  0
  184.6220  177.8650  138.1290 C   0  0  0  0  0  2  0  0  0  0  0  0
  186.1000  177.6300  137.8750 C   0  0  0  0  0  2  0  0  0  0  0  0
  187.8230  178.1310  136.0410 C   0  0  1  0  0  3  0  0  0  0  0  0
  187.3710  176.7950  136.0230 O   0  0  0  0  0  0  0  0  0  0  0  0
  186.4140  177.7610  136.3850 C   0  0  1  0  0  3  0  0  0  0  0  0
  189.4360  177.2370  137.7880 N   0  0  0  0  0  2  0  0  0  0  0  0
  188.9250  179.5130  137.6460 O   0  0  0  0  0  0  0  0  0  0  0  0
  188.7470  178.3460  137.2050 C   0  0  0  0  0  0  0  0  0  0  0  0
  190.3530  177.3860  138.9080 C   0  0  2  0  0  3  0  0  0  0  0  0
  191.3960  176.4640  138.7940 O   0  0  0  0  0  1  0  0  0  0  0  0
  189.6230  177.1680  140.1940 C   0  0  0  0  0  3  0  0  0  0  0  0
  190.2330  177.0590  141.2460 O   0  0  0  0  0  0  0  0  0  0  0  0
  3  7  1  0  0  0  0
  3  2  1  0  0  0  0
  4  8  1  0  0  0  0
  5  4  2  0  0  0  0
  5  6  1  0  0  0  0
  6  3  2  0  0  0  0
  7  9  1  0  0  0  0
  8  1  1  0  0  0  0
  8  7  2  0  0  0  0
  9 10  1  0  0  0  0
 10 11  1  0  0  0  0
 12 11  1  0  0  0  0
 12 17  1  0  0  0  0
 14 15  1  0  0  0  0
 15 21  1  6  0  0  0
 15 13  1  0  0  0  0
 16 19  1  0  0  0  0
 17 18  2  0  0  0  0
 18 13  1  0  0  0  0
 19 14  2  0  0  0  0
 19 17  1  0  0  0  0
 20 21  1  0  0  0  0
 22  4  1  0  0  0  0
 23 22  1  0  0  0  0
 24 23  1  0  0  0  0
 25 27  1  0  0  0  0
 25 30  1  1  0  0  0
 26 25  1  0  0  0  0
 26 27  1  0  0  0  0
 27 24  1  1  0  0  0
 28 31  1  0  0  0  0
 30 29  2  0  0  0  0
 30 28  1  0  0  0  0
 31 32  1  6  0  0  0
 31 33  1  0  0  0  0
 33 34  2  0  0  0  0
M  END
>  <MODEL>
1

>  <REMARK>
 VINA RESULT:      -7.5      0.000      0.000
  Name = 
  13 active torsions:
  status: ('A' for Active; 'I' for Inactive)
    1  A    between atoms: C_3  and  C_19
    2  A    between atoms: C_5  and  C_11
    3  A    between atoms: C_5  and  C_22
    4  A    between atoms: C_7  and  N_9
    5  A    between atoms: C_7  and  C_17
    6  A    between atoms: C_8  and  O_12
    7  A    between atoms: C_8  and  C_28
    8  A    between atoms: C_11  and  C_20
    9  A    between atoms: O_12  and  C_32
   10  A    between atoms: C_14  and  C_26
   11  A    between atoms: C_20  and  C_23
   12  A    between atoms: O_21  and  C_25
   13  A    between atoms: O_21  and  C_28
                            x       y       z     vdW  Elec       q    Type
                         _______ _______ _______ _____ _____    ______ ____

>  <TORSDO>
F 13

$$$$
=
 OpenBabel10232409573D

 34 36  0  0  1  0  0  0  0  0999 V2000
  187.5880  176.9130  143.5200 Cl  0  0  0  0  0  0  0  0  0  0  0  0
  191.6980  176.8100  147.2440 Cl  0  0  0  0  0  0  0  0  0  0  0  0
  190.0390  177.1200  146.7540 C   0  0  0  0  0  0  0  0  0  0  0  0
  187.3140  177.5060  146.1980 C   0  0  0  0  0  0  0  0  0  0  0  0
  187.7990  177.6750  147.4940 C   0  0  0  0  0  3  0  0  0  0  0  0
  189.1490  177.4790  147.7700 C   0  0  0  0  0  3  0  0  0  0  0  0
  189.5650  176.9570  145.4250 C   0  0  0  0  0  0  0  0  0  0  0  0
  188.1930  177.1340  145.1640 C   0  0  0  0  0  0  0  0  0  0  0  0
  190.3920  176.6100  144.3450 O   0  0  0  0  0  0  0  0  0  0  0  0
  191.4010  177.4440  143.7980 C   0  0  0  0  0  2  0  0  0  0  0  0
  191.5300  177.1730  142.3150 C   0  0  0  0  0  2  0  0  0  0  0  0
  190.2350  177.0130  141.7500 O   0  0  0  0  0  0  0  0  0  0  0  0
  190.6330  176.7520  137.7130 S   0  0  0  0  0  0  0  0  0  0  0  0
  188.2150  177.4710  138.7100 C   0  0  0  0  0  3  0  0  0  0  0  0
  188.8360  176.4640  137.7920 C   0  0  1  0  0  3  0  0  0  0  0  0
  188.0310  178.6960  140.8030 C   0  0  0  0  0  1  0  0  0  0  0  0
  189.9860  177.0830  140.3730 C   0  0  0  0  0  0  0  0  0  0  0  0
  190.8370  176.5400  139.4900 C   0  0  0  0  0  3  0  0  0  0  0  0
  188.7410  177.7390  139.9100 C   0  0  0  0  0  0  0  0  0  0  0  0
  188.7260  177.7800  135.7480 N   0  0  0  0  0  1  0  0  0  0  0  0
  188.2190  176.5910  136.4110 C   0  0  0  0  0  2  0  0  0  0  0  0
  185.8550  177.6990  145.9470 C   0  0  0  0  0  2  0  0  0  0  0  0
  185.5410  179.1790  145.7940 C   0  0  0  0  0  2  0  0  0  0  0  0
  185.0080  179.4620  144.4010 C   0  0  0  0  0  2  0  0  0  0  0  0
  182.7800  179.0870  143.1850 C   0  0  1  0  0  3  0  0  0  0  0  0
  182.9360  178.2620  144.3170 O   0  0  0  0  0  0  0  0  0  0  0  0
  183.4820  179.5540  144.4220 C   0  0  1  0  0  3  0  0  0  0  0  0
  183.5930  179.2220  140.7830 N   0  0  0  0  0  2  0  0  0  0  0  0
  184.4820  177.6720  142.2890 O   0  0  0  0  0  0  0  0  0  0  0  0
  183.6640  178.6060  142.0710 C   0  0  0  0  0  0  0  0  0  0  0  0
  184.4340  178.8070  139.6690 C   0  0  2  0  0  3  0  0  0  0  0  0
  184.8060  179.9220  138.9140 O   0  0  0  0  0  1  0  0  0  0  0  0
  183.6940  177.8360  138.8080 C   0  0  0  0  0  3  0  0  0  0  0  0
  184.2720  177.2120  137.9320 O   0  0  0  0  0  0  0  0  0  0  0  0
  1  8  1  0  0  0  0
  3  2  1  0  0  0  0
  3  6  1  0  0  0  0
  4  5  1  0  0  0  0
  5  6  2  0  0  0  0
  7  3  2  0  0  0  0
  8  7  1  0  0  0  0
  8  4  2  0  0  0  0
  9  7  1  0  0  0  0
 10  9  1  0  0  0  0
 11 10  1  0  0  0  0
 12 11  1  0  0  0  0
 13 15  1  0  0  0  0
 13 18  1  0  0  0  0
 14 19  2  0  0  0  0
 15 21  1  6  0  0  0
 15 14  1  0  0  0  0
 17 12  1  0  0  0  0
 18 17  2  0  0  0  0
 19 17  1  0  0  0  0
 19 16  1  0  0  0  0
 20 21  1  0  0  0  0
 22  4  1  0  0  0  0
 23 22  1  0  0  0  0
 24 23  1  0  0  0  0
 25 30  1  6  0  0  0
 25 26  1  0  0  0  0
 25 27  1  0  0  0  0
 26 27  1  0  0  0  0
 27 24  1  6  0  0  0
 28 30  1  0  0  0  0
 30 29  2  0  0  0  0
 31 32  1  6  0  0  0
 31 28  1  0  0  0  0
 33 31  1  0  0  0  0
 34 33  2  0  0  0  0
M  END
>  <MODEL>
2

>  <REMARK>
 VINA RESULT:      -7.4      3.310      7.925
  Name = 
  13 active torsions:
  status: ('A' for Active; 'I' for Inactive)
    1  A    between atoms: C_3  and  C_19
    2  A    between atoms: C_5  and  C_11
    3  A    between atoms: C_5  and  C_22
    4  A    between atoms: C_7  and  N_9
    5  A    between atoms: C_7  and  C_17
    6  A    between atoms: C_8  and  O_12
    7  A    between atoms: C_8  and  C_28
    8  A    between atoms: C_11  and  C_20
    9  A    between atoms: O_12  and  C_32
   10  A    between atoms: C_14  and  C_26
   11  A    between atoms: C_20  and  C_23
   12  A    between atoms: O_21  and  C_25
   13  A    between atoms: O_21  and  C_28
                            x       y       z     vdW  Elec       q    Type
                         _______ _______ _______ _____ _____    ______ ____

>  <TORSDO>
F 13

$$$$
=
 OpenBabel10232409573D

 34 36  0  0  1  0  0  0  0  0999 V2000
  186.7650  178.4780  142.8040 Cl  0  0  0  0  0  0  0  0  0  0  0  0
  181.3950  178.5940  141.4170 Cl  0  0  0  0  0  0  0  0  0  0  0  0
  182.7110  178.6280  142.5820 C   0  0  0  0  0  0  0  0  0  0  0  0
  184.6830  178.8750  144.5660 C   0  0  0  0  0  0  0  0  0  0  0  0
  183.3340  178.9970  144.8950 C   0  0  0  0  0  3  0  0  0  0  0  0
  182.3570  178.8800  143.9100 C   0  0  0  0  0  3  0  0  0  0  0  0
  184.0800  178.4860  142.2310 C   0  0  0  0  0  0  0  0  0  0  0  0
  185.0600  178.6310  143.2320 C   0  0  0  0  0  0  0  0  0  0  0  0
  184.5200  178.2200  140.9250 O   0  0  0  0  0  0  0  0  0  0  0  0
  184.5080  179.1550  139.8590 C   0  0  0  0  0  2  0  0  0  0  0  0
  184.8700  178.4550  138.5680 C   0  0  0  0  0  2  0  0  0  0  0  0
  186.2560  178.6340  138.3060 O   0  0  0  0  0  0  0  0  0  0  0  0
  187.7870  175.1370  136.9110 S   0  0  0  0  0  0  0  0  0  0  0  0
  189.4850  176.8850  138.1010 C   0  0  0  0  0  3  0  0  0  0  0  0
  189.3210  176.1150  136.8260 C   0  0  1  0  0  3  0  0  0  0  0  0
  188.7240  178.3770  139.8640 C   0  0  0  0  0  1  0  0  0  0  0  0
  187.1240  177.5730  138.0190 C   0  0  0  0  0  0  0  0  0  0  0  0
  186.7620  176.5940  137.1770 C   0  0  0  0  0  3  0  0  0  0  0  0
  188.4710  177.5720  138.6370 C   0  0  0  0  0  0  0  0  0  0  0  0
  190.9070  174.6130  137.8950 N   0  0  0  0  0  1  0  0  0  0  0  0
  190.5180  175.2050  136.6270 C   0  0  0  0  0  2  0  0  0  0  0  0
  185.7020  179.0330  145.6440 C   0  0  0  0  0  2  0  0  0  0  0  0
  186.4110  177.7120  145.8940 C   0  0  0  0  0  2  0  0  0  0  0  0
  187.8690  177.9540  146.2390 C   0  0  0  0  0  2  0  0  0  0  0  0
  189.7240  176.5180  147.2800 C   0  0  1  0  0  3  0  0  0  0  0  0
  189.3650  177.6200  148.0810 O   0  0  0  0  0  0  0  0  0  0  0  0
  188.3150  177.0190  147.3630 C   0  0  1  0  0  3  0  0  0  0  0  0
  189.9450  176.9150  144.7810 N   0  0  0  0  0  2  0  0  0  0  0  0
  191.6730  177.4470  146.2620 O   0  0  0  0  0  0  0  0  0  0  0  0
  190.5150  176.9810  146.0910 C   0  0  0  0  0  0  0  0  0  0  0  0
  190.6590  177.3610  143.5940 C   0  0  2  0  0  3  0  0  0  0  0  0
  190.1540  178.5930  143.1710 O   0  0  0  0  0  1  0  0  0  0  0  0
  190.5110  176.3520  142.5020 C   0  0  0  0  0  3  0  0  0  0  0  0
  190.2480  175.1880  142.7600 O   0  0  0  0  0  0  0  0  0  0  0  0
  1  8  1  0  0  0  0
  2  3  1  0  0  0  0
  3  6  1  0  0  0  0
  4  5  1  0  0  0  0
  4 22  1  0  0  0  0
  6  5  2  0  0  0  0
  7  3  2  0  0  0  0
  7  8  1  0  0  0  0
  8  4  2  0  0  0  0
  9  7  1  0  0  0  0
 10  9  1  0  0  0  0
 11 10  1  0  0  0  0
 12 11  1  0  0  0  0
 13 18  1  0  0  0  0
 14 19  2  0  0  0  0
 15 21  1  1  0  0  0
 15 13  1  0  0  0  0
 15 14  1  0  0  0  0
 17 12  1  0  0  0  0
 17 19  1  0  0  0  0
 18 17  2  0  0  0  0
 19 16  1  0  0  0  0
 21 20  1  0  0  0  0
 22 23  1  0  0  0  0
 23 24  1  0  0  0  0
 25 30  1  6  0  0  0
 25 27  1  0  0  0  0
 25 26  1  0  0  0  0
 27 24  1  6  0  0  0
 27 26  1  0  0  0  0
 28 30  1  0  0  0  0
 30 29  2  0  0  0  0
 31 32  1  6  0  0  0
 31 28  1  0  0  0  0
 33 34  2  0  0  0  0
 33 31  1  0  0  0  0
M  END
>  <MODEL>
3

>  <REMARK>
 VINA RESULT:      -7.3      2.920      7.348
  Name = 
  13 active torsions:
  status: ('A' for Active; 'I' for Inactive)
    1  A    between atoms: C_3  and  C_19
    2  A    between atoms: C_5  and  C_11
    3  A    between atoms: C_5  and  C_22
    4  A    between atoms: C_7  and  N_9
    5  A    between atoms: C_7  and  C_17
    6  A    between atoms: C_8  and  O_12
    7  A    between atoms: C_8  and  C_28
    8  A    between atoms: C_11  and  C_20
    9  A    between atoms: O_12  and  C_32
   10  A    between atoms: C_14  and  C_26
   11  A    between atoms: C_20  and  C_23
   12  A    between atoms: O_21  and  C_25
   13  A    between atoms: O_21  and  C_28
                            x       y       z     vdW  Elec       q    Type
                         _______ _______ _______ _____ _____    ______ ____

>  <TORSDO>
F 13

$$$$
=
 OpenBabel10232409573D

 34 36  0  0  1  0  0  0  0  0999 V2000
  187.1340  176.7090  143.4850 Cl  0  0  0  0  0  0  0  0  0  0  0  0
  188.7510  178.1030  148.6050 Cl  0  0  0  0  0  0  0  0  0  0  0  0
  187.6420  178.1670  147.2430 C   0  0  0  0  0  0  0  0  0  0  0  0
  185.6740  178.2510  145.2420 C   0  0  0  0  0  0  0  0  0  0  0  0
  185.4710  178.9030  146.4570 C   0  0  0  0  0  3  0  0  0  0  0  0
  186.4450  178.8570  147.4500 C   0  0  0  0  0  3  0  0  0  0  0  0
  187.8720  177.5080  146.0060 C   0  0  0  0  0  0  0  0  0  0  0  0
  186.8680  177.5410  145.0190 C   0  0  0  0  0  0  0  0  0  0  0  0
  189.0500  176.8040  145.7110 O   0  0  0  0  0  0  0  0  0  0  0  0
  190.3300  177.3950  145.5560 C   0  0  0  0  0  2  0  0  0  0  0  0
  190.3490  178.2310  144.2950 C   0  0  0  0  0  2  0  0  0  0  0  0
  189.9720  177.4240  143.1870 O   0  0  0  0  0  0  0  0  0  0  0  0
  192.8340  177.5280  140.3030 S   0  0  0  0  0  0  0  0  0  0  0  0
  190.2460  177.3030  139.5210 C   0  0  0  0  0  3  0  0  0  0  0  0
  191.5710  176.6260  139.3490 C   0  0  1  0  0  3  0  0  0  0  0  0
  188.4460  178.2760  140.8350 C   0  0  0  0  0  1  0  0  0  0  0  0
  190.6200  177.4740  141.9470 C   0  0  0  0  0  0  0  0  0  0  0  0
  191.9490  177.3100  141.8560 C   0  0  0  0  0  3  0  0  0  0  0  0
  189.8040  177.6760  140.7260 C   0  0  0  0  0  0  0  0  0  0  0  0
  193.3840  176.5950  137.7260 N   0  0  0  0  0  1  0  0  0  0  0  0
  191.9390  176.6000  137.8770 C   0  0  0  0  0  2  0  0  0  0  0  0
  184.5950  178.3000  144.2110 C   0  0  0  0  0  2  0  0  0  0  0  0
  184.9020  179.3770  143.1830 C   0  0  0  0  0  2  0  0  0  0  0  0
  184.8480  178.7960  141.7810 C   0  0  0  0  0  2  0  0  0  0  0  0
  183.1340  178.5610  139.8860 C   0  0  1  0  0  3  0  0  0  0  0  0
  183.3250  177.3650  140.6090 O   0  0  0  0  0  0  0  0  0  0  0  0
  183.3990  178.5530  141.3600 C   0  0  1  0  0  3  0  0  0  0  0  0
  184.9580  177.7470  138.3160 N   0  0  0  0  0  2  0  0  0  0  0  0
  184.7400  180.0070  138.8710 O   0  0  0  0  0  0  0  0  0  0  0  0
  184.3230  178.8260  139.0080 C   0  0  0  0  0  0  0  0  0  0  0  0
  186.1040  177.9450  137.4420 C   0  0  2  0  0  3  0  0  0  0  0  0
  185.6890  177.9550  136.1080 O   0  0  0  0  0  1  0  0  0  0  0  0
  187.1000  176.8500  137.6540 C   0  0  0  0  0  3  0  0  0  0  0  0
  188.1030  176.7770  136.9620 O   0  0  0  0  0  0  0  0  0  0  0  0
  1  8  1  0  0  0  0
  3  6  1  0  0  0  0
  3  2  1  0  0  0  0
  4  5  1  0  0  0  0
  5  6  2  0  0  0  0
  7  3  2  0  0  0  0
  8  4  2  0  0  0  0
  8  7  1  0  0  0  0
  9  7  1  0  0  0  0
 10  9  1  0  0  0  0
 11 10  1  0  0  0  0
 12 11  1  0  0  0  0
 13 18  1  0  0  0  0
 14 19  2  0  0  0  0
 15 21  1  6  0  0  0
 15 14  1  0  0  0  0
 15 13  1  0  0  0  0
 17 12  1  0  0  0  0
 18 17  2  0  0  0  0
 19 16  1  0  0  0  0
 19 17  1  0  0  0  0
 20 21  1  0  0  0  0
 22  4  1  0  0  0  0
 23 22  1  0  0  0  0
 24 23  1  0  0  0  0
 25 30  1  6  0  0  0
 25 26  1  0  0  0  0
 25 27  1  0  0  0  0
 26 27  1  0  0  0  0
 27 24  1  6  0  0  0
 28 30  1  0  0  0  0
 29 30  2  0  0  0  0
 31 32  1  6  0  0  0
 31 33  1  0  0  0  0
 31 28  1  0  0  0  0
 34 33  2  0  0  0  0
M  END
>  <MODEL>
4

>  <REMARK>
 VINA RESULT:      -7.3      3.020      6.161
  Name = 
  13 active torsions:
  status: ('A' for Active; 'I' for Inactive)
    1  A    between atoms: C_3  and  C_19
    2  A    between atoms: C_5  and  C_11
    3  A    between atoms: C_5  and  C_22
    4  A    between atoms: C_7  and  N_9
    5  A    between atoms: C_7  and  C_17
    6  A    between atoms: C_8  and  O_12
    7  A    between atoms: C_8  and  C_28
    8  A    between atoms: C_11  and  C_20
    9  A    between atoms: O_12  and  C_32
   10  A    between atoms: C_14  and  C_26
   11  A    between atoms: C_20  and  C_23
   12  A    between atoms: O_21  and  C_25
   13  A    between atoms: O_21  and  C_28
                            x       y       z     vdW  Elec       q    Type
                         _______ _______ _______ _____ _____    ______ ____

>  <TORSDO>
F 13

$$$$
=
 OpenBabel10232409573D

 34 36  0  0  1  0  0  0  0  0999 V2000
  187.5020  176.6380  143.2660 Cl  0  0  0  0  0  0  0  0  0  0  0  0
  188.0930  178.1830  148.5610 Cl  0  0  0  0  0  0  0  0  0  0  0  0
  188.7100  177.5840  147.0280 C   0  0  0  0  0  0  0  0  0  0  0  0
  189.9020  176.7890  144.6130 C   0  0  0  0  0  0  0  0  0  0  0  0
  190.6870  177.0360  145.7370 C   0  0  0  0  0  3  0  0  0  0  0  0
  190.0960  177.4350  146.9330 C   0  0  0  0  0  3  0  0  0  0  0  0
  187.8930  177.3240  145.8950 C   0  0  0  0  0  0  0  0  0  0  0  0
  188.5050  176.9440  144.6850 C   0  0  0  0  0  0  0  0  0  0  0  0
  186.4940  177.4370  145.9080 O   0  0  0  0  0  0  0  0  0  0  0  0
  185.7810  178.6450  146.1140 C   0  0  0  0  0  2  0  0  0  0  0  0
  185.4440  179.2660  144.7770 C   0  0  0  0  0  2  0  0  0  0  0  0
  184.3430  178.5760  144.1980 O   0  0  0  0  0  0  0  0  0  0  0  0
  184.5260  179.0700  140.1680 S   0  0  0  0  0  0  0  0  0  0  0  0
  182.1510  178.3380  141.2550 C   0  0  0  0  0  3  0  0  0  0  0  0
  183.1230  177.9080  140.1990 C   0  0  1  0  0  3  0  0  0  0  0  0
  181.5320  179.0240  143.5040 C   0  0  0  0  0  1  0  0  0  0  0  0
  183.9940  178.6870  142.8460 C   0  0  0  0  0  0  0  0  0  0  0  0
  184.9370  178.7650  141.8950 C   0  0  0  0  0  3  0  0  0  0  0  0
  182.5580  178.6790  142.4820 C   0  0  0  0  0  0  0  0  0  0  0  0
  182.4560  179.2060  138.2530 N   0  0  0  0  0  1  0  0  0  0  0  0
  182.4280  177.8820  138.8510 C   0  0  0  0  0  2  0  0  0  0  0  0
  190.5740  176.3880  143.3420 C   0  0  0  0  0  2  0  0  0  0  0  0
  190.8330  177.6120  142.4780 C   0  0  0  0  0  2  0  0  0  0  0  0
  191.0760  177.1970  141.0380 C   0  0  0  0  0  2  0  0  0  0  0  0
  190.0150  177.3190  138.7050 C   0  0  1  0  0  3  0  0  0  0  0  0
  189.1390  176.8060  139.6830 O   0  0  0  0  0  0  0  0  0  0  0  0
  190.0210  177.8110  140.1190 C   0  0  1  0  0  3  0  0  0  0  0  0
  192.3370  176.7140  137.8700 N   0  0  0  0  0  2  0  0  0  0  0  0
  190.8100  175.0730  138.5340 O   0  0  0  0  0  0  0  0  0  0  0  0
  191.0600  176.2960  138.3620 C   0  0  0  0  0  0  0  0  0  0  0  0
  193.3920  175.7700  137.5340 C   0  0  2  0  0  3  0  0  0  0  0  0
  194.3860  175.7990  138.5160 O   0  0  0  0  0  1  0  0  0  0  0  0
  193.9830  176.1190  136.2060 C   0  0  0  0  0  3  0  0  0  0  0  0
  194.7850  177.0340  136.1010 O   0  0  0  0  0  0  0  0  0  0  0  0
  1  8  1  0  0  0  0
  3  2  1  0  0  0  0
  4  8  2  0  0  0  0
  4  5  1  0  0  0  0
  5  6  2  0  0  0  0
  6  3  1  0  0  0  0
  7  9  1  0  0  0  0
  7  3  2  0  0  0  0
  8  7  1  0  0  0  0
  9 10  1  0  0  0  0
 11 10  1  0  0  0  0
 12 11  1  0  0  0  0
 13 15  1  0  0  0  0
 13 18  1  0  0  0  0
 14 19  2  0  0  0  0
 15 21  1  6  0  0  0
 15 14  1  0  0  0  0
 17 12  1  0  0  0  0
 18 17  2  0  0  0  0
 19 17  1  0  0  0  0
 19 16  1  0  0  0  0
 20 21  1  0  0  0  0
 22  4  1  0  0  0  0
 23 22  1  0  0  0  0
 24 23  1  0  0  0  0
 25 30  1  1  0  0  0
 25 26  1  0  0  0  0
 25 27  1  0  0  0  0
 26 27  1  0  0  0  0
 27 24  1  1  0  0  0
 28 30  1  0  0  0  0
 30 29  2  0  0  0  0
 31 28  1  0  0  0  0
 31 32  1  1  0  0  0
 33 31  1  0  0  0  0
 34 33  2  0  0  0  0
M  END
>  <MODEL>
5

>  <REMARK>
 VINA RESULT:      -7.2      3.130      6.830
  Name = 
  13 active torsions:
  status: ('A' for Active; 'I' for Inactive)
    1  A    between atoms: C_3  and  C_19
    2  A    between atoms: C_5  and  C_11
    3  A    between atoms: C_5  and  C_22
    4  A    between atoms: C_7  and  N_9
    5  A    between atoms: C_7  and  C_17
    6  A    between atoms: C_8  and  O_12
    7  A    between atoms: C_8  and  C_28
    8  A    between atoms: C_11  and  C_20
    9  A    between atoms: O_12  and  C_32
   10  A    between atoms: C_14  and  C_26
   11  A    between atoms: C_20  and  C_23
   12  A    between atoms: O_21  and  C_25
   13  A    between atoms: O_21  and  C_28
                            x       y       z     vdW  Elec       q    Type
                         _______ _______ _______ _____ _____    ______ ____

>  <TORSDO>
F 13

$$$$
=
 OpenBabel10232409573D

 34 36  0  0  1  0  0  0  0  0999 V2000
  188.6790  178.4590  139.9190 Cl  0  0  0  0  0  0  0  0  0  0  0  0
  192.6050  175.0830  137.9310 Cl  0  0  0  0  0  0  0  0  0  0  0  0
  191.1800  176.0960  137.7590 C   0  0  0  0  0  0  0  0  0  0  0  0
  189.0100  177.8070  137.2620 C   0  0  0  0  0  0  0  0  0  0  0  0
  189.6390  177.1450  136.2090 C   0  0  0  0  0  3  0  0  0  0  0  0
  190.7190  176.3010  136.4560 C   0  0  0  0  0  3  0  0  0  0  0  0
  190.5410  176.7520  138.8450 C   0  0  0  0  0  0  0  0  0  0  0  0
  189.4670  177.6220  138.5800 C   0  0  0  0  0  0  0  0  0  0  0  0
  190.9330  176.5920  140.1840 O   0  0  0  0  0  0  0  0  0  0  0  0
  192.0060  177.2830  140.8020 C   0  0  0  0  0  2  0  0  0  0  0  0
  191.5790  177.7540  142.1740 C   0  0  0  0  0  2  0  0  0  0  0  0
  190.6770  176.8110  142.7380 O   0  0  0  0  0  0  0  0  0  0  0  0
  190.8350  176.5740  146.7930 S   0  0  0  0  0  0  0  0  0  0  0  0
  188.4970  177.3430  145.6520 C   0  0  0  0  0  3  0  0  0  0  0  0
  189.4880  177.7950  146.6810 C   0  0  1  0  0  3  0  0  0  0  0  0
  187.8470  176.5410  143.4500 C   0  0  0  0  0  1  0  0  0  0  0  0
  190.3220  176.8050  144.0930 C   0  0  0  0  0  0  0  0  0  0  0  0
  191.2600  176.7450  145.0510 C   0  0  0  0  0  3  0  0  0  0  0  0
  188.8880  176.9040  144.4520 C   0  0  0  0  0  0  0  0  0  0  0  0
  187.3600  178.0730  147.8270 N   0  0  0  0  0  1  0  0  0  0  0  0
  188.7940  177.9420  148.0220 C   0  0  0  0  0  2  0  0  0  0  0  0
  187.8730  178.7250  136.9550 C   0  0  0  0  0  2  0  0  0  0  0  0
  186.6010  177.9250  136.7290 C   0  0  0  0  0  2  0  0  0  0  0  0
  185.6590  178.0910  137.9080 C   0  0  0  0  0  2  0  0  0  0  0  0
  183.3390  177.3810  138.7440 C   0  0  1  0  0  3  0  0  0  0  0  0
  183.3080  177.9600  137.4590 O   0  0  0  0  0  0  0  0  0  0  0  0
  184.4420  177.1800  137.7520 C   0  0  1  0  0  3  0  0  0  0  0  0
  184.0950  178.0830  141.0650 N   0  0  0  0  0  2  0  0  0  0  0  0
  183.3360  179.6450  139.5020 O   0  0  0  0  0  0  0  0  0  0  0  0
  183.5760  178.4410  139.7810 C   0  0  0  0  0  0  0  0  0  0  0  0
  184.3570  179.0670  142.1050 C   0  0  2  0  0  3  0  0  0  0  0  0
  185.6180  179.6370  141.9130 O   0  0  0  0  0  1  0  0  0  0  0  0
  184.2950  178.4160  143.4490 C   0  0  0  0  0  3  0  0  0  0  0  0
  185.1760  178.6020  144.2730 O   0  0  0  0  0  0  0  0  0  0  0  0
  3  2  1  0  0  0  0
  3  7  1  0  0  0  0
  4  8  1  0  0  0  0
  5  6  1  0  0  0  0
  5  4  2  0  0  0  0
  6  3  2  0  0  0  0
  7  9  1  0  0  0  0
  8  7  2  0  0  0  0
  8  1  1  0  0  0  0
  9 10  1  0  0  0  0
 10 11  1  0  0  0  0
 11 12  1  0  0  0  0
 12 17  1  0  0  0  0
 14 15  1  0  0  0  0
 15 13  1  0  0  0  0
 15 21  1  1  0  0  0
 16 19  1  0  0  0  0
 17 19  1  0  0  0  0
 17 18  2  0  0  0  0
 18 13  1  0  0  0  0
 19 14  2  0  0  0  0
 20 21  1  0  0  0  0
 22  4  1  0  0  0  0
 23 22  1  0  0  0  0
 23 24  1  0  0  0  0
 25 30  1  1  0  0  0
 26 27  1  0  0  0  0
 26 25  1  0  0  0  0
 27 24  1  1  0  0  0
 27 25  1  0  0  0  0
 28 31  1  0  0  0  0
 29 30  2  0  0  0  0
 30 28  1  0  0  0  0
 31 32  1  6  0  0  0
 31 33  1  0  0  0  0
 33 34  2  0  0  0  0
M  END
>  <MODEL>
6

>  <REMARK>
 VINA RESULT:      -7.0      2.715      6.170
  Name = 
  13 active torsions:
  status: ('A' for Active; 'I' for Inactive)
    1  A    between atoms: C_3  and  C_19
    2  A    between atoms: C_5  and  C_11
    3  A    between atoms: C_5  and  C_22
    4  A    between atoms: C_7  and  N_9
    5  A    between atoms: C_7  and  C_17
    6  A    between atoms: C_8  and  O_12
    7  A    between atoms: C_8  and  C_28
    8  A    between atoms: C_11  and  C_20
    9  A    between atoms: O_12  and  C_32
   10  A    between atoms: C_14  and  C_26
   11  A    between atoms: C_20  and  C_23
   12  A    between atoms: O_21  and  C_25
   13  A    between atoms: O_21  and  C_28
                            x       y       z     vdW  Elec       q    Type
                         _______ _______ _______ _____ _____    ______ ____

>  <TORSDO>
F 13

$$$$
=
 OpenBabel10232409573D

 34 36  0  0  1  0  0  0  0  0999 V2000
  187.2050  176.9790  143.2310 Cl  0  0  0  0  0  0  0  0  0  0  0  0
  189.4040  177.9100  148.2380 Cl  0  0  0  0  0  0  0  0  0  0  0  0
  188.1210  178.0410  147.0440 C   0  0  0  0  0  0  0  0  0  0  0  0
  185.9010  178.1970  145.3310 C   0  0  0  0  0  0  0  0  0  0  0  0
  185.8220  178.6910  146.6320 C   0  0  0  0  0  3  0  0  0  0  0  0
  186.9220  178.6090  147.4820 C   0  0  0  0  0  3  0  0  0  0  0  0
  188.2230  177.5440  145.7170 C   0  0  0  0  0  0  0  0  0  0  0  0
  187.0970  177.6110  144.8750 C   0  0  0  0  0  0  0  0  0  0  0  0
  189.3930  176.9710  145.1940 O   0  0  0  0  0  0  0  0  0  0  0  0
  190.6140  177.6620  144.9920 C   0  0  0  0  0  2  0  0  0  0  0  0
  190.5400  178.4520  143.7040 C   0  0  0  0  0  2  0  0  0  0  0  0
  190.0850  177.6050  142.6560 O   0  0  0  0  0  0  0  0  0  0  0  0
  192.9240  177.2900  139.7650 S   0  0  0  0  0  0  0  0  0  0  0  0
  190.3210  177.1610  139.0130 C   0  0  0  0  0  3  0  0  0  0  0  0
  191.6010  176.3910  138.8940 C   0  0  1  0  0  3  0  0  0  0  0  0
  188.5950  178.3500  140.2450 C   0  0  0  0  0  1  0  0  0  0  0  0
  190.7250  177.5110  141.4140 C   0  0  0  0  0  0  0  0  0  0  0  0
  192.0400  177.2580  141.3340 C   0  0  0  0  0  3  0  0  0  0  0  0
  189.9130  177.6600  140.1840 C   0  0  0  0  0  0  0  0  0  0  0  0
  193.1030  175.3410  137.2940 N   0  0  0  0  0  1  0  0  0  0  0  0
  191.9540  176.2190  137.4280 C   0  0  0  0  0  2  0  0  0  0  0  0
  184.6930  178.2790  144.4580 C   0  0  0  0  0  2  0  0  0  0  0  0
  184.8410  179.4200  143.4650 C   0  0  0  0  0  2  0  0  0  0  0  0
  184.1770  179.0610  142.1480 C   0  0  0  0  0  2  0  0  0  0  0  0
  184.7210  178.5250  139.6990 C   0  0  1  0  0  3  0  0  0  0  0  0
  184.7950  179.9020  139.9910 O   0  0  0  0  0  0  0  0  0  0  0  0
  185.2070  179.0350  141.0200 C   0  0  1  0  0  3  0  0  0  0  0  0
  182.2570  179.0280  139.3400 N   0  0  0  0  0  2  0  0  0  0  0  0
  183.0010  176.8780  139.8730 O   0  0  0  0  0  0  0  0  0  0  0  0
  183.2860  178.0850  139.6540 C   0  0  0  0  0  0  0  0  0  0  0  0
  180.8510  178.6570  139.2700 C   0  0  2  0  0  3  0  0  0  0  0  0
  180.1970  179.4520  138.3250 O   0  0  0  0  0  1  0  0  0  0  0  0
  180.2120  178.8320  140.6090 C   0  0  0  0  0  3  0  0  0  0  0  0
  180.0100  177.8720  141.3350 O   0  0  0  0  0  0  0  0  0  0  0  0
  1  8  1  0  0  0  0
  3  6  1  0  0  0  0
  3  2  1  0  0  0  0
  4  5  1  0  0  0  0
  5  6  2  0  0  0  0
  7  3  2  0  0  0  0
  8  4  2  0  0  0  0
  8  7  1  0  0  0  0
  9  7  1  0  0  0  0
 10  9  1  0  0  0  0
 11 10  1  0  0  0  0
 12 11  1  0  0  0  0
 13 18  1  0  0  0  0
 14 19  2  0  0  0  0
 15 21  1  6  0  0  0
 15 14  1  0  0  0  0
 15 13  1  0  0  0  0
 17 12  1  0  0  0  0
 18 17  2  0  0  0  0
 19 16  1  0  0  0  0
 19 17  1  0  0  0  0
 20 21  1  0  0  0  0
 22  4  1  0  0  0  0
 23 22  1  0  0  0  0
 24 23  1  0  0  0  0
 25 30  1  1  0  0  0
 25 26  1  0  0  0  0
 25 27  1  0  0  0  0
 26 27  1  0  0  0  0
 27 24  1  1  0  0  0
 28 30  1  0  0  0  0
 30 29  2  0  0  0  0
 31 32  1  6  0  0  0
 31 28  1  0  0  0  0
 31 33  1  0  0  0  0
 33 34  2  0  0  0  0
M  END
>  <MODEL>
7

>  <REMARK>
 VINA RESULT:      -7.0      3.521      7.222
  Name = 
  13 active torsions:
  status: ('A' for Active; 'I' for Inactive)
    1  A    between atoms: C_3  and  C_19
    2  A    between atoms: C_5  and  C_11
    3  A    between atoms: C_5  and  C_22
    4  A    between atoms: C_7  and  N_9
    5  A    between atoms: C_7  and  C_17
    6  A    between atoms: C_8  and  O_12
    7  A    between atoms: C_8  and  C_28
    8  A    between atoms: C_11  and  C_20
    9  A    between atoms: O_12  and  C_32
   10  A    between atoms: C_14  and  C_26
   11  A    between atoms: C_20  and  C_23
   12  A    between atoms: O_21  and  C_25
   13  A    between atoms: O_21  and  C_28
                            x       y       z     vdW  Elec       q    Type
                         _______ _______ _______ _____ _____    ______ ____

>  <TORSDO>
F 13

$$$$
=
 OpenBabel10232409573D

 34 36  0  0  1  0  0  0  0  0999 V2000
  187.4650  176.4200  143.8210 Cl  0  0  0  0  0  0  0  0  0  0  0  0
  188.3840  178.3580  148.9360 Cl  0  0  0  0  0  0  0  0  0  0  0  0
  187.4730  178.2750  147.4360 C   0  0  0  0  0  0  0  0  0  0  0  0
  185.7990  178.1410  145.1850 C   0  0  0  0  0  0  0  0  0  0  0  0
  185.4410  178.9210  146.2840 C   0  0  0  0  0  3  0  0  0  0  0  0
  186.2690  178.9820  147.4010 C   0  0  0  0  0  3  0  0  0  0  0  0
  187.8610  177.4860  146.3200 C   0  0  0  0  0  0  0  0  0  0  0  0
  187.0030  177.4130  145.2050 C   0  0  0  0  0  0  0  0  0  0  0  0
  189.0590  176.7550  146.2670 O   0  0  0  0  0  0  0  0  0  0  0  0
  190.2310  177.0670  147.0030 C   0  0  0  0  0  2  0  0  0  0  0  0
  191.4220  176.3880  146.3650 C   0  0  0  0  0  2  0  0  0  0  0  0
  191.9870  177.2480  145.3830 O   0  0  0  0  0  0  0  0  0  0  0  0
  190.9390  176.5540  141.5180 S   0  0  0  0  0  0  0  0  0  0  0  0
  189.9700  178.7850  142.7190 C   0  0  0  0  0  3  0  0  0  0  0  0
  189.5000  177.5750  141.9720 C   0  0  1  0  0  3  0  0  0  0  0  0
  191.2290  179.9240  144.4610 C   0  0  0  0  0  1  0  0  0  0  0  0
  191.4590  177.3900  144.0940 C   0  0  0  0  0  0  0  0  0  0  0  0
  191.4610  176.3620  143.2310 C   0  0  0  0  0  3  0  0  0  0  0  0
  190.8620  178.6910  143.7110 C   0  0  0  0  0  0  0  0  0  0  0  0
  189.6540  178.0850  139.5990 N   0  0  0  0  0  1  0  0  0  0  0  0
  188.7450  178.0090  140.7300 C   0  0  0  0  0  2  0  0  0  0  0  0
  184.8730  178.0790  144.0160 C   0  0  0  0  0  2  0  0  0  0  0  0
  185.4100  178.9310  142.8770 C   0  0  0  0  0  2  0  0  0  0  0  0
  184.4310  178.9340  141.7170 C   0  0  0  0  0  2  0  0  0  0  0  0
  184.3250  178.6660  139.1670 C   0  0  1  0  0  3  0  0  0  0  0  0
  184.8340  179.9180  139.5690 O   0  0  0  0  0  0  0  0  0  0  0  0
  185.1770  178.8270  140.3880 C   0  0  1  0  0  3  0  0  0  0  0  0
  182.0810  179.8210  139.4530 N   0  0  0  0  0  2  0  0  0  0  0  0
  182.2780  177.4940  139.5390 O   0  0  0  0  0  0  0  0  0  0  0  0
  182.8430  178.6120  139.4050 C   0  0  0  0  0  0  0  0  0  0  0  0
  180.6410  179.8300  139.6680 C   0  0  2  0  0  3  0  0  0  0  0  0
  180.1000  181.0330  139.2060 O   0  0  0  0  0  1  0  0  0  0  0  0
  180.3430  179.6670  141.1230 C   0  0  0  0  0  3  0  0  0  0  0  0
  180.0960  180.6370  141.8220 O   0  0  0  0  0  0  0  0  0  0  0  0
  1  8  1  0  0  0  0
  3  2  1  0  0  0  0
  4  8  2  0  0  0  0
  4  5  1  0  0  0  0
  5  6  2  0  0  0  0
  6  3  1  0  0  0  0
  7  3  2  0  0  0  0
  8  7  1  0  0  0  0
  9  7  1  0  0  0  0
  9 10  1  0  0  0  0
 11 10  1  0  0  0  0
 12 11  1  0  0  0  0
 13 15  1  0  0  0  0
 13 18  1  0  0  0  0
 14 19  2  0  0  0  0
 15 21  1  6  0  0  0
 15 14  1  0  0  0  0
 17 12  1  0  0  0  0
 18 17  2  0  0  0  0
 19 17  1  0  0  0  0
 19 16  1  0  0  0  0
 20 21  1  0  0  0  0
 22  4  1  0  0  0  0
 23 22  1  0  0  0  0
 24 23  1  0  0  0  0
 25 30  1  1  0  0  0
 25 26  1  0  0  0  0
 25 27  1  0  0  0  0
 26 27  1  0  0  0  0
 27 24  1  1  0  0  0
 28 31  1  0  0  0  0
 30 28  1  0  0  0  0
 30 29  2  0  0  0  0
 31 32  1  1  0  0  0
 31 33  1  0  0  0  0
 33 34  2  0  0  0  0
M  END
>  <MODEL>
8

>  <REMARK>
 VINA RESULT:      -6.9      3.511      6.755
  Name = 
  13 active torsions:
  status: ('A' for Active; 'I' for Inactive)
    1  A    between atoms: C_3  and  C_19
    2  A    between atoms: C_5  and  C_11
    3  A    between atoms: C_5  and  C_22
    4  A    between atoms: C_7  and  N_9
    5  A    between atoms: C_7  and  C_17
    6  A    between atoms: C_8  and  O_12
    7  A    between atoms: C_8  and  C_28
    8  A    between atoms: C_11  and  C_20
    9  A    between atoms: O_12  and  C_32
   10  A    between atoms: C_14  and  C_26
   11  A    between atoms: C_20  and  C_23
   12  A    between atoms: O_21  and  C_25
   13  A    between atoms: O_21  and  C_28
                            x       y       z     vdW  Elec       q    Type
                         _______ _______ _______ _____ _____    ______ ____

>  <TORSDO>
F 13

$$$$
=
 OpenBabel10232409573D

 34 36  0  0  1  0  0  0  0  0999 V2000
  186.3040  178.7480  141.7770 Cl  0  0  0  0  0  0  0  0  0  0  0  0
  180.7730  178.9700  142.1320 Cl  0  0  0  0  0  0  0  0  0  0  0  0
  182.3800  178.8230  142.8280 C   0  0  0  0  0  0  0  0  0  0  0  0
  184.8680  178.7510  144.1290 C   0  0  0  0  0  0  0  0  0  0  0  0
  183.6870  178.7720  144.8690 C   0  0  0  0  0  3  0  0  0  0  0  0
  182.4540  178.8130  144.2230 C   0  0  0  0  0  3  0  0  0  0  0  0
  183.5730  178.7880  142.0580 C   0  0  0  0  0  0  0  0  0  0  0  0
  184.8140  178.7710  142.7230 C   0  0  0  0  0  0  0  0  0  0  0  0
  183.5890  178.7820  140.6540 O   0  0  0  0  0  0  0  0  0  0  0  0
  183.2720  177.6610  139.8450 C   0  0  0  0  0  2  0  0  0  0  0  0
  183.6980  177.9320  138.4190 C   0  0  0  0  0  2  0  0  0  0  0  0
  184.0930  176.7120  137.8040 O   0  0  0  0  0  0  0  0  0  0  0  0
  187.7610  177.3330  136.1670 S   0  0  0  0  0  0  0  0  0  0  0  0
  187.0900  174.7990  136.8610 C   0  0  0  0  0  3  0  0  0  0  0  0
  188.1680  175.8140  137.0860 C   0  0  1  0  0  3  0  0  0  0  0  0
  184.7780  174.0470  136.7970 C   0  0  0  0  0  1  0  0  0  0  0  0
  185.3640  176.5080  137.2510 C   0  0  0  0  0  0  0  0  0  0  0  0
  186.1890  177.5400  137.0220 C   0  0  0  0  0  3  0  0  0  0  0  0
  185.7960  175.1210  136.9580 C   0  0  0  0  0  0  0  0  0  0  0  0
  190.2020  174.6490  137.7340 N   0  0  0  0  0  1  0  0  0  0  0  0
  189.4970  175.2530  136.6170 C   0  0  0  0  0  2  0  0  0  0  0  0
  186.1700  178.7330  144.8570 C   0  0  0  0  0  2  0  0  0  0  0  0
  186.5980  177.3010  145.1330 C   0  0  0  0  0  2  0  0  0  0  0  0
  187.8670  176.9740  144.3670 C   0  0  0  0  0  2  0  0  0  0  0  0
  190.4210  177.1880  144.5000 C   0  0  1  0  0  3  0  0  0  0  0  0
  189.7610  178.4340  144.5280 O   0  0  0  0  0  0  0  0  0  0  0  0
  189.0990  177.3760  145.1770 C   0  0  1  0  0  3  0  0  0  0  0  0
  190.2390  177.4740  141.9820 N   0  0  0  0  0  2  0  0  0  0  0  0
  190.4680  175.3630  142.9610 O   0  0  0  0  0  0  0  0  0  0  0  0
  190.3710  176.6100  143.1150 C   0  0  0  0  0  0  0  0  0  0  0  0
  190.1980  176.9720  140.6170 C   0  0  2  0  0  3  0  0  0  0  0  0
  191.3880  177.2890  139.9580 O   0  0  0  0  0  1  0  0  0  0  0  0
  189.0400  177.5750  139.8890 C   0  0  0  0  0  3  0  0  0  0  0  0
  189.0210  178.7660  139.6240 O   0  0  0  0  0  0  0  0  0  0  0  0
  1  8  1  0  0  0  0
  2  3  1  0  0  0  0
  3  6  1  0  0  0  0
  4 22  1  0  0  0  0
  4  5  1  0  0  0  0
  6  5  2  0  0  0  0
  7  8  1  0  0  0  0
  7  3  2  0  0  0  0
  8  4  2  0  0  0  0
  9  7  1  0  0  0  0
 10  9  1  0  0  0  0
 11 10  1  0  0  0  0
 12 11  1  0  0  0  0
 13 18  1  0  0  0  0
 13 15  1  0  0  0  0
 14 19  2  0  0  0  0
 14 15  1  0  0  0  0
 15 21  1  6  0  0  0
 16 19  1  0  0  0  0
 17 12  1  0  0  0  0
 18 17  2  0  0  0  0
 19 17  1  0  0  0  0
 21 20  1  0  0  0  0
 22 23  1  0  0  0  0
 24 23  1  0  0  0  0
 25 30  1  6  0  0  0
 25 26  1  0  0  0  0
 25 27  1  0  0  0  0
 26 27  1  0  0  0  0
 27 24  1  6  0  0  0
 28 30  1  0  0  0  0
 29 30  2  0  0  0  0
 31 32  1  6  0  0  0
 31 28  1  0  0  0  0
 33 31  1  0  0  0  0
 34 33  2  0  0  0  0
M  END
>  <MODEL>
9

>  <REMARK>
 VINA RESULT:      -6.9      3.004      6.938
  Name = 
  13 active torsions:
  status: ('A' for Active; 'I' for Inactive)
    1  A    between atoms: C_3  and  C_19
    2  A    between atoms: C_5  and  C_11
    3  A    between atoms: C_5  and  C_22
    4  A    between atoms: C_7  and  N_9
    5  A    between atoms: C_7  and  C_17
    6  A    between atoms: C_8  and  O_12
    7  A    between atoms: C_8  and  C_28
    8  A    between atoms: C_11  and  C_20
    9  A    between atoms: O_12  and  C_32
   10  A    between atoms: C_14  and  C_26
   11  A    between atoms: C_20  and  C_23
   12  A    between atoms: O_21  and  C_25
   13  A    between atoms: O_21  and  C_28
                            x       y       z     vdW  Elec       q    Type
                         _______ _______ _______ _____ _____    ______ ____

>  <TORSDO>
F 13

$$$$
