=
 OpenBabel10232408423D

 30 33  0  0  1  0  0  0  0  0999 V2000
  189.3570  176.9780  140.9800 O   0  0  0  0  0  0  0  0  0  0  0  0
  185.6680  177.9420  144.9310 N   0  0  0  0  0  0  0  0  0  0  0  0
  181.3450  179.3270  143.3210 N   0  0  0  0  0  1  0  0  0  0  0  0
  182.7150  179.0300  143.0890 C   0  0  0  0  0  0  0  0  0  0  0  0
  184.5430  178.8830  141.5770 C   0  0  0  0  0  0  0  0  0  0  0  0
  185.3950  178.4430  142.6050 C   0  0  0  0  0  0  0  0  0  0  0  0
  183.2370  179.1630  141.8410 N   0  0  0  0  0  0  0  0  0  0  0  0
  184.3960  179.6120  139.3250 O   0  0  0  0  0  0  0  0  0  0  0  0
  186.7530  178.1230  142.3590 C   0  0  0  0  0  0  0  0  0  0  0  0
  184.8710  178.3300  143.9080 C   0  0  0  0  0  0  0  0  0  0  0  0
  186.4440  178.8300  140.0150 O   0  0  0  0  0  0  0  0  0  0  0  0
  185.1000  179.1140  140.2420 C   0  0  0  0  0  0  0  0  0  0  0  0
  189.4810  176.5860  142.3110 C   0  0  0  0  0  0  0  0  0  0  0  0
  189.0470  177.4860  143.4240 C   0  0  2  0  0  3  0  0  0  0  0  0
  186.9800  177.6590  144.7390 C   0  0  0  0  0  3  0  0  0  0  0  0
  183.5270  178.6190  144.1480 C   0  0  0  0  0  3  0  0  0  0  0  0
  187.5610  177.7330  143.4680 C   0  0  0  0  0  0  0  0  0  0  0  0
  188.6710  178.1670  140.6230 C   0  0  0  0  0  2  0  0  0  0  0  0
  189.9900  175.4690  142.5840 O   0  0  0  0  0  0  0  0  0  0  0  0
  187.1900  177.9910  140.8960 C   0  0  1  0  0  3  0  0  0  0  0  0
  189.8490  178.7840  143.4250 C   0  0  0  0  0  2  0  0  0  0  0  0
  191.6360  178.4550  143.5190 S   0  0  0  0  0  0  0  0  0  0  0  0
  191.5630  178.1050  145.2980 C   0  0  0  0  0  2  0  0  0  0  0  0
  191.8020  176.3290  145.5760 S   0  0  0  0  0  0  0  0  0  0  0  0
  191.9400  176.9280  148.1440 O   0  0  0  0  0  0  0  0  0  0  0  0
  191.1950  176.4420  147.2520 C   0  0  0  0  0  0  0  0  0  0  0  0
  189.8610  175.9990  147.5440 N   0  0  0  0  0  0  0  0  0  0  0  0
  188.8330  176.7400  147.8440 C   0  0  0  0  0  3  0  0  0  0  0  0
  187.5300  178.7460  148.1500 N   0  0  0  0  0  1  0  0  0  0  0  0
  188.8760  178.2280  147.9780 C   0  0  0  0  0  2  0  0  0  0  0  0
  1 13  1  0  0  0  0
  4  3  1  0  0  0  0
  4 16  2  0  0  0  0
  5  7  2  0  0  0  0
  5  6  1  0  0  0  0
  6 10  1  0  0  0  0
  7  4  1  0  0  0  0
  8 12  2  0  0  0  0
  9  6  2  0  0  0  0
  9 17  1  0  0  0  0
 10 16  1  0  0  0  0
 10  2  2  0  0  0  0
 11 12  1  0  0  0  0
 11 20  1  0  0  0  0
 12  5  1  0  0  0  0
 13 19  2  0  0  0  0
 13 14  1  0  0  0  0
 14 21  1  6  0  0  0
 14 17  1  0  0  0  0
 15  2  1  0  0  0  0
 17 15  2  0  0  0  0
 18  1  1  0  0  0  0
 20 18  1  1  0  0  0
 20  9  1  0  0  0  0
 21 22  1  0  0  0  0
 22 23  1  0  0  0  0
 23 24  1  0  0  0  0
 24 26  1  0  0  0  0
 26 27  1  0  0  0  0
 26 25  2  0  0  0  0
 27 28  2  0  0  0  0
 28 30  1  0  0  0  0
 30 29  1  0  0  0  0
M  END
>  <MODEL>
1

>  <REMARK>
 VINA RESULT:      -7.5      0.000      0.000
  Name = 
  7 active torsions:
  status: ('A' for Active; 'I' for Inactive)
    1  A    between atoms: C_1  and  S_8
    2  A    between atoms: C_1  and  S_18
    3  A    between atoms: S_8  and  C_11
    4  A    between atoms: N_9  and  C_21
    5  A    between atoms: C_11  and  C_24
    6  A    between atoms: C_16  and  C_20
    7  A    between atoms: S_18  and  C_21
                            x       y       z     vdW  Elec       q    Type
                         _______ _______ _______ _____ _____    ______ ____

>  <TORSDO>
F 7

$$$$
=
 OpenBabel10232408423D

 30 33  0  0  1  0  0  0  0  0999 V2000
  190.2330  177.9760  138.3670 O   0  0  0  0  0  0  0  0  0  0  0  0
  186.0010  178.5080  141.8250 N   0  0  0  0  0  0  0  0  0  0  0  0
  187.0330  177.4490  146.4100 N   0  0  0  0  0  1  0  0  0  0  0  0
  187.3920  177.4770  145.0350 C   0  0  0  0  0  0  0  0  0  0  0  0
  188.9770  176.9990  143.3300 C   0  0  0  0  0  0  0  0  0  0  0  0
  188.1240  177.5320  142.3470 C   0  0  0  0  0  0  0  0  0  0  0  0
  188.5940  176.9850  144.6360 N   0  0  0  0  0  0  0  0  0  0  0  0
  190.9800  175.8010  143.7530 O   0  0  0  0  0  0  0  0  0  0  0  0
  188.5020  177.5800  140.9830 C   0  0  0  0  0  0  0  0  0  0  0  0
  186.8640  178.0180  142.7460 C   0  0  0  0  0  0  0  0  0  0  0  0
  190.5920  176.4070  141.5700 O   0  0  0  0  0  0  0  0  0  0  0  0
  190.2420  176.3860  142.9180 C   0  0  0  0  0  0  0  0  0  0  0  0
  189.0410  178.6410  138.0870 C   0  0  0  0  0  0  0  0  0  0  0  0
  187.7270  178.0970  138.5470 C   0  0  2  0  0  3  0  0  0  0  0  0
  186.3160  178.5410  140.5070 C   0  0  0  0  0  3  0  0  0  0  0  0
  186.5000  177.9960  144.0930 C   0  0  0  0  0  3  0  0  0  0  0  0
  187.5570  178.0900  140.0450 C   0  0  0  0  0  0  0  0  0  0  0  0
  190.2630  176.8520  139.2320 C   0  0  0  0  0  2  0  0  0  0  0  0
  189.0670  179.7020  137.4120 O   0  0  0  0  0  0  0  0  0  0  0  0
  189.9720  177.3060  140.6500 C   0  0  1  0  0  3  0  0  0  0  0  0
  187.4520  176.7290  137.9290 C   0  0  0  0  0  2  0  0  0  0  0  0
  187.6480  176.7720  136.1200 S   0  0  0  0  0  0  0  0  0  0  0  0
  188.5650  175.2060  136.0980 C   0  0  0  0  0  2  0  0  0  0  0  0
  190.2830  175.5180  135.6090 S   0  0  0  0  0  0  0  0  0  0  0  0
  190.1250  173.7100  137.5280 O   0  0  0  0  0  0  0  0  0  0  0  0
  190.8900  174.2030  136.6550 C   0  0  0  0  0  0  0  0  0  0  0  0
  192.2270  173.7190  136.4650 N   0  0  0  0  0  0  0  0  0  0  0  0
  193.3220  174.2060  136.9750 C   0  0  0  0  0  3  0  0  0  0  0  0
  193.8470  176.5570  137.0770 N   0  0  0  0  0  1  0  0  0  0  0  0
  193.3790  175.4180  137.8480 C   0  0  0  0  0  2  0  0  0  0  0  0
  1 18  1  0  0  0  0
  2 10  1  0  0  0  0
  4  3  1  0  0  0  0
  5  7  2  0  0  0  0
  6 10  2  0  0  0  0
  6  5  1  0  0  0  0
  7  4  1  0  0  0  0
  9  6  1  0  0  0  0
 10 16  1  0  0  0  0
 11 12  1  0  0  0  0
 12  5  1  0  0  0  0
 12  8  2  0  0  0  0
 13  1  1  0  0  0  0
 13 14  1  0  0  0  0
 14 21  1  1  0  0  0
 14 17  1  0  0  0  0
 15  2  2  0  0  0  0
 16  4  2  0  0  0  0
 17 15  1  0  0  0  0
 17  9  2  0  0  0  0
 19 13  2  0  0  0  0
 20 18  1  6  0  0  0
 20  9  1  0  0  0  0
 20 11  1  0  0  0  0
 22 21  1  0  0  0  0
 23 22  1  0  0  0  0
 24 23  1  0  0  0  0
 24 26  1  0  0  0  0
 26 25  2  0  0  0  0
 27 26  1  0  0  0  0
 27 28  2  0  0  0  0
 28 30  1  0  0  0  0
 29 30  1  0  0  0  0
M  END
>  <MODEL>
2

>  <REMARK>
 VINA RESULT:      -7.2      4.713      7.324
  Name = 
  7 active torsions:
  status: ('A' for Active; 'I' for Inactive)
    1  A    between atoms: C_1  and  S_8
    2  A    between atoms: C_1  and  S_18
    3  A    between atoms: S_8  and  C_11
    4  A    between atoms: N_9  and  C_21
    5  A    between atoms: C_11  and  C_24
    6  A    between atoms: C_16  and  C_20
    7  A    between atoms: S_18  and  C_21
                            x       y       z     vdW  Elec       q    Type
                         _______ _______ _______ _____ _____    ______ ____

>  <TORSDO>
F 7

$$$$
=
 OpenBabel10232408423D

 30 33  0  0  1  0  0  0  0  0999 V2000
  190.2950  177.9940  138.5140 O   0  0  0  0  0  0  0  0  0  0  0  0
  186.3690  178.4420  142.3260 N   0  0  0  0  0  0  0  0  0  0  0  0
  187.7890  177.3080  146.7870 N   0  0  0  0  0  1  0  0  0  0  0  0
  188.0300  177.3620  145.3880 C   0  0  0  0  0  0  0  0  0  0  0  0
  189.4680  176.9220  143.5470 C   0  0  0  0  0  0  0  0  0  0  0  0
  188.5330  177.4680  142.6490 C   0  0  0  0  0  0  0  0  0  0  0  0
  189.1970  176.8830  144.8800 N   0  0  0  0  0  0  0  0  0  0  0  0
  191.5040  175.7270  143.7770 O   0  0  0  0  0  0  0  0  0  0  0  0
  188.7930  177.5420  141.2590 C   0  0  0  0  0  0  0  0  0  0  0  0
  187.3090  177.9400  143.1620 C   0  0  0  0  0  0  0  0  0  0  0  0
  190.9300  176.3700  141.6460 O   0  0  0  0  0  0  0  0  0  0  0  0
  190.6950  176.3240  143.0180 C   0  0  0  0  0  0  0  0  0  0  0  0
  189.0820  178.6570  138.3470 C   0  0  0  0  0  0  0  0  0  0  0  0
  187.8130  178.0980  138.9070 C   0  0  2  0  0  3  0  0  0  0  0  0
  186.5710  178.5000  140.9870 C   0  0  0  0  0  3  0  0  0  0  0  0
  187.0610  177.8930  144.5350 C   0  0  0  0  0  3  0  0  0  0  0  0
  187.7700  178.0640  140.4140 C   0  0  0  0  0  0  0  0  0  0  0  0
  190.4030  176.8550  139.3530 C   0  0  0  0  0  2  0  0  0  0  0  0
  189.0460  179.7310  137.6930 O   0  0  0  0  0  0  0  0  0  0  0  0
  190.2310  177.2820  140.7990 C   0  0  1  0  0  3  0  0  0  0  0  0
  187.4920  176.7400  138.2900 C   0  0  0  0  0  2  0  0  0  0  0  0
  186.3000  176.9020  136.9250 S   0  0  0  0  0  0  0  0  0  0  0  0
  185.4320  178.2740  137.7350 C   0  0  0  0  0  2  0  0  0  0  0  0
  183.8000  177.7130  138.2940 S   0  0  0  0  0  0  0  0  0  0  0  0
  184.2960  180.1840  139.0820 O   0  0  0  0  0  0  0  0  0  0  0  0
  183.3800  179.3340  138.9130 C   0  0  0  0  0  0  0  0  0  0  0  0
  182.0050  179.6450  139.1830 N   0  0  0  0  0  0  0  0  0  0  0  0
  181.3330  179.3750  140.2650 C   0  0  0  0  0  3  0  0  0  0  0  0
  181.3600  179.1990  142.6700 N   0  0  0  0  0  1  0  0  0  0  0  0
  181.8890  178.6370  141.4400 C   0  0  0  0  0  2  0  0  0  0  0  0
  1 18  1  0  0  0  0
  2 10  1  0  0  0  0
  4  3  1  0  0  0  0
  5  7  2  0  0  0  0
  6 10  2  0  0  0  0
  6  5  1  0  0  0  0
  7  4  1  0  0  0  0
  9  6  1  0  0  0  0
 10 16  1  0  0  0  0
 11 12  1  0  0  0  0
 12  5  1  0  0  0  0
 12  8  2  0  0  0  0
 13  1  1  0  0  0  0
 13 14  1  0  0  0  0
 14 21  1  6  0  0  0
 14 17  1  0  0  0  0
 15  2  2  0  0  0  0
 16  4  2  0  0  0  0
 17 15  1  0  0  0  0
 17  9  2  0  0  0  0
 19 13  2  0  0  0  0
 20 18  1  6  0  0  0
 20  9  1  0  0  0  0
 20 11  1  0  0  0  0
 22 23  1  0  0  0  0
 22 21  1  0  0  0  0
 23 24  1  0  0  0  0
 24 26  1  0  0  0  0
 26 25  2  0  0  0  0
 26 27  1  0  0  0  0
 27 28  2  0  0  0  0
 28 30  1  0  0  0  0
 30 29  1  0  0  0  0
M  END
>  <MODEL>
3

>  <REMARK>
 VINA RESULT:      -7.1      3.237      7.199
  Name = 
  7 active torsions:
  status: ('A' for Active; 'I' for Inactive)
    1  A    between atoms: C_1  and  S_8
    2  A    between atoms: C_1  and  S_18
    3  A    between atoms: S_8  and  C_11
    4  A    between atoms: N_9  and  C_21
    5  A    between atoms: C_11  and  C_24
    6  A    between atoms: C_16  and  C_20
    7  A    between atoms: S_18  and  C_21
                            x       y       z     vdW  Elec       q    Type
                         _______ _______ _______ _____ _____    ______ ____

>  <TORSDO>
F 7

$$$$
=
 OpenBabel10232408423D

 30 33  0  0  1  0  0  0  0  0999 V2000
  189.7800  178.0900  139.1720 O   0  0  0  0  0  0  0  0  0  0  0  0
  184.6750  179.1660  140.8830 N   0  0  0  0  0  0  0  0  0  0  0  0
  184.0730  178.8750  145.6540 N   0  0  0  0  0  1  0  0  0  0  0  0
  184.8680  178.6790  144.4920 C   0  0  0  0  0  0  0  0  0  0  0  0
  186.9020  177.9340  143.5140 C   0  0  0  0  0  0  0  0  0  0  0  0
  186.4520  178.2960  142.2320 C   0  0  0  0  0  0  0  0  0  0  0  0
  186.1070  178.1320  144.6020 N   0  0  0  0  0  0  0  0  0  0  0  0
  188.5870  176.8280  144.7650 O   0  0  0  0  0  0  0  0  0  0  0  0
  187.2620  178.1210  141.0840 C   0  0  0  0  0  0  0  0  0  0  0  0
  185.1570  178.8360  142.1050 C   0  0  0  0  0  0  0  0  0  0  0  0
  188.9760  177.0680  142.5120 O   0  0  0  0  0  0  0  0  0  0  0  0
  188.1980  177.2660  143.6500 C   0  0  0  0  0  0  0  0  0  0  0  0
  188.7850  178.6960  138.4090 C   0  0  0  0  0  0  0  0  0  0  0  0
  187.3660  178.2290  138.4800 C   0  0  2  0  0  3  0  0  0  0  0  0
  185.4100  178.9840  139.7590 C   0  0  0  0  0  3  0  0  0  0  0  0
  184.3670  179.0340  143.2380 C   0  0  0  0  0  3  0  0  0  0  0  0
  186.7090  178.4680  139.8160 C   0  0  0  0  0  0  0  0  0  0  0  0
  189.4640  177.1230  140.1610 C   0  0  0  0  0  2  0  0  0  0  0  0
  189.0870  179.6330  137.6260 O   0  0  0  0  0  0  0  0  0  0  0  0
  188.7430  177.8010  141.3100 C   0  0  1  0  0  3  0  0  0  0  0  0
  187.2410  176.7780  138.0260 C   0  0  0  0  0  2  0  0  0  0  0  0
  187.5950  176.6110  136.2490 S   0  0  0  0  0  0  0  0  0  0  0  0
  188.8620  175.3440  136.5350 C   0  0  0  0  0  2  0  0  0  0  0  0
  190.4970  176.0210  136.1370 S   0  0  0  0  0  0  0  0  0  0  0  0
  190.6330  173.9290  137.7430 O   0  0  0  0  0  0  0  0  0  0  0  0
  191.3230  174.7940  137.1380 C   0  0  0  0  0  0  0  0  0  0  0  0
  192.7560  174.8020  137.2130 N   0  0  0  0  0  0  0  0  0  0  0  0
  193.5060  175.6310  137.8820 C   0  0  0  0  0  3  0  0  0  0  0  0
  193.9080  177.0830  139.7640 N   0  0  0  0  0  1  0  0  0  0  0  0
  192.9840  176.7780  138.6850 C   0  0  0  0  0  2  0  0  0  0  0  0
  1 18  1  0  0  0  0
  2 10  1  0  0  0  0
  4  7  1  0  0  0  0
  4  3  1  0  0  0  0
  5 12  1  0  0  0  0
  5  7  2  0  0  0  0
  6  5  1  0  0  0  0
  9 20  1  0  0  0  0
  9  6  1  0  0  0  0
 10  6  2  0  0  0  0
 10 16  1  0  0  0  0
 11 12  1  0  0  0  0
 12  8  2  0  0  0  0
 13 14  1  0  0  0  0
 13  1  1  0  0  0  0
 14 21  1  1  0  0  0
 14 17  1  0  0  0  0
 15 17  1  0  0  0  0
 15  2  2  0  0  0  0
 16  4  2  0  0  0  0
 17  9  2  0  0  0  0
 19 13  2  0  0  0  0
 20 18  1  6  0  0  0
 20 11  1  0  0  0  0
 22 23  1  0  0  0  0
 22 21  1  0  0  0  0
 24 23  1  0  0  0  0
 24 26  1  0  0  0  0
 26 27  1  0  0  0  0
 26 25  2  0  0  0  0
 27 28  2  0  0  0  0
 28 30  1  0  0  0  0
 30 29  1  0  0  0  0
M  END
>  <MODEL>
4

>  <REMARK>
 VINA RESULT:      -7.1      4.210      6.558
  Name = 
  7 active torsions:
  status: ('A' for Active; 'I' for Inactive)
    1  A    between atoms: C_1  and  S_8
    2  A    between atoms: C_1  and  S_18
    3  A    between atoms: S_8  and  C_11
    4  A    between atoms: N_9  and  C_21
    5  A    between atoms: C_11  and  C_24
    6  A    between atoms: C_16  and  C_20
    7  A    between atoms: S_18  and  C_21
                            x       y       z     vdW  Elec       q    Type
                         _______ _______ _______ _____ _____    ______ ____

>  <TORSDO>
F 7

$$$$
=
 OpenBabel10232408423D

 30 33  0  0  1  0  0  0  0  0999 V2000
  189.7490  178.3660  145.7220 O   0  0  0  0  0  0  0  0  0  0  0  0
  185.9430  178.5240  141.7680 N   0  0  0  0  0  0  0  0  0  0  0  0
  181.4430  179.1630  143.3630 N   0  0  0  0  0  1  0  0  0  0  0  0
  182.8200  178.9120  143.6100 C   0  0  0  0  0  0  0  0  0  0  0  0
  184.5690  178.4850  145.1610 C   0  0  0  0  0  0  0  0  0  0  0  0
  185.5160  178.4320  144.1220 C   0  0  0  0  0  0  0  0  0  0  0  0
  183.2580  178.7210  144.8820 N   0  0  0  0  0  0  0  0  0  0  0  0
  184.1650  178.1270  147.4700 O   0  0  0  0  0  0  0  0  0  0  0  0
  186.8900  178.2090  144.3800 C   0  0  0  0  0  0  0  0  0  0  0  0
  185.0670  178.6010  142.7980 C   0  0  0  0  0  0  0  0  0  0  0  0
  186.3480  177.9470  146.7730 O   0  0  0  0  0  0  0  0  0  0  0  0
  185.0010  178.1990  146.5310 C   0  0  0  0  0  0  0  0  0  0  0  0
  190.0060  178.5260  144.3620 C   0  0  0  0  0  0  0  0  0  0  0  0
  189.2370  177.7580  143.3350 C   0  0  2  0  0  3  0  0  0  0  0  0
  187.2610  178.2800  141.9750 C   0  0  0  0  0  3  0  0  0  0  0  0
  183.7180  178.8470  142.5420 C   0  0  0  0  0  3  0  0  0  0  0  0
  187.7750  178.1200  143.2660 C   0  0  0  0  0  0  0  0  0  0  0  0
  188.6490  177.5950  146.1770 C   0  0  0  0  0  2  0  0  0  0  0  0
  190.9160  179.3110  143.9910 O   0  0  0  0  0  0  0  0  0  0  0  0
  187.3590  178.3160  145.8350 C   0  0  1  0  0  3  0  0  0  0  0  0
  189.4520  176.2560  143.4980 C   0  0  0  0  0  2  0  0  0  0  0  0
  190.9690  175.7130  142.6520 S   0  0  0  0  0  0  0  0  0  0  0  0
  190.5020  176.5380  141.1050 C   0  0  0  0  0  2  0  0  0  0  0  0
  191.9720  177.2890  140.3520 S   0  0  0  0  0  0  0  0  0  0  0  0
  192.5330  176.4840  137.9010 O   0  0  0  0  0  0  0  0  0  0  0  0
  191.6180  176.5520  138.7650 C   0  0  0  0  0  0  0  0  0  0  0  0
  190.3050  176.0280  138.5140 N   0  0  0  0  0  0  0  0  0  0  0  0
  189.3090  176.6390  137.9390 C   0  0  0  0  0  3  0  0  0  0  0  0
  188.9820  178.9520  138.5360 N   0  0  0  0  0  1  0  0  0  0  0  0
  189.3530  178.0530  137.4570 C   0  0  0  0  0  2  0  0  0  0  0  0
  1 18  1  0  0  0  0
  2 15  2  0  0  0  0
  2 10  1  0  0  0  0
  3  4  1  0  0  0  0
  4  7  1  0  0  0  0
  5 12  1  0  0  0  0
  6  9  1  0  0  0  0
  6  5  1  0  0  0  0
  7  5  2  0  0  0  0
  9 20  1  0  0  0  0
 10  6  2  0  0  0  0
 12 11  1  0  0  0  0
 12  8  2  0  0  0  0
 13  1  1  0  0  0  0
 14 21  1  1  0  0  0
 14 13  1  0  0  0  0
 15 17  1  0  0  0  0
 16 10  1  0  0  0  0
 16  4  2  0  0  0  0
 17 14  1  0  0  0  0
 17  9  2  0  0  0  0
 19 13  2  0  0  0  0
 20 18  1  6  0  0  0
 20 11  1  0  0  0  0
 22 21  1  0  0  0  0
 23 22  1  0  0  0  0
 24 23  1  0  0  0  0
 25 26  2  0  0  0  0
 26 24  1  0  0  0  0
 27 26  1  0  0  0  0
 28 27  2  0  0  0  0
 30 28  1  0  0  0  0
 30 29  1  0  0  0  0
M  END
>  <MODEL>
5

>  <REMARK>
 VINA RESULT:      -7.0      3.402      5.602
  Name = 
  7 active torsions:
  status: ('A' for Active; 'I' for Inactive)
    1  A    between atoms: C_1  and  S_8
    2  A    between atoms: C_1  and  S_18
    3  A    between atoms: S_8  and  C_11
    4  A    between atoms: N_9  and  C_21
    5  A    between atoms: C_11  and  C_24
    6  A    between atoms: C_16  and  C_20
    7  A    between atoms: S_18  and  C_21
                            x       y       z     vdW  Elec       q    Type
                         _______ _______ _______ _____ _____    ______ ____

>  <TORSDO>
F 7

$$$$
=
 OpenBabel10232408423D

 30 33  0  0  1  0  0  0  0  0999 V2000
  190.1850  177.8990  138.3570 O   0  0  0  0  0  0  0  0  0  0  0  0
  186.1670  178.5160  142.0490 N   0  0  0  0  0  0  0  0  0  0  0  0
  187.4560  177.5030  146.5790 N   0  0  0  0  0  1  0  0  0  0  0  0
  187.7340  177.5100  145.1850 C   0  0  0  0  0  0  0  0  0  0  0  0
  189.2120  176.9950  143.3970 C   0  0  0  0  0  0  0  0  0  0  0  0
  188.3080  177.5250  142.4590 C   0  0  0  0  0  0  0  0  0  0  0  0
  188.9060  177.0010  144.7230 N   0  0  0  0  0  0  0  0  0  0  0  0
  191.2250  175.7820  143.7170 O   0  0  0  0  0  0  0  0  0  0  0  0
  188.6060  177.5520  141.0740 C   0  0  0  0  0  0  0  0  0  0  0  0
  187.0780  178.0280  142.9250 C   0  0  0  0  0  0  0  0  0  0  0  0
  190.7160  176.3660  141.5530 O   0  0  0  0  0  0  0  0  0  0  0  0
  190.4450  176.3650  142.9190 C   0  0  0  0  0  0  0  0  0  0  0  0
  188.9850  178.5720  138.1380 C   0  0  0  0  0  0  0  0  0  0  0  0
  187.6950  178.0470  138.6810 C   0  0  2  0  0  3  0  0  0  0  0  0
  186.4050  178.5300  140.7140 C   0  0  0  0  0  3  0  0  0  0  0  0
  186.7940  178.0270  144.2910 C   0  0  0  0  0  3  0  0  0  0  0  0
  187.6120  178.0610  140.1860 C   0  0  0  0  0  0  0  0  0  0  0  0
  190.2550  176.7860  139.2330 C   0  0  0  0  0  2  0  0  0  0  0  0
  188.9810  179.6250  137.4500 O   0  0  0  0  0  0  0  0  0  0  0  0
  190.0510  177.2590  140.6600 C   0  0  1  0  0  3  0  0  0  0  0  0
  187.3710  176.6750  138.0980 C   0  0  0  0  0  2  0  0  0  0  0  0
  187.2620  176.7400  136.2830 S   0  0  0  0  0  0  0  0  0  0  0  0
  188.2830  175.2530  136.0840 C   0  0  0  0  0  2  0  0  0  0  0  0
  187.2920  173.9340  135.3290 S   0  0  0  0  0  0  0  0  0  0  0  0
  187.9850  172.2550  137.2450 O   0  0  0  0  0  0  0  0  0  0  0  0
  187.1080  173.0870  136.8900 C   0  0  0  0  0  0  0  0  0  0  0  0
  185.9770  173.3890  137.7200 N   0  0  0  0  0  0  0  0  0  0  0  0
  184.7840  172.8700  137.6490 C   0  0  0  0  0  3  0  0  0  0  0  0
  183.6100  172.5130  135.5730 N   0  0  0  0  0  1  0  0  0  0  0  0
  184.3650  171.8610  136.6290 C   0  0  0  0  0  2  0  0  0  0  0  0
  1 18  1  0  0  0  0
  2 10  1  0  0  0  0
  4  3  1  0  0  0  0
  5  7  2  0  0  0  0
  6 10  2  0  0  0  0
  6  5  1  0  0  0  0
  7  4  1  0  0  0  0
  9  6  1  0  0  0  0
 10 16  1  0  0  0  0
 11 12  1  0  0  0  0
 12  5  1  0  0  0  0
 12  8  2  0  0  0  0
 13  1  1  0  0  0  0
 13 14  1  0  0  0  0
 14 21  1  1  0  0  0
 14 17  1  0  0  0  0
 15  2  2  0  0  0  0
 16  4  2  0  0  0  0
 17 15  1  0  0  0  0
 17  9  2  0  0  0  0
 19 13  2  0  0  0  0
 20 18  1  6  0  0  0
 20  9  1  0  0  0  0
 20 11  1  0  0  0  0
 22 21  1  0  0  0  0
 23 22  1  0  0  0  0
 24 23  1  0  0  0  0
 24 26  1  0  0  0  0
 26 25  2  0  0  0  0
 26 27  1  0  0  0  0
 28 27  2  0  0  0  0
 29 30  1  0  0  0  0
 30 28  1  0  0  0  0
M  END
>  <MODEL>
6

>  <REMARK>
 VINA RESULT:      -6.7      4.557      7.717
  Name = 
  7 active torsions:
  status: ('A' for Active; 'I' for Inactive)
    1  A    between atoms: C_1  and  S_8
    2  A    between atoms: C_1  and  S_18
    3  A    between atoms: S_8  and  C_11
    4  A    between atoms: N_9  and  C_21
    5  A    between atoms: C_11  and  C_24
    6  A    between atoms: C_16  and  C_20
    7  A    between atoms: S_18  and  C_21
                            x       y       z     vdW  Elec       q    Type
                         _______ _______ _______ _____ _____    ______ ____

>  <TORSDO>
F 7

$$$$
=
 OpenBabel10232408423D

 30 33  0  0  1  0  0  0  0  0999 V2000
  190.6220  176.2040  141.0420 O   0  0  0  0  0  0  0  0  0  0  0  0
  185.8650  178.4130  142.6670 N   0  0  0  0  0  0  0  0  0  0  0  0
  183.0030  179.8440  139.0660 N   0  0  0  0  0  1  0  0  0  0  0  0
  184.2540  179.3610  139.5350 C   0  0  0  0  0  0  0  0  0  0  0  0
  186.4850  178.6870  139.0690 C   0  0  0  0  0  0  0  0  0  0  0  0
  186.7140  178.4030  140.4270 C   0  0  0  0  0  0  0  0  0  0  0  0
  185.2740  179.1540  138.6600 N   0  0  0  0  0  0  0  0  0  0  0  0
  187.4580  178.9020  136.9170 O   0  0  0  0  0  0  0  0  0  0  0  0
  187.9560  177.8960  140.8820 C   0  0  0  0  0  0  0  0  0  0  0  0
  185.6730  178.6420  141.3460 C   0  0  0  0  0  0  0  0  0  0  0  0
  188.8200  178.0850  138.5790 O   0  0  0  0  0  0  0  0  0  0  0  0
  187.5920  178.5520  138.1190 C   0  0  0  0  0  0  0  0  0  0  0  0
  190.0860  176.1110  142.3240 C   0  0  0  0  0  0  0  0  0  0  0  0
  189.4030  177.2790  142.9620 C   0  0  2  0  0  3  0  0  0  0  0  0
  187.0500  177.9580  143.1420 C   0  0  0  0  0  3  0  0  0  0  0  0
  184.4390  179.1160  140.8970 C   0  0  0  0  0  3  0  0  0  0  0  0
  188.1200  177.6840  142.2830 C   0  0  0  0  0  0  0  0  0  0  0  0
  190.4000  177.3470  140.2320 C   0  0  0  0  0  2  0  0  0  0  0  0
  190.2020  175.0370  142.9690 O   0  0  0  0  0  0  0  0  0  0  0  0
  188.9400  177.3930  139.8210 C   0  0  1  0  0  3  0  0  0  0  0  0
  190.3630  178.4530  143.1290 C   0  0  0  0  0  2  0  0  0  0  0  0
  191.4200  178.2360  144.5940 S   0  0  0  0  0  0  0  0  0  0  0  0
  190.0790  177.4780  145.5530 C   0  0  0  0  0  2  0  0  0  0  0  0
  190.5910  177.3160  147.2860 S   0  0  0  0  0  0  0  0  0  0  0  0
  188.3400  176.0680  147.8760 O   0  0  0  0  0  0  0  0  0  0  0  0
  188.8990  177.1980  147.8440 C   0  0  0  0  0  0  0  0  0  0  0  0
  188.2180  178.3870  148.2690 N   0  0  0  0  0  0  0  0  0  0  0  0
  187.0850  178.8490  147.8230 C   0  0  0  0  0  3  0  0  0  0  0  0
  184.9520  178.7820  146.7000 N   0  0  0  0  0  1  0  0  0  0  0  0
  186.2890  178.2160  146.7280 C   0  0  0  0  0  2  0  0  0  0  0  0
  1 13  1  0  0  0  0
  2 15  1  0  0  0  0
  3  4  1  0  0  0  0
  4 16  2  0  0  0  0
  5  6  1  0  0  0  0
  6  9  2  0  0  0  0
  6 10  1  0  0  0  0
  7  5  2  0  0  0  0
  7  4  1  0  0  0  0
  8 12  2  0  0  0  0
  9 17  1  0  0  0  0
 10  2  2  0  0  0  0
 11 20  1  0  0  0  0
 12 11  1  0  0  0  0
 12  5  1  0  0  0  0
 13 14  1  0  0  0  0
 13 19  2  0  0  0  0
 14 21  1  6  0  0  0
 16 10  1  0  0  0  0
 17 14  1  0  0  0  0
 17 15  2  0  0  0  0
 18  1  1  0  0  0  0
 20 18  1  1  0  0  0
 20  9  1  0  0  0  0
 21 22  1  0  0  0  0
 22 23  1  0  0  0  0
 23 24  1  0  0  0  0
 24 26  1  0  0  0  0
 26 25  2  0  0  0  0
 26 27  1  0  0  0  0
 28 27  2  0  0  0  0
 29 30  1  0  0  0  0
 30 28  1  0  0  0  0
M  END
>  <MODEL>
7

>  <REMARK>
 VINA RESULT:      -6.7      2.106      2.643
  Name = 
  7 active torsions:
  status: ('A' for Active; 'I' for Inactive)
    1  A    between atoms: C_1  and  S_8
    2  A    between atoms: C_1  and  S_18
    3  A    between atoms: S_8  and  C_11
    4  A    between atoms: N_9  and  C_21
    5  A    between atoms: C_11  and  C_24
    6  A    between atoms: C_16  and  C_20
    7  A    between atoms: S_18  and  C_21
                            x       y       z     vdW  Elec       q    Type
                         _______ _______ _______ _____ _____    ______ ____

>  <TORSDO>
F 7

$$$$
=
 OpenBabel10232408423D

 30 33  0  0  1  0  0  0  0  0999 V2000
  189.7280  178.3350  145.5550 O   0  0  0  0  0  0  0  0  0  0  0  0
  185.8530  178.6020  141.6740 N   0  0  0  0  0  0  0  0  0  0  0  0
  181.3920  179.2780  143.3610 N   0  0  0  0  0  1  0  0  0  0  0  0
  182.7690  179.0050  143.5790 C   0  0  0  0  0  0  0  0  0  0  0  0
  184.5410  178.5320  145.0910 C   0  0  0  0  0  0  0  0  0  0  0  0
  185.4670  178.4820  144.0350 C   0  0  0  0  0  0  0  0  0  0  0  0
  183.2280  178.7890  144.8400 N   0  0  0  0  0  0  0  0  0  0  0  0
  184.1740  178.1450  147.4020 O   0  0  0  0  0  0  0  0  0  0  0  0
  186.8430  178.2360  144.2650 C   0  0  0  0  0  0  0  0  0  0  0  0
  184.9970  178.6760  142.7210 C   0  0  0  0  0  0  0  0  0  0  0  0
  186.3410  177.9460  146.6630 O   0  0  0  0  0  0  0  0  0  0  0  0
  184.9930  178.2200  146.4490 C   0  0  0  0  0  0  0  0  0  0  0  0
  189.9620  178.5120  144.1940 C   0  0  0  0  0  0  0  0  0  0  0  0
  189.1640  177.7690  143.1700 C   0  0  2  0  0  3  0  0  0  0  0  0
  187.1710  178.3380  141.8540 C   0  0  0  0  0  3  0  0  0  0  0  0
  183.6470  178.9440  142.4940 C   0  0  0  0  0  3  0  0  0  0  0  0
  187.7060  178.1520  143.1320 C   0  0  0  0  0  0  0  0  0  0  0  0
  188.6250  177.5730  146.0200 C   0  0  0  0  0  2  0  0  0  0  0  0
  190.8760  179.2900  143.8170 O   0  0  0  0  0  0  0  0  0  0  0  0
  187.3390  178.3160  145.7120 C   0  0  1  0  0  3  0  0  0  0  0  0
  189.3620  176.2620  143.3070 C   0  0  0  0  0  2  0  0  0  0  0  0
  190.8730  175.7160  142.4540 S   0  0  0  0  0  0  0  0  0  0  0  0
  190.5190  176.7370  140.9960 C   0  0  0  0  0  2  0  0  0  0  0  0
  192.0780  177.2670  140.2350 S   0  0  0  0  0  0  0  0  0  0  0  0
  190.8080  175.5060  138.7320 O   0  0  0  0  0  0  0  0  0  0  0  0
  191.7290  176.3670  138.7330 C   0  0  0  0  0  0  0  0  0  0  0  0
  192.4860  176.6610  137.5490 N   0  0  0  0  0  0  0  0  0  0  0  0
  193.5270  176.0190  137.1000 C   0  0  0  0  0  3  0  0  0  0  0  0
  195.0730  174.1820  136.8770 N   0  0  0  0  0  1  0  0  0  0  0  0
  194.1550  174.8480  137.7850 C   0  0  0  0  0  2  0  0  0  0  0  0
  1 18  1  0  0  0  0
  2 15  2  0  0  0  0
  2 10  1  0  0  0  0
  3  4  1  0  0  0  0
  4  7  1  0  0  0  0
  5 12  1  0  0  0  0
  6  9  1  0  0  0  0
  6  5  1  0  0  0  0
  7  5  2  0  0  0  0
  9 20  1  0  0  0  0
 10  6  2  0  0  0  0
 12 11  1  0  0  0  0
 12  8  2  0  0  0  0
 13  1  1  0  0  0  0
 14 21  1  1  0  0  0
 14 13  1  0  0  0  0
 15 17  1  0  0  0  0
 16 10  1  0  0  0  0
 16  4  2  0  0  0  0
 17 14  1  0  0  0  0
 17  9  2  0  0  0  0
 19 13  2  0  0  0  0
 20 18  1  6  0  0  0
 20 11  1  0  0  0  0
 22 21  1  0  0  0  0
 23 22  1  0  0  0  0
 24 23  1  0  0  0  0
 25 26  2  0  0  0  0
 26 24  1  0  0  0  0
 27 26  1  0  0  0  0
 28 27  2  0  0  0  0
 28 30  1  0  0  0  0
 29 30  1  0  0  0  0
M  END
>  <MODEL>
8

>  <REMARK>
 VINA RESULT:      -6.6      4.239      6.134
  Name = 
  7 active torsions:
  status: ('A' for Active; 'I' for Inactive)
    1  A    between atoms: C_1  and  S_8
    2  A    between atoms: C_1  and  S_18
    3  A    between atoms: S_8  and  C_11
    4  A    between atoms: N_9  and  C_21
    5  A    between atoms: C_11  and  C_24
    6  A    between atoms: C_16  and  C_20
    7  A    between atoms: S_18  and  C_21
                            x       y       z     vdW  Elec       q    Type
                         _______ _______ _______ _____ _____    ______ ____

>  <TORSDO>
F 7

$$$$
=
 OpenBabel10232408423D

 30 33  0  0  1  0  0  0  0  0999 V2000
  189.8460  178.1530  139.1860 O   0  0  0  0  0  0  0  0  0  0  0  0
  184.7400  179.0460  140.9970 N   0  0  0  0  0  0  0  0  0  0  0  0
  184.2530  178.7880  145.7830 N   0  0  0  0  0  1  0  0  0  0  0  0
  185.0300  178.6100  144.6060 C   0  0  0  0  0  0  0  0  0  0  0  0
  187.0710  177.9340  143.5920 C   0  0  0  0  0  0  0  0  0  0  0  0
  186.5790  178.2630  142.3160 C   0  0  0  0  0  0  0  0  0  0  0  0
  186.2930  178.1140  144.6940 N   0  0  0  0  0  0  0  0  0  0  0  0
  188.8250  176.9100  144.8170 O   0  0  0  0  0  0  0  0  0  0  0  0
  187.3700  178.1070  141.1520 C   0  0  0  0  0  0  0  0  0  0  0  0
  185.2610  178.7500  142.2120 C   0  0  0  0  0  0  0  0  0  0  0  0
  189.1550  177.1390  142.5540 O   0  0  0  0  0  0  0  0  0  0  0  0
  188.3950  177.3200  143.7060 C   0  0  0  0  0  0  0  0  0  0  0  0
  188.8110  178.7100  138.4380 C   0  0  0  0  0  0  0  0  0  0  0  0
  187.4140  178.1890  138.5450 C   0  0  2  0  0  3  0  0  0  0  0  0
  185.4570  178.8800  139.8590 C   0  0  0  0  0  3  0  0  0  0  0  0
  184.4890  178.9300  143.3590 C   0  0  0  0  0  3  0  0  0  0  0  0
  186.7770  178.4170  139.8930 C   0  0  0  0  0  0  0  0  0  0  0  0
  189.5900  177.1860  140.1910 C   0  0  0  0  0  2  0  0  0  0  0  0
  189.0590  179.6490  137.6390 O   0  0  0  0  0  0  0  0  0  0  0  0
  188.8680  177.8490  141.3490 C   0  0  1  0  0  3  0  0  0  0  0  0
  187.3370  176.7280  138.1100 C   0  0  0  0  0  2  0  0  0  0  0  0
  186.9230  176.5890  136.3440 S   0  0  0  0  0  0  0  0  0  0  0  0
  185.1970  177.0710  136.6240 C   0  0  0  0  0  2  0  0  0  0  0  0
  184.2600  175.6430  137.2340 S   0  0  0  0  0  0  0  0  0  0  0  0
  182.7980  177.7970  137.6750 O   0  0  0  0  0  0  0  0  0  0  0  0
  183.1430  176.6850  138.1590 C   0  0  0  0  0  0  0  0  0  0  0  0
  182.6410  176.2250  139.4220 N   0  0  0  0  0  0  0  0  0  0  0  0
  181.4830  175.6800  139.6590 C   0  0  0  0  0  3  0  0  0  0  0  0
  180.6590  174.2080  137.9350 N   0  0  0  0  0  1  0  0  0  0  0  0
  180.4250  175.4650  138.6240 C   0  0  0  0  0  2  0  0  0  0  0  0
  1 18  1  0  0  0  0
  2 10  1  0  0  0  0
  4  7  1  0  0  0  0
  4  3  1  0  0  0  0
  5 12  1  0  0  0  0
  5  7  2  0  0  0  0
  6  5  1  0  0  0  0
  9 20  1  0  0  0  0
  9  6  1  0  0  0  0
 10  6  2  0  0  0  0
 10 16  1  0  0  0  0
 11 12  1  0  0  0  0
 12  8  2  0  0  0  0
 13 14  1  0  0  0  0
 13  1  1  0  0  0  0
 14 21  1  1  0  0  0
 14 17  1  0  0  0  0
 15 17  1  0  0  0  0
 15  2  2  0  0  0  0
 16  4  2  0  0  0  0
 17  9  2  0  0  0  0
 19 13  2  0  0  0  0
 20 18  1  6  0  0  0
 20 11  1  0  0  0  0
 22 23  1  0  0  0  0
 22 21  1  0  0  0  0
 23 24  1  0  0  0  0
 24 26  1  0  0  0  0
 25 26  2  0  0  0  0
 26 27  1  0  0  0  0
 27 28  2  0  0  0  0
 29 30  1  0  0  0  0
 30 28  1  0  0  0  0
M  END
>  <MODEL>
9

>  <REMARK>
 VINA RESULT:      -6.5      3.669      7.302
  Name = 
  7 active torsions:
  status: ('A' for Active; 'I' for Inactive)
    1  A    between atoms: C_1  and  S_8
    2  A    between atoms: C_1  and  S_18
    3  A    between atoms: S_8  and  C_11
    4  A    between atoms: N_9  and  C_21
    5  A    between atoms: C_11  and  C_24
    6  A    between atoms: C_16  and  C_20
    7  A    between atoms: S_18  and  C_21
                            x       y       z     vdW  Elec       q    Type
                         _______ _______ _______ _____ _____    ______ ____

>  <TORSDO>
F 7

$$$$
